data_PCOD9289941
_publ_section_title
;
Structure prediction by ZEFSAII (Michael W. Deem and Ramdas Pophale) SiO2 
 PCOD9289941
Probable space group: C 2/C
;
_chemical_formula_sum "Si O2"
_cell_formula_units_Z 60
_cell_length_a 8.402558
_cell_length_b 16.015518
_cell_length_c 22.686313
_cell_angle_alpha 90.000000
_cell_angle_beta 107.947920
_cell_angle_gamma 90.000000
_cell_volume 2904.362501
_symmetry_space_group_name_H-M "C 2/C"
_symmetry_group_IT_number 15
_symmetry_cell_setting 'monoclinic'
loop_
_space_group_symop_operation_xyz
x,y,z
-x,y,1/2-z
-x,-y,-z
x,-y,1/2+z
1/2+x,1/2+y,z
1/2-x,1/2+y,1/2-z
1/2-x,1/2-y,-z
1/2+x,1/2-y,1/2+z
loop_
_atom_site_type_symbol
_atom_site_label
_atom_site_fract_x
_atom_site_fract_y
_atom_site_fract_z
Si Si1 0.321140 0.123116 0.909549
Si Si2 0.150288 0.671390 0.012902
Si Si3 0.231601 0.775248 0.849719
Si Si4 0.000000 0.103813 0.250000
Si Si5 0.117236 0.981132 0.957774
Si Si6 0.644252 0.501719 0.165621
Si Si7 0.048567 0.401287 0.325296
Si Si8 0.998551 0.821245 0.180705
O O1 0.226125 0.054667 0.939345
O O2 0.404619 0.087331 0.858303
O O3 0.181799 0.187314 0.869765
O O4 0.466025 0.164091 0.965371
O O5 0.171786 0.683345 0.084978
O O6 0.251338 0.588434 0.008062
O O7 0.250000 0.750000 0.000000
O O8 0.100744 0.837391 0.805815
O O9 0.138717 0.686738 0.853365
O O10 0.374386 0.751141 0.820128
O O11 0.873021 0.047096 0.273713
O O12 0.982058 0.952656 0.893278
O O13 0.000000 0.000000 0.000000
O O14 0.826700 0.480828 0.161018
O O15 0.570555 0.408538 0.164715
O O16 0.000000 0.391069 0.250000
O O17 0.000000 0.830527 0.250000
#
# Coordination Sequence:
#
# PCOD9289941 Si02
#       8
#     8   8   8   4   8   8   8   8
#     4  11  24  43  72  96 138 179 232 282 337 407
#     4  12  25  43  67  97 137 178 228 280 346 403
#     4  11  24  41  67  99 141 178 221 284 349 406
#     4  12  22  44  68 104 138 182 216 298 344 390
#     4  11  25  46  68  97 135 185 231 280 337 411
#     4  10  22  40  70  95 135 177 232 277 340 404
#     4  11  22  40  72 102 131 183 230 275 345 421
#     4  10  22  42  67  97 132 183 227 273 338 419
#
# _framework density 20.658577999999999
#
# number of rings (size 3 to 8) (size 9 to 14) (size 15 to 20)
#    0.000    1.067    4.000    2.800    5.600    0.533 
#    0.000    2.000    0.000    0.000    0.000    0.000 
#    0.000    0.000    0.000    0.000    0.000    0.000 
#
# Total GULP energy -167424.433455 kJ/mol
# GULP energy per Si atom -5580.814448 kJ/mol
# Density = 2.061156 g / cm^3
# Si number density = 20.658578 Si / 1000 Ang^3
#
#
#
# Elastic Constant Matrix: (Units=GPa)
#
#
# Indices 1 2 3 4 5 6 
#
# 1 92.1156 22.9644 22.5268 0.0000 -7.8713 0.0000
# 2 22.9644 48.0390 10.1015 0.0000 6.2180 0.0000
# 3 22.5268 10.1015 93.5773 0.0000 8.7893 0.0000
# 4 0.0000 0.0000 0.0000 9.7531 0.0000 0.3470
# 5 -7.8713 6.2180 8.7893 0.0000 41.0317 0.0000
# 6 0.0000 0.0000 0.0000 0.3470 0.0000 12.9119
#
#
#
# Elastic Compliance Matrix: (Units=1/GPa)
#
#
# Indices 1 2 3 4 5 6 
#
# 1 0.013532 -0.006389 -0.002962 0.000000 0.004199 0.000000
# 2 -0.006389 0.024635 -0.000669 0.000000 -0.004816 0.000000
# 3 -0.002962 -0.000669 0.011752 0.000000 -0.002984 0.000000
# 4 0.000000 0.000000 0.000000 0.102629 0.000000 -0.002758
# 5 0.004199 -0.004816 -0.002984 0.000000 0.026546 0.000000
# 6 0.000000 0.000000 0.000000 -0.002758 0.000000 0.077522
#
#
# Mechanical properties :
#
#
# Convention : Reuss Voigt Hill
#
# Bulk Modulus (GPa) = 33.46962 38.32414 35.89688
# Shear Modulus (GPa) = 17.44496 24.61530 21.03013
#
# Velocity S-wave (km/s) = 2.90908 3.45560 3.19405
# Velocity P-wave (km/s) = 5.24597 5.87478 5.56925
#
# Compressibility (1/GPa) = 0.02987784
#
# Stress axis : x y z
#
# Youngs Moduli (GPa) = 73.89901 40.59303 85.09237
#
# Poissons Ratio (x) = 0.25936 0.25206
# Poissons Ratio (y) = 0.47217 0.05691
# Poissons Ratio (z) = 0.21890 0.02715
#
# Static dielectric constant tensor:
#      x y z
#    x 1.727150 0.000000 0.044790 
#    y 0.000000 1.733530 0.000000 
#    z 0.044790 0.000000 1.722350 
# 
# From -- ./inp_files/264748.got.cif
#   From: 2010.05.17/outbox.cif.g08.bks.cpg/sg15_133_cif.got.tgz:264748.got - 2010.06.03 18:47:42.
