data_PCOD9289641
_publ_section_title
;
Structure prediction by ZEFSAII (Michael W. Deem and Ramdas Pophale) SiO2 
 PCOD9289641
Probable space group: C 2/C
;
_chemical_formula_sum "Si O2"
_cell_formula_units_Z 32
_cell_length_a 19.291751
_cell_length_b 6.010485
_cell_length_c 13.994883
_cell_angle_alpha 90.000000
_cell_angle_beta 59.842767
_cell_angle_gamma 90.000000
_cell_volume 1403.107019
_symmetry_space_group_name_H-M "C 2/C"
_symmetry_group_IT_number 15
_symmetry_cell_setting 'monoclinic'
loop_
_space_group_symop_operation_xyz
x,y,z
-x,y,1/2-z
-x,-y,-z
x,-y,1/2+z
1/2+x,1/2+y,z
1/2-x,1/2+y,1/2-z
1/2-x,1/2-y,-z
1/2+x,1/2-y,1/2+z
loop_
_atom_site_type_symbol
_atom_site_label
_atom_site_fract_x
_atom_site_fract_y
_atom_site_fract_z
Si Si1 0.333985 0.512956 0.360779
Si Si2 0.561025 0.557679 0.872955
Si Si3 0.938131 0.373876 0.856276
Si Si4 0.341161 0.184557 0.046134
O O1 0.391593 0.598065 0.234879
O O2 0.362618 0.257357 0.361158
O O3 0.340873 0.642181 0.456941
O O4 0.243606 0.559644 0.390567
O O5 0.501009 0.692247 0.847722
O O6 0.631101 0.696377 0.876982
O O7 0.500000 0.500000 0.000000
O O8 0.000000 0.519362 0.750000
O O9 0.906671 0.506339 0.968419
#
# Coordination Sequence:
#
# PCOD9289641 Si02
#       4
#     8   8   8   8
#     4  10  24  44  62  95 134 167 217 271 319 388
#     4  11  23  41  66  97 131 164 217 279 317 382
#     4  10  22  40  66  95 128 167 217 267 319 393
#     4  11  23  43  68  91 128 182 208 262 337 384
#
# _framework density 22.806528
#
# number of rings (size 3 to 8) (size 9 to 14) (size 15 to 20)
#    0.000    1.500    2.500    1.500    3.500    2.000 
#   18.000    0.000    0.000    0.000    0.000    0.000 
#    0.000    0.000    0.000    0.000    0.000    0.000 
#
# Total GULP energy -89144.492455 kJ/mol
# GULP energy per Si atom -5571.530778 kJ/mol
# Density = 2.275462 g / cm^3
# Si number density = 22.806528 Si / 1000 Ang^3
#
#
#
# Elastic Constant Matrix: (Units=GPa)
#
#
# Indices 1 2 3 4 5 6 
#
# 1 135.9440 23.9671 32.0370 0.0000 6.3096 0.0006
# 2 23.9671 27.2240 20.2937 0.0011 -7.2634 0.0010
# 3 32.0370 20.2937 123.0973 0.0000 -6.3497 0.0004
# 4 0.0000 0.0011 0.0000 -45.7767 -0.0001 30.2777
# 5 6.3096 -7.2634 -6.3497 -0.0001 40.4241 -0.0002
# 6 0.0006 0.0010 0.0004 30.2777 -0.0002 8.8664
#
#
#
# Elastic Compliance Matrix: (Units=1/GPa)
#
#
# Indices 1 2 3 4 5 6 
#
# 1 0.009199 -0.007997 -0.001234 0.000000 -0.003066 0.000000
# 2 -0.007997 0.050592 -0.005773 -0.000001 0.009432 -0.000003
# 3 -0.001234 -0.005773 0.009429 0.000000 0.000636 0.000000
# 4 0.000000 -0.000001 0.000000 -0.006704 0.000000 0.022892
# 5 -0.003066 0.009432 0.000636 0.000000 0.027011 0.000000
# 6 0.000000 -0.000003 0.000000 0.022892 0.000000 0.034611
#
#
# Mechanical properties :
#
#
# Convention : Reuss Voigt Hill
#
# Bulk Modulus (GPa) = 25.50158 48.76232 37.13195
# Shear Modulus (GPa) = 29.90134 14.70059 22.30097
#
# Velocity S-wave (km/s) = 3.62482 2.54161 3.13042
# Velocity P-wave (km/s) = 5.35958 5.48090 5.42058
#
# Compressibility (1/GPa) = 0.03921326
#
# Stress axis : x y z
#
# Youngs Moduli (GPa) = 108.70836 19.76597 106.05210
#
# Poissons Ratio (x) = 0.15806 0.13086
# Poissons Ratio (y) = 0.86931 0.61222
# Poissons Ratio (z) = 0.13414 0.11411
#
# Static dielectric constant tensor:
#      x y z
#    x 1.797430 0.000000 0.028670 
#    y 0.000000 1.935170 0.000000 
#    z 0.028670 0.000000 2.234020 
# 
# From -- ./inp_files/109485.got.cif
#   From: 2010.05.17/outbox.cif.g08.bks.cpg/sg15_55_cif.got.tgz:109485.got - 2010.06.03 18:47:42.
