data_PCOD9289342
_publ_section_title
;
Structure prediction by ZEFSAII (Michael W. Deem and Ramdas Pophale) SiO2 
 PCOD9289342
Probable space group: C 2/C
;
_chemical_formula_sum "Si O2"
_cell_formula_units_Z 60
_cell_length_a 18.988313
_cell_length_b 28.999304
_cell_length_c 13.544514
_cell_angle_alpha 90.000000
_cell_angle_beta 157.515171
_cell_angle_gamma 90.000000
_cell_volume 2852.327041
_symmetry_space_group_name_H-M "C 2/C"
_symmetry_group_IT_number 15
_symmetry_cell_setting 'monoclinic'
loop_
_space_group_symop_operation_xyz
x,y,z
-x,y,1/2-z
-x,-y,-z
x,-y,1/2+z
1/2+x,1/2+y,z
1/2-x,1/2+y,1/2-z
1/2-x,1/2-y,-z
1/2+x,1/2-y,1/2+z
loop_
_atom_site_type_symbol
_atom_site_label
_atom_site_fract_x
_atom_site_fract_y
_atom_site_fract_z
Si Si1 0.502915 0.079628 0.634730
Si Si2 0.153470 0.884230 0.563960
Si Si3 0.939359 0.191350 0.413434
Si Si4 0.055518 0.627168 0.206752
Si Si5 0.000000 0.036826 0.750000
Si Si6 0.323686 0.791900 0.304716
Si Si7 0.422965 0.979027 0.762100
Si Si8 0.206191 0.843246 0.975368
O O1 0.500000 0.078107 0.750000
O O2 0.329576 0.104726 0.361137
O O3 0.684648 0.110424 0.854411
O O4 0.500981 0.026757 0.595505
O O5 0.040141 0.846661 0.475858
O O6 0.235785 0.868099 0.564639
O O7 0.044253 0.930791 0.401193
O O8 0.878090 0.238938 0.383561
O O9 0.128484 0.201119 0.603175
O O10 0.805364 0.171146 0.154040
O O11 0.020190 0.573039 0.131252
O O12 0.000000 0.630630 0.250000
O O13 0.951323 0.668574 0.016911
O O14 0.800327 0.015080 0.516513
O O15 0.305155 0.802901 0.164711
O O16 0.500000 0.979148 0.750000
O O17 0.000000 0.847890 0.750000
#
# Coordination Sequence:
#
# PCOD9289342 Si02
#       8
#     8   8   8   8   4   8   8   8
#     4  11  21  41  68  99 135 171 219 274 342 392
#     4  11  23  42  66  95 131 173 220 273 330 392
#     4  11  24  40  65  95 127 167 219 270 336 400
#     4  10  22  42  63  90 128 170 220 274 323 384
#     4  10  24  42  64  96 134 178 232 266 332 394
#     4  11  23  41  64  93 128 173 218 266 337 399
#     4   9  22  41  66  95 133 179 222 277 337 396
#     4  10  22  40  63  97 134 169 211 274 330 405
#
# _framework density 21.035456
#
# number of rings (size 3 to 8) (size 9 to 14) (size 15 to 20)
#    0.000    1.600    2.667    1.200    6.533    2.133 
#    1.200    4.000    0.000    0.000    0.000    0.000 
#    0.000    0.000    0.000    0.000    0.000    0.000 
#
# Total GULP energy -167196.765833 kJ/mol
# GULP energy per Si atom -5573.225528 kJ/mol
# Density = 2.098758 g / cm^3
# Si number density = 21.035456 Si / 1000 Ang^3
#
#
#
# Elastic Constant Matrix: (Units=GPa)
#
#
# Indices 1 2 3 4 5 6 
#
# 1 92.8572 17.9754 -1.8939 0.0000 -4.2849 0.0000
# 2 17.9754 87.5303 11.9066 0.0000 0.4480 0.0000
# 3 -1.8939 11.9066 49.1121 -0.0001 -3.8373 -0.0002
# 4 0.0000 0.0000 -0.0001 15.7743 -0.0001 19.0644
# 5 -4.2849 0.4480 -3.8373 -0.0001 23.3744 0.0000
# 6 0.0000 0.0000 -0.0002 19.0644 0.0000 -49.1276
#
#
#
# Elastic Compliance Matrix: (Units=1/GPa)
#
#
# Indices 1 2 3 4 5 6 
#
# 1 0.011390 -0.002519 0.001233 0.000000 0.002339 0.000000
# 2 -0.002519 0.012383 -0.003195 0.000000 -0.001223 0.000000
# 3 0.001233 -0.003195 0.021482 0.000000 0.003814 0.000000
# 4 0.000000 0.000000 0.000000 0.043155 0.000000 0.016747
# 5 0.002339 -0.001223 0.003814 0.000000 0.043860 0.000000
# 6 0.000000 0.000000 0.000000 0.016747 0.000000 -0.013856
#
#
# Mechanical properties :
#
#
# Convention : Reuss Voigt Hill
#
# Bulk Modulus (GPa) = 27.55395 31.71954 29.63674
# Shear Modulus (GPa) = 35.84960 11.43833 23.64397
#
# Velocity S-wave (km/s) = 4.13273 2.33441 3.35626
# Velocity P-wave (km/s) = 5.99165 4.73051 5.39804
#
# Compressibility (1/GPa) = 0.03629244
#
# Stress axis : x y z
#
# Youngs Moduli (GPa) = 87.79748 80.75779 46.55142
#
# Poissons Ratio (x) = 0.20340 -0.05738
# Poissons Ratio (y) = 0.22113 0.14872
# Poissons Ratio (z) = -0.10822 0.25800
#
# Static dielectric constant tensor:
#      x y z
#    x 1.789750 0.000000 -0.011740 
#    y 0.000000 1.757140 0.000000 
#    z -0.011740 0.000000 1.795230 
# 
# From -- ./inp_files/169949.got.cif
#   From: 2010.05.17/outbox.cif.g08.bks.cpg/sg15_85_cif.got.tgz:169949.got - 2010.06.03 18:47:42.
