data_PCOD9289851
_publ_section_title
;
Structure prediction by ZEFSAII (Michael W. Deem and Ramdas Pophale) SiO2 
 PCOD9289851
Probable space group: C 2/C
;
_chemical_formula_sum "Si O2"
_cell_formula_units_Z 60
_cell_length_a 18.087997
_cell_length_b 21.442192
_cell_length_c 13.592942
_cell_angle_alpha 90.000000
_cell_angle_beta 33.584084
_cell_angle_gamma 90.000000
_cell_volume 2916.245020
_symmetry_space_group_name_H-M "C 2/C"
_symmetry_group_IT_number 15
_symmetry_cell_setting 'monoclinic'
loop_
_space_group_symop_operation_xyz
x,y,z
-x,y,1/2-z
-x,-y,-z
x,-y,1/2+z
1/2+x,1/2+y,z
1/2-x,1/2+y,1/2-z
1/2-x,1/2-y,-z
1/2+x,1/2-y,1/2+z
loop_
_atom_site_type_symbol
_atom_site_label
_atom_site_fract_x
_atom_site_fract_y
_atom_site_fract_z
Si Si1 0.500000 0.389405 0.250000
Si Si2 0.354676 0.220983 0.960601
Si Si3 0.802087 0.105033 0.282700
Si Si4 0.123203 0.577765 0.920812
Si Si5 0.051004 0.190165 0.521633
Si Si6 0.662024 0.040034 0.252005
Si Si7 0.775281 0.793186 0.241343
Si Si8 0.803713 0.019169 0.888786
O O1 0.414593 0.345006 0.415122
O O2 0.571681 0.434440 0.248405
O O3 0.500000 0.218433 0.750000
O O4 0.250000 0.250000 0.000000
O O5 0.303207 0.152847 0.051967
O O6 0.346328 0.265046 0.065669
O O7 0.919780 0.146444 0.105684
O O8 0.739929 0.071044 0.256205
O O9 0.839990 0.051013 0.317518
O O10 0.121922 0.529484 0.831641
O O11 0.206281 0.639553 0.804783
O O12 0.196577 0.543968 0.929735
O O13 0.967726 0.583244 0.121600
O O14 0.151802 0.247578 0.401515
O O15 0.893430 0.205416 0.691311
O O16 0.745625 0.028732 0.061623
#
# Coordination Sequence:
#
# PCOD9289851 Si02
#       8
#     4   8   8   8   8   8   8   8
#     4  12  24  44  68  94 134 172 234 276 336 406
#     4  11  25  43  67 100 133 175 224 276 336 407
#     4  10  24  42  69  96 138 174 223 278 344 399
#     4  10  23  41  68  98 132 176 223 280 340 404
#     4  11  25  46  67 100 135 181 228 280 345 398
#     4  10  22  40  68  98 134 174 222 281 344 397
#     4  11  25  45  69  94 138 177 225 285 337 401
#     4  11  23  43  65 100 130 180 218 286 330 414
#
# _framework density 20.574403
#
# number of rings (size 3 to 8) (size 9 to 14) (size 15 to 20)
#    0.000    1.333    2.667    2.000    7.467    4.267 
#    3.600    0.000    0.000    0.000    0.000    0.000 
#    0.000    0.000    0.000    0.000    0.000    0.000 
#
# Total GULP energy -167489.516926 kJ/mol
# GULP energy per Si atom -5582.983898 kJ/mol
# Density = 2.052758 g / cm^3
# Si number density = 20.574403 Si / 1000 Ang^3
#
#
#
# Elastic Constant Matrix: (Units=GPa)
#
#
# Indices 1 2 3 4 5 6 
#
# 1 62.8281 24.1002 7.9201 -0.0004 -4.1518 -0.0002
# 2 24.1002 122.0658 56.1534 0.0000 5.4818 -0.0003
# 3 7.9201 56.1534 93.7068 0.0000 2.2187 -0.0010
# 4 -0.0004 0.0000 0.0000 21.9315 0.0001 -3.0797
# 5 -4.1518 5.4818 2.2187 0.0001 31.3853 0.0003
# 6 -0.0002 -0.0003 -0.0010 -3.0797 0.0003 25.4627
#
#
#
# Elastic Compliance Matrix: (Units=1/GPa)
#
#
# Indices 1 2 3 4 5 6 
#
# 1 0.017532 -0.003977 0.000831 0.000000 0.002955 0.000000
# 2 -0.003977 0.012283 -0.006973 0.000000 -0.002178 0.000000
# 3 0.000831 -0.006973 0.014773 0.000000 0.000283 0.000000
# 4 0.000000 0.000000 0.000000 0.046384 0.000000 0.005610
# 5 0.002955 -0.002178 0.000283 0.000000 0.032613 0.000000
# 6 0.000000 0.000000 0.000000 0.005610 0.000000 0.039952
#
#
# Mechanical properties :
#
#
# Convention : Reuss Voigt Hill
#
# Bulk Modulus (GPa) = 41.06471 50.54980 45.80725
# Shear Modulus (GPa) = 26.05642 28.45104 27.25373
#
# Velocity S-wave (km/s) = 3.56258 3.72269 3.64351
# Velocity P-wave (km/s) = 6.07660 6.56509 6.32556
#
# Compressibility (1/GPa) = 0.02435181
#
# Stress axis : x y z
#
# Youngs Moduli (GPa) = 57.03756 81.41387 67.69078
#
# Poissons Ratio (x) = 0.32375 -0.05626
# Poissons Ratio (y) = 0.22681 0.47200
# Poissons Ratio (z) = -0.04741 0.56768
#
# Static dielectric constant tensor:
#      x y z
#    x 1.755060 0.000000 -0.023650 
#    y 0.000000 1.745160 0.000000 
#    z -0.023650 0.000000 1.770080 
# 
# From -- ./inp_files/107615.got.cif
#   From: 2010.05.17/outbox.cif.g08.bks.cpg/sg15_54_cif.got.tgz:107615.got - 2010.06.03 18:47:42.
