data_PCOD9289862
_publ_section_title
;
Structure prediction by ZEFSAII (Michael W. Deem and Ramdas Pophale) SiO2 
 PCOD9289862
Probable space group: C 2/C
;
_chemical_formula_sum "Si O2"
_cell_formula_units_Z 44
_cell_length_a 12.108377
_cell_length_b 24.450786
_cell_length_c 7.815301
_cell_angle_alpha 90.000000
_cell_angle_beta 120.602599
_cell_angle_gamma 90.000000
_cell_volume 1991.525289
_symmetry_space_group_name_H-M "C 2/C"
_symmetry_group_IT_number 15
_symmetry_cell_setting 'monoclinic'
loop_
_space_group_symop_operation_xyz
x,y,z
-x,y,1/2-z
-x,-y,-z
x,-y,1/2+z
1/2+x,1/2+y,z
1/2-x,1/2+y,1/2-z
1/2-x,1/2-y,-z
1/2+x,1/2-y,1/2+z
loop_
_atom_site_type_symbol
_atom_site_label
_atom_site_fract_x
_atom_site_fract_y
_atom_site_fract_z
Si Si1 0.412656 0.373097 0.849861
Si Si2 0.726924 0.465574 0.605551
Si Si3 0.651896 0.578036 0.677495
Si Si4 0.000000 0.432495 0.750000
Si Si5 0.138510 0.756134 0.769106
Si Si6 0.409461 0.862832 0.347156
O O1 0.500000 0.376259 0.750000
O O2 0.347057 0.314125 0.814305
O O3 0.309662 0.421288 0.779918
O O4 0.523444 0.387173 0.072149
O O5 0.649421 0.520751 0.575248
O O6 0.686477 0.439152 0.395675
O O7 0.880252 0.470174 0.712305
O O8 0.771806 0.611032 0.697548
O O9 0.964247 0.394236 0.557734
O O10 0.123274 0.701184 0.646537
O O11 0.000000 0.760753 0.750000
O O12 0.250000 0.750000 0.000000
O O13 0.500000 0.866361 0.250000
#
# Coordination Sequence:
#
# PCOD9289862 Si02
#       6
#     8   8   8   4   8   8
#     4  11  23  41  68  96 133 175 225 279 343 406
#     4  11  25  42  67  96 142 172 234 280 346 411
#     4  11  24  42  64 101 130 182 224 282 349 407
#     4  10  26  42  62 108 132 182 234 284 342 422
#     4  10  22  40  69 101 132 182 235 279 345 415
#     4  10  23  41  68  94 139 179 232 285 346 406
#
# _framework density 22.093619
#
# number of rings (size 3 to 8) (size 9 to 14) (size 15 to 20)
#    0.000    1.455    0.000    4.364   11.455    1.455 
#    3.273    1.818    0.000    0.000    0.000    0.000 
#    0.000    0.000    0.000    0.000    0.000    0.000 
#
# Total GULP energy -122891.266571 kJ/mol
# GULP energy per Si atom -5585.966662 kJ/mol
# Density = 2.204333 g / cm^3
# Si number density = 22.093619 Si / 1000 Ang^3
#
#
#
# Elastic Constant Matrix: (Units=GPa)
#
#
# Indices 1 2 3 4 5 6 
#
# 1 95.4511 24.9603 23.4615 0.0000 11.1868 0.0000
# 2 24.9603 123.7294 7.6703 0.0000 2.6283 0.0000
# 3 23.4615 7.6703 77.8943 0.0000 17.4054 0.0000
# 4 0.0000 0.0000 0.0000 25.9430 0.0000 12.9949
# 5 11.1868 2.6283 17.4054 0.0000 40.2873 0.0000
# 6 0.0000 0.0000 0.0000 12.9949 0.0000 31.1421
#
#
#
# Elastic Compliance Matrix: (Units=1/GPa)
#
#
# Indices 1 2 3 4 5 6 
#
# 1 0.012005 -0.002197 -0.002974 0.000000 -0.001905 0.000000
# 2 -0.002197 0.008535 -0.000211 0.000000 0.000144 0.000000
# 3 -0.002974 -0.000211 0.015016 0.000000 -0.005648 0.000000
# 4 0.000000 0.000000 0.000000 0.048732 0.000000 -0.020335
# 5 -0.001905 0.000144 -0.005648 0.000000 0.027782 0.000000
# 6 0.000000 0.000000 0.000000 -0.020335 0.000000 0.040596
#
#
# Mechanical properties :
#
#
# Convention : Reuss Voigt Hill
#
# Bulk Modulus (GPa) = 40.33332 45.47323 42.90328
# Shear Modulus (GPa) = 29.12143 35.53999 32.33071
#
# Velocity S-wave (km/s) = 3.63449 4.01510 3.82953
# Velocity P-wave (km/s) = 5.99233 6.49010 6.24618
#
# Compressibility (1/GPa) = 0.02479340
#
# Stress axis : x y z
#
# Youngs Moduli (GPa) = 83.29607 117.15934 66.59361
#
# Poissons Ratio (x) = 0.25740 0.19804
# Poissons Ratio (y) = 0.18301 0.01405
# Poissons Ratio (z) = 0.24771 0.02472
#
# Static dielectric constant tensor:
#      x y z
#    x 1.818840 0.000000 -0.044710 
#    y 0.000000 1.875750 0.000000 
#    z -0.044710 0.000000 1.863960 
# 
# From -- ./inp_files/34476.got.cif
#   From: 2010.05.17/outbox.cif.g08.bks.cpg/sg15_18_cif.got.tgz:34476.got - 2010.06.03 18:47:42.
