data_PCOD9289043
_publ_section_title
;
Structure prediction by ZEFSAII (Michael W. Deem and Ramdas Pophale) SiO2 
 PCOD9289043
Probable space group: C 2/C
;
_chemical_formula_sum "Si O2"
_cell_formula_units_Z 44
_cell_length_a 18.552231
_cell_length_b 22.740812
_cell_length_c 15.578048
_cell_angle_alpha 90.000000
_cell_angle_beta 162.728053
_cell_angle_gamma 90.000000
_cell_volume 1951.354294
_symmetry_space_group_name_H-M "C 2/C"
_symmetry_group_IT_number 15
_symmetry_cell_setting 'monoclinic'
loop_
_space_group_symop_operation_xyz
x,y,z
-x,y,1/2-z
-x,-y,-z
x,-y,1/2+z
1/2+x,1/2+y,z
1/2-x,1/2+y,1/2-z
1/2-x,1/2-y,-z
1/2+x,1/2-y,1/2+z
loop_
_atom_site_type_symbol
_atom_site_label
_atom_site_fract_x
_atom_site_fract_y
_atom_site_fract_z
Si Si1 0.536496 0.541925 0.174200
Si Si2 0.716476 0.663366 0.559084
Si Si3 0.596428 0.257286 0.586674
Si Si4 0.381772 0.046286 0.300031
Si Si5 0.000000 0.512951 0.250000
Si Si6 0.706786 0.121189 0.153066
O O1 0.767794 0.528565 0.495329
O O2 0.660245 0.562018 0.226039
O O3 0.394569 0.601330 0.034764
O O4 0.384637 0.482434 0.008616
O O5 0.792661 0.713925 0.713728
O O6 0.500000 0.685614 0.250000
O O7 0.987760 0.641208 0.841770
O O8 0.305666 0.245894 0.250130
O O9 0.615661 0.324287 0.640194
O O10 0.503531 0.047738 0.344403
O O11 0.389900 0.106827 0.361336
O O12 0.500000 0.000000 0.500000
#
# Coordination Sequence:
#
# PCOD9289043 Si02
#       6
#     8   8   8   8   4   8
#     4  12  21  41  61  91 130 166 214 262 322 392
#     4  11  22  37  58  91 133 172 215 257 316 387
#     4  10  22  40  58  88 127 171 221 261 315 384
#     4  12  24  41  61  93 126 169 213 267 327 385
#     4  12  26  40  64  92 126 170 216 266 326 390
#     4  11  23  39  61  89 125 172 217 260 320 380
#
# _framework density 22.548442000000001
#
# number of rings (size 3 to 8) (size 9 to 14) (size 15 to 20)
#    0.000    0.727    5.455    3.273    0.000    2.909 
#    1.636    0.000    0.000    0.000    0.000    5.091 
#    0.000    0.000    0.000    0.000    0.000    0.000 
#
# Total GULP energy -122502.145680 kJ/mol
# GULP energy per Si atom -5568.279349 kJ/mol
# Density = 2.249712 g / cm^3
# Si number density = 22.548442 Si / 1000 Ang^3
#
#
#
# Elastic Constant Matrix: (Units=GPa)
#
#
# Indices 1 2 3 4 5 6 
#
# 1 116.9648 21.6353 10.2905 -0.0001 1.7298 -0.0002
# 2 21.6353 71.4528 -1.6895 -0.0008 -5.8387 -0.0001
# 3 10.2905 -1.6895 65.7403 0.0037 20.2670 0.0015
# 4 -0.0001 -0.0008 0.0037 21.8793 0.0022 11.9874
# 5 1.7298 -5.8387 20.2670 0.0022 32.0899 0.0003
# 6 -0.0002 -0.0001 0.0015 11.9874 0.0003 31.0417
#
#
#
# Elastic Compliance Matrix: (Units=1/GPa)
#
#
# Indices 1 2 3 4 5 6 
#
# 1 0.009205 -0.002828 -0.001493 0.000000 -0.000068 0.000000
# 2 -0.002828 0.015091 -0.000078 0.000000 0.002948 0.000000
# 3 -0.001493 -0.000078 0.019151 -0.000002 -0.012029 0.000000
# 4 0.000000 0.000000 -0.000002 0.057971 -0.000002 -0.022387
# 5 -0.000068 0.002948 -0.012029 -0.000002 0.039300 0.000001
# 6 0.000000 0.000000 0.000000 -0.022387 0.000001 0.040860
#
#
# Mechanical properties :
#
#
# Convention : Reuss Voigt Hill
#
# Bulk Modulus (GPa) = 28.86049 34.95896 31.90972
# Shear Modulus (GPa) = 24.76173 31.93030 28.34601
#
# Velocity S-wave (km/s) = 3.31744 3.76716 3.54943
# Velocity P-wave (km/s) = 5.24414 5.87023 5.56599
#
# Compressibility (1/GPa) = 0.03464945
#
# Stress axis : x y z
#
# Youngs Moduli (GPa) = 108.63643 66.26656 52.21524
#
# Poissons Ratio (x) = 0.18741 0.07794
# Poissons Ratio (y) = 0.30723 0.00408
# Poissons Ratio (z) = 0.16215 0.00518
#
# Static dielectric constant tensor:
#      x y z
#    x 2.009250 0.000000 0.023680 
#    y 0.000000 1.939710 -0.000010 
#    z 0.023680 -0.000010 2.049580 
# 
# From -- ./inp_files/7639.got.cif
#   From: 2010.05.17/outbox.cif.g08.bks.cpg/sg15_4_cif.got.tgz:7639.got - 2010.06.03 18:47:42.
