data_PCOD9289346
_publ_section_title
;
Structure prediction by ZEFSAII (Michael W. Deem and Ramdas Pophale) SiO2 
 PCOD9289346
Probable space group: C 2/C
;
_chemical_formula_sum "Si O2"
_cell_formula_units_Z 56
_cell_length_a 11.078912
_cell_length_b 19.930896
_cell_length_c 12.484088
_cell_angle_alpha 90.000000
_cell_angle_beta 71.007237
_cell_angle_gamma 90.000000
_cell_volume 2606.571887
_symmetry_space_group_name_H-M "C 2/C"
_symmetry_group_IT_number 15
_symmetry_cell_setting 'monoclinic'
loop_
_space_group_symop_operation_xyz
x,y,z
-x,y,1/2-z
-x,-y,-z
x,-y,1/2+z
1/2+x,1/2+y,z
1/2-x,1/2+y,1/2-z
1/2-x,1/2-y,-z
1/2+x,1/2-y,1/2+z
loop_
_atom_site_type_symbol
_atom_site_label
_atom_site_fract_x
_atom_site_fract_y
_atom_site_fract_z
Si Si1 0.630183 0.316217 0.352901
Si Si2 0.507550 0.212378 0.997977
Si Si3 0.673868 0.290499 0.786249
Si Si4 0.472044 0.452710 0.152538
Si Si5 0.286961 0.491737 0.525854
Si Si6 0.233623 0.861080 0.553651
Si Si7 0.123881 0.625092 0.135756
O O1 0.513487 0.265542 0.399875
O O2 0.743957 0.274026 0.272006
O O3 0.594355 0.382701 0.301828
O O4 0.665485 0.336864 0.464651
O O5 0.558292 0.255496 0.883471
O O6 0.372612 0.174961 0.015910
O O7 0.597998 0.157952 0.027168
O O8 0.661526 0.335236 0.681463
O O9 0.759888 0.335997 0.840275
O O10 0.500000 0.495021 0.250000
O O11 0.373488 0.486420 0.101365
O O12 0.611673 0.443404 0.062139
O O13 0.257666 0.558246 0.463970
O O14 0.165813 0.451204 0.601348
O O15 0.000000 0.628769 0.250000
#
# Coordination Sequence:
#
# PCOD9289346 Si02
#       7
#     8   8   8   8   8   8   8
#     4  10  22  40  63  98 131 162 227 277 320 401
#     4  11  23  40  67 100 128 173 219 266 341 392
#     4  11  23  40  68  93 133 175 214 275 342 382
#     4  10  23  41  69  91 129 174 218 284 325 386
#     4  10  25  46  62 101 130 173 235 260 333 405
#     4  10  23  45  63  95 141 169 222 279 314 404
#     4  12  24  43  67  98 135 177 219 278 327 398
#
# _framework density 21.484157
#
# number of rings (size 3 to 8) (size 9 to 14) (size 15 to 20)
#    0.000    1.429    2.857    3.000    6.000    2.857 
#    5.143    0.000    0.000    0.000    0.000    0.000 
#    0.000    0.000    0.000    0.000    0.000    0.000 
#
# Total GULP energy -156211.354459 kJ/mol
# GULP energy per Si atom -5578.976945 kJ/mol
# Density = 2.143526 g / cm^3
# Si number density = 21.484157 Si / 1000 Ang^3
#
#
#
# Elastic Constant Matrix: (Units=GPa)
#
#
# Indices 1 2 3 4 5 6 
#
# 1 61.8039 36.9459 45.1430 0.0000 4.7642 0.0000
# 2 36.9459 103.6814 25.6933 0.0000 -1.7985 0.0000
# 3 45.1430 25.6933 85.3760 0.0000 12.1977 0.0000
# 4 0.0000 0.0000 0.0000 -1.9002 0.0000 -11.6352
# 5 4.7642 -1.7985 12.1977 0.0000 26.3666 0.0000
# 6 0.0000 0.0000 0.0000 -11.6352 0.0000 13.5273
#
#
#
# Elastic Compliance Matrix: (Units=1/GPa)
#
#
# Indices 1 2 3 4 5 6 
#
# 1 0.031016 -0.007526 -0.014199 0.000000 0.000451 0.000000
# 2 -0.007526 0.012382 -0.000066 0.000000 0.002235 0.000000
# 3 -0.014199 -0.000066 0.020211 0.000000 -0.006789 0.000000
# 4 0.000000 0.000000 0.000000 -0.083977 0.000000 -0.072231
# 5 0.000451 0.002235 -0.006789 0.000000 0.041138 0.000000
# 6 0.000000 0.000000 0.000000 -0.072231 0.000000 0.011796
#
#
# Mechanical properties :
#
#
# Convention : Reuss Voigt Hill
#
# Bulk Modulus (GPa) = 49.93609 51.82507 50.88058
# Shear Modulus (GPa) = 60.36899 17.13735 38.75317
#
# Velocity S-wave (km/s) = 5.30663 2.82738 4.25173
# Velocity P-wave (km/s) = 7.80005 5.90200 6.91644
#
# Compressibility (1/GPa) = 0.02002560
#
# Stress axis : x y z
#
# Youngs Moduli (GPa) = 32.24164 80.76362 49.47843
#
# Poissons Ratio (x) = 0.60779 0.70257
# Poissons Ratio (y) = 0.24264 0.00328
# Poissons Ratio (z) = 0.45781 0.00536
#
# Static dielectric constant tensor:
#      x y z
#    x 1.773880 0.000000 -0.007480 
#    y 0.000000 1.790140 0.000000 
#    z -0.007480 0.000000 1.831490 
# 
# From -- ./inp_files/89572.got.cif
#   From: 2010.05.17/outbox.cif.g08.bks.cpg/sg15_45_cif.got.tgz:89572.got - 2010.06.03 18:47:42.
