data_PCOD9289221
_publ_section_title
;
Structure prediction by ZEFSAII (Michael W. Deem and Ramdas Pophale) SiO2 
 PCOD9289221
Probable space group: C 2/C
;
_chemical_formula_sum "Si O2"
_cell_formula_units_Z 56
_cell_length_a 19.453570
_cell_length_b 24.804132
_cell_length_c 5.332198
_cell_angle_alpha 90.000000
_cell_angle_beta 102.380971
_cell_angle_gamma 90.000000
_cell_volume 2513.102268
_symmetry_space_group_name_H-M "C 2/C"
_symmetry_group_IT_number 15
_symmetry_cell_setting 'monoclinic'
loop_
_space_group_symop_operation_xyz
x,y,z
-x,y,1/2-z
-x,-y,-z
x,-y,1/2+z
1/2+x,1/2+y,z
1/2-x,1/2+y,1/2-z
1/2-x,1/2-y,-z
1/2+x,1/2-y,1/2+z
loop_
_atom_site_type_symbol
_atom_site_label
_atom_site_fract_x
_atom_site_fract_y
_atom_site_fract_z
Si Si1 0.786369 0.190902 0.512868
Si Si2 0.817244 0.470627 0.549514
Si Si3 0.301942 0.579504 0.809878
Si Si4 0.799789 0.383652 0.885540
Si Si5 0.580151 0.248293 0.292404
Si Si6 0.581143 0.180355 0.787212
Si Si7 0.968282 0.061605 0.975558
O O1 0.750000 0.250000 0.500000
O O2 0.785277 0.141388 0.711171
O O3 0.748922 0.164946 0.244794
O O4 0.868004 0.205028 0.582746
O O5 0.841704 0.491590 0.298893
O O6 0.733906 0.458884 0.425958
O O7 0.836422 0.412101 0.676156
O O8 0.254320 0.575637 0.022227
O O9 0.383725 0.565868 0.907560
O O10 0.860889 0.364170 0.113573
O O11 0.500000 0.265678 0.250000
O O12 0.590682 0.203284 0.516006
O O13 0.592742 0.224607 0.022129
O O14 0.500000 0.162822 0.750000
O O15 0.000000 0.087512 0.250000
O O16 0.000000 0.087015 0.750000
O O17 0.000000 0.000000 0.000000
#
# Coordination Sequence:
#
# PCOD9289221 Si02
#       7
#     8   8   8   8   8   8   8
#     4  11  23  40  65  96 141 183 228 292 352 407
#     4  11  24  41  67  94 134 165 216 281 342 395
#     4  11  26  41  67 103 129 184 236 286 344 422
#     4  11  24  41  71 103 132 174 238 283 348 421
#     4  10  22  40  62  90 133 184 224 273 339 408
#     4  10  22  41  67  98 130 173 223 274 342 416
#     4  10  25  43  66  92 132 181 230 285 347 405
#
# _framework density 22.283214000000001
#
# number of rings (size 3 to 8) (size 9 to 14) (size 15 to 20)
#    0.000    1.429    2.857    0.857   12.000    1.714 
#    0.000    0.000    0.000    0.857    0.000    0.000 
#    0.000    0.000    0.000    0.000    0.000    0.000 
#
# Total GULP energy -156041.492301 kJ/mol
# GULP energy per Si atom -5572.910439 kJ/mol
# Density = 2.223250 g / cm^3
# Si number density = 22.283214 Si / 1000 Ang^3
#
#
#
# Elastic Constant Matrix: (Units=GPa)
#
#
# Indices 1 2 3 4 5 6 
#
# 1 50.5677 29.4421 37.4520 0.0000 12.6650 0.0000
# 2 29.4421 100.1533 33.8977 0.0000 6.7495 0.0000
# 3 37.4520 33.8977 144.0998 0.0000 5.4382 0.0000
# 4 0.0000 0.0000 0.0000 18.1490 0.0000 3.5696
# 5 12.6650 6.7495 5.4382 0.0000 38.6919 0.0000
# 6 0.0000 0.0000 0.0000 3.5696 0.0000 23.6071
#
#
#
# Elastic Compliance Matrix: (Units=1/GPa)
#
#
# Indices 1 2 3 4 5 6 
#
# 1 0.029779 -0.006201 -0.005986 0.000000 -0.007824 0.000000
# 2 -0.006201 0.012232 -0.001269 0.000000 0.000074 0.000000
# 3 -0.005986 -0.001269 0.008758 0.000000 0.000950 0.000000
# 4 0.000000 0.000000 0.000000 0.056788 0.000000 -0.008587
# 5 -0.007824 0.000074 0.000950 0.000000 0.028260 0.000000
# 6 0.000000 0.000000 0.000000 -0.008587 0.000000 0.043659
#
#
# Mechanical properties :
#
#
# Convention : Reuss Voigt Hill
#
# Bulk Modulus (GPa) = 41.91410 55.15605 48.53508
# Shear Modulus (GPa) = 23.32765 29.02487 26.17626
#
# Velocity S-wave (km/s) = 3.23905 3.61299 3.43112
# Velocity P-wave (km/s) = 5.73054 6.49700 6.12577
#
# Compressibility (1/GPa) = 0.02385832
#
# Stress axis : x y z
#
# Youngs Moduli (GPa) = 33.58122 81.75336 114.18272
#
# Poissons Ratio (x) = 0.50694 0.68345
# Poissons Ratio (y) = 0.20823 0.14485
# Poissons Ratio (z) = 0.20100 0.10371
#
# Static dielectric constant tensor:
#      x y z
#    x 1.859390 0.000000 -0.042260 
#    y 0.000000 1.780730 0.000000 
#    z -0.042260 0.000000 1.950440 
# 
# From -- ./inp_files/13936.got.cif
#   From: 2010.05.17/outbox.cif.g08.bks.cpg/sg15_7_cif.got.tgz:13936.got - 2010.06.03 18:47:42.
