data_PCOD9289953
_publ_section_title
;
Structure prediction by ZEFSAII (Michael W. Deem and Ramdas Pophale) SiO2 
 PCOD9289953
Probable space group: C 2/C
;
_chemical_formula_sum "Si O2"
_cell_formula_units_Z 32
_cell_length_a 5.304059
_cell_length_b 15.868816
_cell_length_c 17.547011
_cell_angle_alpha 90.000000
_cell_angle_beta 92.148578
_cell_angle_gamma 90.000000
_cell_volume 1475.878439
_symmetry_space_group_name_H-M "C 2/C"
_symmetry_group_IT_number 15
_symmetry_cell_setting 'monoclinic'
loop_
_space_group_symop_operation_xyz
x,y,z
-x,y,1/2-z
-x,-y,-z
x,-y,1/2+z
1/2+x,1/2+y,z
1/2-x,1/2+y,1/2-z
1/2-x,1/2-y,-z
1/2+x,1/2-y,1/2+z
loop_
_atom_site_type_symbol
_atom_site_label
_atom_site_fract_x
_atom_site_fract_y
_atom_site_fract_z
Si Si1 0.500000 0.180184 0.750000
Si Si2 0.000000 0.712114 0.250000
Si Si3 0.066485 0.561616 0.886291
Si Si4 0.852919 0.090969 0.328099
Si Si5 0.186947 0.066769 0.462559
O O1 0.244991 0.232981 0.731697
O O2 0.449381 0.123620 0.823717
O O3 0.891254 0.649835 0.183908
O O4 0.273728 0.505173 0.844274
O O5 0.878692 0.490890 0.916830
O O6 0.174768 0.607174 0.963108
O O7 0.000000 0.094275 0.250000
O O8 0.025843 0.119701 0.400639
O O9 0.000000 0.000000 0.500000
#
# Coordination Sequence:
#
# PCOD9289953 Si02
#       5
#     4   4   8   8   8
#     4  12  27  42  65  98 136 170 214 272 323 380
#     4  12  27  42  61  96 140 174 216 256 329 396
#     4  10  22  40  70  98 126 164 225 273 321 376
#     4  11  21  42  69  94 126 177 218 263 319 397
#     4   9  20  38  68  98 125 161 223 275 320 374
#
# _framework density 21.682003999999999
#
# number of rings (size 3 to 8) (size 9 to 14) (size 15 to 20)
#    0.000    1.500    1.250    3.750    8.750    0.000 
#    0.000    2.500    0.000    0.000    0.000    0.000 
#    0.000    0.000    0.000    0.000    0.000    0.000 
#
# Total GULP energy -89304.478786 kJ/mol
# GULP energy per Si atom -5581.529924 kJ/mol
# Density = 2.163266 g / cm^3
# Si number density = 21.682004 Si / 1000 Ang^3
#
#
#
# Elastic Constant Matrix: (Units=GPa)
#
#
# Indices 1 2 3 4 5 6 
#
# 1 91.7859 19.5513 51.8293 0.0000 4.8515 0.0000
# 2 19.5513 49.0299 54.9112 0.0000 8.8113 0.0000
# 3 51.8293 54.9112 194.1478 0.0000 31.0379 0.0000
# 4 0.0000 0.0000 0.0000 10.4258 0.0000 11.9608
# 5 4.8515 8.8113 31.0379 0.0000 46.9079 0.0000
# 6 0.0000 0.0000 0.0000 11.9608 0.0000 19.0012
#
#
#
# Elastic Compliance Matrix: (Units=1/GPa)
#
#
# Indices 1 2 3 4 5 6 
#
# 1 0.012995 -0.001899 -0.003102 0.000000 0.001065 0.000000
# 2 -0.001899 0.030129 -0.007986 0.000000 -0.000179 0.000000
# 3 -0.003102 -0.007986 0.008887 0.000000 -0.004059 0.000000
# 4 0.000000 0.000000 0.000000 0.345213 0.000000 -0.217304
# 5 0.001065 -0.000179 -0.004059 0.000000 0.023928 0.000000
# 6 0.000000 0.000000 0.000000 -0.217304 0.000000 0.189416
#
#
# Mechanical properties :
#
#
# Convention : Reuss Voigt Hill
#
# Bulk Modulus (GPa) = 38.40819 65.28303 51.84561
# Shear Modulus (GPa) = 7.74930 29.17843 18.46386
#
# Velocity S-wave (km/s) = 1.89257 3.67242 2.92134
# Velocity P-wave (km/s) = 4.74642 6.93952 5.94497
#
# Compressibility (1/GPa) = 0.02603612
#
# Stress axis : x y z
#
# Youngs Moduli (GPa) = 76.95317 33.19068 112.53020
#
# Poissons Ratio (x) = 0.06302 0.34911
# Poissons Ratio (y) = 0.14612 0.89866
# Poissons Ratio (z) = 0.23874 0.26506
#
# Static dielectric constant tensor:
#      x y z
#    x 1.888350 0.000000 0.040940 
#    y 0.000000 1.789830 0.000000 
#    z 0.040940 0.000000 1.829850 
# 
# From -- ./inp_files/226569.got.cif
#   From: 2010.05.17/outbox.cif.g08.bks.cpg/sg15_114_cif.got.tgz:226569.got - 2010.06.03 18:47:42.
