data_PCOD9289560
_publ_section_title
;
Structure prediction by ZEFSAII (Michael W. Deem and Ramdas Pophale) SiO2 
 PCOD9289560
Probable space group: C 2/C
;
_chemical_formula_sum "Si O2"
_cell_formula_units_Z 64
_cell_length_a 8.859062
_cell_length_b 16.200248
_cell_length_c 33.007656
_cell_angle_alpha 90.000000
_cell_angle_beta 137.746398
_cell_angle_gamma 90.000000
_cell_volume 3185.373848
_symmetry_space_group_name_H-M "C 2/C"
_symmetry_group_IT_number 15
_symmetry_cell_setting 'monoclinic'
loop_
_space_group_symop_operation_xyz
x,y,z
-x,y,1/2-z
-x,-y,-z
x,-y,1/2+z
1/2+x,1/2+y,z
1/2-x,1/2+y,1/2-z
1/2-x,1/2-y,-z
1/2+x,1/2-y,1/2+z
loop_
_atom_site_type_symbol
_atom_site_label
_atom_site_fract_x
_atom_site_fract_y
_atom_site_fract_z
Si Si1 0.144131 0.835139 0.875885
Si Si2 0.079603 0.820769 0.387260
Si Si3 0.324041 0.135410 0.247871
Si Si4 0.240291 0.476262 0.447422
Si Si5 0.552134 0.090334 0.993656
Si Si6 0.855419 0.350354 0.142322
Si Si7 0.356918 0.664114 0.760311
Si Si8 0.969540 0.633819 0.366527
O O1 0.110596 0.737086 0.873880
O O2 0.276861 0.845570 0.860258
O O3 0.913724 0.880985 0.820087
O O4 0.276206 0.868284 0.940737
O O5 0.318190 0.859293 0.446383
O O6 0.100406 0.720986 0.387979
O O7 0.867564 0.840479 0.374437
O O8 0.000459 0.855524 0.328361
O O9 0.500000 0.104582 0.250000
O O10 0.341880 0.235658 0.254869
O O11 0.372892 0.107392 0.303428
O O12 0.500000 0.500000 0.500000
O O13 0.189949 0.421071 0.398578
O O14 0.109689 0.561843 0.415179
O O15 0.159205 0.425697 0.470788
O O16 0.500000 0.000000 0.000000
O O17 0.098200 0.365146 0.211551
O O18 0.500000 0.635028 0.750000
#
# Coordination Sequence:
#
# PCOD9289560 Si02
#       8
#     8   8   8   8   8   8   8   8
#     4  10  22  41  69  92 126 171 216 255 315 393
#     4  10  22  41  71  91 125 173 216 257 317 392
#     4   9  19  37  65  96 124 160 214 267 311 370
#     4  12  27  43  61  94 136 164 209 272 319 376
#     4  12  25  44  64  94 129 171 215 261 321 379
#     4  10  22  40  65  98 125 167 214 266 318 372
#     4   9  17  37  64  96 127 160 214 266 313 374
#     4  10  22  43  67  93 127 169 213 258 322 378
#
# _framework density 20.091833000000001
#
# number of rings (size 3 to 8) (size 9 to 14) (size 15 to 20)
#    0.000    1.750    1.250    2.250    3.500    5.500 
#    2.250    0.000    0.000    0.000    0.000    0.000 
#    0.000    0.000    0.000    0.000    0.000    0.000 
#
# Total GULP energy -178618.723462 kJ/mol
# GULP energy per Si atom -5581.835108 kJ/mol
# Density = 2.004610 g / cm^3
# Si number density = 20.091833 Si / 1000 Ang^3
#
#
#
# Elastic Constant Matrix: (Units=GPa)
#
#
# Indices 1 2 3 4 5 6 
#
# 1 86.7781 14.0695 48.4365 0.0000 3.3778 0.0000
# 2 14.0695 40.8497 26.8464 0.0000 5.4209 0.0000
# 3 48.4365 26.8464 149.7104 0.0000 13.9111 0.0000
# 4 0.0000 0.0000 0.0000 19.5621 0.0000 -13.0559
# 5 3.3778 5.4209 13.9111 0.0000 38.1643 0.0000
# 6 0.0000 0.0000 0.0000 -13.0559 0.0000 14.8596
#
#
#
# Elastic Compliance Matrix: (Units=1/GPa)
#
#
# Indices 1 2 3 4 5 6 
#
# 1 0.014238 -0.002176 -0.004272 0.000000 0.000606 0.000000
# 2 -0.002176 0.028263 -0.004149 0.000000 -0.002309 0.000000
# 3 -0.004272 -0.004149 0.009022 0.000000 -0.002321 0.000000
# 4 0.000000 0.000000 0.000000 0.123596 0.000000 0.108594
# 5 0.000606 -0.002309 -0.002321 0.000000 0.027323 0.000000
# 6 0.000000 0.000000 0.000000 0.108594 0.000000 0.162709
#
#
# Mechanical properties :
#
#
# Convention : Reuss Voigt Hill
#
# Bulk Modulus (GPa) = 32.97526 50.67143 41.82334
# Shear Modulus (GPa) = 12.61176 27.04958 19.83067
#
# Velocity S-wave (km/s) = 2.50812 3.67317 3.14507
# Velocity P-wave (km/s) = 4.98352 6.57756 5.83523
#
# Compressibility (1/GPa) = 0.03032576
#
# Stress axis : x y z
#
# Youngs Moduli (GPa) = 70.23649 35.38183 110.84523
#
# Poissons Ratio (x) = 0.07700 0.47358
# Poissons Ratio (y) = 0.15286 0.45995
# Poissons Ratio (z) = 0.30008 0.14682
#
# Static dielectric constant tensor:
#      x y z
#    x 1.790360 0.000000 0.053740 
#    y 0.000000 1.731820 0.000000 
#    z 0.053740 0.000000 1.736310 
# 
# From -- ./inp_files/308811.got.cif
#   From: 2010.05.17/outbox.cif.g08.bks.cpg/sg15_155_cif.got.tgz:308811.got - 2010.06.03 18:47:42.
