data_PCOD9289957
_publ_section_title
;
Structure prediction by ZEFSAII (Michael W. Deem and Ramdas Pophale) SiO2 
 PCOD9289957
Probable space group: C 2/C
;
_chemical_formula_sum "Si O2"
_cell_formula_units_Z 44
_cell_length_a 21.720768
_cell_length_b 16.861471
_cell_length_c 7.696428
_cell_angle_alpha 90.000000
_cell_angle_beta 35.333128
_cell_angle_gamma 90.000000
_cell_volume 1630.178375
_symmetry_space_group_name_H-M "C 2/C"
_symmetry_group_IT_number 15
_symmetry_cell_setting 'monoclinic'
loop_
_space_group_symop_operation_xyz
x,y,z
-x,y,1/2-z
-x,-y,-z
x,-y,1/2+z
1/2+x,1/2+y,z
1/2-x,1/2+y,1/2-z
1/2-x,1/2-y,-z
1/2+x,1/2-y,1/2+z
loop_
_atom_site_type_symbol
_atom_site_label
_atom_site_fract_x
_atom_site_fract_y
_atom_site_fract_z
Si Si1 0.028584 0.194314 0.998686
Si Si2 0.090821 0.396546 0.355286
Si Si3 0.689231 0.571387 0.589035
Si Si4 0.000000 0.455896 0.250000
Si Si5 0.388577 0.409940 0.600057
Si Si6 0.352654 0.830617 0.945396
O O1 0.000000 0.231511 0.250000
O O2 0.168551 0.977239 0.653366
O O3 0.123109 0.243652 0.686039
O O4 0.927846 0.169904 0.110236
O O5 0.076487 0.485170 0.463954
O O6 0.167145 0.345001 0.302567
O O7 0.085256 0.406370 0.162780
O O8 0.972298 0.362066 0.649725
O O9 0.688392 0.596033 0.388928
O O10 0.581531 0.609916 0.914633
O O11 0.777108 0.613968 0.505858
O O12 0.500000 0.436322 0.250000
#
# Coordination Sequence:
#
# PCOD9289957 Si02
#       6
#     8   8   8   4   8   8
#     4  11  23  43  65  93 135 183 224 275 351 419
#     4   9  20  36  61  88 129 178 220 264 353 401
#     4  11  22  40  67 102 128 174 233 297 328 399
#     4   8  16  36  56  84 116 166 228 264 300 420
#     4  10  22  40  70  98 131 176 231 280 347 406
#     4  10  23  38  62  96 136 174 220 281 343 406
#
# _framework density 26.99091
#
# number of rings (size 3 to 8) (size 9 to 14) (size 15 to 20)
#    0.000    2.182    0.000    4.364    8.909    5.818 
#    0.000    2.727    0.000    0.000    0.000    0.000 
#    0.000    0.000    0.000    0.000    0.000    0.000 
#
# Total GULP energy -122703.618983 kJ/mol
# GULP energy per Si atom -5577.437226 kJ/mol
# Density = 2.692948 g / cm^3
# Si number density = 26.990910 Si / 1000 Ang^3
#
#
#
# Elastic Constant Matrix: (Units=GPa)
#
#
# Indices 1 2 3 4 5 6 
#
# 1 187.4598 41.1428 37.3501 0.0000 14.5724 0.0000
# 2 41.1428 110.3298 25.0639 0.0000 17.3641 0.0000
# 3 37.3501 25.0639 45.1068 0.0000 -6.5218 0.0000
# 4 0.0000 0.0000 0.0000 19.3788 0.0000 7.0320
# 5 14.5724 17.3641 -6.5218 0.0000 46.4113 0.0000
# 6 0.0000 0.0000 0.0000 7.0320 0.0000 31.7689
#
#
#
# Elastic Compliance Matrix: (Units=1/GPa)
#
#
# Indices 1 2 3 4 5 6 
#
# 1 0.006834 -0.000880 -0.005545 0.000000 -0.002596 0.000000
# 2 -0.000880 0.011645 -0.006463 0.000000 -0.004989 0.000000
# 3 -0.005545 -0.006463 0.031596 0.000000 0.008599 0.000000
# 4 0.000000 0.000000 0.000000 0.056109 0.000000 -0.012420
# 5 -0.002596 -0.004989 0.008599 0.000000 0.025436 0.000000
# 6 0.000000 0.000000 0.000000 -0.012420 0.000000 0.034226
#
#
# Mechanical properties :
#
#
# Convention : Reuss Voigt Hill
#
# Bulk Modulus (GPa) = 41.15547 61.11222 51.13384
# Shear Modulus (GPa) = 25.03445 35.46777 30.25111
#
# Velocity S-wave (km/s) = 3.04882 3.62893 3.35145
# Velocity P-wave (km/s) = 5.26068 6.34427 5.82771
#
# Compressibility (1/GPa) = 0.02429811
#
# Stress axis : x y z
#
# Youngs Moduli (GPa) = 146.32046 85.87053 31.64968
#
# Poissons Ratio (x) = 0.07559 0.17550
# Poissons Ratio (y) = 0.12881 0.20456
# Poissons Ratio (z) = 0.81138 0.55500
#
# Static dielectric constant tensor:
#      x y z
#    x 2.395480 0.000000 0.194550 
#    y 0.000000 2.297250 0.000000 
#    z 0.194550 0.000000 2.357370 
# 
# From -- ./inp_files/55985.got.cif
#   From: 2010.05.17/outbox.cif.g08.bks.cpg/sg15_28_cif.got.tgz:55985.got - 2010.06.03 18:47:42.
