data_PCOD9289015
_publ_section_title
;
Structure prediction by ZEFSAII (Michael W. Deem and Ramdas Pophale) SiO2 
 PCOD9289015
Probable space group: C 2/C
;
_chemical_formula_sum "Si O2"
_cell_formula_units_Z 44
_cell_length_a 26.194797
_cell_length_b 11.646260
_cell_length_c 7.688926
_cell_angle_alpha 90.000000
_cell_angle_beta 121.478681
_cell_angle_gamma 90.000000
_cell_volume 2000.469667
_symmetry_space_group_name_H-M "C 2/C"
_symmetry_group_IT_number 15
_symmetry_cell_setting 'monoclinic'
loop_
_space_group_symop_operation_xyz
x,y,z
-x,y,1/2-z
-x,-y,-z
x,-y,1/2+z
1/2+x,1/2+y,z
1/2-x,1/2+y,1/2-z
1/2-x,1/2-y,-z
1/2+x,1/2-y,1/2+z
loop_
_atom_site_type_symbol
_atom_site_label
_atom_site_fract_x
_atom_site_fract_y
_atom_site_fract_z
Si Si1 0.473469 0.622579 0.513545
Si Si2 0.256404 0.657535 0.797903
Si Si3 0.000000 0.301691 0.250000
Si Si4 0.200406 0.431429 0.874969
Si Si5 0.877833 0.407445 0.075076
Si Si6 0.153367 0.797553 0.767541
O O1 0.500000 0.500000 0.500000
O O2 0.491155 0.716762 0.399010
O O3 0.400513 0.624695 0.395330
O O4 0.500000 0.650133 0.750000
O O5 0.229472 0.547145 0.852281
O O6 0.248303 0.630838 0.581280
O O7 0.213166 0.766947 0.764695
O O8 0.321230 0.661868 0.001151
O O9 0.943279 0.384342 0.120816
O O10 0.170342 0.371098 0.657493
O O11 0.144949 0.469228 0.900927
O O12 0.874324 0.326418 0.237468
#
# Coordination Sequence:
#
# PCOD9289015 Si02
#       6
#     8   8   4   8   8   8
#     4  11  23  40  59  82 113 153 192 236 281 335
#     4   9  18  35  54  80 111 142 182 230 284 334
#     4  10  22  40  56  82 114 148 190 232 278 340
#     4   9  18  33  55  80 109 141 177 232 277 334
#     4   9  19  35  54  79 112 143 182 228 277 338
#     4   9  20  36  55  79 111 146 185 233 280 339
#
# _framework density 21.994835999999999
#
# number of rings (size 3 to 8) (size 9 to 14) (size 15 to 20)
#    0.000    2.545    0.909    0.000    2.545    2.909 
#    0.000    0.000    0.000    0.000    0.000    0.000 
#    0.000    0.000    0.000    0.000    0.000    0.000 
#
# Total GULP energy -122569.816381 kJ/mol
# GULP energy per Si atom -5571.355290 kJ/mol
# Density = 2.194477 g / cm^3
# Si number density = 21.994836 Si / 1000 Ang^3
#
#
#
# Elastic Constant Matrix: (Units=GPa)
#
#
# Indices 1 2 3 4 5 6 
#
# 1 48.6976 7.0097 39.9233 0.0000 8.7954 0.0000
# 2 7.0097 39.9698 34.5619 0.0000 3.1047 0.0000
# 3 39.9233 34.5619 150.9612 0.0000 5.1534 0.0000
# 4 0.0000 0.0000 0.0000 31.3511 0.0000 2.2657
# 5 8.7954 3.1047 5.1534 0.0000 44.1710 0.0000
# 6 0.0000 0.0000 0.0000 2.2657 0.0000 16.1201
#
#
#
# Elastic Compliance Matrix: (Units=1/GPa)
#
#
# Indices 1 2 3 4 5 6 
#
# 1 0.027251 0.002093 -0.007526 0.000000 -0.004695 0.000000
# 2 0.002093 0.031437 -0.007692 0.000000 -0.001729 0.000000
# 3 -0.007526 -0.007692 0.010347 0.000000 0.000832 0.000000
# 4 0.000000 0.000000 0.000000 0.032224 0.000000 -0.004529
# 5 -0.004695 -0.001729 0.000832 0.000000 0.023599 0.000000
# 6 0.000000 0.000000 0.000000 -0.004529 0.000000 0.062671
#
#
# Mechanical properties :
#
#
# Convention : Reuss Voigt Hill
#
# Bulk Modulus (GPa) = 23.37180 44.73537 34.05359
# Shear Modulus (GPa) = 21.92584 28.87069 25.39827
#
# Velocity S-wave (km/s) = 3.16074 3.62693 3.40183
# Velocity P-wave (km/s) = 4.89586 6.15814 5.56292
#
# Compressibility (1/GPa) = 0.04278660
#
# Stress axis : x y z
#
# Youngs Moduli (GPa) = 36.69525 31.80924 96.64491
#
# Poissons Ratio (x) = -0.06658 0.72734
# Poissons Ratio (y) = -0.07681 0.74339
# Poissons Ratio (z) = 0.27616 0.24468
#
# Static dielectric constant tensor:
#      x y z
#    x 1.884220 0.000000 -0.010390 
#    y 0.000000 1.853710 0.000000 
#    z -0.010390 0.000000 1.793950 
# 
# From -- ./inp_files/54901.got.cif
#   From: 2010.05.17/outbox.cif.g08.bks.cpg/sg15_28_cif.got.tgz:54901.got - 2010.06.03 18:47:42.
