data_PCOD9289420
_publ_section_title
;
Structure prediction by ZEFSAII (Michael W. Deem and Ramdas Pophale) SiO2 
 PCOD9289420
Probable space group: C 2/C
;
_chemical_formula_sum "Si O2"
_cell_formula_units_Z 36
_cell_length_a 23.127060
_cell_length_b 5.106903
_cell_length_c 13.093492
_cell_angle_alpha 90.000000
_cell_angle_beta 112.327237
_cell_angle_gamma 90.000000
_cell_volume 1430.503680
_symmetry_space_group_name_H-M "C 2/C"
_symmetry_group_IT_number 15
_symmetry_cell_setting 'monoclinic'
loop_
_space_group_symop_operation_xyz
x,y,z
-x,y,1/2-z
-x,-y,-z
x,-y,1/2+z
1/2+x,1/2+y,z
1/2-x,1/2+y,1/2-z
1/2-x,1/2-y,-z
1/2+x,1/2-y,1/2+z
loop_
_atom_site_type_symbol
_atom_site_label
_atom_site_fract_x
_atom_site_fract_y
_atom_site_fract_z
Si Si1 0.788685 0.793021 0.156659
Si Si2 0.000000 0.400778 0.250000
Si Si3 0.799354 0.792669 0.394673
Si Si4 0.382880 0.904563 0.553512
Si Si5 0.461851 0.745681 0.436049
O O1 0.819421 0.774365 0.289389
O O2 0.736325 0.565305 0.115795
O O3 0.837145 0.739055 0.100144
O O4 0.754102 0.069901 0.125771
O O5 0.052491 0.565960 0.342890
O O6 0.036809 0.245677 0.185571
O O7 0.854424 0.688565 0.504341
O O8 0.397064 0.763858 0.454699
O O9 0.500000 0.500000 0.500000
O O10 0.500000 0.000000 0.500000
#
# Coordination Sequence:
#
# PCOD9289420 Si02
#       5
#     8   4   8   8   8
#     4  10  22  40  64  94 128 168 217 274 333 395
#     4  10  24  44  66  96 134 176 222 274 332 400
#     4  10  22  40  64  96 129 168 217 272 336 396
#     4  11  22  42  66  95 131 175 221 275 332 401
#     4  10  24  43  64  92 128 173 222 269 324 388
#
# _framework density 25.165962
#
# number of rings (size 3 to 8) (size 9 to 14) (size 15 to 20)
#    0.000    1.778    0.000    2.667    0.000   10.667 
#    0.000   13.333    0.000    0.000    0.000    0.000 
#    0.000    0.000    0.000    0.000    0.000    0.000 
#
# Total GULP energy -100878.711947 kJ/mol
# GULP energy per Si atom -5604.372886 kJ/mol
# Density = 2.510868 g / cm^3
# Si number density = 25.165962 Si / 1000 Ang^3
#
#
#
# Elastic Constant Matrix: (Units=GPa)
#
#
# Indices 1 2 3 4 5 6 
#
# 1 162.5142 32.3058 67.3154 0.0000 -57.8786 0.0000
# 2 32.3058 112.6839 14.1574 0.0000 -2.1025 0.0000
# 3 67.3154 14.1574 151.5337 0.0000 -23.5066 0.0000
# 4 0.0000 0.0000 0.0000 33.3697 0.0000 3.3624
# 5 -57.8786 -2.1025 -23.5066 0.0000 72.1362 0.0000
# 6 0.0000 0.0000 0.0000 3.3624 0.0000 19.3382
#
#
#
# Elastic Compliance Matrix: (Units=1/GPa)
#
#
# Indices 1 2 3 4 5 6 
#
# 1 0.010678 -0.002501 -0.003362 0.000000 0.007399 0.000000
# 2 -0.002501 0.009566 -0.000053 0.000000 -0.001745 0.000000
# 3 -0.003362 -0.000053 0.008088 0.000000 -0.000064 0.000000
# 4 0.000000 0.000000 0.000000 0.030502 0.000000 -0.005304
# 5 0.007399 -0.001745 -0.000064 0.000000 0.019728 0.000000
# 6 0.000000 0.000000 0.000000 -0.005304 0.000000 0.052633
#
#
# Mechanical properties :
#
#
# Convention : Reuss Voigt Hill
#
# Bulk Modulus (GPa) = 60.61078 72.69876 66.65477
# Shear Modulus (GPa) = 33.66389 45.83238 39.74814
#
# Velocity S-wave (km/s) = 3.66139 4.27219 3.97853
# Velocity P-wave (km/s) = 6.48160 7.29972 6.90279
#
# Compressibility (1/GPa) = 0.01649871
#
# Stress axis : x y z
#
# Youngs Moduli (GPa) = 93.64785 104.54199 123.64204
#
# Poissons Ratio (x) = 0.26145 0.41570
# Poissons Ratio (y) = 0.23421 0.00661
# Poissons Ratio (z) = 0.31486 0.00559
#
# Static dielectric constant tensor:
#      x y z
#    x 2.023260 0.000000 0.001300 
#    y 0.000000 1.967170 0.000000 
#    z 0.001300 0.000000 1.986010 
# 
# From -- ./inp_files/170624.got.cif
#   From: 2010.05.17/outbox.cif.g08.bks.cpg/sg15_86_cif.got.tgz:170624.got - 2010.06.03 18:47:42.
