data_PCOD9289282
_publ_section_title
;
Structure prediction by ZEFSAII (Michael W. Deem and Ramdas Pophale) SiO2 
 PCOD9289282
Probable space group: C 2/C
;
_chemical_formula_sum "Si O2"
_cell_formula_units_Z 36
_cell_length_a 14.017369
_cell_length_b 22.840908
_cell_length_c 4.915930
_cell_angle_alpha 90.000000
_cell_angle_beta 57.567879
_cell_angle_gamma 90.000000
_cell_volume 1328.440495
_symmetry_space_group_name_H-M "C 2/C"
_symmetry_group_IT_number 15
_symmetry_cell_setting 'monoclinic'
loop_
_space_group_symop_operation_xyz
x,y,z
-x,y,1/2-z
-x,-y,-z
x,-y,1/2+z
1/2+x,1/2+y,z
1/2-x,1/2+y,1/2-z
1/2-x,1/2-y,-z
1/2+x,1/2-y,1/2+z
loop_
_atom_site_type_symbol
_atom_site_label
_atom_site_fract_x
_atom_site_fract_y
_atom_site_fract_z
Si Si1 0.838265 0.034508 0.009064
Si Si2 0.358850 0.277199 0.684036
Si Si3 0.000000 0.684283 0.750000
Si Si4 0.619070 0.093373 0.198509
Si Si5 0.163011 0.146675 0.803983
O O1 0.701586 0.044618 0.199019
O O2 0.867376 0.020129 0.271495
O O3 0.885775 0.091513 0.786147
O O4 0.450347 0.227619 0.599781
O O5 0.343162 0.299911 0.403288
O O6 0.250000 0.250000 0.000000
O O7 0.383489 0.333514 0.836762
O O8 0.088800 0.641720 0.469683
O O9 0.500000 0.074661 0.250000
O O10 0.705979 0.125994 0.861388
#
# Coordination Sequence:
#
# PCOD9289282 Si02
#       5
#     8   8   4   8   8
#     4  10  22  40  63  88 120 169 207 252 317 358
#     4  12  22  41  61  88 123 172 200 258 305 363
#     4  12  26  36  66  90 130 172 204 242 324 366
#     4  10  24  37  59  88 133 160 211 246 300 382
#     4  10  24  40  60  85 127 155 214 251 296 363
#
# _framework density 27.099442
#
# number of rings (size 3 to 8) (size 9 to 14) (size 15 to 20)
#    1.333    0.000    2.222    3.333    6.222    0.889 
#    0.000    0.000    0.000    0.000    0.000   15.556 
#    0.000    0.000    0.000    0.000    0.000    0.000 
#
# Total GULP energy -100765.048168 kJ/mol
# GULP energy per Si atom -5598.058232 kJ/mol
# Density = 2.703776 g / cm^3
# Si number density = 27.099442 Si / 1000 Ang^3
#
#
#
# Elastic Constant Matrix: (Units=GPa)
#
#
# Indices 1 2 3 4 5 6 
#
# 1 103.2206 -3.3857 24.8043 0.0000 -9.5066 0.0000
# 2 -3.3857 86.2729 25.4036 0.0000 -0.7422 0.0000
# 3 24.8043 25.4036 100.3704 0.0000 22.3570 0.0000
# 4 0.0000 0.0000 0.0000 48.8617 0.0000 10.1886
# 5 -9.5066 -0.7422 22.3570 0.0000 42.0067 0.0000
# 6 0.0000 0.0000 0.0000 10.1886 0.0000 19.6249
#
#
#
# Elastic Compliance Matrix: (Units=1/GPa)
#
#
# Indices 1 2 3 4 5 6 
#
# 1 0.011226 0.001748 -0.004299 0.000000 0.004860 0.000000
# 2 0.001748 0.012973 -0.004373 0.000000 0.002952 0.000000
# 3 -0.004299 -0.004373 0.014030 0.000000 -0.008517 0.000000
# 4 0.000000 0.000000 0.000000 0.022950 0.000000 -0.011915
# 5 0.004860 0.002952 -0.008517 0.000000 0.029491 0.000000
# 6 0.000000 0.000000 0.000000 -0.011915 0.000000 0.057142
#
#
# Mechanical properties :
#
#
# Convention : Reuss Voigt Hill
#
# Bulk Modulus (GPa) = 41.01661 42.61204 41.81432
# Shear Modulus (GPa) = 29.44886 38.30145 33.87515
#
# Velocity S-wave (km/s) = 3.30008 3.76356 3.53941
# Velocity P-wave (km/s) = 5.44878 5.88594 5.67157
#
# Compressibility (1/GPa) = 0.02438037
#
# Stress axis : x y z
#
# Youngs Moduli (GPa) = 89.07883 77.08430 71.27833
#
# Poissons Ratio (x) = -0.13477 0.30644
# Poissons Ratio (y) = -0.15573 0.31171
# Poissons Ratio (z) = 0.38297 0.33709
#
# Static dielectric constant tensor:
#      x y z
#    x 2.255610 0.000000 -0.096370 
#    y 0.000000 2.134250 0.000000 
#    z -0.096370 0.000000 2.027180 
# 
# From -- ./inp_files/12748.got.cif
#   From: 2010.05.17/outbox.cif.g08.bks.cpg/sg15_7_cif.got.tgz:12748.got - 2010.06.03 18:47:42.
