data_PCOD9289115
_publ_section_title
;
Structure prediction by ZEFSAII (Michael W. Deem and Ramdas Pophale) SiO2 
 PCOD9289115
Probable space group: C 2/C
;
_chemical_formula_sum "Si O2"
_cell_formula_units_Z 44
_cell_length_a 6.113698
_cell_length_b 25.470709
_cell_length_c 14.055391
_cell_angle_alpha 90.000000
_cell_angle_beta 101.514578
_cell_angle_gamma 90.000000
_cell_volume 2144.658550
_symmetry_space_group_name_H-M "C 2/C"
_symmetry_group_IT_number 15
_symmetry_cell_setting 'monoclinic'
loop_
_space_group_symop_operation_xyz
x,y,z
-x,y,1/2-z
-x,-y,-z
x,-y,1/2+z
1/2+x,1/2+y,z
1/2-x,1/2+y,1/2-z
1/2-x,1/2-y,-z
1/2+x,1/2-y,1/2+z
loop_
_atom_site_type_symbol
_atom_site_label
_atom_site_fract_x
_atom_site_fract_y
_atom_site_fract_z
Si Si1 0.214506 0.373901 0.988350
Si Si2 0.617362 0.965141 0.589430
Si Si3 0.444265 0.378100 0.635500
Si Si4 0.670970 0.190680 0.984276
Si Si5 0.000000 0.461084 0.250000
Si Si6 0.606288 0.618397 0.657020
O O1 0.353984 0.356408 0.909765
O O2 0.050122 0.416154 0.928449
O O3 0.087355 0.327733 0.034321
O O4 0.392753 0.400144 0.076359
O O5 0.855691 0.936176 0.596200
O O6 0.500000 0.000000 0.500000
O O7 0.610165 0.000424 0.682304
O O8 0.500000 0.380178 0.750000
O O9 0.256726 0.337143 0.588177
O O10 0.750000 0.250000 0.000000
O O11 0.783188 0.163199 0.901099
O O12 0.197101 0.424281 0.309680
O O13 0.500000 0.633747 0.750000
#
# Coordination Sequence:
#
# PCOD9289115 Si02
#       6
#     8   8   8   8   4   8
#     4  10  22  41  63  86 132 170 214 270 330 392
#     4  11  22  36  58  90 127 173 217 267 319 385
#     4  10  22  40  60  92 127 167 216 269 323 397
#     4  10  23  45  65  93 125 164 219 281 337 401
#     4  12  24  38  62  98 136 174 228 274 324 396
#     4  11  23  41  63  93 130 173 219 278 332 401
#
# _framework density 20.516086000000001
#
# number of rings (size 3 to 8) (size 9 to 14) (size 15 to 20)
#    0.000    1.455    0.000    6.545    0.000   11.636 
#    8.182    0.000    0.000    0.000    0.000    0.000 
#    0.000    0.000    0.000    0.000    0.000    0.000 
#
# Total GULP energy -122502.363293 kJ/mol
# GULP energy per Si atom -5568.289241 kJ/mol
# Density = 2.046939 g / cm^3
# Si number density = 20.516086 Si / 1000 Ang^3
#
#
#
# Elastic Constant Matrix: (Units=GPa)
#
#
# Indices 1 2 3 4 5 6 
#
# 1 99.5085 44.0258 30.6015 0.0000 -3.7553 0.0000
# 2 44.0258 137.7174 41.2312 0.0000 5.3021 0.0000
# 3 30.6015 41.2312 112.7873 0.0000 -7.3003 0.0000
# 4 0.0000 0.0000 0.0000 27.2974 0.0000 -7.1225
# 5 -3.7553 5.3021 -7.3003 0.0000 27.4759 0.0000
# 6 0.0000 0.0000 0.0000 -7.1225 0.0000 16.3069
#
#
#
# Elastic Compliance Matrix: (Units=1/GPa)
#
#
# Indices 1 2 3 4 5 6 
#
# 1 0.012220 -0.003389 -0.001960 0.000000 0.001803 0.000000
# 2 -0.003389 0.009253 -0.002654 0.000000 -0.002954 0.000000
# 3 -0.001960 -0.002654 0.010566 0.000000 0.003052 0.000000
# 4 0.000000 0.000000 0.000000 0.041345 0.000000 0.018059
# 5 0.001803 -0.002954 0.003052 0.000000 0.038023 0.000000
# 6 0.000000 0.000000 0.000000 0.018059 0.000000 0.069212
#
#
# Mechanical properties :
#
#
# Convention : Reuss Voigt Hill
#
# Bulk Modulus (GPa) = 62.37447 64.63669 63.50558
# Shear Modulus (GPa) = 24.75630 29.82634 27.29132
#
# Velocity S-wave (km/s) = 3.47750 3.81701 3.65120
# Velocity P-wave (km/s) = 6.82588 7.14142 6.98543
#
# Compressibility (1/GPa) = 0.01603220
#
# Stress axis : x y z
#
# Youngs Moduli (GPa) = 81.83596 108.07220 94.64493
#
# Poissons Ratio (x) = 0.36627 0.18548
# Poissons Ratio (y) = 0.27735 0.25121
# Poissons Ratio (z) = 0.16038 0.28685
#
# Static dielectric constant tensor:
#      x y z
#    x 1.893880 0.000000 -0.013330 
#    y 0.000000 1.723890 0.000000 
#    z -0.013330 0.000000 1.731700 
# 
# From -- ./inp_files/129469.got.cif
#   From: 2010.05.17/outbox.cif.g08.bks.cpg/sg15_65_cif.got.tgz:129469.got - 2010.06.03 18:47:42.
