data_PCOD9289846
_publ_section_title
;
Structure prediction by ZEFSAII (Michael W. Deem and Ramdas Pophale) SiO2 
 PCOD9289846
Probable space group: C 2/C
;
_chemical_formula_sum "Si O2"
_cell_formula_units_Z 40
_cell_length_a 15.995437
_cell_length_b 5.427785
_cell_length_c 17.809365
_cell_angle_alpha 90.000000
_cell_angle_beta 94.096315
_cell_angle_gamma 90.000000
_cell_volume 1542.255415
_symmetry_space_group_name_H-M "C 2/C"
_symmetry_group_IT_number 15
_symmetry_cell_setting 'monoclinic'
loop_
_space_group_symop_operation_xyz
x,y,z
-x,y,1/2-z
-x,-y,-z
x,-y,1/2+z
1/2+x,1/2+y,z
1/2-x,1/2+y,1/2-z
1/2-x,1/2-y,-z
1/2+x,1/2-y,1/2+z
loop_
_atom_site_type_symbol
_atom_site_label
_atom_site_fract_x
_atom_site_fract_y
_atom_site_fract_z
Si Si1 0.369995 0.072075 0.149149
Si Si2 0.051904 0.271342 0.648850
Si Si3 0.772834 0.930721 0.068563
Si Si4 0.379548 0.214436 0.498161
Si Si5 0.405683 0.725787 0.275769
O O1 0.456992 0.208324 0.175134
O O2 0.293296 0.264215 0.141650
O O3 0.354017 0.837684 0.201996
O O4 0.387809 0.979339 0.065761
O O5 0.050310 0.245067 0.558722
O O6 0.091845 0.540443 0.667891
O O7 0.103982 0.038503 0.685093
O O8 0.702070 0.140292 0.058224
O O9 0.750000 0.750000 0.000000
O O10 0.858945 0.047659 0.045455
O O11 0.500000 0.711522 0.250000
#
# Coordination Sequence:
#
# PCOD9289846 Si02
#       5
#     8   8   8   8   8
#     4  10  22  40  70  96 130 180 221 268 346 406
#     4  11  24  39  68 101 134 166 222 283 327 388
#     4   9  21  40  66  90 133 175 220 268 341 396
#     4  10  22  40  68  98 132 171 225 283 330 395
#     4  10  23  41  62  95 137 173 208 271 339 395
#
# _framework density 25.936039999999998
#
# number of rings (size 3 to 8) (size 9 to 14) (size 15 to 20)
#    0.000    2.000    0.000    2.400   14.000    0.800 
#    0.000    0.000   13.200    0.000    0.000    0.000 
#    0.000    0.000    0.000    0.000    0.000    0.000 
#
# Total GULP energy -111619.660499 kJ/mol
# GULP energy per Si atom -5580.983025 kJ/mol
# Density = 2.587701 g / cm^3
# Si number density = 25.936040 Si / 1000 Ang^3
#
#
#
# Elastic Constant Matrix: (Units=GPa)
#
#
# Indices 1 2 3 4 5 6 
#
# 1 27.1624 16.9363 -1.7722 0.0000 12.9784 0.0000
# 2 16.9363 174.3005 38.0184 0.0000 13.3625 0.0000
# 3 -1.7722 38.0184 96.2521 0.0000 12.1413 0.0000
# 4 0.0000 0.0000 0.0000 43.8740 0.0000 9.8579
# 5 12.9784 13.3625 12.1413 0.0000 36.7116 0.0000
# 6 0.0000 0.0000 0.0000 9.8579 0.0000 28.9565
#
#
#
# Elastic Compliance Matrix: (Units=1/GPa)
#
#
# Indices 1 2 3 4 5 6 
#
# 1 0.047956 -0.004400 0.004756 0.000000 -0.016925 0.000000
# 2 -0.004400 0.006765 -0.002754 0.000000 0.000004 0.000000
# 3 0.004756 -0.002754 0.012157 0.000000 -0.004700 0.000000
# 4 0.000000 0.000000 0.000000 0.024680 0.000000 -0.008402
# 5 -0.016925 0.000004 -0.004700 0.000000 0.034776 0.000000
# 6 0.000000 0.000000 0.000000 -0.008402 0.000000 0.037395
#
#
# Mechanical properties :
#
#
# Convention : Reuss Voigt Hill
#
# Bulk Modulus (GPa) = 16.10731 44.89778 30.50255
# Shear Modulus (GPa) = 26.42442 38.21059 32.31750
#
# Velocity S-wave (km/s) = 3.19537 3.84247 3.53377
# Velocity P-wave (km/s) = 4.45396 6.08561 5.33256
#
# Compressibility (1/GPa) = 0.06208360
#
# Stress axis : x y z
#
# Youngs Moduli (GPa) = 20.85243 147.81883 82.25447
#
# Poissons Ratio (x) = 0.65033 -0.39118
# Poissons Ratio (y) = 0.09174 0.22649
# Poissons Ratio (z) = -0.09917 0.40703
#
# Static dielectric constant tensor:
#      x y z
#    x 2.088540 0.000000 0.012300 
#    y 0.000000 2.133760 0.000000 
#    z 0.012300 0.000000 2.257070 
# 
# From -- ./inp_files/212703.got.cif
#   From: 2010.05.17/outbox.cif.g08.bks.cpg/sg15_107_cif.got.tgz:212703.got - 2010.06.03 18:47:42.
