data_PCOD9289517
_publ_section_title
;
Structure prediction by ZEFSAII (Michael W. Deem and Ramdas Pophale) SiO2 
 PCOD9289517
Probable space group: C 2/C
;
_chemical_formula_sum "Si O2"
_cell_formula_units_Z 48
_cell_length_a 14.047468
_cell_length_b 11.613758
_cell_length_c 13.785987
_cell_angle_alpha 90.000000
_cell_angle_beta 72.883468
_cell_angle_gamma 90.000000
_cell_volume 2149.482780
_symmetry_space_group_name_H-M "C 2/C"
_symmetry_group_IT_number 15
_symmetry_cell_setting 'monoclinic'
loop_
_space_group_symop_operation_xyz
x,y,z
-x,y,1/2-z
-x,-y,-z
x,-y,1/2+z
1/2+x,1/2+y,z
1/2-x,1/2+y,1/2-z
1/2-x,1/2-y,-z
1/2+x,1/2-y,1/2+z
loop_
_atom_site_type_symbol
_atom_site_label
_atom_site_fract_x
_atom_site_fract_y
_atom_site_fract_z
Si Si1 0.098440 0.428214 0.490966
Si Si2 0.484702 0.302928 0.042021
Si Si3 0.288177 0.435884 0.299833
Si Si4 0.737399 0.979742 0.619636
Si Si5 0.412666 0.479583 0.916915
Si Si6 0.888134 0.706728 0.244706
O O1 0.182187 0.439894 0.384058
O O2 0.144956 0.483474 0.574249
O O3 0.000000 0.500000 0.500000
O O4 0.072331 0.291909 0.507293
O O5 0.506592 0.417931 0.099914
O O6 0.403253 0.230257 0.126346
O O7 0.452917 0.360363 0.949786
O O8 0.268804 0.429590 0.191205
O O9 0.359586 0.531277 0.328752
O O10 0.349767 0.321768 0.307564
O O11 0.829921 0.972405 0.518559
O O12 0.699670 0.879977 0.703065
O O13 0.000000 0.676325 0.250000
#
# Coordination Sequence:
#
# PCOD9289517 Si02
#       6
#     8   8   8   8   8   8
#     4  11  24  42  64  91 129 173 211 258 317 383
#     4  11  21  40  65  92 126 167 212 258 316 376
#     4  11  23  40  62  96 126 162 213 265 318 371
#     4  11  23  40  62  92 125 166 212 258 315 376
#     4  10  22  40  65  94 126 160 214 269 308 372
#     4  12  21  38  66  92 126 168 211 255 317 390
#
# _framework density 22.330953000000001
#
# number of rings (size 3 to 8) (size 9 to 14) (size 15 to 20)
#    0.000    1.000    5.000    2.000    0.000    2.667 
#    3.000    2.500    3.667    0.000    0.000    0.000 
#    0.000    0.000    0.000    0.000    0.000    0.000 
#
# Total GULP energy -133756.854475 kJ/mol
# GULP energy per Si atom -5573.202270 kJ/mol
# Density = 2.228013 g / cm^3
# Si number density = 22.330953 Si / 1000 Ang^3
#
#
#
# Elastic Constant Matrix: (Units=GPa)
#
#
# Indices 1 2 3 4 5 6 
#
# 1 91.7942 22.0950 16.4815 0.0000 11.0316 0.0000
# 2 22.0950 44.3584 3.1896 0.0000 12.6385 0.0000
# 3 16.4815 3.1896 70.1557 0.0000 6.7132 0.0000
# 4 0.0000 0.0000 0.0000 28.4179 0.0000 -7.7577
# 5 11.0316 12.6385 6.7132 0.0000 30.6252 0.0000
# 6 0.0000 0.0000 0.0000 -7.7577 0.0000 30.9307
#
#
#
# Elastic Compliance Matrix: (Units=1/GPa)
#
#
# Indices 1 2 3 4 5 6 
#
# 1 0.012961 -0.005781 -0.002619 0.000000 -0.001709 0.000000
# 2 -0.005781 0.028127 0.001012 0.000000 -0.009747 0.000000
# 3 -0.002619 0.001012 0.015089 0.000000 -0.002782 0.000000
# 4 0.000000 0.000000 0.000000 0.037775 0.000000 0.009474
# 5 -0.001709 -0.009747 -0.002782 0.000000 0.037901 0.000000
# 6 0.000000 0.000000 0.000000 0.009474 0.000000 0.034707
#
#
# Mechanical properties :
#
#
# Convention : Reuss Voigt Hill
#
# Bulk Modulus (GPa) = 24.15265 32.20449 28.17857
# Shear Modulus (GPa) = 25.62315 28.96424 27.29370
#
# Velocity S-wave (km/s) = 3.39105 3.60536 3.49984
# Velocity P-wave (km/s) = 5.11581 5.63775 5.38311
#
# Compressibility (1/GPa) = 0.04140333
#
# Stress axis : x y z
#
# Youngs Moduli (GPa) = 77.15519 35.55255 66.27180
#
# Poissons Ratio (x) = 0.20552 0.17353
# Poissons Ratio (y) = 0.44600 -0.06706
# Poissons Ratio (z) = 0.20203 -0.03598
#
# Static dielectric constant tensor:
#      x y z
#    x 1.924340 0.000000 0.056880 
#    y 0.000000 1.897600 0.000000 
#    z 0.056880 0.000000 1.917910 
# 
# From -- ./inp_files/151860.got.cif
#   From: 2010.05.17/outbox.cif.g08.bks.cpg/sg15_76_cif.got.tgz:151860.got - 2010.06.03 18:47:42.
