data_PCOD9289809
_publ_section_title
;
Structure prediction by ZEFSAII (Michael W. Deem and Ramdas Pophale) SiO2 
 PCOD9289809
Probable space group: C 2/C
;
_chemical_formula_sum "Si O2"
_cell_formula_units_Z 44
_cell_length_a 17.290106
_cell_length_b 18.389655
_cell_length_c 10.792459
_cell_angle_alpha 90.000000
_cell_angle_beta 27.952369
_cell_angle_gamma 90.000000
_cell_volume 1608.500658
_symmetry_space_group_name_H-M "C 2/C"
_symmetry_group_IT_number 15
_symmetry_cell_setting 'monoclinic'
loop_
_space_group_symop_operation_xyz
x,y,z
-x,y,1/2-z
-x,-y,-z
x,-y,1/2+z
1/2+x,1/2+y,z
1/2-x,1/2+y,1/2-z
1/2-x,1/2-y,-z
1/2+x,1/2-y,1/2+z
loop_
_atom_site_type_symbol
_atom_site_label
_atom_site_fract_x
_atom_site_fract_y
_atom_site_fract_z
Si Si1 0.351771 0.834342 0.706243
Si Si2 0.170945 0.682724 0.901718
Si Si3 0.842713 0.819466 0.908778
Si Si4 0.083594 0.066831 0.950121
Si Si5 0.000000 0.412164 0.250000
Si Si6 0.315346 0.006603 0.321926
O O1 0.244713 0.761642 0.831852
O O2 0.475888 0.815189 0.647811
O O3 0.426660 0.862618 0.466093
O O4 0.271438 0.908749 0.868050
O O5 0.224557 0.657884 0.686412
O O6 0.274618 0.616428 0.816666
O O7 0.000000 0.786289 0.750000
O O8 0.750000 0.750000 0.000000
O O9 0.640141 0.965452 0.111641
O O10 0.170889 0.030540 0.946647
O O11 0.933750 0.123370 0.192129
O O12 0.000000 0.000000 0.000000
O O13 0.500000 0.000000 0.000000
#
# Coordination Sequence:
#
# PCOD9289809 Si02
#       6
#     8   8   8   8   4   8
#     4  11  25  38  68 102 138 180 238 295 374 425
#     4  11  23  40  60 103 136 176 234 294 365 428
#     4  10  23  38  60  98 141 177 236 289 370 431
#     4  11  24  41  61  97 148 187 231 299 372 445
#     4  10  22  40  68  92 142 180 236 292 356 442
#     4  10  22  45  63  99 135 192 240 286 374 448
#
# _framework density 27.354669000000001
#
# number of rings (size 3 to 8) (size 9 to 14) (size 15 to 20)
#    0.000    1.455    3.636    2.182   11.455    2.909 
#    3.273    0.000    0.000    1.091    7.091    0.000 
#    0.000    0.000    0.000    0.000    0.000    0.000 
#
# Total GULP energy -122575.989124 kJ/mol
# GULP energy per Si atom -5571.635869 kJ/mol
# Density = 2.729241 g / cm^3
# Si number density = 27.354669 Si / 1000 Ang^3
#
#
#
# Elastic Constant Matrix: (Units=GPa)
#
#
# Indices 1 2 3 4 5 6 
#
# 1 98.7631 67.0416 6.5959 -0.0004 -22.9379 0.0031
# 2 67.0416 292.9932 74.4664 -0.0010 -47.0143 0.0017
# 3 6.5959 74.4664 90.4177 -0.0049 -35.4326 0.0081
# 4 -0.0004 -0.0010 -0.0049 92.9635 -0.0004 -94.1814
# 5 -22.9379 -47.0143 -35.4326 -0.0004 56.3233 0.0015
# 6 0.0031 0.0017 0.0081 -94.1814 0.0015 235.6443
#
#
#
# Elastic Compliance Matrix: (Units=1/GPa)
#
#
# Indices 1 2 3 4 5 6 
#
# 1 0.013164 -0.003116 0.003567 0.000000 0.005004 0.000000
# 2 -0.003116 0.005198 -0.003784 0.000000 0.000690 0.000000
# 3 0.003567 -0.003784 0.017582 0.000000 0.009355 -0.000001
# 4 0.000000 0.000000 0.000000 0.018076 0.000000 0.007225
# 5 0.005004 0.000690 0.009355 0.000000 0.026254 -0.000001
# 6 0.000000 0.000000 -0.000001 0.007225 -0.000001 0.007131
#
#
# Mechanical properties :
#
#
# Convention : Reuss Voigt Hill
#
# Bulk Modulus (GPa) = 34.15388 86.48685 60.32037
# Shear Modulus (GPa) = 48.15566 99.25756 73.70661
#
# Velocity S-wave (km/s) = 4.20029 6.03027 5.19647
# Velocity P-wave (km/s) = 6.00299 8.95383 7.62256
#
# Compressibility (1/GPa) = 0.02927925
#
# Stress axis : x y z
#
# Youngs Moduli (GPa) = 75.96314 192.36988 56.87771
#
# Poissons Ratio (x) = 0.59937 -0.20287
# Poissons Ratio (y) = 0.23668 0.21520
# Poissons Ratio (z) = -0.27094 0.72784
#
# Static dielectric constant tensor:
#      x y z
#    x 2.377710 0.000000 0.186310 
#    y 0.000000 0.388700 0.000010 
#    z 0.186310 0.000010 1.965550 
# 
# From -- ./inp_files/256055.got.cif
#   From: 2010.05.17/outbox.cif.g08.bks.cpg/sg15_129_cif.got.tgz:256055.got - 2010.06.03 18:47:42.
