data_PCOD9289690
_publ_section_title
;
Structure prediction by ZEFSAII (Michael W. Deem and Ramdas Pophale) SiO2 
 PCOD9289690
Probable space group: C 2/C
;
_chemical_formula_sum "Si O2"
_cell_formula_units_Z 60
_cell_length_a 24.540380
_cell_length_b 9.093925
_cell_length_c 23.096071
_cell_angle_alpha 90.000000
_cell_angle_beta 152.617444
_cell_angle_gamma 90.000000
_cell_volume 2370.620246
_symmetry_space_group_name_H-M "C 2/C"
_symmetry_group_IT_number 15
_symmetry_cell_setting 'monoclinic'
loop_
_space_group_symop_operation_xyz
x,y,z
-x,y,1/2-z
-x,-y,-z
x,-y,1/2+z
1/2+x,1/2+y,z
1/2-x,1/2+y,1/2-z
1/2-x,1/2-y,-z
1/2+x,1/2-y,1/2+z
loop_
_atom_site_type_symbol
_atom_site_label
_atom_site_fract_x
_atom_site_fract_y
_atom_site_fract_z
Si Si1 0.095467 0.017834 0.287492
Si Si2 0.237524 0.585505 0.465514
Si Si3 0.335056 0.138173 0.329964
Si Si4 0.333336 0.432367 0.395133
Si Si5 0.935210 0.453277 0.512277
Si Si6 0.466281 0.765406 0.108443
Si Si7 0.000000 0.562202 0.750000
Si Si8 0.437339 0.349915 0.063814
O O1 0.000000 0.024433 0.250000
O O2 0.072784 0.153666 0.223309
O O3 0.216175 0.008601 0.435852
O O4 0.056649 0.876480 0.212975
O O5 0.250000 0.750000 0.500000
O O6 0.105990 0.536741 0.325316
O O7 0.329980 0.579785 0.499999
O O8 0.313135 0.306177 0.327135
O O9 0.473394 0.126885 0.444244
O O10 0.264164 0.057995 0.211839
O O11 0.325889 0.028486 0.376435
O O12 0.362993 0.320708 0.477057
O O13 0.441149 0.549536 0.509355
O O14 0.998689 0.592691 0.601379
O O15 0.906392 0.320164 0.527429
O O16 0.440462 0.833353 0.146371
#
# Coordination Sequence:
#
# PCOD9289690 Si02
#       8
#     8   8   8   8   8   8   4   8
#     4   9  20  42  61  91 138 182 227 280 343 408
#     4  11  26  41  68  99 140 189 232 292 343 413
#     4  10  22  41  66  96 140 176 232 296 354 418
#     4  10  22  42  67 101 139 181 228 290 362 414
#     4  10  22  40  67 100 134 182 234 293 348 417
#     4  10  22  41  66  99 143 183 235 285 342 425
#     4  12  26  42  68 104 142 184 240 282 346 422
#     4  10  22  42  69  97 139 178 236 285 348 417
#
# _framework density 25.309830999999999
#
# number of rings (size 3 to 8) (size 9 to 14) (size 15 to 20)
#    0.000    1.867    0.667    1.600    6.533    2.133 
#    0.000    5.333    0.000    0.000    0.000    0.000 
#    0.000    0.000    0.000    0.000    0.000    0.000 
#
# Total GULP energy -167172.513015 kJ/mol
# GULP energy per Si atom -5572.417100 kJ/mol
# Density = 2.525222 g / cm^3
# Si number density = 25.309831 Si / 1000 Ang^3
#
#
#
# Elastic Constant Matrix: (Units=GPa)
#
#
# Indices 1 2 3 4 5 6 
#
# 1 33.3988 32.9088 25.4889 0.0000 -11.6186 0.0000
# 2 32.9088 159.0842 51.0671 0.0000 -18.8398 0.0000
# 3 25.4889 51.0671 129.1618 0.0000 -20.4791 0.0000
# 4 0.0000 0.0000 0.0000 39.1868 0.0000 -17.2551
# 5 -11.6186 -18.8398 -20.4791 0.0000 30.7854 0.0000
# 6 0.0000 0.0000 0.0000 -17.2551 0.0000 32.1350
#
#
#
# Elastic Compliance Matrix: (Units=1/GPa)
#
#
# Indices 1 2 3 4 5 6 
#
# 1 0.042824 -0.006319 -0.004475 0.000000 0.009318 0.000000
# 2 -0.006319 0.008356 -0.001816 0.000000 0.001521 0.000000
# 3 -0.004475 -0.001816 0.009949 0.000000 0.003818 0.000000
# 4 0.000000 0.000000 0.000000 0.033421 0.000000 0.017945
# 5 0.009318 0.001521 0.003818 0.000000 0.039470 0.000000
# 6 0.000000 0.000000 0.000000 0.017945 0.000000 0.040755
#
#
# Mechanical properties :
#
#
# Convention : Reuss Voigt Hill
#
# Bulk Modulus (GPa) = 27.84772 60.06382 43.95577
# Shear Modulus (GPa) = 23.58897 34.56678 29.07788
#
# Velocity S-wave (km/s) = 3.05619 3.69961 3.39319
# Velocity P-wave (km/s) = 4.84565 6.48324 5.72332
#
# Compressibility (1/GPa) = 0.03590958
#
# Stress axis : x y z
#
# Youngs Moduli (GPa) = 23.35133 119.67350 100.51686
#
# Poissons Ratio (x) = 0.75618 0.44984
# Poissons Ratio (y) = 0.14755 0.18250
# Poissons Ratio (z) = 0.10450 0.21728
#
# Static dielectric constant tensor:
#      x y z
#    x 2.169150 0.000000 -0.100830 
#    y 0.000000 2.032990 0.000000 
#    z -0.100830 0.000000 2.030450 
# 
# From -- ./inp_files/283414.got.cif
#   From: 2010.05.17/outbox.cif.g08.bks.cpg/sg15_142_cif.got.tgz:283414.got - 2010.06.03 18:47:42.
