data_PCOD9289954
_publ_section_title
;
Structure prediction by ZEFSAII (Michael W. Deem and Ramdas Pophale) SiO2 
 PCOD9289954
Probable space group: C 2/C
;
_chemical_formula_sum "Si O2"
_cell_formula_units_Z 56
_cell_length_a 13.516496
_cell_length_b 29.221797
_cell_length_c 11.276556
_cell_angle_alpha 90.000000
_cell_angle_beta 39.894347
_cell_angle_gamma 90.000000
_cell_volume 2856.661809
_symmetry_space_group_name_H-M "C 2/C"
_symmetry_group_IT_number 15
_symmetry_cell_setting 'monoclinic'
loop_
_space_group_symop_operation_xyz
x,y,z
-x,y,1/2-z
-x,-y,-z
x,-y,1/2+z
1/2+x,1/2+y,z
1/2-x,1/2+y,1/2-z
1/2-x,1/2-y,-z
1/2+x,1/2-y,1/2+z
loop_
_atom_site_type_symbol
_atom_site_label
_atom_site_fract_x
_atom_site_fract_y
_atom_site_fract_z
Si Si1 0.321419 0.851935 0.452794
Si Si2 0.408096 0.944516 0.462089
Si Si3 0.841767 0.873619 0.338581
Si Si4 0.676068 0.794860 0.627108
Si Si5 0.903399 0.547997 0.463464
Si Si6 0.355209 0.316784 0.087518
Si Si7 0.304869 0.276527 0.762039
O O1 0.500000 0.847813 0.250000
O O2 0.309992 0.897801 0.543025
O O3 0.204471 0.854517 0.450103
O O4 0.269253 0.805694 0.565108
O O5 0.500000 0.943548 0.250000
O O6 0.501481 0.943284 0.501280
O O7 0.340592 0.995818 0.524789
O O8 0.757389 0.840319 0.507885
O O9 0.731393 0.915320 0.411742
O O10 0.000000 0.889770 0.250000
O O11 0.129059 0.841263 0.301330
O O12 0.500000 0.795967 0.750000
O O13 0.750000 0.750000 0.500000
O O14 0.707920 0.790835 0.735897
O O15 0.000000 0.552882 0.250000
O O16 0.223084 0.277663 0.206144
O O17 0.516711 0.291680 0.910581
#
# Coordination Sequence:
#
# PCOD9289954 Si02
#       7
#     8   8   8   8   8   8   8
#     4  11  24  41  67  92 123 168 217 261 315 378
#     4   9  20  42  67  98 126 165 215 265 324 387
#     4  12  24  40  60  96 130 165 207 260 327 381
#     4  12  24  39  62  90 124 167 210 264 318 380
#     4  10  22  40  70  98 127 164 217 270 321 390
#     4  12  25  42  62  87 131 170 213 265 311 382
#     4  12  25  42  62  91 127 168 216 261 314 376
#
# _framework density 19.603300000000001
#
# number of rings (size 3 to 8) (size 9 to 14) (size 15 to 20)
#    0.000    0.857    2.857    5.143    6.000    0.000 
#    0.000    1.429    0.000    9.429    0.000    0.000 
#    0.000    0.000    0.000    0.000    0.000    0.000 
#
# Total GULP energy -156317.425860 kJ/mol
# GULP energy per Si atom -5582.765209 kJ/mol
# Density = 1.955868 g / cm^3
# Si number density = 19.603300 Si / 1000 Ang^3
#
#
#
# Elastic Constant Matrix: (Units=GPa)
#
#
# Indices 1 2 3 4 5 6 
#
# 1 92.5739 29.4651 29.4109 0.0000 10.5320 0.0000
# 2 29.4651 114.7600 19.5141 0.0000 -11.0559 0.0000
# 3 29.4109 19.5141 63.9908 0.0000 -5.8821 0.0000
# 4 0.0000 0.0000 0.0000 13.9874 0.0000 5.1775
# 5 10.5320 -11.0559 -5.8821 0.0000 39.2854 0.0000
# 6 0.0000 0.0000 0.0000 5.1775 0.0000 37.9220
#
#
#
# Elastic Compliance Matrix: (Units=1/GPa)
#
#
# Indices 1 2 3 4 5 6 
#
# 1 0.014434 -0.003204 -0.006180 0.000000 -0.005696 0.000000
# 2 -0.003204 0.010092 -0.001283 0.000000 0.003507 0.000000
# 3 -0.006180 -0.001283 0.019243 0.000000 0.004177 0.000000
# 4 0.000000 0.000000 0.000000 0.075298 0.000000 -0.010280
# 5 -0.005696 0.003507 0.004177 0.000000 0.028594 0.000000
# 6 0.000000 0.000000 0.000000 -0.010280 0.000000 0.027773
#
#
# Mechanical properties :
#
#
# Convention : Reuss Voigt Hill
#
# Bulk Modulus (GPa) = 44.57344 47.56723 46.07033
# Shear Modulus (GPa) = 24.48014 31.10127 27.79070
#
# Velocity S-wave (km/s) = 3.53764 3.98745 3.76926
# Velocity P-wave (km/s) = 6.28280 6.74665 6.51885
#
# Compressibility (1/GPa) = 0.02243489
#
# Stress axis : x y z
#
# Youngs Moduli (GPa) = 69.28317 99.08438 51.96681
#
# Poissons Ratio (x) = 0.31744 0.32118
# Poissons Ratio (y) = 0.22196 0.06667
# Poissons Ratio (z) = 0.42820 0.12711
#
# Static dielectric constant tensor:
#      x y z
#    x 1.657620 0.000000 0.033660 
#    y 0.000000 1.711050 0.000000 
#    z 0.033660 0.000000 1.712360 
# 
# From -- ./inp_files/91976.got.cif
#   From: 2010.05.17/outbox.cif.g08.bks.cpg/sg15_46_cif.got.tgz:91976.got - 2010.06.03 18:47:42.
