data_PCOD9289434
_publ_section_title
;
Structure prediction by ZEFSAII (Michael W. Deem and Ramdas Pophale) SiO2 
 PCOD9289434
Probable space group: C 2/C
;
_chemical_formula_sum "Si O2"
_cell_formula_units_Z 64
_cell_length_a 8.967108
_cell_length_b 32.741613
_cell_length_c 14.338951
_cell_angle_alpha 90.000000
_cell_angle_beta 47.284150
_cell_angle_gamma 90.000000
_cell_volume 3093.113317
_symmetry_space_group_name_H-M "C 2/C"
_symmetry_group_IT_number 15
_symmetry_cell_setting 'monoclinic'
loop_
_space_group_symop_operation_xyz
x,y,z
-x,y,1/2-z
-x,-y,-z
x,-y,1/2+z
1/2+x,1/2+y,z
1/2-x,1/2+y,1/2-z
1/2-x,1/2-y,-z
1/2+x,1/2-y,1/2+z
loop_
_atom_site_type_symbol
_atom_site_label
_atom_site_fract_x
_atom_site_fract_y
_atom_site_fract_z
Si Si1 0.226472 0.092142 0.611644
Si Si2 0.483383 0.246326 0.866870
Si Si3 0.848480 0.898908 0.572746
Si Si4 0.669037 0.333669 0.757243
Si Si5 0.770323 0.010421 0.114866
Si Si6 0.814668 0.615171 0.897612
Si Si7 0.004139 0.668011 0.534854
Si Si8 0.023344 0.466105 0.375226
O O1 0.232854 0.099874 0.498225
O O2 0.338309 0.132247 0.605336
O O3 0.347875 0.051535 0.593616
O O4 0.000000 0.089362 0.750000
O O5 0.500000 0.235244 0.750000
O O6 0.591629 0.290073 0.827727
O O7 0.575682 0.210534 0.891098
O O8 0.250000 0.250000 0.000000
O O9 0.799534 0.865032 0.671267
O O10 0.773656 0.942582 0.644599
O O11 0.091204 0.892926 0.455097
O O12 0.500000 0.347046 0.750000
O O13 0.879728 0.327999 0.612017
O O14 0.687528 0.979073 0.227594
O O15 0.635697 0.002498 0.079423
O O16 0.000000 0.000000 0.000000
O O17 0.000000 0.624357 0.750000
O O18 0.822380 0.651876 0.967334
O O19 0.882351 0.572817 0.914986
#
# Coordination Sequence:
#
# PCOD9289434 Si02
#       8
#     8   8   8   8   8   8   8   8
#     4  11  26  45  67 103 145 183 242 295 368 431
#     4  11  20  39  71 109 143 181 242 305 360 430
#     4  12  24  41  71  94 139 191 228 298 359 436
#     4  11  23  44  68 106 144 178 240 295 365 424
#     4  11  20  38  68  95 129 181 240 289 361 418
#     4  11  18  37  68  96 128 175 235 287 355 406
#     4  11  23  41  70 103 140 185 234 299 353 440
#     4  10  22  40  64  94 134 177 230 301 344 417
#
# _framework density 20.691127000000002
#
# number of rings (size 3 to 8) (size 9 to 14) (size 15 to 20)
#    0.000    1.000    6.250    2.625    0.000    4.000 
#    0.000    3.750    0.000    0.000    0.000    0.000 
#    0.000    0.000    0.000    0.000    0.000    0.000 
#
# Total GULP energy -178338.360080 kJ/mol
# GULP energy per Si atom -5573.073752 kJ/mol
# Density = 2.064403 g / cm^3
# Si number density = 20.691127 Si / 1000 Ang^3
#
#
#
# Elastic Constant Matrix: (Units=GPa)
#
#
# Indices 1 2 3 4 5 6 
#
# 1 107.1062 44.7410 34.1053 0.0000 6.9178 0.0000
# 2 44.7410 87.0664 1.8180 0.0000 12.7442 0.0000
# 3 34.1053 1.8180 58.5592 0.0000 -4.1769 0.0000
# 4 0.0000 0.0000 0.0000 35.8525 0.0000 5.5951
# 5 6.9178 12.7442 -4.1769 0.0000 35.4949 0.0000
# 6 0.0000 0.0000 0.0000 5.5951 0.0000 38.4769
#
#
#
# Elastic Compliance Matrix: (Units=1/GPa)
#
#
# Indices 1 2 3 4 5 6 
#
# 1 0.015370 -0.007519 -0.008813 0.000000 -0.001333 0.000000
# 2 -0.007519 0.015829 0.003617 0.000000 -0.003792 0.000000
# 3 -0.008813 0.003617 0.022314 0.000000 0.003045 0.000000
# 4 0.000000 0.000000 0.000000 0.028540 0.000000 -0.004150
# 5 -0.001333 -0.003792 0.003045 0.000000 0.030153 0.000000
# 6 0.000000 0.000000 0.000000 -0.004150 0.000000 0.026593
#
#
# Mechanical properties :
#
#
# Convention : Reuss Voigt Hill
#
# Bulk Modulus (GPa) = 35.60842 46.00670 40.80756
# Shear Modulus (GPa) = 28.80360 33.43603 31.11981
#
# Velocity S-wave (km/s) = 3.73510 4.02426 3.88237
# Velocity P-wave (km/s) = 5.98733 6.62391 6.31365
#
# Compressibility (1/GPa) = 0.02808324
#
# Stress axis : x y z
#
# Youngs Moduli (GPa) = 65.06266 63.17590 44.81406
#
# Poissons Ratio (x) = 0.47502 0.39495
# Poissons Ratio (y) = 0.48920 -0.16210
# Poissons Ratio (z) = 0.57340 -0.22852
#
# Static dielectric constant tensor:
#      x y z
#    x 1.769760 0.000000 0.018190 
#    y 0.000000 1.706510 0.000000 
#    z 0.018190 0.000000 1.770480 
# 
# From -- ./inp_files/139790.got.cif
#   From: 2010.05.17/outbox.cif.g08.bks.cpg/sg15_70_cif.got.tgz:139790.got - 2010.06.03 18:47:42.
