data_PCOD9289852
_publ_section_title
;
Structure prediction by ZEFSAII (Michael W. Deem and Ramdas Pophale) SiO2 
 PCOD9289852
Probable space group: C 2/C
;
_chemical_formula_sum "Si O2"
_cell_formula_units_Z 64
_cell_length_a 23.281742
_cell_length_b 8.637706
_cell_length_c 30.872347
_cell_angle_alpha 90.000000
_cell_angle_beta 155.128953
_cell_angle_gamma 90.000000
_cell_volume 2611.135906
_symmetry_space_group_name_H-M "C 2/C"
_symmetry_group_IT_number 15
_symmetry_cell_setting 'monoclinic'
loop_
_space_group_symop_operation_xyz
x,y,z
-x,y,1/2-z
-x,-y,-z
x,-y,1/2+z
1/2+x,1/2+y,z
1/2-x,1/2+y,1/2-z
1/2-x,1/2-y,-z
1/2+x,1/2-y,1/2+z
loop_
_atom_site_type_symbol
_atom_site_label
_atom_site_fract_x
_atom_site_fract_y
_atom_site_fract_z
Si Si1 0.335688 0.177404 0.633613
Si Si2 0.655631 0.947979 0.498405
Si Si3 0.498397 0.628317 0.556399
Si Si4 0.832107 0.613243 0.079169
Si Si5 0.246771 0.648308 0.823535
Si Si6 0.419343 0.283192 0.862224
Si Si7 0.210075 0.230428 0.863425
Si Si8 0.838286 0.696929 0.260062
O O1 0.500000 0.160813 0.750000
O O2 0.284103 0.335493 0.576983
O O3 0.283883 0.166235 0.647303
O O4 0.273278 0.040861 0.561775
O O5 0.540070 0.839998 0.439960
O O6 0.600401 0.031190 0.416872
O O7 0.719357 0.071211 0.574956
O O8 0.593522 0.654517 0.579533
O O9 0.527682 0.455524 0.592907
O O10 0.339920 0.659806 0.441117
O O11 0.553555 0.749023 0.630183
O O12 0.750000 0.750000 0.000000
O O13 0.867422 0.701748 0.148117
O O14 0.166162 0.777773 0.741109
O O15 0.191026 0.485348 0.766033
O O16 0.306758 0.237910 0.821258
O O17 0.123689 0.231881 0.760527
#
# Coordination Sequence:
#
# PCOD9289852 Si02
#       8
#     8   8   8   8   8   8   8   8
#     4  12  25  42  68  98 131 175 223 284 337 407
#     4  11  25  43  66  96 134 176 226 280 338 400
#     4  10  23  40  67 101 142 175 219 282 340 412
#     4  10  23  47  67  91 127 175 228 274 334 401
#     4  10  22  41  64  99 139 171 220 272 347 403
#     4  10  22  40  68  98 135 178 214 284 344 398
#     4  11  23  43  70  98 132 183 227 274 336 416
#     4  10  22  41  66  99 139 179 224 271 339 416
#
# _framework density 24.510406
#
# number of rings (size 3 to 8) (size 9 to 14) (size 15 to 20)
#    0.000    1.500    1.250    2.625    3.500    4.500 
#    0.000    1.250    0.000    0.000    0.000    0.000 
#    0.000    0.000    0.000    0.000    0.000    0.000 
#
# Total GULP energy -178926.350682 kJ/mol
# GULP energy per Si atom -5591.448459 kJ/mol
# Density = 2.445462 g / cm^3
# Si number density = 24.510406 Si / 1000 Ang^3
#
#
#
# Elastic Constant Matrix: (Units=GPa)
#
#
# Indices 1 2 3 4 5 6 
#
# 1 160.4435 28.8407 47.6954 0.0005 -20.0453 0.0000
# 2 28.8407 92.1904 30.2823 -0.0012 4.2168 -0.0002
# 3 47.6954 30.2823 96.9944 0.0015 -4.1587 -0.0003
# 4 0.0005 -0.0012 0.0015 -1.0030 0.0004 -5.2941
# 5 -20.0453 4.2168 -4.1587 0.0004 37.3252 -0.0001
# 6 0.0000 -0.0002 -0.0003 -5.2941 -0.0001 40.1874
#
#
#
# Elastic Compliance Matrix: (Units=1/GPa)
#
#
# Indices 1 2 3 4 5 6 
#
# 1 0.008007 -0.001625 -0.003253 0.000002 0.004121 0.000000
# 2 -0.001625 0.012537 -0.003229 -0.000013 -0.002649 -0.000002
# 3 -0.003253 -0.003229 0.012920 0.000012 0.000057 0.000002
# 4 0.000002 -0.000013 0.000012 -0.588080 0.000010 -0.077471
# 5 0.004121 -0.002649 0.000057 0.000010 0.029310 0.000001
# 6 0.000000 -0.000002 0.000002 -0.077471 0.000001 0.014678
#
#
# Mechanical properties :
#
#
# Convention : Reuss Voigt Hill
#
# Bulk Modulus (GPa) = 57.96952 62.58502 60.27727
# Shear Modulus (GPa) = -10.23198 31.48923 10.62863
#
# Velocity S-wave (km/s) = -2.04539 3.58820 2.08466
# Velocity P-wave (km/s) = 4.25725 6.53884 5.51727
#
# Compressibility (1/GPa) = 0.01725045
#
# Stress axis : x y z
#
# Youngs Moduli (GPa) = 124.89460 79.76305 77.39863
#
# Poissons Ratio (x) = 0.12959 0.25180
# Poissons Ratio (y) = 0.20292 0.24991
# Poissons Ratio (z) = 0.40631 0.25754
#
# Static dielectric constant tensor:
#      x y z
#    x 2.009280 0.000000 -0.019920 
#    y 0.000000 1.929940 0.000000 
#    z -0.019920 0.000000 2.028550 
# 
# From -- ./inp_files/318635.got.cif
#   From: 2010.05.17/outbox.cif.g08.bks.cpg/sg15_160_cif.got.tgz:318635.got - 2010.06.03 18:47:42.
