data_PCOD9289106
_publ_section_title
;
Structure prediction by ZEFSAII (Michael W. Deem and Ramdas Pophale) SiO2 
 PCOD9289106
Probable space group: C 2/C
;
_chemical_formula_sum "Si O2"
_cell_formula_units_Z 64
_cell_length_a 29.047436
_cell_length_b 9.069476
_cell_length_c 25.169857
_cell_angle_alpha 90.000000
_cell_angle_beta 151.773373
_cell_angle_gamma 90.000000
_cell_volume 3136.139828
_symmetry_space_group_name_H-M "C 2/C"
_symmetry_group_IT_number 15
_symmetry_cell_setting 'monoclinic'
loop_
_space_group_symop_operation_xyz
x,y,z
-x,y,1/2-z
-x,-y,-z
x,-y,1/2+z
1/2+x,1/2+y,z
1/2-x,1/2+y,1/2-z
1/2-x,1/2-y,-z
1/2+x,1/2-y,1/2+z
loop_
_atom_site_type_symbol
_atom_site_label
_atom_site_fract_x
_atom_site_fract_y
_atom_site_fract_z
Si Si1 0.528455 0.037538 0.837132
Si Si2 0.959461 0.119789 0.558618
Si Si3 0.745853 0.404309 0.819255
Si Si4 0.404583 0.707071 0.013847
Si Si5 0.189615 0.334917 0.039183
Si Si6 0.614874 0.996779 0.634389
Si Si7 0.376899 0.166499 0.243338
Si Si8 0.561046 0.683648 0.084188
O O1 0.500000 0.090285 0.750000
O O2 0.554894 0.173734 0.902860
O O3 0.438730 0.948277 0.771541
O O4 0.618210 0.919584 0.925605
O O5 0.880427 0.241822 0.493955
O O6 0.961207 0.120984 0.496270
O O7 0.057821 0.187693 0.681698
O O8 0.924794 0.963582 0.546826
O O9 0.768309 0.531788 0.883719
O O10 0.810052 0.434689 0.832098
O O11 0.632679 0.417000 0.691057
O O12 0.792911 0.254130 0.890912
O O13 0.466161 0.722968 0.021717
O O14 0.276959 0.222501 0.115184
O O15 0.629466 0.171889 0.650882
O O16 0.500000 0.000000 0.500000
O O17 0.630715 0.911063 0.705967
#
# Coordination Sequence:
#
# PCOD9289106 Si02
#       8
#     8   8   8   8   8   8   8   8
#     4  10  23  45  68  86 113 156 203 263 324 369
#     4  11  22  35  58  90 125 160 201 243 287 362
#     4  11  23  35  56  85 129 163 199 243 284 369
#     4  11  23  39  56  88 122 159 203 249 308 363
#     4  10  22  40  60  90 117 156 202 251 310 359
#     4  12  19  37  55  85 127 173 205 234 291 357
#     4  11  21  39  63  86 125 160 203 257 297 360
#     4  12  22  34  57  88 126 167 206 235 291 359
#
# _framework density 20.407254999999999
#
# number of rings (size 3 to 8) (size 9 to 14) (size 15 to 20)
#    0.000    1.000    5.000    2.625    3.500    0.500 
#    0.000    2.500    0.000   10.500    0.000    0.000 
#    0.000    0.000    0.000    0.000    0.000    0.000 
#
# Total GULP energy -178546.320582 kJ/mol
# GULP energy per Si atom -5579.572518 kJ/mol
# Density = 2.036081 g / cm^3
# Si number density = 20.407255 Si / 1000 Ang^3
#
#
#
# Elastic Constant Matrix: (Units=GPa)
#
#
# Indices 1 2 3 4 5 6 
#
# 1 22.4325 -0.8999 20.7487 0.0000 -5.5360 0.0000
# 2 -0.8999 67.4597 7.3897 0.0000 -11.8558 0.0000
# 3 20.7487 7.3897 83.9880 0.0000 3.6004 0.0000
# 4 0.0000 0.0000 0.0000 25.3649 0.0000 3.2964
# 5 -5.5360 -11.8558 3.6004 0.0000 22.7583 0.0000
# 6 0.0000 0.0000 0.0000 3.2964 0.0000 16.4286
#
#
#
# Elastic Compliance Matrix: (Units=1/GPa)
#
#
# Indices 1 2 3 4 5 6 
#
# 1 0.067362 0.006915 -0.018230 0.000000 0.022873 0.000000
# 2 0.006915 0.017306 -0.003715 0.000000 0.011285 0.000000
# 3 -0.018230 -0.003715 0.017126 0.000000 -0.009079 0.000000
# 4 0.000000 0.000000 0.000000 0.040480 0.000000 -0.008122
# 5 0.022873 0.011285 -0.009079 0.000000 0.056819 0.000000
# 6 0.000000 0.000000 0.000000 -0.008122 0.000000 0.062499
#
#
# Mechanical properties :
#
#
# Convention : Reuss Voigt Hill
#
# Bulk Modulus (GPa) = 13.94019 25.37302 19.65660
# Shear Modulus (GPa) = 15.84460 22.68648 19.26554
#
# Velocity S-wave (km/s) = 2.78945 3.33781 3.07588
# Velocity P-wave (km/s) = 4.14977 5.22638 4.71887
#
# Compressibility (1/GPa) = 0.07173504
#
# Stress axis : x y z
#
# Youngs Moduli (GPa) = 14.84508 57.78260 58.38984
#
# Poissons Ratio (x) = -0.39959 1.06447
# Poissons Ratio (y) = -0.10266 0.21691
# Poissons Ratio (z) = 0.27063 0.21466
#
# Static dielectric constant tensor:
#      x y z
#    x 1.697460 0.000000 0.037920 
#    y 0.000000 1.837780 0.000000 
#    z 0.037920 0.000000 1.795950 
# 
# From -- ./inp_files/284461.got.cif
#   From: 2010.05.17/outbox.cif.g08.bks.cpg/sg15_143_cif.got.tgz:284461.got - 2010.06.03 18:47:42.
