data_PCOD9289042
_publ_section_title
;
Structure prediction by ZEFSAII (Michael W. Deem and Ramdas Pophale) SiO2 
 PCOD9289042
Probable space group: C 2/C
;
_chemical_formula_sum "Si O2"
_cell_formula_units_Z 56
_cell_length_a 17.309920
_cell_length_b 21.142498
_cell_length_c 9.470623
_cell_angle_alpha 90.000000
_cell_angle_beta 55.311682
_cell_angle_gamma 90.000000
_cell_volume 2849.962341
_symmetry_space_group_name_H-M "C 2/C"
_symmetry_group_IT_number 15
_symmetry_cell_setting 'monoclinic'
loop_
_space_group_symop_operation_xyz
x,y,z
-x,y,1/2-z
-x,-y,-z
x,-y,1/2+z
1/2+x,1/2+y,z
1/2-x,1/2+y,1/2-z
1/2-x,1/2-y,-z
1/2+x,1/2-y,1/2+z
loop_
_atom_site_type_symbol
_atom_site_label
_atom_site_fract_x
_atom_site_fract_y
_atom_site_fract_z
Si Si1 0.148551 0.343851 0.307441
Si Si2 0.677723 0.274254 0.221746
Si Si3 0.416693 0.358114 0.426488
Si Si4 0.212350 0.629233 0.185068
Si Si5 0.399406 0.053301 0.423958
Si Si6 0.003259 0.770977 0.913609
Si Si7 0.606616 0.097008 0.578267
O O1 0.236366 0.314754 0.302105
O O2 0.108514 0.406842 0.424709
O O3 0.069078 0.289678 0.378167
O O4 0.171462 0.368277 0.126813
O O5 0.620475 0.308078 0.154339
O O6 0.708060 0.203437 0.148934
O O7 0.602885 0.263173 0.424478
O O8 0.500000 0.392260 0.250000
O O9 0.321573 0.390121 0.582442
O O10 0.457057 0.325022 0.524244
O O11 0.173984 0.585464 0.102522
O O12 0.143636 0.621193 0.389729
O O13 0.500000 0.064490 0.250000
O O14 0.384698 0.978588 0.445830
O O15 0.000000 0.783320 0.750000
O O16 0.500000 0.108828 0.750000
#
# Coordination Sequence:
#
# PCOD9289042 Si02
#       7
#     8   8   8   8   8   8   8
#     4  12  22  39  60  92 131 162 203 256 306 378
#     4  11  22  37  60  94 123 162 208 251 316 374
#     4  10  22  40  58  88 122 160 208 251 303 374
#     4  12  21  39  64  88 124 167 205 254 314 367
#     4  11  23  40  63  89 124 170 214 251 298 373
#     4  11  23  36  58  90 129 163 194 252 319 375
#     4  11  25  40  59  93 130 169 208 253 310 370
#
# _framework density 19.649383
#
# number of rings (size 3 to 8) (size 9 to 14) (size 15 to 20)
#    0.000    0.857    2.857    6.000    2.000    4.571 
#    0.000    0.000    0.000    0.857    0.000    0.000 
#    0.000    0.000    0.000    0.000    0.000    0.000 
#
# Total GULP energy -156181.467463 kJ/mol
# GULP energy per Si atom -5577.909552 kJ/mol
# Density = 1.960466 g / cm^3
# Si number density = 19.649383 Si / 1000 Ang^3
#
#
#
# Elastic Constant Matrix: (Units=GPa)
#
#
# Indices 1 2 3 4 5 6 
#
# 1 93.7918 28.5688 29.9031 0.0000 -0.9011 0.0000
# 2 28.5688 33.1090 -1.1931 0.0000 -5.6947 0.0000
# 3 29.9031 -1.1931 102.2117 0.0000 2.5555 0.0000
# 4 0.0000 0.0000 0.0000 21.2401 0.0000 6.1275
# 5 -0.9011 -5.6947 2.5555 0.0000 40.8141 0.0000
# 6 0.0000 0.0000 0.0000 6.1275 0.0000 -63.5543
#
#
#
# Elastic Compliance Matrix: (Units=1/GPa)
#
#
# Indices 1 2 3 4 5 6 
#
# 1 0.016806 -0.014924 -0.005056 0.000000 -0.001395 0.000000
# 2 -0.014924 0.044205 0.004744 0.000000 0.005541 0.000000
# 3 -0.005056 0.004744 0.011322 0.000000 -0.000159 0.000000
# 4 0.000000 0.000000 0.000000 0.045807 0.000000 0.004416
# 5 -0.001395 0.005541 -0.000159 0.000000 0.025254 0.000000
# 6 0.000000 0.000000 0.000000 0.004416 0.000000 -0.015309
#
#
# Mechanical properties :
#
#
# Convention : Reuss Voigt Hill
#
# Bulk Modulus (GPa) = 23.88899 38.18555 31.03727
# Shear Modulus (GPa) = 28.98368 11.15556 20.06962
#
# Velocity S-wave (km/s) = 3.84479 2.38530 3.19938
# Velocity P-wave (km/s) = 5.64747 5.20210 5.42935
#
# Compressibility (1/GPa) = 0.04186029
#
# Stress axis : x y z
#
# Youngs Moduli (GPa) = 59.50151 22.62210 88.32205
#
# Poissons Ratio (x) = 0.33761 0.44657
# Poissons Ratio (y) = 0.88799 -0.41896
# Poissons Ratio (z) = 0.30085 -0.10731
#
# Static dielectric constant tensor:
#      x y z
#    x 1.678390 0.000000 -0.010220 
#    y 0.000000 1.676480 0.000000 
#    z -0.010220 0.000000 1.741230 
# 
# From -- ./inp_files/50139.got.cif
#   From: 2010.05.17/outbox.cif.g08.bks.cpg/sg15_26_cif.got.tgz:50139.got - 2010.06.03 18:47:42.
