data_PCOD9289404
_publ_section_title
;
Structure prediction by ZEFSAII (Michael W. Deem and Ramdas Pophale) SiO2 
 PCOD9289404
Probable space group: C 2/C
;
_chemical_formula_sum "Si O2"
_cell_formula_units_Z 60
_cell_length_a 29.351881
_cell_length_b 9.280735
_cell_length_c 11.474745
_cell_angle_alpha 90.000000
_cell_angle_beta 69.692511
_cell_angle_gamma 90.000000
_cell_volume 2931.512584
_symmetry_space_group_name_H-M "C 2/C"
_symmetry_group_IT_number 15
_symmetry_cell_setting 'monoclinic'
loop_
_space_group_symop_operation_xyz
x,y,z
-x,y,1/2-z
-x,-y,-z
x,-y,1/2+z
1/2+x,1/2+y,z
1/2-x,1/2+y,1/2-z
1/2-x,1/2-y,-z
1/2+x,1/2-y,1/2+z
loop_
_atom_site_type_symbol
_atom_site_label
_atom_site_fract_x
_atom_site_fract_y
_atom_site_fract_z
Si Si1 0.038345 0.660040 0.370151
Si Si2 0.170208 0.786979 0.544254
Si Si3 0.231265 0.401658 0.158868
Si Si4 0.867650 0.188361 0.670035
Si Si5 0.500000 0.392338 0.250000
Si Si6 0.912342 0.077939 0.225251
Si Si7 0.519794 0.167705 0.854355
Si Si8 0.765957 0.259975 0.851107
O O1 0.092097 0.716770 0.302104
O O2 0.035689 0.497744 0.328591
O O3 0.999711 0.775145 0.354186
O O4 0.024786 0.662646 0.517345
O O5 0.189816 0.659551 0.609758
O O6 0.218100 0.870943 0.455160
O O7 0.143857 0.747491 0.446683
O O8 0.132202 0.878487 0.652710
O O9 0.228043 0.571229 0.183906
O O10 0.232810 0.314964 0.280411
O O11 0.818046 0.185197 0.785895
O O12 0.891498 0.029802 0.645572
O O13 0.453327 0.489880 0.262273
O O14 0.937669 0.221002 0.152124
O O15 0.500000 0.219765 0.750000
O O16 0.750000 0.250000 0.000000
#
# Coordination Sequence:
#
# PCOD9289404 Si02
#       8
#     8   8   8   8   4   8   8   8
#     4  10  23  42  61  90 133 165 216 271 322 389
#     4  10  23  43  67  94 133 170 224 276 330 402
#     4  10  25  44  72  95 136 177 221 281 343 397
#     4  10  24  41  63  94 131 167 220 272 329 397
#     4  10  22  40  64  92 128 170 212 270 330 370
#     4  11  23  38  66  99 126 173 221 268 331 402
#     4  11  22  40  64  90 124 173 215 265 327 390
#     4  11  25  45  71 100 134 174 223 273 345 403
#
# _framework density 20.467248999999999
#
# number of rings (size 3 to 8) (size 9 to 14) (size 15 to 20)
#    0.000    1.600    1.333    1.600   13.067    1.067 
#    0.000    0.000    0.000    0.000    0.000    0.000 
#    0.000    0.000    0.000    0.000    0.000    0.000 
#
# Total GULP energy -167298.192091 kJ/mol
# GULP energy per Si atom -5576.606403 kJ/mol
# Density = 2.042066 g / cm^3
# Si number density = 20.467249 Si / 1000 Ang^3
#
#
#
# Elastic Constant Matrix: (Units=GPa)
#
#
# Indices 1 2 3 4 5 6 
#
# 1 78.1187 42.3837 35.4322 0.0000 7.9964 0.0000
# 2 42.3837 137.5109 31.3345 0.0000 10.8265 0.0000
# 3 35.4322 31.3345 66.7833 0.0000 19.8255 0.0000
# 4 0.0000 0.0000 0.0000 10.8430 0.0000 0.2087
# 5 7.9964 10.8265 19.8255 0.0000 21.1576 0.0000
# 6 0.0000 0.0000 0.0000 0.2087 0.0000 30.3042
#
#
#
# Elastic Compliance Matrix: (Units=1/GPa)
#
#
# Indices 1 2 3 4 5 6 
#
# 1 0.018731 -0.003972 -0.009110 0.000000 0.003490 0.000000
# 2 -0.003972 0.008995 -0.001652 0.000000 -0.001554 0.000000
# 3 -0.009110 -0.001652 0.026750 0.000000 -0.020778 0.000000
# 4 0.000000 0.000000 0.000000 0.092238 0.000000 -0.000635
# 5 0.003490 -0.001554 -0.020778 0.000000 0.066210 0.000000
# 6 0.000000 0.000000 0.000000 -0.000635 0.000000 0.033003
#
#
# Mechanical properties :
#
#
# Convention : Reuss Voigt Hill
#
# Bulk Modulus (GPa) = 39.98636 55.63484 47.81060
# Shear Modulus (GPa) = 17.62227 24.01180 20.81704
#
# Velocity S-wave (km/s) = 2.93746 3.42889 3.19264
# Velocity P-wave (km/s) = 5.57531 6.55117 6.08284
#
# Compressibility (1/GPa) = 0.02500853
#
# Stress axis : x y z
#
# Youngs Moduli (GPa) = 53.38755 111.17080 37.38259
#
# Poissons Ratio (x) = 0.44158 0.34056
# Poissons Ratio (y) = 0.21206 0.06175
# Poissons Ratio (z) = 0.48637 0.18363
#
# Static dielectric constant tensor:
#      x y z
#    x 1.740680 0.000000 0.023800 
#    y 0.000000 1.736980 0.000000 
#    z 0.023800 0.000000 1.736420 
# 
# From -- ./inp_files/125887.got.cif
#   From: 2010.05.17/outbox.cif.g08.bks.cpg/sg15_63_cif.got.tgz:125887.got - 2010.06.03 18:47:42.
