data_PCOD9289498
_publ_section_title
;
Structure prediction by ZEFSAII (Michael W. Deem and Ramdas Pophale) SiO2 
 PCOD9289498
Probable space group: C 2/C
;
_chemical_formula_sum "Si O2"
_cell_formula_units_Z 48
_cell_length_a 32.071745
_cell_length_b 11.653513
_cell_length_c 23.817277
_cell_angle_alpha 90.000000
_cell_angle_beta 163.099591
_cell_angle_gamma 90.000000
_cell_volume 2587.796228
_symmetry_space_group_name_H-M "C 2/C"
_symmetry_group_IT_number 15
_symmetry_cell_setting 'monoclinic'
loop_
_space_group_symop_operation_xyz
x,y,z
-x,y,1/2-z
-x,-y,-z
x,-y,1/2+z
1/2+x,1/2+y,z
1/2-x,1/2+y,1/2-z
1/2-x,1/2-y,-z
1/2+x,1/2-y,1/2+z
loop_
_atom_site_type_symbol
_atom_site_label
_atom_site_fract_x
_atom_site_fract_y
_atom_site_fract_z
Si Si1 0.904238 0.323937 0.571223
Si Si2 0.317010 0.103600 0.742248
Si Si3 0.099370 0.931407 0.203848
Si Si4 0.671386 0.634943 0.214756
Si Si5 0.546404 0.555779 0.873293
Si Si6 0.942450 0.494409 0.519034
O O1 0.740970 0.359934 0.372742
O O2 0.905551 0.188562 0.560972
O O3 0.960863 0.401555 0.592506
O O4 0.000000 0.344436 0.750000
O O5 0.298912 0.239702 0.722857
O O6 0.391356 0.069422 0.896833
O O7 0.171049 0.031884 0.550505
O O8 0.417528 0.064058 0.820058
O O9 0.080326 0.953778 0.244929
O O10 0.116662 0.050769 0.193254
O O11 0.956943 0.869216 0.996288
O O12 0.814842 0.579680 0.373519
O O13 0.500000 0.533756 0.750000
#
# Coordination Sequence:
#
# PCOD9289498 Si02
#       6
#     8   8   8   8   8   8
#     4  10  24  41  65  90 124 163 204 259 306 363
#     4  11  24  38  64  91 125 160 206 253 300 369
#     4  10  22  41  64  91 123 163 205 252 311 363
#     4  10  22  40  65  91 124 161 201 259 306 360
#     4  11  25  40  63  93 125 163 204 254 311 363
#     4  10  23  39  62  93 119 160 209 251 304 362
#
# _framework density 18.548601000000001
#
# number of rings (size 3 to 8) (size 9 to 14) (size 15 to 20)
#    0.000    1.667    1.667    1.000   11.667    1.333 
#    0.000    4.167    0.000    0.000    0.000    0.000 
#    0.000    0.000    0.000    0.000    0.000    0.000 
#
# Total GULP energy -134046.175724 kJ/mol
# GULP energy per Si atom -5585.257322 kJ/mol
# Density = 1.850638 g / cm^3
# Si number density = 18.548601 Si / 1000 Ang^3
#
#
#
# Elastic Constant Matrix: (Units=GPa)
#
#
# Indices 1 2 3 4 5 6 
#
# 1 120.3849 31.3323 11.5646 0.0000 2.7491 0.0000
# 2 31.3323 111.0831 31.0037 0.0000 -2.5087 -0.0001
# 3 11.5646 31.0037 21.5950 0.0000 -5.0688 -0.0001
# 4 0.0000 0.0000 0.0000 18.6653 0.0000 -8.5070
# 5 2.7491 -2.5087 -5.0688 0.0000 27.4044 -0.0001
# 6 0.0000 -0.0001 -0.0001 -8.5070 -0.0001 11.9757
#
#
#
# Elastic Compliance Matrix: (Units=1/GPa)
#
#
# Indices 1 2 3 4 5 6 
#
# 1 0.009076 -0.001897 -0.002499 0.000000 -0.001546 0.000000
# 2 -0.001897 0.015616 -0.021978 0.000000 -0.002445 0.000000
# 3 -0.002499 -0.021978 0.082362 0.000000 0.013473 0.000001
# 4 0.000000 0.000000 0.000000 0.079225 0.000000 0.056278
# 5 -0.001546 -0.002445 0.013473 0.000000 0.038914 0.000001
# 6 0.000000 0.000000 0.000001 0.056278 0.000001 0.123480
#
#
# Mechanical properties :
#
#
# Convention : Reuss Voigt Hill
#
# Bulk Modulus (GPa) = 18.41478 44.54046 31.47762
# Shear Modulus (GPa) = 11.91828 23.55324 17.73576
#
# Velocity S-wave (km/s) = 2.53759 3.56731 3.09557
# Velocity P-wave (km/s) = 4.30526 6.40567 5.45746
#
# Compressibility (1/GPa) = 0.05430420
#
# Stress axis : x y z
#
# Youngs Moduli (GPa) = 110.18181 64.03526 12.14157
#
# Poissons Ratio (x) = 0.12149 0.03035
# Poissons Ratio (y) = 0.20905 0.26685
# Poissons Ratio (z) = 0.27539 1.40738
#
# Static dielectric constant tensor:
#      x y z
#    x 1.636820 0.000000 -0.001540 
#    y 0.000000 1.614200 0.000000 
#    z -0.001540 0.000000 1.626220 
# 
# From -- ./inp_files/103824.got.cif
#   From: 2010.05.17/outbox.cif.g08.bks.cpg/sg15_52_cif.got.tgz:103824.got - 2010.06.03 18:47:42.
