data_PCOD9289695
_publ_section_title
;
Structure prediction by ZEFSAII (Michael W. Deem and Ramdas Pophale) SiO2 
 PCOD9289695
Probable space group: C 2/C
;
_chemical_formula_sum "Si O2"
_cell_formula_units_Z 60
_cell_length_a 21.853883
_cell_length_b 8.464001
_cell_length_c 13.769643
_cell_angle_alpha 90.000000
_cell_angle_beta 89.981051
_cell_angle_gamma 90.000000
_cell_volume 2546.988456
_symmetry_space_group_name_H-M "C 2/C"
_symmetry_group_IT_number 15
_symmetry_cell_setting 'monoclinic'
loop_
_space_group_symop_operation_xyz
x,y,z
-x,y,1/2-z
-x,-y,-z
x,-y,1/2+z
1/2+x,1/2+y,z
1/2-x,1/2+y,1/2-z
1/2-x,1/2-y,-z
1/2+x,1/2-y,1/2+z
loop_
_atom_site_type_symbol
_atom_site_label
_atom_site_fract_x
_atom_site_fract_y
_atom_site_fract_z
Si Si1 0.288841 0.222339 0.788761
Si Si2 0.000000 0.445936 0.750000
Si Si3 0.428827 0.212425 0.827963
Si Si4 0.086140 0.003830 0.031375
Si Si5 0.729623 0.421405 0.539692
Si Si6 0.234062 0.394344 0.631835
Si Si7 0.392221 0.269175 0.304742
Si Si8 0.059425 0.022606 0.310979
O O1 0.356628 0.179910 0.827613
O O2 0.265526 0.378180 0.846869
O O3 0.282767 0.270907 0.676612
O O4 0.253463 0.066088 0.820796
O O5 0.026247 0.564153 0.666959
O O6 0.060407 0.337921 0.757415
O O7 0.439356 0.347375 0.907613
O O8 0.435616 0.297370 0.723102
O O9 0.158681 0.037770 0.021376
O O10 0.080845 0.843923 0.095155
O O11 0.058562 0.998200 0.924778
O O12 0.750000 0.250000 0.500000
O O13 0.764627 0.560070 0.482266
O O14 0.169597 0.320516 0.667425
O O15 0.385333 0.424218 0.237356
O O16 0.000000 0.965860 0.250000
#
# Coordination Sequence:
#
# PCOD9289695 Si02
#       8
#     8   4   8   8   8   8   8   8
#     4  10  22  40  67 101 137 184 221 287 350 410
#     4  12  22  50  64 100 142 184 234 286 340 414
#     4  10  22  43  71  96 139 183 231 285 344 421
#     4  10  24  44  72 104 134 182 238 288 352 414
#     4   9  21  41  67 101 137 175 226 278 345 418
#     4  11  23  41  68 100 142 176 228 283 356 411
#     4  11  26  44  69 101 140 179 236 294 337 430
#     4  11  23  45  71  95 133 181 230 289 351 410
#
# _framework density 23.557233
#
# number of rings (size 3 to 8) (size 9 to 14) (size 15 to 20)
#    0.000    1.600    2.667    0.800    9.333    2.667 
#    2.400    2.667    0.000    0.000    0.000    0.000 
#    0.000    0.000    0.000    0.000    0.000    0.000 
#
# Total GULP energy -167231.397716 kJ/mol
# GULP energy per Si atom -5574.379924 kJ/mol
# Density = 2.350362 g / cm^3
# Si number density = 23.557233 Si / 1000 Ang^3
#
#
#
# Elastic Constant Matrix: (Units=GPa)
#
#
# Indices 1 2 3 4 5 6 
#
# 1 104.1889 23.8591 15.7505 0.0000 -8.5791 0.0000
# 2 23.8591 79.1813 27.0297 0.0000 4.6856 0.0000
# 3 15.7505 27.0297 140.0985 0.0000 4.9847 0.0000
# 4 0.0000 0.0000 0.0000 28.2218 0.0000 -15.3486
# 5 -8.5791 4.6856 4.9847 0.0000 24.0023 0.0000
# 6 0.0000 0.0000 0.0000 -15.3486 0.0000 43.9387
#
#
#
# Elastic Compliance Matrix: (Units=1/GPa)
#
#
# Indices 1 2 3 4 5 6 
#
# 1 0.010850 -0.003289 -0.000752 0.000000 0.004676 0.000000
# 2 -0.003289 0.014624 -0.002325 0.000000 -0.003548 0.000000
# 3 -0.000752 -0.002325 0.007721 0.000000 -0.001418 0.000000
# 4 0.000000 0.000000 0.000000 0.043744 0.000000 0.015281
# 5 0.004676 -0.003548 -0.001418 0.000000 0.044321 0.000000
# 6 0.000000 0.000000 0.000000 0.015281 0.000000 0.028097
#
#
# Mechanical properties :
#
#
# Convention : Reuss Voigt Hill
#
# Bulk Modulus (GPa) = 48.86961 50.74968 49.80964
# Shear Modulus (GPa) = 29.60134 36.35454 32.97794
#
# Velocity S-wave (km/s) = 3.54866 3.93268 3.74559
# Velocity P-wave (km/s) = 6.13031 6.49701 6.31632
#
# Compressibility (1/GPa) = 0.02046262
#
# Stress axis : x y z
#
# Youngs Moduli (GPa) = 92.16675 68.37975 129.50956
#
# Poissons Ratio (x) = 0.22494 0.09733
# Poissons Ratio (y) = 0.30318 0.30117
# Poissons Ratio (z) = 0.06926 0.15901
#
# Static dielectric constant tensor:
#      x y z
#    x 2.041020 0.000000 -0.055540 
#    y 0.000000 1.913580 0.000000 
#    z -0.055540 0.000000 1.928590 
# 
# From -- ./inp_files/171917.got.cif
#   From: 2010.05.17/outbox.cif.g08.bks.cpg/sg15_86_cif.got.tgz:171917.got - 2010.06.03 18:47:42.
