data_PCOD9289815
_publ_section_title
;
Structure prediction by ZEFSAII (Michael W. Deem and Ramdas Pophale) SiO2 
 PCOD9289815
Probable space group: C 2/C
;
_chemical_formula_sum "Si O2"
_cell_formula_units_Z 48
_cell_length_a 15.075011
_cell_length_b 15.609247
_cell_length_c 19.179379
_cell_angle_alpha 90.000000
_cell_angle_beta 151.965042
_cell_angle_gamma 90.000000
_cell_volume 2121.198961
_symmetry_space_group_name_H-M "C 2/C"
_symmetry_group_IT_number 15
_symmetry_cell_setting 'monoclinic'
loop_
_space_group_symop_operation_xyz
x,y,z
-x,y,1/2-z
-x,-y,-z
x,-y,1/2+z
1/2+x,1/2+y,z
1/2-x,1/2+y,1/2-z
1/2-x,1/2-y,-z
1/2+x,1/2-y,1/2+z
loop_
_atom_site_type_symbol
_atom_site_label
_atom_site_fract_x
_atom_site_fract_y
_atom_site_fract_z
Si Si1 0.763221 0.216235 0.767990
Si Si2 0.655621 0.775124 0.044545
Si Si3 0.741592 0.917898 0.712727
Si Si4 0.988316 0.429397 0.093957
Si Si5 0.350603 0.133007 0.097121
Si Si6 0.106559 0.986322 0.897466
O O1 0.747881 0.186406 0.676881
O O2 0.728580 0.318614 0.745203
O O3 0.612465 0.154202 0.699522
O O4 0.978469 0.215999 0.942547
O O5 0.805150 0.717904 0.108500
O O6 0.591597 0.842835 0.941367
O O7 0.616983 0.915690 0.554237
O O8 0.954409 0.948184 0.844222
O O9 0.632486 0.989982 0.683564
O O10 0.813434 0.445284 0.025406
O O11 0.500000 0.085896 0.250000
O O12 0.160366 0.080677 0.958621
O O13 0.000000 0.988310 0.750000
#
# Coordination Sequence:
#
# PCOD9289815 Si02
#       6
#     8   8   8   8   8   8
#     4  12  22  42  66  94 126 172 223 267 321 391
#     4  11  24  37  63  94 127 167 211 272 336 395
#     4  10  22  42  66  97 130 171 222 268 327 391
#     4  10  22  40  68  94 130 176 214 271 329 387
#     4  11  23  39  59  94 134 164 209 275 337 387
#     4  10  23  41  65  92 127 177 224 261 318 394
#
# _framework density 22.628712
#
# number of rings (size 3 to 8) (size 9 to 14) (size 15 to 20)
#    0.000    1.333    3.333    2.000    7.000    0.667 
#    3.000    1.667    0.000    0.000    0.000    0.000 
#    0.000    0.000    0.000    0.000    0.000    0.000 
#
# Total GULP energy -133883.147381 kJ/mol
# GULP energy per Si atom -5578.464474 kJ/mol
# Density = 2.257721 g / cm^3
# Si number density = 22.628712 Si / 1000 Ang^3
#
#
#
# Elastic Constant Matrix: (Units=GPa)
#
#
# Indices 1 2 3 4 5 6 
#
# 1 46.9370 33.9295 41.7776 0.0035 20.7948 0.0001
# 2 33.9295 113.7964 56.1547 0.0069 37.4045 0.0064
# 3 41.7776 56.1547 120.6126 0.0003 44.9188 0.0055
# 4 0.0035 0.0069 0.0003 50.4078 0.0017 13.1556
# 5 20.7948 37.4045 44.9188 0.0017 34.5787 0.0001
# 6 0.0001 0.0064 0.0055 13.1556 0.0001 18.0660
#
#
#
# Elastic Compliance Matrix: (Units=1/GPa)
#
#
# Indices 1 2 3 4 5 6 
#
# 1 0.033731 -0.004491 -0.007453 -0.000003 -0.005745 0.000006
# 2 -0.004491 0.014407 -0.000686 0.000000 -0.011993 -0.000005
# 3 -0.007453 -0.000686 0.017912 0.000003 -0.018044 -0.000007
# 4 -0.000003 0.000000 0.000003 0.024493 -0.000003 -0.017836
# 5 -0.005745 -0.011993 -0.018044 -0.000003 0.068788 0.000012
# 6 0.000006 -0.000005 -0.000007 -0.017836 0.000012 0.068340
#
#
# Mechanical properties :
#
#
# Convention : Reuss Voigt Hill
#
# Bulk Modulus (GPa) = 24.51547 60.56330 42.53938
# Shear Modulus (GPa) = 18.75984 30.57612 24.66798
#
# Velocity S-wave (km/s) = 2.88241 3.67987 3.30528
# Velocity P-wave (km/s) = 4.68348 6.69905 5.77980
#
# Compressibility (1/GPa) = 0.04079057
#
# Stress axis : x y z
#
# Youngs Moduli (GPa) = 29.64665 69.41067 55.82884
#
# Poissons Ratio (x) = 0.31171 0.41610
# Poissons Ratio (y) = 0.13314 0.03828
# Poissons Ratio (z) = 0.22096 0.04759
#
# Static dielectric constant tensor:
#      x y z
#    x 1.935550 0.000000 0.022670 
#    y 0.000000 1.878030 -0.000010 
#    z 0.022670 -0.000010 1.843490 
# 
# From -- ./inp_files/277881.got.cif
#   From: 2010.05.17/outbox.cif.g08.bks.cpg/sg15_139_cif.got.tgz:277881.got - 2010.06.03 18:47:42.
