data_PCOD9289383
_publ_section_title
;
Structure prediction by ZEFSAII (Michael W. Deem and Ramdas Pophale) SiO2 
 PCOD9289383
Probable space group: C 2/C
;
_chemical_formula_sum "Si O2"
_cell_formula_units_Z 48
_cell_length_a 28.478554
_cell_length_b 15.670084
_cell_length_c 12.999064
_cell_angle_alpha 90.000000
_cell_angle_beta 20.436342
_cell_angle_gamma 90.000000
_cell_volume 2025.507659
_symmetry_space_group_name_H-M "C 2/C"
_symmetry_group_IT_number 15
_symmetry_cell_setting 'monoclinic'
loop_
_space_group_symop_operation_xyz
x,y,z
-x,y,1/2-z
-x,-y,-z
x,-y,1/2+z
1/2+x,1/2+y,z
1/2-x,1/2+y,1/2-z
1/2-x,1/2-y,-z
1/2+x,1/2-y,1/2+z
loop_
_atom_site_type_symbol
_atom_site_label
_atom_site_fract_x
_atom_site_fract_y
_atom_site_fract_z
Si Si1 0.196469 0.109492 0.566764
Si Si2 0.115205 0.252493 0.585443
Si Si3 0.384641 0.457061 0.900742
Si Si4 0.674314 0.935087 0.503037
Si Si5 0.493912 0.098438 0.638045
Si Si6 0.385706 0.269632 0.897252
O O1 0.142878 0.197512 0.630148
O O2 0.204520 0.096305 0.671737
O O3 0.116818 0.033366 0.676264
O O4 0.354156 0.101741 0.212724
O O5 0.084018 0.350784 0.676472
O O6 0.000000 0.214510 0.750000
O O7 0.248630 0.254527 0.241302
O O8 0.244092 0.459949 0.252864
O O9 0.500000 0.467293 0.750000
O O10 0.386326 0.363116 0.846124
O O11 0.592644 0.015513 0.712884
O O12 0.500000 0.096364 0.750000
O O13 0.419908 0.186774 0.760319
O O14 0.500000 0.275199 0.750000
#
# Coordination Sequence:
#
# PCOD9289383 Si02
#       6
#     8   8   8   8   8   8
#     4  12  23  40  66  94 126 170 213 263 320 374
#     4  11  22  38  64  96 126 160 213 267 319 369
#     4  10  22  40  64  90 127 167 209 263 325 376
#     4  11  24  39  64  97 127 164 217 267 308 381
#     4  11  19  40  66  87 123 171 217 249 314 384
#     4   9  18  38  65  84 118 171 207 245 316 381
#
# _framework density 23.697762999999998
#
# number of rings (size 3 to 8) (size 9 to 14) (size 15 to 20)
#    0.000    1.333    5.000    2.000    2.333    0.667 
#    0.000    0.833    0.000    0.000    0.000    0.000 
#    0.000    0.000    0.000    0.000    0.000    0.000 
#
# Total GULP energy -134306.602075 kJ/mol
# GULP energy per Si atom -5596.108420 kJ/mol
# Density = 2.364383 g / cm^3
# Si number density = 23.697763 Si / 1000 Ang^3
#
#
#
# Elastic Constant Matrix: (Units=GPa)
#
#
# Indices 1 2 3 4 5 6 
#
# 1 59.4661 10.2789 -8.0507 0.0000 -10.7146 0.0000
# 2 10.2789 165.4161 18.9871 0.0000 -11.2819 0.0000
# 3 -8.0507 18.9871 81.4286 -0.0001 -1.3845 0.0000
# 4 0.0000 0.0000 -0.0001 14.5995 -0.0001 -6.5023
# 5 -10.7146 -11.2819 -1.3845 -0.0001 29.7123 0.0000
# 6 0.0000 0.0000 0.0000 -6.5023 0.0000 20.4815
#
#
#
# Elastic Compliance Matrix: (Units=1/GPa)
#
#
# Indices 1 2 3 4 5 6 
#
# 1 0.018423 -0.000957 0.002153 0.000000 0.006381 0.000000
# 2 -0.000957 0.006421 -0.001558 0.000000 0.002021 0.000000
# 3 0.002153 -0.001558 0.012870 0.000000 0.000785 0.000000
# 4 0.000000 0.000000 0.000000 0.079775 0.000000 0.025327
# 5 0.006381 0.002021 0.000785 0.000000 0.036761 0.000000
# 6 0.000000 0.000000 0.000000 0.025327 0.000000 0.056865
#
#
# Mechanical properties :
#
#
# Convention : Reuss Voigt Hill
#
# Bulk Modulus (GPa) = 27.03306 38.74904 32.89105
# Shear Modulus (GPa) = 22.30464 31.96504 27.13484
#
# Velocity S-wave (km/s) = 3.07125 3.67667 3.38751
# Velocity P-wave (km/s) = 4.89989 5.86607 5.40461
#
# Compressibility (1/GPa) = 0.03699174
#
# Stress axis : x y z
#
# Youngs Moduli (GPa) = 54.28053 155.72910 77.69953
#
# Poissons Ratio (x) = 0.14899 -0.16729
# Poissons Ratio (y) = 0.05193 0.12102
# Poissons Ratio (z) = -0.11687 0.24256
#
# Static dielectric constant tensor:
#      x y z
#    x 1.878120 0.000000 0.013310 
#    y 0.000000 1.935670 0.000000 
#    z 0.013310 0.000000 1.885570 
# 
# From -- ./inp_files/182430.got.cif
#   From: 2010.05.17/outbox.cif.g08.bks.cpg/sg15_92_cif.got.tgz:182430.got - 2010.06.03 18:47:42.
