data_PCOD9289412
_publ_section_title
;
Structure prediction by ZEFSAII (Michael W. Deem and Ramdas Pophale) SiO2 
 PCOD9289412
Probable space group: C 2/C
;
_chemical_formula_sum "Si O2"
_cell_formula_units_Z 32
_cell_length_a 18.772209
_cell_length_b 7.128691
_cell_length_c 9.309071
_cell_angle_alpha 90.000000
_cell_angle_beta 70.133271
_cell_angle_gamma 90.000000
_cell_volume 1171.611631
_symmetry_space_group_name_H-M "C 2/C"
_symmetry_group_IT_number 15
_symmetry_cell_setting 'monoclinic'
loop_
_space_group_symop_operation_xyz
x,y,z
-x,y,1/2-z
-x,-y,-z
x,-y,1/2+z
1/2+x,1/2+y,z
1/2-x,1/2+y,1/2-z
1/2-x,1/2-y,-z
1/2+x,1/2-y,1/2+z
loop_
_atom_site_type_symbol
_atom_site_label
_atom_site_fract_x
_atom_site_fract_y
_atom_site_fract_z
Si Si1 0.426074 0.481293 0.245213
Si Si2 0.672322 0.008311 0.079651
Si Si3 0.177523 0.878427 0.429080
Si Si4 0.069279 0.635645 0.909285
O O1 0.500000 0.374109 0.250000
O O2 0.382540 0.563208 0.410183
O O3 0.453787 0.657142 0.127756
O O4 0.363792 0.376608 0.194706
O O5 0.694937 0.835474 0.958171
O O6 0.612146 0.947983 0.241251
O O7 0.752282 0.022712 0.107886
O O8 0.629236 0.145867 0.999906
O O9 0.000000 0.500000 0.000000
#
# Coordination Sequence:
#
# PCOD9289412 Si02
#       4
#     8   8   8   8
#     4  11  23  40  61  90 127 165 209 256 307 372
#     4  10  22  40  64  93 126 163 206 259 315 375
#     4  10  22  41  64  93 126 161 207 260 314 375
#     4  11  22  39  61  90 126 165 210 257 307 369
#
# _framework density 27.312805000000001
#
# number of rings (size 3 to 8) (size 9 to 14) (size 15 to 20)
#    0.000    1.500    0.000    6.000    0.000    3.000 
#    0.000    3.750    0.000    0.000    0.000    0.000 
#    0.000    0.000    0.000    0.000    0.000    0.000 
#
# Total GULP energy -89715.028277 kJ/mol
# GULP energy per Si atom -5607.189267 kJ/mol
# Density = 2.725064 g / cm^3
# Si number density = 27.312805 Si / 1000 Ang^3
#
#
#
# Elastic Constant Matrix: (Units=GPa)
#
#
# Indices 1 2 3 4 5 6 
#
# 1 193.7354 35.1291 41.0073 0.0000 17.3854 0.0000
# 2 35.1291 68.6911 -0.7819 0.0000 -3.0206 0.0000
# 3 41.0073 -0.7819 120.0486 0.0000 15.5774 0.0000
# 4 0.0000 0.0000 0.0000 26.5022 0.0000 -1.2903
# 5 17.3854 -3.0206 15.5774 0.0000 54.7574 0.0000
# 6 0.0000 0.0000 0.0000 -1.2903 0.0000 43.8713
#
#
#
# Elastic Compliance Matrix: (Units=1/GPa)
#
#
# Indices 1 2 3 4 5 6 
#
# 1 0.006330 -0.003331 -0.001972 0.000000 -0.001632 0.000000
# 2 -0.003331 0.016347 0.001028 0.000000 0.001667 0.000000
# 3 -0.001972 0.001028 0.009264 0.000000 -0.001952 0.000000
# 4 0.000000 0.000000 0.000000 0.037787 0.000000 0.001111
# 5 -0.001632 0.001667 -0.001952 0.000000 0.019428 0.000000
# 6 0.000000 0.000000 0.000000 0.001111 0.000000 0.022827
#
#
# Mechanical properties :
#
#
# Convention : Reuss Voigt Hill
#
# Bulk Modulus (GPa) = 42.75429 59.24268 50.99848
# Shear Modulus (GPa) = 38.96263 45.50089 42.23176
#
# Velocity S-wave (km/s) = 3.78105 4.08599 3.93647
# Velocity P-wave (km/s) = 5.89485 6.63310 6.27484
#
# Compressibility (1/GPa) = 0.02338947
#
# Stress axis : x y z
#
# Youngs Moduli (GPa) = 157.98747 61.17503 107.94911
#
# Poissons Ratio (x) = 0.20379 0.21288
# Poissons Ratio (y) = 0.52629 -0.11098
# Poissons Ratio (z) = 0.31155 -0.06289
#
# Static dielectric constant tensor:
#      x y z
#    x 2.179560 0.000000 0.070700 
#    y 0.000000 2.243420 0.000000 
#    z 0.070700 0.000000 2.055520 
# 
# From -- ./inp_files/53406.got.cif
#   From: 2010.05.17/outbox.cif.g08.bks.cpg/sg15_27_cif.got.tgz:53406.got - 2010.06.03 18:47:42.
