data_PCOD9289731
_publ_section_title
;
Structure prediction by ZEFSAII (Michael W. Deem and Ramdas Pophale) SiO2 
 PCOD9289731
Probable space group: C 2/C
;
_chemical_formula_sum "Si O2"
_cell_formula_units_Z 56
_cell_length_a 9.162491
_cell_length_b 16.812292
_cell_length_c 24.373720
_cell_angle_alpha 90.000000
_cell_angle_beta 49.686686
_cell_angle_gamma 90.000000
_cell_volume 2862.941081
_symmetry_space_group_name_H-M "C 2/C"
_symmetry_group_IT_number 15
_symmetry_cell_setting 'monoclinic'
loop_
_space_group_symop_operation_xyz
x,y,z
-x,y,1/2-z
-x,-y,-z
x,-y,1/2+z
1/2+x,1/2+y,z
1/2-x,1/2+y,1/2-z
1/2-x,1/2-y,-z
1/2+x,1/2-y,1/2+z
loop_
_atom_site_type_symbol
_atom_site_label
_atom_site_fract_x
_atom_site_fract_y
_atom_site_fract_z
Si Si1 0.725752 0.432629 0.946892
Si Si2 0.447180 0.202693 0.446037
Si Si3 0.456024 0.531139 0.418657
Si Si4 0.358378 0.832685 0.489248
Si Si5 0.875275 0.934716 0.224912
Si Si6 0.209140 0.303031 0.188691
Si Si7 0.966384 0.418035 0.358540
O O1 0.885643 0.369094 0.921917
O O2 0.604063 0.420023 0.921494
O O3 0.823806 0.515787 0.912749
O O4 0.598047 0.452539 0.031688
O O5 0.250000 0.250000 0.500000
O O6 0.503480 0.178277 0.493349
O O7 0.631147 0.249028 0.378245
O O8 0.282976 0.594843 0.457642
O O9 0.533610 0.494558 0.342599
O O10 0.250000 0.750000 0.500000
O O11 0.479287 0.858124 0.406387
O O12 0.819226 0.848939 0.211201
O O13 0.662287 0.960085 0.294368
O O14 0.000000 0.928496 0.250000
O O15 0.134927 0.372389 0.166363
O O16 0.000000 0.261511 0.250000
#
# Coordination Sequence:
#
# PCOD9289731 Si02
#       7
#     8   8   8   8   8   8   8
#     4  10  22  40  67  96 127 166 222 283 329 392
#     4  12  25  39  68 100 131 169 229 284 334 405
#     4  10  22  42  66  93 133 174 223 276 341 401
#     4  11  23  41  66  99 134 175 219 282 345 403
#     4  11  24  40  69  96 128 176 232 276 331 415
#     4  10  22  46  66  91 137 186 216 270 353 422
#     4  10  22  42  68  91 132 178 220 271 343 404
#
# _framework density 19.560303999999999
#
# number of rings (size 3 to 8) (size 9 to 14) (size 15 to 20)
#    0.000    1.429    2.857    1.714    8.000    1.143 
#    2.571    0.000    0.000    0.000    0.000    0.000 
#    0.000    0.000    0.000    0.000    0.000    0.000 
#
# Total GULP energy -156003.176066 kJ/mol
# GULP energy per Si atom -5571.542002 kJ/mol
# Density = 1.951578 g / cm^3
# Si number density = 19.560304 Si / 1000 Ang^3
#
#
#
# Elastic Constant Matrix: (Units=GPa)
#
#
# Indices 1 2 3 4 5 6 
#
# 1 171.3552 41.5608 55.9509 -0.0003 13.3627 0.0005
# 2 41.5608 39.2553 26.2182 -0.0002 -6.0539 0.0002
# 3 55.9509 26.2182 126.8853 -0.0004 -2.1302 0.0004
# 4 -0.0003 -0.0002 -0.0004 30.2622 0.0003 -0.8938
# 5 13.3627 -6.0539 -2.1302 0.0003 33.7414 -0.0004
# 6 0.0005 0.0002 0.0004 -0.8938 -0.0004 24.4531
#
#
#
# Elastic Compliance Matrix: (Units=1/GPa)
#
#
# Indices 1 2 3 4 5 6 
#
# 1 0.009196 -0.009050 -0.002276 0.000000 -0.005409 0.000000
# 2 -0.009050 0.039299 -0.003955 0.000000 0.010386 0.000000
# 3 -0.002276 -0.003955 0.009715 0.000000 0.000805 0.000000
# 4 0.000000 0.000000 0.000000 0.033080 0.000000 0.001209
# 5 -0.005409 0.010386 0.000805 0.000000 0.033694 0.000001
# 6 0.000000 0.000000 0.000000 0.001209 0.000001 0.040939
#
#
# Mechanical properties :
#
#
# Convention : Reuss Voigt Hill
#
# Bulk Modulus (GPa) = 36.16874 64.99507 50.58190
# Shear Modulus (GPa) = 24.30703 31.94238 28.12470
#
# Velocity S-wave (km/s) = 3.52898 4.04545 3.79601
# Velocity P-wave (km/s) = 5.92756 7.42436 6.71778
#
# Compressibility (1/GPa) = 0.02764818
#
# Stress axis : x y z
#
# Youngs Moduli (GPa) = 108.74568 25.44570 102.92904
#
# Poissons Ratio (x) = 0.23029 0.23424
# Poissons Ratio (y) = 0.98416 0.40712
# Poissons Ratio (z) = 0.24747 0.10065
#
# Static dielectric constant tensor:
#      x y z
#    x 1.699430 0.000000 0.012200 
#    y 0.000000 1.665800 0.000000 
#    z 0.012200 0.000000 1.780800 
# 
# From -- ./inp_files/265453.got.cif
#   From: 2010.05.17/outbox.cif.g08.bks.cpg/sg15_133_cif.got.tgz:265453.got - 2010.06.03 18:47:42.
