data_PCOD9289446
_publ_section_title
;
Structure prediction by ZEFSAII (Michael W. Deem and Ramdas Pophale) SiO2 
 PCOD9289446
Probable space group: C 2/C
;
_chemical_formula_sum "Si O2"
_cell_formula_units_Z 64
_cell_length_a 16.605916
_cell_length_b 23.476206
_cell_length_c 13.787897
_cell_angle_alpha 90.000000
_cell_angle_beta 32.703321
_cell_angle_gamma 90.000000
_cell_volume 2904.122833
_symmetry_space_group_name_H-M "C 2/C"
_symmetry_group_IT_number 15
_symmetry_cell_setting 'monoclinic'
loop_
_space_group_symop_operation_xyz
x,y,z
-x,y,1/2-z
-x,-y,-z
x,-y,1/2+z
1/2+x,1/2+y,z
1/2-x,1/2+y,1/2-z
1/2-x,1/2-y,-z
1/2+x,1/2-y,1/2+z
loop_
_atom_site_type_symbol
_atom_site_label
_atom_site_fract_x
_atom_site_fract_y
_atom_site_fract_z
Si Si1 0.817491 0.442413 0.824189
Si Si2 0.881619 0.873008 0.797621
Si Si3 0.365059 0.383466 0.324278
Si Si4 0.045954 0.935133 0.964553
Si Si5 0.400911 0.186158 0.661355
Si Si6 0.189028 0.268700 0.956984
Si Si7 0.049471 0.338337 0.599303
Si Si8 0.860306 0.573239 0.820520
O O1 0.714007 0.430634 0.835990
O O2 0.860672 0.508652 0.782092
O O3 0.955443 0.398173 0.689775
O O4 0.711719 0.429420 0.024844
O O5 0.963977 0.906373 0.629575
O O6 0.775076 0.827944 0.854055
O O7 0.000000 0.844325 0.750000
O O8 0.782474 0.913256 0.967377
O O9 0.500000 0.356572 0.250000
O O10 0.225738 0.346443 0.432926
O O11 0.438602 0.408672 0.153897
O O12 0.000000 0.000000 0.000000
O O13 0.247163 0.220341 0.825706
O O14 0.517368 0.216675 0.615688
O O15 0.471585 0.189851 0.483348
O O16 0.374006 0.121447 0.723724
O O17 0.250000 0.250000 0.000000
O O18 0.000000 0.309523 0.750000
O O19 0.000000 0.580755 0.750000
#
# Coordination Sequence:
#
# PCOD9289446 Si02
#       8
#     8   8   8   8   8   8   8   8
#     4  10  22  40  64  95 137 180 222 275 333 395
#     4  12  25  40  64  96 135 178 225 268 329 393
#     4   9  20  40  63  89 132 181 216 266 336 393
#     4  11  23  38  58  94 137 178 224 269 323 403
#     4  12  26  44  72  95 132 176 225 276 348 396
#     4  12  24  47  66  98 132 174 220 285 338 398
#     4  10  23  45  69 101 133 176 225 280 335 402
#     4  12  23  41  63  99 133 176 223 271 329 407
#
# _framework density 22.037635999999999
#
# number of rings (size 3 to 8) (size 9 to 14) (size 15 to 20)
#    0.000    1.000    2.500    4.500    3.500    1.500 
#    0.000    0.625    0.000    2.250    0.000    0.000 
#    0.000    0.000    0.000    0.000    0.000    0.000 
#
# Total GULP energy -178893.918556 kJ/mol
# GULP energy per Si atom -5590.434955 kJ/mol
# Density = 2.198748 g / cm^3
# Si number density = 22.037636 Si / 1000 Ang^3
#
#
#
# Elastic Constant Matrix: (Units=GPa)
#
#
# Indices 1 2 3 4 5 6 
#
# 1 111.7504 6.2627 43.5483 0.0043 6.9232 -0.0007
# 2 6.2627 39.3929 13.3782 0.0164 11.1313 -0.0214
# 3 43.5483 13.3782 94.1891 0.0176 6.4961 -0.0193
# 4 0.0043 0.0164 0.0176 24.4400 -0.0107 -3.6605
# 5 6.9232 11.1313 6.4961 -0.0107 51.3971 0.0044
# 6 -0.0007 -0.0214 -0.0193 -3.6605 0.0044 15.8272
#
#
#
# Elastic Compliance Matrix: (Units=1/GPa)
#
#
# Indices 1 2 3 4 5 6 
#
# 1 0.010953 0.000219 -0.005034 0.000000 -0.000886 -0.000005
# 2 0.000219 0.028215 -0.003718 -0.000014 -0.005670 0.000032
# 3 -0.005034 -0.003718 0.013488 -0.000005 -0.000222 0.000010
# 4 0.000000 -0.000014 -0.000005 0.042385 0.000012 0.009803
# 5 -0.000886 -0.005670 -0.000222 0.000012 0.020832 -0.000011
# 6 -0.000005 0.000032 0.000010 0.009803 -0.000011 0.065450
#
#
# Mechanical properties :
#
#
# Convention : Reuss Voigt Hill
#
# Bulk Modulus (GPa) = 28.09762 41.30121 34.69942
# Shear Modulus (GPa) = 23.78108 30.47575 27.12842
#
# Velocity S-wave (km/s) = 3.28855 3.72276 3.51237
# Velocity P-wave (km/s) = 5.21507 6.10414 5.67703
#
# Compressibility (1/GPa) = 0.03559020
#
# Stress axis : x y z
#
# Youngs Moduli (GPa) = 91.30025 35.44174 74.14156
#
# Poissons Ratio (x) = -0.00775 0.37323
# Poissons Ratio (y) = -0.01997 0.27563
# Poissons Ratio (z) = 0.45960 0.13176
#
# Static dielectric constant tensor:
#      x y z
#    x 1.800560 0.000000 -0.003740 
#    y 0.000000 1.797650 0.000000 
#    z -0.003740 0.000000 1.727020 
# 
# From -- ./inp_files/164207.got.cif
#   From: 2010.05.17/outbox.cif.g08.bks.cpg/sg15_83_cif.got.tgz:164207.got - 2010.06.03 18:47:42.
