data_PCOD9289646
_publ_section_title
;
Structure prediction by ZEFSAII (Michael W. Deem and Ramdas Pophale) SiO2 
 PCOD9289646
Probable space group: C 2/C
;
_chemical_formula_sum "Si O2"
_cell_formula_units_Z 48
_cell_length_a 5.370237
_cell_length_b 28.517570
_cell_length_c 15.713433
_cell_angle_alpha 90.000000
_cell_angle_beta 115.723394
_cell_angle_gamma 90.000000
_cell_volume 2167.971541
_symmetry_space_group_name_H-M "C 2/C"
_symmetry_group_IT_number 15
_symmetry_cell_setting 'monoclinic'
loop_
_space_group_symop_operation_xyz
x,y,z
-x,y,1/2-z
-x,-y,-z
x,-y,1/2+z
1/2+x,1/2+y,z
1/2-x,1/2+y,1/2-z
1/2-x,1/2-y,-z
1/2+x,1/2-y,1/2+z
loop_
_atom_site_type_symbol
_atom_site_label
_atom_site_fract_x
_atom_site_fract_y
_atom_site_fract_z
Si Si1 0.178708 0.672514 0.690449
Si Si2 0.978785 0.388125 0.490229
Si Si3 0.992621 0.067005 0.346250
Si Si4 0.833661 0.351378 0.641941
Si Si5 0.571470 0.259493 0.559679
Si Si6 0.816658 0.018009 0.551507
O O1 0.500000 0.658367 0.750000
O O2 0.031610 0.638430 0.600179
O O3 0.180298 0.723707 0.647268
O O4 0.000000 0.672701 0.750000
O O5 0.956716 0.352542 0.565928
O O6 0.727672 0.426287 0.450916
O O7 0.257716 0.414811 0.557682
O O8 0.000000 0.084002 0.250000
O O9 0.737795 0.093950 0.350595
O O10 0.025992 0.010982 0.351600
O O11 0.596784 0.312961 0.595806
O O12 0.000000 0.336210 0.750000
O O13 0.750000 0.250000 0.500000
O O14 0.250000 0.250000 0.500000
O O15 0.500000 0.000000 0.500000
O O16 0.000000 0.000000 0.500000
#
# Coordination Sequence:
#
# PCOD9289646 Si02
#       6
#     8   8   8   8   8   8
#     4  12  28  48  72 102 147 191 242 297 353 431
#     4  11  24  45  70 103 142 193 240 298 362 434
#     4  11  23  41  68 106 145 184 234 303 362 430
#     4  12  24  41  74 107 142 184 241 299 371 434
#     4  12  26  47  75 103 141 193 236 298 365 427
#     4  10  22  40  66  95 136 185 231 285 353 420
#
# _framework density 22.140514
#
# number of rings (size 3 to 8) (size 9 to 14) (size 15 to 20)
#    0.000    0.667    5.000    2.500    2.333    1.333 
#    0.000    0.000    0.000    0.000    0.000    0.000 
#    0.000    0.000    0.000    0.000    0.000    0.000 
#
# Total GULP energy -133838.348128 kJ/mol
# GULP energy per Si atom -5576.597839 kJ/mol
# Density = 2.209012 g / cm^3
# Si number density = 22.140514 Si / 1000 Ang^3
#
#
#
# Elastic Constant Matrix: (Units=GPa)
#
#
# Indices 1 2 3 4 5 6 
#
# 1 123.7353 15.8799 61.6501 0.0000 -17.9887 0.0000
# 2 15.8799 74.9934 33.1870 0.0000 -6.8001 0.0000
# 3 61.6501 33.1870 148.6493 0.0000 -22.7521 0.0000
# 4 0.0000 0.0000 0.0000 42.8344 0.0000 5.3717
# 5 -17.9887 -6.8001 -22.7521 0.0000 48.0551 0.0000
# 6 0.0000 0.0000 0.0000 5.3717 0.0000 32.9150
#
#
#
# Elastic Compliance Matrix: (Units=1/GPa)
#
#
# Indices 1 2 3 4 5 6 
#
# 1 0.010365 -0.000274 -0.003935 0.000000 0.001978 0.000000
# 2 -0.000274 0.014818 -0.003115 0.000000 0.000519 0.000000
# 3 -0.003935 -0.003115 0.009446 0.000000 0.002559 0.000000
# 4 0.000000 0.000000 0.000000 0.023834 0.000000 -0.003890
# 5 0.001978 0.000519 0.002559 0.000000 0.022835 0.000000
# 6 0.000000 0.000000 0.000000 -0.003890 0.000000 0.031016
#
#
# Mechanical properties :
#
#
# Convention : Reuss Voigt Hill
#
# Bulk Modulus (GPa) = 50.04642 63.20134 56.62388
# Shear Modulus (GPa) = 37.41892 40.53830 38.97861
#
# Velocity S-wave (km/s) = 4.11550 4.28361 4.20040
# Velocity P-wave (km/s) = 6.72579 7.28514 7.01104
#
# Compressibility (1/GPa) = 0.01998145
#
# Stress axis : x y z
#
# Youngs Moduli (GPa) = 96.47853 67.48469 105.86264
#
# Poissons Ratio (x) = 0.01850 0.41654
# Poissons Ratio (y) = 0.02645 0.32977
# Poissons Ratio (z) = 0.37962 0.21022
#
# Static dielectric constant tensor:
#      x y z
#    x 1.821780 0.000000 0.028360 
#    y 0.000000 1.904630 0.000000 
#    z 0.028360 0.000000 1.801700 
# 
# From -- ./inp_files/130919.got.cif
#   From: 2010.05.17/outbox.cif.g08.bks.cpg/sg15_66_cif.got.tgz:130919.got - 2010.06.03 18:47:42.
