data_PCOD9289289
_publ_section_title
;
Structure prediction by ZEFSAII (Michael W. Deem and Ramdas Pophale) SiO2 
 PCOD9289289
Probable space group: C 2/C
;
_chemical_formula_sum "Si O2"
_cell_formula_units_Z 40
_cell_length_a 7.140940
_cell_length_b 27.282230
_cell_length_c 11.441902
_cell_angle_alpha 90.000000
_cell_angle_beta 138.758572
_cell_angle_gamma 90.000000
_cell_volume 1469.510275
_symmetry_space_group_name_H-M "C 2/C"
_symmetry_group_IT_number 15
_symmetry_cell_setting 'monoclinic'
loop_
_space_group_symop_operation_xyz
x,y,z
-x,y,1/2-z
-x,-y,-z
x,-y,1/2+z
1/2+x,1/2+y,z
1/2-x,1/2+y,1/2-z
1/2-x,1/2-y,-z
1/2+x,1/2-y,1/2+z
loop_
_atom_site_type_symbol
_atom_site_label
_atom_site_fract_x
_atom_site_fract_y
_atom_site_fract_z
Si Si1 0.660560 0.709730 0.204234
Si Si2 0.966189 0.417818 0.988564
Si Si3 0.802126 0.964868 0.326312
Si Si4 0.167009 0.307359 0.083324
Si Si5 0.575546 0.397353 0.601725
O O1 0.500000 0.699037 0.250000
O O2 0.568919 0.763182 0.121409
O O3 0.586645 0.661125 0.097935
O O4 0.998750 0.707236 0.386629
O O5 0.186052 0.459322 0.137995
O O6 0.080513 0.363105 0.065139
O O7 0.850008 0.418440 0.800456
O O8 0.682290 0.416060 0.936131
O O9 0.500000 0.965783 0.250000
O O10 0.989914 0.916288 0.434980
O O11 0.000000 0.000000 0.500000
O O12 0.500000 0.305179 0.250000
#
# Coordination Sequence:
#
# PCOD9289289 Si02
#       5
#     8   8   8   8   8
#     4  11  21  37  61  87 118 166 216 241 294 373
#     4   9  19  38  61  82 122 161 203 247 304 367
#     4  10  22  40  63  91 116 152 207 259 312 365
#     4  11  23  37  55  91 130 160 200 255 315 353
#     4   9  18  38  61  86 117 158 209 251 293 364
#
# _framework density 27.219954000000001
#
# number of rings (size 3 to 8) (size 9 to 14) (size 15 to 20)
#    0.000    2.000    4.000    1.200    2.800    1.600 
#    7.200    0.000    0.000    0.000    0.000    0.000 
#    0.000    0.000    0.000    0.000    0.000    0.000 
#
# Total GULP energy -111695.394265 kJ/mol
# GULP energy per Si atom -5584.769713 kJ/mol
# Density = 2.715800 g / cm^3
# Si number density = 27.219954 Si / 1000 Ang^3
#
#
#
# Elastic Constant Matrix: (Units=GPa)
#
#
# Indices 1 2 3 4 5 6 
#
# 1 56.2404 13.7085 39.4682 0.0000 3.7582 0.0000
# 2 13.7085 109.1714 96.5279 0.0000 -13.9153 0.0000
# 3 39.4682 96.5279 216.5281 0.0000 5.8187 0.0000
# 4 0.0000 0.0000 0.0000 55.6676 0.0000 3.0490
# 5 3.7582 -13.9153 5.8187 0.0000 47.0110 0.0000
# 6 0.0000 0.0000 0.0000 3.0490 0.0000 19.3464
#
#
#
# Elastic Compliance Matrix: (Units=1/GPa)
#
#
# Indices 1 2 3 4 5 6 
#
# 1 0.020514 0.000998 -0.004162 0.000000 -0.000829 0.000000
# 2 0.000998 0.016626 -0.007750 0.000000 0.005801 0.000000
# 3 -0.004162 -0.007750 0.008914 0.000000 -0.003065 0.000000
# 4 0.000000 0.000000 0.000000 0.018120 0.000000 -0.002856
# 5 -0.000829 0.005801 -0.003065 0.000000 0.023434 0.000000
# 6 0.000000 0.000000 0.000000 -0.002856 0.000000 0.052139
#
#
# Mechanical properties :
#
#
# Convention : Reuss Voigt Hill
#
# Bulk Modulus (GPa) = 41.27581 75.70545 58.49063
# Shear Modulus (GPa) = 29.47241 39.88734 34.67987
#
# Velocity S-wave (km/s) = 3.29409 3.83217 3.57327
# Velocity P-wave (km/s) = 5.44653 6.88865 6.20960
#
# Compressibility (1/GPa) = 0.02422727
#
# Stress axis : x y z
#
# Youngs Moduli (GPa) = 48.74799 60.14608 112.18097
#
# Poissons Ratio (x) = -0.06005 0.46689
# Poissons Ratio (y) = -0.04867 0.86938
# Poissons Ratio (z) = 0.20289 0.46612
#
# Static dielectric constant tensor:
#      x y z
#    x 2.199450 0.000000 -0.014940 
#    y 0.000000 2.241330 0.000000 
#    z -0.014940 0.000000 2.117000 
# 
# From -- ./inp_files/139946.got.cif
#   From: 2010.05.17/outbox.cif.g08.bks.cpg/sg15_70_cif.got.tgz:139946.got - 2010.06.03 18:47:42.
