data_PCOD9289528
_publ_section_title
;
Structure prediction by ZEFSAII (Michael W. Deem and Ramdas Pophale) SiO2 
 PCOD9289528
Probable space group: C 2/C
;
_chemical_formula_sum "Si O2"
_cell_formula_units_Z 52
_cell_length_a 14.967602
_cell_length_b 16.770577
_cell_length_c 9.575576
_cell_angle_alpha 90.000000
_cell_angle_beta 73.996758
_cell_angle_gamma 90.000000
_cell_volume 2310.466781
_symmetry_space_group_name_H-M "C 2/C"
_symmetry_group_IT_number 15
_symmetry_cell_setting 'monoclinic'
loop_
_space_group_symop_operation_xyz
x,y,z
-x,y,1/2-z
-x,-y,-z
x,-y,1/2+z
1/2+x,1/2+y,z
1/2-x,1/2+y,1/2-z
1/2-x,1/2-y,-z
1/2+x,1/2-y,1/2+z
loop_
_atom_site_type_symbol
_atom_site_label
_atom_site_fract_x
_atom_site_fract_y
_atom_site_fract_z
Si Si1 0.096459 0.960443 0.403945
Si Si2 0.280152 0.825671 0.583251
Si Si3 0.414549 0.062464 0.534626
Si Si4 0.910818 0.160133 0.349315
Si Si5 0.500000 0.355303 0.250000
Si Si6 0.474767 0.223529 0.037087
Si Si7 0.199586 0.524504 0.635677
O O1 0.115379 0.888496 0.502658
O O2 0.080106 0.916747 0.263071
O O3 0.195803 0.002739 0.369163
O O4 0.000000 0.000000 0.500000
O O5 0.250000 0.750000 0.500000
O O6 0.181228 0.837936 0.703245
O O7 0.371856 0.804836 0.631351
O O8 0.302950 0.901153 0.474154
O O9 0.457198 0.150107 0.505230
O O10 0.353983 0.049836 0.700680
O O11 0.500000 0.000000 0.500000
O O12 0.353956 0.043850 0.424334
O O13 0.950223 0.241961 0.395073
O O14 0.000000 0.116568 0.250000
O O15 0.514377 0.295077 0.114681
#
# Coordination Sequence:
#
# PCOD9289528 Si02
#       7
#     8   8   8   8   4   8   8
#     4  10  24  45  72  95 137 185 231 299 350 421
#     4   9  19  38  65  92 127 181 226 284 343 413
#     4  12  26  42  71 105 146 191 235 291 360 428
#     4   9  20  37  63  99 123 172 233 280 347 412
#     4  10  24  46  70 100 142 182 236 298 360 418
#     4  10  22  40  65  94 139 184 224 288 351 420
#     4  11  26  44  67 108 138 185 245 285 362 432
#
# _framework density 22.506274999999999
#
# number of rings (size 3 to 8) (size 9 to 14) (size 15 to 20)
#    0.000    1.846    1.538    1.385    9.692    1.231 
#    0.000    0.769    0.000    0.000    0.000    0.000 
#    0.000    0.000    0.000    0.000    0.000    0.000 
#
# Total GULP energy -144948.491993 kJ/mol
# GULP energy per Si atom -5574.942000 kJ/mol
# Density = 2.245505 g / cm^3
# Si number density = 22.506275 Si / 1000 Ang^3
#
#
#
# Elastic Constant Matrix: (Units=GPa)
#
#
# Indices 1 2 3 4 5 6 
#
# 1 180.5246 57.0940 57.1690 0.0000 -14.6972 0.0000
# 2 57.0940 106.7609 13.3202 0.0000 1.6311 0.0000
# 3 57.1690 13.3202 53.5426 0.0000 -11.2841 0.0000
# 4 0.0000 0.0000 0.0000 30.2124 0.0000 4.6043
# 5 -14.6972 1.6311 -11.2841 0.0000 26.0380 0.0000
# 6 0.0000 0.0000 0.0000 4.6043 0.0000 31.2052
#
#
#
# Elastic Compliance Matrix: (Units=1/GPa)
#
#
# Indices 1 2 3 4 5 6 
#
# 1 0.009915 -0.004190 -0.009144 0.000000 0.001896 0.000000
# 2 -0.004190 0.011516 0.001055 0.000000 -0.002629 0.000000
# 3 -0.009144 0.001055 0.029798 0.000000 0.007686 0.000000
# 4 0.000000 0.000000 0.000000 0.033860 0.000000 -0.004996
# 5 0.001896 -0.002629 0.007686 0.000000 0.042971 0.000000
# 6 0.000000 0.000000 0.000000 -0.004996 0.000000 0.032783
#
#
# Mechanical properties :
#
#
# Convention : Reuss Voigt Hill
#
# Bulk Modulus (GPa) = 37.49603 66.22161 51.85882
# Shear Modulus (GPa) = 25.73435 31.70744 28.72090
#
# Velocity S-wave (km/s) = 3.38513 3.75751 3.57617
# Velocity P-wave (km/s) = 5.65467 6.95073 6.33592
#
# Compressibility (1/GPa) = 0.02666949
#
# Stress axis : x y z
#
# Youngs Moduli (GPa) = 100.85786 86.83404 33.55957
#
# Poissons Ratio (x) = 0.36387 0.30688
# Poissons Ratio (y) = 0.42264 -0.03541
# Poissons Ratio (z) = 0.92228 -0.09162
#
# Static dielectric constant tensor:
#      x y z
#    x 1.947400 0.000000 -0.073020 
#    y 0.000000 1.910070 0.000000 
#    z -0.073020 0.000000 1.929410 
# 
# From -- ./inp_files/98208.got.cif
#   From: 2010.05.17/outbox.cif.g08.bks.cpg/sg15_50_cif.got.tgz:98208.got - 2010.06.03 18:47:42.
