data_PCOD9289726
_publ_section_title
;
Structure prediction by ZEFSAII (Michael W. Deem and Ramdas Pophale) SiO2 
 PCOD9289726
Probable space group: C 2/C
;
_chemical_formula_sum "Si O2"
_cell_formula_units_Z 56
_cell_length_a 25.136643
_cell_length_b 11.787580
_cell_length_c 8.972604
_cell_angle_alpha 90.000000
_cell_angle_beta 96.728252
_cell_angle_gamma 90.000000
_cell_volume 2640.274602
_symmetry_space_group_name_H-M "C 2/C"
_symmetry_group_IT_number 15
_symmetry_cell_setting 'monoclinic'
loop_
_space_group_symop_operation_xyz
x,y,z
-x,y,1/2-z
-x,-y,-z
x,-y,1/2+z
1/2+x,1/2+y,z
1/2-x,1/2+y,1/2-z
1/2-x,1/2-y,-z
1/2+x,1/2-y,1/2+z
loop_
_atom_site_type_symbol
_atom_site_label
_atom_site_fract_x
_atom_site_fract_y
_atom_site_fract_z
Si Si1 0.000000 0.547148 0.750000
Si Si2 0.348151 0.522678 0.839333
Si Si3 0.920215 0.928059 0.631715
Si Si4 0.701784 0.631200 0.949695
Si Si5 0.612084 0.052222 0.188386
Si Si6 0.830272 0.634117 0.997796
Si Si7 0.958567 0.283070 0.008250
Si Si8 0.000000 0.870397 0.250000
O O1 0.055245 0.479283 0.747073
O O2 0.994469 0.621148 0.597530
O O3 0.372836 0.430834 0.734963
O O4 0.321443 0.612572 0.722268
O O5 0.396294 0.563635 0.958374
O O6 0.306858 0.472556 0.941807
O O7 0.948762 0.808266 0.635589
O O8 0.955139 0.040273 0.676341
O O9 0.765751 0.636241 0.958270
O O10 0.663353 0.729898 0.003937
O O11 0.651484 0.093085 0.332256
O O12 0.594837 0.152553 0.068568
O O13 0.638908 0.946151 0.109355
O O14 0.983945 0.212904 0.879839
#
# Coordination Sequence:
#
# PCOD9289726 Si02
#       8
#     4   8   8   8   8   8   8   4
#     4  12  28  44  64 100 136 188 234 270 334 410
#     4  10  22  40  67  94 137 163 222 275 352 402
#     4  11  23  41  61 102 133 183 217 281 342 413
#     4  10  23  45  70 104 129 175 222 295 342 417
#     4  12  26  47  65 101 138 186 231 283 330 417
#     4  11  25  44  73  96 136 177 232 277 352 396
#     4  12  26  42  67  93 139 182 226 280 334 399
#     4  12  26  42  66 100 142 178 234 284 336 418
#
# _framework density 21.209917000000001
#
# number of rings (size 3 to 8) (size 9 to 14) (size 15 to 20)
#    0.000    0.857    2.857    3.429    8.000    0.000 
#    0.000    0.000    0.000    9.429    0.000    0.000 
#    0.000    0.000    0.000    0.000    0.000    0.000 
#
# Total GULP energy -156170.852424 kJ/mol
# GULP energy per Si atom -5577.530444 kJ/mol
# Density = 2.116164 g / cm^3
# Si number density = 21.209917 Si / 1000 Ang^3
#
#
#
# Elastic Constant Matrix: (Units=GPa)
#
#
# Indices 1 2 3 4 5 6 
#
# 1 52.0255 25.2951 37.4419 0.0000 7.9218 0.0000
# 2 25.2951 80.6830 26.0782 0.0000 6.3026 0.0000
# 3 37.4419 26.0782 114.2981 0.0000 29.1476 0.0000
# 4 0.0000 0.0000 0.0000 50.9126 0.0000 25.8021
# 5 7.9218 6.3026 29.1476 0.0000 27.8548 0.0000
# 6 0.0000 0.0000 0.0000 25.8021 0.0000 66.6970
#
#
#
# Elastic Compliance Matrix: (Units=1/GPa)
#
#
# Indices 1 2 3 4 5 6 
#
# 1 0.027865 -0.006236 -0.008244 0.000000 0.002113 0.000000
# 2 -0.006236 0.014778 -0.001266 0.000000 -0.000245 0.000000
# 3 -0.008244 -0.001266 0.015096 0.000000 -0.013165 0.000000
# 4 0.000000 0.000000 0.000000 0.024431 0.000000 -0.009451
# 5 0.002113 -0.000245 -0.013165 0.000000 0.049132 0.000000
# 6 0.000000 0.000000 0.000000 -0.009451 0.000000 0.018650
#
#
# Mechanical properties :
#
#
# Convention : Reuss Voigt Hill
#
# Bulk Modulus (GPa) = 38.10206 47.18187 42.64197
# Shear Modulus (GPa) = 26.28913 39.63896 32.96405
#
# Velocity S-wave (km/s) = 3.52444 4.32775 3.94659
# Velocity P-wave (km/s) = 5.87924 6.87503 6.39654
#
# Compressibility (1/GPa) = 0.02624530
#
# Stress axis : x y z
#
# Youngs Moduli (GPa) = 35.88754 67.66897 66.24326
#
# Poissons Ratio (x) = 0.42201 0.54610
# Poissons Ratio (y) = 0.22381 0.08388
# Poissons Ratio (z) = 0.29585 0.08569
#
# Static dielectric constant tensor:
#      x y z
#    x 1.773940 0.000000 0.022960 
#    y 0.000000 1.842550 0.000000 
#    z 0.022960 0.000000 1.768440 
# 
# From -- ./inp_files/65584.got.cif
#   From: 2010.05.17/outbox.cif.g08.bks.cpg/sg15_33_cif.got.tgz:65584.got - 2010.06.03 18:47:42.
