data_PCOD9289288
_publ_section_title
;
Structure prediction by ZEFSAII (Michael W. Deem and Ramdas Pophale) SiO2 
 PCOD9289288
Probable space group: C 2/C
;
_chemical_formula_sum "Si O2"
_cell_formula_units_Z 56
_cell_length_a 24.784069
_cell_length_b 8.194821
_cell_length_c 13.098967
_cell_angle_alpha 90.000000
_cell_angle_beta 70.628959
_cell_angle_gamma 90.000000
_cell_volume 2509.808534
_symmetry_space_group_name_H-M "C 2/C"
_symmetry_group_IT_number 15
_symmetry_cell_setting 'monoclinic'
loop_
_space_group_symop_operation_xyz
x,y,z
-x,y,1/2-z
-x,-y,-z
x,-y,1/2+z
1/2+x,1/2+y,z
1/2-x,1/2+y,1/2-z
1/2-x,1/2-y,-z
1/2+x,1/2-y,1/2+z
loop_
_atom_site_type_symbol
_atom_site_label
_atom_site_fract_x
_atom_site_fract_y
_atom_site_fract_z
Si Si1 0.151892 0.071779 0.895268
Si Si2 0.185764 0.774493 0.580657
Si Si3 0.500000 0.727649 0.250000
Si Si4 0.288518 0.391040 0.338807
Si Si5 0.500000 0.802833 0.750000
Si Si6 0.467941 0.455015 0.121480
Si Si7 0.093752 0.470605 0.136231
Si Si8 0.834386 0.281589 0.011089
O O1 0.201474 0.133299 0.787645
O O2 0.094948 0.100689 0.867218
O O3 0.152263 0.170505 0.999894
O O4 0.155716 0.881917 0.928655
O O5 0.250000 0.750000 0.500000
O O6 0.150696 0.618572 0.642127
O O7 0.189158 0.925836 0.654645
O O8 0.464669 0.609513 0.198383
O O9 0.544363 0.833738 0.155412
O O10 0.222598 0.367825 0.410722
O O11 0.321370 0.278711 0.402136
O O12 0.494669 0.683374 0.848227
O O13 0.442845 0.906960 0.770515
O O14 0.500000 0.500000 0.000000
O O15 0.115840 0.583577 0.029463
#
# Coordination Sequence:
#
# PCOD9289288 Si02
#       8
#     8   8   4   8   4   8   8   8
#     4  11  24  40  66  94 127 176 219 262 336 402
#     4  11  23  42  64  94 133 171 209 276 326 389
#     4  10  24  42  68  96 126 172 216 278 330 384
#     4  10  22  42  61  90 129 174 215 261 329 394
#     4  10  24  42  70  96 130 176 218 280 328 388
#     4  11  22  45  68  94 129 172 221 269 335 391
#     4  11  21  42  66  94 130 168 218 267 331 384
#     4  10  22  40  63  90 129 172 216 271 320 396
#
# _framework density 22.312460000000002
#
# number of rings (size 3 to 8) (size 9 to 14) (size 15 to 20)
#    0.000    1.429    1.429    3.429    2.000    4.571 
#    0.000   20.000    0.000    0.000    0.000    0.000 
#    0.000    0.000    0.000    0.000    0.000    0.000 
#
# Total GULP energy -156308.199189 kJ/mol
# GULP energy per Si atom -5582.435685 kJ/mol
# Density = 2.226168 g / cm^3
# Si number density = 22.312460 Si / 1000 Ang^3
#
#
#
# Elastic Constant Matrix: (Units=GPa)
#
#
# Indices 1 2 3 4 5 6 
#
# 1 72.8949 28.4657 10.3882 0.0000 -19.1274 0.0000
# 2 28.4657 93.8101 25.7111 0.0000 -11.8128 0.0000
# 3 10.3882 25.7111 80.9333 0.0000 -11.5441 0.0000
# 4 0.0000 0.0000 0.0000 23.0684 0.0000 -18.3678
# 5 -19.1274 -11.8128 -11.5441 0.0000 39.6722 0.0000
# 6 0.0000 0.0000 0.0000 -18.3678 0.0000 31.2048
#
#
#
# Elastic Compliance Matrix: (Units=1/GPa)
#
#
# Indices 1 2 3 4 5 6 
#
# 1 0.017265 -0.004401 0.000190 0.000000 0.007069 0.000000
# 2 -0.004401 0.013041 -0.003471 0.000000 0.000751 0.000000
# 3 0.000190 -0.003471 0.013876 0.000000 0.003096 0.000000
# 4 0.000000 0.000000 0.000000 0.081589 0.000000 0.048025
# 5 0.007069 0.000751 0.003096 0.000000 0.029739 0.000000
# 6 0.000000 0.000000 0.000000 0.048025 0.000000 0.060315
#
#
# Mechanical properties :
#
#
# Convention : Reuss Voigt Hill
#
# Bulk Modulus (GPa) = 34.69971 41.86315 38.28143
# Shear Modulus (GPa) = 20.76470 30.99396 25.87933
#
# Velocity S-wave (km/s) = 3.05394 3.73109 3.40937
# Velocity P-wave (km/s) = 5.29347 6.11264 5.71774
#
# Compressibility (1/GPa) = 0.02881868
#
# Stress axis : x y z
#
# Youngs Moduli (GPa) = 57.92177 76.68056 72.06864
#
# Poissons Ratio (x) = 0.33746 -0.01372
# Poissons Ratio (y) = 0.25490 0.25014
# Poissons Ratio (z) = -0.01103 0.26615
#
# Static dielectric constant tensor:
#      x y z
#    x 1.845450 0.000000 -0.164780 
#    y 0.000000 1.884530 0.000000 
#    z -0.164780 0.000000 1.814610 
# 
# From -- ./inp_files/171837.got.cif
#   From: 2010.05.17/outbox.cif.g08.bks.cpg/sg15_86_cif.got.tgz:171837.got - 2010.06.03 18:47:42.
