data_PCOD9289196
_publ_section_title
;
Structure prediction by ZEFSAII (Michael W. Deem and Ramdas Pophale) SiO2 
 PCOD9289196
Probable space group: C 2/C
;
_chemical_formula_sum "Si O2"
_cell_formula_units_Z 40
_cell_length_a 14.347563
_cell_length_b 16.550091
_cell_length_c 15.520356
_cell_angle_alpha 90.000000
_cell_angle_beta 27.971650
_cell_angle_gamma 90.000000
_cell_volume 1728.562579
_symmetry_space_group_name_H-M "C 2/C"
_symmetry_group_IT_number 15
_symmetry_cell_setting 'monoclinic'
loop_
_space_group_symop_operation_xyz
x,y,z
-x,y,1/2-z
-x,-y,-z
x,-y,1/2+z
1/2+x,1/2+y,z
1/2-x,1/2+y,1/2-z
1/2-x,1/2-y,-z
1/2+x,1/2-y,1/2+z
loop_
_atom_site_type_symbol
_atom_site_label
_atom_site_fract_x
_atom_site_fract_y
_atom_site_fract_z
Si Si1 0.682576 0.528026 0.476953
Si Si2 0.311861 0.158782 0.638662
Si Si3 0.624303 0.702957 0.529492
Si Si4 0.452288 0.117511 0.694187
Si Si5 0.249937 0.496123 0.877756
O O1 0.727099 0.620365 0.413283
O O2 0.830546 0.464740 0.313515
O O3 0.454765 0.495955 0.655469
O O4 0.714212 0.527036 0.553916
O O5 0.425862 0.230694 0.500823
O O6 0.322110 0.167082 0.732884
O O7 0.376068 0.067893 0.562715
O O8 0.093652 0.167712 0.773089
O O9 0.750000 0.750000 0.500000
O O10 0.500000 0.152386 0.750000
O O11 0.648629 0.089588 0.481236
#
# Coordination Sequence:
#
# PCOD9289196 Si02
#       5
#     8   8   8   8   8
#     4   9  19  36  61  91 121 162 198 255 316 369
#     4  11  23  38  58  93 121 162 209 249 315 385
#     4  11  22  37  62  90 129 156 198 260 323 373
#     4  10  22  40  62  87 123 165 211 255 302 365
#     4   9  18  35  60  88 122 152 201 253 304 365
#
# _framework density 23.140612999999998
#
# number of rings (size 3 to 8) (size 9 to 14) (size 15 to 20)
#    0.000    2.000    2.000    1.200    2.800    4.800 
#    3.600    1.000    0.000    0.000    0.000    0.000 
#    0.000    0.000    0.000    0.000    0.000    0.000 
#
# Total GULP energy -111447.601086 kJ/mol
# GULP energy per Si atom -5572.380054 kJ/mol
# Density = 2.308794 g / cm^3
# Si number density = 23.140613 Si / 1000 Ang^3
#
#
#
# Elastic Constant Matrix: (Units=GPa)
#
#
# Indices 1 2 3 4 5 6 
#
# 1 126.9999 25.9363 14.7916 -0.0218 13.2048 0.0011
# 2 25.9363 39.2458 16.1108 -0.1143 0.4777 0.0050
# 3 14.7916 16.1108 57.2419 -0.0488 -2.0684 0.0034
# 4 -0.0218 -0.1143 -0.0488 13.9417 0.0129 -2.5060
# 5 13.2048 0.4777 -2.0684 0.0129 22.1914 -0.0023
# 6 0.0011 0.0050 0.0034 -2.5060 -0.0023 30.2780
#
#
#
# Elastic Compliance Matrix: (Units=1/GPa)
#
#
# Indices 1 2 3 4 5 6 
#
# 1 0.009825 -0.005985 -0.001064 -0.000032 -0.005817 -0.000002
# 2 -0.005985 0.032498 -0.007522 0.000231 0.002161 0.000015
# 3 -0.001064 -0.007522 0.019958 0.000004 0.002656 0.000000
# 4 -0.000032 0.000231 0.000004 0.072812 -0.000027 0.006026
# 5 -0.005817 0.002161 0.002656 -0.000027 0.048725 0.000001
# 6 -0.000002 0.000015 0.000000 0.006026 0.000001 0.033526
#
#
# Mechanical properties :
#
#
# Convention : Reuss Voigt Hill
#
# Bulk Modulus (GPa) = 30.17701 37.46277 33.81989
# Shear Modulus (GPa) = 19.41497 24.39215 21.90356
#
# Velocity S-wave (km/s) = 2.89969 3.25019 3.07993
# Velocity P-wave (km/s) = 4.92747 5.50539 5.22443
#
# Compressibility (1/GPa) = 0.03313781
#
# Stress axis : x y z
#
# Youngs Moduli (GPa) = 101.77970 30.77105 50.10593
#
# Poissons Ratio (x) = 0.18418 0.05334
# Poissons Ratio (y) = 0.60919 0.37688
# Poissons Ratio (z) = 0.10834 0.23145
#
# Static dielectric constant tensor:
#      x y z
#    x 1.952600 -0.000030 -0.052600 
#    y -0.000030 1.978600 0.000010 
#    z -0.052600 0.000010 2.002380 
# 
# From -- ./inp_files/155373.got.cif
#   From: 2010.05.17/outbox.cif.g08.bks.cpg/sg15_78_cif.got.tgz:155373.got - 2010.06.03 18:47:42.
