data_PCOD9289083
_publ_section_title
;
Structure prediction by ZEFSAII (Michael W. Deem and Ramdas Pophale) SiO2 
 PCOD9289083
Probable space group: C 2/C
;
_chemical_formula_sum "Si O2"
_cell_formula_units_Z 64
_cell_length_a 15.447523
_cell_length_b 13.232127
_cell_length_c 26.817081
_cell_angle_alpha 90.000000
_cell_angle_beta 141.161474
_cell_angle_gamma 90.000000
_cell_volume 3437.605213
_symmetry_space_group_name_H-M "C 2/C"
_symmetry_group_IT_number 15
_symmetry_cell_setting 'monoclinic'
loop_
_space_group_symop_operation_xyz
x,y,z
-x,y,1/2-z
-x,-y,-z
x,-y,1/2+z
1/2+x,1/2+y,z
1/2-x,1/2+y,1/2-z
1/2-x,1/2-y,-z
1/2+x,1/2-y,1/2+z
loop_
_atom_site_type_symbol
_atom_site_label
_atom_site_fract_x
_atom_site_fract_y
_atom_site_fract_z
Si Si1 0.305096 0.477932 0.452853
Si Si2 0.703614 0.639758 0.961550
Si Si3 0.115663 0.939335 0.613616
Si Si4 0.634215 0.979448 0.527421
Si Si5 0.896179 0.905286 0.300713
Si Si6 0.830410 0.233884 0.287598
Si Si7 0.870853 0.670795 0.567897
Si Si8 0.852714 0.911329 0.706312
O O1 0.300633 0.565615 0.492406
O O2 0.455904 0.425388 0.525454
O O3 0.298925 0.526244 0.395810
O O4 0.188180 0.397848 0.413958
O O5 0.805094 0.583217 0.968462
O O6 0.550103 0.640267 0.869428
O O7 0.750000 0.750000 0.000000
O O8 0.171253 0.841360 0.666154
O O9 0.114221 0.026895 0.654215
O O10 0.606740 0.903339 0.469287
O O11 0.748012 0.929092 0.614310
O O12 0.500000 0.000000 0.500000
O O13 0.779654 0.820989 0.252433
O O14 0.874031 0.982700 0.245226
O O15 0.802762 0.169486 0.225012
O O16 0.986265 0.275989 0.354688
O O17 0.750000 0.750000 0.500000
O O18 0.000000 0.879826 0.750000
#
# Coordination Sequence:
#
# PCOD9289083 Si02
#       8
#     8   8   8   8   8   8   8   8
#     4   9  19  38  62  83 118 154 201 252 302 352
#     4  10  22  40  62  88 122 162 202 250 311 369
#     4   9  19  39  60  84 114 161 198 244 303 364
#     4  11  24  40  64  96 123 158 212 264 298 366
#     4  10  22  40  60  86 125 160 198 252 308 371
#     4  11  23  38  63  91 121 161 207 253 307 372
#     4  11  21  39  63  91 121 156 207 262 301 353
#     4  11  22  42  62  86 127 169 201 250 324 369
#
# _framework density 18.617611
#
# number of rings (size 3 to 8) (size 9 to 14) (size 15 to 20)
#    0.000    1.750    2.500    1.500    1.750    4.000 
#    2.250    0.000    0.000    0.000    0.000    0.000 
#    0.000    0.000    0.000    0.000    0.000    0.000 
#
# Total GULP energy -178753.758670 kJ/mol
# GULP energy per Si atom -5586.054958 kJ/mol
# Density = 1.857524 g / cm^3
# Si number density = 18.617611 Si / 1000 Ang^3
#
#
#
# Elastic Constant Matrix: (Units=GPa)
#
#
# Indices 1 2 3 4 5 6 
#
# 1 103.4280 21.5902 12.8869 0.0000 -0.0896 0.0000
# 2 21.5902 79.8477 18.5401 0.0000 10.3382 0.0000
# 3 12.8869 18.5401 49.7799 0.0000 1.3191 0.0000
# 4 0.0000 0.0000 0.0000 20.5841 0.0000 10.6777
# 5 -0.0896 10.3382 1.3191 0.0000 32.7565 0.0000
# 6 0.0000 0.0000 0.0000 10.6777 0.0000 24.1185
#
#
#
# Elastic Compliance Matrix: (Units=1/GPa)
#
#
# Indices 1 2 3 4 5 6 
#
# 1 0.010417 -0.002519 -0.001782 0.000000 0.000895 0.000000
# 2 -0.002519 0.014899 -0.004777 0.000000 -0.004517 0.000000
# 3 -0.001782 -0.004777 0.022313 0.000000 0.000604 0.000000
# 4 0.000000 0.000000 0.000000 0.063064 0.000000 -0.027920
# 5 0.000895 -0.004517 0.000604 0.000000 0.031932 0.000000
# 6 0.000000 0.000000 0.000000 -0.027920 0.000000 0.053823
#
#
# Mechanical properties :
#
#
# Convention : Reuss Voigt Hill
#
# Bulk Modulus (GPa) = 33.93009 37.67668 35.80339
# Shear Modulus (GPa) = 22.27877 27.49438 24.88657
#
# Velocity S-wave (km/s) = 3.46302 3.84708 3.66009
# Velocity P-wave (km/s) = 5.85271 6.32569 6.09379
#
# Compressibility (1/GPa) = 0.02947237
#
# Stress axis : x y z
#
# Youngs Moduli (GPa) = 95.99499 67.11885 44.81677
#
# Poissons Ratio (x) = 0.16906 0.07988
# Poissons Ratio (y) = 0.24179 0.21410
# Poissons Ratio (z) = 0.17110 0.32064
#
# Static dielectric constant tensor:
#      x y z
#    x 1.630030 0.000000 -0.001230 
#    y 0.000000 1.626360 0.000000 
#    z -0.001230 0.000000 1.626460 
# 
# From -- ./inp_files/296172.got.cif
#   From: 2010.05.17/outbox.cif.g08.bks.cpg/sg15_149_cif.got.tgz:296172.got - 2010.06.03 18:47:42.
