data_PCOD9289129
_publ_section_title
;
Structure prediction by ZEFSAII (Michael W. Deem and Ramdas Pophale) SiO2 
 PCOD9289129
Probable space group: C 2/C
;
_chemical_formula_sum "Si O2"
_cell_formula_units_Z 56
_cell_length_a 12.059116
_cell_length_b 32.512771
_cell_length_c 9.382463
_cell_angle_alpha 90.000000
_cell_angle_beta 137.281714
_cell_angle_gamma 90.000000
_cell_volume 2495.562404
_symmetry_space_group_name_H-M "C 2/C"
_symmetry_group_IT_number 15
_symmetry_cell_setting 'monoclinic'
loop_
_space_group_symop_operation_xyz
x,y,z
-x,y,1/2-z
-x,-y,-z
x,-y,1/2+z
1/2+x,1/2+y,z
1/2-x,1/2+y,1/2-z
1/2-x,1/2-y,-z
1/2+x,1/2-y,1/2+z
loop_
_atom_site_type_symbol
_atom_site_label
_atom_site_fract_x
_atom_site_fract_y
_atom_site_fract_z
Si Si1 0.775947 0.624796 0.444091
Si Si2 0.674599 0.466979 0.834381
Si Si3 0.843890 0.809916 0.847348
Si Si4 0.673951 0.543149 0.997542
Si Si5 0.803675 0.133396 0.551673
Si Si6 0.622550 0.844191 0.162626
Si Si7 0.536586 0.760401 0.451998
O O1 0.759500 0.576412 0.443281
O O2 0.635897 0.647754 0.221637
O O3 0.782828 0.646663 0.602605
O O4 0.945410 0.635248 0.524056
O O5 0.500000 0.463731 0.750000
O O6 0.758317 0.506875 0.985533
O O7 0.656511 0.470167 0.645976
O O8 0.712777 0.780801 0.644076
O O9 0.004106 0.782036 0.003564
O O10 0.769075 0.826590 0.923137
O O11 0.500000 0.547182 0.750000
O O12 0.745890 0.589169 0.061243
O O13 0.715530 0.137370 0.617929
O O14 0.000000 0.133904 0.750000
O O15 0.586147 0.796077 0.111612
O O16 0.500000 0.754190 0.250000
#
# Coordination Sequence:
#
# PCOD9289129 Si02
#       7
#     8   8   8   8   8   8   8
#     4  10  22  42  69  95 126 179 223 269 342 397
#     4  11  22  38  68  99 132 173 223 278 332 404
#     4  11  24  44  65  98 135 176 229 273 343 400
#     4  10  22  40  61 100 133 171 217 280 344 383
#     4  11  26  43  67  98 136 177 223 283 341 406
#     4  10  23  44  65  91 136 177 219 280 336 399
#     4  11  23  42  69  98 132 179 226 290 332 394
#
# _framework density 22.439831999999999
#
# number of rings (size 3 to 8) (size 9 to 14) (size 15 to 20)
#    0.000    1.429    4.286    2.143    8.000    3.429 
#    0.000    0.714    0.000    0.000    0.000    0.000 
#    0.000    0.000    0.000    0.000    0.000    0.000 
#
# Total GULP energy -156436.115766 kJ/mol
# GULP energy per Si atom -5587.004135 kJ/mol
# Density = 2.238876 g / cm^3
# Si number density = 22.439832 Si / 1000 Ang^3
#
#
#
# Elastic Constant Matrix: (Units=GPa)
#
#
# Indices 1 2 3 4 5 6 
#
# 1 119.0682 48.7658 31.8488 0.0000 -35.6719 0.0000
# 2 48.7658 145.1168 13.2530 0.0000 -10.1662 0.0000
# 3 31.8488 13.2530 55.4307 0.0000 -23.4109 0.0000
# 4 0.0000 0.0000 0.0000 44.9962 0.0000 8.4794
# 5 -35.6719 -10.1662 -23.4109 0.0000 32.1916 0.0000
# 6 0.0000 0.0000 0.0000 8.4794 0.0000 31.8382
#
#
#
# Elastic Compliance Matrix: (Units=1/GPa)
#
#
# Indices 1 2 3 4 5 6 
#
# 1 0.014465 -0.003754 -0.001652 0.000000 0.013642 0.000000
# 2 -0.003754 0.008066 -0.000653 0.000000 -0.002088 0.000000
# 3 -0.001652 -0.000653 0.026392 0.000000 0.017156 0.000000
# 4 0.000000 0.000000 0.000000 0.023398 0.000000 -0.006232
# 5 0.013642 -0.002088 0.017156 0.000000 0.057998 0.000000
# 6 0.000000 0.000000 0.000000 -0.006232 0.000000 0.033069
#
#
# Mechanical properties :
#
#
# Convention : Reuss Voigt Hill
#
# Bulk Modulus (GPa) = 27.17125 56.37234 41.77180
# Shear Modulus (GPa) = 26.62766 36.85506 31.74136
#
# Velocity S-wave (km/s) = 3.44848 4.05704 3.76508
# Velocity P-wave (km/s) = 5.29063 6.86456 6.12834
#
# Compressibility (1/GPa) = 0.03680360
#
# Stress axis : x y z
#
# Youngs Moduli (GPa) = 69.13206 123.97697 37.89072
#
# Poissons Ratio (x) = 0.46545 0.06259
# Poissons Ratio (y) = 0.25955 0.02475
# Poissons Ratio (z) = 0.11420 0.08099
#
# Static dielectric constant tensor:
#      x y z
#    x 1.817070 0.000000 0.042770 
#    y 0.000000 1.864280 0.000000 
#    z 0.042770 0.000000 1.909370 
# 
# From -- ./inp_files/35786.got.cif
#   From: 2010.05.17/outbox.cif.g08.bks.cpg/sg15_18_cif.got.tgz:35786.got - 2010.06.03 18:47:42.
