data_PCOD9289426
_publ_section_title
;
Structure prediction by ZEFSAII (Michael W. Deem and Ramdas Pophale) SiO2 
 PCOD9289426
Probable space group: C 2/C
;
_chemical_formula_sum "Si O2"
_cell_formula_units_Z 60
_cell_length_a 18.490771
_cell_length_b 12.778077
_cell_length_c 15.739373
_cell_angle_alpha 90.000000
_cell_angle_beta 132.003452
_cell_angle_gamma 90.000000
_cell_volume 2763.489670
_symmetry_space_group_name_H-M "C 2/C"
_symmetry_group_IT_number 15
_symmetry_cell_setting 'monoclinic'
loop_
_space_group_symop_operation_xyz
x,y,z
-x,y,1/2-z
-x,-y,-z
x,-y,1/2+z
1/2+x,1/2+y,z
1/2-x,1/2+y,1/2-z
1/2-x,1/2-y,-z
1/2+x,1/2-y,1/2+z
loop_
_atom_site_type_symbol
_atom_site_label
_atom_site_fract_x
_atom_site_fract_y
_atom_site_fract_z
Si Si1 0.542538 0.845065 0.450889
Si Si2 0.601900 0.248668 0.436359
Si Si3 0.072602 0.964763 0.734155
Si Si4 0.577542 0.353920 0.580133
Si Si5 0.000000 0.234756 0.250000
Si Si6 0.535490 0.052473 0.183128
Si Si7 0.694382 0.159141 0.216730
Si Si8 0.308859 0.663196 0.662078
O O1 0.471963 0.757285 0.435709
O O2 0.552961 0.801575 0.363443
O O3 0.637391 0.853941 0.583969
O O4 0.494802 0.958243 0.401714
O O5 0.577817 0.346930 0.478145
O O6 0.520591 0.160418 0.378534
O O7 0.624042 0.286256 0.358770
O O8 0.699870 0.191687 0.547410
O O9 0.163444 0.042412 0.806193
O O10 0.000000 0.008411 0.750000
O O11 0.033725 0.942856 0.607776
O O12 0.079981 0.844841 0.773445
O O13 0.690976 0.356633 0.695536
O O14 0.500000 0.025006 0.250000
O O15 0.646926 0.081086 0.249826
O O16 0.675473 0.275702 0.237858
#
# Coordination Sequence:
#
# PCOD9289426 Si02
#       8
#     8   8   8   8   4   8   8   8
#     4  11  22  43  64  90 132 167 212 274 318 385
#     4  10  22  40  64  94 131 166 204 286 317 378
#     4   9  21  39  66  83 123 169 204 260 310 381
#     4  10  23  43  61  93 132 164 219 264 317 393
#     4   8  20  42  58  86 124 168 200 256 316 370
#     4  12  23  38  69  96 127 168 220 260 336 389
#     4  11  24  38  66  96 124 170 212 267 331 377
#     4  10  22  41  62  95 131 162 218 262 329 385
#
# _framework density 21.711679
#
# number of rings (size 3 to 8) (size 9 to 14) (size 15 to 20)
#    0.400    1.333    3.333    0.400    3.733    1.067 
#    2.400    6.000    0.000    0.000    0.000    0.000 
#    0.000    0.000    0.000    0.000    0.000    0.000 
#
# Total GULP energy -167261.574556 kJ/mol
# GULP energy per Si atom -5575.385819 kJ/mol
# Density = 2.166226 g / cm^3
# Si number density = 21.711679 Si / 1000 Ang^3
#
#
#
# Elastic Constant Matrix: (Units=GPa)
#
#
# Indices 1 2 3 4 5 6 
#
# 1 49.1576 14.3306 6.1193 0.0000 -7.2975 0.0000
# 2 14.3306 82.8213 22.8838 0.0000 -0.3745 0.0000
# 3 6.1193 22.8838 61.5602 0.0000 -19.0327 0.0000
# 4 0.0000 0.0000 0.0000 22.7325 0.0000 -1.1202
# 5 -7.2975 -0.3745 -19.0327 0.0000 37.8020 0.0000
# 6 0.0000 0.0000 0.0000 -1.1202 0.0000 18.9211
#
#
#
# Elastic Compliance Matrix: (Units=1/GPa)
#
#
# Indices 1 2 3 4 5 6 
#
# 1 0.022101 -0.003999 0.000706 0.000000 0.004582 0.000000
# 2 -0.003999 0.014439 -0.006117 0.000000 -0.003708 0.000000
# 3 0.000706 -0.006117 0.021877 0.000000 0.011090 0.000000
# 4 0.000000 0.000000 0.000000 0.044119 0.000000 0.002612
# 5 0.004582 -0.003708 0.011090 0.000000 0.032885 0.000000
# 6 0.000000 0.000000 0.000000 0.002612 0.000000 0.053006
#
#
# Mechanical properties :
#
#
# Convention : Reuss Voigt Hill
#
# Bulk Modulus (GPa) = 25.25327 31.13406 28.19366
# Shear Modulus (GPa) = 22.68154 25.90481 24.29317
#
# Velocity S-wave (km/s) = 3.23564 3.45792 3.34862
# Velocity P-wave (km/s) = 5.06119 5.50580 5.28817
#
# Compressibility (1/GPa) = 0.03959883
#
# Stress axis : x y z
#
# Youngs Moduli (GPa) = 45.24738 69.25526 45.71101
#
# Poissons Ratio (x) = 0.27692 -0.03228
# Poissons Ratio (y) = 0.18092 0.27960
# Poissons Ratio (z) = -0.03196 0.42361
#
# Static dielectric constant tensor:
#      x y z
#    x 1.875550 0.000000 -0.058990 
#    y 0.000000 1.772950 0.000000 
#    z -0.058990 0.000000 1.808790 
# 
# From -- ./inp_files/168281.got.cif
#   From: 2010.05.17/outbox.cif.g08.bks.cpg/sg15_85_cif.got.tgz:168281.got - 2010.06.03 18:47:42.
