data_PCOD9289253
_publ_section_title
;
Structure prediction by ZEFSAII (Michael W. Deem and Ramdas Pophale) SiO2 
 PCOD9289253
Probable space group: C 2/C
;
_chemical_formula_sum "Si O2"
_cell_formula_units_Z 48
_cell_length_a 19.061377
_cell_length_b 15.756391
_cell_length_c 19.955971
_cell_angle_alpha 90.000000
_cell_angle_beta 158.029119
_cell_angle_gamma 90.000000
_cell_volume 2242.397523
_symmetry_space_group_name_H-M "C 2/C"
_symmetry_group_IT_number 15
_symmetry_cell_setting 'monoclinic'
loop_
_space_group_symop_operation_xyz
x,y,z
-x,y,1/2-z
-x,-y,-z
x,-y,1/2+z
1/2+x,1/2+y,z
1/2-x,1/2+y,1/2-z
1/2-x,1/2-y,-z
1/2+x,1/2-y,1/2+z
loop_
_atom_site_type_symbol
_atom_site_label
_atom_site_fract_x
_atom_site_fract_y
_atom_site_fract_z
Si Si1 0.278753 0.842695 0.061040
Si Si2 0.064518 0.422798 0.710484
Si Si3 0.909769 0.147801 0.958778
Si Si4 0.658066 0.822411 0.660009
Si Si5 0.582458 0.060514 0.629701
Si Si6 0.695074 0.538323 0.957675
O O1 0.500000 0.854299 0.250000
O O2 0.194244 0.836501 0.061935
O O3 0.250000 0.750000 0.000000
O O4 0.202200 0.934254 0.965448
O O5 0.091107 0.359370 0.671962
O O6 0.030346 0.517332 0.652089
O O7 0.868431 0.413082 0.574860
O O8 0.254307 0.430600 0.922099
O O9 0.861278 0.222648 0.863810
O O10 0.805195 0.068983 0.831255
O O11 0.131114 0.145128 0.164732
O O12 0.524734 0.853945 0.481545
O O13 0.500000 0.000000 0.500000
O O14 0.500000 0.562127 0.750000
#
# Coordination Sequence:
#
# PCOD9289253 Si02
#       6
#     8   8   8   8   8   8
#     4  12  24  40  62  93 137 174 217 268 323 408
#     4  10  23  44  63  97 134 170 232 276 326 403
#     4  12  23  42  66 102 135 175 224 271 348 398
#     4  11  25  40  68  97 138 177 222 283 337 405
#     4  10  22  40  62  94 133 174 216 273 328 398
#     4  11  23  42  68  94 128 177 226 274 336 401
#
# _framework density 21.405662
#
# number of rings (size 3 to 8) (size 9 to 14) (size 15 to 20)
#    0.000    1.000    5.000    1.500    4.667    5.333 
#    0.000    0.000    0.000    4.000    0.000    0.000 
#    0.000    0.000    0.000    0.000    0.000    0.000 
#
# Total GULP energy -133623.744087 kJ/mol
# GULP energy per Si atom -5567.656004 kJ/mol
# Density = 2.135694 g / cm^3
# Si number density = 21.405662 Si / 1000 Ang^3
#
#
#
# Elastic Constant Matrix: (Units=GPa)
#
#
# Indices 1 2 3 4 5 6 
#
# 1 105.0609 32.2821 37.9843 -0.0043 -3.9351 0.0014
# 2 32.2821 36.2731 4.2229 -0.0345 6.0961 0.0034
# 3 37.9843 4.2229 146.8416 -0.0437 -15.0640 0.0058
# 4 -0.0043 -0.0345 -0.0437 21.6108 -0.0038 -0.9322
# 5 -3.9351 6.0961 -15.0640 -0.0038 26.8253 0.0022
# 6 0.0014 0.0034 0.0058 -0.9322 0.0022 26.5723
#
#
#
# Elastic Compliance Matrix: (Units=1/GPa)
#
#
# Indices 1 2 3 4 5 6 
#
# 1 0.014927 -0.013513 -0.003112 -0.000024 0.003513 0.000000
# 2 -0.013513 0.041247 0.001214 0.000064 -0.010674 -0.000002
# 3 -0.003112 0.001214 0.007964 0.000018 0.003740 -0.000001
# 4 -0.000024 0.000064 0.000018 0.046343 -0.000002 0.001626
# 5 0.003513 -0.010674 0.003740 -0.000002 0.042319 -0.000003
# 6 0.000000 -0.000002 -0.000001 0.001626 -0.000003 0.037690
#
#
# Mechanical properties :
#
#
# Convention : Reuss Voigt Hill
#
# Bulk Modulus (GPa) = 30.01514 48.57268 39.29391
# Shear Modulus (GPa) = 21.51292 29.24746 25.38019
#
# Velocity S-wave (km/s) = 3.17363 3.70042 3.44710
# Velocity P-wave (km/s) = 5.24230 6.40298 5.85149
#
# Compressibility (1/GPa) = 0.03331652
#
# Stress axis : x y z
#
# Youngs Moduli (GPa) = 66.99169 24.24399 125.56712
#
# Poissons Ratio (x) = 0.32761 0.39081
# Poissons Ratio (y) = 0.90525 -0.15247
# Poissons Ratio (z) = 0.20850 -0.02944
#
# Static dielectric constant tensor:
#      x y z
#    x 1.819690 0.000010 -0.021130 
#    y 0.000010 2.091070 0.000000 
#    z -0.021130 0.000000 1.809790 
# 
# From -- ./inp_files/249747.got.cif
#   From: 2010.05.17/outbox.cif.g08.bks.cpg/sg15_125_cif.got.tgz:249747.got - 2010.06.03 18:47:42.
