data_PCOD9289368
_publ_section_title
;
Structure prediction by ZEFSAII (Michael W. Deem and Ramdas Pophale) SiO2 
 PCOD9289368
Probable space group: C 2/C
;
_chemical_formula_sum "Si O2"
_cell_formula_units_Z 52
_cell_length_a 14.318743
_cell_length_b 11.958515
_cell_length_c 13.203704
_cell_angle_alpha 90.000000
_cell_angle_beta 113.789007
_cell_angle_gamma 90.000000
_cell_volume 2068.791001
_symmetry_space_group_name_H-M "C 2/C"
_symmetry_group_IT_number 15
_symmetry_cell_setting 'monoclinic'
loop_
_space_group_symop_operation_xyz
x,y,z
-x,y,1/2-z
-x,-y,-z
x,-y,1/2+z
1/2+x,1/2+y,z
1/2-x,1/2+y,1/2-z
1/2-x,1/2-y,-z
1/2+x,1/2-y,1/2+z
loop_
_atom_site_type_symbol
_atom_site_label
_atom_site_fract_x
_atom_site_fract_y
_atom_site_fract_z
Si Si1 0.066355 0.636683 0.568081
Si Si2 0.000000 0.564428 0.750000
Si Si3 0.863664 0.015169 0.042846
Si Si4 0.466498 0.659945 0.924421
Si Si5 0.287832 0.945159 0.896776
Si Si6 0.195166 0.406464 0.828319
Si Si7 0.200439 0.828248 0.317353
O O1 0.006849 0.714718 0.464576
O O2 0.107192 0.514154 0.545876
O O3 0.178092 0.688012 0.643596
O O4 0.785124 0.601082 0.283659
O O5 0.991150 0.630065 0.850824
O O6 0.100072 0.487591 0.798245
O O7 0.952186 0.915966 0.099298
O O8 0.775407 0.112510 0.044968
O O9 0.792944 0.954086 0.926200
O O10 0.940582 0.103154 0.019596
O O11 0.365718 0.663441 0.811459
O O12 0.201341 0.048570 0.869498
O O13 0.168345 0.284218 0.859526
#
# Coordination Sequence:
#
# PCOD9289368 Si02
#       7
#     8   4   8   8   8   8   8
#     4   9  21  42  60  91 131 169 215 266 313 390
#     4  10  22  40  64  86 138 172 212 270 324 372
#     4  11  22  41  66  94 133 166 218 276 320 378
#     4  11  22  40  66  97 125 171 222 263 326 390
#     4   9  22  42  62  89 133 169 208 271 321 380
#     4  11  22  43  63  96 130 170 217 274 316 385
#     4  10  22  42  63  90 135 164 217 265 319 388
#
# _framework density 25.135453999999999
#
# number of rings (size 3 to 8) (size 9 to 14) (size 15 to 20)
#    0.923    0.923    3.077    0.000    0.000    8.000 
#    0.000    5.385    0.000    0.000    0.000    0.000 
#    0.000    0.000    0.000    0.000    0.000    0.000 
#
# Total GULP energy -144916.402203 kJ/mol
# GULP energy per Si atom -5573.707777 kJ/mol
# Density = 2.507824 g / cm^3
# Si number density = 25.135454 Si / 1000 Ang^3
#
#
#
# Elastic Constant Matrix: (Units=GPa)
#
#
# Indices 1 2 3 4 5 6 
#
# 1 114.4834 7.0634 3.0996 0.0000 -18.1052 0.0000
# 2 7.0634 73.2991 17.4636 0.0000 -6.0209 0.0000
# 3 3.0996 17.4636 87.9309 0.0000 20.9652 0.0000
# 4 0.0000 0.0000 0.0000 22.5473 0.0000 6.1925
# 5 -18.1052 -6.0209 20.9652 0.0000 27.3306 0.0000
# 6 0.0000 0.0000 0.0000 6.1925 0.0000 9.1392
#
#
#
# Elastic Compliance Matrix: (Units=1/GPa)
#
#
# Indices 1 2 3 4 5 6 
#
# 1 0.010162 0.000335 -0.002506 0.000000 0.008728 0.000000
# 2 0.000335 0.015352 -0.004797 0.000000 0.007284 0.000000
# 3 -0.002506 -0.004797 0.015985 0.000000 -0.014979 0.000000
# 4 0.000000 0.000000 0.000000 0.054492 0.000000 -0.036922
# 5 0.008728 0.007284 -0.014979 0.000000 0.055466 0.000000
# 6 0.000000 0.000000 0.000000 -0.036922 0.000000 0.134436
#
#
# Mechanical properties :
#
#
# Convention : Reuss Voigt Hill
#
# Bulk Modulus (GPa) = 36.28139 36.77406 36.52773
# Shear Modulus (GPa) = 16.18034 28.34254 22.26144
#
# Velocity S-wave (km/s) = 2.53993 3.36161 2.97923
# Velocity P-wave (km/s) = 4.80285 5.45246 5.13793
#
# Compressibility (1/GPa) = 0.02756234
#
# Stress axis : x y z
#
# Youngs Moduli (GPa) = 98.40213 65.13901 62.55847
#
# Poissons Ratio (x) = -0.02180 0.15675
# Poissons Ratio (y) = -0.03293 0.30012
# Poissons Ratio (z) = 0.24656 0.31250
#
# Static dielectric constant tensor:
#      x y z
#    x 2.154460 0.000000 -0.027650 
#    y 0.000000 2.145720 0.000000 
#    z -0.027650 0.000000 1.975650 
# 
# From -- ./inp_files/162604.got.cif
#   From: 2010.05.17/outbox.cif.g08.bks.cpg/sg15_82_cif.got.tgz:162604.got - 2010.06.03 18:47:42.
