data_PCOD9289795
_publ_section_title
;
Structure prediction by ZEFSAII (Michael W. Deem and Ramdas Pophale) SiO2 
 PCOD9289795
Probable space group: C 2/C
;
_chemical_formula_sum "Si O2"
_cell_formula_units_Z 44
_cell_length_a 16.575599
_cell_length_b 9.037387
_cell_length_c 14.074460
_cell_angle_alpha 90.000000
_cell_angle_beta 118.868626
_cell_angle_gamma 90.000000
_cell_volume 1846.348169
_symmetry_space_group_name_H-M "C 2/C"
_symmetry_group_IT_number 15
_symmetry_cell_setting 'monoclinic'
loop_
_space_group_symop_operation_xyz
x,y,z
-x,y,1/2-z
-x,-y,-z
x,-y,1/2+z
1/2+x,1/2+y,z
1/2-x,1/2+y,1/2-z
1/2-x,1/2-y,-z
1/2+x,1/2-y,1/2+z
loop_
_atom_site_type_symbol
_atom_site_label
_atom_site_fract_x
_atom_site_fract_y
_atom_site_fract_z
Si Si1 0.422068 0.876495 0.059710
Si Si2 0.080072 0.184922 0.739850
Si Si3 0.397996 0.567112 0.952976
Si Si4 0.747853 0.151016 0.346272
Si Si5 0.000000 0.538842 0.250000
Si Si6 0.139172 0.569544 0.643649
O O1 0.418264 0.935944 0.165200
O O2 0.532314 0.893731 0.105798
O O3 0.396622 0.710256 0.019162
O O4 0.366252 0.986537 0.960689
O O5 0.118212 0.115538 0.666054
O O6 0.166358 0.250681 0.847422
O O7 0.023185 0.336366 0.683125
O O8 0.000000 0.095840 0.750000
O O9 0.320790 0.451533 0.941724
O O10 0.500000 0.500000 0.000000
O O11 0.810106 0.274113 0.330714
O O12 0.694757 0.043548 0.242562
#
# Coordination Sequence:
#
# PCOD9289795 Si02
#       6
#     8   8   8   8   4   8
#     4  11  21  42  66  92 136 183 225 275 352 409
#     4  10  22  43  67  96 140 173 224 285 354 400
#     4  12  24  41  69 104 133 185 239 279 341 430
#     4  12  21  38  72 102 128 177 237 280 339 426
#     4  10  22  40  68  88 134 184 218 284 344 396
#     4  11  20  37  69  93 128 175 228 279 333 422
#
# _framework density 23.830825000000001
#
# number of rings (size 3 to 8) (size 9 to 14) (size 15 to 20)
#    0.545    0.364    7.273    1.091    0.000    0.000 
#    1.636    4.545    0.000    0.000    0.000    0.000 
#    0.000    0.000    0.000    0.000    0.000    0.000 
#
# Total GULP energy -122613.932952 kJ/mol
# GULP energy per Si atom -5573.360589 kJ/mol
# Density = 2.377659 g / cm^3
# Si number density = 23.830825 Si / 1000 Ang^3
#
#
#
# Elastic Constant Matrix: (Units=GPa)
#
#
# Indices 1 2 3 4 5 6 
#
# 1 68.4062 16.2214 21.7573 0.0000 18.4784 0.0000
# 2 16.2214 101.2610 34.7379 0.0000 4.0237 0.0000
# 3 21.7573 34.7379 86.3737 0.0000 9.8503 0.0000
# 4 0.0000 0.0000 0.0000 42.7193 0.0000 13.1522
# 5 18.4784 4.0237 9.8503 0.0000 36.7239 0.0000
# 6 0.0000 0.0000 0.0000 13.1522 0.0000 32.1916
#
#
#
# Elastic Compliance Matrix: (Units=1/GPa)
#
#
# Indices 1 2 3 4 5 6 
#
# 1 0.018148 -0.001547 -0.003019 0.000000 -0.008152 0.000000
# 2 -0.001547 0.011588 -0.004348 0.000000 0.000675 0.000000
# 3 -0.003019 -0.004348 0.014296 0.000000 -0.001839 0.000000
# 4 0.000000 0.000000 0.000000 0.026777 0.000000 -0.010940
# 5 -0.008152 0.000675 -0.001839 0.000000 0.031751 0.000000
# 6 0.000000 0.000000 0.000000 -0.010940 0.000000 0.035534
#
#
# Mechanical properties :
#
#
# Convention : Reuss Voigt Hill
#
# Bulk Modulus (GPa) = 38.16296 44.60824 41.38560
# Shear Modulus (GPa) = 30.36601 34.54857 32.45729
#
# Velocity S-wave (km/s) = 3.57351 3.81168 3.69452
# Velocity P-wave (km/s) = 5.75113 6.17505 5.96686
#
# Compressibility (1/GPa) = 0.02620342
#
# Stress axis : x y z
#
# Youngs Moduli (GPa) = 55.10258 86.29599 69.94733
#
# Poissons Ratio (x) = 0.13354 0.21120
# Poissons Ratio (y) = 0.08527 0.30411
# Poissons Ratio (z) = 0.16638 0.37519
#
# Static dielectric constant tensor:
#      x y z
#    x 2.160420 0.000000 -0.067420 
#    y 0.000000 1.902820 0.000000 
#    z -0.067420 0.000000 1.988860 
# 
# From -- ./inp_files/209745.got.cif
#   From: 2010.05.17/outbox.cif.g08.bks.cpg/sg15_105_cif.got.tgz:209745.got - 2010.06.03 18:47:42.
