data_PCOD9289226
_publ_section_title
;
Structure prediction by ZEFSAII (Michael W. Deem and Ramdas Pophale) SiO2 
 PCOD9289226
Probable space group: C 2/C
;
_chemical_formula_sum "Si O2"
_cell_formula_units_Z 40
_cell_length_a 14.346648
_cell_length_b 4.826640
_cell_length_c 32.090047
_cell_angle_alpha 90.000000
_cell_angle_beta 136.854779
_cell_angle_gamma 90.000000
_cell_volume 1519.590104
_symmetry_space_group_name_H-M "C 2/C"
_symmetry_group_IT_number 15
_symmetry_cell_setting 'monoclinic'
loop_
_space_group_symop_operation_xyz
x,y,z
-x,y,1/2-z
-x,-y,-z
x,-y,1/2+z
1/2+x,1/2+y,z
1/2-x,1/2+y,1/2-z
1/2-x,1/2-y,-z
1/2+x,1/2-y,1/2+z
loop_
_atom_site_type_symbol
_atom_site_label
_atom_site_fract_x
_atom_site_fract_y
_atom_site_fract_z
Si Si1 0.636695 0.927814 0.488439
Si Si2 0.361903 0.505817 0.125628
Si Si3 0.785090 0.861395 0.694744
Si Si4 0.504869 0.467517 0.092454
Si Si5 0.928465 0.365596 0.770893
O O1 0.750000 0.750000 0.500000
O O2 0.508593 0.713609 0.446131
O O3 0.711637 0.995078 0.556385
O O4 0.595206 0.216725 0.453890
O O5 0.343024 0.619300 0.166282
O O6 0.456373 0.621104 0.119003
O O7 0.645041 0.695617 0.644715
O O8 0.876358 0.672946 0.754496
O O9 0.800426 0.156273 0.722756
O O10 0.448784 0.220934 0.159068
O O11 0.000000 0.336397 0.750000
#
# Coordination Sequence:
#
# PCOD9289226 Si02
#       5
#     8   8   8   8   8
#     4  10  22  41  65  95 128 171 222 270 334 410
#     4  10  23  42  67  90 132 174 209 278 339 381
#     4  11  24  40  62  95 128 166 222 272 324 407
#     4  11  24  41  64  96 130 169 223 274 333 409
#     4  10  22  40  62  91 126 169 219 267 330 400
#
# _framework density 26.322887000000001
#
# number of rings (size 3 to 8) (size 9 to 14) (size 15 to 20)
#    0.000    1.600    0.000    5.400    0.000   17.600 
#    0.000    0.000    0.000    0.000    0.000    0.000 
#    0.000    0.000    0.000    0.000    0.000    0.000 
#
# Total GULP energy -111565.841455 kJ/mol
# GULP energy per Si atom -5578.292073 kJ/mol
# Density = 2.626298 g / cm^3
# Si number density = 26.322887 Si / 1000 Ang^3
#
#
#
# Elastic Constant Matrix: (Units=GPa)
#
#
# Indices 1 2 3 4 5 6 
#
# 1 110.6191 39.8924 28.6450 -0.0009 -0.3532 0.0003
# 2 39.8924 145.9453 88.2813 -0.0135 13.3906 -0.0001
# 3 28.6450 88.2813 150.3629 -0.0045 10.5788 0.0024
# 4 -0.0009 -0.0135 -0.0045 46.2474 -0.0003 7.7962
# 5 -0.3532 13.3906 10.5788 -0.0003 41.6985 -0.0003
# 6 0.0003 -0.0001 0.0024 7.7962 -0.0003 24.4984
#
#
#
# Elastic Compliance Matrix: (Units=1/GPa)
#
#
# Indices 1 2 3 4 5 6 
#
# 1 0.010093 -0.002553 -0.000496 -0.000001 0.001031 0.000000
# 2 -0.002553 0.011415 -0.006065 0.000003 -0.002149 0.000000
# 3 -0.000496 -0.006065 0.010354 -0.000001 -0.000683 -0.000001
# 4 -0.000001 0.000003 -0.000001 0.022849 -0.000001 -0.007271
# 5 0.001031 -0.002149 -0.000683 -0.000001 0.024854 0.000001
# 6 0.000000 0.000000 -0.000001 -0.007271 0.000001 0.043133
#
#
# Mechanical properties :
#
#
# Convention : Reuss Voigt Hill
#
# Bulk Modulus (GPa) = 73.34726 80.06275 76.70500
# Shear Modulus (GPa) = 34.37141 39.16277 36.76709
#
# Velocity S-wave (km/s) = 3.61745 3.86136 3.74140
# Velocity P-wave (km/s) = 6.73594 7.09661 6.91862
#
# Compressibility (1/GPa) = 0.01363377
#
# Stress axis : x y z
#
# Youngs Moduli (GPa) = 99.08294 87.60131 96.58220
#
# Poissons Ratio (x) = 0.22366 0.04793
# Poissons Ratio (y) = 0.25297 0.58574
# Poissons Ratio (z) = 0.04917 0.53127
#
# Static dielectric constant tensor:
#      x y z
#    x 2.156530 0.000000 0.047500 
#    y 0.000000 2.134570 0.000000 
#    z 0.047500 0.000000 2.178880 
# 
# From -- ./inp_files/297566.got.cif
#   From: 2010.05.17/outbox.cif.g08.bks.cpg/sg15_149_cif.got.tgz:297566.got - 2010.06.03 18:47:42.
