data_PCOD9289541
_publ_section_title
;
Structure prediction by ZEFSAII (Michael W. Deem and Ramdas Pophale) SiO2 
 PCOD9289541
Probable space group: C 2/C
;
_chemical_formula_sum "Si O2"
_cell_formula_units_Z 52
_cell_length_a 15.385536
_cell_length_b 18.438356
_cell_length_c 11.413302
_cell_angle_alpha 90.000000
_cell_angle_beta 47.374378
_cell_angle_gamma 90.000000
_cell_volume 2382.333557
_symmetry_space_group_name_H-M "C 2/C"
_symmetry_group_IT_number 15
_symmetry_cell_setting 'monoclinic'
loop_
_space_group_symop_operation_xyz
x,y,z
-x,y,1/2-z
-x,-y,-z
x,-y,1/2+z
1/2+x,1/2+y,z
1/2-x,1/2+y,1/2-z
1/2-x,1/2-y,-z
1/2+x,1/2-y,1/2+z
loop_
_atom_site_type_symbol
_atom_site_label
_atom_site_fract_x
_atom_site_fract_y
_atom_site_fract_z
Si Si1 0.886759 0.412144 0.087706
Si Si2 0.500000 0.347095 0.750000
Si Si3 0.219190 0.933616 0.441224
Si Si4 0.629749 0.921323 0.976473
Si Si5 0.114574 0.087325 0.584384
Si Si6 0.260043 0.804523 0.097086
Si Si7 0.835841 0.178617 0.185229
O O1 0.767205 0.407219 0.273304
O O2 0.881841 0.493918 0.046246
O O3 0.877538 0.353608 0.993767
O O4 0.001403 0.393536 0.058389
O O5 0.600812 0.393909 0.591815
O O6 0.575126 0.308947 0.786482
O O7 0.326992 0.917236 0.430570
O O8 0.195291 0.019831 0.470975
O O9 0.732789 0.877767 0.815652
O O10 0.163920 0.136318 0.645556
O O11 0.099854 0.139400 0.484361
O O12 0.000000 0.053619 0.750000
O O13 0.272599 0.752025 0.198018
O O14 0.250000 0.750000 0.000000
#
# Coordination Sequence:
#
# PCOD9289541 Si02
#       7
#     8   4   8   8   8   8   8
#     4  11  22  40  68  94 133 176 229 273 334 398
#     4  10  24  40  66  94 134 178 210 284 330 394
#     4  11  21  39  64 100 130 167 225 273 337 389
#     4  10  22  40  65  96 132 176 222 284 327 397
#     4  11  22  38  69 101 136 168 219 280 339 393
#     4  10  24  45  66  98 135 176 221 275 335 406
#     4  10  23  44  63  96 135 175 225 271 341 404
#
# _framework density 21.827337
#
# number of rings (size 3 to 8) (size 9 to 14) (size 15 to 20)
#    0.000    1.538    3.846    0.462    2.154    3.077 
#    2.769    3.846    0.000    0.000    0.000    0.000 
#    0.000    0.000    0.000    0.000    0.000    0.000 
#
# Total GULP energy -144836.782170 kJ/mol
# GULP energy per Si atom -5570.645468 kJ/mol
# Density = 2.177766 g / cm^3
# Si number density = 21.827337 Si / 1000 Ang^3
#
#
#
# Elastic Constant Matrix: (Units=GPa)
#
#
# Indices 1 2 3 4 5 6 
#
# 1 146.5747 48.3447 36.6972 0.0000 9.2216 0.0000
# 2 48.3447 81.6774 -3.4446 0.0000 7.9943 0.0000
# 3 36.6972 -3.4446 56.2842 0.0000 4.4800 0.0000
# 4 0.0000 0.0000 0.0000 -12.7170 0.0000 17.9824
# 5 9.2216 7.9943 4.4800 0.0000 26.4705 0.0000
# 6 0.0000 0.0000 0.0000 17.9824 0.0000 34.9671
#
#
#
# Elastic Compliance Matrix: (Units=1/GPa)
#
#
# Indices 1 2 3 4 5 6 
#
# 1 0.010968 -0.006759 -0.007524 0.000000 -0.000506 0.000000
# 2 -0.006759 0.016849 0.005733 0.000000 -0.003704 0.000000
# 3 -0.007524 0.005733 0.023266 0.000000 -0.003048 0.000000
# 4 0.000000 0.000000 0.000000 -0.045527 0.000000 0.023413
# 5 -0.000506 -0.003704 -0.003048 0.000000 0.039589 0.000000
# 6 0.000000 0.000000 0.000000 0.023413 0.000000 0.016558
#
#
# Mechanical properties :
#
#
# Convention : Reuss Voigt Hill
#
# Bulk Modulus (GPa) = 29.42817 49.74789 39.58803
# Shear Modulus (GPa) = 55.47580 23.27339 39.37459
#
# Velocity S-wave (km/s) = 5.04687 3.26889 4.25186
# Velocity P-wave (km/s) = 6.89005 6.09004 6.50236
#
# Compressibility (1/GPa) = 0.03398104
#
# Stress axis : x y z
#
# Youngs Moduli (GPa) = 91.17785 59.35245 42.98077
#
# Poissons Ratio (x) = 0.40119 0.32340
# Poissons Ratio (y) = 0.61632 -0.24641
# Poissons Ratio (z) = 0.68604 -0.34027
#
# Static dielectric constant tensor:
#      x y z
#    x 1.989860 0.000000 -0.118080 
#    y 0.000000 1.808700 0.000000 
#    z -0.118080 0.000000 1.938730 
# 
# From -- ./inp_files/99708.got.cif
#   From: 2010.05.17/outbox.cif.g08.bks.cpg/sg15_50_cif.got.tgz:99708.got - 2010.06.03 18:47:42.
