data_PCOD9289595
_publ_section_title
;
Structure prediction by ZEFSAII (Michael W. Deem and Ramdas Pophale) SiO2 
 PCOD9289595
Probable space group: C 2/C
;
_chemical_formula_sum "Si O2"
_cell_formula_units_Z 48
_cell_length_a 11.550170
_cell_length_b 11.713616
_cell_length_c 16.742834
_cell_angle_alpha 90.000000
_cell_angle_beta 52.653213
_cell_angle_gamma 90.000000
_cell_volume 1800.792382
_symmetry_space_group_name_H-M "C 2/C"
_symmetry_group_IT_number 15
_symmetry_cell_setting 'monoclinic'
loop_
_space_group_symop_operation_xyz
x,y,z
-x,y,1/2-z
-x,-y,-z
x,-y,1/2+z
1/2+x,1/2+y,z
1/2-x,1/2+y,1/2-z
1/2-x,1/2-y,-z
1/2+x,1/2-y,1/2+z
loop_
_atom_site_type_symbol
_atom_site_label
_atom_site_fract_x
_atom_site_fract_y
_atom_site_fract_z
Si Si1 0.982007 0.299157 0.902108
Si Si2 0.545836 0.147909 0.908681
Si Si3 0.846114 0.956874 0.313283
Si Si4 0.692184 0.691255 0.250768
Si Si5 0.308624 0.424603 0.509640
Si Si6 0.213583 0.346018 0.084578
O O1 0.933974 0.171450 0.949269
O O2 0.137954 0.312388 0.795716
O O3 0.003474 0.361758 0.979604
O O4 0.841230 0.351795 0.916997
O O5 0.580511 0.276870 0.867207
O O6 0.434231 0.101350 0.891025
O O7 0.707535 0.100729 0.832460
O O8 0.863877 0.072874 0.259376
O O9 0.000000 0.891982 0.250000
O O10 0.803195 0.975531 0.422322
O O11 0.689135 0.778774 0.176913
O O12 0.312645 0.541449 0.558034
O O13 0.250000 0.250000 0.000000
#
# Coordination Sequence:
#
# PCOD9289595 Si02
#       6
#     8   8   8   8   8   8
#     4  10  22  43  63  93 121 167 207 254 311 366
#     4  11  24  41  61  92 125 162 209 255 312 367
#     4  11  22  39  63  90 124 166 208 254 309 373
#     4  12  24  39  65  91 128 160 209 256 311 370
#     4  10  22  40  66  87 126 165 207 255 309 368
#     4  12  22  40  61  91 122 164 204 254 309 366
#
# _framework density 26.654934999999998
#
# number of rings (size 3 to 8) (size 9 to 14) (size 15 to 20)
#    0.000    1.000    3.333    3.500    0.000    4.667 
#    0.000    1.667    0.000    0.000    0.000    0.000 
#    0.000    0.000    0.000    0.000    0.000    0.000 
#
# Total GULP energy -134284.507478 kJ/mol
# GULP energy per Si atom -5595.187812 kJ/mol
# Density = 2.659427 g / cm^3
# Si number density = 26.654935 Si / 1000 Ang^3
#
#
#
# Elastic Constant Matrix: (Units=GPa)
#
#
# Indices 1 2 3 4 5 6 
#
# 1 81.2076 4.5303 11.5795 0.0000 -28.7066 0.0000
# 2 4.5303 97.9426 -10.7648 0.0000 -3.8883 0.0000
# 3 11.5795 -10.7648 76.1744 0.0000 -8.8638 0.0000
# 4 0.0000 0.0000 0.0000 31.8885 0.0000 -2.8685
# 5 -28.7066 -3.8883 -8.8638 0.0000 56.7851 0.0000
# 6 0.0000 0.0000 0.0000 -2.8685 0.0000 32.2697
#
#
#
# Elastic Compliance Matrix: (Units=1/GPa)
#
#
# Indices 1 2 3 4 5 6 
#
# 1 0.015178 -0.000576 -0.001528 0.000000 0.007395 0.000000
# 2 -0.000576 0.010444 0.001643 0.000000 0.000680 0.000000
# 3 -0.001528 0.001643 0.013765 0.000000 0.001489 0.000000
# 4 0.000000 0.000000 0.000000 0.031612 0.000000 0.002810
# 5 0.007395 0.000680 0.001489 0.000000 0.021628 0.000000
# 6 0.000000 0.000000 0.000000 0.002810 0.000000 0.031239
#
#
# Mechanical properties :
#
#
# Convention : Reuss Voigt Hill
#
# Bulk Modulus (GPa) = 25.99826 29.55717 27.77771
# Shear Modulus (GPa) = 36.33414 40.85398 38.59406
#
# Velocity S-wave (km/s) = 3.69606 3.91922 3.80927
# Velocity P-wave (km/s) = 5.29049 5.62079 5.45814
#
# Compressibility (1/GPa) = 0.03846411
#
# Stress axis : x y z
#
# Youngs Moduli (GPa) = 65.88347 95.74617 72.64561
#
# Poissons Ratio (x) = 0.05519 0.11102
# Poissons Ratio (y) = 0.03798 -0.11934
# Poissons Ratio (z) = 0.10069 -0.15729
#
# Static dielectric constant tensor:
#      x y z
#    x 2.116730 0.000000 -0.045320 
#    y 0.000000 2.200190 0.000000 
#    z -0.045320 0.000000 2.063110 
# 
# From -- ./inp_files/237416.got.cif
#   From: 2010.05.17/outbox.cif.g08.bks.cpg/sg15_119_cif.got.tgz:237416.got - 2010.06.03 18:47:42.
