data_PCOD9289628
_publ_section_title
;
Structure prediction by ZEFSAII (Michael W. Deem and Ramdas Pophale) SiO2 
 PCOD9289628
Probable space group: C 2/C
;
_chemical_formula_sum "Si O2"
_cell_formula_units_Z 40
_cell_length_a 13.114469
_cell_length_b 16.929147
_cell_length_c 8.517128
_cell_angle_alpha 90.000000
_cell_angle_beta 88.467891
_cell_angle_gamma 90.000000
_cell_volume 1890.269262
_symmetry_space_group_name_H-M "C 2/C"
_symmetry_group_IT_number 15
_symmetry_cell_setting 'monoclinic'
loop_
_space_group_symop_operation_xyz
x,y,z
-x,y,1/2-z
-x,-y,-z
x,-y,1/2+z
1/2+x,1/2+y,z
1/2-x,1/2+y,1/2-z
1/2-x,1/2-y,-z
1/2+x,1/2-y,1/2+z
loop_
_atom_site_type_symbol
_atom_site_label
_atom_site_fract_x
_atom_site_fract_y
_atom_site_fract_z
Si Si1 0.828768 0.191214 0.912685
Si Si2 0.500000 0.209467 0.250000
Si Si3 0.000000 0.456669 0.250000
Si Si4 0.699525 0.334270 0.445005
Si Si5 0.010294 0.089494 0.436610
Si Si6 0.882294 0.415258 0.555116
O O1 0.927420 0.242069 0.864313
O O2 0.788479 0.162458 0.744505
O O3 0.750000 0.250000 0.000000
O O4 0.878324 0.122625 0.016258
O O5 0.575763 0.156432 0.346156
O O6 0.079766 0.509408 0.347936
O O7 0.937889 0.411675 0.384801
O O8 0.750000 0.250000 0.500000
O O9 0.582424 0.355431 0.491912
O O10 0.764444 0.402704 0.527318
O O11 0.000000 0.090369 0.250000
O O12 0.000000 0.000000 0.500000
#
# Coordination Sequence:
#
# PCOD9289628 Si02
#       6
#     8   4   4   8   8   8
#     4  12  25  44  71 104 138 188 235 293 359 423
#     4  11  22  44  66  98 141 168 234 292 331 426
#     4   9  22  42  60  98 133 172 218 280 339 406
#     4  12  23  45  70 100 136 181 232 283 351 422
#     4  12  27  48  71 103 144 186 238 301 361 432
#     4  10  22  40  66  93 133 172 220 276 339 405
#
# _framework density 21.161006
#
# number of rings (size 3 to 8) (size 9 to 14) (size 15 to 20)
#    0.000    0.800    4.000    2.400    2.800    3.200 
#    5.400    0.000    0.000    0.000    0.000    0.000 
#    0.000    0.000    0.000    0.000    0.000    0.000 
#
# Total GULP energy -111649.455240 kJ/mol
# GULP energy per Si atom -5582.472762 kJ/mol
# Density = 2.111284 g / cm^3
# Si number density = 21.161006 Si / 1000 Ang^3
#
#
#
# Elastic Constant Matrix: (Units=GPa)
#
#
# Indices 1 2 3 4 5 6 
#
# 1 135.5149 42.5648 44.4333 0.0000 16.7892 0.0000
# 2 42.5648 75.1004 35.6372 0.0000 4.1056 0.0000
# 3 44.4333 35.6372 148.4925 0.0000 20.7421 0.0000
# 4 0.0000 0.0000 0.0000 34.6286 0.0000 11.2248
# 5 16.7892 4.1056 20.7421 0.0000 44.6894 0.0000
# 6 0.0000 0.0000 0.0000 11.2248 0.0000 83.9647
#
#
#
# Elastic Compliance Matrix: (Units=1/GPa)
#
#
# Indices 1 2 3 4 5 6 
#
# 1 0.009613 -0.004641 -0.001409 0.000000 -0.002531 0.000000
# 2 -0.004641 0.017272 -0.002971 0.000000 0.001536 0.000000
# 3 -0.001409 -0.002971 0.008295 0.000000 -0.003048 0.000000
# 4 0.000000 0.000000 0.000000 0.030186 0.000000 -0.004035
# 5 -0.002531 0.001536 -0.003048 0.000000 0.024601 0.000000
# 6 0.000000 0.000000 0.000000 -0.004035 0.000000 0.012449
#
#
# Mechanical properties :
#
#
# Convention : Reuss Voigt Hill
#
# Bulk Modulus (GPa) = 58.35332 67.15317 62.75325
# Shear Modulus (GPa) = 39.62923 48.42138 44.02530
#
# Velocity S-wave (km/s) = 4.33222 4.78874 4.56619
# Velocity P-wave (km/s) = 7.25672 7.89806 7.58417
#
# Compressibility (1/GPa) = 0.01713699
#
# Stress axis : x y z
#
# Youngs Moduli (GPa) = 104.03023 57.89781 120.55974
#
# Poissons Ratio (x) = 0.26871 0.16987
# Poissons Ratio (y) = 0.48282 0.35817
# Poissons Ratio (z) = 0.14658 0.17201
#
# Static dielectric constant tensor:
#      x y z
#    x 0.472360 0.000000 0.271770 
#    y 0.000000 1.784610 0.000000 
#    z 0.271770 0.000000 1.684800 
# 
# From -- ./inp_files/29165.got.cif
#   From: 2010.05.17/outbox.cif.g08.bks.cpg/sg15_15_cif.got.tgz:29165.got - 2010.06.03 18:47:42.
