data_PCOD9289345
_publ_section_title
;
Structure prediction by ZEFSAII (Michael W. Deem and Ramdas Pophale) SiO2 
 PCOD9289345
Probable space group: C 2/C
;
_chemical_formula_sum "Si O2"
_cell_formula_units_Z 64
_cell_length_a 16.445170
_cell_length_b 23.694623
_cell_length_c 14.147665
_cell_angle_alpha 90.000000
_cell_angle_beta 30.542753
_cell_angle_gamma 90.000000
_cell_volume 2801.505581
_symmetry_space_group_name_H-M "C 2/C"
_symmetry_group_IT_number 15
_symmetry_cell_setting 'monoclinic'
loop_
_space_group_symop_operation_xyz
x,y,z
-x,y,1/2-z
-x,-y,-z
x,-y,1/2+z
1/2+x,1/2+y,z
1/2-x,1/2+y,1/2-z
1/2-x,1/2-y,-z
1/2+x,1/2-y,1/2+z
loop_
_atom_site_type_symbol
_atom_site_label
_atom_site_fract_x
_atom_site_fract_y
_atom_site_fract_z
Si Si1 0.987015 0.201344 0.555247
Si Si2 0.166399 0.425108 0.763029
Si Si3 0.675172 0.639875 0.627226
Si Si4 0.326291 0.805937 0.816104
Si Si5 0.168992 0.529769 0.958793
Si Si6 0.825580 0.583986 0.920396
Si Si7 0.333668 0.468428 0.092732
Si Si8 0.119210 0.882737 0.783353
O O1 0.153049 0.196205 0.442987
O O2 0.030677 0.173793 0.410261
O O3 0.862627 0.158784 0.728589
O O4 0.926047 0.261999 0.653727
O O5 0.117363 0.369434 0.756398
O O6 0.311655 0.465969 0.583672
O O7 0.231797 0.399655 0.796568
O O8 0.007379 0.461821 0.908884
O O9 0.500000 0.635537 0.750000
O O10 0.783225 0.689701 0.471215
O O11 0.768799 0.581481 0.539838
O O12 0.282120 0.529413 0.753311
O O13 0.170387 0.474213 0.022285
O O14 0.783913 0.567673 0.855684
O O15 0.000000 0.610663 0.750000
O O16 0.690611 0.620613 0.107279
O O17 0.498543 0.435723 0.912229
#
# Coordination Sequence:
#
# PCOD9289345 Si02
#       8
#     8   8   8   8   8   8   8   8
#     4  10  22  43  62  98 132 185 228 291 343 417
#     4  11  23  41  63  99 136 190 224 284 347 413
#     4  10  22  40  63  97 140 186 233 282 337 418
#     4  10  23  38  65  93 140 175 241 277 342 411
#     4  12  24  42  67  96 150 186 229 281 349 428
#     4  12  25  41  64 101 138 186 236 287 344 427
#     4  12  23  42  69  97 138 186 226 282 348 416
#     4  11  24  43  66  95 143 182 239 286 349 420
#
# _framework density 22.844859
#
# number of rings (size 3 to 8) (size 9 to 14) (size 15 to 20)
#    0.000    1.000    3.750    3.000    1.750    1.000 
#    0.000    0.000    0.000    0.000    0.000   35.875 
#    0.000    0.000    0.000    0.000    0.000    0.000 
#
# Total GULP energy -178442.887995 kJ/mol
# GULP energy per Si atom -5576.340250 kJ/mol
# Density = 2.279286 g / cm^3
# Si number density = 22.844859 Si / 1000 Ang^3
#
#
#
# Elastic Constant Matrix: (Units=GPa)
#
#
# Indices 1 2 3 4 5 6 
#
# 1 48.9559 13.1335 4.9526 0.0100 -3.4713 -0.0263
# 2 13.1335 104.0532 51.7697 0.0028 9.0652 -0.0244
# 3 4.9526 51.7697 91.5053 0.0037 10.7018 -0.0053
# 4 0.0100 0.0028 0.0037 28.6049 -0.0097 3.1754
# 5 -3.4713 9.0652 10.7018 -0.0097 27.5447 0.0098
# 6 -0.0263 -0.0244 -0.0053 3.1754 0.0098 19.3268
#
#
#
# Elastic Compliance Matrix: (Units=1/GPa)
#
#
# Indices 1 2 3 4 5 6 
#
# 1 0.021506 -0.003120 0.000172 -0.000009 0.003670 0.000025
# 2 -0.003120 0.013890 -0.007447 -0.000001 -0.002071 0.000013
# 3 0.000172 -0.007447 0.015550 -0.000002 -0.003569 -0.000003
# 4 -0.000009 -0.000001 -0.000002 0.035608 0.000015 -0.005851
# 5 0.003670 -0.002071 -0.003569 0.000015 0.038835 -0.000021
# 6 0.000025 0.000013 -0.000003 -0.005851 -0.000021 0.052703
#
#
# Mechanical properties :
#
#
# Convention : Reuss Voigt Hill
#
# Bulk Modulus (GPa) = 33.16134 42.69177 37.92655
# Shear Modulus (GPa) = 23.93088 26.73919 25.33503
#
# Velocity S-wave (km/s) = 3.24008 3.42492 3.33378
# Velocity P-wave (km/s) = 5.34274 5.86246 5.60862
#
# Compressibility (1/GPa) = 0.03015560
#
# Stress axis : x y z
#
# Youngs Moduli (GPa) = 46.49788 71.99472 64.30973
#
# Poissons Ratio (x) = 0.22460 -0.01105
# Poissons Ratio (y) = 0.14506 0.47893
# Poissons Ratio (z) = -0.00799 0.53616
#
# Static dielectric constant tensor:
#      x y z
#    x 1.886470 0.000020 0.048220 
#    y 0.000020 2.040100 0.000120 
#    z 0.048220 0.000120 1.975080 
# 
# From -- ./inp_files/164226.got.cif
#   From: 2010.05.17/outbox.cif.g08.bks.cpg/sg15_83_cif.got.tgz:164226.got - 2010.06.03 18:47:42.
