data_PCOD9289565
_publ_section_title
;
Structure prediction by ZEFSAII (Michael W. Deem and Ramdas Pophale) SiO2 
 PCOD9289565
Probable space group: C 2/C
;
_chemical_formula_sum "Si O2"
_cell_formula_units_Z 52
_cell_length_a 18.779121
_cell_length_b 14.763627
_cell_length_c 13.611170
_cell_angle_alpha 90.000000
_cell_angle_beta 142.506276
_cell_angle_gamma 90.000000
_cell_volume 2296.936069
_symmetry_space_group_name_H-M "C 2/C"
_symmetry_group_IT_number 15
_symmetry_cell_setting 'monoclinic'
loop_
_space_group_symop_operation_xyz
x,y,z
-x,y,1/2-z
-x,-y,-z
x,-y,1/2+z
1/2+x,1/2+y,z
1/2-x,1/2+y,1/2-z
1/2-x,1/2-y,-z
1/2+x,1/2-y,1/2+z
loop_
_atom_site_type_symbol
_atom_site_label
_atom_site_fract_x
_atom_site_fract_y
_atom_site_fract_z
Si Si1 0.101092 0.242913 0.930938
Si Si2 0.175719 0.037922 0.689337
Si Si3 0.623143 0.337943 0.863694
Si Si4 0.760230 0.898315 0.036460
Si Si5 0.551343 0.352363 0.568740
Si Si6 0.836385 0.447303 0.191395
Si Si7 0.500000 0.165444 0.750000
O O1 0.145044 0.149721 0.928778
O O2 0.000000 0.278205 0.750000
O O3 0.202634 0.316139 0.033950
O O4 0.059143 0.223189 0.994158
O O5 0.189974 0.039335 0.822473
O O6 0.295696 0.046794 0.759661
O O7 0.082631 0.116628 0.560811
O O8 0.115540 0.942472 0.598935
O O9 0.500000 0.389511 0.750000
O O10 0.617064 0.324197 0.740008
O O11 0.601857 0.238166 0.887450
O O12 0.731525 0.389920 0.025718
O O13 0.673556 0.955510 0.872829
O O14 0.954751 0.396899 0.289106
#
# Coordination Sequence:
#
# PCOD9289565 Si02
#       7
#     8   8   8   8   8   8   4
#     4  11  24  44  65  94 140 176 229 272 330 398
#     4  11  22  38  68  99 127 165 228 280 326 399
#     4  10  22  40  65  99 126 166 213 279 335 393
#     4  11  25  41  65  98 131 185 216 277 333 398
#     4  11  21  38  68 101 123 168 221 283 330 384
#     4  12  23  45  66  95 136 172 229 273 342 412
#     4  10  26  42  64  92 132 184 204 272 350 402
#
# _framework density 22.638853999999998
#
# number of rings (size 3 to 8) (size 9 to 14) (size 15 to 20)
#    0.462    0.615    6.154    0.462    3.231    0.615 
#    0.000    2.308    0.000    0.000    0.000    0.000 
#    0.000    0.000    0.000    0.000    0.000    0.000 
#
# Total GULP energy -145187.827018 kJ/mol
# GULP energy per Si atom -5584.147193 kJ/mol
# Density = 2.258733 g / cm^3
# Si number density = 22.638854 Si / 1000 Ang^3
#
#
#
# Elastic Constant Matrix: (Units=GPa)
#
#
# Indices 1 2 3 4 5 6 
#
# 1 110.4852 23.7574 7.0985 0.0000 -0.5908 0.0000
# 2 23.7574 43.7719 -5.1340 0.0000 12.3029 0.0000
# 3 7.0985 -5.1340 27.1425 0.0000 -12.7964 0.0000
# 4 0.0000 0.0000 0.0000 3.1468 0.0000 2.2300
# 5 -0.5908 12.3029 -12.7964 0.0000 22.1332 0.0000
# 6 0.0000 0.0000 0.0000 2.2300 0.0000 27.8662
#
#
#
# Elastic Compliance Matrix: (Units=1/GPa)
#
#
# Indices 1 2 3 4 5 6 
#
# 1 0.010725 -0.006834 -0.002985 0.000000 0.002359 0.000000
# 2 -0.006834 0.031577 -0.000826 0.000000 -0.018212 0.000000
# 3 -0.002985 -0.000826 0.051752 0.000000 0.030301 0.000000
# 4 0.000000 0.000000 0.000000 0.336888 0.000000 -0.026960
# 5 0.002359 -0.018212 0.030301 0.000000 0.072886 0.000000
# 6 0.000000 0.000000 0.000000 -0.026960 0.000000 0.038043
#
#
# Mechanical properties :
#
#
# Convention : Reuss Voigt Hill
#
# Bulk Modulus (GPa) = 13.74329 25.87151 19.80740
# Shear Modulus (GPa) = 8.51183 21.00774 14.75979
#
# Velocity S-wave (km/s) = 1.94113 3.04953 2.55613
# Velocity P-wave (km/s) = 3.33284 4.88388 4.18092
#
# Compressibility (1/GPa) = 0.07276279
#
# Stress axis : x y z
#
# Youngs Moduli (GPa) = 93.24047 31.66857 19.32279
#
# Poissons Ratio (x) = 0.21643 0.05768
# Poissons Ratio (y) = 0.63723 0.01596
# Poissons Ratio (z) = 0.27835 0.02617
#
# Static dielectric constant tensor:
#      x y z
#    x 1.878560 0.000000 0.035560 
#    y 0.000000 1.868350 0.000000 
#    z 0.035560 0.000000 1.848800 
# 
# From -- ./inp_files/162600.got.cif
#   From: 2010.05.17/outbox.cif.g08.bks.cpg/sg15_82_cif.got.tgz:162600.got - 2010.06.03 18:47:42.
