data_PCOD9289020
_publ_section_title
;
Structure prediction by ZEFSAII (Michael W. Deem and Ramdas Pophale) SiO2 
 PCOD9289020
Probable space group: C 2/C
;
_chemical_formula_sum "Si O2"
_cell_formula_units_Z 40
_cell_length_a 12.928585
_cell_length_b 31.587867
_cell_length_c 12.558303
_cell_angle_alpha 90.000000
_cell_angle_beta 22.432839
_cell_angle_gamma 90.000000
_cell_volume 1957.090303
_symmetry_space_group_name_H-M "C 2/C"
_symmetry_group_IT_number 15
_symmetry_cell_setting 'monoclinic'
loop_
_space_group_symop_operation_xyz
x,y,z
-x,y,1/2-z
-x,-y,-z
x,-y,1/2+z
1/2+x,1/2+y,z
1/2-x,1/2+y,1/2-z
1/2-x,1/2-y,-z
1/2+x,1/2-y,1/2+z
loop_
_atom_site_type_symbol
_atom_site_label
_atom_site_fract_x
_atom_site_fract_y
_atom_site_fract_z
Si Si1 0.272719 0.852798 0.128495
Si Si2 0.000000 0.911181 0.750000
Si Si3 0.500000 0.419391 0.250000
Si Si4 0.500000 0.217479 0.250000
Si Si5 0.272036 0.527711 0.158746
Si Si6 0.285693 0.618923 0.239756
Si Si7 0.000000 0.526007 0.750000
O O1 0.232466 0.889615 0.078451
O O2 0.980819 0.857763 0.466697
O O3 0.402343 0.814152 0.938396
O O4 0.492594 0.860642 0.010224
O O5 0.072334 0.882510 0.782096
O O6 0.244556 0.943093 0.492907
O O7 0.401791 0.450079 0.433773
O O8 0.250000 0.250000 0.500000
O O9 0.217793 0.569367 0.280018
O O10 0.030800 0.501217 0.331097
O O11 0.500000 0.500000 0.000000
#
# Coordination Sequence:
#
# PCOD9289020 Si02
#       7
#     8   4   4   4   8   8   4
#     4  11  23  43  66  92 135 167 200 245 328 411
#     4  12  25  40  60  85 118 169 232 287 313 368
#     4  10  22  40  56  86 123 180 216 259 328 390
#     4  12  23  41  74 115 136 152 188 250 315 402
#     4  11  22  36  55  82 114 169 222 289 335 361
#     4  11  24  41  60  88 123 178 223 265 323 380
#     4  12  24  39  54  82 119 159 232 308 346 358
#
# _framework density 20.438506
#
# number of rings (size 3 to 8) (size 9 to 14) (size 15 to 20)
#    0.000    0.800    2.000    7.200    2.800    2.400 
#    0.000    0.000    0.000    0.000    0.000   14.000 
#    0.000    0.000    0.000    0.000    0.000    0.000 
#
# Total GULP energy -111478.544576 kJ/mol
# GULP energy per Si atom -5573.927229 kJ/mol
# Density = 2.039199 g / cm^3
# Si number density = 20.438506 Si / 1000 Ang^3
#
#
#
# Elastic Constant Matrix: (Units=GPa)
#
#
# Indices 1 2 3 4 5 6 
#
# 1 116.5252 22.5681 5.8390 -0.0002 -12.4549 0.0002
# 2 22.5681 68.0974 23.1959 -0.0001 -2.7496 0.0002
# 3 5.8390 23.1959 102.5384 0.0002 -18.9830 0.0000
# 4 -0.0002 -0.0001 0.0002 33.9146 0.0000 10.1114
# 5 -12.4549 -2.7496 -18.9830 0.0000 32.9483 -0.0001
# 6 0.0002 0.0002 0.0000 10.1114 -0.0001 9.1513
#
#
#
# Elastic Compliance Matrix: (Units=1/GPa)
#
#
# Indices 1 2 3 4 5 6 
#
# 1 0.009597 -0.003340 0.000928 0.000000 0.003884 0.000000
# 2 -0.003340 0.017094 -0.004082 0.000000 -0.002188 0.000000
# 3 0.000928 -0.004082 0.011893 0.000000 0.006863 0.000000
# 4 0.000000 0.000000 0.000000 0.043971 0.000000 -0.048584
# 5 0.003884 -0.002188 0.006863 0.000000 0.035590 0.000000
# 6 0.000000 0.000000 0.000000 -0.048584 0.000000 0.162956
#
#
# Mechanical properties :
#
#
# Convention : Reuss Voigt Hill
#
# Bulk Modulus (GPa) = 39.06661 43.37412 41.22037
# Shear Modulus (GPa) = 16.52234 30.90670 23.71452
#
# Velocity S-wave (km/s) = 2.84631 3.89289 3.40999
# Velocity P-wave (km/s) = 5.47336 6.44003 5.97627
#
# Compressibility (1/GPa) = 0.02559731
#
# Stress axis : x y z
#
# Youngs Moduli (GPa) = 104.19568 58.50093 84.08024
#
# Poissons Ratio (x) = 0.19539 -0.07803
# Poissons Ratio (y) = 0.34801 0.34319
# Poissons Ratio (z) = -0.09670 0.23878
#
# Static dielectric constant tensor:
#      x y z
#    x 1.918960 0.000000 0.089760 
#    y 0.000000 1.751530 0.000000 
#    z 0.089760 0.000000 1.859120 
# 
# From -- ./inp_files/157188.got.cif
#   From: 2010.05.17/outbox.cif.g08.bks.cpg/sg15_79_cif.got.tgz:157188.got - 2010.06.03 18:47:42.
