data_PCOD9289184
_publ_section_title
;
Structure prediction by ZEFSAII (Michael W. Deem and Ramdas Pophale) SiO2 
 PCOD9289184
Probable space group: C 2/C
;
_chemical_formula_sum "Si O2"
_cell_formula_units_Z 36
_cell_length_a 17.271195
_cell_length_b 17.955479
_cell_length_c 8.182986
_cell_angle_alpha 90.000000
_cell_angle_beta 39.800253
_cell_angle_gamma 90.000000
_cell_volume 1624.380999
_symmetry_space_group_name_H-M "C 2/C"
_symmetry_group_IT_number 15
_symmetry_cell_setting 'monoclinic'
loop_
_space_group_symop_operation_xyz
x,y,z
-x,y,1/2-z
-x,-y,-z
x,-y,1/2+z
1/2+x,1/2+y,z
1/2-x,1/2+y,1/2-z
1/2-x,1/2-y,-z
1/2+x,1/2-y,1/2+z
loop_
_atom_site_type_symbol
_atom_site_label
_atom_site_fract_x
_atom_site_fract_y
_atom_site_fract_z
Si Si1 0.220087 0.850980 0.701103
Si Si2 0.617803 0.201599 0.866873
Si Si3 0.650629 0.143615 0.161576
Si Si4 0.178085 0.974249 0.219766
Si Si5 0.000000 0.017140 0.250000
O O1 0.308267 0.828638 0.408171
O O2 0.111203 0.791335 0.864264
O O3 0.281396 0.839769 0.779371
O O4 0.190774 0.937981 0.731694
O O5 0.678447 0.186120 0.946066
O O6 0.489700 0.159902 0.079584
O O7 0.696777 0.060971 0.038212
O O8 0.108750 0.938754 0.487095
O O9 0.075198 0.966124 0.250592
#
# Coordination Sequence:
#
# PCOD9289184 Si02
#       5
#     8   8   8   8   4
#     4  11  23  46  69 103 142 187 232 287 347 426
#     4  10  25  44  67 104 143 188 229 281 360 415
#     4  11  23  46  71 103 137 186 235 291 342 423
#     4  11  22  42  68 102 133 180 241 291 348 405
#     4  10  22  40  62 102 134 178 224 302 340 412
#
# _framework density 22.162289999999999
#
# number of rings (size 3 to 8) (size 9 to 14) (size 15 to 20)
#    0.000    1.333    2.222    2.667    0.000    2.667 
#   20.000    0.000    0.000    0.000    0.000    0.000 
#    0.000    0.000    0.000    0.000    0.000    0.000 
#
# Total GULP energy -100281.137427 kJ/mol
# GULP energy per Si atom -5571.174301 kJ/mol
# Density = 2.211185 g / cm^3
# Si number density = 22.162290 Si / 1000 Ang^3
#
#
#
# Elastic Constant Matrix: (Units=GPa)
#
#
# Indices 1 2 3 4 5 6 
#
# 1 103.2309 47.8693 42.9827 0.0000 14.4114 0.0000
# 2 47.8693 139.5265 67.3989 0.0000 -17.5246 0.0000
# 3 42.9827 67.3989 123.8582 0.0000 -3.4537 0.0000
# 4 0.0000 0.0000 0.0000 22.3850 0.0000 -9.4910
# 5 14.4114 -17.5246 -3.4537 0.0000 35.6732 0.0000
# 6 0.0000 0.0000 0.0000 -9.4910 0.0000 13.6145
#
#
#
# Elastic Compliance Matrix: (Units=1/GPa)
#
#
# Indices 1 2 3 4 5 6 
#
# 1 0.014039 -0.004585 -0.002605 0.000000 -0.008176 0.000000
# 2 -0.004585 0.011917 -0.004692 0.000000 0.007253 0.000000
# 3 -0.002605 -0.004692 0.011527 0.000000 -0.000136 0.000000
# 4 0.000000 0.000000 0.000000 0.063417 0.000000 0.044209
# 5 -0.008176 0.007253 -0.000136 0.000000 0.034885 0.000000
# 6 0.000000 0.000000 0.000000 0.044209 0.000000 0.104270
#
#
# Mechanical properties :
#
#
# Convention : Reuss Voigt Hill
#
# Bulk Modulus (GPa) = 72.88562 75.90192 74.39377
# Shear Modulus (GPa) = 18.62939 28.22553 23.42746
#
# Velocity S-wave (km/s) = 2.90244 3.57260 3.25481
# Velocity P-wave (km/s) = 6.64762 7.16523 6.91127
#
# Compressibility (1/GPa) = 0.01372013
#
# Stress axis : x y z
#
# Youngs Moduli (GPa) = 71.22827 83.91063 86.75361
#
# Poissons Ratio (x) = 0.38476 0.22599
# Poissons Ratio (y) = 0.32660 0.40701
# Poissons Ratio (z) = 0.18555 0.39367
#
# Static dielectric constant tensor:
#      x y z
#    x 1.847680 0.000000 0.071180 
#    y 0.000000 1.841790 0.000000 
#    z 0.071180 0.000000 1.886970 
# 
# From -- ./inp_files/48271.got.cif
#   From: 2010.05.17/outbox.cif.g08.bks.cpg/sg15_25_cif.got.tgz:48271.got - 2010.06.03 18:47:42.
