data_PCOD9289456
_publ_section_title
;
Structure prediction by ZEFSAII (Michael W. Deem and Ramdas Pophale) SiO2 
 PCOD9289456
Probable space group: C 2/C
;
_chemical_formula_sum "Si O2"
_cell_formula_units_Z 56
_cell_length_a 26.844101
_cell_length_b 5.146907
_cell_length_c 16.938911
_cell_angle_alpha 90.000000
_cell_angle_beta 67.950309
_cell_angle_gamma 90.000000
_cell_volume 2169.172874
_symmetry_space_group_name_H-M "C 2/C"
_symmetry_group_IT_number 15
_symmetry_cell_setting 'monoclinic'
loop_
_space_group_symop_operation_xyz
x,y,z
-x,y,1/2-z
-x,-y,-z
x,-y,1/2+z
1/2+x,1/2+y,z
1/2-x,1/2+y,1/2-z
1/2-x,1/2-y,-z
1/2+x,1/2-y,1/2+z
loop_
_atom_site_type_symbol
_atom_site_label
_atom_site_fract_x
_atom_site_fract_y
_atom_site_fract_z
Si Si1 0.496736 0.294052 0.911379
Si Si2 0.000000 0.490351 0.750000
Si Si3 0.677332 0.779237 0.477933
Si Si4 0.832625 0.998524 0.353966
Si Si5 0.912822 0.570236 0.065086
Si Si6 0.250000 0.750000 0.500000
Si Si7 0.254878 0.133831 0.301907
Si Si8 0.077790 0.847318 0.292569
O O1 0.524267 0.560387 0.870320
O O2 0.487370 0.156145 0.834111
O O3 0.542493 0.134426 0.931246
O O4 0.442823 0.282690 0.993141
O O5 0.946984 0.327013 0.761050
O O6 0.656618 0.616692 0.564792
O O7 0.708571 0.594137 0.396951
O O8 0.630962 0.925773 0.459787
O O9 0.720157 0.990286 0.482541
O O10 0.803078 0.776528 0.320156
O O11 0.885625 0.061024 0.271516
O O12 0.794259 0.233086 0.400048
O O13 0.890474 0.700988 0.157392
O O14 0.236356 0.369093 0.252788
#
# Coordination Sequence:
#
# PCOD9289456 Si02
#       8
#     8   4   8   8   8   4   8   8
#     4  10  22  41  67 100 136 179 224 290 349 431
#     4  10  22  40  64  96 138 174 230 282 348 418
#     4  11  25  44  70  97 142 187 242 295 369 436
#     4  11  26  43  69  98 138 184 241 297 361 441
#     4  10  23  42  66  98 140 175 233 288 358 427
#     4  10  24  42  64  92 130 178 236 292 354 422
#     4  11  26  44  74 104 147 192 245 309 371 439
#     4  11  23  41  68 101 133 183 234 286 359 427
#
# _framework density 25.816292000000001
#
# number of rings (size 3 to 8) (size 9 to 14) (size 15 to 20)
#    0.000    1.429    0.000    4.286   10.000    5.714 
#    0.000    0.000    0.000    0.000    0.000    0.000 
#    0.000    0.000    0.000    0.000    0.000    0.000 
#
# Total GULP energy -156380.197140 kJ/mol
# GULP energy per Si atom -5585.007041 kJ/mol
# Density = 2.575753 g / cm^3
# Si number density = 25.816292 Si / 1000 Ang^3
#
#
#
# Elastic Constant Matrix: (Units=GPa)
#
#
# Indices 1 2 3 4 5 6 
#
# 1 73.0168 21.6916 65.0234 0.0000 19.7977 0.0000
# 2 21.6916 65.9469 16.3838 0.0005 14.3998 0.0002
# 3 65.0234 16.3838 130.2742 0.0001 1.5602 0.0001
# 4 0.0000 0.0005 0.0001 51.6003 0.0000 28.3868
# 5 19.7977 14.3998 1.5602 0.0000 40.9054 0.0000
# 6 0.0000 0.0002 0.0001 28.3868 0.0000 49.3128
#
#
#
# Elastic Compliance Matrix: (Units=1/GPa)
#
#
# Indices 1 2 3 4 5 6 
#
# 1 0.032356 -0.003791 -0.015509 0.000000 -0.013734 0.000000
# 2 -0.003791 0.017407 -0.000246 0.000000 -0.004284 0.000000
# 3 -0.015509 -0.000246 0.015364 0.000000 0.007006 0.000000
# 4 0.000000 0.000000 0.000000 0.028361 0.000000 -0.016326
# 5 -0.013734 -0.004284 0.007006 0.000000 0.032334 0.000000
# 6 0.000000 0.000000 0.000000 -0.016326 0.000000 0.029677
#
#
# Mechanical properties :
#
#
# Convention : Reuss Voigt Hill
#
# Bulk Modulus (GPa) = 38.40750 52.82618 45.61684
# Shear Modulus (GPa) = 24.59790 39.43966 32.01878
#
# Velocity S-wave (km/s) = 3.09010 3.91283 3.52555
# Velocity P-wave (km/s) = 5.25749 6.39690 5.85498
#
# Compressibility (1/GPa) = 0.02603658
#
# Stress axis : x y z
#
# Youngs Moduli (GPa) = 30.90573 57.44798 65.08746
#
# Poissons Ratio (x) = 0.21779 1.00942
# Poissons Ratio (y) = 0.11716 0.01599
# Poissons Ratio (z) = 0.47931 0.01411
#
# Static dielectric constant tensor:
#      x y z
#    x 2.127060 0.000000 -0.022150 
#    y 0.000000 2.013280 0.000000 
#    z -0.022150 0.000000 2.004860 
# 
# From -- ./inp_files/221248.got.cif
#   From: 2010.05.17/outbox.cif.g08.bks.cpg/sg15_111_cif.got.tgz:221248.got - 2010.06.03 18:47:42.
