data_PCOD9289755
_publ_section_title
;
Structure prediction by ZEFSAII (Michael W. Deem and Ramdas Pophale) SiO2 
 PCOD9289755
Probable space group: C 2/C
;
_chemical_formula_sum "Si O2"
_cell_formula_units_Z 44
_cell_length_a 15.931756
_cell_length_b 17.401190
_cell_length_c 10.115865
_cell_angle_alpha 90.000000
_cell_angle_beta 130.843015
_cell_angle_gamma 90.000000
_cell_volume 2121.568275
_symmetry_space_group_name_H-M "C 2/C"
_symmetry_group_IT_number 15
_symmetry_cell_setting 'monoclinic'
loop_
_space_group_symop_operation_xyz
x,y,z
-x,y,1/2-z
-x,-y,-z
x,-y,1/2+z
1/2+x,1/2+y,z
1/2-x,1/2+y,1/2-z
1/2-x,1/2-y,-z
1/2+x,1/2-y,1/2+z
loop_
_atom_site_type_symbol
_atom_site_label
_atom_site_fract_x
_atom_site_fract_y
_atom_site_fract_z
Si Si1 0.503836 0.062701 0.613857
Si Si2 0.257651 0.887853 0.859564
Si Si3 0.113253 0.037399 0.673543
Si Si4 0.304726 0.726353 0.416494
Si Si5 0.239497 0.645979 0.848954
Si Si6 0.500000 0.657198 0.750000
O O1 0.500000 0.020545 0.750000
O O2 0.390613 0.109867 0.492189
O O3 0.615396 0.111268 0.721558
O O4 0.500000 0.000000 0.500000
O O5 0.224819 0.853911 0.684129
O O6 0.196653 0.970448 0.808935
O O7 0.227950 0.841402 0.963653
O O8 0.176300 0.083546 0.623693
O O9 0.080569 0.099769 0.751900
O O10 0.000000 0.000000 0.500000
O O11 0.250000 0.750000 0.500000
O O12 0.268208 0.785588 0.264901
O O13 0.433725 0.713080 0.582836
#
# Coordination Sequence:
#
# PCOD9289755 Si02
#       6
#     8   8   8   8   8   4
#     4  10  22  40  67  99 131 172 229 282 338 408
#     4  11  25  45  71 101 139 185 238 287 351 421
#     4  12  23  44  73 103 143 181 239 295 347 421
#     4  12  27  46  68  99 145 186 235 290 353 430
#     4  11  25  44  69 102 140 187 228 292 356 415
#     4  12  26  46  68 110 138 190 240 288 364 416
#
# _framework density 20.739374999999999
#
# number of rings (size 3 to 8) (size 9 to 14) (size 15 to 20)
#    0.000    0.727    5.455    1.636    2.545    1.455 
#    0.000    0.000    0.000    0.000    0.000    0.000 
#    0.000    0.000    0.000    0.000    0.000    0.000 
#
# Total GULP energy -122717.625697 kJ/mol
# GULP energy per Si atom -5578.073895 kJ/mol
# Density = 2.069217 g / cm^3
# Si number density = 20.739375 Si / 1000 Ang^3
#
#
#
# Elastic Constant Matrix: (Units=GPa)
#
#
# Indices 1 2 3 4 5 6 
#
# 1 105.6339 20.9919 27.4544 0.0000 -7.0321 0.0000
# 2 20.9919 51.0048 6.4549 0.0000 -10.1294 0.0000
# 3 27.4544 6.4549 92.9608 0.0000 -15.1204 0.0000
# 4 0.0000 0.0000 0.0000 33.8051 0.0000 -6.7832
# 5 -7.0321 -10.1294 -15.1204 0.0000 51.6454 0.0000
# 6 0.0000 0.0000 0.0000 -6.7832 0.0000 26.6329
#
#
#
# Elastic Compliance Matrix: (Units=1/GPa)
#
#
# Indices 1 2 3 4 5 6 
#
# 1 0.011074 -0.004216 -0.003010 0.000000 -0.000201 0.000000
# 2 -0.004216 0.022063 0.000340 0.000000 0.003853 0.000000
# 3 -0.003010 0.000340 0.012145 0.000000 0.003213 0.000000
# 4 0.000000 0.000000 0.000000 0.031175 0.000000 0.007940
# 5 -0.000201 0.003853 0.003213 0.000000 0.021032 0.000000
# 6 0.000000 0.000000 0.000000 0.007940 0.000000 0.039570
#
#
# Mechanical properties :
#
#
# Convention : Reuss Voigt Hill
#
# Bulk Modulus (GPa) = 31.73716 39.93352 35.83534
# Shear Modulus (GPa) = 30.99149 35.39657 33.19403
#
# Velocity S-wave (km/s) = 3.86985 4.13574 4.00500
# Velocity P-wave (km/s) = 5.94169 6.48865 6.22119
#
# Compressibility (1/GPa) = 0.03150881
#
# Stress axis : x y z
#
# Youngs Moduli (GPa) = 90.30518 45.32375 82.33721
#
# Poissons Ratio (x) = 0.19110 0.24785
# Poissons Ratio (y) = 0.38076 -0.02799
# Poissons Ratio (z) = 0.27184 -0.01541
#
# Static dielectric constant tensor:
#      x y z
#    x 1.667910 0.000000 -0.068550 
#    y 0.000000 1.751490 0.000000 
#    z -0.068550 0.000000 1.708820 
# 
# From -- ./inp_files/39725.got.cif
#   From: 2010.05.17/outbox.cif.g08.bks.cpg/sg15_20_cif.got.tgz:39725.got - 2010.06.03 18:47:42.
