data_PCOD9289036
_publ_section_title
;
Structure prediction by ZEFSAII (Michael W. Deem and Ramdas Pophale) SiO2 
 PCOD9289036
Probable space group: C 2/C
;
_chemical_formula_sum "Si O2"
_cell_formula_units_Z 60
_cell_length_a 17.450706
_cell_length_b 23.935610
_cell_length_c 9.602365
_cell_angle_alpha 90.000000
_cell_angle_beta 123.384626
_cell_angle_gamma 90.000000
_cell_volume 3349.036407
_symmetry_space_group_name_H-M "C 2/C"
_symmetry_group_IT_number 15
_symmetry_cell_setting 'monoclinic'
loop_
_space_group_symop_operation_xyz
x,y,z
-x,y,1/2-z
-x,-y,-z
x,-y,1/2+z
1/2+x,1/2+y,z
1/2-x,1/2+y,1/2-z
1/2-x,1/2-y,-z
1/2+x,1/2-y,1/2+z
loop_
_atom_site_type_symbol
_atom_site_label
_atom_site_fract_x
_atom_site_fract_y
_atom_site_fract_z
Si Si1 0.392022 0.712670 0.303411
Si Si2 0.751482 0.111474 0.165269
Si Si3 0.144559 1.000000 0.144559
Si Si4 0.500000 0.480287 0.250000
Si Si5 0.107978 0.787330 0.019366
Si Si6 0.609477 0.822835 0.022593
Si Si7 0.609477 0.177165 0.196361
Si Si8 0.748518 0.388526 0.162306
O O1 0.329919 0.658769 0.265983
O O2 0.378772 0.730440 0.128772
O O3 0.500000 0.698775 0.428879
O O4 0.368909 0.763838 0.381015
O O5 0.666092 0.129988 0.173343
O O6 0.793458 0.052361 0.248718
O O7 0.727977 0.112261 0.977977
O O8 0.206542 0.947639 0.161802
O O9 0.079898 0.982804 0.208101
O O10 0.079898 0.017196 0.951696
O O11 0.131091 0.736162 0.143196
O O12 0.170081 0.841231 0.106145
O O13 0.666092 0.870012 0.158840
O O14 0.500000 0.831115 0.926502
O O15 0.632671 0.820793 0.882671
#
# Coordination Sequence:
#
# PCOD9289036 Si02
#       8
#     8   8   8   4   8   8   8   8
#     4   9  19  35  58  85 117 155 192 232 288 352
#     4  11  23  38  60  87 118 155 200 240 285 350
#     4  11  24  42  61  92 120 158 195 236 285 350
#     4  10  24  42  64  82 130 158 192 234 288 336
#     4   9  19  35  58  85 117 155 192 232 288 352
#     4  10  22  40  58  84 117 152 194 248 298 344
#     4  10  22  40  58  84 117 152 194 248 298 344
#     4  11  23  38  60  87 118 155 200 240 285 350
#
# _framework density 17.915600999999999
#
# number of rings (size 3 to 8) (size 9 to 14) (size 15 to 20)
#    0.000    1.867    1.333    1.600    5.600    5.867 
#    0.000    0.667    0.000    0.000    0.000    0.000 
#    0.000    0.000    0.000    0.000    0.000    0.000 
#
# Total GULP energy -167037.947495 kJ/mol
# GULP energy per Si atom -5567.931583 kJ/mol
# Density = 1.787482 g / cm^3
# Si number density = 17.915601 Si / 1000 Ang^3
#
#
#
# Elastic Constant Matrix: (Units=GPa)
#
#
# Indices 1 2 3 4 5 6 
#
# 1 87.0744 52.3513 50.0400 0.0000 -17.2728 0.0000
# 2 52.3513 90.3286 51.8064 0.0000 0.4719 0.0000
# 3 50.0400 51.8064 115.9271 0.0000 -7.7150 0.0000
# 4 0.0000 0.0000 0.0000 3.0794 0.0000 -4.1570
# 5 -17.2728 0.4719 -7.7150 0.0000 20.2125 0.0000
# 6 0.0000 0.0000 0.0000 -4.1570 0.0000 -1.7208
#
#
#
# Elastic Compliance Matrix: (Units=1/GPa)
#
#
# Indices 1 2 3 4 5 6 
#
# 1 0.025355 -0.012511 -0.003993 0.000000 0.020436 0.000000
# 2 -0.012511 0.021235 -0.004959 0.000000 -0.013081 0.000000
# 3 -0.003993 -0.004959 0.012669 0.000000 0.001539 0.000000
# 4 0.000000 0.000000 0.000000 0.076210 0.000000 -0.184105
# 5 0.020436 -0.013081 0.001539 0.000000 0.067831 0.000000
# 6 0.000000 0.000000 0.000000 -0.184105 0.000000 -0.136379
#
#
# Mechanical properties :
#
#
# Convention : Reuss Voigt Hill
#
# Bulk Modulus (GPa) = 61.23736 66.85840 64.04788
# Shear Modulus (GPa) = 43.36782 13.58969 28.47875
#
# Velocity S-wave (km/s) = 4.92537 2.75715 3.99131
# Velocity P-wave (km/s) = 8.16094 6.89459 7.55435
#
# Compressibility (1/GPa) = 0.01632990
#
# Stress axis : x y z
#
# Youngs Moduli (GPa) = 39.43937 47.09284 78.93536
#
# Poissons Ratio (x) = 0.58920 0.31522
# Poissons Ratio (y) = 0.49344 0.39148
# Poissons Ratio (z) = 0.15750 0.23355
#
# Static dielectric constant tensor:
#      x y z
#    x 1.609830 0.000000 0.005430 
#    y 0.000000 1.589150 0.000000 
#    z 0.005430 0.000000 1.603570 
# 
# From -- ./inp_files/51537.got.cif
#   From: 2010.05.17/outbox.cif.g08.bks.cpg/sg15_26_cif.got.tgz:51537.got - 2010.06.03 18:47:42.
