data_PCOD9289549
_publ_section_title
;
Structure prediction by ZEFSAII (Michael W. Deem and Ramdas Pophale) SiO2 
 PCOD9289549
Probable space group: C 2/C
;
_chemical_formula_sum "Si O2"
_cell_formula_units_Z 40
_cell_length_a 8.137595
_cell_length_b 23.281695
_cell_length_c 10.463183
_cell_angle_alpha 90.000000
_cell_angle_beta 60.190150
_cell_angle_gamma 90.000000
_cell_volume 1720.022298
_symmetry_space_group_name_H-M "C 2/C"
_symmetry_group_IT_number 15
_symmetry_cell_setting 'monoclinic'
loop_
_space_group_symop_operation_xyz
x,y,z
-x,y,1/2-z
-x,-y,-z
x,-y,1/2+z
1/2+x,1/2+y,z
1/2-x,1/2+y,1/2-z
1/2-x,1/2-y,-z
1/2+x,1/2-y,1/2+z
loop_
_atom_site_type_symbol
_atom_site_label
_atom_site_fract_x
_atom_site_fract_y
_atom_site_fract_z
Si Si1 0.430538 0.359035 0.561620
Si Si2 0.450443 0.459109 0.135260
Si Si3 0.087723 0.234190 0.843612
Si Si4 0.709371 0.148622 0.393220
Si Si5 0.861884 0.371445 0.187201
O O1 0.423218 0.403065 0.447008
O O2 0.437735 0.295870 0.497383
O O3 0.631604 0.365336 0.561140
O O4 0.278078 0.372067 0.728330
O O5 0.500000 0.487607 0.250000
O O6 0.245225 0.430441 0.235971
O O7 0.500000 0.500000 0.000000
O O8 0.198006 0.282492 0.879396
O O9 0.215020 0.181303 0.743166
O O10 0.000000 0.261283 0.750000
O O11 0.503499 0.126581 0.513075
O O12 0.000000 0.356700 0.250000
#
# Coordination Sequence:
#
# PCOD9289549 Si02
#       5
#     8   8   8   8   8
#     4  10  22  40  65  96 138 178 225 282 340 394
#     4  11  26  48  75  96 130 174 221 292 363 399
#     4  11  23  38  60  99 147 192 221 269 333 399
#     4  11  22  36  68  98 140 180 231 269 332 401
#     4  11  22  41  69  98 138 179 236 277 327 413
#
# _framework density 23.255513000000001
#
# number of rings (size 3 to 8) (size 9 to 14) (size 15 to 20)
#    0.000    1.200    4.000    4.200    5.600    4.800 
#    0.000    4.000    0.000    0.000    0.000    0.000 
#    0.000    0.000    0.000    0.000    0.000    0.000 
#
# Total GULP energy -111760.631844 kJ/mol
# GULP energy per Si atom -5588.031592 kJ/mol
# Density = 2.320258 g / cm^3
# Si number density = 23.255513 Si / 1000 Ang^3
#
#
#
# Elastic Constant Matrix: (Units=GPa)
#
#
# Indices 1 2 3 4 5 6 
#
# 1 61.5933 15.9667 41.8138 0.0000 -0.9090 0.0000
# 2 15.9667 62.9597 27.0370 0.0000 -8.8071 0.0000
# 3 41.8138 27.0370 203.7577 0.0000 -19.8502 0.0000
# 4 0.0000 0.0000 0.0000 37.8187 0.0000 12.4890
# 5 -0.9090 -8.8071 -19.8502 0.0000 45.7121 0.0000
# 6 0.0000 0.0000 0.0000 12.4890 0.0000 12.7583
#
#
#
# Elastic Compliance Matrix: (Units=1/GPa)
#
#
# Indices 1 2 3 4 5 6 
#
# 1 0.019698 -0.003658 -0.003746 0.000000 -0.001940 0.000000
# 2 -0.003658 0.017773 -0.001338 0.000000 0.002771 0.000000
# 3 -0.003746 -0.001338 0.006079 0.000000 0.002307 0.000000
# 4 0.000000 0.000000 0.000000 0.039073 0.000000 -0.038248
# 5 -0.001940 0.002771 0.002307 0.000000 0.023373 0.000000
# 6 0.000000 0.000000 0.000000 -0.038248 0.000000 0.115821
#
#
# Mechanical properties :
#
#
# Convention : Reuss Voigt Hill
#
# Bulk Modulus (GPa) = 38.36375 55.32731 46.84553
# Shear Modulus (GPa) = 20.16220 35.49071 27.82645
#
# Velocity S-wave (km/s) = 2.94766 3.91080 3.46288
# Velocity P-wave (km/s) = 5.30258 6.65095 6.01467
#
# Compressibility (1/GPa) = 0.02606627
#
# Stress axis : x y z
#
# Youngs Moduli (GPa) = 50.76612 56.26537 164.50645
#
# Poissons Ratio (x) = 0.20583 0.61622
# Poissons Ratio (y) = 0.18571 0.22006
# Poissons Ratio (z) = 0.19016 0.07527
#
# Static dielectric constant tensor:
#      x y z
#    x 1.885270 0.000000 -0.009170 
#    y 0.000000 1.871020 0.000000 
#    z -0.009170 0.000000 1.933180 
# 
# From -- ./inp_files/23386.got.cif
#   From: 2010.05.17/outbox.cif.g08.bks.cpg/sg15_12_cif.got.tgz:23386.got - 2010.06.03 18:47:42.
