data_PCOD9289292
_publ_section_title
;
Structure prediction by ZEFSAII (Michael W. Deem and Ramdas Pophale) SiO2 
 PCOD9289292
Probable space group: C 2/C
;
_chemical_formula_sum "Si O2"
_cell_formula_units_Z 52
_cell_length_a 16.262777
_cell_length_b 22.993011
_cell_length_c 8.759153
_cell_angle_alpha 90.000000
_cell_angle_beta 55.109682
_cell_angle_gamma 90.000000
_cell_volume 2686.569847
_symmetry_space_group_name_H-M "C 2/C"
_symmetry_group_IT_number 15
_symmetry_cell_setting 'monoclinic'
loop_
_space_group_symop_operation_xyz
x,y,z
-x,y,1/2-z
-x,-y,-z
x,-y,1/2+z
1/2+x,1/2+y,z
1/2-x,1/2+y,1/2-z
1/2-x,1/2-y,-z
1/2+x,1/2-y,1/2+z
loop_
_atom_site_type_symbol
_atom_site_label
_atom_site_fract_x
_atom_site_fract_y
_atom_site_fract_z
Si Si1 0.657680 0.274989 0.257357
Si Si2 0.000000 0.631255 0.250000
Si Si3 0.381688 0.941073 0.346902
Si Si4 0.638068 0.825621 0.333427
Si Si5 0.453782 0.706013 0.142475
Si Si6 0.834447 0.561099 0.248047
Si Si7 0.215193 0.831680 0.884873
O O1 0.747577 0.309588 0.246230
O O2 0.548060 0.289367 0.430551
O O3 0.685722 0.207150 0.255123
O O4 0.666163 0.294375 0.072889
O O5 0.925524 0.666316 0.441685
O O6 0.934584 0.590444 0.209297
O O7 0.500000 0.951481 0.250000
O O8 0.369157 0.883358 0.259410
O O9 0.335202 0.935832 0.564531
O O10 0.334500 0.995729 0.308448
O O11 0.591439 0.770956 0.293346
O O12 0.500000 0.684075 0.250000
O O13 0.362851 0.669214 0.170056
O O14 0.746560 0.603898 0.397791
#
# Coordination Sequence:
#
# PCOD9289292 Si02
#       7
#     8   4   8   8   8   8   8
#     4  10  22  40  63  91 124 165 213 253 316 377
#     4  12  20  38  60  90 128 164 206 250 306 386
#     4  12  24  39  59  94 129 169 201 264 318 379
#     4  11  24  37  64  92 128 166 205 256 318 376
#     4  11  25  39  60  93 129 164 209 260 312 370
#     4  12  24  39  63  90 130 164 214 253 319 377
#     4  10  23  40  63  92 121 170 208 258 314 377
#
# _framework density 19.355537000000002
#
# number of rings (size 3 to 8) (size 9 to 14) (size 15 to 20)
#    0.000    0.923    3.846    3.231    8.615    1.231 
#    0.000    0.000    0.000    0.923    0.000    0.000 
#    0.000    0.000    0.000    0.000    0.000    0.000 
#
# Total GULP energy -145363.373928 kJ/mol
# GULP energy per Si atom -5590.898997 kJ/mol
# Density = 1.931148 g / cm^3
# Si number density = 19.355537 Si / 1000 Ang^3
#
#
#
# Elastic Constant Matrix: (Units=GPa)
#
#
# Indices 1 2 3 4 5 6 
#
# 1 100.8051 48.8731 7.3933 0.0000 15.7089 0.0000
# 2 48.8731 99.9778 6.1765 0.0000 -1.1971 0.0000
# 3 7.3933 6.1765 33.8371 0.0000 9.0729 0.0000
# 4 0.0000 0.0000 0.0000 16.2484 0.0000 4.9731
# 5 15.7089 -1.1971 9.0729 0.0000 27.7444 0.0000
# 6 0.0000 0.0000 0.0000 4.9731 0.0000 30.0159
#
#
#
# Elastic Compliance Matrix: (Units=1/GPa)
#
#
# Indices 1 2 3 4 5 6 
#
# 1 0.014857 -0.007399 0.000488 0.000000 -0.008891 0.000000
# 2 -0.007399 0.013835 -0.002403 0.000000 0.005572 0.000000
# 3 0.000488 -0.002403 0.032869 0.000000 -0.011129 0.000000
# 4 0.000000 0.000000 0.000000 0.064832 0.000000 -0.010742
# 5 -0.008891 0.005572 -0.011129 0.000000 0.044957 0.000000
# 6 0.000000 0.000000 0.000000 -0.010742 0.000000 0.035095
#
#
# Mechanical properties :
#
#
# Convention : Reuss Voigt Hill
#
# Bulk Modulus (GPa) = 23.29169 39.94509 31.61839
# Shear Modulus (GPa) = 20.88688 26.28020 23.58354
#
# Velocity S-wave (km/s) = 3.28856 3.68878 3.49440
# Velocity P-wave (km/s) = 5.14579 6.23098 5.71421
#
# Compressibility (1/GPa) = 0.04293376
#
# Stress axis : x y z
#
# Youngs Moduli (GPa) = 67.30678 72.28287 30.42354
#
# Poissons Ratio (x) = 0.53486 -0.01486
# Poissons Ratio (y) = 0.49804 0.07310
# Poissons Ratio (z) = -0.03288 0.17367
#
# Static dielectric constant tensor:
#      x y z
#    x 1.672130 0.000000 0.021870 
#    y 0.000000 1.661910 0.000000 
#    z 0.021870 0.000000 1.714900 
# 
# From -- ./inp_files/42045.got.cif
#   From: 2010.05.17/outbox.cif.g08.bks.cpg/sg15_22_cif.got.tgz:42045.got - 2010.06.03 18:47:42.
