data_PCOD9289148
_publ_section_title
;
Structure prediction by ZEFSAII (Michael W. Deem and Ramdas Pophale) SiO2 
 PCOD9289148
Probable space group: C 2/C
;
_chemical_formula_sum "Si O2"
_cell_formula_units_Z 40
_cell_length_a 31.094878
_cell_length_b 5.445802
_cell_length_c 10.333894
_cell_angle_alpha 90.000000
_cell_angle_beta 78.491665
_cell_angle_gamma 90.000000
_cell_volume 1714.725297
_symmetry_space_group_name_H-M "C 2/C"
_symmetry_group_IT_number 15
_symmetry_cell_setting 'monoclinic'
loop_
_space_group_symop_operation_xyz
x,y,z
-x,y,1/2-z
-x,-y,-z
x,-y,1/2+z
1/2+x,1/2+y,z
1/2-x,1/2+y,1/2-z
1/2-x,1/2-y,-z
1/2+x,1/2-y,1/2+z
loop_
_atom_site_type_symbol
_atom_site_label
_atom_site_fract_x
_atom_site_fract_y
_atom_site_fract_z
Si Si1 0.569287 0.963368 0.001928
Si Si2 0.958827 0.042465 0.869802
Si Si3 0.386413 0.172371 0.290110
Si Si4 0.718930 0.714493 0.396584
Si Si5 0.196626 0.285158 0.822787
O O1 0.545799 0.707644 0.048853
O O2 0.589399 0.946994 0.848002
O O3 0.540698 0.209270 0.043312
O O4 0.606363 0.999048 0.090865
O O5 0.914546 0.087371 0.811944
O O6 0.000000 0.037570 0.750000
O O7 0.337336 0.229609 0.275128
O O8 0.750000 0.750000 0.500000
O O9 0.752909 0.704628 0.255399
O O10 0.692814 0.459186 0.410933
O O11 0.689979 0.955158 0.395632
#
# Coordination Sequence:
#
# PCOD9289148 Si02
#       5
#     8   8   8   8   8
#     4  10  25  41  66  95 129 171 217 268 324 386
#     4  10  24  43  66  98 130 170 218 271 327 388
#     4  10  26  42  67  97 133 171 223 263 333 383
#     4  10  22  40  61  90 123 164 207 257 314 371
#     4  10  23  38  62  90 123 164 209 257 314 374
#
# _framework density 23.327352000000001
#
# number of rings (size 3 to 8) (size 9 to 14) (size 15 to 20)
#    1.200    0.800    0.000    1.200    8.400    3.200 
#    0.000    0.000    0.000    0.000    0.000    0.000 
#    0.000    0.000    0.000    0.000    0.000    0.000 
#
# Total GULP energy -111691.264129 kJ/mol
# GULP energy per Si atom -5584.563206 kJ/mol
# Density = 2.327426 g / cm^3
# Si number density = 23.327352 Si / 1000 Ang^3
#
#
#
# Elastic Constant Matrix: (Units=GPa)
#
#
# Indices 1 2 3 4 5 6 
#
# 1 87.7695 67.6296 25.0847 0.0000 13.5813 0.0000
# 2 67.6296 236.1404 49.0334 0.0000 32.5604 0.0000
# 3 25.0847 49.0334 97.3806 0.0000 9.7371 0.0000
# 4 0.0000 0.0000 0.0000 -80.4416 0.0000 -22.6690
# 5 13.5813 32.5604 9.7371 0.0000 69.3877 0.0000
# 6 0.0000 0.0000 0.0000 -22.6690 0.0000 -0.2362
#
#
#
# Elastic Compliance Matrix: (Units=1/GPa)
#
#
# Indices 1 2 3 4 5 6 
#
# 1 0.014977 -0.003778 -0.001866 0.000000 -0.000897 0.000000
# 2 -0.003778 0.005946 -0.001842 0.000000 -0.001792 0.000000
# 3 -0.001866 -0.001842 0.011718 0.000000 -0.000415 0.000000
# 4 0.000000 0.000000 0.000000 0.000477 0.000000 -0.045807
# 5 -0.000897 -0.001792 -0.000415 0.000000 0.015487 0.000000
# 6 0.000000 0.000000 0.000000 -0.045807 0.000000 0.162546
#
#
# Mechanical properties :
#
#
# Convention : Reuss Voigt Hill
#
# Bulk Modulus (GPa) = 56.59277 78.30953 67.45115
# Shear Modulus (GPa) = 21.55054 16.37816 18.96435
#
# Velocity S-wave (km/s) = 3.04276 2.65259 2.85435
# Velocity P-wave (km/s) = 6.05454 6.55930 6.31196
#
# Compressibility (1/GPa) = 0.01767010
#
# Stress axis : x y z
#
# Youngs Moduli (GPa) = 66.77021 168.16913 85.33553
#
# Poissons Ratio (x) = 0.63538 0.15922
# Poissons Ratio (y) = 0.25227 0.15716
# Poissons Ratio (z) = 0.12458 0.30971
#
# Static dielectric constant tensor:
#      x y z
#    x 1.871050 0.000000 -0.004070 
#    y 0.000000 1.877180 0.000000 
#    z -0.004070 0.000000 1.850980 
# 
# From -- ./inp_files/124792.got.cif
#   From: 2010.05.17/outbox.cif.g08.bks.cpg/sg15_63_cif.got.tgz:124792.got - 2010.06.03 18:47:42.
