data_PCOD9289082
_publ_section_title
;
Structure prediction by ZEFSAII (Michael W. Deem and Ramdas Pophale) SiO2 
 PCOD9289082
Probable space group: C 2/C
;
_chemical_formula_sum "Si O2"
_cell_formula_units_Z 60
_cell_length_a 11.715490
_cell_length_b 20.665913
_cell_length_c 22.880111
_cell_angle_alpha 90.000000
_cell_angle_beta 148.933331
_cell_angle_gamma 90.000000
_cell_volume 2858.593760
_symmetry_space_group_name_H-M "C 2/C"
_symmetry_group_IT_number 15
_symmetry_cell_setting 'monoclinic'
loop_
_space_group_symop_operation_xyz
x,y,z
-x,y,1/2-z
-x,-y,-z
x,-y,1/2+z
1/2+x,1/2+y,z
1/2-x,1/2+y,1/2-z
1/2-x,1/2-y,-z
1/2+x,1/2-y,1/2+z
loop_
_atom_site_type_symbol
_atom_site_label
_atom_site_fract_x
_atom_site_fract_y
_atom_site_fract_z
Si Si1 0.720821 0.029015 0.225772
Si Si2 0.205233 0.824821 0.075881
Si Si3 0.146300 0.578021 0.506298
Si Si4 0.125574 0.691667 0.683780
Si Si5 0.920057 0.837951 0.832974
Si Si6 0.500000 0.473320 0.250000
Si Si7 0.412950 0.593003 0.865856
Si Si8 0.154160 0.322371 0.557470
O O1 0.499951 0.022637 0.089814
O O2 0.754015 0.101941 0.262322
O O3 0.913246 0.016980 0.263801
O O4 0.777926 0.973898 0.297927
O O5 0.453760 0.825949 0.160164
O O6 0.139784 0.876695 0.095031
O O7 0.169405 0.752157 0.084380
O O8 0.057441 0.835585 0.953461
O O9 0.294720 0.563117 0.628863
O O10 0.328299 0.591124 0.535975
O O11 0.965982 0.631085 0.448867
O O12 0.187069 0.766794 0.717666
O O13 0.321957 0.641933 0.776575
O O14 0.998472 0.681332 0.567436
O O15 0.103603 0.842240 0.861294
#
# Coordination Sequence:
#
# PCOD9289082 Si02
#       8
#     8   8   8   8   8   4   8   8
#     4  11  23  38  59  91 124 163 205 261 306 368
#     4   9  20  39  62  89 118 167 211 249 302 363
#     4  11  23  38  61  93 124 159 200 254 323 368
#     4   9  19  39  64  88 117 157 214 260 299 359
#     4   9  20  39  63  89 119 157 214 263 300 347
#     4  10  22  40  60  86 124 164 204 252 316 370
#     4  11  24  39  59  89 129 165 203 245 315 384
#     4   9  18  37  65  92 118 154 206 268 306 353
#
# _framework density 20.989341
#
# number of rings (size 3 to 8) (size 9 to 14) (size 15 to 20)
#    0.000    2.133    0.000    4.800    1.867    6.400 
#    0.000    2.000    0.000    0.000    0.000    0.000 
#    0.000    0.000    0.000    0.000    0.000    0.000 
#
# Total GULP energy -167331.752013 kJ/mol
# GULP energy per Si atom -5577.725067 kJ/mol
# Density = 2.094157 g / cm^3
# Si number density = 20.989341 Si / 1000 Ang^3
#
#
#
# Elastic Constant Matrix: (Units=GPa)
#
#
# Indices 1 2 3 4 5 6 
#
# 1 73.0709 38.7146 9.3014 0.0008 -14.9166 0.0003
# 2 38.7146 97.4256 29.6365 0.0016 1.4788 0.0005
# 3 9.3014 29.6365 60.1548 0.0054 -4.3207 0.0012
# 4 0.0008 0.0016 0.0054 17.5404 0.0008 1.3127
# 5 -14.9166 1.4788 -4.3207 0.0008 28.8192 0.0001
# 6 0.0003 0.0005 0.0012 1.3127 0.0001 26.5581
#
#
#
# Elastic Compliance Matrix: (Units=1/GPa)
#
#
# Indices 1 2 3 4 5 6 
#
# 1 0.020478 -0.008934 0.002051 -0.000001 0.011365 0.000000
# 2 -0.008934 0.016038 -0.006987 0.000001 -0.006495 0.000000
# 3 0.002051 -0.006987 0.020067 -0.000006 0.004429 -0.000001
# 4 -0.000001 0.000001 -0.000006 0.057223 -0.000003 -0.002828
# 5 0.011365 -0.006495 0.004429 -0.000003 0.041579 0.000000
# 6 0.000000 0.000000 -0.000001 -0.002828 0.000000 0.037793
#
#
# Mechanical properties :
#
#
# Convention : Reuss Voigt Hill
#
# Bulk Modulus (GPa) = 34.66870 42.88403 38.77637
# Shear Modulus (GPa) = 21.68911 24.78346 23.23628
#
# Velocity S-wave (km/s) = 3.21805 3.43995 3.33085
# Velocity P-wave (km/s) = 5.51007 6.02108 5.77123
#
# Compressibility (1/GPa) = 0.02884446
#
# Stress axis : x y z
#
# Youngs Moduli (GPa) = 48.83382 62.35102 49.83358
#
# Poissons Ratio (x) = 0.55703 -0.10223
# Poissons Ratio (y) = 0.43627 0.34817
# Poissons Ratio (z) = -0.10018 0.43562
#
# Static dielectric constant tensor:
#      x y z
#    x 1.736560 0.000000 -0.012250 
#    y 0.000000 1.788060 0.000000 
#    z -0.012250 0.000000 1.805060 
# 
# From -- ./inp_files/271058.got.cif
#   From: 2010.05.17/outbox.cif.g08.bks.cpg/sg15_136_cif.got.tgz:271058.got - 2010.06.03 18:47:42.
