data_PCOD9289211
_publ_section_title
;
Structure prediction by ZEFSAII (Michael W. Deem and Ramdas Pophale) SiO2 
 PCOD9289211
Probable space group: C 2/C
;
_chemical_formula_sum "Si O2"
_cell_formula_units_Z 32
_cell_length_a 23.015404
_cell_length_b 5.348898
_cell_length_c 11.131873
_cell_angle_alpha 90.000000
_cell_angle_beta 101.369922
_cell_angle_gamma 90.000000
_cell_volume 1343.517421
_symmetry_space_group_name_H-M "C 2/C"
_symmetry_group_IT_number 15
_symmetry_cell_setting 'monoclinic'
loop_
_space_group_symop_operation_xyz
x,y,z
-x,y,1/2-z
-x,-y,-z
x,-y,1/2+z
1/2+x,1/2+y,z
1/2-x,1/2+y,1/2-z
1/2-x,1/2-y,-z
1/2+x,1/2-y,1/2+z
loop_
_atom_site_type_symbol
_atom_site_label
_atom_site_fract_x
_atom_site_fract_y
_atom_site_fract_z
Si Si1 0.576576 0.226093 0.569718
Si Si2 0.286426 0.639851 0.778377
Si Si3 0.686034 0.383969 0.471822
Si Si4 0.962660 0.765609 0.354404
O O1 0.631261 0.223970 0.500461
O O2 0.513813 0.238626 0.475591
O O3 0.574234 0.485095 0.639813
O O4 0.576835 0.982137 0.652285
O O5 0.234837 0.425720 0.746685
O O6 0.309278 0.601619 0.924653
O O7 0.323204 0.565359 0.672917
O O8 0.750000 0.250000 0.500000
O O9 0.000000 0.780416 0.250000
#
# Coordination Sequence:
#
# PCOD9289211 Si02
#       4
#     8   8   8   8
#     4  10  23  40  64  96 120 168 208 263 316 377
#     4  10  22  40  62  89 132 171 209 252 309 378
#     4  10  23  43  64  99 131 169 209 261 318 387
#     4  10  22  43  65  89 126 161 217 262 318 367
#
# _framework density 23.818076999999999
#
# number of rings (size 3 to 8) (size 9 to 14) (size 15 to 20)
#    0.000    2.000    0.000    1.500    3.500    8.000 
#    9.000    0.000    0.000    0.000    0.000    0.000 
#    0.000    0.000    0.000    0.000    0.000    0.000 
#
# Total GULP energy -89285.551611 kJ/mol
# GULP energy per Si atom -5580.346976 kJ/mol
# Density = 2.376387 g / cm^3
# Si number density = 23.818077 Si / 1000 Ang^3
#
#
#
# Elastic Constant Matrix: (Units=GPa)
#
#
# Indices 1 2 3 4 5 6 
#
# 1 97.4662 39.5983 32.4518 0.0000 -20.7173 0.0000
# 2 39.5983 135.0429 47.2549 0.0000 -19.7276 0.0000
# 3 32.4518 47.2549 161.9642 0.0000 -32.9258 0.0000
# 4 0.0000 0.0000 0.0000 90.7092 0.0000 -72.7951
# 5 -20.7173 -19.7276 -32.9258 0.0000 60.3904 0.0000
# 6 0.0000 0.0000 0.0000 -72.7951 0.0000 63.7089
#
#
#
# Elastic Compliance Matrix: (Units=1/GPa)
#
#
# Indices 1 2 3 4 5 6 
#
# 1 0.012357 -0.002844 -0.001094 0.000000 0.002713 0.000000
# 2 -0.002844 0.009033 -0.001872 0.000000 0.000955 0.000000
# 3 -0.001094 -0.001872 0.007579 0.000000 0.003145 0.000000
# 4 0.000000 0.000000 0.000000 0.132768 0.000000 0.151703
# 5 0.002713 0.000955 0.003145 0.000000 0.019516 0.000000
# 6 0.000000 0.000000 0.000000 0.151703 0.000000 0.189036
#
#
# Mechanical properties :
#
#
# Convention : Reuss Voigt Hill
#
# Bulk Modulus (GPa) = 57.64102 70.34260 63.99181
# Shear Modulus (GPa) = 12.89683 61.30625 37.10154
#
# Velocity S-wave (km/s) = 2.32948 5.07890 3.95106
# Velocity P-wave (km/s) = 5.61145 7.99944 6.90939
#
# Compressibility (1/GPa) = 0.01734876
#
# Stress axis : x y z
#
# Youngs Moduli (GPa) = 80.92895 110.70028 131.94364
#
# Poissons Ratio (x) = 0.31482 0.14441
# Poissons Ratio (y) = 0.23016 0.24695
# Poissons Ratio (z) = 0.08858 0.20719
#
# Static dielectric constant tensor:
#      x y z
#    x 1.934200 0.000000 0.076060 
#    y 0.000000 1.912770 0.000000 
#    z 0.076060 0.000000 1.914320 
# 
# From -- ./inp_files/109027.got.cif
#   From: 2010.05.17/outbox.cif.g08.bks.cpg/sg15_55_cif.got.tgz:109027.got - 2010.06.03 18:47:42.
