data_PCOD9289669
_publ_section_title
;
Structure prediction by ZEFSAII (Michael W. Deem and Ramdas Pophale) SiO2 
 PCOD9289669
Probable space group: C 2/C
;
_chemical_formula_sum "Si O2"
_cell_formula_units_Z 52
_cell_length_a 13.293741
_cell_length_b 23.742860
_cell_length_c 12.843403
_cell_angle_alpha 90.000000
_cell_angle_beta 135.639405
_cell_angle_gamma 90.000000
_cell_volume 2834.289824
_symmetry_space_group_name_H-M "C 2/C"
_symmetry_group_IT_number 15
_symmetry_cell_setting 'monoclinic'
loop_
_space_group_symop_operation_xyz
x,y,z
-x,y,1/2-z
-x,-y,-z
x,-y,1/2+z
1/2+x,1/2+y,z
1/2-x,1/2+y,1/2-z
1/2-x,1/2-y,-z
1/2+x,1/2-y,1/2+z
loop_
_atom_site_type_symbol
_atom_site_label
_atom_site_fract_x
_atom_site_fract_y
_atom_site_fract_z
Si Si1 0.650891 0.577389 0.306001
Si Si2 0.089662 0.190568 0.129980
Si Si3 0.752873 0.219079 0.891440
Si Si4 0.368060 0.473012 0.339299
Si Si5 0.131431 0.797108 0.417390
Si Si6 0.836053 0.405791 0.148843
Si Si7 0.500000 0.598668 0.750000
O O1 0.500000 0.561952 0.250000
O O2 0.622230 0.632075 0.213240
O O3 0.703174 0.525061 0.275493
O O4 0.756384 0.590506 0.478848
O O5 0.185140 0.238511 0.256940
O O6 0.116058 0.190053 0.027305
O O7 0.920336 0.203628 0.007543
O O8 0.667380 0.160272 0.823335
O O9 0.750000 0.250000 0.000000
O O10 0.500000 0.500000 0.500000
O O11 0.257853 0.440201 0.334370
O O12 0.447494 0.434976 0.311359
O O13 0.250000 0.750000 0.500000
O O14 0.135578 0.859731 0.372254
O O15 0.000000 0.773271 0.250000
O O16 0.000000 0.424805 0.250000
#
# Coordination Sequence:
#
# PCOD9289669 Si02
#       7
#     8   8   8   8   8   8   4
#     4  12  22  42  68  99 128 171 230 278 334 412
#     4  12  23  39  66  95 133 172 220 278 339 408
#     4  12  22  39  63  97 131 170 214 272 340 407
#     4  12  22  42  73  97 129 177 231 279 333 410
#     4  10  23  40  59  91 130 170 215 266 326 398
#     4  12  26  42  64 102 138 171 220 286 352 401
#     4  10  22  40  66  98 122 176 234 264 326 404
#
# _framework density 18.346747000000001
#
# number of rings (size 3 to 8) (size 9 to 14) (size 15 to 20)
#    0.462    0.000    5.385    4.154    2.154    0.615 
#    0.000    0.000    0.000    4.615    0.000    0.000 
#    0.000    0.000    0.000    0.000    0.000    0.000 
#
# Total GULP energy -144935.139581 kJ/mol
# GULP energy per Si atom -5574.428445 kJ/mol
# Density = 1.830499 g / cm^3
# Si number density = 18.346747 Si / 1000 Ang^3
#
#
#
# Elastic Constant Matrix: (Units=GPa)
#
#
# Indices 1 2 3 4 5 6 
#
# 1 114.1883 66.5527 47.7060 0.0000 -10.3174 0.0000
# 2 66.5527 132.3465 41.3135 0.0000 -13.7242 0.0000
# 3 47.7060 41.3135 112.3116 0.0000 -11.7870 0.0000
# 4 0.0000 0.0000 0.0000 35.2179 0.0000 -10.2975
# 5 -10.3174 -13.7242 -11.7870 0.0000 36.3338 0.0000
# 6 0.0000 0.0000 0.0000 -10.2975 0.0000 -25.1405
#
#
#
# Elastic Compliance Matrix: (Units=1/GPa)
#
#
# Indices 1 2 3 4 5 6 
#
# 1 0.013630 -0.005657 -0.003651 0.000000 0.000549 0.000000
# 2 -0.005657 0.011071 -0.001449 0.000000 0.002106 0.000000
# 3 -0.003651 -0.001449 0.011203 0.000000 0.002050 0.000000
# 4 0.000000 0.000000 0.000000 0.025358 0.000000 -0.010386
# 5 0.000549 0.002106 0.002050 0.000000 0.029139 0.000000
# 6 0.000000 0.000000 0.000000 -0.010386 0.000000 -0.035522
#
#
# Mechanical properties :
#
#
# Convention : Reuss Voigt Hill
#
# Bulk Modulus (GPa) = 69.49148 74.44342 71.96745
# Shear Modulus (GPa) = 61.58569 22.83387 42.20978
#
# Velocity S-wave (km/s) = 5.80004 3.53168 4.80173
# Velocity P-wave (km/s) = 9.10016 7.56930 8.36980
#
# Compressibility (1/GPa) = 0.01439025
#
# Stress axis : x y z
#
# Youngs Moduli (GPa) = 73.37009 90.32347 89.26562
#
# Poissons Ratio (x) = 0.51099 0.32588
# Poissons Ratio (y) = 0.41508 0.12931
# Poissons Ratio (z) = 0.26785 0.13084
#
# Static dielectric constant tensor:
#      x y z
#    x 1.604250 0.000000 -0.012080 
#    y 0.000000 1.865400 0.000000 
#    z -0.012080 0.000000 1.622780 
# 
# From -- ./inp_files/91332.got.cif
#   From: 2010.05.17/outbox.cif.g08.bks.cpg/sg15_46_cif.got.tgz:91332.got - 2010.06.03 18:47:42.
