data_PCOD9289612
_publ_section_title
;
Structure prediction by ZEFSAII (Michael W. Deem and Ramdas Pophale) SiO2 
 PCOD9289612
Probable space group: C 2/C
;
_chemical_formula_sum "Si O2"
_cell_formula_units_Z 40
_cell_length_a 26.926926
_cell_length_b 8.958663
_cell_length_c 22.327268
_cell_angle_alpha 90.000000
_cell_angle_beta 21.322381
_cell_angle_gamma 90.000000
_cell_volume 1958.427606
_symmetry_space_group_name_H-M "C 2/C"
_symmetry_group_IT_number 15
_symmetry_cell_setting 'monoclinic'
loop_
_space_group_symop_operation_xyz
x,y,z
-x,y,1/2-z
-x,-y,-z
x,-y,1/2+z
1/2+x,1/2+y,z
1/2-x,1/2+y,1/2-z
1/2-x,1/2-y,-z
1/2+x,1/2-y,1/2+z
loop_
_atom_site_type_symbol
_atom_site_label
_atom_site_fract_x
_atom_site_fract_y
_atom_site_fract_z
Si Si1 0.750000 0.250000 0.000000
Si Si2 0.209447 0.581748 0.236160
Si Si3 0.235225 0.892623 0.146986
Si Si4 0.012129 0.088404 0.104487
Si Si5 0.460085 0.063491 0.951796
Si Si6 0.000000 0.036721 0.750000
O O1 0.716175 0.323590 0.103158
O O2 0.632183 0.357449 0.100967
O O3 0.228382 0.757099 0.201699
O O4 0.101026 0.516560 0.310200
O O5 0.140004 0.556345 0.378359
O O6 0.350713 0.494214 0.071216
O O7 0.380410 0.975078 0.989673
O O8 0.114481 0.013285 0.288265
O O9 0.998997 0.059707 0.190423
O O10 0.016683 0.264192 0.088366
#
# Coordination Sequence:
#
# PCOD9289612 Si02
#       6
#     4   8   8   8   8   4
#     4  10  22  40  66  92 120 164 222 258 316 388
#     4  11  23  42  66  93 130 170 216 258 318 396
#     4  11  23  42  65  93 126 173 213 262 317 387
#     4  11  23  42  63  96 131 163 215 266 323 377
#     4  11  25  41  63  97 131 168 209 270 328 375
#     4  10  22  42  64  92 126 168 210 270 316 386
#
# _framework density 20.424548000000001
#
# number of rings (size 3 to 8) (size 9 to 14) (size 15 to 20)
#    0.000    1.200    2.000    3.600    2.800    6.400 
#    3.600    3.000    0.000    0.000    0.000    0.000 
#    0.000    0.000    0.000    0.000    0.000    0.000 
#
# Total GULP energy -111357.593390 kJ/mol
# GULP energy per Si atom -5567.879669 kJ/mol
# Density = 2.037806 g / cm^3
# Si number density = 20.424548 Si / 1000 Ang^3
#
#
#
# Elastic Constant Matrix: (Units=GPa)
#
#
# Indices 1 2 3 4 5 6 
#
# 1 30.9402 7.1702 0.6402 -0.0002 -11.1819 -0.0001
# 2 7.1702 124.2548 30.2456 0.0011 -11.6390 0.0002
# 3 0.6402 30.2456 49.5625 0.0003 -12.2736 0.0000
# 4 -0.0002 0.0011 0.0003 10.0898 -0.0002 -14.7133
# 5 -11.1819 -11.6390 -12.2736 -0.0002 24.6373 0.0001
# 6 -0.0001 0.0002 0.0000 -14.7133 0.0001 17.2274
#
#
#
# Elastic Compliance Matrix: (Units=1/GPa)
#
#
# Indices 1 2 3 4 5 6 
#
# 1 0.039843 -0.001769 0.005517 -0.000006 0.019995 -0.000005
# 2 -0.001769 0.009602 -0.005604 0.000004 0.000942 0.000004
# 3 0.005517 -0.005604 0.026795 -0.000001 0.013205 -0.000001
# 4 -0.000006 0.000004 -0.000001 -0.403839 -0.000004 -0.344904
# 5 0.019995 0.000942 0.013205 -0.000004 0.056687 -0.000004
# 6 -0.000005 0.000004 -0.000001 -0.344904 -0.000004 -0.236523
#
#
# Mechanical properties :
#
#
# Convention : Reuss Voigt Hill
#
# Bulk Modulus (GPa) = 13.78788 31.20775 22.49781
# Shear Modulus (GPa) = -10.42651 21.50434 5.53892
#
# Velocity S-wave (km/s) = -2.26185 3.24831 1.64857
# Velocity P-wave (km/s) = 0.23665 5.42046 3.82919
#
# Compressibility (1/GPa) = 0.07252749
#
# Stress axis : x y z
#
# Youngs Moduli (GPa) = 25.09877 104.14152 37.32035
#
# Poissons Ratio (x) = 0.18422 -0.20588
# Poissons Ratio (y) = 0.04440 0.20913
# Poissons Ratio (z) = -0.13846 0.58358
#
# Static dielectric constant tensor:
#      x y z
#    x 1.730600 0.000000 -0.001130 
#    y 0.000000 1.696200 0.000000 
#    z -0.001130 0.000000 1.711070 
# 
# From -- ./inp_files/115934.got.cif
#   From: 2010.05.17/outbox.cif.g08.bks.cpg/sg15_58_cif.got.tgz:115934.got - 2010.06.03 18:47:42.
