data_PCOD9289051
_publ_section_title
;
Structure prediction by ZEFSAII (Michael W. Deem and Ramdas Pophale) SiO2 
 PCOD9289051
Probable space group: C 2/C
;
_chemical_formula_sum "Si O2"
_cell_formula_units_Z 32
_cell_length_a 4.750515
_cell_length_b 13.958852
_cell_length_c 20.852505
_cell_angle_alpha 90.000000
_cell_angle_beta 89.712413
_cell_angle_gamma 90.000000
_cell_volume 1382.748384
_symmetry_space_group_name_H-M "C 2/C"
_symmetry_group_IT_number 15
_symmetry_cell_setting 'monoclinic'
loop_
_space_group_symop_operation_xyz
x,y,z
-x,y,1/2-z
-x,-y,-z
x,-y,1/2+z
1/2+x,1/2+y,z
1/2-x,1/2+y,1/2-z
1/2-x,1/2-y,-z
1/2+x,1/2-y,1/2+z
loop_
_atom_site_type_symbol
_atom_site_label
_atom_site_fract_x
_atom_site_fract_y
_atom_site_fract_z
Si Si1 0.272795 0.858858 0.423534
Si Si2 0.447244 0.948487 0.600825
Si Si3 0.739228 0.054332 0.706584
Si Si4 0.053215 0.158177 0.446718
O O1 0.157904 0.878463 0.352126
O O2 0.044028 0.855459 0.479979
O O3 0.453469 0.762571 0.425817
O O4 0.469392 0.952188 0.433351
O O5 0.124544 0.920637 0.593531
O O6 0.623739 0.863276 0.567792
O O7 0.567638 0.968392 0.671675
O O8 0.500000 0.104346 0.750000
O O9 0.000000 0.026037 0.750000
#
# Coordination Sequence:
#
# PCOD9289051 Si02
#       4
#     8   8   8   8
#     4   9  24  37  67  87 130 148 200 254 297 362
#     4  10  23  37  65  83 127 153 196 249 300 347
#     4  10  22  40  59  83 121 164 198 242 295 351
#     4  11  21  41  61 101 110 158 200 247 314 350
#
# _framework density 23.142313999999999
#
# number of rings (size 3 to 8) (size 9 to 14) (size 15 to 20)
#    1.500    0.500    0.000    3.000    0.000   10.000 
#    0.000    7.500    0.000    0.000    0.000    0.000 
#    0.000    0.000    0.000    0.000    0.000    0.000 
#
# Total GULP energy -89455.639483 kJ/mol
# GULP energy per Si atom -5590.977468 kJ/mol
# Density = 2.308964 g / cm^3
# Si number density = 23.142314 Si / 1000 Ang^3
#
#
#
# Elastic Constant Matrix: (Units=GPa)
#
#
# Indices 1 2 3 4 5 6 
#
# 1 82.1282 3.4542 25.2788 0.0000 10.8332 0.0000
# 2 3.4542 87.8199 22.8655 0.0000 3.7623 0.0000
# 3 25.2788 22.8655 147.4529 0.0000 15.0733 0.0000
# 4 0.0000 0.0000 0.0000 14.2680 0.0000 3.3494
# 5 10.8332 3.7623 15.0733 0.0000 28.3084 0.0000
# 6 0.0000 0.0000 0.0000 3.3494 0.0000 24.9755
#
#
#
# Elastic Compliance Matrix: (Units=1/GPa)
#
#
# Indices 1 2 3 4 5 6 
#
# 1 0.013290 0.000143 -0.001881 0.000000 -0.004103 0.000000
# 2 0.000143 0.011878 -0.001797 0.000000 -0.000676 0.000000
# 3 -0.001881 -0.001797 0.007704 0.000000 -0.003144 0.000000
# 4 0.000000 0.000000 0.000000 0.072365 0.000000 -0.009705
# 5 -0.004103 -0.000676 -0.003144 0.000000 0.038659 0.000000
# 6 0.000000 0.000000 0.000000 -0.009705 0.000000 0.041341
#
#
# Mechanical properties :
#
#
# Convention : Reuss Voigt Hill
#
# Bulk Modulus (GPa) = 38.75704 46.73312 42.74508
# Shear Modulus (GPa) = 24.88681 31.23056 28.05868
#
# Velocity S-wave (km/s) = 3.28286 3.67754 3.48579
# Velocity P-wave (km/s) = 5.58150 6.18628 5.89165
#
# Compressibility (1/GPa) = 0.02580177
#
# Stress axis : x y z
#
# Youngs Moduli (GPa) = 75.24262 84.18741 129.79626
#
# Poissons Ratio (x) = -0.01203 0.24416
# Poissons Ratio (y) = -0.01075 0.23328
# Poissons Ratio (z) = 0.14154 0.15131
#
# Static dielectric constant tensor:
#      x y z
#    x 1.842770 0.000000 -0.002670 
#    y 0.000000 1.845530 0.000000 
#    z -0.002670 0.000000 1.940220 
# 
# From -- ./inp_files/183703.got.cif
#   From: 2010.05.17/outbox.cif.g08.bks.cpg/sg15_92_cif.got.tgz:183703.got - 2010.06.03 18:47:42.
