data_PCOD9289023
_publ_section_title
;
Structure prediction by ZEFSAII (Michael W. Deem and Ramdas Pophale) SiO2 
 PCOD9289023
Probable space group: C 2/C
;
_chemical_formula_sum "Si O2"
_cell_formula_units_Z 36
_cell_length_a 13.249617
_cell_length_b 6.062278
_cell_length_c 25.580646
_cell_angle_alpha 90.000000
_cell_angle_beta 133.989438
_cell_angle_gamma 90.000000
_cell_volume 1478.298267
_symmetry_space_group_name_H-M "C 2/C"
_symmetry_group_IT_number 15
_symmetry_cell_setting 'monoclinic'
loop_
_space_group_symop_operation_xyz
x,y,z
-x,y,1/2-z
-x,-y,-z
x,-y,1/2+z
1/2+x,1/2+y,z
1/2-x,1/2+y,1/2-z
1/2-x,1/2-y,-z
1/2+x,1/2-y,1/2+z
loop_
_atom_site_type_symbol
_atom_site_label
_atom_site_fract_x
_atom_site_fract_y
_atom_site_fract_z
Si Si1 0.611287 0.188963 0.053364
Si Si2 0.972789 0.899924 0.800471
Si Si3 0.755609 0.858671 0.175982
Si Si4 0.524761 0.425957 0.927515
Si Si5 0.000000 0.520787 0.250000
O O1 0.539514 0.363128 0.066612
O O2 0.732602 0.061539 0.127225
O O3 0.635070 0.319912 0.007645
O O4 0.500000 0.000000 0.000000
O O5 0.982080 0.639220 0.793725
O O6 0.000000 0.976885 0.750000
O O7 0.822298 0.024471 0.751239
O O8 0.064833 0.976442 0.882459
O O9 0.603225 0.747566 0.127310
O O10 0.857293 0.660149 0.194156
#
# Coordination Sequence:
#
# PCOD9289023 Si02
#       5
#     8   8   8   8   4
#     4   9  21  41  65  94 124 164 219 263 319 377
#     4  10  24  39  60  96 131 165 213 259 324 372
#     4  11  21  38  65  92 128 166 215 268 317 380
#     4  10  22  40  69  91 125 169 215 268 313 385
#     4  10  22  40  56  92 138 164 208 270 318 380
#
# _framework density 24.352326000000001
#
# number of rings (size 3 to 8) (size 9 to 14) (size 15 to 20)
#    0.667    1.333    1.111    1.333    6.222    1.778 
#    0.000    2.222    0.000    0.000    0.000    0.000 
#    0.000    0.000    0.000    0.000    0.000    0.000 
#
# Total GULP energy -100301.438573 kJ/mol
# GULP energy per Si atom -5572.302143 kJ/mol
# Density = 2.429690 g / cm^3
# Si number density = 24.352326 Si / 1000 Ang^3
#
#
#
# Elastic Constant Matrix: (Units=GPa)
#
#
# Indices 1 2 3 4 5 6 
#
# 1 53.7400 11.8743 5.9644 0.0000 -25.5450 0.0000
# 2 11.8743 101.5098 31.7950 0.0000 -18.8246 0.0000
# 3 5.9644 31.7950 105.0657 0.0000 -34.0806 0.0000
# 4 0.0000 0.0000 0.0000 56.7871 0.0000 5.4562
# 5 -25.5450 -18.8246 -34.0806 0.0000 44.2674 0.0000
# 6 0.0000 0.0000 0.0000 5.4562 0.0000 11.5181
#
#
#
# Elastic Compliance Matrix: (Units=1/GPa)
#
#
# Indices 1 2 3 4 5 6 
#
# 1 0.027445 -0.001230 0.005040 0.000000 0.019195 0.000000
# 2 -0.001230 0.011202 -0.002673 0.000000 0.001997 0.000000
# 3 0.005040 -0.002673 0.014149 0.000000 0.012665 0.000000
# 4 0.000000 0.000000 0.000000 0.018449 0.000000 -0.008740
# 5 0.019195 0.001997 0.012665 0.000000 0.044266 0.000000
# 6 0.000000 0.000000 0.000000 -0.008740 0.000000 0.090960
#
#
# Mechanical properties :
#
#
# Convention : Reuss Voigt Hill
#
# Bulk Modulus (GPa) = 18.15795 39.95365 29.05580
# Shear Modulus (GPa) = 22.46667 36.55998 29.51333
#
# Velocity S-wave (km/s) = 3.04068 3.87886 3.48506
# Velocity P-wave (km/s) = 4.44974 6.04176 5.30580
#
# Compressibility (1/GPa) = 0.05507229
#
# Stress axis : x y z
#
# Youngs Moduli (GPa) = 36.43711 89.26582 70.67803
#
# Poissons Ratio (x) = 0.10975 -0.35625
# Poissons Ratio (y) = 0.04480 0.18889
# Poissons Ratio (z) = -0.18366 0.23857
#
# Static dielectric constant tensor:
#      x y z
#    x 2.303500 0.000000 0.011000 
#    y 0.000000 1.957810 0.000000 
#    z 0.011000 0.000000 2.060940 
# 
# From -- ./inp_files/314745.got.cif
#   From: 2010.05.17/outbox.cif.g08.bks.cpg/sg15_158_cif.got.tgz:314745.got - 2010.06.03 18:47:42.
