data_PCOD9289049
_publ_section_title
;
Structure prediction by ZEFSAII (Michael W. Deem and Ramdas Pophale) SiO2 
 PCOD9289049
Probable space group: C 2/C
;
_chemical_formula_sum "Si O2"
_cell_formula_units_Z 40
_cell_length_a 25.261599
_cell_length_b 6.524067
_cell_length_c 10.777200
_cell_angle_alpha 90.000000
_cell_angle_beta 78.088700
_cell_angle_gamma 90.000000
_cell_volume 1737.928684
_symmetry_space_group_name_H-M "C 2/C"
_symmetry_group_IT_number 15
_symmetry_cell_setting 'monoclinic'
loop_
_space_group_symop_operation_xyz
x,y,z
-x,y,1/2-z
-x,-y,-z
x,-y,1/2+z
1/2+x,1/2+y,z
1/2-x,1/2+y,1/2-z
1/2-x,1/2-y,-z
1/2+x,1/2-y,1/2+z
loop_
_atom_site_type_symbol
_atom_site_label
_atom_site_fract_x
_atom_site_fract_y
_atom_site_fract_z
Si Si1 0.610401 0.390174 0.194736
Si Si2 0.944152 0.121795 0.046499
Si Si3 0.698124 0.631423 0.265780
Si Si4 0.203939 0.764623 0.419694
Si Si5 0.381860 0.999980 0.143488
O O1 0.579221 0.517748 0.317058
O O2 0.670123 0.489481 0.174629
O O3 0.608654 0.159828 0.249895
O O4 0.586025 0.408641 0.070648
O O5 0.934077 0.366447 0.077316
O O6 0.000000 0.000000 0.000000
O O7 0.760330 0.680772 0.213581
O O8 0.691786 0.496908 0.391384
O O9 0.662475 0.833286 0.294058
O O10 0.250000 0.750000 0.500000
O O11 0.149017 0.632720 0.449056
#
# Coordination Sequence:
#
# PCOD9289049 Si02
#       5
#     8   8   8   8   8
#     4  10  25  44  72 103 140 182 233 298 362 424
#     4  11  25  48  75 102 137 182 241 303 363 425
#     4  10  22  40  58  97 141 178 232 279 342 418
#     4  11  23  36  64  96 139 189 226 275 345 423
#     4  10  24  42  64 103 141 184 231 291 350 429
#
# _framework density 23.015903999999999
#
# number of rings (size 3 to 8) (size 9 to 14) (size 15 to 20)
#    0.000    1.600    2.000    0.600   11.200    3.200 
#    0.000    4.000    0.000    0.000    0.000    0.000 
#    0.000    0.000    0.000    0.000    0.000    0.000 
#
# Total GULP energy -111536.617171 kJ/mol
# GULP energy per Si atom -5576.830859 kJ/mol
# Density = 2.296352 g / cm^3
# Si number density = 23.015904 Si / 1000 Ang^3
#
#
#
# Elastic Constant Matrix: (Units=GPa)
#
#
# Indices 1 2 3 4 5 6 
#
# 1 82.4631 31.6956 17.7187 0.0000 -2.0515 0.0000
# 2 31.6956 126.2699 31.4046 0.0000 2.8911 0.0000
# 3 17.7187 31.4046 106.5662 0.0000 21.4007 0.0000
# 4 0.0000 0.0000 0.0000 19.2454 0.0000 -8.0683
# 5 -2.0515 2.8911 21.4007 0.0000 47.1414 0.0000
# 6 0.0000 0.0000 0.0000 -8.0683 0.0000 38.0646
#
#
#
# Elastic Compliance Matrix: (Units=1/GPa)
#
#
# Indices 1 2 3 4 5 6 
#
# 1 0.013702 -0.003055 -0.001689 0.000000 0.001551 0.000000
# 2 -0.003055 0.009247 -0.002285 0.000000 0.000337 0.000000
# 3 -0.001689 -0.002285 0.011360 0.000000 -0.005091 0.000000
# 4 0.000000 0.000000 0.000000 0.057028 0.000000 0.012088
# 5 0.001551 0.000337 -0.005091 0.000000 0.023571 0.000000
# 6 0.000000 0.000000 0.000000 0.012088 0.000000 0.028833
#
#
# Mechanical properties :
#
#
# Convention : Reuss Voigt Hill
#
# Bulk Modulus (GPa) = 49.37908 52.99301 51.18605
# Shear Modulus (GPa) = 30.38585 36.52229 33.45407
#
# Velocity S-wave (km/s) = 3.63741 3.98782 3.81664
# Velocity P-wave (km/s) = 6.25635 6.65418 6.45833
#
# Compressibility (1/GPa) = 0.02025149
#
# Stress axis : x y z
#
# Youngs Moduli (GPa) = 72.98007 108.14460 88.02523
#
# Poissons Ratio (x) = 0.33036 0.14871
# Poissons Ratio (y) = 0.22294 0.20112
# Poissons Ratio (z) = 0.12330 0.24709
#
# Static dielectric constant tensor:
#      x y z
#    x 1.916420 0.000000 -0.009070 
#    y 0.000000 1.926910 0.000000 
#    z -0.009070 0.000000 1.988440 
# 
# From -- ./inp_files/120830.got.cif
#   From: 2010.05.17/outbox.cif.g08.bks.cpg/sg15_61_cif.got.tgz:120830.got - 2010.06.03 18:47:42.
