data_PCOD9289982
_publ_section_title
;
Structure prediction by ZEFSAII (Michael W. Deem and Ramdas Pophale) SiO2 
 PCOD9289982
Probable space group: C 2/C
;
_chemical_formula_sum "Si O2"
_cell_formula_units_Z 56
_cell_length_a 32.344589
_cell_length_b 10.830977
_cell_length_c 15.979505
_cell_angle_alpha 90.000000
_cell_angle_beta 27.567662
_cell_angle_gamma 90.000000
_cell_volume 2590.729000
_symmetry_space_group_name_H-M "C 2/C"
_symmetry_group_IT_number 15
_symmetry_cell_setting 'monoclinic'
loop_
_space_group_symop_operation_xyz
x,y,z
-x,y,1/2-z
-x,-y,-z
x,-y,1/2+z
1/2+x,1/2+y,z
1/2-x,1/2+y,1/2-z
1/2-x,1/2-y,-z
1/2+x,1/2-y,1/2+z
loop_
_atom_site_type_symbol
_atom_site_label
_atom_site_fract_x
_atom_site_fract_y
_atom_site_fract_z
Si Si1 0.213854 0.138878 0.506430
Si Si2 0.748388 0.810891 0.298487
Si Si3 0.788185 0.467601 0.506606
Si Si4 0.544746 0.293197 0.587892
Si Si5 0.040828 0.384001 0.379630
Si Si6 0.985370 0.043772 0.622104
Si Si7 0.355660 0.275684 0.669378
O O1 0.250000 0.250000 0.500000
O O2 0.236910 0.183559 0.372009
O O3 0.107966 0.115253 0.703404
O O4 0.258764 0.019408 0.468065
O O5 0.684434 0.804023 0.333729
O O6 0.724978 0.923501 0.402330
O O7 0.851374 0.822246 0.087563
O O8 0.889982 0.427980 0.315116
O O9 0.724099 0.356475 0.648184
O O10 0.500000 0.236763 0.750000
O O11 0.532900 0.202748 0.530422
O O12 0.490277 0.418446 0.666111
O O13 0.097253 0.304061 0.343937
O O14 0.000000 0.500000 0.500000
O O15 0.067768 0.130411 0.499367
O O16 0.000000 0.000000 0.500000
#
# Coordination Sequence:
#
# PCOD9289982 Si02
#       7
#     8   8   8   8   8   8   8
#     4  10  22  40  72 100 141 186 233 291 351 412
#     4  11  26  45  71 106 144 184 242 294 352 422
#     4  11  23  46  70 104 143 188 235 289 355 424
#     4  12  26  48  72 105 143 190 236 294 356 423
#     4  12  28  46  73 104 145 189 233 292 364 421
#     4  12  22  45  75 105 141 186 243 295 345 433
#     4  12  26  45  74 106 144 184 241 294 357 421
#
# _framework density 21.615538000000001
#
# number of rings (size 3 to 8) (size 9 to 14) (size 15 to 20)
#    0.000    0.571    4.286    3.000    6.000    4.571 
#    0.000    0.000    0.000    0.000    0.000    0.000 
#    0.000    0.000    0.000    0.000    0.000    0.000 
#
# Total GULP energy -156731.353974 kJ/mol
# GULP energy per Si atom -5597.548356 kJ/mol
# Density = 2.156634 g / cm^3
# Si number density = 21.615538 Si / 1000 Ang^3
#
#
#
# Elastic Constant Matrix: (Units=GPa)
#
#
# Indices 1 2 3 4 5 6 
#
# 1 102.2319 23.0832 4.4852 0.0000 -4.2810 0.0000
# 2 23.0832 87.0127 23.8180 0.0000 -2.6262 0.0000
# 3 4.4852 23.8180 67.9237 0.0000 -20.4626 0.0000
# 4 0.0000 0.0000 0.0000 36.2739 0.0000 -21.4667
# 5 -4.2810 -2.6262 -20.4626 0.0000 34.3789 0.0000
# 6 0.0000 0.0000 0.0000 -21.4667 0.0000 -11.7455
#
#
#
# Elastic Compliance Matrix: (Units=1/GPa)
#
#
# Indices 1 2 3 4 5 6 
#
# 1 0.010479 -0.002956 0.000816 0.000000 0.001565 0.000000
# 2 -0.002956 0.013666 -0.005353 0.000000 -0.002510 0.000000
# 3 0.000816 -0.005353 0.020048 0.000000 0.011625 0.000000
# 4 0.000000 0.000000 0.000000 0.013244 0.000000 -0.024205
# 5 0.001565 -0.002510 0.011625 0.000000 0.036010 0.000000
# 6 0.000000 0.000000 0.000000 -0.024205 0.000000 -0.040901
#
#
# Mechanical properties :
#
#
# Convention : Reuss Voigt Hill
#
# Bulk Modulus (GPa) = 34.23897 39.99345 37.11621
# Shear Modulus (GPa) = 64.70941 25.50026 45.10483
#
# Velocity S-wave (km/s) = 5.47736 3.43843 4.57298
# Velocity P-wave (km/s) = 7.47505 5.85714 6.71500
#
# Compressibility (1/GPa) = 0.02920648
#
# Stress axis : x y z
#
# Youngs Moduli (GPa) = 95.43031 73.17240 49.88037
#
# Poissons Ratio (x) = 0.21630 -0.04070
# Poissons Ratio (y) = 0.28209 0.26703
# Poissons Ratio (z) = -0.07787 0.39172
#
# Static dielectric constant tensor:
#      x y z
#    x 1.797730 0.000000 0.029250 
#    y 0.000000 1.794850 0.000000 
#    z 0.029250 0.000000 1.768780 
# 
# From -- ./inp_files/181905.got.cif
#   From: 2010.05.17/outbox.cif.g08.bks.cpg/sg15_91_cif.got.tgz:181905.got - 2010.06.03 18:47:42.
