data_PCOD9289601
_publ_section_title
;
Structure prediction by ZEFSAII (Michael W. Deem and Ramdas Pophale) SiO2 
 PCOD9289601
Probable space group: C 2/C
;
_chemical_formula_sum "Si O2"
_cell_formula_units_Z 56
_cell_length_a 12.107736
_cell_length_b 30.985439
_cell_length_c 8.305584
_cell_angle_alpha 90.000000
_cell_angle_beta 119.960744
_cell_angle_gamma 90.000000
_cell_volume 2699.560475
_symmetry_space_group_name_H-M "C 2/C"
_symmetry_group_IT_number 15
_symmetry_cell_setting 'monoclinic'
loop_
_space_group_symop_operation_xyz
x,y,z
-x,y,1/2-z
-x,-y,-z
x,-y,1/2+z
1/2+x,1/2+y,z
1/2-x,1/2+y,1/2-z
1/2-x,1/2-y,-z
1/2+x,1/2-y,1/2+z
loop_
_atom_site_type_symbol
_atom_site_label
_atom_site_fract_x
_atom_site_fract_y
_atom_site_fract_z
Si Si1 0.500000 0.027612 0.250000
Si Si2 0.212938 0.266951 0.723755
Si Si3 0.651422 0.811787 0.359470
Si Si4 0.465994 0.708946 0.558965
Si Si5 0.668525 0.034298 0.090144
Si Si6 0.779392 0.102934 0.944330
Si Si7 0.907036 0.028833 0.825050
Si Si8 0.000000 0.843200 0.750000
O O1 0.604153 0.049527 0.210260
O O2 0.578065 0.997446 0.426029
O O3 0.288249 0.227383 0.695688
O O4 0.198292 0.304018 0.577436
O O5 0.069513 0.248480 0.647592
O O6 0.314065 0.281316 0.934866
O O7 0.500000 0.809182 0.250000
O O8 0.700285 0.856579 0.320690
O O9 0.500000 0.683977 0.750000
O O10 0.493342 0.685585 0.407703
O O11 0.691056 0.074494 0.992905
O O12 0.795273 0.005324 0.202200
O O13 0.883757 0.124850 0.134333
O O14 0.844682 0.070027 0.867290
O O15 0.000000 0.043564 0.750000
O O16 0.000000 0.000000 0.000000
#
# Coordination Sequence:
#
# PCOD9289601 Si02
#       8
#     4   8   8   8   8   8   8   4
#     4  10  22  40  66  89 126 172 224 285 336 428
#     4  11  21  44  69 102 140 188 237 285 361 442
#     4  11  22  38  71 100 138 188 237 293 361 436
#     4  12  24  43  75 105 142 192 236 293 359 436
#     4  11  22  41  66  96 125 176 232 283 352 424
#     4  12  24  39  70 100 136 184 236 294 362 435
#     4  12  23  43  69 100 136 180 238 299 368 426
#     4  12  24  44  64 105 142 180 232 293 356 424
#
# _framework density 20.744118
#
# number of rings (size 3 to 8) (size 9 to 14) (size 15 to 20)
#    0.000    0.571    7.143    2.143    1.000    0.571 
#    0.000    0.000    4.714    0.000    0.000    0.000 
#    0.000    0.000    0.000    0.000    0.000    0.000 
#
# Total GULP energy -156170.858157 kJ/mol
# GULP energy per Si atom -5577.530648 kJ/mol
# Density = 2.069690 g / cm^3
# Si number density = 20.744118 Si / 1000 Ang^3
#
#
#
# Elastic Constant Matrix: (Units=GPa)
#
#
# Indices 1 2 3 4 5 6 
#
# 1 67.8352 -9.9014 -17.9728 0.0000 -15.8575 0.0000
# 2 -9.9014 44.9413 -25.7439 0.0000 -8.5374 0.0000
# 3 -17.9728 -25.7439 75.1413 0.0000 7.9679 0.0000
# 4 0.0000 0.0000 0.0000 12.8027 0.0000 18.0024
# 5 -15.8575 -8.5374 7.9679 0.0000 53.0688 0.0000
# 6 0.0000 0.0000 0.0000 18.0024 0.0000 54.6600
#
#
#
# Elastic Compliance Matrix: (Units=1/GPa)
#
#
# Indices 1 2 3 4 5 6 
#
# 1 0.019582 0.009721 0.007345 0.000000 0.006312 0.000000
# 2 0.009721 0.033014 0.012971 0.000000 0.006268 0.000000
# 3 0.007345 0.012971 0.019363 0.000000 0.001374 0.000000
# 4 0.000000 0.000000 0.000000 0.145485 0.000000 -0.047916
# 5 0.006312 0.006268 0.001374 0.000000 0.021532 0.000000
# 6 0.000000 0.000000 0.000000 -0.047916 0.000000 0.034076
#
#
# Mechanical properties :
#
#
# Convention : Reuss Voigt Hill
#
# Bulk Modulus (GPa) = 7.57386 8.96463 8.26925
# Shear Modulus (GPa) = 19.45607 40.20869 29.83238
#
# Velocity S-wave (km/s) = 3.06585 4.40741 3.79636
# Velocity P-wave (km/s) = 4.02388 5.49830 4.81782
#
# Compressibility (1/GPa) = 0.13203310
#
# Stress axis : x y z
#
# Youngs Moduli (GPa) = 51.06706 30.29017 51.64395
#
# Poissons Ratio (x) = -0.29444 -0.37932
# Poissons Ratio (y) = -0.49641 -0.66988
# Poissons Ratio (z) = -0.37508 -0.39290
#
# Static dielectric constant tensor:
#      x y z
#    x 2.127360 0.000000 -0.098390 
#    y 0.000000 1.728760 0.000000 
#    z -0.098390 0.000000 1.787610 
# 
# From -- ./inp_files/35832.got.cif
#   From: 2010.05.17/outbox.cif.g08.bks.cpg/sg15_18_cif.got.tgz:35832.got - 2010.06.03 18:47:42.
