data_PCOD9289059
_publ_section_title
;
Structure prediction by ZEFSAII (Michael W. Deem and Ramdas Pophale) SiO2 
 PCOD9289059
Probable space group: C 2/C
;
_chemical_formula_sum "Si O2"
_cell_formula_units_Z 60
_cell_length_a 9.738553
_cell_length_b 9.611301
_cell_length_c 29.363691
_cell_angle_alpha 90.000000
_cell_angle_beta 73.337198
_cell_angle_gamma 90.000000
_cell_volume 2633.035893
_symmetry_space_group_name_H-M "C 2/C"
_symmetry_group_IT_number 15
_symmetry_cell_setting 'monoclinic'
loop_
_space_group_symop_operation_xyz
x,y,z
-x,y,1/2-z
-x,-y,-z
x,-y,1/2+z
1/2+x,1/2+y,z
1/2-x,1/2+y,1/2-z
1/2-x,1/2-y,-z
1/2+x,1/2-y,1/2+z
loop_
_atom_site_type_symbol
_atom_site_label
_atom_site_fract_x
_atom_site_fract_y
_atom_site_fract_z
Si Si1 0.459305 0.700516 0.169292
Si Si2 0.336467 0.984274 0.882496
Si Si3 0.500000 0.887935 0.250000
Si Si4 0.741446 0.316413 0.124509
Si Si5 0.044668 0.908409 0.296475
Si Si6 0.116144 0.397855 0.800062
Si Si7 0.949617 0.483326 0.555915
Si Si8 0.740797 0.215001 0.379699
O O1 0.525730 0.780915 0.206258
O O2 0.342441 0.801366 0.159115
O O3 0.397512 0.551256 0.187836
O O4 0.595154 0.681647 0.123152
O O5 0.256108 0.839210 0.895705
O O6 0.459279 0.942538 0.834121
O O7 0.422327 0.015261 0.920848
O O8 0.244423 0.117360 0.875800
O O9 0.375630 0.990761 0.241753
O O10 0.587058 0.363938 0.157617
O O11 0.817041 0.417258 0.081830
O O12 0.000000 0.950963 0.250000
O O13 0.123513 0.760710 0.281592
O O14 0.209738 0.378047 0.837044
O O15 0.883669 0.332321 0.574460
O O16 0.000000 0.500000 0.500000
#
# Coordination Sequence:
#
# PCOD9289059 Si02
#       8
#     8   8   4   8   8   8   8   8
#     4  12  23  40  63  94 128 179 221 270 326 376
#     4  10  22  44  67  95 130 175 217 264 338 389
#     4  12  22  38  56  92 132 166 232 272 308 382
#     4  11  24  45  68  92 138 171 218 276 320 396
#     4  11  23  42  59  95 127 175 225 265 317 378
#     4  10  22  40  59  89 131 175 218 273 323 374
#     4  11  24  44  72 101 130 168 213 273 344 401
#     4  11  21  43  67  89 133 175 213 270 334 388
#
# _framework density 22.787383999999999
#
# number of rings (size 3 to 8) (size 9 to 14) (size 15 to 20)
#    0.000    1.067    5.333    1.600    0.000    2.133 
#    4.800    0.667    0.000    0.000    0.000    0.000 
#    0.000    0.000    0.000    0.000    0.000    0.000 
#
# Total GULP energy -167466.138317 kJ/mol
# GULP energy per Si atom -5582.204611 kJ/mol
# Density = 2.273552 g / cm^3
# Si number density = 22.787384 Si / 1000 Ang^3
#
#
#
# Elastic Constant Matrix: (Units=GPa)
#
#
# Indices 1 2 3 4 5 6 
#
# 1 41.3827 25.1738 21.0281 0.0000 -5.0998 0.0000
# 2 25.1738 177.6420 40.0113 0.0000 -6.8224 0.0000
# 3 21.0281 40.0113 103.9527 0.0000 -3.3779 0.0000
# 4 0.0000 0.0000 0.0000 18.3663 0.0000 -2.3353
# 5 -5.0998 -6.8224 -3.3779 0.0000 21.7259 0.0000
# 6 0.0000 0.0000 0.0000 -2.3353 0.0000 37.6732
#
#
#
# Elastic Compliance Matrix: (Units=1/GPa)
#
#
# Indices 1 2 3 4 5 6 
#
# 1 0.028865 -0.002863 -0.004569 0.000000 0.005166 0.000000
# 2 -0.002863 0.006502 -0.001888 0.000000 0.001076 0.000000
# 3 -0.004569 -0.001888 0.011274 0.000000 0.000087 0.000000
# 4 0.000000 0.000000 0.000000 0.054880 0.000000 0.003402
# 5 0.005166 0.001076 0.000087 0.000000 0.047592 0.000000
# 6 0.000000 0.000000 0.000000 0.003402 0.000000 0.026755
#
#
# Mechanical properties :
#
#
# Convention : Reuss Voigt Hill
#
# Bulk Modulus (GPa) = 35.71527 55.04487 45.38007
# Shear Modulus (GPa) = 24.52891 31.33735 27.93313
#
# Velocity S-wave (km/s) = 3.28445 3.71240 3.50496
# Velocity P-wave (km/s) = 5.48551 6.52566 6.02806
#
# Compressibility (1/GPa) = 0.02799923
#
# Stress axis : x y z
#
# Youngs Moduli (GPa) = 34.64444 153.80672 88.70198
#
# Poissons Ratio (x) = 0.44033 0.40529
# Poissons Ratio (y) = 0.09918 0.16750
# Poissons Ratio (z) = 0.15829 0.29045
#
# Static dielectric constant tensor:
#      x y z
#    x 1.976720 0.000000 0.000450 
#    y 0.000000 1.931100 0.000000 
#    z 0.000450 0.000000 1.844070 
# 
# From -- ./inp_files/310295.got.cif
#   From: 2010.05.17/outbox.cif.g08.bks.cpg/sg15_156_cif.got.tgz:310295.got - 2010.06.03 18:47:42.
