data_PCOD9289749
_publ_section_title
;
Structure prediction by ZEFSAII (Michael W. Deem and Ramdas Pophale) SiO2 
 PCOD9289749
Probable space group: C 2/C
;
_chemical_formula_sum "Si O2"
_cell_formula_units_Z 40
_cell_length_a 15.211249
_cell_length_b 8.422675
_cell_length_c 11.814341
_cell_angle_alpha 90.000000
_cell_angle_beta 84.747539
_cell_angle_gamma 90.000000
_cell_volume 1507.290553
_symmetry_space_group_name_H-M "C 2/C"
_symmetry_group_IT_number 15
_symmetry_cell_setting 'monoclinic'
loop_
_space_group_symop_operation_xyz
x,y,z
-x,y,1/2-z
-x,-y,-z
x,-y,1/2+z
1/2+x,1/2+y,z
1/2-x,1/2+y,1/2-z
1/2-x,1/2-y,-z
1/2+x,1/2-y,1/2+z
loop_
_atom_site_type_symbol
_atom_site_label
_atom_site_fract_x
_atom_site_fract_y
_atom_site_fract_z
Si Si1 0.527864 0.552533 0.367959
Si Si2 0.410040 0.119611 0.332096
Si Si3 0.627239 0.229581 0.591502
Si Si4 0.194828 0.376302 0.854965
Si Si5 0.339692 0.771944 0.060439
O O1 0.500000 0.464579 0.250000
O O2 0.500000 0.500000 0.500000
O O3 0.465886 0.705432 0.363039
O O4 0.627221 0.621081 0.370925
O O5 0.500000 0.104564 0.250000
O O6 0.336897 0.194998 0.259071
O O7 0.413545 0.202584 0.452828
O O8 0.368456 0.948834 0.366150
O O9 0.704583 0.341585 0.627580
O O10 0.639889 0.218233 0.455973
O O11 0.170070 0.562020 0.871456
O O12 0.250000 0.750000 0.000000
#
# Coordination Sequence:
#
# PCOD9289749 Si02
#       5
#     8   8   8   8   8
#     4  12  27  46  72 104 148 194 246 311 374 446
#     4  11  23  40  71 102 136 192 241 304 369 439
#     4  10  22  43  65 101 141 186 242 298 366 440
#     4  10  22  40  67  98 137 185 239 302 361 440
#     4  11  25  45  68 104 144 190 251 301 374 449
#
# _framework density 26.537682
#
# number of rings (size 3 to 8) (size 9 to 14) (size 15 to 20)
#    0.000    1.200    0.000    5.400    5.600    5.600 
#    0.000    0.000    0.000    0.000    0.000    0.000 
#    0.000    0.000    0.000    0.000    0.000    0.000 
#
# Total GULP energy -111858.514927 kJ/mol
# GULP energy per Si atom -5592.925746 kJ/mol
# Density = 2.647728 g / cm^3
# Si number density = 26.537682 Si / 1000 Ang^3
#
#
#
# Elastic Constant Matrix: (Units=GPa)
#
#
# Indices 1 2 3 4 5 6 
#
# 1 85.0635 12.5806 14.7434 0.0000 13.5132 0.0000
# 2 12.5806 77.7669 37.5730 0.0000 6.8280 0.0000
# 3 14.7434 37.5730 189.7336 0.0000 -0.6868 0.0000
# 4 0.0000 0.0000 0.0000 13.5426 0.0000 3.8988
# 5 13.5132 6.8280 -0.6868 0.0000 44.0503 0.0000
# 6 0.0000 0.0000 0.0000 3.8988 0.0000 40.3594
#
#
#
# Elastic Compliance Matrix: (Units=1/GPa)
#
#
# Indices 1 2 3 4 5 6 
#
# 1 0.012671 -0.001376 -0.000725 0.000000 -0.003685 0.000000
# 2 -0.001376 0.014595 -0.002790 0.000000 -0.001884 0.000000
# 3 -0.000725 -0.002790 0.005882 0.000000 0.000747 0.000000
# 4 0.000000 0.000000 0.000000 0.075953 0.000000 -0.007337
# 5 -0.003685 -0.001884 0.000747 0.000000 0.024135 0.000000
# 6 0.000000 0.000000 0.000000 -0.007337 0.000000 0.025486
#
#
# Mechanical properties :
#
#
# Convention : Reuss Voigt Hill
#
# Bulk Modulus (GPa) = 42.79912 53.59533 48.19723
# Shear Modulus (GPa) = 28.36181 38.76827 33.56504
#
# Velocity S-wave (km/s) = 3.27270 3.82629 3.56027
# Velocity P-wave (km/s) = 5.51756 6.30559 5.92469
#
# Compressibility (1/GPa) = 0.02336497
#
# Stress axis : x y z
#
# Youngs Moduli (GPa) = 78.92330 68.51685 170.00557
#
# Poissons Ratio (x) = 0.09426 0.12334
# Poissons Ratio (y) = 0.10857 0.47434
# Poissons Ratio (z) = 0.05726 0.19117
#
# Static dielectric constant tensor:
#      x y z
#    x 2.091430 0.000000 0.020930 
#    y 0.000000 2.012150 0.000000 
#    z 0.020930 0.000000 2.214790 
# 
# From -- ./inp_files/102802.got.cif
#   From: 2010.05.17/outbox.cif.g08.bks.cpg/sg15_52_cif.got.tgz:102802.got - 2010.06.03 18:47:42.
