data_PCOD9289604
_publ_section_title
;
Structure prediction by ZEFSAII (Michael W. Deem and Ramdas Pophale) SiO2 
 PCOD9289604
Probable space group: C 2/C
;
_chemical_formula_sum "Si O2"
_cell_formula_units_Z 60
_cell_length_a 14.159696
_cell_length_b 18.166971
_cell_length_c 12.777236
_cell_angle_alpha 90.000000
_cell_angle_beta 109.553865
_cell_angle_gamma 90.000000
_cell_volume 3097.241869
_symmetry_space_group_name_H-M "C 2/C"
_symmetry_group_IT_number 15
_symmetry_cell_setting 'monoclinic'
loop_
_space_group_symop_operation_xyz
x,y,z
-x,y,1/2-z
-x,-y,-z
x,-y,1/2+z
1/2+x,1/2+y,z
1/2-x,1/2+y,1/2-z
1/2-x,1/2-y,-z
1/2+x,1/2-y,1/2+z
loop_
_atom_site_type_symbol
_atom_site_label
_atom_site_fract_x
_atom_site_fract_y
_atom_site_fract_z
Si Si1 0.737675 0.704383 0.339219
Si Si2 0.004075 0.441309 0.911238
Si Si3 0.040709 0.282559 0.646324
Si Si4 0.475891 0.623318 0.947375
Si Si5 0.334801 0.984256 0.679082
Si Si6 0.243516 0.636597 0.928993
Si Si7 0.000000 0.025263 0.750000
Si Si8 0.371013 0.416122 0.814851
O O1 0.838587 0.716086 0.310000
O O2 0.759678 0.651435 0.447502
O O3 0.709177 0.784980 0.369474
O O4 0.654859 0.663062 0.241752
O O5 0.987743 0.355735 0.927770
O O6 0.915695 0.467491 0.799644
O O7 0.113243 0.445659 0.899771
O O8 0.000000 0.500000 0.000000
O O9 0.004629 0.208178 0.577138
O O10 0.000000 0.287714 0.750000
O O11 0.358899 0.621145 0.937317
O O12 0.500412 0.575527 0.853361
O O13 0.542995 0.593192 0.066749
O O14 0.228996 0.949941 0.671804
O O15 0.319725 0.069026 0.640144
O O16 0.907232 0.970648 0.736394
#
# Coordination Sequence:
#
# PCOD9289604 Si02
#       8
#     8   8   8   8   8   8   4   8
#     4  10  22  40  66  90 127 176 207 267 326 372
#     4  11  23  41  65  95 120 172 211 267 321 369
#     4  11  20  43  65  87 131 167 212 265 324 382
#     4  11  25  41  66  95 129 175 212 266 328 393
#     4  11  23  39  63  91 131 157 215 264 311 389
#     4  10  22  43  64  93 130 172 216 258 326 394
#     4  12  24  40  64  96 134 172 212 264 332 378
#     4  12  24  40  64  99 129 164 218 267 320 389
#
# _framework density 19.372074000000001
#
# number of rings (size 3 to 8) (size 9 to 14) (size 15 to 20)
#    0.000    1.067    4.667    2.000    1.867    1.067 
#    0.000    6.667    0.000    0.000    0.000    0.000 
#    0.000    0.000    0.000    0.000    0.000    0.000 
#
# Total GULP energy -167490.971893 kJ/mol
# GULP energy per Si atom -5583.032396 kJ/mol
# Density = 1.932798 g / cm^3
# Si number density = 19.372074 Si / 1000 Ang^3
#
#
#
# Elastic Constant Matrix: (Units=GPa)
#
#
# Indices 1 2 3 4 5 6 
#
# 1 81.7369 25.1142 18.9702 0.0000 -5.1266 0.0000
# 2 25.1142 106.8584 24.2740 0.0000 16.5837 0.0000
# 3 18.9702 24.2740 53.6261 0.0000 -8.9004 0.0000
# 4 0.0000 0.0000 0.0000 20.2291 0.0000 -9.1338
# 5 -5.1266 16.5837 -8.9004 0.0000 16.3571 0.0000
# 6 0.0000 0.0000 0.0000 -9.1338 0.0000 23.6057
#
#
#
# Elastic Compliance Matrix: (Units=1/GPa)
#
#
# Indices 1 2 3 4 5 6 
#
# 1 0.014441 -0.004133 -0.001969 0.000000 0.007645 0.000000
# 2 -0.004133 0.016038 -0.009576 0.000000 -0.022766 0.000000
# 3 -0.001969 -0.009576 0.027688 0.000000 0.024158 0.000000
# 4 0.000000 0.000000 0.000000 0.059898 0.000000 0.023176
# 5 0.007645 -0.022766 0.024158 0.000000 0.099758 0.000000
# 6 0.000000 0.000000 0.000000 0.023176 0.000000 0.051330
#
#
# Mechanical properties :
#
#
# Convention : Reuss Voigt Hill
#
# Bulk Modulus (GPa) = 37.29791 42.10423 39.70107
# Shear Modulus (GPa) = 16.15790 23.62926 19.89358
#
# Velocity S-wave (km/s) = 2.89118 3.49629 3.20804
# Velocity P-wave (km/s) = 5.51729 6.17093 5.85324
#
# Compressibility (1/GPa) = 0.02681116
#
# Stress axis : x y z
#
# Youngs Moduli (GPa) = 69.24856 62.35176 36.11657
#
# Poissons Ratio (x) = 0.25771 0.07110
# Poissons Ratio (y) = 0.28622 0.34585
# Poissons Ratio (z) = 0.13632 0.59708
#
# Static dielectric constant tensor:
#      x y z
#    x 1.666120 0.000000 -0.001660 
#    y 0.000000 1.694750 0.000000 
#    z -0.001660 0.000000 1.610710 
# 
# From -- ./inp_files/98799.got.cif
#   From: 2010.05.17/outbox.cif.g08.bks.cpg/sg15_50_cif.got.tgz:98799.got - 2010.06.03 18:47:42.
