data_PCOD9289723
_publ_section_title
;
Structure prediction by ZEFSAII (Michael W. Deem and Ramdas Pophale) SiO2 
 PCOD9289723
Probable space group: C 2/C
;
_chemical_formula_sum "Si O2"
_cell_formula_units_Z 44
_cell_length_a 7.755652
_cell_length_b 22.749729
_cell_length_c 11.582133
_cell_angle_alpha 90.000000
_cell_angle_beta 60.595291
_cell_angle_gamma 90.000000
_cell_volume 1780.277596
_symmetry_space_group_name_H-M "C 2/C"
_symmetry_group_IT_number 15
_symmetry_cell_setting 'monoclinic'
loop_
_space_group_symop_operation_xyz
x,y,z
-x,y,1/2-z
-x,-y,-z
x,-y,1/2+z
1/2+x,1/2+y,z
1/2-x,1/2+y,1/2-z
1/2-x,1/2-y,-z
1/2+x,1/2-y,1/2+z
loop_
_atom_site_type_symbol
_atom_site_label
_atom_site_fract_x
_atom_site_fract_y
_atom_site_fract_z
Si Si1 0.015199 0.794914 0.965458
Si Si2 0.558450 0.588031 0.551283
Si Si3 0.500000 0.360386 0.750000
Si Si4 0.682577 0.940200 0.317916
Si Si5 0.553017 0.177896 0.602174
Si Si6 0.688724 0.931148 0.752952
O O1 0.035743 0.725194 0.959811
O O2 0.092922 0.818789 0.817923
O O3 0.786171 0.812555 0.021649
O O4 0.085567 0.840697 0.038558
O O5 0.690443 0.560721 0.607496
O O6 0.333901 0.575458 0.663261
O O7 0.637869 0.565197 0.402109
O O8 0.306956 0.402661 0.821868
O O9 0.527764 0.887666 0.382130
O O10 0.610496 0.005684 0.319424
O O11 0.500000 0.196467 0.750000
O O12 0.500000 0.901646 0.750000
#
# Coordination Sequence:
#
# PCOD9289723 Si02
#       6
#     8   8   4   8   8   8
#     4  10  22  40  67  94 129 172 224 276 333 397
#     4  10  23  42  64  95 134 173 220 278 335 392
#     4  10  22  44  66  94 138 174 220 286 328 394
#     4  11  23  42  65  95 136 172 222 276 334 402
#     4  11  21  39  67  96 126 175 226 269 337 407
#     4  11  25  42  66 100 132 180 224 271 336 400
#
# _framework density 24.715247000000002
#
# number of rings (size 3 to 8) (size 9 to 14) (size 15 to 20)
#    0.000    1.455    2.727    2.182    2.545    2.909 
#    0.000    0.000   16.000    0.000    0.000    0.000 
#    0.000    0.000    0.000    0.000    0.000    0.000 
#
# Total GULP energy -122724.264309 kJ/mol
# GULP energy per Si atom -5578.375650 kJ/mol
# Density = 2.465899 g / cm^3
# Si number density = 24.715247 Si / 1000 Ang^3
#
#
#
# Elastic Constant Matrix: (Units=GPa)
#
#
# Indices 1 2 3 4 5 6 
#
# 1 94.0380 27.5472 -10.6378 0.0000 -1.0186 0.0000
# 2 27.5472 103.4066 -0.7570 0.0000 -16.0734 0.0000
# 3 -10.6378 -0.7570 63.8261 0.0000 -11.0272 0.0000
# 4 0.0000 0.0000 0.0000 24.8637 0.0000 -7.2203
# 5 -1.0186 -16.0734 -11.0272 0.0000 27.6034 0.0000
# 6 0.0000 0.0000 0.0000 -7.2203 0.0000 3.7969
#
#
#
# Elastic Compliance Matrix: (Units=1/GPa)
#
#
# Indices 1 2 3 4 5 6 
#
# 1 0.011778 -0.003238 0.001798 0.000000 -0.000733 0.000000
# 2 -0.003238 0.011622 0.000802 0.000000 0.006969 0.000000
# 3 0.001798 0.000802 0.017260 0.000000 0.007429 0.000000
# 4 0.000000 0.000000 0.000000 0.089818 0.000000 0.170799
# 5 -0.000733 0.006969 0.007429 0.000000 0.043226 0.000000
# 6 0.000000 0.000000 0.000000 0.170799 0.000000 0.588162
#
#
# Mechanical properties :
#
#
# Convention : Reuss Voigt Hill
#
# Bulk Modulus (GPa) = 25.39100 32.61950 29.00525
# Shear Modulus (GPa) = 6.44105 27.59403 17.01754
#
# Velocity S-wave (km/s) = 1.61609 3.34500 2.62686
# Velocity P-wave (km/s) = 3.71188 5.30523 4.57840
#
# Compressibility (1/GPa) = 0.03938404
#
# Stress axis : x y z
#
# Youngs Moduli (GPa) = 84.90335 86.04133 57.93675
#
# Poissons Ratio (x) = 0.27864 -0.10417
# Poissons Ratio (y) = 0.27495 -0.04647
# Poissons Ratio (z) = -0.15266 -0.06901
#
# Static dielectric constant tensor:
#      x y z
#    x 1.982420 0.000000 -0.116840 
#    y 0.000000 2.023550 0.000000 
#    z -0.116840 0.000000 3.293540 
# 
# From -- ./inp_files/79682.got.cif
#   From: 2010.05.17/outbox.cif.g08.bks.cpg/sg15_40_cif.got.tgz:79682.got - 2010.06.03 18:47:42.
