data_PCOD9289634
_publ_section_title
;
Structure prediction by ZEFSAII (Michael W. Deem and Ramdas Pophale) SiO2 
 PCOD9289634
Probable space group: C 2/C
;
_chemical_formula_sum "Si O2"
_cell_formula_units_Z 64
_cell_length_a 14.519021
_cell_length_b 17.541034
_cell_length_c 14.046346
_cell_angle_alpha 90.000000
_cell_angle_beta 60.564131
_cell_angle_gamma 90.000000
_cell_volume 3115.496929
_symmetry_space_group_name_H-M "C 2/C"
_symmetry_group_IT_number 15
_symmetry_cell_setting 'monoclinic'
loop_
_space_group_symop_operation_xyz
x,y,z
-x,y,1/2-z
-x,-y,-z
x,-y,1/2+z
1/2+x,1/2+y,z
1/2-x,1/2+y,1/2-z
1/2-x,1/2-y,-z
1/2+x,1/2-y,1/2+z
loop_
_atom_site_type_symbol
_atom_site_label
_atom_site_fract_x
_atom_site_fract_y
_atom_site_fract_z
Si Si1 0.206724 0.728428 0.126617
Si Si2 0.123439 0.441606 0.701557
Si Si3 0.083358 0.129634 0.782853
Si Si4 0.871284 0.835580 0.687831
Si Si5 0.709900 0.800282 0.934334
Si Si6 0.252349 0.943616 0.496683
Si Si7 0.779872 0.010773 0.274770
Si Si8 0.922919 0.836361 0.012776
O O1 0.147104 0.646750 0.164312
O O2 0.132649 0.794989 0.208075
O O3 0.308505 0.712652 0.141188
O O4 0.250000 0.750000 0.000000
O O5 0.191426 0.495287 0.597384
O O6 0.168341 0.464514 0.783773
O O7 0.000000 0.456267 0.750000
O O8 0.025351 0.137361 0.914419
O O9 0.000000 0.096163 0.750000
O O10 0.181009 0.074557 0.760156
O O11 0.808061 0.817898 0.816208
O O12 0.856811 0.927099 0.686049
O O13 0.993681 0.819745 0.612458
O O14 0.669477 0.877862 0.001788
O O15 0.628219 0.743798 0.927927
O O16 0.750000 0.750000 0.000000
O O17 0.213462 0.980125 0.614860
O O18 0.161252 0.897274 0.486019
#
# Coordination Sequence:
#
# PCOD9289634 Si02
#       8
#     8   8   8   8   8   8   8   8
#     4  11  23  44  65  98 139 177 234 284 338 423
#     4  11  24  46  70  98 139 184 227 290 354 407
#     4  12  24  40  68 103 140 180 228 287 347 410
#     4  10  22  40  66  94 133 183 218 283 356 393
#     4   9  20  40  61  90 133 170 227 284 329 414
#     4  10  22  43  65  96 136 177 230 285 338 414
#     4  10  24  43  66  98 139 176 232 287 336 429
#     4  11  22  41  68  99 140 180 228 291 348 409
#
# _framework density 20.542470000000002
#
# number of rings (size 3 to 8) (size 9 to 14) (size 15 to 20)
#    0.000    1.500    2.500    1.875    1.750    6.000 
#    6.750    0.000    0.000    0.000    0.000    0.000 
#    0.000    0.000    0.000    0.000    0.000    0.000 
#
# Total GULP energy -178312.811226 kJ/mol
# GULP energy per Si atom -5572.275351 kJ/mol
# Density = 2.049571 g / cm^3
# Si number density = 20.542470 Si / 1000 Ang^3
#
#
#
# Elastic Constant Matrix: (Units=GPa)
#
#
# Indices 1 2 3 4 5 6 
#
# 1 84.1115 17.6798 38.5646 0.0000 6.4725 0.0000
# 2 17.6798 92.0714 46.2619 0.0000 -5.9379 0.0000
# 3 38.5646 46.2619 91.6044 0.0000 6.0815 0.0000
# 4 0.0000 0.0000 0.0000 22.2768 0.0000 5.1531
# 5 6.4725 -5.9379 6.0815 0.0000 42.2752 0.0000
# 6 0.0000 0.0000 0.0000 5.1531 0.0000 18.2331
#
#
#
# Elastic Compliance Matrix: (Units=1/GPa)
#
#
# Indices 1 2 3 4 5 6 
#
# 1 0.014815 0.000212 -0.006255 0.000000 -0.001339 0.000000
# 2 0.000212 0.014980 -0.007867 0.000000 0.003203 0.000000
# 3 -0.006255 -0.007867 0.017702 0.000000 -0.002694 0.000000
# 4 0.000000 0.000000 0.000000 0.048030 0.000000 -0.013574
# 5 -0.001339 0.003203 -0.002694 0.000000 0.024697 0.000000
# 6 0.000000 0.000000 0.000000 -0.013574 0.000000 0.058682
#
#
# Mechanical properties :
#
#
# Convention : Reuss Voigt Hill
#
# Bulk Modulus (GPa) = 50.82283 52.53331 51.67807
# Shear Modulus (GPa) = 23.44281 27.57575 25.50928
#
# Velocity S-wave (km/s) = 3.38181 3.66782 3.52772
# Velocity P-wave (km/s) = 6.32795 6.60044 6.46563
#
# Compressibility (1/GPa) = 0.01967620
#
# Stress axis : x y z
#
# Youngs Moduli (GPa) = 67.49699 66.75639 56.49185
#
# Poissons Ratio (x) = -0.01413 0.35337
# Poissons Ratio (y) = -0.01429 0.44442
# Poissons Ratio (z) = 0.42221 0.52517
#
# Static dielectric constant tensor:
#      x y z
#    x 1.846730 0.000000 0.045630 
#    y 0.000000 1.802460 0.000000 
#    z 0.045630 0.000000 1.753880 
# 
# From -- ./inp_files/155484.got.cif
#   From: 2010.05.17/outbox.cif.g08.bks.cpg/sg15_78_cif.got.tgz:155484.got - 2010.06.03 18:47:42.
