data_PCOD9289425
_publ_section_title
;
Structure prediction by ZEFSAII (Michael W. Deem and Ramdas Pophale) SiO2 
 PCOD9289425
Probable space group: C 2/C
;
_chemical_formula_sum "Si O2"
_cell_formula_units_Z 40
_cell_length_a 27.527003
_cell_length_b 8.076769
_cell_length_c 9.719055
_cell_angle_alpha 90.000000
_cell_angle_beta 131.521949
_cell_angle_gamma 90.000000
_cell_volume 1617.817487
_symmetry_space_group_name_H-M "C 2/C"
_symmetry_group_IT_number 15
_symmetry_cell_setting 'monoclinic'
loop_
_space_group_symop_operation_xyz
x,y,z
-x,y,1/2-z
-x,-y,-z
x,-y,1/2+z
1/2+x,1/2+y,z
1/2-x,1/2+y,1/2-z
1/2-x,1/2-y,-z
1/2+x,1/2-y,1/2+z
loop_
_atom_site_type_symbol
_atom_site_label
_atom_site_fract_x
_atom_site_fract_y
_atom_site_fract_z
Si Si1 0.163516 0.929019 0.389222
Si Si2 0.583218 0.683628 0.138947
Si Si3 0.557026 0.659142 0.511935
Si Si4 0.864093 0.472874 0.847063
Si Si5 0.716689 0.878450 0.074812
O O1 0.092574 0.850033 0.228360
O O2 0.210477 0.898320 0.343930
O O3 0.198082 0.814394 0.565046
O O4 0.145146 0.121808 0.346902
O O5 0.572983 0.533590 0.007167
O O6 0.593639 0.861913 0.094580
O O7 0.519000 0.682406 0.112806
O O8 0.592420 0.819619 0.518090
O O9 0.829168 0.433674 0.637557
O O10 0.806512 0.518980 0.840949
#
# Coordination Sequence:
#
# PCOD9289425 Si02
#       5
#     8   8   8   8   8
#     4   8  18  39  61  91 124 163 210 261 305 376
#     4   9  18  38  66  88 122 169 209 256 317 367
#     4   8  18  39  62  90 126 156 216 262 303 380
#     4  11  22  40  66  93 124 170 204 261 318 373
#     4  10  22  40  64  94 131 162 212 263 311 378
#
# _framework density 24.72467
#
# number of rings (size 3 to 8) (size 9 to 14) (size 15 to 20)
#    1.200    1.600    0.000    0.600    0.000    5.600 
#    3.600    9.000    4.400    0.000    0.000    0.000 
#    0.000    0.000    0.000    0.000    0.000    0.000 
#
# Total GULP energy -111359.068802 kJ/mol
# GULP energy per Si atom -5567.953440 kJ/mol
# Density = 2.466840 g / cm^3
# Si number density = 24.724670 Si / 1000 Ang^3
#
#
#
# Elastic Constant Matrix: (Units=GPa)
#
#
# Indices 1 2 3 4 5 6 
#
# 1 46.9378 65.7406 15.0132 0.0000 21.0151 0.0000
# 2 65.7406 180.9527 36.3188 0.0000 13.7817 0.0000
# 3 15.0132 36.3188 46.6585 0.0000 10.8432 0.0000
# 4 0.0000 0.0000 0.0000 20.8665 0.0000 10.6797
# 5 21.0151 13.7817 10.8432 0.0000 39.5186 0.0000
# 6 0.0000 0.0000 0.0000 10.6797 0.0000 50.1643
#
#
#
# Elastic Compliance Matrix: (Units=1/GPa)
#
#
# Indices 1 2 3 4 5 6 
#
# 1 0.061240 -0.020771 0.002508 0.000000 -0.026010 0.000000
# 2 -0.020771 0.013628 -0.005754 0.000000 0.007872 0.000000
# 3 0.002508 -0.005754 0.026647 0.000000 -0.006638 0.000000
# 4 0.000000 0.000000 0.000000 0.053784 0.000000 -0.011450
# 5 -0.026010 0.007872 -0.006638 0.000000 0.038213 0.000000
# 6 0.000000 0.000000 0.000000 -0.011450 0.000000 0.022372
#
#
# Mechanical properties :
#
#
# Convention : Reuss Voigt Hill
#
# Bulk Modulus (GPa) = 18.69846 56.52157 37.61002
# Shear Modulus (GPa) = 17.74664 32.60830 25.17747
#
# Velocity S-wave (km/s) = 2.68203 3.63555 3.19456
# Velocity P-wave (km/s) = 4.14369 6.36655 5.37136
#
# Compressibility (1/GPa) = 0.05348033
#
# Stress axis : x y z
#
# Youngs Moduli (GPa) = 16.32932 73.37997 37.52790
#
# Poissons Ratio (x) = 1.52416 -0.09411
# Poissons Ratio (y) = 0.33917 0.21592
# Poissons Ratio (z) = -0.04095 0.42221
#
# Static dielectric constant tensor:
#      x y z
#    x 1.947420 0.000000 -0.049390 
#    y 0.000000 2.098490 0.000000 
#    z -0.049390 0.000000 2.036200 
# 
# From -- ./inp_files/116557.got.cif
#   From: 2010.05.17/outbox.cif.g08.bks.cpg/sg15_59_cif.got.tgz:116557.got - 2010.06.03 18:47:42.
