data_PCOD9289596
_publ_section_title
;
Structure prediction by ZEFSAII (Michael W. Deem and Ramdas Pophale) SiO2 
 PCOD9289596
Probable space group: C 2/C
;
_chemical_formula_sum "Si O2"
_cell_formula_units_Z 48
_cell_length_a 11.291577
_cell_length_b 18.750805
_cell_length_c 9.829798
_cell_angle_alpha 90.000000
_cell_angle_beta 110.672357
_cell_angle_gamma 90.000000
_cell_volume 1947.224550
_symmetry_space_group_name_H-M "C 2/C"
_symmetry_group_IT_number 15
_symmetry_cell_setting 'monoclinic'
loop_
_space_group_symop_operation_xyz
x,y,z
-x,y,1/2-z
-x,-y,-z
x,-y,1/2+z
1/2+x,1/2+y,z
1/2-x,1/2+y,1/2-z
1/2-x,1/2-y,-z
1/2+x,1/2-y,1/2+z
loop_
_atom_site_type_symbol
_atom_site_label
_atom_site_fract_x
_atom_site_fract_y
_atom_site_fract_z
Si Si1 0.132425 0.130633 0.728363
Si Si2 0.727838 0.260974 0.764437
Si Si3 0.253809 0.618248 0.442427
Si Si4 0.837251 0.386128 0.944264
Si Si5 0.000000 0.405307 0.750000
Si Si6 0.628714 0.473550 0.716297
Si Si7 0.500000 0.833232 0.250000
O O1 0.166768 0.201337 0.664074
O O2 0.000000 0.138439 0.750000
O O3 0.140662 0.053626 0.664754
O O4 0.230155 0.127259 0.893535
O O5 0.756105 0.305254 0.637222
O O6 0.740235 0.320486 0.885763
O O7 0.595536 0.219741 0.710271
O O8 0.368062 0.580325 0.409109
O O9 0.133264 0.567553 0.361775
O O10 0.748774 0.452333 0.861789
O O11 0.942608 0.372962 0.867446
O O12 0.913095 0.380932 0.114886
O O13 0.500000 0.468778 0.750000
#
# Coordination Sequence:
#
# PCOD9289596 Si02
#       7
#     8   8   8   8   4   8   4
#     4  11  24  39  65 101 124 169 223 270 322 386
#     4  10  24  38  63  93 135 169 215 265 326 387
#     4  10  22  40  66  87 130 176 212 269 322 387
#     4  10  23  41  69  91 136 173 216 270 320 391
#     4   8  18  42  63  86 117 176 218 248 316 380
#     4   9  22  43  64  92 130 169 217 269 327 382
#     4  12  24  40  61 104 125 172 220 270 330 382
#
# _framework density 24.650471
#
# number of rings (size 3 to 8) (size 9 to 14) (size 15 to 20)
#    0.000    2.333    0.000    2.000   11.667    5.333 
#    0.000   11.667    0.000    0.000    0.000    0.000 
#    0.000    0.000    0.000    0.000    0.000    0.000 
#
# Total GULP energy -133833.127331 kJ/mol
# GULP energy per Si atom -5576.380305 kJ/mol
# Density = 2.459437 g / cm^3
# Si number density = 24.650471 Si / 1000 Ang^3
#
#
#
# Elastic Constant Matrix: (Units=GPa)
#
#
# Indices 1 2 3 4 5 6 
#
# 1 82.5769 23.5203 -7.4528 0.0000 7.1144 0.0000
# 2 23.5203 110.1612 -17.6135 0.0000 3.0456 0.0000
# 3 -7.4528 -17.6135 91.4215 0.0000 13.4301 0.0000
# 4 0.0000 0.0000 0.0000 -17.0853 0.0000 26.3137
# 5 7.1144 3.0456 13.4301 0.0000 38.4657 0.0000
# 6 0.0000 0.0000 0.0000 26.3137 0.0000 10.1694
#
#
#
# Elastic Compliance Matrix: (Units=1/GPa)
#
#
# Indices 1 2 3 4 5 6 
#
# 1 0.013153 -0.002586 0.000950 0.000000 -0.002560 0.000000
# 2 -0.002586 0.009951 0.001847 0.000000 -0.000954 0.000000
# 3 0.000950 0.001847 0.012036 0.000000 -0.004524 0.000000
# 4 0.000000 0.000000 0.000000 -0.011741 0.000000 0.030380
# 5 -0.002560 -0.000954 -0.004524 0.000000 0.028126 0.000000
# 6 0.000000 0.000000 0.000000 0.030380 0.000000 0.019725
#
#
# Mechanical properties :
#
#
# Convention : Reuss Voigt Hill
#
# Bulk Modulus (GPa) = 28.11935 31.22971 29.67453
# Shear Modulus (GPa) = 60.47245 25.35699 42.91472
#
# Velocity S-wave (km/s) = 4.95835 3.21076 4.17697
# Velocity P-wave (km/s) = 6.64923 5.14216 5.94366
#
# Compressibility (1/GPa) = 0.03556269
#
# Stress axis : x y z
#
# Youngs Moduli (GPa) = 76.03040 100.48954 83.08259
#
# Poissons Ratio (x) = 0.25982 -0.07894
# Poissons Ratio (y) = 0.19658 -0.15343
# Poissons Ratio (z) = -0.07224 -0.18557
#
# Static dielectric constant tensor:
#      x y z
#    x 1.981620 0.000000 0.020810 
#    y 0.000000 1.960030 0.000000 
#    z 0.020810 0.000000 2.044490 
# 
# From -- ./inp_files/87908.got.cif
#   From: 2010.05.17/outbox.cif.g08.bks.cpg/sg15_44_cif.got.tgz:87908.got - 2010.06.03 18:47:42.
