data_PCOD9289728
_publ_section_title
;
Structure prediction by ZEFSAII (Michael W. Deem and Ramdas Pophale) SiO2 
 PCOD9289728
Probable space group: C 2/C
;
_chemical_formula_sum "Si O2"
_cell_formula_units_Z 52
_cell_length_a 16.750917
_cell_length_b 13.622921
_cell_length_c 11.128238
_cell_angle_alpha 90.000000
_cell_angle_beta 111.818543
_cell_angle_gamma 90.000000
_cell_volume 2357.513917
_symmetry_space_group_name_H-M "C 2/C"
_symmetry_group_IT_number 15
_symmetry_cell_setting 'monoclinic'
loop_
_space_group_symop_operation_xyz
x,y,z
-x,y,1/2-z
-x,-y,-z
x,-y,1/2+z
1/2+x,1/2+y,z
1/2-x,1/2+y,1/2-z
1/2-x,1/2-y,-z
1/2+x,1/2-y,1/2+z
loop_
_atom_site_type_symbol
_atom_site_label
_atom_site_fract_x
_atom_site_fract_y
_atom_site_fract_z
Si Si1 0.466862 0.387383 0.606098
Si Si2 0.031998 0.885896 0.394248
Si Si3 0.843290 0.332103 0.807934
Si Si4 0.233154 0.861781 0.525184
Si Si5 0.000000 0.416525 0.750000
Si Si6 0.149576 0.530048 0.957077
Si Si7 0.281189 0.664625 0.928487
O O1 0.500000 0.342860 0.750000
O O2 0.501010 0.338938 0.502263
O O3 0.499113 0.500208 0.622557
O O4 0.364092 0.385041 0.536747
O O5 0.134093 0.884215 0.454411
O O6 0.000000 0.844807 0.250000
O O7 0.766541 0.371712 0.680762
O O8 0.930336 0.351135 0.782147
O O9 0.815815 0.221533 0.830288
O O10 0.854253 0.396667 0.933567
O O11 0.250000 0.750000 0.500000
O O12 0.291030 0.936228 0.481211
O O13 0.941643 0.487361 0.634352
O O14 0.202216 0.588654 0.881578
O O15 0.250000 0.750000 0.000000
#
# Coordination Sequence:
#
# PCOD9289728 Si02
#       7
#     8   8   8   8   4   8   8
#     4  10  22  40  67  95 128 173 224 277 337 412
#     4  10  23  41  65  95 132 174 219 275 348 408
#     4  10  24  42  69  98 139 176 230 285 348 412
#     4  11  25  41  66 101 130 179 225 282 353 416
#     4  10  22  44  70 104 132 188 228 288 352 418
#     4  10  22  45  71  95 137 177 235 284 344 411
#     4  10  22  42  66  97 132 176 221 284 336 401
#
# _framework density 22.057134000000001
#
# number of rings (size 3 to 8) (size 9 to 14) (size 15 to 20)
#    0.000    1.846    1.538    0.462    6.462    6.154 
#    6.923    0.000    0.000    0.000    0.000    0.000 
#    0.000    0.000    0.000    0.000    0.000    0.000 
#
# Total GULP energy -145150.614972 kJ/mol
# GULP energy per Si atom -5582.715960 kJ/mol
# Density = 2.200693 g / cm^3
# Si number density = 22.057134 Si / 1000 Ang^3
#
#
#
# Elastic Constant Matrix: (Units=GPa)
#
#
# Indices 1 2 3 4 5 6 
#
# 1 95.1537 8.6432 63.0408 0.0000 12.4971 0.0000
# 2 8.6432 84.8781 14.0873 0.0000 -9.8287 0.0000
# 3 63.0408 14.0873 144.3185 0.0000 -1.8302 0.0000
# 4 0.0000 0.0000 0.0000 18.8209 0.0000 -6.9010
# 5 12.4971 -9.8287 -1.8302 0.0000 37.3188 0.0000
# 6 0.0000 0.0000 0.0000 -6.9010 0.0000 22.3043
#
#
#
# Elastic Compliance Matrix: (Units=1/GPa)
#
#
# Indices 1 2 3 4 5 6 
#
# 1 0.016015 -0.001172 -0.006957 0.000000 -0.006013 0.000000
# 2 -0.001172 0.012431 -0.000655 0.000000 0.003634 0.000000
# 3 -0.006957 -0.000655 0.010066 0.000000 0.002651 0.000000
# 4 0.000000 0.000000 0.000000 0.059932 0.000000 0.018543
# 5 -0.006013 0.003634 0.002651 0.000000 0.029897 0.000000
# 6 0.000000 0.000000 0.000000 0.018543 0.000000 0.050572
#
#
# Mechanical properties :
#
#
# Convention : Reuss Voigt Hill
#
# Bulk Modulus (GPa) = 47.75232 55.09919 51.42575
# Shear Modulus (GPa) = 24.57465 31.59406 28.08436
#
# Velocity S-wave (km/s) = 3.34149 3.78878 3.57214
# Velocity P-wave (km/s) = 6.04845 6.64637 6.35445
#
# Compressibility (1/GPa) = 0.02094139
#
# Stress axis : x y z
#
# Youngs Moduli (GPa) = 62.44181 80.44681 99.34626
#
# Poissons Ratio (x) = 0.09431 0.69119
# Poissons Ratio (y) = 0.07320 0.06509
# Poissons Ratio (z) = 0.43443 0.05271
#
# Static dielectric constant tensor:
#      x y z
#    x 1.816450 0.000000 -0.043860 
#    y 0.000000 1.177070 0.000000 
#    z -0.043860 0.000000 1.852640 
# 
# From -- ./inp_files/97130.got.cif
#   From: 2010.05.17/outbox.cif.g08.bks.cpg/sg15_49_cif.got.tgz:97130.got - 2010.06.03 18:47:42.
