data_PCOD9289740
_publ_section_title
;
Structure prediction by ZEFSAII (Michael W. Deem and Ramdas Pophale) SiO2 
 PCOD9289740
Probable space group: C 2/C
;
_chemical_formula_sum "Si O2"
_cell_formula_units_Z 56
_cell_length_a 17.209852
_cell_length_b 16.157908
_cell_length_c 26.653518
_cell_angle_alpha 90.000000
_cell_angle_beta 158.205484
_cell_angle_gamma 90.000000
_cell_volume 2751.801803
_symmetry_space_group_name_H-M "C 2/C"
_symmetry_group_IT_number 15
_symmetry_cell_setting 'monoclinic'
loop_
_space_group_symop_operation_xyz
x,y,z
-x,y,1/2-z
-x,-y,-z
x,-y,1/2+z
1/2+x,1/2+y,z
1/2-x,1/2+y,1/2-z
1/2-x,1/2-y,-z
1/2+x,1/2-y,1/2+z
loop_
_atom_site_type_symbol
_atom_site_label
_atom_site_fract_x
_atom_site_fract_y
_atom_site_fract_z
Si Si1 0.500000 0.091053 0.250000
Si Si2 0.571470 0.404202 0.185246
Si Si3 0.000000 0.843152 0.250000
Si Si4 0.036795 0.446962 0.471087
Si Si5 0.175691 0.489274 0.446455
Si Si6 0.198217 0.730202 0.103184
Si Si7 0.860061 0.783622 0.981665
Si Si8 0.347832 0.802466 0.101111
O O1 0.291122 0.145647 0.131556
O O2 0.537540 0.042506 0.324561
O O3 0.580920 0.392075 0.250717
O O4 0.810062 0.419570 0.313651
O O5 0.413215 0.479630 0.079945
O O6 0.473845 0.324739 0.097842
O O7 0.808763 0.789211 0.112506
O O8 0.000000 0.500000 0.500000
O O9 0.137142 0.494619 0.483499
O O10 0.163972 0.363604 0.562906
O O11 0.131019 0.396174 0.402711
O O12 0.183391 0.793484 0.047941
O O13 0.432498 0.755102 0.259228
O O14 0.033357 0.750715 0.047274
O O15 0.250000 0.750000 0.000000
#
# Coordination Sequence:
#
# PCOD9289740 Si02
#       8
#     4   8   4   8   8   8   8   8
#     4   9  22  44  68  99 134 176 216 275 330 392
#     4  11  24  41  65  98 133 177 216 277 336 399
#     4  11  20  42  64  99 134 176 216 269 336 398
#     4  12  26  43  66 102 135 178 220 279 340 400
#     4  11  24  45  68  97 138 174 226 272 336 396
#     4  11  24  43  67  96 130 172 226 272 330 396
#     4  10  22  40  67  97 133 171 223 270 328 403
#     4  11  24  43  67  92 129 178 219 276 320 390
#
# _framework density 20.350303
#
# number of rings (size 3 to 8) (size 9 to 14) (size 15 to 20)
#    0.000    1.143    2.857    3.000    2.000    1.143 
#    0.000    3.571    0.000    0.000    0.000    0.000 
#    0.000    0.000    0.000    0.000    0.000    0.000 
#
# Total GULP energy -156093.957878 kJ/mol
# GULP energy per Si atom -5574.784210 kJ/mol
# Density = 2.030398 g / cm^3
# Si number density = 20.350303 Si / 1000 Ang^3
#
#
#
# Elastic Constant Matrix: (Units=GPa)
#
#
# Indices 1 2 3 4 5 6 
#
# 1 91.9912 14.3380 -0.9208 0.0128 -3.2454 -0.0036
# 2 14.3380 69.2211 29.2706 0.0132 -2.6663 -0.0021
# 3 -0.9208 29.2706 58.8079 0.0464 -2.8685 -0.0409
# 4 0.0128 0.0132 0.0464 21.3516 0.0084 1.8953
# 5 -3.2454 -2.6663 -2.8685 0.0084 36.1484 0.0038
# 6 -0.0036 -0.0021 -0.0409 1.8953 0.0038 46.5649
#
#
#
# Elastic Compliance Matrix: (Units=1/GPa)
#
#
# Indices 1 2 3 4 5 6 
#
# 1 0.011399 -0.003065 0.001750 -0.000009 0.000936 0.000003
# 2 -0.003065 0.019136 -0.009554 0.000011 0.000378 -0.000008
# 3 0.001750 -0.009554 0.021845 -0.000045 0.001186 0.000021
# 4 -0.000009 0.000011 -0.000045 0.047005 -0.000014 -0.001913
# 5 0.000936 0.000378 0.001186 -0.000014 0.027870 -0.000001
# 6 0.000003 -0.000008 0.000021 -0.001913 -0.000001 0.021553
#
#
# Mechanical properties :
#
#
# Convention : Reuss Voigt Hill
#
# Bulk Modulus (GPa) = 32.63574 33.93286 33.28430
# Shear Modulus (GPa) = 27.66097 32.63515 30.14806
#
# Velocity S-wave (km/s) = 3.69079 4.00893 3.85314
# Velocity P-wave (km/s) = 5.85101 6.17570 6.01555
#
# Compressibility (1/GPa) = 0.03064125
#
# Stress axis : x y z
#
# Youngs Moduli (GPa) = 87.72825 52.25793 45.77668
#
# Poissons Ratio (x) = 0.16016 -0.08009
# Poissons Ratio (y) = 0.26887 0.43735
# Poissons Ratio (z) = -0.15349 0.49928
#
# Static dielectric constant tensor:
#      x y z
#    x 1.800390 0.000010 -0.026720 
#    y 0.000010 1.703510 -0.000010 
#    z -0.026720 -0.000010 1.731960 
# 
# From -- ./inp_files/299385.got.cif
#   From: 2010.05.17/outbox.cif.g08.bks.cpg/sg15_150_cif.got.tgz:299385.got - 2010.06.03 18:47:42.
