data_PCOD9289218
_publ_section_title
;
Structure prediction by ZEFSAII (Michael W. Deem and Ramdas Pophale) SiO2 
 PCOD9289218
Probable space group: C 2/C
;
_chemical_formula_sum "Si O2"
_cell_formula_units_Z 44
_cell_length_a 25.327842
_cell_length_b 4.956293
_cell_length_c 19.898879
_cell_angle_alpha 90.000000
_cell_angle_beta 52.645088
_cell_angle_gamma 90.000000
_cell_volume 1985.601460
_symmetry_space_group_name_H-M "C 2/C"
_symmetry_group_IT_number 15
_symmetry_cell_setting 'monoclinic'
loop_
_space_group_symop_operation_xyz
x,y,z
-x,y,1/2-z
-x,-y,-z
x,-y,1/2+z
1/2+x,1/2+y,z
1/2-x,1/2+y,1/2-z
1/2-x,1/2-y,-z
1/2+x,1/2-y,1/2+z
loop_
_atom_site_type_symbol
_atom_site_label
_atom_site_fract_x
_atom_site_fract_y
_atom_site_fract_z
Si Si1 0.123461 0.746123 0.234089
Si Si2 0.373752 0.923459 0.036197
Si Si3 0.500000 0.542977 0.750000
Si Si4 0.106012 0.223128 0.331032
Si Si5 0.546529 0.587364 0.077795
Si Si6 0.259086 0.508493 0.943433
O O1 0.126857 0.436980 0.256404
O O2 0.173081 0.900889 0.145509
O O3 0.132803 0.927696 0.293329
O O4 0.051014 0.787270 0.256229
O O5 0.373074 0.836208 0.113800
O O6 0.300244 0.961166 0.064010
O O7 0.421515 0.705891 0.961175
O O8 0.406681 0.209364 0.997099
O O9 0.458645 0.376434 0.837439
O O10 0.026886 0.164434 0.391469
O O11 0.250000 0.750000 0.000000
O O12 0.250000 0.250000 0.000000
#
# Coordination Sequence:
#
# PCOD9289218 Si02
#       6
#     8   8   4   8   8   8
#     4  11  24  41  65  94 129 168 218 268 324 395
#     4  12  24  42  66  92 131 171 211 271 331 389
#     4  10  22  40  62  90 124 164 208 268 326 374
#     4  11  24  41  65  96 127 168 216 271 328 392
#     4  11  23  40  66  96 127 166 216 267 330 396
#     4  12  26  44  66  96 131 174 223 270 327 401
#
# _framework density 22.159531000000001
#
# number of rings (size 3 to 8) (size 9 to 14) (size 15 to 20)
#    0.000    0.727    0.000    8.727    0.000    9.455 
#    0.000    0.000    0.000    0.000    0.000    0.000 
#    0.000    0.000    0.000    0.000    0.000    0.000 
#
# Total GULP energy -122775.048946 kJ/mol
# GULP energy per Si atom -5580.684043 kJ/mol
# Density = 2.210910 g / cm^3
# Si number density = 22.159531 Si / 1000 Ang^3
#
#
#
# Elastic Constant Matrix: (Units=GPa)
#
#
# Indices 1 2 3 4 5 6 
#
# 1 99.6895 18.6455 26.2076 -0.1237 10.0313 0.0173
# 2 18.6455 98.4975 10.2307 -1.0783 -1.9362 -1.5485
# 3 26.2076 10.2307 86.1984 -0.0559 5.8630 0.0094
# 4 -0.1237 -1.0783 -0.0559 43.0380 0.0283 -13.7539
# 5 10.0313 -1.9362 5.8630 0.0283 42.4798 -0.2571
# 6 0.0173 -1.5485 0.0094 -13.7539 -0.2571 27.8122
#
#
#
# Elastic Compliance Matrix: (Units=1/GPa)
#
#
# Indices 1 2 3 4 5 6 
#
# 1 0.011436 -0.001893 -0.003092 -0.000071 -0.002361 -0.000168
# 2 -0.001893 0.010630 -0.000756 0.000537 0.001041 0.000868
# 3 -0.003092 -0.000756 0.012703 -0.000033 -0.001058 -0.000071
# 4 -0.000071 0.000537 -0.000033 0.027624 0.000110 0.013692
# 5 -0.002361 0.001041 -0.001058 0.000110 0.024294 0.000339
# 6 -0.000168 0.000868 -0.000071 0.013692 0.000339 0.042778
#
#
# Mechanical properties :
#
#
# Convention : Reuss Voigt Hill
#
# Bulk Modulus (GPa) = 42.94615 43.83922 43.39269
# Shear Modulus (GPa) = 33.62289 37.95275 35.78782
#
# Velocity S-wave (km/s) = 3.89949 4.14297 4.02308
# Velocity P-wave (km/s) = 6.30057 6.53545 6.41908
#
# Compressibility (1/GPa) = 0.02328497
#
# Stress axis : x y z
#
# Youngs Moduli (GPa) = 87.44660 94.07752 78.72262
#
# Poissons Ratio (x) = 0.17813 0.24337
# Poissons Ratio (y) = 0.16558 0.05955
# Poissons Ratio (z) = 0.27035 0.07117
#
# Static dielectric constant tensor:
#      x y z
#    x 1.789430 -0.000280 -0.008500 
#    y -0.000280 1.783090 -0.000060 
#    z -0.008500 -0.000060 1.817340 
# 
# From -- ./inp_files/221120.got.cif
#   From: 2010.05.17/outbox.cif.g08.bks.cpg/sg15_111_cif.got.tgz:221120.got - 2010.06.03 18:47:42.
