data_PCOD9289502
_publ_section_title
;
Structure prediction by ZEFSAII (Michael W. Deem and Ramdas Pophale) SiO2 
 PCOD9289502
Probable space group: C 2/C
;
_chemical_formula_sum "Si O2"
_cell_formula_units_Z 40
_cell_length_a 8.681644
_cell_length_b 26.848406
_cell_length_c 8.503501
_cell_angle_alpha 90.000000
_cell_angle_beta 81.712702
_cell_angle_gamma 90.000000
_cell_volume 1961.369416
_symmetry_space_group_name_H-M "C 2/C"
_symmetry_group_IT_number 15
_symmetry_cell_setting 'monoclinic'
loop_
_space_group_symop_operation_xyz
x,y,z
-x,y,1/2-z
-x,-y,-z
x,-y,1/2+z
1/2+x,1/2+y,z
1/2-x,1/2+y,1/2-z
1/2-x,1/2-y,-z
1/2+x,1/2-y,1/2+z
loop_
_atom_site_type_symbol
_atom_site_label
_atom_site_fract_x
_atom_site_fract_y
_atom_site_fract_z
Si Si1 0.329993 0.595746 0.858880
Si Si2 0.178488 0.801144 0.941664
Si Si3 0.621632 0.876001 0.123189
Si Si4 0.435341 0.050574 0.434893
Si Si5 0.684188 0.700688 0.086499
O O1 0.500000 0.589439 0.750000
O O2 0.210245 0.588506 0.731722
O O3 0.314813 0.651495 0.939792
O O4 0.250064 0.559821 0.003465
O O5 0.245655 0.808212 0.755186
O O6 0.998642 0.795742 0.919214
O O7 0.250000 0.750000 0.000000
O O8 0.500000 0.845452 0.250000
O O9 0.523138 0.904325 0.008962
O O10 0.752368 0.844117 0.025152
O O11 0.500000 0.051297 0.250000
O O12 0.500000 0.000000 0.500000
O O13 0.750000 0.750000 0.000000
#
# Coordination Sequence:
#
# PCOD9289502 Si02
#       5
#     8   8   8   8   8
#     4  11  22  43  69  98 133 172 220 278 331 392
#     4  11  25  40  61  91 130 178 221 273 326 388
#     4  10  22  40  65  91 129 168 213 267 330 389
#     4  11  24  46  72 100 132 173 220 270 339 405
#     4  11  24  39  60  90 130 173 228 266 323 389
#
# _framework density 20.393913999999999
#
# number of rings (size 3 to 8) (size 9 to 14) (size 15 to 20)
#    0.000    1.200    2.000    4.200    8.400    0.000 
#    0.000    4.000    0.000    0.000    0.000    0.000 
#    0.000    0.000    0.000    0.000    0.000    0.000 
#
# Total GULP energy -111353.189160 kJ/mol
# GULP energy per Si atom -5567.659458 kJ/mol
# Density = 2.034750 g / cm^3
# Si number density = 20.393914 Si / 1000 Ang^3
#
#
#
# Elastic Constant Matrix: (Units=GPa)
#
#
# Indices 1 2 3 4 5 6 
#
# 1 86.8162 16.0771 42.4208 0.0000 -16.9595 0.0000
# 2 16.0771 64.7833 30.6853 0.0000 -18.4307 0.0000
# 3 42.4208 30.6853 159.6380 0.0000 -18.9568 0.0000
# 4 0.0000 0.0000 0.0000 30.6006 0.0000 1.0042
# 5 -16.9595 -18.4307 -18.9568 0.0000 38.1364 0.0000
# 6 0.0000 0.0000 0.0000 1.0042 0.0000 26.9578
#
#
#
# Elastic Compliance Matrix: (Units=1/GPa)
#
#
# Indices 1 2 3 4 5 6 
#
# 1 0.014003 -0.000799 -0.003054 0.000000 0.004323 0.000000
# 2 -0.000799 0.018988 -0.002540 0.000000 0.007559 0.000000
# 3 -0.003054 -0.002540 0.007712 0.000000 0.001248 0.000000
# 4 0.000000 0.000000 0.000000 0.032719 0.000000 -0.001219
# 5 0.004323 0.007559 0.001248 0.000000 0.032418 0.000000
# 6 0.000000 0.000000 0.000000 -0.001219 0.000000 0.037140
#
#
# Mechanical properties :
#
#
# Convention : Reuss Voigt Hill
#
# Bulk Modulus (GPa) = 35.81944 54.40043 45.10993
# Shear Modulus (GPa) = 30.28980 33.94257 32.11619
#
# Velocity S-wave (km/s) = 3.85806 4.08407 3.97267
# Velocity P-wave (km/s) = 6.11948 6.99802 6.57344
#
# Compressibility (1/GPa) = 0.02791780
#
# Stress axis : x y z
#
# Youngs Moduli (GPa) = 71.41108 52.66537 129.66476
#
# Poissons Ratio (x) = 0.04206 0.39603
# Poissons Ratio (y) = 0.05702 0.32935
# Poissons Ratio (z) = 0.21811 0.13377
#
# Static dielectric constant tensor:
#      x y z
#    x 1.777440 0.000000 -0.083060 
#    y 0.000000 1.470670 0.000000 
#    z -0.083060 0.000000 1.826370 
# 
# From -- ./inp_files/23779.got.cif
#   From: 2010.05.17/outbox.cif.g08.bks.cpg/sg15_12_cif.got.tgz:23779.got - 2010.06.03 18:47:42.
