data_PCOD9289550
_publ_section_title
;
Structure prediction by ZEFSAII (Michael W. Deem and Ramdas Pophale) SiO2 
 PCOD9289550
Probable space group: C 2/C
;
_chemical_formula_sum "Si O2"
_cell_formula_units_Z 56
_cell_length_a 17.895202
_cell_length_b 19.888992
_cell_length_c 13.849584
_cell_angle_alpha 90.000000
_cell_angle_beta 147.666541
_cell_angle_gamma 90.000000
_cell_volume 2636.420924
_symmetry_space_group_name_H-M "C 2/C"
_symmetry_group_IT_number 15
_symmetry_cell_setting 'monoclinic'
loop_
_space_group_symop_operation_xyz
x,y,z
-x,y,1/2-z
-x,-y,-z
x,-y,1/2+z
1/2+x,1/2+y,z
1/2-x,1/2+y,1/2-z
1/2-x,1/2-y,-z
1/2+x,1/2-y,1/2+z
loop_
_atom_site_type_symbol
_atom_site_label
_atom_site_fract_x
_atom_site_fract_y
_atom_site_fract_z
Si Si1 0.388995 0.273973 0.052404
Si Si2 0.726958 0.002650 0.587645
Si Si3 0.469138 0.477392 0.609391
Si Si4 0.871194 0.234632 0.838887
Si Si5 0.730698 0.107233 0.756073
Si Si6 0.088473 0.613959 0.053725
Si Si7 0.270281 0.581957 0.437485
O O1 0.500000 0.245642 0.250000
O O2 0.482557 0.278578 0.056269
O O3 0.253149 0.232506 0.875867
O O4 0.319002 0.342670 0.014888
O O5 0.636153 0.938422 0.522177
O O6 0.884308 0.977099 0.783508
O O7 0.700363 0.068554 0.622714
O O8 0.725642 0.032867 0.477050
O O9 0.500000 0.450979 0.750000
O O10 0.332964 0.442153 0.422756
O O11 0.417860 0.553663 0.560115
O O12 0.822472 0.174309 0.852466
O O13 0.867153 0.307150 0.888106
O O14 0.578344 0.116908 0.632734
O O15 0.154441 0.584366 0.226217
#
# Coordination Sequence:
#
# PCOD9289550 Si02
#       7
#     8   8   8   8   8   8   8
#     4  11  21  39  62  91 139 175 222 266 334 416
#     4  11  23  40  70  96 133 182 223 277 339 401
#     4  10  22  40  65  97 125 171 227 280 336 396
#     4  11  24  40  64  96 136 180 220 276 343 410
#     4  12  23  41  66  96 134 174 226 278 338 405
#     4  11  25  43  62 104 138 178 222 280 342 403
#     4  10  22  41  65  98 136 171 230 272 333 408
#
# _framework density 21.240917
#
# number of rings (size 3 to 8) (size 9 to 14) (size 15 to 20)
#    0.000    1.143    2.857    4.286    4.000    1.714 
#    2.571    0.000    0.000    7.714    0.000    0.000 
#    0.000    0.000    0.000    0.000    0.000    0.000 
#
# Total GULP energy -156082.790181 kJ/mol
# GULP energy per Si atom -5574.385364 kJ/mol
# Density = 2.119257 g / cm^3
# Si number density = 21.240917 Si / 1000 Ang^3
#
#
#
# Elastic Constant Matrix: (Units=GPa)
#
#
# Indices 1 2 3 4 5 6 
#
# 1 61.6945 15.0715 3.5397 0.0000 21.6572 0.0000
# 2 15.0715 59.5077 -13.5107 0.0000 1.8760 0.0000
# 3 3.5397 -13.5107 55.1679 0.0000 18.9622 0.0000
# 4 0.0000 0.0000 0.0000 13.7910 0.0000 0.2137
# 5 21.6572 1.8760 18.9622 0.0000 33.0871 0.0000
# 6 0.0000 0.0000 0.0000 0.2137 0.0000 24.1641
#
#
#
# Elastic Compliance Matrix: (Units=1/GPa)
#
#
# Indices 1 2 3 4 5 6 
#
# 1 0.022958 -0.004593 0.003086 0.000000 -0.016535 0.000000
# 2 -0.004593 0.019234 0.005413 0.000000 -0.001187 0.000000
# 3 0.003086 0.005413 0.024973 0.000000 -0.016639 0.000000
# 4 0.000000 0.000000 0.000000 0.072521 0.000000 -0.000641
# 5 -0.016535 -0.001187 -0.016639 0.000000 0.050649 0.000000
# 6 0.000000 0.000000 0.000000 -0.000641 0.000000 0.041389
#
#
# Mechanical properties :
#
#
# Convention : Reuss Voigt Hill
#
# Bulk Modulus (GPa) = 13.33734 20.73012 17.03373
# Shear Modulus (GPa) = 20.08787 25.62643 22.85715
#
# Velocity S-wave (km/s) = 3.07859 3.47719 3.28394
# Velocity P-wave (km/s) = 4.35082 5.08938 4.73453
#
# Compressibility (1/GPa) = 0.07497746
#
# Stress axis : x y z
#
# Youngs Moduli (GPa) = 43.55695 51.99085 40.04301
#
# Poissons Ratio (x) = 0.23878 -0.12356
# Poissons Ratio (y) = 0.20005 -0.21675
# Poissons Ratio (z) = -0.13440 -0.28143
#
# Static dielectric constant tensor:
#      x y z
#    x 1.875490 0.000000 -0.050110 
#    y 0.000000 1.795860 0.000000 
#    z -0.050110 0.000000 1.770860 
# 
# From -- ./inp_files/50142.got.cif
#   From: 2010.05.17/outbox.cif.g08.bks.cpg/sg15_26_cif.got.tgz:50142.got - 2010.06.03 18:47:42.
