data_PCOD9289868
_publ_section_title
;
Structure prediction by ZEFSAII (Michael W. Deem and Ramdas Pophale) SiO2 
 PCOD9289868
Probable space group: C 2/C
;
_chemical_formula_sum "Si O2"
_cell_formula_units_Z 52
_cell_length_a 10.812252
_cell_length_b 23.304408
_cell_length_c 12.826599
_cell_angle_alpha 90.000000
_cell_angle_beta 135.078894
_cell_angle_gamma 90.000000
_cell_volume 2282.190660
_symmetry_space_group_name_H-M "C 2/C"
_symmetry_group_IT_number 15
_symmetry_cell_setting 'monoclinic'
loop_
_space_group_symop_operation_xyz
x,y,z
-x,y,1/2-z
-x,-y,-z
x,-y,1/2+z
1/2+x,1/2+y,z
1/2-x,1/2+y,1/2-z
1/2-x,1/2-y,-z
1/2+x,1/2-y,1/2+z
loop_
_atom_site_type_symbol
_atom_site_label
_atom_site_fract_x
_atom_site_fract_y
_atom_site_fract_z
Si Si1 0.027356 0.278156 0.876675
Si Si2 0.335525 0.377709 0.464111
Si Si3 0.000000 0.303322 0.250000
Si Si4 0.139496 0.596775 0.421837
Si Si5 0.835305 0.086970 0.721384
Si Si6 0.432687 0.499336 0.576650
Si Si7 0.871459 0.216234 0.350562
O O1 0.831318 0.297891 0.789836
O O2 0.000000 0.245752 0.750000
O O3 0.142677 0.334122 0.917166
O O4 0.099820 0.243553 0.017462
O O5 0.331460 0.389421 0.336015
O O6 0.350977 0.436630 0.538249
O O7 0.505291 0.338890 0.585486
O O8 0.160839 0.342368 0.384126
O O9 0.930610 0.263211 0.301494
O O10 0.148133 0.592369 0.553454
O O11 0.297919 0.552725 0.496626
O O12 0.000000 0.580238 0.250000
O O13 0.000000 0.112672 0.750000
O O14 0.890285 0.019575 0.758556
O O15 0.500000 0.500000 0.500000
#
# Coordination Sequence:
#
# PCOD9289868 Si02
#       7
#     8   8   4   8   8   8   8
#     4  11  26  44  74 110 146 187 242 314 376 434
#     4  11  24  43  77  99 148 197 245 299 361 446
#     4  12  26  50  68 106 150 196 252 302 360 446
#     4  10  22  40  69 105 146 175 230 306 365 433
#     4   9  20  42  71 103 140 181 235 300 375 429
#     4   9  21  42  69  99 138 190 234 288 368 436
#     4  12  26  49  72 108 146 199 247 301 370 446
#
# _framework density 22.785125000000001
#
# number of rings (size 3 to 8) (size 9 to 14) (size 15 to 20)
#    0.000    1.538    1.538    1.846   14.000    0.615 
#    4.154    3.077    3.385    0.000    0.000    0.000 
#    0.000    0.000    0.000    0.000    0.000    0.000 
#
# Total GULP energy -144822.732586 kJ/mol
# GULP energy per Si atom -5570.105099 kJ/mol
# Density = 2.273326 g / cm^3
# Si number density = 22.785125 Si / 1000 Ang^3
#
#
#
# Elastic Constant Matrix: (Units=GPa)
#
#
# Indices 1 2 3 4 5 6 
#
# 1 53.7195 42.8665 12.3387 0.0000 13.4580 0.0000
# 2 42.8665 150.5317 59.9034 0.0000 13.5011 0.0000
# 3 12.3387 59.9034 152.7580 0.0000 12.3000 0.0000
# 4 0.0000 0.0000 0.0000 34.5192 0.0000 -8.7090
# 5 13.4580 13.5011 12.3000 0.0000 32.7318 0.0000
# 6 0.0000 0.0000 0.0000 -8.7090 0.0000 30.7870
#
#
#
# Elastic Compliance Matrix: (Units=1/GPa)
#
#
# Indices 1 2 3 4 5 6 
#
# 1 0.026168 -0.007267 0.001403 0.000000 -0.008289 0.000000
# 2 -0.007267 0.010039 -0.003359 0.000000 0.000109 0.000000
# 3 0.001403 -0.003359 0.007925 0.000000 -0.002170 0.000000
# 4 0.000000 0.000000 0.000000 0.031196 0.000000 0.008825
# 5 -0.008289 0.000109 -0.002170 0.000000 0.034730 0.000000
# 6 0.000000 0.000000 0.000000 0.008825 0.000000 0.034978
#
#
# Mechanical properties :
#
#
# Convention : Reuss Voigt Hill
#
# Bulk Modulus (GPa) = 38.92859 65.24739 52.08799
# Shear Modulus (GPa) = 29.06257 35.73429 32.39843
#
# Velocity S-wave (km/s) = 3.57530 3.96449 3.77492
# Velocity P-wave (km/s) = 5.84516 7.04659 6.47380
#
# Compressibility (1/GPa) = 0.02568806
#
# Stress axis : x y z
#
# Youngs Moduli (GPa) = 38.21416 99.60867 126.18725
#
# Poissons Ratio (x) = 0.72385 -0.17710
# Poissons Ratio (y) = 0.27770 0.42382
# Poissons Ratio (z) = -0.05363 0.33455
#
# Static dielectric constant tensor:
#      x y z
#    x 2.004390 0.000000 -0.048730 
#    y 0.000000 1.930280 0.000000 
#    z -0.048730 0.000000 1.967900 
# 
# From -- ./inp_files/148139.got.cif
#   From: 2010.05.17/outbox.cif.g08.bks.cpg/sg15_75_cif.got.tgz:148139.got - 2010.06.03 18:47:42.
