data_PCOD9289185
_publ_section_title
;
Structure prediction by ZEFSAII (Michael W. Deem and Ramdas Pophale) SiO2 
 PCOD9289185
Probable space group: C 2/C
;
_chemical_formula_sum "Si O2"
_cell_formula_units_Z 44
_cell_length_a 28.705932
_cell_length_b 4.901119
_cell_length_c 11.935220
_cell_angle_alpha 90.000000
_cell_angle_beta 111.110223
_cell_angle_gamma 90.000000
_cell_volume 1566.489304
_symmetry_space_group_name_H-M "C 2/C"
_symmetry_group_IT_number 15
_symmetry_cell_setting 'monoclinic'
loop_
_space_group_symop_operation_xyz
x,y,z
-x,y,1/2-z
-x,-y,-z
x,-y,1/2+z
1/2+x,1/2+y,z
1/2-x,1/2+y,1/2-z
1/2-x,1/2-y,-z
1/2+x,1/2-y,1/2+z
loop_
_atom_site_type_symbol
_atom_site_label
_atom_site_fract_x
_atom_site_fract_y
_atom_site_fract_z
Si Si1 0.284583 0.453510 0.455708
Si Si2 0.592899 0.664316 0.572524
Si Si3 0.000000 0.000000 0.500000
Si Si4 0.858555 0.782460 0.700057
Si Si5 0.185860 0.512251 0.645849
Si Si6 0.039534 0.485903 0.191535
O O1 0.250000 0.250000 0.500000
O O2 0.335599 0.428936 0.573513
O O3 0.288651 0.766475 0.415639
O O4 0.287695 0.275513 0.346026
O O5 0.557218 0.486422 0.465743
O O6 0.625666 0.489430 0.687416
O O7 0.627582 0.920491 0.569202
O O8 0.544823 0.765354 0.607710
O O9 0.977793 0.234865 0.396749
O O10 0.817436 0.599097 0.728472
O O11 0.905725 0.591254 0.716144
O O12 0.000000 0.550907 0.250000
#
# Coordination Sequence:
#
# PCOD9289185 Si02
#       6
#     8   8   4   8   8   8
#     4  12  28  47  79 111 140 191 251 312 387 460
#     4  10  22  44  67 104 149 202 236 305 368 439
#     4  10  22  40  62 102 146 190 246 288 358 424
#     4  10  25  46  71 103 151 191 247 299 383 445
#     4  11  25  48  73 107 148 189 238 311 379 444
#     4  10  23  38  64 101 143 190 247 292 352 433
#
# _framework density 28.088287999999999
#
# number of rings (size 3 to 8) (size 9 to 14) (size 15 to 20)
#    0.000    1.455    1.818    1.091    7.636    4.364 
#    0.000    0.000    0.000    0.000    0.000    0.000 
#    0.000    0.000    0.000    0.000    0.000    0.000 
#
# Total GULP energy -122549.220483 kJ/mol
# GULP energy per Si atom -5570.419113 kJ/mol
# Density = 2.802436 g / cm^3
# Si number density = 28.088288 Si / 1000 Ang^3
#
#
#
# Elastic Constant Matrix: (Units=GPa)
#
#
# Indices 1 2 3 4 5 6 
#
# 1 162.7097 39.0028 7.8538 0.0000 -7.3830 0.0000
# 2 39.0028 155.4187 34.9185 0.0000 0.4049 0.0000
# 3 7.8538 34.9185 53.2777 0.0000 6.1023 0.0000
# 4 0.0000 0.0000 0.0000 -1.2798 0.0000 10.1519
# 5 -7.3830 0.4049 6.1023 0.0000 39.3822 0.0000
# 6 0.0000 0.0000 0.0000 10.1519 0.0000 58.5760
#
#
#
# Elastic Compliance Matrix: (Units=1/GPa)
#
#
# Indices 1 2 3 4 5 6 
#
# 1 0.006601 -0.001652 -0.000035 0.000000 0.001260 0.000000
# 2 -0.001652 0.007978 -0.005030 0.000000 0.000388 0.000000
# 3 -0.000035 -0.005030 0.022465 0.000000 -0.003436 0.000000
# 4 0.000000 0.000000 0.000000 -0.329032 0.000000 0.057025
# 5 0.001260 0.000388 -0.003436 0.000000 0.026157 0.000000
# 6 0.000000 0.000000 0.000000 0.057025 0.000000 0.007189
#
#
# Mechanical properties :
#
#
# Convention : Reuss Voigt Hill
#
# Bulk Modulus (GPa) = 42.35345 59.43957 50.89651
# Shear Modulus (GPa) = -21.06679 38.64442 8.78882
#
# Velocity S-wave (km/s) = -2.74162 3.71323 1.77082
# Velocity P-wave (km/s) = 2.25598 6.29219 4.72658
#
# Compressibility (1/GPa) = 0.02361083
#
# Stress axis : x y z
#
# Youngs Moduli (GPa) = 151.49811 125.34782 44.51454
#
# Poissons Ratio (x) = 0.20707 0.00154
# Poissons Ratio (y) = 0.25027 0.22389
# Poissons Ratio (z) = 0.00524 0.63044
#
# Static dielectric constant tensor:
#      x y z
#    x 2.707910 0.000000 0.009290 
#    y 0.000000 2.290260 0.000000 
#    z 0.009290 0.000000 2.395460 
# 
# From -- ./inp_files/125063.got.cif
#   From: 2010.05.17/outbox.cif.g08.bks.cpg/sg15_63_cif.got.tgz:125063.got - 2010.06.03 18:47:42.
