data_PCOD9289991
_publ_section_title
;
Structure prediction by ZEFSAII (Michael W. Deem and Ramdas Pophale) SiO2 
 PCOD9289991
Probable space group: C 2/C
;
_chemical_formula_sum "Si O2"
_cell_formula_units_Z 44
_cell_length_a 17.416610
_cell_length_b 5.894926
_cell_length_c 19.111783
_cell_angle_alpha 90.000000
_cell_angle_beta 59.895024
_cell_angle_gamma 90.000000
_cell_volume 1697.514331
_symmetry_space_group_name_H-M "C 2/C"
_symmetry_group_IT_number 15
_symmetry_cell_setting 'monoclinic'
loop_
_space_group_symop_operation_xyz
x,y,z
-x,y,1/2-z
-x,-y,-z
x,-y,1/2+z
1/2+x,1/2+y,z
1/2-x,1/2+y,1/2-z
1/2-x,1/2-y,-z
1/2+x,1/2-y,1/2+z
loop_
_atom_site_type_symbol
_atom_site_label
_atom_site_fract_x
_atom_site_fract_y
_atom_site_fract_z
Si Si1 0.832147 0.638367 0.500181
Si Si2 0.711268 0.104375 0.745620
Si Si3 0.022145 0.024099 0.621093
Si Si4 0.000000 0.300385 0.750000
Si Si5 0.140810 0.659906 0.630675
Si Si6 0.070525 0.365269 0.416911
O O1 0.750000 0.750000 0.500000
O O2 0.834780 0.398761 0.460433
O O3 0.838593 0.626222 0.579699
O O4 0.916738 0.795463 0.445509
O O5 0.741699 0.358528 0.760063
O O6 0.709988 0.147932 0.661928
O O7 0.611082 0.065818 0.822690
O O8 0.086563 0.887564 0.644470
O O9 0.975664 0.867965 0.585152
O O10 0.960167 0.149498 0.705076
O O11 0.926301 0.459301 0.817575
O O12 0.000000 0.500000 0.500000
#
# Coordination Sequence:
#
# PCOD9289991 Si02
#       6
#     8   8   8   4   8   8
#     4  11  26  45  72 109 153 202 255 325 407 479
#     4  12  31  51  79 116 165 214 269 336 413 487
#     4  11  24  44  77 106 149 200 265 332 393 476
#     4  10  22  40  72 104 138 188 260 322 388 460
#     4  11  24  45  72 104 144 199 257 318 393 470
#     4  12  26  49  76 118 154 209 273 335 400 485
#
# _framework density 25.920255000000001
#
# number of rings (size 3 to 8) (size 9 to 14) (size 15 to 20)
#    0.000    0.727    1.818    4.364   12.727    3.636 
#    0.000    0.000    0.000    0.000    0.000    0.000 
#    0.000    0.000    0.000    0.000    0.000    0.000 
#
# Total GULP energy -122707.656849 kJ/mol
# GULP energy per Si atom -5577.620766 kJ/mol
# Density = 2.586126 g / cm^3
# Si number density = 25.920255 Si / 1000 Ang^3
#
#
#
# Elastic Constant Matrix: (Units=GPa)
#
#
# Indices 1 2 3 4 5 6 
#
# 1 95.8945 49.1306 18.7779 -0.0003 36.4963 -0.0031
# 2 49.1306 143.3013 46.2336 -0.0019 18.4515 0.0006
# 3 18.7779 46.2336 77.8380 0.0003 19.8104 -0.0012
# 4 -0.0003 -0.0019 0.0003 52.2382 -0.0004 1.3394
# 5 36.4963 18.4515 19.8104 -0.0004 59.6606 -0.0012
# 6 -0.0031 0.0006 -0.0012 1.3394 -0.0012 48.9634
#
#
#
# Elastic Compliance Matrix: (Units=1/GPa)
#
#
# Indices 1 2 3 4 5 6 
#
# 1 0.015914 -0.004717 0.001168 0.000000 -0.008664 0.000001
# 2 -0.004717 0.010092 -0.005239 0.000000 0.001504 -0.000001
# 3 0.001168 -0.005239 0.016873 0.000000 -0.004697 0.000000
# 4 0.000000 0.000000 0.000000 0.019157 0.000000 -0.000524
# 5 -0.008664 0.001504 -0.004697 0.000000 0.023156 0.000000
# 6 0.000001 -0.000001 0.000000 -0.000524 0.000000 0.020438
#
#
# Mechanical properties :
#
#
# Convention : Reuss Voigt Hill
#
# Bulk Modulus (GPa) = 39.52377 60.59090 50.05734
# Shear Modulus (GPa) = 37.98244 45.69856 41.84050
#
# Velocity S-wave (km/s) = 3.83215 4.20342 4.02207
# Velocity P-wave (km/s) = 5.90439 6.85456 6.39714
#
# Compressibility (1/GPa) = 0.02530123
#
# Stress axis : x y z
#
# Youngs Moduli (GPa) = 62.83958 99.08553 59.26689
#
# Poissons Ratio (x) = 0.46740 -0.06921
# Poissons Ratio (y) = 0.29642 0.31052
# Poissons Ratio (z) = -0.07338 0.51914
#
# Static dielectric constant tensor:
#      x y z
#    x 2.392470 -0.000070 -1.540020 
#    y -0.000070 2.386580 0.000380 
#    z -1.540020 0.000380 10.933240 
# 
# From -- ./inp_files/212834.got.cif
#   From: 2010.05.17/outbox.cif.g08.bks.cpg/sg15_107_cif.got.tgz:212834.got - 2010.06.03 18:47:42.
