data_PCOD9289409
_publ_section_title
;
Structure prediction by ZEFSAII (Michael W. Deem and Ramdas Pophale) SiO2 
 PCOD9289409
Probable space group: C 2/C
;
_chemical_formula_sum "Si O2"
_cell_formula_units_Z 56
_cell_length_a 14.598745
_cell_length_b 15.028369
_cell_length_c 11.768736
_cell_angle_alpha 90.000000
_cell_angle_beta 80.679832
_cell_angle_gamma 90.000000
_cell_volume 2547.920033
_symmetry_space_group_name_H-M "C 2/C"
_symmetry_group_IT_number 15
_symmetry_cell_setting 'monoclinic'
loop_
_space_group_symop_operation_xyz
x,y,z
-x,y,1/2-z
-x,-y,-z
x,-y,1/2+z
1/2+x,1/2+y,z
1/2-x,1/2+y,1/2-z
1/2-x,1/2-y,-z
1/2+x,1/2-y,1/2+z
loop_
_atom_site_type_symbol
_atom_site_label
_atom_site_fract_x
_atom_site_fract_y
_atom_site_fract_z
Si Si1 0.000000 0.156998 0.750000
Si Si2 0.423406 0.820360 0.901532
Si Si3 0.257831 0.647036 0.461187
Si Si4 0.765694 0.609946 0.296634
Si Si5 0.822943 0.714785 0.655119
Si Si6 0.000000 0.313832 0.250000
Si Si7 0.058864 0.586224 0.515171
Si Si8 0.180125 0.085880 0.826095
O O1 0.941095 0.223581 0.844073
O O2 0.921109 0.098045 0.707049
O O3 0.371915 0.883808 0.820440
O O4 0.365090 0.826658 0.031056
O O5 0.526243 0.847822 0.922011
O O6 0.250000 0.750000 0.500000
O O7 0.259783 0.640931 0.325869
O O8 0.168496 0.583927 0.499527
O O9 0.330158 0.612026 0.538968
O O10 0.722007 0.692504 0.374060
O O11 0.722697 0.512767 0.315210
O O12 0.752156 0.651027 0.740770
O O13 0.910751 0.736132 0.719314
O O14 0.968854 0.374997 0.358944
O O15 0.000000 0.500000 0.500000
#
# Coordination Sequence:
#
# PCOD9289409 Si02
#       8
#     4   8   8   8   8   4   8   8
#     4  12  26  50  70 106 144 190 240 295 351 438
#     4  11  24  43  73 100 139 192 237 292 363 423
#     4  12  23  45  69  97 145 191 234 292 358 429
#     4  12  26  43  74 102 140 191 241 290 357 424
#     4  11  24  47  71  99 145 185 237 298 362 428
#     4  10  22  40  64  92 136 176 222 293 363 416
#     4  11  23  35  62 100 135 171 230 293 350 417
#     4  12  27  45  73 107 143 188 241 296 362 429
#
# _framework density 21.978712000000002
#
# number of rings (size 3 to 8) (size 9 to 14) (size 15 to 20)
#    0.000    0.571    4.286    3.000    6.000    2.286 
#    0.000    1.429    0.000    0.000    0.000    0.000 
#    0.000    0.000    0.000    0.000    0.000    0.000 
#
# Total GULP energy -156163.245707 kJ/mol
# GULP energy per Si atom -5577.258775 kJ/mol
# Density = 2.192869 g / cm^3
# Si number density = 21.978712 Si / 1000 Ang^3
#
#
#
# Elastic Constant Matrix: (Units=GPa)
#
#
# Indices 1 2 3 4 5 6 
#
# 1 109.8907 6.6317 31.3624 0.0000 37.3641 0.0000
# 2 6.6317 84.7310 6.2153 0.0000 14.7925 0.0000
# 3 31.3624 6.2153 119.0818 0.0000 28.1279 0.0000
# 4 0.0000 0.0000 0.0000 -0.7150 0.0000 14.8395
# 5 37.3641 14.7925 28.1279 0.0000 47.3727 0.0000
# 6 0.0000 0.0000 0.0000 14.8395 0.0000 35.3964
#
#
#
# Elastic Compliance Matrix: (Units=1/GPa)
#
#
# Indices 1 2 3 4 5 6 
#
# 1 0.012609 0.000757 -0.001111 0.000000 -0.009521 0.000000
# 2 0.000757 0.012538 0.000247 0.000000 -0.004659 0.000000
# 3 -0.001111 0.000247 0.009873 0.000000 -0.005063 0.000000
# 4 0.000000 0.000000 0.000000 -0.144169 0.000000 0.060441
# 5 -0.009521 -0.004659 -0.005063 0.000000 0.033080 0.000000
# 6 0.000000 0.000000 0.000000 0.060441 0.000000 0.002912
#
#
# Mechanical properties :
#
#
# Convention : Reuss Voigt Hill
#
# Bulk Modulus (GPa) = 28.73173 44.68024 36.70598
# Shear Modulus (GPa) = -81.51280 34.37710 -23.56785
#
# Velocity S-wave (km/s) = -6.09653 3.95917 -3.27816
# Velocity P-wave (km/s) = 6.03788 6.42441 1.55194
#
# Compressibility (1/GPa) = 0.03480473
#
# Stress axis : x y z
#
# Youngs Moduli (GPa) = 79.30950 79.75747 101.28358
#
# Poissons Ratio (x) = -0.06037 0.11255
# Poissons Ratio (y) = -0.06003 -0.02498
# Poissons Ratio (z) = 0.08813 -0.01967
#
# Static dielectric constant tensor:
#      x y z
#    x 1.799830 0.000000 -0.008400 
#    y 0.000000 1.877000 0.000000 
#    z -0.008400 0.000000 1.886210 
# 
# From -- ./inp_files/97072.got.cif
#   From: 2010.05.17/outbox.cif.g08.bks.cpg/sg15_49_cif.got.tgz:97072.got - 2010.06.03 18:47:42.
