data_PCOD9289041
_publ_section_title
;
Structure prediction by ZEFSAII (Michael W. Deem and Ramdas Pophale) SiO2 
 PCOD9289041
Probable space group: C 2/C
;
_chemical_formula_sum "Si O2"
_cell_formula_units_Z 36
_cell_length_a 16.728680
_cell_length_b 11.669419
_cell_length_c 12.114546
_cell_angle_alpha 90.000000
_cell_angle_beta 138.374631
_cell_angle_gamma 90.000000
_cell_volume 1570.921036
_symmetry_space_group_name_H-M "C 2/C"
_symmetry_group_IT_number 15
_symmetry_cell_setting 'monoclinic'
loop_
_space_group_symop_operation_xyz
x,y,z
-x,y,1/2-z
-x,-y,-z
x,-y,1/2+z
1/2+x,1/2+y,z
1/2-x,1/2+y,1/2-z
1/2-x,1/2-y,-z
1/2+x,1/2-y,1/2+z
loop_
_atom_site_type_symbol
_atom_site_label
_atom_site_fract_x
_atom_site_fract_y
_atom_site_fract_z
Si Si1 0.105571 0.309022 0.769629
Si Si2 0.363295 0.591877 0.099978
Si Si3 0.641127 0.957009 0.216679
Si Si4 0.500000 0.815765 0.250000
Si Si5 0.761243 0.905966 0.126455
O O1 0.101292 0.410696 0.676180
O O2 0.135783 0.187870 0.744972
O O3 0.000000 0.295630 0.750000
O O4 0.208992 0.360099 0.957140
O O5 0.500000 0.542396 0.250000
O O6 0.390029 0.726966 0.117708
O O7 0.302360 0.536028 0.145508
O O8 0.274667 0.557840 0.909512
O O9 0.546583 0.893520 0.198605
O O10 0.661806 0.905297 0.117911
#
# Coordination Sequence:
#
# PCOD9289041 Si02
#       5
#     8   8   8   4   8
#     4  10  22  42  59  88 127 151 198 253 293 358
#     4   9  22  40  61  84 125 152 199 252 292 350
#     4  11  22  40  62  89 118 160 204 240 303 355
#     4  10  22  40  58  88 120 158 194 258 282 366
#     4  10  23  39  63  90 117 160 201 243 302 355
#
# _framework density 22.916491000000001
#
# number of rings (size 3 to 8) (size 9 to 14) (size 15 to 20)
#    0.667    1.333    1.111    1.333    3.111    3.556 
#    0.000    0.000    0.000    0.000    0.000    0.000 
#    0.000    0.000    0.000    0.000    0.000    0.000 
#
# Total GULP energy -100270.047918 kJ/mol
# GULP energy per Si atom -5570.558218 kJ/mol
# Density = 2.286433 g / cm^3
# Si number density = 22.916491 Si / 1000 Ang^3
#
#
#
# Elastic Constant Matrix: (Units=GPa)
#
#
# Indices 1 2 3 4 5 6 
#
# 1 106.3031 45.9531 3.9583 0.0000 -8.6766 0.0000
# 2 45.9531 93.8031 15.3758 0.0000 -4.5337 0.0000
# 3 3.9583 15.3758 55.6385 0.0000 10.4512 0.0000
# 4 0.0000 0.0000 0.0000 6.9460 0.0000 -0.3157
# 5 -8.6766 -4.5337 10.4512 0.0000 34.7288 0.0000
# 6 0.0000 0.0000 0.0000 -0.3157 0.0000 23.8113
#
#
#
# Elastic Compliance Matrix: (Units=1/GPa)
#
#
# Indices 1 2 3 4 5 6 
#
# 1 0.012115 -0.005891 0.000362 0.000000 0.002149 0.000000
# 2 -0.005891 0.014244 -0.003805 0.000000 0.001533 0.000000
# 3 0.000362 -0.003805 0.020218 0.000000 -0.006491 0.000000
# 4 0.000000 0.000000 0.000000 0.144054 0.000000 0.001910
# 5 0.002149 0.001533 -0.006491 0.000000 0.031485 0.000000
# 6 0.000000 0.000000 0.000000 0.001910 0.000000 0.042022
#
#
# Mechanical properties :
#
#
# Convention : Reuss Voigt Hill
#
# Bulk Modulus (GPa) = 35.82880 42.92434 39.37657
# Shear Modulus (GPa) = 17.11686 25.79439 21.45562
#
# Velocity S-wave (km/s) = 2.73595 3.35861 3.06314
# Velocity P-wave (km/s) = 5.06449 5.81479 5.45256
#
# Compressibility (1/GPa) = 0.02791051
#
# Stress axis : x y z
#
# Youngs Moduli (GPa) = 82.53931 70.20354 49.46040
#
# Poissons Ratio (x) = 0.41355 -0.01792
# Poissons Ratio (y) = 0.48622 0.18821
# Poissons Ratio (z) = -0.02991 0.26715
#
# Static dielectric constant tensor:
#      x y z
#    x 1.795200 0.000000 0.059650 
#    y 0.000000 1.923390 0.000000 
#    z 0.059650 0.000000 2.040150 
# 
# From -- ./inp_files/94763.got.cif
#   From: 2010.05.17/outbox.cif.g08.bks.cpg/sg15_48_cif.got.tgz:94763.got - 2010.06.03 18:47:42.
