data_PCOD9289820
_publ_section_title
;
Structure prediction by ZEFSAII (Michael W. Deem and Ramdas Pophale) SiO2 
 PCOD9289820
Probable space group: C 2/C
;
_chemical_formula_sum "Si O2"
_cell_formula_units_Z 32
_cell_length_a 10.170055
_cell_length_b 12.321049
_cell_length_c 14.495045
_cell_angle_alpha 90.000000
_cell_angle_beta 139.419336
_cell_angle_gamma 90.000000
_cell_volume 1181.543825
_symmetry_space_group_name_H-M "C 2/C"
_symmetry_group_IT_number 15
_symmetry_cell_setting 'monoclinic'
loop_
_space_group_symop_operation_xyz
x,y,z
-x,y,1/2-z
-x,-y,-z
x,-y,1/2+z
1/2+x,1/2+y,z
1/2-x,1/2+y,1/2-z
1/2-x,1/2-y,-z
1/2+x,1/2-y,1/2+z
loop_
_atom_site_type_symbol
_atom_site_label
_atom_site_fract_x
_atom_site_fract_y
_atom_site_fract_z
Si Si1 0.433228 0.812509 0.016447
Si Si2 0.812916 0.926622 0.207993
Si Si3 0.000000 0.271360 0.250000
Si Si4 0.651925 0.587966 0.117913
Si Si5 0.000000 0.721675 0.250000
O O1 0.602768 0.882517 0.053560
O O2 0.458625 0.845753 0.137745
O O3 0.514934 0.690138 0.069983
O O4 0.207213 0.799377 0.859037
O O5 0.922970 0.807606 0.287884
O O6 0.000000 0.974836 0.250000
O O7 0.755125 0.017686 0.250113
O O8 0.814694 0.641002 0.136363
O O9 0.500000 0.500000 0.000000
#
# Coordination Sequence:
#
# PCOD9289820 Si02
#       5
#     8   8   4   8   4
#     4  10  22  43  67 102 140 187 236 296 355 423
#     4   9  21  43  64  99 140 179 231 292 354 421
#     4  10  22  40  68  94 142 182 238 294 350 424
#     4  11  22  39  69  96 134 192 233 286 363 420
#     4   8  22  42  58  98 138 176 230 288 348 418
#
# _framework density 27.083212
#
# number of rings (size 3 to 8) (size 9 to 14) (size 15 to 20)
#    0.750    1.500    0.000    1.500    1.750    7.000 
#    9.000    1.250    0.000    0.000    0.000    0.000 
#    0.000    0.000    0.000    0.000    0.000    0.000 
#
# Total GULP energy -89121.143361 kJ/mol
# GULP energy per Si atom -5570.071460 kJ/mol
# Density = 2.702157 g / cm^3
# Si number density = 27.083212 Si / 1000 Ang^3
#
#
#
# Elastic Constant Matrix: (Units=GPa)
#
#
# Indices 1 2 3 4 5 6 
#
# 1 81.5452 34.2647 62.6203 0.0000 27.5896 0.0000
# 2 34.2647 164.8366 59.5702 0.0001 18.5025 0.0000
# 3 62.6203 59.5702 205.2755 0.0003 46.6989 0.0001
# 4 0.0000 0.0001 0.0003 38.9183 0.0001 6.2462
# 5 27.5896 18.5025 46.6989 0.0001 44.0415 0.0000
# 6 0.0000 0.0000 0.0001 6.2462 0.0000 21.4769
#
#
#
# Elastic Compliance Matrix: (Units=1/GPa)
#
#
# Indices 1 2 3 4 5 6 
#
# 1 0.017935 -0.001724 -0.003400 0.000000 -0.006906 0.000000
# 2 -0.001724 0.006977 -0.001420 0.000000 -0.000345 0.000000
# 3 -0.003400 -0.001420 0.007513 0.000000 -0.005240 0.000000
# 4 0.000000 0.000000 0.000000 0.026953 0.000000 -0.007839
# 5 -0.006906 -0.000345 -0.005240 0.000000 0.032733 0.000000
# 6 0.000000 0.000000 0.000000 -0.007839 0.000000 0.048841
#
#
# Mechanical properties :
#
#
# Convention : Reuss Voigt Hill
#
# Bulk Modulus (GPa) = 51.71633 84.95197 68.33415
# Shear Modulus (GPa) = 31.15541 40.56748 35.86145
#
# Velocity S-wave (km/s) = 3.39537 3.87445 3.64279
# Velocity P-wave (km/s) = 5.87437 7.17288 6.55585
#
# Compressibility (1/GPa) = 0.01933625
#
# Stress axis : x y z
#
# Youngs Moduli (GPa) = 55.75722 143.32750 133.10774
#
# Poissons Ratio (x) = 0.24715 0.45252
# Poissons Ratio (y) = 0.09615 0.18904
# Poissons Ratio (z) = 0.18956 0.20355
#
# Static dielectric constant tensor:
#      x y z
#    x 5.050170 0.000000 -1.121210 
#    y 0.000000 2.061300 0.000000 
#    z -1.121210 0.000000 2.822930 
# 
# From -- ./inp_files/83898.got.cif
#   From: 2010.05.17/outbox.cif.g08.bks.cpg/sg15_42_cif.got.tgz:83898.got - 2010.06.03 18:47:42.
