data_PCOD9289262
_publ_section_title
;
Structure prediction by ZEFSAII (Michael W. Deem and Ramdas Pophale) SiO2 
 PCOD9289262
Probable space group: C 2/C
;
_chemical_formula_sum "Si O2"
_cell_formula_units_Z 48
_cell_length_a 16.683574
_cell_length_b 27.325929
_cell_length_c 8.975748
_cell_angle_alpha 90.000000
_cell_angle_beta 146.420521
_cell_angle_gamma 90.000000
_cell_volume 2263.252424
_symmetry_space_group_name_H-M "C 2/C"
_symmetry_group_IT_number 15
_symmetry_cell_setting 'monoclinic'
loop_
_space_group_symop_operation_xyz
x,y,z
-x,y,1/2-z
-x,-y,-z
x,-y,1/2+z
1/2+x,1/2+y,z
1/2-x,1/2+y,1/2-z
1/2-x,1/2-y,-z
1/2+x,1/2-y,1/2+z
loop_
_atom_site_type_symbol
_atom_site_label
_atom_site_fract_x
_atom_site_fract_y
_atom_site_fract_z
Si Si1 0.440999 0.338476 0.990802
Si Si2 0.500000 0.486008 0.250000
Si Si3 0.579770 0.760031 0.716965
Si Si4 0.122459 0.066092 0.215016
Si Si5 0.410679 0.937906 0.319328
Si Si6 0.000000 0.474841 0.750000
Si Si7 0.396391 0.150654 0.455631
O O1 0.478812 0.385983 0.950897
O O2 0.268807 0.340828 0.752479
O O3 0.500000 0.344060 0.250000
O O4 0.503718 0.287692 0.025609
O O5 0.577472 0.522003 0.253335
O O6 0.609754 0.454633 0.524924
O O7 0.500000 0.763780 0.750000
O O8 0.566950 0.811441 0.616679
O O9 0.750000 0.750000 0.000000
O O10 0.272577 0.084220 0.521376
O O11 0.398737 0.944953 0.479048
O O12 0.552149 0.904193 0.510275
O O13 0.422578 0.989179 0.247745
O O14 0.500000 0.164565 0.750000
#
# Coordination Sequence:
#
# PCOD9289262 Si02
#       7
#     8   4   8   8   8   4   8
#     4  11  22  45  70  95 136 182 222 281 348 414
#     4  10  24  38  66  94 138 186 230 276 344 410
#     4  11  24  48  73 100 133 182 234 280 348 425
#     4  11  21  43  62  99 133 180 227 281 337 414
#     4  11  22  41  65  96 133 174 226 284 336 410
#     4  10  22  40  62  96 128 176 220 276 340 392
#     4  12  24  44  70 102 138 176 224 290 353 408
#
# _framework density 21.208416
#
# number of rings (size 3 to 8) (size 9 to 14) (size 15 to 20)
#    0.000    1.000    6.667    1.000    1.167    2.000 
#    7.500    0.000    0.000    0.000    0.000    0.000 
#    0.000    0.000    0.000    0.000    0.000    0.000 
#
# Total GULP energy -133766.571859 kJ/mol
# GULP energy per Si atom -5573.607161 kJ/mol
# Density = 2.116014 g / cm^3
# Si number density = 21.208416 Si / 1000 Ang^3
#
#
#
# Elastic Constant Matrix: (Units=GPa)
#
#
# Indices 1 2 3 4 5 6 
#
# 1 71.7229 30.1829 49.2921 0.0000 -1.1541 0.0000
# 2 30.1829 99.6940 36.4604 0.0000 1.5452 0.0000
# 3 49.2921 36.4604 149.4983 0.0000 -4.1054 0.0000
# 4 0.0000 0.0000 0.0000 69.1202 0.0000 -34.0173
# 5 -1.1541 1.5452 -4.1054 0.0000 42.5544 0.0000
# 6 0.0000 0.0000 0.0000 -34.0173 0.0000 54.1521
#
#
#
# Elastic Compliance Matrix: (Units=1/GPa)
#
#
# Indices 1 2 3 4 5 6 
#
# 1 0.019292 -0.003863 -0.005415 0.000000 0.000141 0.000000
# 2 -0.003863 0.011805 -0.001624 0.000000 -0.000690 0.000000
# 3 -0.005415 -0.001624 0.008892 0.000000 0.000770 0.000000
# 4 0.000000 0.000000 0.000000 0.020942 0.000000 0.013155
# 5 0.000141 -0.000690 0.000770 0.000000 0.023602 0.000000
# 6 0.000000 0.000000 0.000000 0.013155 0.000000 0.026730
#
#
# Mechanical properties :
#
#
# Convention : Reuss Voigt Hill
#
# Bulk Modulus (GPa) = 54.99158 61.42066 58.20612
# Shear Modulus (GPa) = 35.93802 46.83065 41.38433
#
# Velocity S-wave (km/s) = 4.12092 4.70416 4.42216
# Velocity P-wave (km/s) = 6.97338 7.65042 7.31973
#
# Compressibility (1/GPa) = 0.01818460
#
# Stress axis : x y z
#
# Youngs Moduli (GPa) = 51.83573 84.71067 112.46377
#
# Poissons Ratio (x) = 0.32720 0.60898
# Poissons Ratio (y) = 0.20022 0.18269
# Poissons Ratio (z) = 0.28069 0.13761
#
# Static dielectric constant tensor:
#      x y z
#    x 1.885260 0.000000 0.049480 
#    y 0.000000 1.837820 0.000000 
#    z 0.049480 0.000000 1.815060 
# 
# From -- ./inp_files/59169.got.cif
#   From: 2010.05.17/outbox.cif.g08.bks.cpg/sg15_30_cif.got.tgz:59169.got - 2010.06.03 18:47:42.
