data_PCOD9289386
_publ_section_title
;
Structure prediction by ZEFSAII (Michael W. Deem and Ramdas Pophale) SiO2 
 PCOD9289386
Probable space group: C 2/C
;
_chemical_formula_sum "Si O2"
_cell_formula_units_Z 40
_cell_length_a 12.538245
_cell_length_b 29.794214
_cell_length_c 5.047526
_cell_angle_alpha 90.000000
_cell_angle_beta 72.832720
_cell_angle_gamma 90.000000
_cell_volume 1801.581383
_symmetry_space_group_name_H-M "C 2/C"
_symmetry_group_IT_number 15
_symmetry_cell_setting 'monoclinic'
loop_
_space_group_symop_operation_xyz
x,y,z
-x,y,1/2-z
-x,-y,-z
x,-y,1/2+z
1/2+x,1/2+y,z
1/2-x,1/2+y,1/2-z
1/2-x,1/2-y,-z
1/2+x,1/2-y,1/2+z
loop_
_atom_site_type_symbol
_atom_site_label
_atom_site_fract_x
_atom_site_fract_y
_atom_site_fract_z
Si Si1 0.728871 0.891233 0.196170
Si Si2 0.840588 0.727186 0.128550
Si Si3 0.628673 0.530277 0.161037
Si Si4 0.000000 0.347284 0.250000
Si Si5 0.000000 0.800435 0.250000
Si Si6 0.692135 0.655547 0.365127
O O1 0.596363 0.880052 0.297449
O O2 0.774237 0.883787 0.458259
O O3 0.778019 0.935668 0.019704
O O4 0.781101 0.854445 0.957792
O O5 0.767399 0.698651 0.390019
O O6 0.916455 0.767426 0.165998
O O7 0.750000 0.750000 0.000000
O O8 0.928011 0.688220 0.973896
O O9 0.500000 0.548546 0.250000
O O10 0.638750 0.511686 0.451067
O O11 0.933996 0.831551 0.499125
#
# Coordination Sequence:
#
# PCOD9289386 Si02
#       6
#     8   8   8   4   4   8
#     4  11  24  43  64  95 132 164 216 264 333 400
#     4  11  22  40  61  88 129 179 233 276 326 383
#     4  10  22  42  70  97 128 163 204 262 331 403
#     4  10  22  40  64  90 131 178 215 274 328 380
#     4  12  22  36  60  86 123 170 225 282 320 378
#     4  11  25  38  60  92 124 170 216 270 328 378
#
# _framework density 22.202717
#
# number of rings (size 3 to 8) (size 9 to 14) (size 15 to 20)
#    0.000    1.200    0.000    6.600    2.800    4.000 
#    0.000    1.000    0.000    0.000    0.000    0.000 
#    0.000    0.000    0.000    0.000    0.000    0.000 
#
# Total GULP energy -111582.406742 kJ/mol
# GULP energy per Si atom -5579.120337 kJ/mol
# Density = 2.215218 g / cm^3
# Si number density = 22.202717 Si / 1000 Ang^3
#
#
#
# Elastic Constant Matrix: (Units=GPa)
#
#
# Indices 1 2 3 4 5 6 
#
# 1 112.5489 40.2330 30.9702 0.0000 -19.3133 0.0000
# 2 40.2330 73.6186 7.8051 0.0000 -12.3351 0.0000
# 3 30.9702 7.8051 77.3522 0.0000 -13.0758 0.0000
# 4 0.0000 0.0000 0.0000 45.4745 0.0000 -11.7268
# 5 -19.3133 -12.3351 -13.0758 0.0000 40.8386 0.0000
# 6 0.0000 0.0000 0.0000 -11.7268 0.0000 24.5131
#
#
#
# Elastic Compliance Matrix: (Units=1/GPa)
#
#
# Indices 1 2 3 4 5 6 
#
# 1 0.012610 -0.005988 -0.003956 0.000000 0.002888 0.000000
# 2 -0.005988 0.017193 0.001123 0.000000 0.002721 0.000000
# 3 -0.003956 0.001123 0.014949 0.000000 0.003254 0.000000
# 4 0.000000 0.000000 0.000000 0.025085 0.000000 0.012000
# 5 0.002888 0.002721 0.003254 0.000000 0.027716 0.000000
# 6 0.000000 0.000000 0.000000 0.012000 0.000000 0.046535
#
#
# Mechanical properties :
#
#
# Convention : Reuss Voigt Hill
#
# Bulk Modulus (GPa) = 36.88959 46.83736 41.86347
# Shear Modulus (GPa) = 29.27961 34.46599 31.87280
#
# Velocity S-wave (km/s) = 3.63539 3.94424 3.79296
# Velocity P-wave (km/s) = 5.85426 6.47177 6.17074
#
# Compressibility (1/GPa) = 0.02710792
#
# Stress axis : x y z
#
# Youngs Moduli (GPa) = 79.30337 58.16379 66.89523
#
# Poissons Ratio (x) = 0.34828 0.26466
# Poissons Ratio (y) = 0.47487 -0.07509
# Poissons Ratio (z) = 0.31375 -0.06529
#
# Static dielectric constant tensor:
#      x y z
#    x 1.911100 0.000000 -0.060750 
#    y 0.000000 1.910150 0.000000 
#    z -0.060750 0.000000 1.930070 
# 
# From -- ./inp_files/5732.got.cif
#   From: 2010.05.17/outbox.cif.g08.bks.cpg/sg15_3_cif.got.tgz:5732.got - 2010.06.03 18:47:42.
