data_PCOD9289766
_publ_section_title
;
Structure prediction by ZEFSAII (Michael W. Deem and Ramdas Pophale) SiO2 
 PCOD9289766
Probable space group: C 2/C
;
_chemical_formula_sum "Si O2"
_cell_formula_units_Z 52
_cell_length_a 19.326939
_cell_length_b 4.748108
_cell_length_c 22.781151
_cell_angle_alpha 90.000000
_cell_angle_beta 120.365044
_cell_angle_gamma 90.000000
_cell_volume 1803.767915
_symmetry_space_group_name_H-M "C 2/C"
_symmetry_group_IT_number 15
_symmetry_cell_setting 'monoclinic'
loop_
_space_group_symop_operation_xyz
x,y,z
-x,y,1/2-z
-x,-y,-z
x,-y,1/2+z
1/2+x,1/2+y,z
1/2-x,1/2+y,1/2-z
1/2-x,1/2-y,-z
1/2+x,1/2-y,1/2+z
loop_
_atom_site_type_symbol
_atom_site_label
_atom_site_fract_x
_atom_site_fract_y
_atom_site_fract_z
Si Si1 0.630212 0.370033 0.001230
Si Si2 0.232516 0.805698 0.775372
Si Si3 0.000000 0.000000 0.000000
Si Si4 0.395972 0.978989 0.895600
Si Si5 0.897901 0.995706 0.162391
Si Si6 0.688530 0.989964 0.416321
Si Si7 0.932854 0.102797 0.801065
O O1 0.557982 0.587415 0.967149
O O2 0.716466 0.497392 0.051641
O O3 0.583773 0.226559 0.039200
O O4 0.654036 0.150848 0.961195
O O5 0.262065 0.972056 0.728512
O O6 0.298220 0.936396 0.848790
O O7 0.140829 0.888979 0.728064
O O8 0.061879 0.228969 0.071373
O O9 0.425912 0.834258 0.848328
O O10 0.842165 0.804245 0.098410
O O11 0.915816 0.804020 0.226461
O O12 0.982858 0.054012 0.169720
O O13 0.848567 0.281757 0.148496
#
# Coordination Sequence:
#
# PCOD9289766 Si02
#       7
#     8   8   4   8   8   8   8
#     4   9  21  40  75 100 142 188 238 294 360 428
#     4  10  22  40  68 100 137 182 229 299 365 427
#     4   8  18  40  68 106 140 186 236 296 364 420
#     4   9  19  40  70 103 141 182 237 296 363 422
#     4  11  26  42  70  97 140 189 237 295 361 430
#     4  11  24  47  69 101 142 188 240 289 362 442
#     4  10  23  43  68 103 140 186 240 302 361 434
#
# _framework density 28.828544999999998
#
# number of rings (size 3 to 8) (size 9 to 14) (size 15 to 20)
#    0.923    1.231    0.000    1.846    0.000   14.769 
#    0.000    3.846    3.385    0.000    0.000    0.000 
#    0.000    0.000    0.000    0.000    0.000    0.000 
#
# Total GULP energy -145018.614003 kJ/mol
# GULP energy per Si atom -5577.639000 kJ/mol
# Density = 2.876293 g / cm^3
# Si number density = 28.828545 Si / 1000 Ang^3
#
#
#
# Elastic Constant Matrix: (Units=GPa)
#
#
# Indices 1 2 3 4 5 6 
#
# 1 238.5981 29.9397 47.7149 -0.0005 38.0425 0.0008
# 2 29.9397 121.8686 41.7006 -0.0014 21.8409 0.0024
# 3 47.7149 41.7006 136.5993 0.0001 18.9114 0.0007
# 4 -0.0005 -0.0014 0.0001 51.2807 0.0005 2.4458
# 5 38.0425 21.8409 18.9114 0.0005 67.1669 -0.0005
# 6 0.0008 0.0024 0.0007 2.4458 -0.0005 33.4916
#
#
#
# Elastic Compliance Matrix: (Units=1/GPa)
#
#
# Indices 1 2 3 4 5 6 
#
# 1 0.004853 -0.000348 -0.001273 0.000000 -0.002277 0.000000
# 2 -0.000348 0.009536 -0.002484 0.000000 -0.002204 -0.000001
# 3 -0.001273 -0.002484 0.008649 0.000000 -0.000906 0.000000
# 4 0.000000 0.000000 0.000000 0.019569 0.000000 -0.001429
# 5 -0.002277 -0.002204 -0.000906 0.000000 0.017150 0.000001
# 6 0.000000 -0.000001 0.000000 -0.001429 0.000001 0.029963
#
#
# Mechanical properties :
#
#
# Convention : Reuss Voigt Hill
#
# Bulk Modulus (GPa) = 67.45030 81.75294 74.60162
# Shear Modulus (GPa) = 48.60346 55.56855 52.08601
#
# Velocity S-wave (km/s) = 4.11049 4.39515 4.25520
# Velocity P-wave (km/s) = 6.78056 7.36046 7.07645
#
# Compressibility (1/GPa) = 0.01482573
#
# Stress axis : x y z
#
# Youngs Moduli (GPa) = 206.07880 104.86304 115.61514
#
# Poissons Ratio (x) = 0.03653 0.14723
# Poissons Ratio (y) = 0.07179 0.28723
# Poissons Ratio (z) = 0.26244 0.26052
#
# Static dielectric constant tensor:
#      x y z
#    x 2.394300 0.000000 -0.158610 
#    y 0.000000 2.211680 0.000000 
#    z -0.158610 0.000000 2.586060 
# 
# From -- ./inp_files/279003.got.cif
#   From: 2010.05.17/outbox.cif.g08.bks.cpg/sg15_140_cif.got.tgz:279003.got - 2010.06.03 18:47:42.
