data_PCOD9289781
_publ_section_title
;
Structure prediction by ZEFSAII (Michael W. Deem and Ramdas Pophale) SiO2 
 PCOD9289781
Probable space group: C 2/C
;
_chemical_formula_sum "Si O2"
_cell_formula_units_Z 48
_cell_length_a 15.900575
_cell_length_b 14.668128
_cell_length_c 9.582077
_cell_angle_alpha 90.000000
_cell_angle_beta 95.097559
_cell_angle_gamma 90.000000
_cell_volume 2226.004676
_symmetry_space_group_name_H-M "C 2/C"
_symmetry_group_IT_number 15
_symmetry_cell_setting 'monoclinic'
loop_
_space_group_symop_operation_xyz
x,y,z
-x,y,1/2-z
-x,-y,-z
x,-y,1/2+z
1/2+x,1/2+y,z
1/2-x,1/2+y,1/2-z
1/2-x,1/2-y,-z
1/2+x,1/2-y,1/2+z
loop_
_atom_site_type_symbol
_atom_site_label
_atom_site_fract_x
_atom_site_fract_y
_atom_site_fract_z
Si Si1 0.077541 0.454235 0.088066
Si Si2 0.807485 0.518264 0.158439
Si Si3 0.500000 0.598647 0.250000
Si Si4 0.644029 0.559109 0.770327
Si Si5 0.967217 0.249727 0.437815
Si Si6 0.705107 0.661582 0.054219
Si Si7 0.500000 0.705540 0.750000
O O1 0.113295 0.496834 0.233955
O O2 0.047512 0.351582 0.115253
O O3 0.155227 0.469089 0.991190
O O4 0.000000 0.500000 0.000000
O O5 0.727834 0.452891 0.186679
O O6 0.765410 0.616435 0.176462
O O7 0.419354 0.528631 0.249542
O O8 0.525065 0.672050 0.375793
O O9 0.676888 0.587842 0.930862
O O10 0.580844 0.642293 0.727768
O O11 0.879676 0.199367 0.396029
O O12 0.981332 0.258752 0.605586
O O13 0.750000 0.750000 0.000000
#
# Coordination Sequence:
#
# PCOD9289781 Si02
#       7
#     8   8   4   8   8   8   4
#     4  12  29  45  68  92 132 180 231 274 334 389
#     4  12  23  44  69  94 131 173 222 273 333 391
#     4  11  24  38  67 102 144 166 213 280 336 393
#     4  10  22  40  68 103 133 173 216 270 338 398
#     4  11  24  43  65  98 136 178 218 275 327 404
#     4  11  21  42  70  96 131 176 225 266 333 402
#     4   9  24  38  71  98 138 172 217 262 336 403
#
# _framework density 21.563296999999999
#
# number of rings (size 3 to 8) (size 9 to 14) (size 15 to 20)
#    0.000    1.000    5.000    0.500    7.000    2.000 
#    0.000    0.000    0.000    5.000    0.000    0.000 
#    0.000    0.000    0.000    0.000    0.000    0.000 
#
# Total GULP energy -133630.950321 kJ/mol
# GULP energy per Si atom -5567.956263 kJ/mol
# Density = 2.151422 g / cm^3
# Si number density = 21.563297 Si / 1000 Ang^3
#
#
#
# Elastic Constant Matrix: (Units=GPa)
#
#
# Indices 1 2 3 4 5 6 
#
# 1 97.5826 28.0016 6.6797 0.0000 3.9353 0.0000
# 2 28.0016 98.9386 44.2646 0.0000 25.4790 0.0000
# 3 6.6797 44.2646 74.0875 0.0000 8.7472 0.0000
# 4 0.0000 0.0000 0.0000 28.0394 0.0000 2.5225
# 5 3.9353 25.4790 8.7472 0.0000 42.6009 0.0000
# 6 0.0000 0.0000 0.0000 2.5225 0.0000 17.5319
#
#
#
# Elastic Compliance Matrix: (Units=1/GPa)
#
#
# Indices 1 2 3 4 5 6 
#
# 1 0.011277 -0.004048 0.001270 0.000000 0.001118 0.000000
# 2 -0.004048 0.017421 -0.009078 0.000000 -0.008181 0.000000
# 3 0.001270 -0.009078 0.018631 0.000000 0.001486 0.000000
# 4 0.000000 0.000000 0.000000 0.036132 0.000000 -0.005199
# 5 0.001118 -0.008181 0.001486 0.000000 0.027958 0.000000
# 6 0.000000 0.000000 0.000000 -0.005199 0.000000 0.057787
#
#
# Mechanical properties :
#
#
# Convention : Reuss Voigt Hill
#
# Bulk Modulus (GPa) = 42.34066 47.61118 44.97592
# Shear Modulus (GPa) = 24.90160 30.41197 27.65679
#
# Velocity S-wave (km/s) = 3.40194 3.75955 3.58521
# Velocity P-wave (km/s) = 5.92529 6.40104 6.16775
#
# Compressibility (1/GPa) = 0.02361796
#
# Stress axis : x y z
#
# Youngs Moduli (GPa) = 88.67437 57.40197 53.67373
#
# Poissons Ratio (x) = 0.23235 -0.06814
# Poissons Ratio (y) = 0.35893 0.48722
# Poissons Ratio (z) = -0.11258 0.52107
#
# Static dielectric constant tensor:
#      x y z
#    x 1.973980 0.000000 -0.149540 
#    y 0.000000 1.598860 0.000000 
#    z -0.149540 0.000000 2.070120 
# 
# From -- ./inp_files/47507.got.cif
#   From: 2010.05.17/outbox.cif.g08.bks.cpg/sg15_24_cif.got.tgz:47507.got - 2010.06.03 18:47:42.
