data_PCOD9289472
_publ_section_title
;
Structure prediction by ZEFSAII (Michael W. Deem and Ramdas Pophale) SiO2 
 PCOD9289472
Probable space group: C 2/C
;
_chemical_formula_sum "Si O2"
_cell_formula_units_Z 56
_cell_length_a 12.068440
_cell_length_b 26.612308
_cell_length_c 8.004977
_cell_angle_alpha 90.000000
_cell_angle_beta 59.573522
_cell_angle_gamma 90.000000
_cell_volume 2216.878745
_symmetry_space_group_name_H-M "C 2/C"
_symmetry_group_IT_number 15
_symmetry_cell_setting 'monoclinic'
loop_
_space_group_symop_operation_xyz
x,y,z
-x,y,1/2-z
-x,-y,-z
x,-y,1/2+z
1/2+x,1/2+y,z
1/2-x,1/2+y,1/2-z
1/2-x,1/2-y,-z
1/2+x,1/2-y,1/2+z
loop_
_atom_site_type_symbol
_atom_site_label
_atom_site_fract_x
_atom_site_fract_y
_atom_site_fract_z
Si Si1 0.000000 0.697679 0.750000
Si Si2 0.962967 0.224205 0.584961
Si Si3 0.000000 0.658868 0.250000
Si Si4 0.205174 0.666795 0.837409
Si Si5 0.854075 0.934538 0.217144
Si Si6 0.643550 0.922068 0.827787
Si Si7 0.071017 0.120538 0.374492
Si Si8 0.214778 0.508739 0.536358
O O1 0.031217 0.733386 0.564833
O O2 0.116812 0.665246 0.737782
O O3 0.816493 0.205689 0.707177
O O4 0.000000 0.234788 0.750000
O O5 0.050306 0.177086 0.457929
O O6 0.049068 0.622631 0.360499
O O7 0.875916 0.681929 0.436290
O O8 0.277574 0.615329 0.830694
O O9 0.832916 0.983461 0.345232
O O10 0.777409 0.952559 0.113500
O O11 0.995170 0.916498 0.058785
O O12 0.783699 0.897592 0.748177
O O13 0.650951 0.960609 0.668457
O O14 0.617671 0.959529 0.998922
O O15 0.000000 0.118159 0.250000
#
# Coordination Sequence:
#
# PCOD9289472 Si02
#       8
#     4   8   4   8   8   8   8   8
#     4  12  28  50  81 114 146 186 236 307 370 460
#     4  11  26  51  79 113 147 187 240 305 374 447
#     4  12  26  48  69  98 140 200 246 287 362 440
#     4  11  27  50  74 109 149 191 243 296 376 437
#     4  10  22  42  64 103 139 190 237 300 360 416
#     4  11  24  41  63 100 137 197 241 296 351 419
#     4  11  22  41  72 103 144 186 236 305 376 434
#     4  10  22  40  64  98 142 185 250 297 348 416
#
# _framework density 25.260739000000001
#
# number of rings (size 3 to 8) (size 9 to 14) (size 15 to 20)
#    0.000    1.143    3.571    1.286    5.000    4.571 
#    5.143    0.000    0.000    0.000    0.000    0.000 
#    0.000    0.000    0.000    0.000    0.000    0.000 
#
# Total GULP energy -156728.552552 kJ/mol
# GULP energy per Si atom -5597.448305 kJ/mol
# Density = 2.520324 g / cm^3
# Si number density = 25.260739 Si / 1000 Ang^3
#
#
#
# Elastic Constant Matrix: (Units=GPa)
#
#
# Indices 1 2 3 4 5 6 
#
# 1 101.2615 6.4468 18.7685 0.0000 -2.8468 0.0000
# 2 6.4468 73.4118 32.8403 0.0000 -10.7876 0.0000
# 3 18.7685 32.8403 89.8266 0.0000 10.3666 0.0000
# 4 0.0000 0.0000 0.0000 31.5571 0.0000 16.1003
# 5 -2.8468 -10.7876 10.3666 0.0000 34.0434 0.0000
# 6 0.0000 0.0000 0.0000 16.1003 0.0000 36.2049
#
#
#
# Elastic Compliance Matrix: (Units=1/GPa)
#
#
# Indices 1 2 3 4 5 6 
#
# 1 0.010368 0.000498 -0.002557 0.000000 0.001803 0.000000
# 2 0.000498 0.018227 -0.007710 0.000000 0.008165 0.000000
# 3 -0.002557 -0.007710 0.015331 0.000000 -0.007325 0.000000
# 4 0.000000 0.000000 0.000000 0.040988 0.000000 -0.018227
# 5 0.001803 0.008165 -0.007325 0.000000 0.034343 0.000000
# 6 0.000000 0.000000 0.000000 -0.018227 0.000000 0.035726
#
#
# Mechanical properties :
#
#
# Convention : Reuss Voigt Hill
#
# Bulk Modulus (GPa) = 41.00204 42.29014 41.64609
# Shear Modulus (GPa) = 27.37468 34.12404 30.74936
#
# Velocity S-wave (km/s) = 3.29551 3.67941 3.49274
# Velocity P-wave (km/s) = 5.54502 5.90157 5.72607
#
# Compressibility (1/GPa) = 0.02438903
#
# Stress axis : x y z
#
# Youngs Moduli (GPa) = 96.44811 54.86379 65.22755
#
# Poissons Ratio (x) = -0.02733 0.16676
# Poissons Ratio (y) = -0.04805 0.50291
# Poissons Ratio (z) = 0.24658 0.42301
#
# Static dielectric constant tensor:
#      x y z
#    x 1.974920 0.000000 0.059230 
#    y 0.000000 2.032670 0.000000 
#    z 0.059230 0.000000 2.094130 
# 
# From -- ./inp_files/35621.got.cif
#   From: 2010.05.17/outbox.cif.g08.bks.cpg/sg15_18_cif.got.tgz:35621.got - 2010.06.03 18:47:42.
