data_PCOD9289352
_publ_section_title
;
Structure prediction by ZEFSAII (Michael W. Deem and Ramdas Pophale) SiO2 
 PCOD9289352
Probable space group: C 2/C
;
_chemical_formula_sum "Si O2"
_cell_formula_units_Z 44
_cell_length_a 10.121360
_cell_length_b 10.622408
_cell_length_c 18.972212
_cell_angle_alpha 90.000000
_cell_angle_beta 77.065992
_cell_angle_gamma 90.000000
_cell_volume 1988.011681
_symmetry_space_group_name_H-M "C 2/C"
_symmetry_group_IT_number 15
_symmetry_cell_setting 'monoclinic'
loop_
_space_group_symop_operation_xyz
x,y,z
-x,y,1/2-z
-x,-y,-z
x,-y,1/2+z
1/2+x,1/2+y,z
1/2-x,1/2+y,1/2-z
1/2-x,1/2-y,-z
1/2+x,1/2-y,1/2+z
loop_
_atom_site_type_symbol
_atom_site_label
_atom_site_fract_x
_atom_site_fract_y
_atom_site_fract_z
Si Si1 0.199261 0.694762 0.581846
Si Si2 0.618659 0.202768 0.872172
Si Si3 0.907320 0.973171 0.577265
Si Si4 0.622067 0.434366 0.161827
Si Si5 0.500000 0.798543 0.750000
Si Si6 0.278574 0.345488 0.775835
O O1 0.250000 0.750000 0.500000
O O2 0.284913 0.570990 0.590682
O O3 0.222928 0.788925 0.645205
O O4 0.038253 0.668689 0.599716
O O5 0.642667 0.330652 0.913035
O O6 0.725700 0.096768 0.882396
O O7 0.652452 0.248262 0.787430
O O8 0.017040 0.994757 0.625502
O O9 0.000000 0.000000 0.500000
O O10 0.559677 0.298244 0.185494
O O11 0.647368 0.521059 0.227030
O O12 0.626809 0.870464 0.766501
#
# Coordination Sequence:
#
# PCOD9289352 Si02
#       6
#     8   8   8   8   4   8
#     4  12  24  46  71 100 141 187 232 285 350 415
#     4  11  26  42  71 105 132 187 232 288 350 409
#     4  12  24  46  71  97 141 184 228 285 351 417
#     4  11  23  43  67 101 137 176 231 284 343 415
#     4  10  22  40  64 100 136 182 218 288 344 410
#     4  11  23  43  70 101 143 176 233 288 350 405
#
# _framework density 22.132667000000001
#
# number of rings (size 3 to 8) (size 9 to 14) (size 15 to 20)
#    0.000    0.727    5.455    1.636    2.545    3.636 
#    0.000    1.818    0.000    0.000    0.000    0.000 
#    0.000    0.000    0.000    0.000    0.000    0.000 
#
# Total GULP energy -122981.640172 kJ/mol
# GULP energy per Si atom -5590.074553 kJ/mol
# Density = 2.208229 g / cm^3
# Si number density = 22.132667 Si / 1000 Ang^3
#
#
#
# Elastic Constant Matrix: (Units=GPa)
#
#
# Indices 1 2 3 4 5 6 
#
# 1 160.8025 23.2416 3.3618 0.0000 -29.4001 0.0000
# 2 23.2416 57.8253 -16.6557 0.0000 -10.3343 0.0000
# 3 3.3618 -16.6557 78.5317 0.0000 -25.9911 0.0000
# 4 0.0000 0.0000 0.0000 23.2319 0.0000 0.0610
# 5 -29.4001 -10.3343 -25.9911 0.0000 26.2300 0.0000
# 6 0.0000 0.0000 0.0000 0.0610 0.0000 34.5506
#
#
#
# Elastic Compliance Matrix: (Units=1/GPa)
#
#
# Indices 1 2 3 4 5 6 
#
# 1 0.008680 0.000320 0.004401 0.000000 0.014216 0.000000
# 2 0.000320 0.024982 0.012887 0.000000 0.022971 0.000000
# 3 0.004401 0.012887 0.027664 0.000000 0.037423 0.000000
# 4 0.000000 0.000000 0.000000 0.043044 0.000000 -0.000076
# 5 0.014216 0.022971 0.037423 0.000000 0.100190 0.000000
# 6 0.000000 0.000000 0.000000 -0.000076 0.000000 0.028943
#
#
# Mechanical properties :
#
#
# Convention : Reuss Voigt Hill
#
# Bulk Modulus (GPa) = 10.35819 35.22832 22.79326
# Shear Modulus (GPa) = 21.69495 35.94995 28.82245
#
# Velocity S-wave (km/s) = 3.13425 4.03462 3.61260
# Velocity P-wave (km/s) = 4.21761 6.13642 5.26517
#
# Compressibility (1/GPa) = 0.09654192
#
# Stress axis : x y z
#
# Youngs Moduli (GPa) = 115.21140 40.02844 36.14797
#
# Poissons Ratio (x) = -0.01279 -0.15909
# Poissons Ratio (y) = -0.03682 -0.46585
# Poissons Ratio (z) = -0.50705 -0.51586
#
# Static dielectric constant tensor:
#      x y z
#    x 1.820800 0.000000 -0.011150 
#    y 0.000000 1.776250 0.000000 
#    z -0.011150 0.000000 1.868860 
# 
# From -- ./inp_files/230115.got.cif
#   From: 2010.05.17/outbox.cif.g08.bks.cpg/sg15_116_cif.got.tgz:230115.got - 2010.06.03 18:47:42.
