data_PCOD9289594
_publ_section_title
;
Structure prediction by ZEFSAII (Michael W. Deem and Ramdas Pophale) SiO2 
 PCOD9289594
Probable space group: C 2/C
;
_chemical_formula_sum "Si O2"
_cell_formula_units_Z 60
_cell_length_a 8.501641
_cell_length_b 14.326039
_cell_length_c 26.669539
_cell_angle_alpha 90.000000
_cell_angle_beta 68.171637
_cell_angle_gamma 90.000000
_cell_volume 3015.321524
_symmetry_space_group_name_H-M "C 2/C"
_symmetry_group_IT_number 15
_symmetry_cell_setting 'monoclinic'
loop_
_space_group_symop_operation_xyz
x,y,z
-x,y,1/2-z
-x,-y,-z
x,-y,1/2+z
1/2+x,1/2+y,z
1/2-x,1/2+y,1/2-z
1/2-x,1/2-y,-z
1/2+x,1/2-y,1/2+z
loop_
_atom_site_type_symbol
_atom_site_label
_atom_site_fract_x
_atom_site_fract_y
_atom_site_fract_z
Si Si1 0.500000 0.418487 0.750000
Si Si2 0.295958 0.349282 0.919550
Si Si3 0.466301 0.495336 0.147207
Si Si4 0.140432 0.746822 0.901488
Si Si5 0.651776 0.845185 0.833277
Si Si6 0.548848 0.316216 0.189715
Si Si7 0.064490 0.420892 0.030317
Si Si8 0.821008 0.442682 0.894993
O O1 0.565673 0.469539 0.792395
O O2 0.336653 0.366318 0.790697
O O3 0.371637 0.449529 0.893681
O O4 0.461319 0.286382 0.904527
O O5 0.175519 0.316226 0.888715
O O6 0.200365 0.360575 0.982990
O O7 0.512401 0.388620 0.149682
O O8 0.307927 0.516269 0.130628
O O9 0.259552 0.717414 0.840992
O O10 0.241234 0.836730 0.915010
O O11 0.084927 0.651783 0.936746
O O12 0.571502 0.769819 0.806749
O O13 0.511391 0.926671 0.851925
O O14 0.500000 0.353178 0.250000
O O15 0.153610 0.481267 0.063940
O O16 0.000000 0.500000 0.000000
#
# Coordination Sequence:
#
# PCOD9289594 Si02
#       8
#     4   8   8   8   8   8   8   8
#     4  10  22  40  66  86 128 176 208 272 334 384
#     4  10  22  44  65  94 132 172 217 271 337 390
#     4  10  22  42  63  93 130 167 222 276 326 392
#     4  10  25  43  64  96 137 166 223 276 325 402
#     4  10  23  40  63  93 130 167 218 268 330 397
#     4  11  24  41  63  95 129 172 219 270 330 394
#     4  12  23  42  71  96 131 177 219 275 335 396
#     4  10  24  43  65  97 128 173 219 275 333 397
#
# _framework density 19.898377
#
# number of rings (size 3 to 8) (size 9 to 14) (size 15 to 20)
#    0.000    1.600    2.000    1.200   11.200    2.667 
#    2.400    1.333    0.000    0.000    0.000    0.000 
#    0.000    0.000    0.000    0.000    0.000    0.000 
#
# Total GULP energy -167122.794161 kJ/mol
# GULP energy per Si atom -5570.759805 kJ/mol
# Density = 1.985309 g / cm^3
# Si number density = 19.898377 Si / 1000 Ang^3
#
#
#
# Elastic Constant Matrix: (Units=GPa)
#
#
# Indices 1 2 3 4 5 6 
#
# 1 111.2004 34.8943 50.6891 0.0000 -3.6325 0.0000
# 2 34.8943 62.3677 44.2562 0.0000 -3.8177 0.0000
# 3 50.6891 44.2562 104.2574 0.0000 -5.6530 0.0000
# 4 0.0000 0.0000 0.0000 30.5504 0.0000 -1.2721
# 5 -3.6325 -3.8177 -5.6530 0.0000 35.3573 0.0000
# 6 0.0000 0.0000 0.0000 -1.2721 0.0000 12.9341
#
#
#
# Elastic Compliance Matrix: (Units=1/GPa)
#
#
# Indices 1 2 3 4 5 6 
#
# 1 0.012129 -0.003718 -0.004311 0.000000 0.000156 0.000000
# 2 -0.003718 0.024116 -0.008381 0.000000 0.000882 0.000000
# 3 -0.004311 -0.008381 0.015305 0.000000 0.001099 0.000000
# 4 0.000000 0.000000 0.000000 0.032867 0.000000 0.003233
# 5 0.000156 0.000882 0.001099 0.000000 0.028570 0.000000
# 6 0.000000 0.000000 0.000000 0.003233 0.000000 0.077633
#
#
# Mechanical properties :
#
#
# Convention : Reuss Voigt Hill
#
# Bulk Modulus (GPa) = 53.39035 59.72275 56.55655
# Shear Modulus (GPa) = 21.76914 25.63407 23.70160
#
# Velocity S-wave (km/s) = 3.31118 3.59311 3.45502
# Velocity P-wave (km/s) = 6.44269 6.87699 6.66338
#
# Compressibility (1/GPa) = 0.01872998
#
# Stress axis : x y z
#
# Youngs Moduli (GPa) = 82.44384 41.46701 65.33908
#
# Poissons Ratio (x) = 0.15418 0.28165
# Poissons Ratio (y) = 0.30653 0.54763
# Poissons Ratio (z) = 0.35538 0.34755
#
# Static dielectric constant tensor:
#      x y z
#    x 1.685680 0.000000 -0.001500 
#    y 0.000000 1.760560 0.000000 
#    z -0.001500 0.000000 1.708170 
# 
# From -- ./inp_files/264672.got.cif
#   From: 2010.05.17/outbox.cif.g08.bks.cpg/sg15_133_cif.got.tgz:264672.got - 2010.06.03 18:47:42.
