data_PCOD9289966
_publ_section_title
;
Structure prediction by ZEFSAII (Michael W. Deem and Ramdas Pophale) SiO2 
 PCOD9289966
Probable space group: C 2/C
;
_chemical_formula_sum "Si O2"
_cell_formula_units_Z 48
_cell_length_a 21.330587
_cell_length_b 12.378333
_cell_length_c 14.885407
_cell_angle_alpha 90.000000
_cell_angle_beta 145.626450
_cell_angle_gamma 90.000000
_cell_volume 2218.992410
_symmetry_space_group_name_H-M "C 2/C"
_symmetry_group_IT_number 15
_symmetry_cell_setting 'monoclinic'
loop_
_space_group_symop_operation_xyz
x,y,z
-x,y,1/2-z
-x,-y,-z
x,-y,1/2+z
1/2+x,1/2+y,z
1/2-x,1/2+y,1/2-z
1/2-x,1/2-y,-z
1/2+x,1/2-y,1/2+z
loop_
_atom_site_type_symbol
_atom_site_label
_atom_site_fract_x
_atom_site_fract_y
_atom_site_fract_z
Si Si1 0.775722 0.428475 0.536280
Si Si2 0.382365 0.747122 0.559191
Si Si3 0.551988 0.940306 0.146828
Si Si4 0.311045 0.243952 0.782572
Si Si5 0.133227 0.136022 0.323305
Si Si6 0.909127 0.757689 0.543126
O O1 0.705276 0.340995 0.508778
O O2 0.826597 0.363808 0.512295
O O3 0.882739 0.476292 0.713767
O O4 0.689913 0.525026 0.417303
O O5 0.500000 0.738721 0.750000
O O6 0.385980 0.733304 0.456752
O O7 0.643508 0.860769 0.213487
O O8 0.468009 0.858788 0.099662
O O9 0.500000 0.000000 0.000000
O O10 0.315394 0.335274 0.711971
O O11 0.179985 0.229878 0.641528
O O12 0.143195 0.220379 0.419568
O O13 0.001851 0.148485 0.148630
#
# Coordination Sequence:
#
# PCOD9289966 Si02
#       6
#     8   8   8   8   8   8
#     4  11  25  45  68 100 139 181 233 280 352 409
#     4  11  27  47  68  95 141 186 232 282 341 430
#     4  11  23  41  69 103 137 181 231 276 348 410
#     4  11  23  44  66 102 135 174 235 283 338 417
#     4  10  23  41  69 102 132 174 222 292 341 400
#     4  10  22  40  71 101 138 171 223 285 349 403
#
# _framework density 21.631439
#
# number of rings (size 3 to 8) (size 9 to 14) (size 15 to 20)
#    0.000    1.333    1.667    2.500    7.000    8.000 
#    3.000    1.667    0.000    0.000    0.000    0.000 
#    0.000    0.000    0.000    0.000    0.000    0.000 
#
# Total GULP energy -133932.814151 kJ/mol
# GULP energy per Si atom -5580.533923 kJ/mol
# Density = 2.158221 g / cm^3
# Si number density = 21.631439 Si / 1000 Ang^3
#
#
#
# Elastic Constant Matrix: (Units=GPa)
#
#
# Indices 1 2 3 4 5 6 
#
# 1 59.4723 41.1304 29.6423 0.0000 -3.7478 0.0000
# 2 41.1304 116.7321 50.4530 0.0000 -9.2690 0.0000
# 3 29.6423 50.4530 140.0463 0.0000 -2.1781 0.0000
# 4 0.0000 0.0000 0.0000 15.0787 0.0000 -12.6085
# 5 -3.7478 -9.2690 -2.1781 0.0000 32.0509 0.0000
# 6 0.0000 0.0000 0.0000 -12.6085 0.0000 10.6269
#
#
#
# Elastic Compliance Matrix: (Units=1/GPa)
#
#
# Indices 1 2 3 4 5 6 
#
# 1 0.022844 -0.007016 -0.002300 0.000000 0.000486 0.000000
# 2 -0.007016 0.012538 -0.002992 0.000000 0.002602 0.000000
# 3 -0.002300 -0.002992 0.008697 0.000000 -0.000543 0.000000
# 4 0.000000 0.000000 0.000000 8.382983 0.000000 9.946076
# 5 0.000486 0.002602 -0.000543 0.000000 0.031973 0.000000
# 6 0.000000 0.000000 0.000000 9.946076 0.000000 11.894723
#
#
# Mechanical properties :
#
#
# Convention : Reuss Voigt Hill
#
# Bulk Modulus (GPa) = 51.37871 62.07801 56.72836
# Shear Modulus (GPa) = 0.24528 24.55297 12.39913
#
# Velocity S-wave (km/s) = 0.33710 3.37272 2.39676
# Velocity P-wave (km/s) = 4.89438 6.62777 5.82590
#
# Compressibility (1/GPa) = 0.01946332
#
# Stress axis : x y z
#
# Youngs Moduli (GPa) = 43.77527 79.75460 114.98793
#
# Poissons Ratio (x) = 0.55959 0.26446
# Poissons Ratio (y) = 0.30715 0.34399
# Poissons Ratio (z) = 0.10068 0.23859
#
# Static dielectric constant tensor:
#      x y z
#    x 1.875890 0.000000 0.074040 
#    y 0.000000 1.814680 0.000000 
#    z 0.074040 0.000000 1.850860 
# 
# From -- ./inp_files/167936.got.cif
#   From: 2010.05.17/outbox.cif.g08.bks.cpg/sg15_84_cif.got.tgz:167936.got - 2010.06.03 18:47:42.
