data_PCOD9289274
_publ_section_title
;
Structure prediction by ZEFSAII (Michael W. Deem and Ramdas Pophale) SiO2 
 PCOD9289274
Probable space group: C 2/C
;
_chemical_formula_sum "Si O2"
_cell_formula_units_Z 64
_cell_length_a 25.064855
_cell_length_b 15.981078
_cell_length_c 10.024746
_cell_angle_alpha 90.000000
_cell_angle_beta 46.744722
_cell_angle_gamma 90.000000
_cell_volume 2924.553938
_symmetry_space_group_name_H-M "C 2/C"
_symmetry_group_IT_number 15
_symmetry_cell_setting 'monoclinic'
loop_
_space_group_symop_operation_xyz
x,y,z
-x,y,1/2-z
-x,-y,-z
x,-y,1/2+z
1/2+x,1/2+y,z
1/2-x,1/2+y,1/2-z
1/2-x,1/2-y,-z
1/2+x,1/2-y,1/2+z
loop_
_atom_site_type_symbol
_atom_site_label
_atom_site_fract_x
_atom_site_fract_y
_atom_site_fract_z
Si Si1 0.917273 0.129287 0.421789
Si Si2 0.104214 0.268930 0.838326
Si Si3 0.771928 0.828546 0.051924
Si Si4 0.715828 0.899270 0.730536
Si Si5 0.742628 0.510135 0.080915
Si Si6 0.959801 0.774951 0.460978
Si Si7 0.425100 0.529750 0.057980
Si Si8 0.816547 0.741084 0.580970
O O1 0.893624 0.178005 0.596025
O O2 0.859182 0.159891 0.413536
O O3 0.917792 0.029191 0.439369
O O4 0.000000 0.154958 0.250000
O O5 0.141843 0.342644 0.860156
O O6 0.152097 0.269309 0.620720
O O7 0.017709 0.273401 0.954190
O O8 0.744289 0.818540 0.251244
O O9 0.750000 0.750000 0.000000
O O10 0.738603 0.907900 0.037121
O O11 0.724421 0.970969 0.828648
O O12 0.781320 0.833505 0.647496
O O13 0.727778 0.935597 0.561650
O O14 0.653920 0.509845 0.241735
O O15 0.883318 0.730158 0.568666
O O16 0.000000 0.777187 0.250000
O O17 0.939447 0.871810 0.520864
O O18 0.500000 0.500000 0.000000
#
# Coordination Sequence:
#
# PCOD9289274 Si02
#       8
#     8   8   8   8   8   8   8   8
#     4  12  25  38  65 103 144 193 240 293 364 444
#     4  11  24  43  68  98 142 192 248 299 360 432
#     4  12  24  43  65 101 141 194 246 305 364 432
#     4  12  25  46  68 106 142 190 243 301 362 432
#     4  12  27  42  69 102 148 190 243 298 370 434
#     4  10  22  40  63 100 139 189 231 291 362 437
#     4  12  22  38  61 102 150 189 223 284 367 458
#     4  11  23  42  70  99 142 184 244 298 362 443
#
# _framework density 21.883676999999999
#
# number of rings (size 3 to 8) (size 9 to 14) (size 15 to 20)
#    0.000    0.500    5.000    3.000    7.000    0.000 
#    0.000    0.000    0.000    0.750    0.000    0.000 
#    0.000    0.000    0.000    0.000    0.000    0.000 
#
# Total GULP energy -178697.182877 kJ/mol
# GULP energy per Si atom -5584.286965 kJ/mol
# Density = 2.183387 g / cm^3
# Si number density = 21.883677 Si / 1000 Ang^3
#
#
#
# Elastic Constant Matrix: (Units=GPa)
#
#
# Indices 1 2 3 4 5 6 
#
# 1 124.7627 33.1739 42.9012 0.0000 -18.4552 0.0000
# 2 33.1739 66.9007 37.3860 0.0000 -11.7933 0.0000
# 3 42.9012 37.3860 93.8001 0.0000 -4.9460 0.0000
# 4 0.0000 0.0000 0.0000 34.0185 0.0000 9.4589
# 5 -18.4552 -11.7933 -4.9460 0.0000 41.5105 0.0000
# 6 0.0000 0.0000 0.0000 9.4589 0.0000 43.9220
#
#
#
# Elastic Compliance Matrix: (Units=1/GPa)
#
#
# Indices 1 2 3 4 5 6 
#
# 1 0.010441 -0.002569 -0.003568 0.000000 0.003487 0.000000
# 2 -0.002569 0.020769 -0.006895 0.000000 0.003937 0.000000
# 3 -0.003568 -0.006895 0.014948 0.000000 -0.001764 0.000000
# 4 0.000000 0.000000 0.000000 0.031268 0.000000 -0.006734
# 5 0.003487 0.003937 -0.001764 0.000000 0.026549 0.000000
# 6 0.000000 0.000000 0.000000 -0.006734 0.000000 0.024218
#
#
# Mechanical properties :
#
#
# Convention : Reuss Voigt Hill
#
# Bulk Modulus (GPa) = 49.76636 56.93174 53.34905
# Shear Modulus (GPa) = 31.06490 35.35703 33.21096
#
# Velocity S-wave (km/s) = 3.77177 4.02391 3.89988
# Velocity P-wave (km/s) = 6.46212 6.90371 6.68657
#
# Compressibility (1/GPa) = 0.02009390
#
# Stress axis : x y z
#
# Youngs Moduli (GPa) = 95.77779 48.14960 66.89922
#
# Poissons Ratio (x) = 0.12369 0.23866
# Poissons Ratio (y) = 0.24605 0.46128
# Poissons Ratio (z) = 0.34169 0.33200
#
# Static dielectric constant tensor:
#      x y z
#    x 1.885590 0.000000 0.046460 
#    y 0.000000 1.813550 0.000000 
#    z 0.046460 0.000000 1.842070 
# 
# From -- ./inp_files/123497.got.cif
#   From: 2010.05.17/outbox.cif.g08.bks.cpg/sg15_62_cif.got.tgz:123497.got - 2010.06.03 18:47:42.
