data_PCOD9289712
_publ_section_title
;
Structure prediction by ZEFSAII (Michael W. Deem and Ramdas Pophale) SiO2 
 PCOD9289712
Probable space group: C 2/C
;
_chemical_formula_sum "Si O2"
_cell_formula_units_Z 32
_cell_length_a 6.969770
_cell_length_b 13.621788
_cell_length_c 16.765429
_cell_angle_alpha 90.000000
_cell_angle_beta 121.604671
_cell_angle_gamma 90.000000
_cell_volume 1355.644549
_symmetry_space_group_name_H-M "C 2/C"
_symmetry_group_IT_number 15
_symmetry_cell_setting 'monoclinic'
loop_
_space_group_symop_operation_xyz
x,y,z
-x,y,1/2-z
-x,-y,-z
x,-y,1/2+z
1/2+x,1/2+y,z
1/2-x,1/2+y,1/2-z
1/2-x,1/2-y,-z
1/2+x,1/2-y,1/2+z
loop_
_atom_site_type_symbol
_atom_site_label
_atom_site_fract_x
_atom_site_fract_y
_atom_site_fract_z
Si Si1 0.691522 0.638716 0.011033
Si Si2 0.825222 0.600164 0.321958
Si Si3 0.996379 0.809597 0.876953
Si Si4 0.721975 0.382006 0.339127
O O1 0.494901 0.641822 0.033445
O O2 0.911098 0.602460 0.104985
O O3 0.750000 0.750000 0.000000
O O4 0.665792 0.591675 0.919032
O O5 0.712040 0.647180 0.219856
O O6 0.709839 0.660945 0.370158
O O7 0.764024 0.485862 0.307817
O O8 0.926641 0.695397 0.874375
O O9 0.500000 0.336801 0.250000
#
# Coordination Sequence:
#
# PCOD9289712 Si02
#       4
#     8   8   8   8
#     4  10  22  40  67  93 129 171 214 271 322 381
#     4  11  22  44  63  97 131 166 221 265 321 396
#     4  10  22  42  67  91 133 170 211 275 321 380
#     4  11  22  42  65  94 132 171 217 271 320 387
#
# _framework density 23.605007000000001
#
# number of rings (size 3 to 8) (size 9 to 14) (size 15 to 20)
#    0.000    1.500    2.500    4.500    0.000    5.000 
#    9.000    0.000    0.000    0.000    0.000    0.000 
#    0.000    0.000    0.000    0.000    0.000    0.000 
#
# Total GULP energy -89397.702863 kJ/mol
# GULP energy per Si atom -5587.356429 kJ/mol
# Density = 2.355128 g / cm^3
# Si number density = 23.605007 Si / 1000 Ang^3
#
#
#
# Elastic Constant Matrix: (Units=GPa)
#
#
# Indices 1 2 3 4 5 6 
#
# 1 82.2553 16.6129 25.5007 0.0000 -14.9736 0.0000
# 2 16.6129 102.4890 -1.0583 0.0000 -12.2528 0.0000
# 3 25.5007 -1.0583 89.9103 0.0000 -24.4233 0.0000
# 4 0.0000 0.0000 0.0000 -116.4534 0.0000 -102.1104
# 5 -14.9736 -12.2528 -24.4233 0.0000 42.4092 0.0000
# 6 0.0000 0.0000 0.0000 -102.1104 0.0000 -63.7155
#
#
#
# Elastic Compliance Matrix: (Units=1/GPa)
#
#
# Indices 1 2 3 4 5 6 
#
# 1 0.014047 -0.002018 -0.003342 0.000000 0.002452 0.000000
# 2 -0.002018 0.010486 0.001571 0.000000 0.003222 0.000000
# 3 -0.003342 0.001571 0.014096 0.000000 0.007392 0.000000
# 4 0.000000 0.000000 0.000000 0.021192 0.000000 -0.033961
# 5 0.002452 0.003222 0.007392 0.000000 0.029633 0.000000
# 6 0.000000 0.000000 0.000000 -0.033961 0.000000 0.038732
#
#
# Mechanical properties :
#
#
# Convention : Reuss Voigt Hill
#
# Bulk Modulus (GPa) = 32.20497 39.64059 35.92278
# Shear Modulus (GPa) = 34.21962 -11.97865 11.12049
#
# Velocity S-wave (km/s) = 3.81159 -2.25514 2.17285
# Velocity P-wave (km/s) = 5.74838 3.17000 4.64181
#
# Compressibility (1/GPa) = 0.03105110
#
# Stress axis : x y z
#
# Youngs Moduli (GPa) = 71.18797 95.36819 70.93963
#
# Poissons Ratio (x) = 0.19249 0.23707
# Poissons Ratio (y) = 0.14368 -0.11145
# Poissons Ratio (z) = 0.23790 -0.14982
#
# Static dielectric constant tensor:
#      x y z
#    x 1.674740 0.000000 -0.518200 
#    y 0.000000 1.889060 0.000000 
#    z -0.518200 0.000000 1.019230 
# 
# From -- ./inp_files/75333.got.cif
#   From: 2010.05.17/outbox.cif.g08.bks.cpg/sg15_38_cif.got.tgz:75333.got - 2010.06.03 18:47:42.
