data_PCOD9289252
_publ_section_title
;
Structure prediction by ZEFSAII (Michael W. Deem and Ramdas Pophale) SiO2 
 PCOD9289252
Probable space group: C 2/C
;
_chemical_formula_sum "Si O2"
_cell_formula_units_Z 36
_cell_length_a 13.818404
_cell_length_b 7.824991
_cell_length_c 18.281021
_cell_angle_alpha 90.000000
_cell_angle_beta 43.181402
_cell_angle_gamma 90.000000
_cell_volume 1352.680881
_symmetry_space_group_name_H-M "C 2/C"
_symmetry_group_IT_number 15
_symmetry_cell_setting 'monoclinic'
loop_
_space_group_symop_operation_xyz
x,y,z
-x,y,1/2-z
-x,-y,-z
x,-y,1/2+z
1/2+x,1/2+y,z
1/2-x,1/2+y,1/2-z
1/2-x,1/2-y,-z
1/2+x,1/2-y,1/2+z
loop_
_atom_site_type_symbol
_atom_site_label
_atom_site_fract_x
_atom_site_fract_y
_atom_site_fract_z
Si Si1 0.265047 0.952983 0.270048
Si Si2 0.844270 0.102404 0.303601
Si Si3 0.250000 0.250000 0.000000
Si Si4 0.540738 0.834851 0.646888
Si Si5 0.157506 0.039746 0.479094
O O1 0.194979 0.950196 0.229245
O O2 0.408161 0.062568 0.189828
O O3 0.159210 0.030010 0.390593
O O4 0.309889 0.769260 0.274535
O O5 0.750397 0.124123 0.426959
O O6 0.000000 0.108966 0.250000
O O7 0.382465 0.361523 0.962828
O O8 0.500000 0.763528 0.750000
O O9 0.670911 0.962986 0.596437
O O10 0.593979 0.698576 0.557754
#
# Coordination Sequence:
#
# PCOD9289252 Si02
#       5
#     8   8   4   8   8
#     4  10  22  41  64  91 127 173 216 264 329 389
#     4  11  25  45  66  95 134 171 217 273 325 388
#     4  10  22  40  62  94 132 168 210 270 326 376
#     4   9  18  36  61  92 128 169 217 265 319 388
#     4   9  19  37  63  94 129 168 216 269 322 386
#
# _framework density 26.613817999999998
#
# number of rings (size 3 to 8) (size 9 to 14) (size 15 to 20)
#    0.000    2.222    0.000    3.333    0.000    9.778 
#    0.000    8.889    0.000    0.000    0.000    0.000 
#    0.000    0.000    0.000    0.000    0.000    0.000 
#
# Total GULP energy -100352.040055 kJ/mol
# GULP energy per Si atom -5575.113336 kJ/mol
# Density = 2.655324 g / cm^3
# Si number density = 26.613818 Si / 1000 Ang^3
#
#
#
# Elastic Constant Matrix: (Units=GPa)
#
#
# Indices 1 2 3 4 5 6 
#
# 1 163.5986 43.0554 51.4937 0.0000 35.9136 0.0000
# 2 43.0554 38.0040 1.8962 0.0000 2.5407 0.0000
# 3 51.4937 1.8962 111.0137 0.0000 26.9235 0.0000
# 4 0.0000 0.0000 0.0000 38.4672 0.0000 13.6300
# 5 35.9136 2.5407 26.9235 0.0000 47.8379 0.0000
# 6 0.0000 0.0000 0.0000 13.6300 0.0000 43.9770
#
#
#
# Elastic Compliance Matrix: (Units=1/GPa)
#
#
# Indices 1 2 3 4 5 6 
#
# 1 0.012188 -0.013195 -0.003913 0.000000 -0.006247 0.000000
# 2 -0.013195 0.040694 0.004108 0.000000 0.005433 0.000000
# 3 -0.003913 0.004108 0.011689 0.000000 -0.003859 0.000000
# 4 0.000000 0.000000 0.000000 0.029203 0.000000 -0.009051
# 5 -0.006247 0.005433 -0.003859 0.000000 0.027477 0.000000
# 6 0.000000 0.000000 0.000000 -0.009051 0.000000 0.025544
#
#
# Mechanical properties :
#
#
# Convention : Reuss Voigt Hill
#
# Bulk Modulus (GPa) = 25.92683 56.16744 41.04713
# Shear Modulus (GPa) = 26.93182 40.46781 33.69981
#
# Velocity S-wave (km/s) = 3.18457 3.90366 3.56230
# Velocity P-wave (km/s) = 4.82545 6.43961 5.69006
#
# Compressibility (1/GPa) = 0.03857009
#
# Stress axis : x y z
#
# Youngs Moduli (GPa) = 82.04571 24.57350 85.55259
#
# Poissons Ratio (x) = 0.32426 0.33478
# Poissons Ratio (y) = 1.08263 -0.35145
# Poissons Ratio (z) = 0.32105 -0.10095
#
# Static dielectric constant tensor:
#      x y z
#    x 2.090320 0.000000 -0.070370 
#    y 0.000000 2.038700 0.000000 
#    z -0.070370 0.000000 0.245780 
# 
# From -- ./inp_files/202456.got.cif
#   From: 2010.05.17/outbox.cif.g08.bks.cpg/sg15_102_cif.got.tgz:202456.got - 2010.06.03 18:47:42.
