data_PCOD9289495
_publ_section_title
;
Structure prediction by ZEFSAII (Michael W. Deem and Ramdas Pophale) SiO2 
 PCOD9289495
Probable space group: C 2/C
;
_chemical_formula_sum "Si O2"
_cell_formula_units_Z 48
_cell_length_a 11.148580
_cell_length_b 25.138615
_cell_length_c 8.780630
_cell_angle_alpha 90.000000
_cell_angle_beta 65.443143
_cell_angle_gamma 90.000000
_cell_volume 2238.271810
_symmetry_space_group_name_H-M "C 2/C"
_symmetry_group_IT_number 15
_symmetry_cell_setting 'monoclinic'
loop_
_space_group_symop_operation_xyz
x,y,z
-x,y,1/2-z
-x,-y,-z
x,-y,1/2+z
1/2+x,1/2+y,z
1/2-x,1/2+y,1/2-z
1/2-x,1/2-y,-z
1/2+x,1/2-y,1/2+z
loop_
_atom_site_type_symbol
_atom_site_label
_atom_site_fract_x
_atom_site_fract_y
_atom_site_fract_z
Si Si1 0.242157 0.624053 0.789337
Si Si2 0.647674 0.321718 0.985778
Si Si3 0.675829 0.153597 0.368635
Si Si4 0.584193 0.381272 0.569847
Si Si5 0.514461 0.058192 0.060753
Si Si6 0.051575 0.720999 0.879739
O O1 0.322699 0.594887 0.612366
O O2 0.141726 0.670363 0.785392
O O3 0.337600 0.657082 0.851877
O O4 0.151992 0.583262 0.930816
O O5 0.779641 0.340533 0.828769
O O6 0.524238 0.349541 0.968494
O O7 0.628559 0.260215 0.951597
O O8 0.809280 0.154318 0.395907
O O9 0.600380 0.098216 0.434831
O O10 0.575413 0.199486 0.465149
O O11 0.500000 0.410069 0.750000
O O12 0.500000 0.056361 0.250000
O O13 0.500000 0.000000 0.000000
O O14 0.000000 0.746465 0.750000
#
# Coordination Sequence:
#
# PCOD9289495 Si02
#       6
#     8   8   8   8   8   8
#     4  11  23  43  63  98 137 166 220 290 330 384
#     4  11  23  39  61  92 141 183 218 268 328 396
#     4  10  22  42  62  96 139 166 227 280 319 395
#     4  10  22  40  65  89 127 184 217 258 324 398
#     4  11  25  44  75 103 125 166 220 287 351 388
#     4  11  22  35  64  94 132 186 226 266 327 393
#
# _framework density 21.445118999999998
#
# number of rings (size 3 to 8) (size 9 to 14) (size 15 to 20)
#    0.000    1.333    3.333    2.500    4.667    1.333 
#    3.000    0.000    0.000   11.000    0.000    0.000 
#    0.000    0.000    0.000    0.000    0.000    0.000 
#
# Total GULP energy -133956.676232 kJ/mol
# GULP energy per Si atom -5581.528176 kJ/mol
# Density = 2.139631 g / cm^3
# Si number density = 21.445119 Si / 1000 Ang^3
#
#
#
# Elastic Constant Matrix: (Units=GPa)
#
#
# Indices 1 2 3 4 5 6 
#
# 1 94.0127 26.9089 41.0181 0.0000 -0.2951 0.0000
# 2 26.9089 86.9109 34.7416 0.0000 -5.7008 0.0000
# 3 41.0181 34.7416 185.0331 0.0000 -18.8268 0.0000
# 4 0.0000 0.0000 0.0000 17.9409 0.0000 5.3990
# 5 -0.2951 -5.7008 -18.8268 0.0000 38.1695 0.0000
# 6 0.0000 0.0000 0.0000 5.3990 0.0000 14.9506
#
#
#
# Elastic Compliance Matrix: (Units=1/GPa)
#
#
# Indices 1 2 3 4 5 6 
#
# 1 0.012532 -0.003035 -0.002363 0.000000 -0.001522 0.000000
# 2 -0.003035 0.013195 -0.001691 0.000000 0.001113 0.000000
# 3 -0.002363 -0.001691 0.006547 0.000000 0.002958 0.000000
# 4 0.000000 0.000000 0.000000 0.062535 0.000000 -0.022583
# 5 -0.001522 0.001113 0.002958 0.000000 0.027813 0.000000
# 6 0.000000 0.000000 0.000000 -0.022583 0.000000 0.075042
#
#
# Mechanical properties :
#
#
# Convention : Reuss Voigt Hill
#
# Bulk Modulus (GPa) = 55.26607 63.47709 59.37158
# Shear Modulus (GPa) = 22.94905 31.76473 27.35689
#
# Velocity S-wave (km/s) = 3.27483 3.85282 3.57553
# Velocity P-wave (km/s) = 6.33453 7.03252 6.69263
#
# Compressibility (1/GPa) = 0.01809429
#
# Stress axis : x y z
#
# Youngs Moduli (GPa) = 79.79669 75.78684 152.74540
#
# Poissons Ratio (x) = 0.23003 0.36094
# Poissons Ratio (y) = 0.24221 0.25835
# Poissons Ratio (z) = 0.18856 0.12818
#
# Static dielectric constant tensor:
#      x y z
#    x 1.785470 0.000000 0.012260 
#    y 0.000000 1.729340 0.000000 
#    z 0.012260 0.000000 1.845690 
# 
# From -- ./inp_files/33366.got.cif
#   From: 2010.05.17/outbox.cif.g08.bks.cpg/sg15_17_cif.got.tgz:33366.got - 2010.06.03 18:47:42.
