data_PCOD9289501
_publ_section_title
;
Structure prediction by ZEFSAII (Michael W. Deem and Ramdas Pophale) SiO2 
 PCOD9289501
Probable space group: C 2/C
;
_chemical_formula_sum "Si O2"
_cell_formula_units_Z 64
_cell_length_a 8.819044
_cell_length_b 16.946658
_cell_length_c 22.066518
_cell_angle_alpha 90.000000
_cell_angle_beta 68.498503
_cell_angle_gamma 90.000000
_cell_volume 3068.405944
_symmetry_space_group_name_H-M "C 2/C"
_symmetry_group_IT_number 15
_symmetry_cell_setting 'monoclinic'
loop_
_space_group_symop_operation_xyz
x,y,z
-x,y,1/2-z
-x,-y,-z
x,-y,1/2+z
1/2+x,1/2+y,z
1/2-x,1/2+y,1/2-z
1/2-x,1/2-y,-z
1/2+x,1/2-y,1/2+z
loop_
_atom_site_type_symbol
_atom_site_label
_atom_site_fract_x
_atom_site_fract_y
_atom_site_fract_z
Si Si1 0.870865 0.655481 0.602572
Si Si2 0.051834 0.511645 0.422040
Si Si3 0.861354 0.660674 0.458485
Si Si4 0.382551 0.290292 0.113265
Si Si5 0.493804 0.405642 0.321081
Si Si6 0.078013 0.069118 0.126446
Si Si7 0.027717 0.769245 0.677115
Si Si8 0.996623 0.096061 0.495614
O O1 0.967121 0.574332 0.603941
O O2 0.892441 0.669574 0.526893
O O3 0.683103 0.630357 0.637625
O O4 0.924184 0.723275 0.641020
O O5 0.236956 0.541718 0.388504
O O6 0.000000 0.500000 0.500000
O O7 0.942445 0.583299 0.417462
O O8 0.958242 0.734268 0.415957
O O9 0.828105 0.860232 0.523667
O O10 0.384209 0.337713 0.176030
O O11 0.217584 0.241975 0.132134
O O12 0.391903 0.358138 0.060823
O O13 0.500000 0.424415 0.250000
O O14 0.517763 0.486736 0.354086
O O15 0.001570 0.136687 0.178915
O O16 0.073632 0.106885 0.060709
O O17 0.000000 0.740653 0.750000
O O18 0.000000 0.000000 0.500000
#
# Coordination Sequence:
#
# PCOD9289501 Si02
#       8
#     8   8   8   8   8   8   8   8
#     4  10  22  40  65  91 128 170 210 262 332 383
#     4   9  19  37  62  93 128 162 200 255 333 395
#     4  11  22  40  63 100 133 161 206 274 336 390
#     4  12  25  41  65  97 132 168 216 271 332 384
#     4  11  23  44  66  88 127 183 220 251 316 396
#     4  11  23  42  65  97 127 171 212 272 324 386
#     4  12  27  44  64  95 131 172 227 273 311 388
#     4  12  23  39  67 101 135 160 212 275 335 394
#
# _framework density 20.857737
#
# number of rings (size 3 to 8) (size 9 to 14) (size 15 to 20)
#    0.000    1.000    3.750    3.750    7.000    1.000 
#    0.000    0.000    0.000    0.750    0.000    0.000 
#    0.000    0.000    0.000    0.000    0.000    0.000 
#
# Total GULP energy -178523.367665 kJ/mol
# GULP energy per Si atom -5578.855240 kJ/mol
# Density = 2.081026 g / cm^3
# Si number density = 20.857737 Si / 1000 Ang^3
#
#
#
# Elastic Constant Matrix: (Units=GPa)
#
#
# Indices 1 2 3 4 5 6 
#
# 1 50.7586 31.1971 -1.6942 0.0000 2.3613 0.0000
# 2 31.1971 130.1334 14.8119 0.0000 -4.3465 0.0000
# 3 -1.6942 14.8119 56.8866 0.0000 6.5183 0.0000
# 4 0.0000 0.0000 0.0000 23.2986 0.0000 2.6696
# 5 2.3613 -4.3465 6.5183 0.0000 16.8428 0.0000
# 6 0.0000 0.0000 0.0000 2.6696 0.0000 28.1201
#
#
#
# Elastic Compliance Matrix: (Units=1/GPa)
#
#
# Indices 1 2 3 4 5 6 
#
# 1 0.023962 -0.006299 0.003061 0.000000 -0.006169 0.000000
# 2 -0.006299 0.009720 -0.003251 0.000000 0.004650 0.000000
# 3 0.003061 -0.003251 0.019528 0.000000 -0.008825 0.000000
# 4 0.000000 0.000000 0.000000 0.043393 0.000000 -0.004120
# 5 -0.006169 0.004650 -0.008825 0.000000 0.064853 0.000000
# 6 0.000000 0.000000 0.000000 -0.004120 0.000000 0.035953
#
#
# Mechanical properties :
#
#
# Convention : Reuss Voigt Hill
#
# Bulk Modulus (GPa) = 24.85683 36.26759 30.56221
# Shear Modulus (GPa) = 22.34172 26.54989 24.44581
#
# Velocity S-wave (km/s) = 3.27639 3.57165 3.42720
# Velocity P-wave (km/s) = 5.12408 5.86811 5.50867
#
# Compressibility (1/GPa) = 0.04023040
#
# Stress axis : x y z
#
# Youngs Moduli (GPa) = 41.73350 102.88296 51.20918
#
# Poissons Ratio (x) = 0.64804 -0.15673
# Poissons Ratio (y) = 0.26287 0.16649
# Poissons Ratio (z) = -0.12773 0.33449
#
# Static dielectric constant tensor:
#      x y z
#    x 1.749210 0.000000 0.013530 
#    y 0.000000 1.798370 0.000000 
#    z 0.013530 0.000000 1.745970 
# 
# From -- ./inp_files/238747.got.cif
#   From: 2010.05.17/outbox.cif.g08.bks.cpg/sg15_120_cif.got.tgz:238747.got - 2010.06.03 18:47:42.
