data_PCOD9289254
_publ_section_title
;
Structure prediction by ZEFSAII (Michael W. Deem and Ramdas Pophale) SiO2 
 PCOD9289254
Probable space group: C 2/C
;
_chemical_formula_sum "Si O2"
_cell_formula_units_Z 40
_cell_length_a 13.716574
_cell_length_b 12.553167
_cell_length_c 10.288931
_cell_angle_alpha 90.000000
_cell_angle_beta 76.439292
_cell_angle_gamma 90.000000
_cell_volume 1722.225422
_symmetry_space_group_name_H-M "C 2/C"
_symmetry_group_IT_number 15
_symmetry_cell_setting 'monoclinic'
loop_
_space_group_symop_operation_xyz
x,y,z
-x,y,1/2-z
-x,-y,-z
x,-y,1/2+z
1/2+x,1/2+y,z
1/2-x,1/2+y,1/2-z
1/2-x,1/2-y,-z
1/2+x,1/2-y,1/2+z
loop_
_atom_site_type_symbol
_atom_site_label
_atom_site_fract_x
_atom_site_fract_y
_atom_site_fract_z
Si Si1 0.565591 0.035608 0.103914
Si Si2 0.380648 0.740148 0.026689
Si Si3 0.223027 0.406087 0.937676
Si Si4 0.894802 0.803182 0.044603
Si Si5 0.785813 0.124065 0.821717
O O1 0.500000 0.022515 0.250000
O O2 0.598511 0.156944 0.071397
O O3 0.500000 0.000000 0.000000
O O4 0.662537 0.960421 0.075124
O O5 0.490234 0.701774 0.033782
O O6 0.330733 0.651655 0.950365
O O7 0.304873 0.788523 0.158114
O O8 0.148584 0.314678 0.912968
O O9 0.243752 0.504682 0.837211
O O10 0.324638 0.353665 0.956326
O O11 0.870190 0.863530 0.186293
#
# Coordination Sequence:
#
# PCOD9289254 Si02
#       5
#     8   8   8   8   8
#     4  11  22  38  68  96 128 168 222 277 324 378
#     4  10  22  40  62  95 122 170 216 259 325 390
#     4  10  25  38  60  96 121 168 212 266 326 381
#     4  11  22  42  64  88 130 161 213 269 322 385
#     4  10  23  40  64  90 125 165 213 267 323 393
#
# _framework density 23.225763000000001
#
# number of rings (size 3 to 8) (size 9 to 14) (size 15 to 20)
#    0.000    1.600    2.000    1.800    5.600    4.000 
#    0.000    5.000    0.000    0.000    0.000    0.000 
#    0.000    0.000    0.000    0.000    0.000    0.000 
#
# Total GULP energy -111881.936226 kJ/mol
# GULP energy per Si atom -5594.096811 kJ/mol
# Density = 2.317290 g / cm^3
# Si number density = 23.225763 Si / 1000 Ang^3
#
#
#
# Elastic Constant Matrix: (Units=GPa)
#
#
# Indices 1 2 3 4 5 6 
#
# 1 137.2759 2.5376 5.3958 0.0000 -17.5734 0.0000
# 2 2.5376 54.9490 1.0186 0.0000 2.6917 0.0000
# 3 5.3958 1.0186 59.5162 0.0000 -3.8698 0.0000
# 4 0.0000 0.0000 0.0000 11.0108 0.0000 -13.8657
# 5 -17.5734 2.6917 -3.8698 0.0000 28.9736 0.0000
# 6 0.0000 0.0000 0.0000 -13.8657 0.0000 24.5021
#
#
#
# Elastic Compliance Matrix: (Units=1/GPa)
#
#
# Indices 1 2 3 4 5 6 
#
# 1 0.007927 -0.000594 -0.000396 0.000000 0.004810 0.000000
# 2 -0.000594 0.018337 -0.000398 0.000000 -0.002117 0.000000
# 3 -0.000396 -0.000398 0.016979 0.000000 0.002065 0.000000
# 4 0.000000 0.000000 0.000000 0.316038 0.000000 0.178846
# 5 0.004810 -0.002117 0.002065 0.000000 0.037904 0.000000
# 6 0.000000 0.000000 0.000000 0.178846 0.000000 0.142022
#
#
# Mechanical properties :
#
#
# Convention : Reuss Voigt Hill
#
# Bulk Modulus (GPa) = 24.71100 29.96057 27.33579
# Shear Modulus (GPa) = 9.00135 29.08322 19.04229
#
# Velocity S-wave (km/s) = 1.97079 3.54248 2.86646
# Velocity P-wave (km/s) = 3.98011 5.44609 4.76976
#
# Compressibility (1/GPa) = 0.04046781
#
# Stress axis : x y z
#
# Youngs Moduli (GPa) = 126.15226 54.53392 58.89601
#
# Poissons Ratio (x) = 0.03241 0.02331
# Poissons Ratio (y) = 0.07498 0.02342
# Poissons Ratio (z) = 0.04992 0.02168
#
# Static dielectric constant tensor:
#      x y z
#    x 1.955210 0.000000 -0.035250 
#    y 0.000000 1.876640 0.000000 
#    z -0.035250 0.000000 1.893870 
# 
# From -- ./inp_files/94862.got.cif
#   From: 2010.05.17/outbox.cif.g08.bks.cpg/sg15_48_cif.got.tgz:94862.got - 2010.06.03 18:47:42.
