data_PCOD9289118
_publ_section_title
;
Structure prediction by ZEFSAII (Michael W. Deem and Ramdas Pophale) SiO2 
 PCOD9289118
Probable space group: C 2/C
;
_chemical_formula_sum "Si O2"
_cell_formula_units_Z 36
_cell_length_a 13.486802
_cell_length_b 21.358781
_cell_length_c 8.181065
_cell_angle_alpha 90.000000
_cell_angle_beta 50.675465
_cell_angle_gamma 90.000000
_cell_volume 1823.032022
_symmetry_space_group_name_H-M "C 2/C"
_symmetry_group_IT_number 15
_symmetry_cell_setting 'monoclinic'
loop_
_space_group_symop_operation_xyz
x,y,z
-x,y,1/2-z
-x,-y,-z
x,-y,1/2+z
1/2+x,1/2+y,z
1/2-x,1/2+y,1/2-z
1/2-x,1/2-y,-z
1/2+x,1/2-y,1/2+z
loop_
_atom_site_type_symbol
_atom_site_label
_atom_site_fract_x
_atom_site_fract_y
_atom_site_fract_z
Si Si1 0.278729 0.280760 0.647238
Si Si2 0.997770 0.303486 0.946746
Si Si3 0.155044 0.922607 0.878676
Si Si4 0.500000 0.518304 0.250000
Si Si5 0.547448 0.934688 0.016684
O O1 0.250000 0.250000 0.500000
O O2 0.378920 0.236410 0.634823
O O3 0.341059 0.350060 0.568196
O O4 0.137223 0.286364 0.872433
O O5 0.000000 0.291072 0.750000
O O6 0.985310 0.377227 0.983508
O O7 0.299553 0.933725 0.666135
O O8 0.057971 0.938591 0.832390
O O9 0.109948 0.971525 0.065128
O O10 0.500000 0.926879 0.250000
O O11 0.500000 0.000000 0.000000
#
# Coordination Sequence:
#
# PCOD9289118 Si02
#       5
#     8   8   8   4   8
#     4   9  19  36  60  87 119 153 208 244 302 363
#     4   9  19  37  57  87 115 155 199 247 294 361
#     4  10  22  40  60  93 120 163 202 253 307 366
#     4  10  22  40  62  88 128 156 206 250 310 366
#     4  11  22  39  60  86 120 154 201 249 306 357
#
# _framework density 19.747322
#
# number of rings (size 3 to 8) (size 9 to 14) (size 15 to 20)
#    0.000    2.222    0.000    2.000    4.667    3.556 
#   10.000    2.222    0.000    0.000    0.000    0.000 
#    0.000    0.000    0.000    0.000    0.000    0.000 
#
# Total GULP energy -100344.855620 kJ/mol
# GULP energy per Si atom -5574.714201 kJ/mol
# Density = 1.970238 g / cm^3
# Si number density = 19.747322 Si / 1000 Ang^3
#
#
#
# Elastic Constant Matrix: (Units=GPa)
#
#
# Indices 1 2 3 4 5 6 
#
# 1 61.2388 63.5714 17.5967 0.0000 -16.3199 0.0000
# 2 63.5714 146.1348 31.1954 0.0000 -35.8090 0.0000
# 3 17.5967 31.1954 71.5074 0.0000 -15.4774 0.0000
# 4 0.0000 0.0000 0.0000 -2.3807 0.0000 23.6796
# 5 -16.3199 -35.8090 -15.4774 0.0000 27.5905 0.0000
# 6 0.0000 0.0000 0.0000 23.6796 0.0000 7.4068
#
#
#
# Elastic Compliance Matrix: (Units=1/GPa)
#
#
# Indices 1 2 3 4 5 6 
#
# 1 0.030003 -0.012560 -0.001811 0.000000 0.000430 0.000000
# 2 -0.012560 0.015494 -0.001052 0.000000 0.012090 0.000000
# 3 -0.001811 -0.001052 0.016346 0.000000 0.006734 0.000000
# 4 0.000000 0.000000 0.000000 -0.012807 0.000000 0.040943
# 5 0.000430 0.012090 0.006734 0.000000 0.055967 0.000000
# 6 0.000000 0.000000 0.000000 0.040943 0.000000 0.004116
#
#
# Mechanical properties :
#
#
# Convention : Reuss Voigt Hill
#
# Bulk Modulus (GPa) = 32.25994 55.95644 44.10819
# Shear Modulus (GPa) = 33.26746 17.62449 25.44597
#
# Velocity S-wave (km/s) = 4.10891 2.99072 3.59357
# Velocity P-wave (km/s) = 6.23560 6.35008 6.29310
#
# Compressibility (1/GPa) = 0.03099819
#
# Stress axis : x y z
#
# Youngs Moduli (GPa) = 33.33037 64.54207 61.17529
#
# Poissons Ratio (x) = 0.81064 0.11078
# Poissons Ratio (y) = 0.41862 0.06434
# Poissons Ratio (z) = 0.06035 0.06788
#
# Static dielectric constant tensor:
#      x y z
#    x 1.696520 0.000000 -0.040870 
#    y 0.000000 1.670300 0.000000 
#    z -0.040870 0.000000 1.679520 
# 
# From -- ./inp_files/38871.got.cif
#   From: 2010.05.17/outbox.cif.g08.bks.cpg/sg15_20_cif.got.tgz:38871.got - 2010.06.03 18:47:42.
