data_PCOD9289879
_publ_section_title
;
Structure prediction by ZEFSAII (Michael W. Deem and Ramdas Pophale) SiO2 
 PCOD9289879
Probable space group: C 2/C
;
_chemical_formula_sum "Si O2"
_cell_formula_units_Z 40
_cell_length_a 8.245201
_cell_length_b 18.398394
_cell_length_c 23.673982
_cell_angle_alpha 90.000000
_cell_angle_beta 148.879701
_cell_angle_gamma 90.000000
_cell_volume 1856.118867
_symmetry_space_group_name_H-M "C 2/C"
_symmetry_group_IT_number 15
_symmetry_cell_setting 'monoclinic'
loop_
_space_group_symop_operation_xyz
x,y,z
-x,y,1/2-z
-x,-y,-z
x,-y,1/2+z
1/2+x,1/2+y,z
1/2-x,1/2+y,1/2-z
1/2-x,1/2-y,-z
1/2+x,1/2-y,1/2+z
loop_
_atom_site_type_symbol
_atom_site_label
_atom_site_fract_x
_atom_site_fract_y
_atom_site_fract_z
Si Si1 0.054571 0.187310 0.662918
Si Si2 0.570544 0.002522 0.178065
Si Si3 0.231951 0.041886 0.888384
Si Si4 0.338944 0.157850 0.140227
Si Si5 0.738156 0.859253 0.398751
O O1 0.108007 0.172072 0.612513
O O2 0.385741 0.172781 0.793783
O O3 0.810105 0.127185 0.612316
O O4 0.951677 0.268696 0.644089
O O5 0.674294 0.972888 0.148117
O O6 0.314690 0.945779 0.124038
O O7 0.900295 0.993517 0.308592
O O8 0.456540 0.084508 0.144671
O O9 0.500000 0.000000 0.000000
O O10 0.500000 0.156357 0.250000
O O11 0.961484 0.155858 0.018750
#
# Coordination Sequence:
#
# PCOD9289879 Si02
#       5
#     8   8   8   8   8
#     4  10  24  44  69  95 129 172 217 272 330 377
#     4  10  24  41  64  96 126 172 219 257 320 387
#     4  10  22  40  69  93 128 168 218 265 315 384
#     4  12  27  39  66 103 134 165 219 274 328 384
#     4  10  23  45  71  88 132 176 220 263 324 392
#
# _framework density 21.550343999999999
#
# number of rings (size 3 to 8) (size 9 to 14) (size 15 to 20)
#    0.000    1.600    0.000    2.400   14.000    5.600 
#    0.000    0.000    0.000    0.000    0.000    0.000 
#    0.000    0.000    0.000    0.000    0.000    0.000 
#
# Total GULP energy -111728.393060 kJ/mol
# GULP energy per Si atom -5586.419653 kJ/mol
# Density = 2.150129 g / cm^3
# Si number density = 21.550344 Si / 1000 Ang^3
#
#
#
# Elastic Constant Matrix: (Units=GPa)
#
#
# Indices 1 2 3 4 5 6 
#
# 1 67.0843 43.2226 27.4126 -0.0022 -4.1022 -0.0023
# 2 43.2226 200.0896 42.4660 0.0009 21.3129 -0.0021
# 3 27.4126 42.4660 164.5948 0.0128 1.0913 -0.0011
# 4 -0.0022 0.0009 0.0128 18.8951 0.0019 13.9378
# 5 -4.1022 21.3129 1.0913 0.0019 15.0532 -0.0013
# 6 -0.0023 -0.0021 -0.0011 13.9378 -0.0013 23.2725
#
#
#
# Elastic Compliance Matrix: (Units=1/GPa)
#
#
# Indices 1 2 3 4 5 6 
#
# 1 0.019927 -0.005257 -0.002049 0.000002 0.013022 0.000001
# 2 -0.005257 0.007647 -0.001017 0.000002 -0.012186 -0.000002
# 3 -0.002049 -0.001017 0.006676 -0.000009 0.000397 0.000005
# 4 0.000002 0.000002 -0.000009 0.094806 -0.000019 -0.056779
# 5 0.013022 -0.012186 0.000397 -0.000019 0.087204 0.000017
# 6 0.000001 -0.000002 0.000005 -0.056779 0.000017 0.076974
#
#
# Mechanical properties :
#
#
# Convention : Reuss Voigt Hill
#
# Bulk Modulus (GPa) = 56.79887 73.10789 64.95338
# Shear Modulus (GPa) = 15.83540 32.68865 24.26202
#
# Velocity S-wave (km/s) = 2.71368 3.89890 3.35898
# Velocity P-wave (km/s) = 6.01933 7.36658 6.72677
#
# Compressibility (1/GPa) = 0.01760599
#
# Stress axis : x y z
#
# Youngs Moduli (GPa) = 50.18302 130.76889 149.78065
#
# Poissons Ratio (x) = 0.68742 0.30688
# Poissons Ratio (y) = 0.26380 0.15228
# Poissons Ratio (z) = 0.10282 0.13295
#
# Static dielectric constant tensor:
#      x y z
#    x 1.983150 0.000000 -0.368860 
#    y 0.000000 1.746170 0.000000 
#    z -0.368860 0.000000 2.559250 
# 
# From -- ./inp_files/265667.got.cif
#   From: 2010.05.17/outbox.cif.g08.bks.cpg/sg15_133_cif.got.tgz:265667.got - 2010.06.03 18:47:42.
