data_PCOD9289562
_publ_section_title
;
Structure prediction by ZEFSAII (Michael W. Deem and Ramdas Pophale) SiO2 
 PCOD9289562
Probable space group: C 2/C
;
_chemical_formula_sum "Si O2"
_cell_formula_units_Z 44
_cell_length_a 16.059462
_cell_length_b 9.706798
_cell_length_c 14.646461
_cell_angle_alpha 90.000000
_cell_angle_beta 126.942467
_cell_angle_gamma 90.000000
_cell_volume 1824.805479
_symmetry_space_group_name_H-M "C 2/C"
_symmetry_group_IT_number 15
_symmetry_cell_setting 'monoclinic'
loop_
_space_group_symop_operation_xyz
x,y,z
-x,y,1/2-z
-x,-y,-z
x,-y,1/2+z
1/2+x,1/2+y,z
1/2-x,1/2+y,1/2-z
1/2-x,1/2-y,-z
1/2+x,1/2-y,1/2+z
loop_
_atom_site_type_symbol
_atom_site_label
_atom_site_fract_x
_atom_site_fract_y
_atom_site_fract_z
Si Si1 0.344115 0.413426 0.440818
Si Si2 0.124304 0.056112 0.326163
Si Si3 0.500000 0.007137 0.250000
Si Si4 0.956095 0.202444 0.504293
Si Si5 0.133559 0.672354 0.715991
Si Si6 0.140496 0.243657 0.875288
O O1 0.331824 0.409804 0.543075
O O2 0.398429 0.557435 0.452360
O O3 0.429224 0.302809 0.462477
O O4 0.237754 0.401214 0.316626
O O5 0.149371 0.175087 0.270721
O O6 0.000000 0.062278 0.250000
O O7 0.148993 0.895842 0.321632
O O8 0.468698 0.902818 0.310276
O O9 0.398918 0.107927 0.183225
O O10 0.887863 0.312953 0.404982
O O11 0.949253 0.219178 0.607412
O O12 0.250000 0.250000 0.000000
#
# Coordination Sequence:
#
# PCOD9289562 Si02
#       6
#     8   8   4   8   8   8
#     4  10  22  40  65  98 130 172 220 272 325 407
#     4  11  20  43  70  92 133 180 214 265 339 397
#     4  12  24  42  66 100 136 168 232 284 320 404
#     4  10  23  42  62  93 135 172 219 269 336 393
#     4  12  24  41  71 101 131 172 225 279 336 388
#     4  11  26  44  67  96 135 182 224 273 339 401
#
# _framework density 24.112158000000001
#
# number of rings (size 3 to 8) (size 9 to 14) (size 15 to 20)
#    0.000    1.091    3.636    2.727    0.000    6.545 
#    0.000    0.000    0.000    0.000    0.000    0.000 
#    0.000    0.000    0.000    0.000    0.000    0.000 
#
# Total GULP energy -122881.109182 kJ/mol
# GULP energy per Si atom -5585.504963 kJ/mol
# Density = 2.405728 g / cm^3
# Si number density = 24.112158 Si / 1000 Ang^3
#
#
#
# Elastic Constant Matrix: (Units=GPa)
#
#
# Indices 1 2 3 4 5 6 
#
# 1 50.3144 22.1015 8.8838 0.0000 -7.9857 0.0000
# 2 22.1015 99.3006 12.7776 0.0000 -5.1004 0.0000
# 3 8.8838 12.7776 40.3552 0.0000 12.2529 0.0000
# 4 0.0000 0.0000 0.0000 34.1814 0.0000 5.1713
# 5 -7.9857 -5.1004 12.2529 0.0000 32.3252 0.0000
# 6 0.0000 0.0000 0.0000 5.1713 0.0000 3.1984
#
#
#
# Elastic Compliance Matrix: (Units=1/GPa)
#
#
# Indices 1 2 3 4 5 6 
#
# 1 0.024026 -0.004142 -0.006307 0.000000 0.007673 0.000000
# 2 -0.004142 0.011532 -0.003369 0.000000 0.002074 0.000000
# 3 -0.006307 -0.003369 0.031494 0.000000 -0.014028 0.000000
# 4 0.000000 0.000000 0.000000 0.038729 0.000000 -0.062619
# 5 0.007673 0.002074 -0.014028 0.000000 0.038475 0.000000
# 6 0.000000 0.000000 0.000000 -0.062619 0.000000 0.413902
#
#
# Mechanical properties :
#
#
# Convention : Reuss Voigt Hill
#
# Bulk Modulus (GPa) = 25.37046 30.83290 28.10168
# Shear Modulus (GPa) = 8.34816 23.68816 16.01816
#
# Velocity S-wave (km/s) = 1.86272 3.13775 2.58023
# Velocity P-wave (km/s) = 3.89500 5.09336 4.53395
#
# Compressibility (1/GPa) = 0.03941592
#
# Stress axis : x y z
#
# Youngs Moduli (GPa) = 41.62197 86.71281 31.75163
#
# Poissons Ratio (x) = 0.35914 0.20027
# Poissons Ratio (y) = 0.17239 0.10698
# Poissons Ratio (z) = 0.26252 0.29216
#
# Static dielectric constant tensor:
#      x y z
#    x 1.913120 0.000000 0.011950 
#    y 0.000000 1.984900 0.000000 
#    z 0.011950 0.000000 1.919700 
# 
# From -- ./inp_files/159795.got.cif
#   From: 2010.05.17/outbox.cif.g08.bks.cpg/sg15_80_cif.got.tgz:159795.got - 2010.06.03 18:47:42.
