data_PCOD9289278
_publ_section_title
;
Structure prediction by ZEFSAII (Michael W. Deem and Ramdas Pophale) SiO2 
 PCOD9289278
Probable space group: C 2/C
;
_chemical_formula_sum "Si O2"
_cell_formula_units_Z 56
_cell_length_a 24.700780
_cell_length_b 17.590025
_cell_length_c 8.628439
_cell_angle_alpha 90.000000
_cell_angle_beta 134.736204
_cell_angle_gamma 90.000000
_cell_volume 2663.083113
_symmetry_space_group_name_H-M "C 2/C"
_symmetry_group_IT_number 15
_symmetry_cell_setting 'monoclinic'
loop_
_space_group_symop_operation_xyz
x,y,z
-x,y,1/2-z
-x,-y,-z
x,-y,1/2+z
1/2+x,1/2+y,z
1/2-x,1/2+y,1/2-z
1/2-x,1/2-y,-z
1/2+x,1/2-y,1/2+z
loop_
_atom_site_type_symbol
_atom_site_label
_atom_site_fract_x
_atom_site_fract_y
_atom_site_fract_z
Si Si1 0.669637 0.566740 0.015210
Si Si2 0.884554 0.224615 0.622349
Si Si3 0.545880 0.870383 0.186351
Si Si4 0.948155 0.792362 0.908058
Si Si5 0.079604 0.042384 0.133758
Si Si6 0.605316 0.895363 0.781610
Si Si7 0.337952 0.032218 0.426823
O O1 0.599763 0.559410 0.996176
O O2 0.747547 0.539742 0.248450
O O3 0.673254 0.654932 0.972551
O O4 0.645699 0.511234 0.830366
O O5 0.904352 0.227585 0.479404
O O6 0.865476 0.309199 0.639846
O O7 0.962834 0.201612 0.867283
O O8 0.500000 0.890062 0.250000
O O9 0.561743 0.780702 0.218684
O O10 0.622656 0.917314 0.358865
O O11 0.486666 0.889458 0.929054
O O12 0.922359 0.873954 0.793422
O O13 0.000000 0.000000 0.000000
O O14 0.637965 0.933708 0.691218
O O15 0.630710 0.948224 0.974489
#
# Coordination Sequence:
#
# PCOD9289278 Si02
#       7
#     8   8   8   8   8   8   8
#     4  11  23  40  60  90 126 159 197 250 311 364
#     4   9  19  38  60  85 117 158 199 245 312 359
#     4   9  20  38  59  87 116 156 206 252 292 353
#     4   9  18  36  61  87 114 151 204 251 295 353
#     4  11  21  39  64  90 116 160 203 246 297 363
#     4  10  22  40  63  85 117 164 206 248 299 362
#     4  11  23  40  58  89 126 154 204 252 304 359
#
# _framework density 21.028258999999998
#
# number of rings (size 3 to 8) (size 9 to 14) (size 15 to 20)
#    0.000    2.000    1.429    1.714    2.000    1.714 
#   10.286    1.429    0.000    0.000    0.000    0.000 
#    0.000    0.000    0.000    0.000    0.000    0.000 
#
# Total GULP energy -156319.343283 kJ/mol
# GULP energy per Si atom -5582.833689 kJ/mol
# Density = 2.098040 g / cm^3
# Si number density = 21.028259 Si / 1000 Ang^3
#
#
#
# Elastic Constant Matrix: (Units=GPa)
#
#
# Indices 1 2 3 4 5 6 
#
# 1 47.1005 30.6313 15.8570 0.0000 0.7278 0.0000
# 2 30.6313 173.7177 67.0690 0.0000 6.5627 0.0000
# 3 15.8570 67.0690 83.6363 0.0000 12.2226 0.0000
# 4 0.0000 0.0000 0.0000 13.9174 0.0000 -14.5107
# 5 0.7278 6.5627 12.2226 0.0000 16.0748 0.0000
# 6 0.0000 0.0000 0.0000 -14.5107 0.0000 20.3252
#
#
#
# Elastic Compliance Matrix: (Units=1/GPa)
#
#
# Indices 1 2 3 4 5 6 
#
# 1 0.024194 -0.003563 -0.002005 0.000000 0.001884 0.000000
# 2 -0.003563 0.008914 -0.006710 0.000000 0.001624 0.000000
# 3 -0.002005 -0.006710 0.019467 0.000000 -0.011972 0.000000
# 4 0.000000 0.000000 0.000000 0.281076 0.000000 0.200668
# 5 0.001884 0.001624 -0.011972 0.000000 0.070564 0.000000
# 6 0.000000 0.000000 0.000000 0.200668 0.000000 0.192462
#
#
# Mechanical properties :
#
#
# Convention : Reuss Voigt Hill
#
# Bulk Modulus (GPa) = 35.69020 59.06322 47.37671
# Shear Modulus (GPa) = 7.92929 22.78997 15.35963
#
# Velocity S-wave (km/s) = 1.94396 3.29565 2.70558
# Velocity P-wave (km/s) = 4.69553 6.52919 5.68675
#
# Compressibility (1/GPa) = 0.02801890
#
# Stress axis : x y z
#
# Youngs Moduli (GPa) = 41.33191 112.18284 51.36874
#
# Poissons Ratio (x) = 0.39973 0.10300
# Poissons Ratio (y) = 0.14727 0.34469
# Poissons Ratio (z) = 0.08287 0.75275
#
# Static dielectric constant tensor:
#      x y z
#    x 1.783570 0.000000 -0.018540 
#    y 0.000000 1.779850 0.000000 
#    z -0.018540 0.000000 1.751300 
# 
# From -- ./inp_files/62684.got.cif
#   From: 2010.05.17/outbox.cif.g08.bks.cpg/sg15_32_cif.got.tgz:62684.got - 2010.06.03 18:47:42.
