data_PCOD9289776
_publ_section_title
;
Structure prediction by ZEFSAII (Michael W. Deem and Ramdas Pophale) SiO2 
 PCOD9289776
Probable space group: C 2/C
;
_chemical_formula_sum "Si O2"
_cell_formula_units_Z 48
_cell_length_a 5.648258
_cell_length_b 20.245099
_cell_length_c 24.221535
_cell_angle_alpha 90.000000
_cell_angle_beta 52.040410
_cell_angle_gamma 90.000000
_cell_volume 2183.772403
_symmetry_space_group_name_H-M "C 2/C"
_symmetry_group_IT_number 15
_symmetry_cell_setting 'monoclinic'
loop_
_space_group_symop_operation_xyz
x,y,z
-x,y,1/2-z
-x,-y,-z
x,-y,1/2+z
1/2+x,1/2+y,z
1/2-x,1/2+y,1/2-z
1/2-x,1/2-y,-z
1/2+x,1/2-y,1/2+z
loop_
_atom_site_type_symbol
_atom_site_label
_atom_site_fract_x
_atom_site_fract_y
_atom_site_fract_z
Si Si1 0.205328 0.265144 0.941453
Si Si2 0.206829 0.092996 0.669250
Si Si3 0.364774 0.474378 0.075686
Si Si4 0.655623 0.537787 0.314181
Si Si5 0.356731 0.686106 0.211571
Si Si6 0.708246 0.653557 0.554889
O O1 0.484664 0.279390 0.862907
O O2 0.021569 0.207782 0.936155
O O3 0.250000 0.250000 0.000000
O O4 0.003887 0.330688 0.977400
O O5 0.546852 0.064843 0.626692
O O6 0.228313 0.149421 0.618700
O O7 0.000000 0.118448 0.750000
O O8 0.030402 0.025515 0.678666
O O9 0.358770 0.535995 0.117792
O O10 0.602374 0.419599 0.058825
O O11 0.500000 0.500000 0.000000
O O12 0.564910 0.607937 0.303241
O O13 0.000000 0.525426 0.250000
O O14 0.500000 0.709564 0.250000
O O15 0.000000 0.691544 0.250000
#
# Coordination Sequence:
#
# PCOD9289776 Si02
#       6
#     8   8   8   8   8   8
#     4  11  26  51  72  97 144 193 247 308 370 430
#     4  11  22  43  68 103 145 185 234 299 370 440
#     4  11  25  40  68 108 139 185 236 296 372 439
#     4  10  22  40  68 101 142 189 228 295 367 436
#     4  11  28  48  76 111 145 194 254 308 370 441
#     4  10  26  44  70 102 136 193 241 298 366 442
#
# _framework density 21.980314
#
# number of rings (size 3 to 8) (size 9 to 14) (size 15 to 20)
#    0.000    1.333    1.667    1.500   14.000    1.333 
#    6.000    0.000    0.000    0.000    0.000    0.000 
#    0.000    0.000    0.000    0.000    0.000    0.000 
#
# Total GULP energy -133822.044886 kJ/mol
# GULP energy per Si atom -5575.918537 kJ/mol
# Density = 2.193029 g / cm^3
# Si number density = 21.980314 Si / 1000 Ang^3
#
#
#
# Elastic Constant Matrix: (Units=GPa)
#
#
# Indices 1 2 3 4 5 6 
#
# 1 61.5211 23.0605 50.7096 0.0000 19.1311 0.0000
# 2 23.0605 38.7333 36.6327 0.0000 1.1305 0.0000
# 3 50.7096 36.6327 195.7612 0.0000 20.2100 0.0000
# 4 0.0000 0.0000 0.0000 65.1712 0.0000 37.8535
# 5 19.1311 1.1305 20.2100 0.0000 29.8000 0.0000
# 6 0.0000 0.0000 0.0000 37.8535 0.0000 52.5169
#
#
#
# Elastic Compliance Matrix: (Units=1/GPa)
#
#
# Indices 1 2 3 4 5 6 
#
# 1 0.029072 -0.013698 -0.003327 0.000000 -0.015888 0.000000
# 2 -0.013698 0.038075 -0.004662 0.000000 0.010511 0.000000
# 3 -0.003327 -0.004662 0.007101 0.000000 -0.002503 0.000000
# 4 0.000000 0.000000 0.000000 0.026394 0.000000 -0.019025
# 5 -0.015888 0.010511 -0.002503 0.000000 0.045055 0.000000
# 6 0.000000 0.000000 0.000000 -0.019025 0.000000 0.032754
#
#
# Mechanical properties :
#
#
# Convention : Reuss Voigt Hill
#
# Bulk Modulus (GPa) = 32.38971 57.42456 44.90713
# Shear Modulus (GPa) = 21.54074 41.87180 31.70627
#
# Velocity S-wave (km/s) = 3.13389 4.36933 3.80213
# Velocity P-wave (km/s) = 5.27852 7.18588 6.30475
#
# Compressibility (1/GPa) = 0.03087401
#
# Stress axis : x y z
#
# Youngs Moduli (GPa) = 34.39696 26.26380 140.82696
#
# Poissons Ratio (x) = 0.35976 0.46857
# Poissons Ratio (y) = 0.47117 0.65651
# Poissons Ratio (z) = 0.11445 0.12244
#
# Static dielectric constant tensor:
#      x y z
#    x 1.947290 0.000000 0.095160 
#    y 0.000000 1.806540 0.000000 
#    z 0.095160 0.000000 1.815240 
# 
# From -- ./inp_files/185232.got.cif
#   From: 2010.05.17/outbox.cif.g08.bks.cpg/sg15_93_cif.got.tgz:185232.got - 2010.06.03 18:47:42.
