data_PCOD9289487
_publ_section_title
;
Structure prediction by ZEFSAII (Michael W. Deem and Ramdas Pophale) SiO2 
 PCOD9289487
Probable space group: C 2/C
;
_chemical_formula_sum "Si O2"
_cell_formula_units_Z 56
_cell_length_a 27.112130
_cell_length_b 15.581371
_cell_length_c 11.989495
_cell_angle_alpha 90.000000
_cell_angle_beta 32.116241
_cell_angle_gamma 90.000000
_cell_volume 2692.692561
_symmetry_space_group_name_H-M "C 2/C"
_symmetry_group_IT_number 15
_symmetry_cell_setting 'monoclinic'
loop_
_space_group_symop_operation_xyz
x,y,z
-x,y,1/2-z
-x,-y,-z
x,-y,1/2+z
1/2+x,1/2+y,z
1/2-x,1/2+y,1/2-z
1/2-x,1/2-y,-z
1/2+x,1/2-y,1/2+z
loop_
_atom_site_type_symbol
_atom_site_label
_atom_site_fract_x
_atom_site_fract_y
_atom_site_fract_z
Si Si1 0.000000 0.164597 0.750000
Si Si2 0.391597 0.379712 0.928749
Si Si3 0.266643 0.615937 0.884593
Si Si4 0.329671 0.432405 0.502359
Si Si5 0.934876 0.307791 0.706141
Si Si6 0.827220 0.446351 0.531880
Si Si7 0.054544 0.294901 0.261626
Si Si8 0.500000 0.948206 0.750000
O O1 0.088630 0.103981 0.576609
O O2 0.024733 0.226824 0.804417
O O3 0.500000 0.397029 0.750000
O O4 0.346232 0.465167 0.964003
O O5 0.394433 0.297093 0.842961
O O6 0.333221 0.359645 0.153573
O O7 0.321993 0.607742 0.894263
O O8 0.226807 0.520592 0.932068
O O9 0.175972 0.676998 0.071210
O O10 0.237888 0.410735 0.746822
O O11 0.980431 0.389120 0.681335
O O12 0.976184 0.301265 0.504917
O O13 0.871769 0.371937 0.372091
O O14 0.910692 0.493866 0.435027
O O15 0.000000 0.303001 0.250000
#
# Coordination Sequence:
#
# PCOD9289487 Si02
#       8
#     4   8   8   8   8   8   8   4
#     4  11  26  44  69  94 130 186 231 270 328 407
#     4  10  24  44  61  98 137 175 221 281 326 389
#     4  10  24  42  72  95 134 176 225 280 336 400
#     4  11  24  44  68  95 133 183 235 264 330 409
#     4  10  24  44  68 102 132 177 219 285 346 393
#     4  10  22  40  65 106 130 178 223 276 336 404
#     4  11  23  39  66 100 138 172 221 275 340 393
#     4   9  20  42  69  92 148 166 221 278 344 405
#
# _framework density 20.797025999999999
#
# number of rings (size 3 to 8) (size 9 to 14) (size 15 to 20)
#    0.000    1.714    1.429    0.857    8.000    4.571 
#    0.000    1.429    0.000    0.000    0.000    0.000 
#    0.000    0.000    0.000    0.000    0.000    0.000 
#
# Total GULP energy -156390.698062 kJ/mol
# GULP energy per Si atom -5585.382074 kJ/mol
# Density = 2.074969 g / cm^3
# Si number density = 20.797026 Si / 1000 Ang^3
#
#
#
# Elastic Constant Matrix: (Units=GPa)
#
#
# Indices 1 2 3 4 5 6 
#
# 1 84.8518 18.2649 51.0500 0.0000 -1.2862 0.0000
# 2 18.2649 79.8939 38.4059 0.0000 -3.8775 0.0000
# 3 51.0500 38.4059 162.5578 0.0000 5.5344 0.0000
# 4 0.0000 0.0000 0.0000 -30.0041 0.0000 -33.3040
# 5 -1.2862 -3.8775 5.5344 0.0000 32.4171 0.0000
# 6 0.0000 0.0000 0.0000 -33.3040 0.0000 24.3516
#
#
#
# Elastic Compliance Matrix: (Units=1/GPa)
#
#
# Indices 1 2 3 4 5 6 
#
# 1 0.014691 -0.001200 -0.004370 0.000000 0.001185 0.000000
# 2 -0.001200 0.014387 -0.003097 0.000000 0.002202 0.000000
# 3 -0.004370 -0.003097 0.008323 0.000000 -0.001965 0.000000
# 4 0.000000 0.000000 0.000000 -0.013236 0.000000 -0.018102
# 5 0.001185 0.002202 -0.001965 0.000000 0.031494 0.000000
# 6 0.000000 0.000000 0.000000 -0.018102 0.000000 0.016308
#
#
# Mechanical properties :
#
#
# Convention : Reuss Voigt Hill
#
# Bulk Modulus (GPa) = 49.83766 60.30502 55.07134
# Shear Modulus (GPa) = 52.08878 19.99177 36.04028
#
# Velocity S-wave (km/s) = 5.01005 3.10382 4.16739
# Velocity P-wave (km/s) = 7.58178 6.47339 7.04940
#
# Compressibility (1/GPa) = 0.02006515
#
# Stress axis : x y z
#
# Youngs Moduli (GPa) = 68.06913 69.50904 120.15267
#
# Poissons Ratio (x) = 0.08342 0.52511
# Poissons Ratio (y) = 0.08169 0.37212
# Poissons Ratio (z) = 0.29749 0.21527
#
# Static dielectric constant tensor:
#      x y z
#    x 1.746960 0.000000 -0.012760 
#    y 0.000000 1.805900 0.000000 
#    z -0.012760 0.000000 1.679470 
# 
# From -- ./inp_files/127021.got.cif
#   From: 2010.05.17/outbox.cif.g08.bks.cpg/sg15_64_cif.got.tgz:127021.got - 2010.06.03 18:47:42.
