data_PCOD9289930
_publ_section_title
;
Structure prediction by ZEFSAII (Michael W. Deem and Ramdas Pophale) SiO2 
 PCOD9289930
Probable space group: C 2/C
;
_chemical_formula_sum "Si O2"
_cell_formula_units_Z 40
_cell_length_a 8.285613
_cell_length_b 13.742921
_cell_length_c 26.932521
_cell_angle_alpha 90.000000
_cell_angle_beta 145.884827
_cell_angle_gamma 90.000000
_cell_volume 1720.021291
_symmetry_space_group_name_H-M "C 2/C"
_symmetry_group_IT_number 15
_symmetry_cell_setting 'monoclinic'
loop_
_space_group_symop_operation_xyz
x,y,z
-x,y,1/2-z
-x,-y,-z
x,-y,1/2+z
1/2+x,1/2+y,z
1/2-x,1/2+y,1/2-z
1/2-x,1/2-y,-z
1/2+x,1/2-y,1/2+z
loop_
_atom_site_type_symbol
_atom_site_label
_atom_site_fract_x
_atom_site_fract_y
_atom_site_fract_z
Si Si1 0.956815 0.267925 0.006519
Si Si2 0.268405 0.069144 0.057038
Si Si3 0.222186 0.962382 0.262142
Si Si4 0.621750 0.785259 0.330054
Si Si5 0.624515 0.577921 0.913158
O O1 0.754255 0.279896 0.906674
O O2 0.750000 0.250000 0.000000
O O3 0.163110 0.176753 0.045224
O O4 0.164937 0.358410 0.067016
O O5 0.536305 0.037027 0.158136
O O6 0.309464 0.050106 0.008589
O O7 0.000000 0.000000 0.000000
O O8 0.387361 0.860468 0.292430
O O9 0.000000 0.949515 0.250000
O O10 0.054810 0.991357 0.168836
O O11 0.500000 0.733445 0.250000
O O12 0.881253 0.852998 0.376017
#
# Coordination Sequence:
#
# PCOD9289930 Si02
#       5
#     8   8   8   8   8
#     4  11  22  42  69 101 132 176 229 282 342 409
#     4  11  22  42  73  96 135 179 230 275 343 415
#     4  11  22  40  66  98 135 177 223 278 338 397
#     4   9  18  37  65  89 130 177 219 265 342 398
#     4  10  22  40  70  91 139 177 219 277 345 394
#
# _framework density 23.255526
#
# number of rings (size 3 to 8) (size 9 to 14) (size 15 to 20)
#    0.000    1.600    4.000    3.600    0.000    0.800 
#    0.000    8.000   17.600    0.000    0.000    0.000 
#    0.000    0.000    0.000    0.000    0.000    0.000 
#
# Total GULP energy -111807.524236 kJ/mol
# GULP energy per Si atom -5590.376212 kJ/mol
# Density = 2.320260 g / cm^3
# Si number density = 23.255526 Si / 1000 Ang^3
#
#
#
# Elastic Constant Matrix: (Units=GPa)
#
#
# Indices 1 2 3 4 5 6 
#
# 1 128.1763 17.5608 62.4977 0.0000 -0.2643 0.0000
# 2 17.5608 55.5057 54.4690 0.0000 3.5673 0.0000
# 3 62.4977 54.4690 169.7901 -0.0001 -41.9624 0.0000
# 4 0.0000 0.0000 -0.0001 36.2856 0.0000 3.4965
# 5 -0.2643 3.5673 -41.9624 0.0000 54.1775 0.0000
# 6 0.0000 0.0000 0.0000 3.4965 0.0000 27.5865
#
#
#
# Elastic Compliance Matrix: (Units=1/GPa)
#
#
# Indices 1 2 3 4 5 6 
#
# 1 0.010239 0.002735 -0.005786 0.000000 -0.004611 0.000000
# 2 0.002735 0.032565 -0.014816 0.000000 -0.013607 0.000000
# 3 -0.005786 -0.014816 0.016086 0.000000 0.013406 0.000000
# 4 0.000000 0.000000 0.000000 0.027900 0.000000 -0.003536
# 5 -0.004611 -0.013607 0.013406 0.000000 0.029715 0.000000
# 6 0.000000 0.000000 0.000000 -0.003536 0.000000 0.036698
#
#
# Mechanical properties :
#
#
# Convention : Reuss Voigt Hill
#
# Bulk Modulus (GPa) = 43.18787 69.16967 56.17877
# Shear Modulus (GPa) = 25.42531 38.20620 31.81575
#
# Velocity S-wave (km/s) = 3.31010 4.05765 3.70279
# Velocity P-wave (km/s) = 5.76371 7.19448 6.51847
#
# Compressibility (1/GPa) = 0.02315465
#
# Stress axis : x y z
#
# Youngs Moduli (GPa) = 97.66949 30.70786 62.16756
#
# Poissons Ratio (x) = -0.08397 0.35968
# Poissons Ratio (y) = -0.26709 0.92109
# Poissons Ratio (z) = 0.56508 0.45498
#
# Static dielectric constant tensor:
#      x y z
#    x 1.673140 0.000000 0.063540 
#    y 0.000000 1.896700 0.000000 
#    z 0.063540 0.000000 1.866190 
# 
# From -- ./inp_files/289654.got.cif
#   From: 2010.05.17/outbox.cif.g08.bks.cpg/sg15_145_cif.got.tgz:289654.got - 2010.06.03 18:47:42.
