data_PCOD9289319
_publ_section_title
;
Structure prediction by ZEFSAII (Michael W. Deem and Ramdas Pophale) SiO2 
 PCOD9289319
Probable space group: C 2/C
;
_chemical_formula_sum "Si O2"
_cell_formula_units_Z 56
_cell_length_a 16.207217
_cell_length_b 15.295638
_cell_length_c 19.463725
_cell_angle_alpha 90.000000
_cell_angle_beta 36.188672
_cell_angle_gamma 90.000000
_cell_volume 2848.933225
_symmetry_space_group_name_H-M "C 2/C"
_symmetry_group_IT_number 15
_symmetry_cell_setting 'monoclinic'
loop_
_space_group_symop_operation_xyz
x,y,z
-x,y,1/2-z
-x,-y,-z
x,-y,1/2+z
1/2+x,1/2+y,z
1/2-x,1/2+y,1/2-z
1/2-x,1/2-y,-z
1/2+x,1/2-y,1/2+z
loop_
_atom_site_type_symbol
_atom_site_label
_atom_site_fract_x
_atom_site_fract_y
_atom_site_fract_z
Si Si1 0.016500 0.399856 0.351855
Si Si2 0.280085 0.393984 0.881297
Si Si3 0.500000 0.247099 0.750000
Si Si4 0.000000 0.045947 0.750000
Si Si5 0.780177 0.841685 0.442325
Si Si6 0.131688 0.303208 0.856120
Si Si7 0.007806 0.586466 0.170514
Si Si8 0.346158 0.190943 0.621182
O O1 0.853976 0.405890 0.480880
O O2 0.033865 0.316189 0.291156
O O3 0.054511 0.489432 0.288310
O O4 0.099178 0.388474 0.367893
O O5 0.371933 0.313259 0.848309
O O6 0.377172 0.479684 0.809895
O O7 0.219080 0.363244 0.849423
O O8 0.930539 0.113898 0.850158
O O9 0.750000 0.750000 0.500000
O O10 0.670615 0.911063 0.544748
O O11 0.742694 0.830463 0.387012
O O12 0.063793 0.359344 0.841060
O O13 0.243551 0.242302 0.741933
O O14 0.994739 0.268235 0.991812
O O15 0.000000 0.629671 0.250000
#
# Coordination Sequence:
#
# PCOD9289319 Si02
#       8
#     8   8   4   4   8   8   8   8
#     4  11  21  39  63  94 123 170 216 268 324 384
#     4  10  22  40  63  94 126 167 213 265 327 387
#     4  11  20  38  65  88 128 168 215 266 318 397
#     4  11  24  40  63  92 130 158 215 262 318 381
#     4  11  25  41  65  90 124 175 214 264 320 387
#     4  10  22  41  64  93 127 171 215 268 324 387
#     4  11  23  40  63  91 130 164 218 267 322 382
#     4  10  23  40  65  91 128 164 224 263 321 388
#
# _framework density 19.656479000000001
#
# number of rings (size 3 to 8) (size 9 to 14) (size 15 to 20)
#    0.000    1.429    3.571    1.286    7.000    1.714 
#    0.000    1.429    0.000    2.571    0.000    0.000 
#    0.000    0.000    0.000    0.000    0.000    0.000 
#
# Total GULP energy -155990.752698 kJ/mol
# GULP energy per Si atom -5571.098311 kJ/mol
# Density = 1.961174 g / cm^3
# Si number density = 19.656479 Si / 1000 Ang^3
#
#
#
# Elastic Constant Matrix: (Units=GPa)
#
#
# Indices 1 2 3 4 5 6 
#
# 1 47.9776 -6.3816 -1.9005 -0.0003 6.5276 0.0002
# 2 -6.3816 74.9284 21.5109 -0.0003 -5.5905 0.0002
# 3 -1.9005 21.5109 86.5141 -0.0008 -10.8160 0.0004
# 4 -0.0003 -0.0003 -0.0008 32.5265 0.0003 0.2117
# 5 6.5276 -5.5905 -10.8160 0.0003 31.5793 -0.0001
# 6 0.0002 0.0002 0.0004 0.2117 -0.0001 -3.7672
#
#
#
# Elastic Compliance Matrix: (Units=1/GPa)
#
#
# Indices 1 2 3 4 5 6 
#
# 1 0.021635 0.001656 -0.000480 0.000000 -0.004343 0.000001
# 2 0.001656 0.014556 -0.003451 0.000000 0.001052 0.000001
# 3 -0.000480 -0.003451 0.012895 0.000000 0.003905 0.000001
# 4 0.000000 0.000000 0.000000 0.030733 0.000000 0.001727
# 5 -0.004343 0.001052 0.003905 0.000000 0.034088 0.000000
# 6 0.000001 0.000001 0.000001 0.001727 0.000000 -0.265353
#
#
# Mechanical properties :
#
#
# Convention : Reuss Voigt Hill
#
# Bulk Modulus (GPa) = 22.45317 26.20863 24.33090
# Shear Modulus (GPa) = -37.86427 25.14714 -6.35856
#
# Velocity S-wave (km/s) = -4.39372 3.58065 -1.80052
# Velocity P-wave (km/s) = 3.78050 5.51879 2.84296
#
# Compressibility (1/GPa) = 0.04453714
#
# Stress axis : x y z
#
# Youngs Moduli (GPa) = 46.22081 68.69784 77.55204
#
# Poissons Ratio (x) = -0.11378 0.03719
# Poissons Ratio (y) = -0.07655 0.26766
# Poissons Ratio (z) = 0.02216 0.23710
#
# Static dielectric constant tensor:
#      x y z
#    x 1.686920 0.000000 -0.011250 
#    y 0.000000 1.707020 0.000000 
#    z -0.011250 0.000000 1.758380 
# 
# From -- ./inp_files/244529.got.cif
#   From: 2010.05.17/outbox.cif.g08.bks.cpg/sg15_123_cif.got.tgz:244529.got - 2010.06.03 18:47:42.
