data_PCOD9289331
_publ_section_title
;
Structure prediction by ZEFSAII (Michael W. Deem and Ramdas Pophale) SiO2 
 PCOD9289331
Probable space group: C 2/C
;
_chemical_formula_sum "Si O2"
_cell_formula_units_Z 56
_cell_length_a 14.173528
_cell_length_b 20.273547
_cell_length_c 12.997752
_cell_angle_alpha 90.000000
_cell_angle_beta 137.211013
_cell_angle_gamma 90.000000
_cell_volume 2537.100850
_symmetry_space_group_name_H-M "C 2/C"
_symmetry_group_IT_number 15
_symmetry_cell_setting 'monoclinic'
loop_
_space_group_symop_operation_xyz
x,y,z
-x,y,1/2-z
-x,-y,-z
x,-y,1/2+z
1/2+x,1/2+y,z
1/2-x,1/2+y,1/2-z
1/2-x,1/2-y,-z
1/2+x,1/2-y,1/2+z
loop_
_atom_site_type_symbol
_atom_site_label
_atom_site_fract_x
_atom_site_fract_y
_atom_site_fract_z
Si Si1 0.269674 0.423634 0.083326
Si Si2 0.991765 0.383245 0.487519
Si Si3 0.954962 0.929790 0.427199
Si Si4 0.226953 0.344703 0.351067
Si Si5 0.373555 0.319873 0.003928
Si Si6 0.645405 0.758601 0.689954
Si Si7 0.135668 0.554746 0.928832
O O1 0.128552 0.408594 0.033614
O O2 0.396838 0.431318 0.264447
O O3 0.302487 0.361249 0.037529
O O4 0.240395 0.493240 0.003655
O O5 0.911805 0.347858 0.328503
O O6 0.086402 0.330312 0.619367
O O7 0.085452 0.437684 0.506161
O O8 0.827157 0.901724 0.388765
O O9 0.080151 0.877984 0.537019
O O10 0.000000 0.000000 0.500000
O O11 0.302850 0.278016 0.373476
O O12 0.193039 0.373640 0.436324
O O13 0.271374 0.267799 0.869633
O O14 0.520402 0.283538 0.139625
O O15 0.000000 0.540371 0.750000
#
# Coordination Sequence:
#
# PCOD9289331 Si02
#       7
#     8   8   8   8   8   8   8
#     4  11  24  42  64 105 133 173 230 278 342 405
#     4  10  22  40  63  95 132 176 225 278 334 402
#     4  10  22  42  67  94 138 175 222 283 342 404
#     4   9  20  42  61  95 127 178 222 286 329 392
#     4  11  25  43  68  99 138 180 228 281 338 410
#     4  11  23  44  68  95 135 183 230 271 343 403
#     4  10  22  40  69  95 136 174 226 283 341 404
#
# _framework density 22.072437999999998
#
# number of rings (size 3 to 8) (size 9 to 14) (size 15 to 20)
#    0.000    1.714    1.429    1.714    4.000    1.143 
#    7.714    0.000    0.000    0.000    0.000    0.000 
#    0.000    0.000    0.000    0.000    0.000    0.000 
#
# Total GULP energy -156354.723469 kJ/mol
# GULP energy per Si atom -5584.097267 kJ/mol
# Density = 2.202220 g / cm^3
# Si number density = 22.072438 Si / 1000 Ang^3
#
#
#
# Elastic Constant Matrix: (Units=GPa)
#
#
# Indices 1 2 3 4 5 6 
#
# 1 117.0546 37.9918 24.8854 0.0000 6.2307 0.0000
# 2 37.9918 110.8778 44.8150 0.0000 7.1910 0.0000
# 3 24.8854 44.8150 60.7396 0.0000 17.2155 0.0000
# 4 0.0000 0.0000 0.0000 28.4284 0.0000 -6.3543
# 5 6.2307 7.1910 17.2155 0.0000 20.1429 0.0000
# 6 0.0000 0.0000 0.0000 -6.3543 0.0000 33.7087
#
#
#
# Elastic Compliance Matrix: (Units=1/GPa)
#
#
# Indices 1 2 3 4 5 6 
#
# 1 0.009815 -0.002503 -0.002069 0.000000 -0.000375 0.000000
# 2 -0.002503 0.013827 -0.010553 0.000000 0.004857 0.000000
# 3 -0.002069 -0.010553 0.031472 0.000000 -0.022491 0.000000
# 4 0.000000 0.000000 0.000000 0.036723 0.000000 0.006923
# 5 -0.000375 0.004857 -0.022491 0.000000 0.067250 0.000000
# 6 0.000000 0.000000 0.000000 0.006923 0.000000 0.030971
#
#
# Mechanical properties :
#
#
# Convention : Reuss Voigt Hill
#
# Bulk Modulus (GPa) = 40.21662 56.00626 48.11144
# Shear Modulus (GPa) = 21.87274 28.52133 25.19704
#
# Velocity S-wave (km/s) = 3.15136 3.59858 3.38237
# Velocity P-wave (km/s) = 5.61260 6.53416 6.09083
#
# Compressibility (1/GPa) = 0.02486534
#
# Stress axis : x y z
#
# Youngs Moduli (GPa) = 101.88470 72.32306 31.77404
#
# Poissons Ratio (x) = 0.18100 0.06573
# Poissons Ratio (y) = 0.25499 0.33532
# Poissons Ratio (z) = 0.21075 0.76323
#
# Static dielectric constant tensor:
#      x y z
#    x 1.878470 0.000000 -0.010610 
#    y 0.000000 1.807190 0.000000 
#    z -0.010610 0.000000 1.798330 
# 
# From -- ./inp_files/156230.got.cif
#   From: 2010.05.17/outbox.cif.g08.bks.cpg/sg15_79_cif.got.tgz:156230.got - 2010.06.03 18:47:42.
