data_PCOD9289861
_publ_section_title
;
Structure prediction by ZEFSAII (Michael W. Deem and Ramdas Pophale) SiO2 
 PCOD9289861
Probable space group: C 2/C
;
_chemical_formula_sum "Si O2"
_cell_formula_units_Z 56
_cell_length_a 14.602004
_cell_length_b 13.600237
_cell_length_c 12.667962
_cell_angle_alpha 90.000000
_cell_angle_beta 92.073876
_cell_angle_gamma 90.000000
_cell_volume 2514.091817
_symmetry_space_group_name_H-M "C 2/C"
_symmetry_group_IT_number 15
_symmetry_cell_setting 'monoclinic'
loop_
_space_group_symop_operation_xyz
x,y,z
-x,y,1/2-z
-x,-y,-z
x,-y,1/2+z
1/2+x,1/2+y,z
1/2-x,1/2+y,1/2-z
1/2-x,1/2-y,-z
1/2+x,1/2-y,1/2+z
loop_
_atom_site_type_symbol
_atom_site_label
_atom_site_fract_x
_atom_site_fract_y
_atom_site_fract_z
Si Si1 0.595488 0.992422 0.194471
Si Si2 0.103971 0.065257 0.298471
Si Si3 0.964361 0.302680 0.853493
Si Si4 0.870238 0.637409 0.002252
Si Si5 0.712216 0.299193 0.641232
Si Si6 0.720513 0.607674 0.736508
Si Si7 0.336531 0.676290 0.986443
O O1 0.500000 0.968176 0.250000
O O2 0.680221 0.942935 0.256296
O O3 0.602107 0.109814 0.186948
O O4 0.606618 0.949935 0.076741
O O5 0.161267 0.129423 0.217590
O O6 0.126297 0.117411 0.411210
O O7 0.000000 0.063065 0.250000
O O8 0.149098 0.957256 0.299518
O O9 0.918404 0.239715 0.941049
O O10 0.000000 0.248330 0.750000
O O11 0.049946 0.355757 0.910362
O O12 0.775890 0.640142 0.063492
O O13 0.860052 0.734980 0.929632
O O14 0.768133 0.215603 0.710026
O O15 0.690864 0.609866 0.614196
O O16 0.250000 0.750000 0.000000
#
# Coordination Sequence:
#
# PCOD9289861 Si02
#       7
#     8   8   8   8   8   8   8
#     4  10  24  42  69 107 145 189 245 311 370 440
#     4  12  28  49  78 111 149 196 254 311 368 449
#     4  11  24  41  67 104 143 186 244 303 367 443
#     4  10  22  40  69 100 143 189 238 302 378 432
#     4  10  23  45  70 104 143 193 241 306 369 447
#     4  11  26  46  71 106 153 186 250 308 374 440
#     4  12  26  46  77 104 147 200 246 301 378 439
#
# _framework density 22.274443999999999
#
# number of rings (size 3 to 8) (size 9 to 14) (size 15 to 20)
#    0.000    1.143    1.429    3.000    6.000    9.143 
#    0.000    0.000    0.000    0.000    0.000    0.000 
#    0.000    0.000    0.000    0.000    0.000    0.000 
#
# Total GULP energy -156622.069312 kJ/mol
# GULP energy per Si atom -5593.645333 kJ/mol
# Density = 2.222375 g / cm^3
# Si number density = 22.274444 Si / 1000 Ang^3
#
#
#
# Elastic Constant Matrix: (Units=GPa)
#
#
# Indices 1 2 3 4 5 6 
#
# 1 96.3630 46.8520 34.0962 0.0000 -2.1065 0.0000
# 2 46.8520 79.3713 30.2627 0.0000 -13.3146 0.0000
# 3 34.0962 30.2627 119.7225 0.0000 -7.1339 0.0000
# 4 0.0000 0.0000 0.0000 42.1799 0.0000 -7.5054
# 5 -2.1065 -13.3146 -7.1339 0.0000 37.6300 0.0000
# 6 0.0000 0.0000 0.0000 -7.5054 0.0000 20.2996
#
#
#
# Elastic Compliance Matrix: (Units=1/GPa)
#
#
# Indices 1 2 3 4 5 6 
#
# 1 0.015330 -0.008594 -0.002350 0.000000 -0.002628 0.000000
# 2 -0.008594 0.019489 -0.002121 0.000000 0.006013 0.000000
# 3 -0.002350 -0.002121 0.009614 0.000000 0.000941 0.000000
# 4 0.000000 0.000000 0.000000 0.025378 0.000000 0.009383
# 5 -0.002628 0.006013 0.000941 0.000000 0.028733 0.000000
# 6 0.000000 0.000000 0.000000 0.009383 0.000000 0.052731
#
#
# Mechanical properties :
#
#
# Convention : Reuss Voigt Hill
#
# Bulk Modulus (GPa) = 54.63347 57.54207 56.08777
# Shear Modulus (GPa) = 27.24713 32.30495 29.77604
#
# Velocity S-wave (km/s) = 3.50129 3.81243 3.66017
# Velocity P-wave (km/s) = 6.39735 6.72821 6.56486
#
# Compressibility (1/GPa) = 0.01830380
#
# Stress axis : x y z
#
# Youngs Moduli (GPa) = 65.23195 51.31085 104.01458
#
# Poissons Ratio (x) = 0.44096 0.24445
# Poissons Ratio (y) = 0.56060 0.22057
# Poissons Ratio (z) = 0.15331 0.10881
#
# Static dielectric constant tensor:
#      x y z
#    x 1.894180 0.000000 -0.275010 
#    y 0.000000 1.852580 0.000000 
#    z -0.275010 0.000000 3.078960 
# 
# From -- ./inp_files/97022.got.cif
#   From: 2010.05.17/outbox.cif.g08.bks.cpg/sg15_49_cif.got.tgz:97022.got - 2010.06.03 18:47:42.
