data_PCOD9289521
_publ_section_title
;
Structure prediction by ZEFSAII (Michael W. Deem and Ramdas Pophale) SiO2 
 PCOD9289521
Probable space group: C 2/C
;
_chemical_formula_sum "Si O2"
_cell_formula_units_Z 56
_cell_length_a 11.967712
_cell_length_b 20.938969
_cell_length_c 11.488084
_cell_angle_alpha 90.000000
_cell_angle_beta 70.167419
_cell_angle_gamma 90.000000
_cell_volume 2708.068387
_symmetry_space_group_name_H-M "C 2/C"
_symmetry_group_IT_number 15
_symmetry_cell_setting 'monoclinic'
loop_
_space_group_symop_operation_xyz
x,y,z
-x,y,1/2-z
-x,-y,-z
x,-y,1/2+z
1/2+x,1/2+y,z
1/2-x,1/2+y,1/2-z
1/2-x,1/2-y,-z
1/2+x,1/2-y,1/2+z
loop_
_atom_site_type_symbol
_atom_site_label
_atom_site_fract_x
_atom_site_fract_y
_atom_site_fract_z
Si Si1 0.800987 0.907322 0.233564
Si Si2 0.500000 0.492820 0.750000
Si Si3 0.438954 0.282493 0.157678
Si Si4 0.811978 0.070519 0.459750
Si Si5 0.294889 0.167462 0.187641
Si Si6 0.000000 0.590030 0.250000
Si Si7 0.677665 0.936712 0.490792
Si Si8 0.684472 0.311494 0.964235
O O1 0.858377 0.838538 0.238607
O O2 0.681815 0.919928 0.350886
O O3 0.896453 0.961514 0.237078
O O4 0.794525 0.908190 0.097581
O O5 0.555737 0.449196 0.628686
O O6 0.500000 0.251100 0.250000
O O7 0.362131 0.230236 0.118223
O O8 0.546043 0.309428 0.043950
O O9 0.763240 0.123086 0.388036
O O10 0.740126 0.004634 0.476372
O O11 0.394366 0.127819 0.223221
O O12 0.204344 0.190579 0.319056
O O13 0.935816 0.558134 0.384821
O O14 0.757363 0.877916 0.512276
O O15 0.750000 0.250000 0.000000
#
# Coordination Sequence:
#
# PCOD9289521 Si02
#       8
#     8   4   8   8   8   4   8   8
#     4  11  22  40  65  96 127 165 218 279 333 395
#     4  10  22  41  68  94 127 170 224 268 338 390
#     4  12  19  38  64  95 124 168 221 270 326 382
#     4  11  26  40  61  99 138 171 209 275 340 407
#     4  11  24  40  63  98 132 170 221 276 326 393
#     4  10  22  41  68  90 125 172 224 266 316 396
#     4  10  22  40  65  94 130 171 220 271 333 391
#     4  11  20  37  67  97 124 166 230 280 312 386
#
# _framework density 20.678944999999999
#
# number of rings (size 3 to 8) (size 9 to 14) (size 15 to 20)
#    0.000    1.143    4.286    2.143   10.000    1.143 
#    0.000    0.000    0.000    0.000    0.000    0.000 
#    0.000    0.000    0.000    0.000    0.000    0.000 
#
# Total GULP energy -156211.612063 kJ/mol
# GULP energy per Si atom -5578.986145 kJ/mol
# Density = 2.063188 g / cm^3
# Si number density = 20.678945 Si / 1000 Ang^3
#
#
#
# Elastic Constant Matrix: (Units=GPa)
#
#
# Indices 1 2 3 4 5 6 
#
# 1 33.1716 25.1954 43.0532 0.0000 -13.2417 0.0000
# 2 25.1954 97.2503 41.1173 0.0000 -1.8039 0.0000
# 3 43.0532 41.1173 170.4880 0.0000 -20.7690 0.0000
# 4 0.0000 0.0000 0.0000 27.7232 0.0000 2.0787
# 5 -13.2417 -1.8039 -20.7690 0.0000 45.4915 0.0000
# 6 0.0000 0.0000 0.0000 2.0787 0.0000 23.6570
#
#
#
# Elastic Compliance Matrix: (Units=1/GPa)
#
#
# Indices 1 2 3 4 5 6 
#
# 1 0.055295 -0.009783 -0.010262 0.000000 0.011023 0.000000
# 2 -0.009783 0.013212 -0.001058 0.000000 -0.002807 0.000000
# 3 -0.010262 -0.001058 0.008834 0.000000 0.001004 0.000000
# 4 0.000000 0.000000 0.000000 0.036310 0.000000 -0.003191
# 5 0.011023 -0.002807 0.001004 0.000000 0.025538 0.000000
# 6 0.000000 0.000000 0.000000 -0.003191 0.000000 0.042551
#
#
# Mechanical properties :
#
#
# Convention : Reuss Voigt Hill
#
# Bulk Modulus (GPa) = 28.45960 57.73797 43.09878
# Shear Modulus (GPa) = 21.21718 32.14393 26.68056
#
# Velocity S-wave (km/s) = 3.20664 3.94690 3.59587
# Velocity P-wave (km/s) = 5.24429 6.98230 6.17475
#
# Compressibility (1/GPa) = 0.03513753
#
# Stress axis : x y z
#
# Youngs Moduli (GPa) = 18.08478 75.68598 113.19425
#
# Poissons Ratio (x) = 0.74041 1.16154
# Poissons Ratio (y) = 0.17692 0.11976
# Poissons Ratio (z) = 0.18558 0.08008
#
# Static dielectric constant tensor:
#      x y z
#    x 1.742980 0.000000 -0.037250 
#    y 0.000000 1.816950 0.000000 
#    z -0.037250 0.000000 1.823580 
# 
# From -- ./inp_files/88938.got.cif
#   From: 2010.05.17/outbox.cif.g08.bks.cpg/sg15_45_cif.got.tgz:88938.got - 2010.06.03 18:47:42.
