data_PCOD9289748
_publ_section_title
;
Structure prediction by ZEFSAII (Michael W. Deem and Ramdas Pophale) SiO2 
 PCOD9289748
Probable space group: C 2/C
;
_chemical_formula_sum "Si O2"
_cell_formula_units_Z 64
_cell_length_a 26.188869
_cell_length_b 5.100596
_cell_length_c 29.939672
_cell_angle_alpha 90.000000
_cell_angle_beta 137.700479
_cell_angle_gamma 90.000000
_cell_volume 2691.558705
_symmetry_space_group_name_H-M "C 2/C"
_symmetry_group_IT_number 15
_symmetry_cell_setting 'monoclinic'
loop_
_space_group_symop_operation_xyz
x,y,z
-x,y,1/2-z
-x,-y,-z
x,-y,1/2+z
1/2+x,1/2+y,z
1/2-x,1/2+y,1/2-z
1/2-x,1/2-y,-z
1/2+x,1/2-y,1/2+z
loop_
_atom_site_type_symbol
_atom_site_label
_atom_site_fract_x
_atom_site_fract_y
_atom_site_fract_z
Si Si1 0.280747 0.885418 0.115925
Si Si2 0.049934 0.188242 0.365217
Si Si3 0.288378 0.130238 0.287984
Si Si4 0.412172 0.914415 0.535505
Si Si5 0.943790 0.560782 0.244492
Si Si6 0.189943 0.965177 0.476831
Si Si7 0.438120 0.297194 0.338413
Si Si8 0.210963 0.593884 0.613469
O O1 0.236438 0.112545 0.115978
O O2 0.366864 0.981144 0.170805
O O3 0.273515 0.606881 0.135068
O O4 0.242638 0.850255 0.042152
O O5 0.092885 0.388237 0.426266
O O6 0.001794 0.331098 0.296807
O O7 0.124150 0.026128 0.397903
O O8 0.986055 0.051859 0.355070
O O9 0.231013 0.377989 0.255942
O O10 0.360424 0.285035 0.314548
O O11 0.298066 0.977612 0.340835
O O12 0.367283 0.987563 0.462243
O O13 0.366758 0.661930 0.523190
O O14 0.501127 0.857138 0.591482
O O15 0.923899 0.677314 0.280094
O O16 0.000000 0.734055 0.250000
O O17 0.250000 0.750000 0.500000
#
# Coordination Sequence:
#
# PCOD9289748 Si02
#       8
#     8   8   8   8   8   8   8   8
#     4  11  25  43  69 103 139 180 235 293 338 414
#     4  10  22  43  65  92 140 181 230 287 352 408
#     4  12  27  45  73 101 136 183 233 284 361 420
#     4   9  21  41  66  94 135 176 223 286 349 407
#     4  11  26  41  63  97 140 188 230 281 355 418
#     4  10  22  40  67  98 136 186 240 287 345 413
#     4  10  24  44  66  96 139 176 230 293 348 423
#     4  11  23  47  69 101 136 176 232 290 347 414
#
# _framework density 23.778043
#
# number of rings (size 3 to 8) (size 9 to 14) (size 15 to 20)
#    0.000    1.500    1.250    2.250   12.250    3.500 
#    0.000    0.625    0.000    0.000    0.000    0.000 
#    0.000    0.000    0.000    0.000    0.000    0.000 
#
# Total GULP energy -178483.298728 kJ/mol
# GULP energy per Si atom -5577.603085 kJ/mol
# Density = 2.372392 g / cm^3
# Si number density = 23.778043 Si / 1000 Ang^3
#
#
#
# Elastic Constant Matrix: (Units=GPa)
#
#
# Indices 1 2 3 4 5 6 
#
# 1 73.1153 -11.7790 19.8470 0.0268 3.2928 -0.0184
# 2 -11.7790 54.5350 7.6341 0.0445 3.1306 -0.0350
# 3 19.8470 7.6341 137.5508 0.0378 5.7187 -0.0036
# 4 0.0268 0.0445 0.0378 19.2999 -0.0006 1.3581
# 5 3.2928 3.1306 5.7187 -0.0006 34.5711 -0.0131
# 6 -0.0184 -0.0350 -0.0036 1.3581 -0.0131 27.3925
#
#
#
# Elastic Compliance Matrix: (Units=1/GPa)
#
#
# Indices 1 2 3 4 5 6 
#
# 1 0.014948 0.003630 -0.002301 -0.000026 -0.001372 0.000015
# 2 0.003630 0.019441 -0.001526 -0.000049 -0.001854 0.000029
# 3 -0.002301 -0.001526 0.007725 -0.000008 -0.000921 -0.000003
# 4 -0.000026 -0.000049 -0.000008 0.051995 0.000008 -0.002578
# 5 -0.001372 -0.001854 -0.000921 0.000008 0.029377 0.000010
# 6 0.000015 0.000029 -0.000003 -0.002578 0.000010 0.036634
#
#
# Mechanical properties :
#
#
# Convention : Reuss Voigt Hill
#
# Bulk Modulus (GPa) = 23.96955 32.95613 28.46284
# Shear Modulus (GPa) = 28.66620 32.88596 30.77608
#
# Velocity S-wave (km/s) = 3.47591 3.72296 3.60155
# Velocity P-wave (km/s) = 5.11973 5.68951 5.41212
#
# Compressibility (1/GPa) = 0.04171959
#
# Stress axis : x y z
#
# Youngs Moduli (GPa) = 66.89755 51.43808 129.44935
#
# Poissons Ratio (x) = -0.18670 0.29790
# Poissons Ratio (y) = -0.24281 0.19749
# Poissons Ratio (z) = 0.15395 0.07847
#
# Static dielectric constant tensor:
#      x y z
#    x 1.912010 -0.000170 -0.025700 
#    y -0.000170 2.166750 -0.000030 
#    z -0.025700 -0.000030 2.012440 
# 
# From -- ./inp_files/319333.got.cif
#   From: 2010.05.17/outbox.cif.g08.bks.cpg/sg15_160_cif.got.tgz:319333.got - 2010.06.03 18:47:42.
