data_PCOD9289281
_publ_section_title
;
Structure prediction by ZEFSAII (Michael W. Deem and Ramdas Pophale) SiO2 
 PCOD9289281
Probable space group: C 2/C
;
_chemical_formula_sum "Si O2"
_cell_formula_units_Z 36
_cell_length_a 8.231936
_cell_length_b 16.579118
_cell_length_c 11.104452
_cell_angle_alpha 90.000000
_cell_angle_beta 120.769922
_cell_angle_gamma 90.000000
_cell_volume 1302.174701
_symmetry_space_group_name_H-M "C 2/C"
_symmetry_group_IT_number 15
_symmetry_cell_setting 'monoclinic'
loop_
_space_group_symop_operation_xyz
x,y,z
-x,y,1/2-z
-x,-y,-z
x,-y,1/2+z
1/2+x,1/2+y,z
1/2-x,1/2+y,1/2-z
1/2-x,1/2-y,-z
1/2+x,1/2-y,1/2+z
loop_
_atom_site_type_symbol
_atom_site_label
_atom_site_fract_x
_atom_site_fract_y
_atom_site_fract_z
Si Si1 0.050596 0.286243 0.645490
Si Si2 0.775047 0.518064 0.171444
Si Si3 0.500000 0.619185 0.250000
Si Si4 0.033277 0.724000 0.638661
Si Si5 0.472637 0.391992 0.100128
O O1 0.250261 0.249521 0.762821
O O2 0.939845 0.202989 0.576948
O O3 0.000000 0.330602 0.750000
O O4 0.024309 0.322512 0.503328
O O5 0.665721 0.567765 0.243141
O O6 0.658658 0.434373 0.117822
O O7 0.000000 0.507350 0.250000
O O8 0.704376 0.565310 0.026664
O O9 0.565777 0.686819 0.376043
O O10 0.000000 0.677504 0.750000
O O11 0.500000 0.406974 0.250000
#
# Coordination Sequence:
#
# PCOD9289281 Si02
#       5
#     8   8   4   8   8
#     4  11  22  41  63  96 129 176 217 276 333 390
#     4  11  23  43  70  96 131 180 217 268 344 394
#     4  10  22  44  66  96 138 164 228 274 322 408
#     4  10  22  40  63  87 132 174 211 272 330 386
#     4  10  22  43  63  96 142 162 223 286 314 400
#
# _framework density 27.646061
#
# number of rings (size 3 to 8) (size 9 to 14) (size 15 to 20)
#    0.667    0.889    3.333    1.333    0.000    2.667 
#    8.000    0.000    0.000    0.000    0.000    0.000 
#    0.000    0.000    0.000    0.000    0.000    0.000 
#
# Total GULP energy -100342.858725 kJ/mol
# GULP energy per Si atom -5574.603262 kJ/mol
# Density = 2.758314 g / cm^3
# Si number density = 27.646061 Si / 1000 Ang^3
#
#
#
# Elastic Constant Matrix: (Units=GPa)
#
#
# Indices 1 2 3 4 5 6 
#
# 1 143.8205 11.7760 82.7203 0.0000 9.1665 0.0000
# 2 11.7760 116.9313 9.5809 0.0000 5.9073 0.0000
# 3 82.7203 9.5809 221.6337 0.0000 -20.8335 0.0000
# 4 0.0000 0.0000 0.0000 96.5817 0.0000 -9.9075
# 5 9.1665 5.9073 -20.8335 0.0000 67.5363 0.0000
# 6 0.0000 0.0000 0.0000 -9.9075 0.0000 21.7713
#
#
#
# Elastic Compliance Matrix: (Units=1/GPa)
#
#
# Indices 1 2 3 4 5 6 
#
# 1 0.009241 -0.000514 -0.003646 0.000000 -0.002334 0.000000
# 2 -0.000514 0.008663 -0.000255 0.000000 -0.000767 0.000000
# 3 -0.003646 -0.000255 0.006110 0.000000 0.002402 0.000000
# 4 0.000000 0.000000 0.000000 0.010861 0.000000 0.004942
# 5 -0.002334 -0.000767 0.002402 0.000000 0.015932 0.000000
# 6 0.000000 0.000000 0.000000 0.004942 0.000000 0.048181
#
#
# Mechanical properties :
#
#
# Convention : Reuss Voigt Hill
#
# Bulk Modulus (GPa) = 65.85781 76.72664 71.29222
# Shear Modulus (GPa) = 44.29506 62.39841 53.34673
#
# Velocity S-wave (km/s) = 4.00712 4.75599 4.39752
# Velocity P-wave (km/s) = 6.72925 7.61398 7.18525
#
# Compressibility (1/GPa) = 0.01518423
#
# Stress axis : x y z
#
# Youngs Moduli (GPa) = 108.21149 115.42822 163.67607
#
# Poissons Ratio (x) = 0.05933 0.59681
# Poissons Ratio (y) = 0.05562 0.04169
# Poissons Ratio (z) = 0.39457 0.02940
#
# Static dielectric constant tensor:
#      x y z
#    x 2.617570 0.000000 -0.153190 
#    y 0.000000 2.216350 0.000000 
#    z -0.153190 0.000000 2.158120 
# 
# From -- ./inp_files/79611.got.cif
#   From: 2010.05.17/outbox.cif.g08.bks.cpg/sg15_40_cif.got.tgz:79611.got - 2010.06.03 18:47:42.
