data_PCOD9289891
_publ_section_title
;
Structure prediction by ZEFSAII (Michael W. Deem and Ramdas Pophale) SiO2 
 PCOD9289891
Probable space group: C 2/C
;
_chemical_formula_sum "Si O2"
_cell_formula_units_Z 52
_cell_length_a 14.696144
_cell_length_b 11.598395
_cell_length_c 13.836873
_cell_angle_alpha 90.000000
_cell_angle_beta 64.204395
_cell_angle_gamma 90.000000
_cell_volume 2123.497024
_symmetry_space_group_name_H-M "C 2/C"
_symmetry_group_IT_number 15
_symmetry_cell_setting 'monoclinic'
loop_
_space_group_symop_operation_xyz
x,y,z
-x,y,1/2-z
-x,-y,-z
x,-y,1/2+z
1/2+x,1/2+y,z
1/2-x,1/2+y,1/2-z
1/2-x,1/2-y,-z
1/2+x,1/2-y,1/2+z
loop_
_atom_site_type_symbol
_atom_site_label
_atom_site_fract_x
_atom_site_fract_y
_atom_site_fract_z
Si Si1 0.593739 0.525055 0.350160
Si Si2 0.878575 0.082083 0.954934
Si Si3 0.676788 0.725743 0.825942
Si Si4 0.000000 0.471014 0.250000
Si Si5 0.255436 0.428339 0.884327
Si Si6 0.457917 0.178937 0.398314
Si Si7 0.369440 0.128550 0.644934
O O1 0.612750 0.601821 0.434830
O O2 0.477608 0.494544 0.387051
O O3 0.643244 0.404217 0.360568
O O4 0.646401 0.570091 0.230273
O O5 0.891257 0.208168 0.901066
O O6 0.785035 0.006485 0.961871
O O7 0.712569 0.799542 0.902244
O O8 0.575253 0.784500 0.831503
O O9 0.772416 0.709229 0.710901
O O10 0.058989 0.561241 0.152549
O O11 0.067926 0.390864 0.286559
O O12 0.175366 0.503610 0.861603
O O13 0.436914 0.158965 0.521282
#
# Coordination Sequence:
#
# PCOD9289891 Si02
#       7
#     8   8   8   4   8   8   8
#     4   9  21  41  60  96 141 176 231 290 351 417
#     4  10  22  40  69  97 134 186 232 290 352 406
#     4  10  23  45  68  98 145 183 236 290 348 418
#     4  12  26  46  74 104 144 188 232 292 360 428
#     4  11  22  39  66 100 135 177 239 294 338 418
#     4  11  25  48  75 101 141 188 235 291 358 422
#     4  11  26  47  69 105 145 184 238 294 355 426
#
# _framework density 24.487908000000001
#
# number of rings (size 3 to 8) (size 9 to 14) (size 15 to 20)
#    0.000    1.538    1.538    1.846    6.462    3.692 
#   11.077    0.000    0.000    0.000    0.000    0.000 
#    0.000    0.000    0.000    0.000    0.000    0.000 
#
# Total GULP energy -145315.256995 kJ/mol
# GULP energy per Si atom -5589.048346 kJ/mol
# Density = 2.443217 g / cm^3
# Si number density = 24.487908 Si / 1000 Ang^3
#
#
#
# Elastic Constant Matrix: (Units=GPa)
#
#
# Indices 1 2 3 4 5 6 
#
# 1 89.0390 18.4514 42.8368 0.0000 6.1976 0.0000
# 2 18.4514 64.0327 7.9244 0.0000 -12.7339 0.0000
# 3 42.8368 7.9244 103.6833 0.0000 -2.3384 0.0000
# 4 0.0000 0.0000 0.0000 27.4359 0.0000 11.9945
# 5 6.1976 -12.7339 -2.3384 0.0000 29.5390 0.0000
# 6 0.0000 0.0000 0.0000 11.9945 0.0000 7.9661
#
#
#
# Elastic Compliance Matrix: (Units=1/GPa)
#
#
# Indices 1 2 3 4 5 6 
#
# 1 0.015654 -0.004913 -0.006225 0.000000 -0.005895 0.000000
# 2 -0.004913 0.018759 0.000803 0.000000 0.009181 0.000000
# 3 -0.006225 0.000803 0.012214 0.000000 0.002619 0.000000
# 4 0.000000 0.000000 0.000000 0.106656 0.000000 -0.160590
# 5 -0.005895 0.009181 0.002619 0.000000 0.039256 0.000000
# 6 0.000000 0.000000 0.000000 -0.160590 0.000000 0.367331
#
#
# Mechanical properties :
#
#
# Convention : Reuss Voigt Hill
#
# Bulk Modulus (GPa) = 38.52359 43.90890 41.21625
# Shear Modulus (GPa) = 8.48619 25.49104 16.98861
#
# Velocity S-wave (km/s) = 1.86359 3.22990 2.63678
# Velocity P-wave (km/s) = 4.51625 5.64619 5.11253
#
# Compressibility (1/GPa) = 0.02595812
#
# Stress axis : x y z
#
# Youngs Moduli (GPa) = 63.88006 53.30745 81.87103
#
# Poissons Ratio (x) = 0.26189 0.50965
# Poissons Ratio (y) = 0.31383 -0.06575
# Poissons Ratio (z) = 0.39766 -0.04281
#
# Static dielectric constant tensor:
#      x y z
#    x 1.959820 0.000000 -0.002720 
#    y 0.000000 1.978070 0.000000 
#    z -0.002720 0.000000 1.957180 
# 
# From -- ./inp_files/152555.got.cif
#   From: 2010.05.17/outbox.cif.g08.bks.cpg/sg15_77_cif.got.tgz:152555.got - 2010.06.03 18:47:42.
