data_PCOD9289080
_publ_section_title
;
Structure prediction by ZEFSAII (Michael W. Deem and Ramdas Pophale) SiO2 
 PCOD9289080
Probable space group: C 2/C
;
_chemical_formula_sum "Si O2"
_cell_formula_units_Z 40
_cell_length_a 20.091587
_cell_length_b 4.977464
_cell_length_c 23.910979
_cell_angle_alpha 90.000000
_cell_angle_beta 48.213850
_cell_angle_gamma 90.000000
_cell_volume 1782.983135
_symmetry_space_group_name_H-M "C 2/C"
_symmetry_group_IT_number 15
_symmetry_cell_setting 'monoclinic'
loop_
_space_group_symop_operation_xyz
x,y,z
-x,y,1/2-z
-x,-y,-z
x,-y,1/2+z
1/2+x,1/2+y,z
1/2-x,1/2+y,1/2-z
1/2-x,1/2-y,-z
1/2+x,1/2-y,1/2+z
loop_
_atom_site_type_symbol
_atom_site_label
_atom_site_fract_x
_atom_site_fract_y
_atom_site_fract_z
Si Si1 0.701505 0.821019 0.132338
Si Si2 0.092659 0.170221 0.667228
Si Si3 0.565662 0.751664 0.462341
Si Si4 0.330635 0.602855 0.987719
Si Si5 0.774680 0.897160 0.702387
O O1 0.624604 0.021594 0.152736
O O2 0.730757 0.949941 0.174281
O O3 0.665493 0.521844 0.155840
O O4 0.783838 0.846845 0.042936
O O5 0.000000 0.137583 0.750000
O O6 0.095376 0.069470 0.601505
O O7 0.500000 0.500000 0.500000
O O8 0.626805 0.754756 0.483622
O O9 0.631648 0.720559 0.372591
O O10 0.500000 0.000000 0.500000
O O11 0.250000 0.750000 0.000000
O O12 0.720175 0.640343 0.755792
#
# Coordination Sequence:
#
# PCOD9289080 Si02
#       5
#     8   8   8   8   8
#     4  10  22  40  60  86 122 165 210 253 313 388
#     4  11  22  37  61  93 121 155 207 271 318 363
#     4  11  25  43  66  98 134 171 219 277 331 383
#     4   9  22  43  66  89 125 173 213 251 316 397
#     4  11  23  41  64  90 126 174 217 262 325 399
#
# _framework density 22.43431
#
# number of rings (size 3 to 8) (size 9 to 14) (size 15 to 20)
#    0.000    1.600    0.000    3.600    0.000   16.000 
#    0.000    0.000    0.000    0.000    0.000    0.000 
#    0.000    0.000    0.000    0.000    0.000    0.000 
#
# Total GULP energy -111799.987471 kJ/mol
# GULP energy per Si atom -5589.999374 kJ/mol
# Density = 2.238325 g / cm^3
# Si number density = 22.434310 Si / 1000 Ang^3
#
#
#
# Elastic Constant Matrix: (Units=GPa)
#
#
# Indices 1 2 3 4 5 6 
#
# 1 78.0726 26.1653 23.7939 -0.0507 7.9944 -0.0312
# 2 26.1653 123.3530 27.7512 0.0406 0.7636 -0.0203
# 3 23.7939 27.7512 175.8169 0.0169 9.0678 0.0147
# 4 -0.0507 0.0406 0.0169 21.1335 -0.0021 -8.9743
# 5 7.9944 0.7636 9.0678 -0.0021 32.3812 -0.0207
# 6 -0.0312 -0.0203 0.0147 -8.9743 -0.0207 33.6887
#
#
#
# Elastic Compliance Matrix: (Units=1/GPa)
#
#
# Indices 1 2 3 4 5 6 
#
# 1 0.014463 -0.002742 -0.001363 0.000051 -0.003124 0.000024
# 2 -0.002742 0.008926 -0.001077 -0.000024 0.000768 -0.000003
# 3 -0.001363 -0.001077 0.006112 -0.000010 -0.001350 -0.000008
# 4 0.000051 -0.000024 -0.000010 0.053354 0.000003 0.014213
# 5 -0.003124 0.000768 -0.001350 0.000003 0.032013 0.000019
# 6 0.000024 -0.000003 -0.000008 0.014213 0.000019 0.033470
#
#
# Mechanical properties :
#
#
# Convention : Reuss Voigt Hill
#
# Bulk Modulus (GPa) = 52.25868 59.18484 55.72176
# Shear Modulus (GPa) = 30.28799 37.40948 33.84873
#
# Velocity S-wave (km/s) = 3.67832 4.08795 3.88853
# Velocity P-wave (km/s) = 6.43310 6.98000 6.71212
#
# Compressibility (1/GPa) = 0.01913558
#
# Stress axis : x y z
#
# Youngs Moduli (GPa) = 69.14218 112.03169 163.61464
#
# Poissons Ratio (x) = 0.30717 0.22308
# Poissons Ratio (y) = 0.18957 0.17629
# Poissons Ratio (z) = 0.09427 0.12071
#
# Static dielectric constant tensor:
#      x y z
#    x 1.842990 -0.000070 0.031370 
#    y -0.000070 1.798410 0.000050 
#    z 0.031370 0.000050 1.860820 
# 
# From -- ./inp_files/278794.got.cif
#   From: 2010.05.17/outbox.cif.g08.bks.cpg/sg15_140_cif.got.tgz:278794.got - 2010.06.03 18:47:42.
