data_PCOD9289910
_publ_section_title
;
Structure prediction by ZEFSAII (Michael W. Deem and Ramdas Pophale) SiO2 
 PCOD9289910
Probable space group: C 2/C
;
_chemical_formula_sum "Si O2"
_cell_formula_units_Z 40
_cell_length_a 26.318094
_cell_length_b 12.398028
_cell_length_c 13.929432
_cell_angle_alpha 90.000000
_cell_angle_beta 25.303541
_cell_angle_gamma 90.000000
_cell_volume 1942.624806
_symmetry_space_group_name_H-M "C 2/C"
_symmetry_group_IT_number 15
_symmetry_cell_setting 'monoclinic'
loop_
_space_group_symop_operation_xyz
x,y,z
-x,y,1/2-z
-x,-y,-z
x,-y,1/2+z
1/2+x,1/2+y,z
1/2-x,1/2+y,1/2-z
1/2-x,1/2-y,-z
1/2+x,1/2-y,1/2+z
loop_
_atom_site_type_symbol
_atom_site_label
_atom_site_fract_x
_atom_site_fract_y
_atom_site_fract_z
Si Si1 0.271849 0.769486 0.074276
Si Si2 0.691451 0.650415 0.153136
Si Si3 0.460153 0.636589 0.420717
Si Si4 0.836804 0.910745 0.594687
Si Si5 0.367166 0.999104 0.953528
O O1 0.147546 0.798166 0.343570
O O2 0.337859 0.663881 0.001574
O O3 0.250000 0.750000 0.000000
O O4 0.352504 0.873724 0.956373
O O5 0.574361 0.623395 0.293358
O O6 0.651923 0.666558 0.331210
O O7 0.750000 0.750000 0.000000
O O8 0.793979 0.560113 0.993676
O O9 0.500000 0.686170 0.250000
O O10 0.417503 0.514881 0.471082
O O11 0.707022 0.964916 0.826331
O O12 0.500000 0.030487 0.750000
#
# Coordination Sequence:
#
# PCOD9289910 Si02
#       5
#     8   8   8   8   8
#     4  11  25  44  68 104 140 184 228 289 361 411
#     4  10  22  40  70 102 131 180 238 288 352 411
#     4  11  24  42  73 100 136 180 241 285 342 430
#     4   9  23  40  65  96 138 177 233 285 348 409
#     4   9  23  44  64  98 139 173 237 281 346 422
#
# _framework density 20.590698
#
# number of rings (size 3 to 8) (size 9 to 14) (size 15 to 20)
#    1.200    0.800    0.000    1.800    5.600    2.400 
#    0.000    1.000    0.000    0.000    0.000    0.000 
#    0.000    0.000    0.000    0.000    0.000    0.000 
#
# Total GULP energy -111447.135940 kJ/mol
# GULP energy per Si atom -5572.356797 kJ/mol
# Density = 2.054383 g / cm^3
# Si number density = 20.590698 Si / 1000 Ang^3
#
#
#
# Elastic Constant Matrix: (Units=GPa)
#
#
# Indices 1 2 3 4 5 6 
#
# 1 118.0850 16.2507 37.2280 0.0000 -7.2819 0.0000
# 2 16.2507 87.5377 9.5579 0.0000 -3.9007 0.0000
# 3 37.2280 9.5579 81.6532 0.0000 -15.4951 0.0000
# 4 0.0000 0.0000 0.0000 11.8662 0.0000 13.5304
# 5 -7.2819 -3.9007 -15.4951 0.0000 53.6272 0.0000
# 6 0.0000 0.0000 0.0000 13.5304 0.0000 43.4940
#
#
#
# Elastic Compliance Matrix: (Units=1/GPa)
#
#
# Indices 1 2 3 4 5 6 
#
# 1 0.010053 -0.001384 -0.004424 0.000000 -0.000014 0.000000
# 2 -0.001384 0.011774 -0.000656 0.000000 0.000479 0.000000
# 3 -0.004424 -0.000656 0.015043 0.000000 0.003698 0.000000
# 4 0.000000 0.000000 0.000000 0.130598 0.000000 -0.040627
# 5 -0.000014 0.000479 0.003698 0.000000 0.019749 0.000000
# 6 0.000000 0.000000 0.000000 -0.040627 0.000000 0.035630
#
#
# Mechanical properties :
#
#
# Convention : Reuss Voigt Hill
#
# Bulk Modulus (GPa) = 41.77021 45.92767 43.84894
# Shear Modulus (GPa) = 20.51245 36.74675 28.62960
#
# Velocity S-wave (km/s) = 3.15969 4.22907 3.73287
# Velocity P-wave (km/s) = 5.80013 6.79707 6.31829
#
# Compressibility (1/GPa) = 0.02394050
#
# Stress axis : x y z
#
# Youngs Moduli (GPa) = 99.47489 84.93616 66.47824
#
# Poissons Ratio (x) = 0.11753 0.29410
# Poissons Ratio (y) = 0.13765 0.04363
# Poissons Ratio (z) = 0.44008 0.05575
#
# Static dielectric constant tensor:
#      x y z
#    x 1.705990 0.000000 0.007970 
#    y 0.000000 1.747470 0.000000 
#    z 0.007970 0.000000 1.825250 
# 
# From -- ./inp_files/177300.got.cif
#   From: 2010.05.17/outbox.cif.g08.bks.cpg/sg15_89_cif.got.tgz:177300.got - 2010.06.03 18:47:42.
