data_PCOD9289101
_publ_section_title
;
Structure prediction by ZEFSAII (Michael W. Deem and Ramdas Pophale) SiO2 
 PCOD9289101
Probable space group: C 2/C
;
_chemical_formula_sum "Si O2"
_cell_formula_units_Z 40
_cell_length_a 30.324164
_cell_length_b 5.436869
_cell_length_c 10.183242
_cell_angle_alpha 90.000000
_cell_angle_beta 84.377833
_cell_angle_gamma 90.000000
_cell_volume 1670.819699
_symmetry_space_group_name_H-M "C 2/C"
_symmetry_group_IT_number 15
_symmetry_cell_setting 'monoclinic'
loop_
_space_group_symop_operation_xyz
x,y,z
-x,y,1/2-z
-x,-y,-z
x,-y,1/2+z
1/2+x,1/2+y,z
1/2-x,1/2+y,1/2-z
1/2-x,1/2-y,-z
1/2+x,1/2-y,1/2+z
loop_
_atom_site_type_symbol
_atom_site_label
_atom_site_fract_x
_atom_site_fract_y
_atom_site_fract_z
Si Si1 0.041369 0.087909 0.335099
Si Si2 0.881649 0.329680 0.325367
Si Si3 0.926116 0.413675 0.584358
Si Si4 0.782383 0.684184 0.108859
Si Si5 0.300515 0.316259 0.691009
O O1 0.085417 0.113982 0.232496
O O2 0.000000 0.097322 0.250000
O O3 0.044934 0.335100 0.422164
O O4 0.045353 0.833376 0.410813
O O5 0.895391 0.397733 0.466654
O O6 0.832255 0.250662 0.303275
O O7 0.895962 0.548385 0.222606
O O8 0.750167 0.658107 0.245965
O O9 0.803124 0.413695 0.091106
O O10 0.812855 0.921373 0.125387
O O11 0.750000 0.750000 0.000000
#
# Coordination Sequence:
#
# PCOD9289101 Si02
#       5
#     8   8   8   8   8
#     4  10  24  42  65  97 127 169 216 267 324 381
#     4  10  26  42  67  95 131 169 217 262 326 381
#     4  10  25  42  65  95 128 170 213 267 319 383
#     4  10  22  40  60  89 121 161 202 255 307 367
#     4  10  23  38  61  90 120 160 207 250 313 368
#
# _framework density 23.940344
#
# number of rings (size 3 to 8) (size 9 to 14) (size 15 to 20)
#    1.200    0.800    0.000    1.200    8.400    1.600 
#    0.000    0.000    0.000    0.000    0.000    0.000 
#    0.000    0.000    0.000    0.000    0.000    0.000 
#
# Total GULP energy -111692.728430 kJ/mol
# GULP energy per Si atom -5584.636421 kJ/mol
# Density = 2.388585 g / cm^3
# Si number density = 23.940344 Si / 1000 Ang^3
#
#
#
# Elastic Constant Matrix: (Units=GPa)
#
#
# Indices 1 2 3 4 5 6 
#
# 1 88.4943 38.3689 19.5275 0.0000 21.5845 0.0000
# 2 38.3689 182.5306 47.8146 0.0000 12.9120 0.0000
# 3 19.5275 47.8146 109.7737 0.0000 36.2078 0.0000
# 4 0.0000 0.0000 0.0000 19.8618 0.0000 7.2117
# 5 21.5845 12.9120 36.2078 0.0000 43.5210 0.0000
# 6 0.0000 0.0000 0.0000 7.2117 0.0000 21.6653
#
#
#
# Elastic Compliance Matrix: (Units=1/GPa)
#
#
# Indices 1 2 3 4 5 6 
#
# 1 0.013944 -0.002698 0.000981 0.000000 -0.006931 0.000000
# 2 -0.002698 0.006716 -0.003073 0.000000 0.001902 0.000000
# 3 0.000981 -0.003073 0.013966 0.000000 -0.011194 0.000000
# 4 0.000000 0.000000 0.000000 0.057270 0.000000 -0.019063
# 5 -0.006931 0.001902 -0.011194 0.000000 0.035164 0.000000
# 6 0.000000 0.000000 0.000000 -0.019063 0.000000 0.052502
#
#
# Mechanical properties :
#
#
# Convention : Reuss Voigt Hill
#
# Bulk Modulus (GPa) = 39.92591 65.80227 52.86409
# Shear Modulus (GPa) = 25.31785 35.34878 30.33331
#
# Velocity S-wave (km/s) = 3.25551 3.84674 3.56341
# Velocity P-wave (km/s) = 5.55379 6.87572 6.24980
#
# Compressibility (1/GPa) = 0.02504639
#
# Stress axis : x y z
#
# Youngs Moduli (GPa) = 71.71550 148.89854 71.60396
#
# Poissons Ratio (x) = 0.40168 -0.07023
# Poissons Ratio (y) = 0.19347 0.22002
# Poissons Ratio (z) = -0.07034 0.45752
#
# Static dielectric constant tensor:
#      x y z
#    x 1.928280 0.000000 -0.075190 
#    y 0.000000 1.947270 0.000000 
#    z -0.075190 0.000000 1.873730 
# 
# From -- ./inp_files/120886.got.cif
#   From: 2010.05.17/outbox.cif.g08.bks.cpg/sg15_61_cif.got.tgz:120886.got - 2010.06.03 18:47:42.
