data_PCOD9289038
_publ_section_title
;
Structure prediction by ZEFSAII (Michael W. Deem and Ramdas Pophale) SiO2 
 PCOD9289038
Probable space group: C 2/C
;
_chemical_formula_sum "Si O2"
_cell_formula_units_Z 60
_cell_length_a 9.363928
_cell_length_b 29.869369
_cell_length_c 10.787031
_cell_angle_alpha 90.000000
_cell_angle_beta 90.957646
_cell_angle_gamma 90.000000
_cell_volume 3016.653129
_symmetry_space_group_name_H-M "C 2/C"
_symmetry_group_IT_number 15
_symmetry_cell_setting 'monoclinic'
loop_
_space_group_symop_operation_xyz
x,y,z
-x,y,1/2-z
-x,-y,-z
x,-y,1/2+z
1/2+x,1/2+y,z
1/2-x,1/2+y,1/2-z
1/2-x,1/2-y,-z
1/2+x,1/2-y,1/2+z
loop_
_atom_site_type_symbol
_atom_site_label
_atom_site_fract_x
_atom_site_fract_y
_atom_site_fract_z
Si Si1 0.465470 0.811651 0.390407
Si Si2 0.155430 0.961983 0.396193
Si Si3 0.491518 0.718900 0.489895
Si Si4 0.791900 0.865586 0.001454
Si Si5 0.000000 0.731191 0.250000
Si Si6 0.713784 0.178092 0.094743
Si Si7 0.166991 0.898562 0.756625
Si Si8 0.662895 0.501544 0.157015
O O1 0.500000 0.820225 0.250000
O O2 0.427030 0.759144 0.407353
O O3 0.339368 0.843447 0.431638
O O4 0.600037 0.820017 0.482248
O O5 0.149616 0.909811 0.430237
O O6 0.228526 0.968927 0.262710
O O7 0.994893 0.981615 0.375776
O O8 0.220145 0.986786 0.519622
O O9 0.407892 0.672873 0.486480
O O10 0.482779 0.738003 0.629201
O O11 0.650110 0.707649 0.443411
O O12 0.752081 0.881058 0.863302
O O13 0.133993 0.700153 0.212400
O O14 0.763914 0.127636 0.127841
O O15 0.000000 0.884947 0.750000
O O16 0.163975 0.951857 0.735565
#
# Coordination Sequence:
#
# PCOD9289038 Si02
#       8
#     8   8   8   8   4   8   8   8
#     4  11  26  45  60  87 134 176 214 265 330 379
#     4   9  18  35  57  92 133 157 204 259 334 379
#     4  11  24  39  65  90 121 167 225 271 315 367
#     4  11  24  38  63  97 125 173 209 264 325 385
#     4  10  22  40  58  84 130 166 216 260 328 376
#     4  11  24  42  63  92 123 172 220 266 317 390
#     4  11  19  37  64  98 127 154 216 264 318 377
#     4   9  18  34  58  93 131 158 196 270 328 369
#
# _framework density 19.889592
#
# number of rings (size 3 to 8) (size 9 to 14) (size 15 to 20)
#    0.000    1.600    2.667    3.600    5.600    1.067 
#    2.400    0.000    0.000    0.800    1.733    0.000 
#    0.000    0.000    0.000    0.000    0.000    0.000 
#
# Total GULP energy -167206.931771 kJ/mol
# GULP energy per Si atom -5573.564392 kJ/mol
# Density = 1.984432 g / cm^3
# Si number density = 19.889592 Si / 1000 Ang^3
#
#
#
# Elastic Constant Matrix: (Units=GPa)
#
#
# Indices 1 2 3 4 5 6 
#
# 1 39.8711 33.2546 26.3583 0.0000 -14.9764 0.0000
# 2 33.2546 116.3850 36.9668 0.0000 12.0364 0.0000
# 3 26.3583 36.9668 101.6984 0.0000 -10.5663 0.0000
# 4 0.0000 0.0000 0.0000 15.2133 0.0000 11.6644
# 5 -14.9764 12.0364 -10.5663 0.0000 25.7456 0.0000
# 6 0.0000 0.0000 0.0000 11.6644 0.0000 0.4990
#
#
#
# Elastic Compliance Matrix: (Units=1/GPa)
#
#
# Indices 1 2 3 4 5 6 
#
# 1 0.061640 -0.020979 -0.003766 0.000000 0.044118 0.000000
# 2 -0.020979 0.017925 -0.003360 0.000000 -0.021963 0.000000
# 3 -0.003766 -0.003360 0.012499 0.000000 0.004510 0.000000
# 4 0.000000 0.000000 0.000000 -0.003884 0.000000 0.090797
# 5 0.044118 -0.021963 0.004510 0.000000 0.076625 0.000000
# 6 0.000000 0.000000 0.000000 0.090797 0.000000 -0.118423
#
#
# Mechanical properties :
#
#
# Convention : Reuss Voigt Hill
#
# Bulk Modulus (GPa) = 27.89138 50.12376 39.00757
# Shear Modulus (GPa) = 43.65147 19.04989 31.35068
#
# Velocity S-wave (km/s) = 4.68983 3.09816 3.97449
# Velocity P-wave (km/s) = 6.58632 6.16878 6.38097
#
# Compressibility (1/GPa) = 0.03585337
#
# Stress axis : x y z
#
# Youngs Moduli (GPa) = 16.22327 55.78773 80.00518
#
# Poissons Ratio (x) = 1.17035 0.30133
# Poissons Ratio (y) = 0.34034 0.26884
# Poissons Ratio (z) = 0.06110 0.18746
#
# Static dielectric constant tensor:
#      x y z
#    x 1.697100 0.000000 -0.007780 
#    y 0.000000 1.746710 0.000000 
#    z -0.007780 0.000000 1.744640 
# 
# From -- ./inp_files/81355.got.cif
#   From: 2010.05.17/outbox.cif.g08.bks.cpg/sg15_41_cif.got.tgz:81355.got - 2010.06.03 18:47:42.
