data_PCOD9289685
_publ_section_title
;
Structure prediction by ZEFSAII (Michael W. Deem and Ramdas Pophale) SiO2 
 PCOD9289685
Probable space group: C 2/C
;
_chemical_formula_sum "Si O2"
_cell_formula_units_Z 48
_cell_length_a 18.614283
_cell_length_b 5.614026
_cell_length_c 24.844858
_cell_angle_alpha 90.000000
_cell_angle_beta 132.433201
_cell_angle_gamma 90.000000
_cell_volume 1916.247302
_symmetry_space_group_name_H-M "C 2/C"
_symmetry_group_IT_number 15
_symmetry_cell_setting 'monoclinic'
loop_
_space_group_symop_operation_xyz
x,y,z
-x,y,1/2-z
-x,-y,-z
x,-y,1/2+z
1/2+x,1/2+y,z
1/2-x,1/2+y,1/2-z
1/2-x,1/2-y,-z
1/2+x,1/2-y,1/2+z
loop_
_atom_site_type_symbol
_atom_site_label
_atom_site_fract_x
_atom_site_fract_y
_atom_site_fract_z
Si Si1 0.500000 0.000000 0.500000
Si Si2 0.500000 0.231011 0.250000
Si Si3 0.864276 0.275315 0.517611
Si Si4 0.150030 0.547188 0.881086
Si Si5 0.278898 0.068019 0.393891
Si Si6 0.798682 0.104301 0.258709
Si Si7 0.486473 0.429226 0.639606
O O1 0.544362 0.087838 0.463949
O O2 0.389484 0.106227 0.430388
O O3 0.501850 0.378199 0.306588
O O4 0.399102 0.085928 0.194177
O O5 0.828864 0.402525 0.553717
O O6 0.786363 0.319204 0.430666
O O7 0.908359 0.024514 0.557079
O O8 0.236676 0.725574 0.910130
O O9 0.057639 0.703805 0.853724
O O10 0.206662 0.062049 0.307820
O O11 0.750931 0.363645 0.243854
O O12 0.909674 0.115433 0.334538
#
# Coordination Sequence:
#
# PCOD9289685 Si02
#       7
#     4   4   8   8   8   8   8
#     4   8  20  40  66  90 144 182 240 298 376 440
#     4  10  22  40  66  98 142 182 238 320 360 442
#     4   9  22  43  67  97 144 183 248 307 374 442
#     4  11  22  40  71 101 140 193 251 309 376 444
#     4  10  22  44  68 105 142 195 246 304 381 440
#     4  12  29  47  74 109 150 199 248 306 378 457
#     4  11  24  42  68 101 138 190 246 308 370 441
#
# _framework density 25.048959
#
# number of rings (size 3 to 8) (size 9 to 14) (size 15 to 20)
#    1.000    0.667    0.000    4.000    9.333    0.667 
#    3.000    1.667    0.000    0.000    0.000    0.000 
#    0.000    0.000    0.000    0.000    0.000    0.000 
#
# Total GULP energy -133649.807264 kJ/mol
# GULP energy per Si atom -5568.741969 kJ/mol
# Density = 2.499195 g / cm^3
# Si number density = 25.048959 Si / 1000 Ang^3
#
#
#
# Elastic Constant Matrix: (Units=GPa)
#
#
# Indices 1 2 3 4 5 6 
#
# 1 100.4664 16.7752 6.4993 0.0001 10.5671 -0.0007
# 2 16.7752 64.2888 25.1375 -0.0003 12.8850 -0.0013
# 3 6.4993 25.1375 109.1406 0.0000 16.4848 -0.0002
# 4 0.0001 -0.0003 0.0000 32.3532 0.0000 7.2114
# 5 10.5671 12.8850 16.4848 0.0000 46.2432 -0.0001
# 6 -0.0007 -0.0013 -0.0002 7.2114 -0.0001 10.8246
#
#
#
# Elastic Compliance Matrix: (Units=1/GPa)
#
#
# Indices 1 2 3 4 5 6 
#
# 1 0.010542 -0.002474 0.000213 0.000000 -0.001796 0.000000
# 2 -0.002474 0.018245 -0.003564 0.000000 -0.003248 0.000002
# 3 0.000213 -0.003564 0.010387 0.000000 -0.002758 0.000000
# 4 0.000000 0.000000 0.000000 0.036299 0.000000 -0.024183
# 5 -0.001796 -0.003248 -0.002758 0.000000 0.023923 0.000000
# 6 0.000000 0.000002 0.000000 -0.024183 0.000000 0.108493
#
#
# Mechanical properties :
#
#
# Convention : Reuss Voigt Hill
#
# Bulk Modulus (GPa) = 36.33248 41.19111 38.76179
# Shear Modulus (GPa) = 21.86131 32.91645 27.38888
#
# Velocity S-wave (km/s) = 2.95743 3.62896 3.31027
# Velocity P-wave (km/s) = 5.11839 5.83430 5.48803
#
# Compressibility (1/GPa) = 0.02752358
#
# Stress axis : x y z
#
# Youngs Moduli (GPa) = 94.86076 54.80944 96.27060
#
# Poissons Ratio (x) = 0.13561 -0.02054
# Poissons Ratio (y) = 0.23471 0.34314
# Poissons Ratio (z) = -0.02024 0.19536
#
# Static dielectric constant tensor:
#      x y z
#    x 1.935100 0.000000 -0.003450 
#    y 0.000000 2.075120 0.000000 
#    z -0.003450 0.000000 1.919520 
# 
# From -- ./inp_files/300002.got.cif
#   From: 2010.05.17/outbox.cif.g08.bks.cpg/sg15_151_cif.got.tgz:300002.got - 2010.06.03 18:47:42.
