data_PCOD9289191
_publ_section_title
;
Structure prediction by ZEFSAII (Michael W. Deem and Ramdas Pophale) SiO2 
 PCOD9289191
Probable space group: C 2/C
;
_chemical_formula_sum "Si O2"
_cell_formula_units_Z 56
_cell_length_a 12.505506
_cell_length_b 9.852751
_cell_length_c 29.963766
_cell_angle_alpha 90.000000
_cell_angle_beta 51.242087
_cell_angle_gamma 90.000000
_cell_volume 2878.971112
_symmetry_space_group_name_H-M "C 2/C"
_symmetry_group_IT_number 15
_symmetry_cell_setting 'monoclinic'
loop_
_space_group_symop_operation_xyz
x,y,z
-x,y,1/2-z
-x,-y,-z
x,-y,1/2+z
1/2+x,1/2+y,z
1/2-x,1/2+y,1/2-z
1/2-x,1/2-y,-z
1/2+x,1/2-y,1/2+z
loop_
_atom_site_type_symbol
_atom_site_label
_atom_site_fract_x
_atom_site_fract_y
_atom_site_fract_z
Si Si1 0.534539 0.319758 0.451906
Si Si2 0.824794 0.910104 0.571720
Si Si3 0.578683 0.125000 0.364212
Si Si4 0.425801 0.786889 0.814970
Si Si5 0.210046 0.839896 0.571720
Si Si6 0.620712 0.463111 0.685030
Si Si7 0.859744 0.569759 0.951906
O O1 0.410038 0.305562 0.519099
O O2 0.568384 0.478975 0.437673
O O3 0.521310 0.251710 0.407701
O O4 0.664518 0.242990 0.439006
O O5 0.722559 0.850909 0.634944
O O6 0.731536 0.992990 0.560994
O O7 0.525703 0.159631 0.328568
O O8 0.738593 0.090369 0.328568
O O9 0.505588 0.998290 0.407701
O O10 0.500000 0.829957 0.750000
O O11 0.398192 0.625000 0.817872
O O12 0.122609 0.899092 0.634944
O O13 0.131401 0.728975 0.562328
O O14 0.282666 0.944437 0.519099
O O15 0.500000 0.420044 0.750000
#
# Coordination Sequence:
#
# PCOD9289191 Si02
#       7
#     8   8   8   8   8   8   8
#     4   9  19  34  57  90 114 152 198 245 307 366
#     4   9  19  36  56  85 123 149 197 251 299 362
#     4  10  22  40  62  86 117 158 204 246 312 360
#     4  10  23  43  59  87 123 158 204 251 295 373
#     4   9  19  36  56  85 123 149 197 251 299 362
#     4  10  23  43  59  87 123 158 204 251 295 373
#     4   9  19  34  57  90 114 152 198 245 307 366
#
# _framework density 19.451395000000002
#
# number of rings (size 3 to 8) (size 9 to 14) (size 15 to 20)
#    0.000    2.571    0.000    0.000    6.000    2.286 
#   10.286   10.000    0.000    0.000    0.000    0.000 
#    0.000    0.000    0.000    0.000    0.000    0.000 
#
# Total GULP energy -156012.650409 kJ/mol
# GULP energy per Si atom -5571.880372 kJ/mol
# Density = 1.940712 g / cm^3
# Si number density = 19.451395 Si / 1000 Ang^3
#
#
#
# Elastic Constant Matrix: (Units=GPa)
#
#
# Indices 1 2 3 4 5 6 
#
# 1 37.4640 16.6875 50.8310 0.0000 -4.8953 0.0000
# 2 16.6875 50.9153 62.5266 0.0000 -2.9017 0.0000
# 3 50.8310 62.5266 224.6813 0.0000 -6.9566 0.0000
# 4 0.0000 0.0000 0.0000 26.8470 0.0000 -0.7900
# 5 -4.8953 -2.9017 -6.9566 0.0000 32.1098 0.0000
# 6 0.0000 0.0000 0.0000 -0.7900 0.0000 14.3723
#
#
#
# Elastic Compliance Matrix: (Units=1/GPa)
#
#
# Indices 1 2 3 4 5 6 
#
# 1 0.039308 -0.002866 -0.007971 0.000000 0.004007 0.000000
# 2 -0.002866 0.030073 -0.007702 0.000000 0.000612 0.000000
# 3 -0.007971 -0.007702 0.008395 0.000000 -0.000093 0.000000
# 4 0.000000 0.000000 0.000000 0.037309 0.000000 0.002051
# 5 0.004007 0.000612 -0.000093 0.000000 0.031789 0.000000
# 6 0.000000 0.000000 0.000000 0.002051 0.000000 0.069691
#
#
# Mechanical properties :
#
#
# Convention : Reuss Voigt Hill
#
# Bulk Modulus (GPa) = 24.57144 63.68343 44.12743
# Shear Modulus (GPa) = 18.71212 26.86685 22.78948
#
# Velocity S-wave (km/s) = 3.10497 3.72052 3.42659
# Velocity P-wave (km/s) = 5.05115 7.16011 6.19602
#
# Compressibility (1/GPa) = 0.04069766
#
# Stress axis : x y z
#
# Youngs Moduli (GPa) = 25.44037 33.25288 119.12475
#
# Poissons Ratio (x) = 0.09529 0.94957
# Poissons Ratio (y) = 0.07290 0.91746
# Poissons Ratio (z) = 0.20279 0.25610
#
# Static dielectric constant tensor:
#      x y z
#    x 1.839120 0.000000 0.011130 
#    y 0.000000 1.731290 0.000000 
#    z 0.011130 0.000000 1.663340 
# 
# From -- ./inp_files/312864.got.cif
#   From: 2010.05.17/outbox.cif.g08.bks.cpg/sg15_157_cif.got.tgz:312864.got - 2010.06.03 18:47:42.
