data_PCOD9289355
_publ_section_title
;
Structure prediction by ZEFSAII (Michael W. Deem and Ramdas Pophale) SiO2 
 PCOD9289355
Probable space group: C 2/C
;
_chemical_formula_sum "Si O2"
_cell_formula_units_Z 44
_cell_length_a 8.098568
_cell_length_b 26.575144
_cell_length_c 10.390556
_cell_angle_alpha 90.000000
_cell_angle_beta 119.325462
_cell_angle_gamma 90.000000
_cell_volume 1949.688675
_symmetry_space_group_name_H-M "C 2/C"
_symmetry_group_IT_number 15
_symmetry_cell_setting 'monoclinic'
loop_
_space_group_symop_operation_xyz
x,y,z
-x,y,1/2-z
-x,-y,-z
x,-y,1/2+z
1/2+x,1/2+y,z
1/2-x,1/2+y,1/2-z
1/2-x,1/2-y,-z
1/2+x,1/2-y,1/2+z
loop_
_atom_site_type_symbol
_atom_site_label
_atom_site_fract_x
_atom_site_fract_y
_atom_site_fract_z
Si Si1 0.000000 0.229623 0.250000
Si Si2 0.645097 0.358033 0.984042
Si Si3 0.000000 0.560634 0.250000
Si Si4 0.316416 0.989114 0.344518
Si Si5 0.064072 0.385231 0.042747
Si Si6 0.000000 0.938641 0.750000
Si Si7 0.191318 0.197546 0.760588
O O1 0.100675 0.193118 0.390214
O O2 0.162623 0.263238 0.246403
O O3 0.500007 0.399535 0.870401
O O4 0.631603 0.342066 0.126358
O O5 0.859313 0.375884 0.030620
O O6 0.834566 0.520505 0.219284
O O7 0.030852 0.594760 0.385876
O O8 0.318891 0.929423 0.339055
O O9 0.500000 0.000000 0.500000
O O10 0.156331 0.021022 0.351210
O O11 0.185213 0.334741 0.092023
O O12 0.000000 0.218926 0.750000
#
# Coordination Sequence:
#
# PCOD9289355 Si02
#       7
#     4   8   4   8   8   4   8
#     4  11  26  51  78 102 140 192 245 311 374 438
#     4  11  24  48  75 101 143 194 245 301 374 435
#     4  10  22  41  68 103 137 192 245 286 354 434
#     4  10  22  40  64 101 144 191 241 294 352 426
#     4  11  24  45  69 103 147 194 242 308 365 432
#     4  11  22  42  72 105 141 202 242 289 368 430
#     4  12  28  45  72 109 146 189 241 310 374 439
#
# _framework density 22.567708
#
# number of rings (size 3 to 8) (size 9 to 14) (size 15 to 20)
#    0.000    1.091    5.455    0.545    6.364    0.727 
#    1.636    4.545    0.000    0.000    0.000    0.000 
#    0.000    0.000    0.000    0.000    0.000    0.000 
#
# Total GULP energy -122724.544428 kJ/mol
# GULP energy per Si atom -5578.388383 kJ/mol
# Density = 2.251634 g / cm^3
# Si number density = 22.567708 Si / 1000 Ang^3
#
#
#
# Elastic Constant Matrix: (Units=GPa)
#
#
# Indices 1 2 3 4 5 6 
#
# 1 92.9352 49.4787 34.7780 0.0000 5.1826 0.0000
# 2 49.4787 112.6950 47.8525 0.0000 22.5675 0.0000
# 3 34.7780 47.8525 72.6619 0.0000 -3.5095 0.0000
# 4 0.0000 0.0000 0.0000 27.2371 0.0000 -0.2185
# 5 5.1826 22.5675 -3.5095 0.0000 31.1284 0.0000
# 6 0.0000 0.0000 0.0000 -0.2185 0.0000 21.5647
#
#
#
# Elastic Compliance Matrix: (Units=1/GPa)
#
#
# Indices 1 2 3 4 5 6 
#
# 1 0.014811 -0.005098 -0.003692 0.000000 0.000814 0.000000
# 2 -0.005098 0.018098 -0.010126 0.000000 -0.013413 0.000000
# 3 -0.003692 -0.010126 0.022706 0.000000 0.010516 0.000000
# 4 0.000000 0.000000 0.000000 0.036718 0.000000 0.000372
# 5 0.000814 -0.013413 0.010516 0.000000 0.042900 0.000000
# 6 0.000000 0.000000 0.000000 0.000372 0.000000 0.046376
#
#
# Mechanical properties :
#
#
# Convention : Reuss Voigt Hill
#
# Bulk Modulus (GPa) = 56.23721 60.27894 58.25807
# Shear Modulus (GPa) = 22.18601 25.73159 23.95880
#
# Velocity S-wave (km/s) = 3.13882 3.38034 3.26182
# Velocity P-wave (km/s) = 6.17331 6.48104 6.32904
#
# Compressibility (1/GPa) = 0.01778182
#
# Stress axis : x y z
#
# Youngs Moduli (GPa) = 67.51953 55.25613 44.04057
#
# Poissons Ratio (x) = 0.28168 0.16261
# Poissons Ratio (y) = 0.34419 0.44597
# Poissons Ratio (z) = 0.24930 0.55954
#
# Static dielectric constant tensor:
#      x y z
#    x 1.944990 0.000000 -0.010830 
#    y 0.000000 1.869220 0.000000 
#    z -0.010830 0.000000 1.858000 
# 
# From -- ./inp_files/81619.got.cif
#   From: 2010.05.17/outbox.cif.g08.bks.cpg/sg15_41_cif.got.tgz:81619.got - 2010.06.03 18:47:42.
