data_PCOD9289963
_publ_section_title
;
Structure prediction by ZEFSAII (Michael W. Deem and Ramdas Pophale) SiO2 
 PCOD9289963
Probable space group: C 2/C
;
_chemical_formula_sum "Si O2"
_cell_formula_units_Z 40
_cell_length_a 14.863596
_cell_length_b 14.691125
_cell_length_c 15.611922
_cell_angle_alpha 90.000000
_cell_angle_beta 26.679084
_cell_angle_gamma 90.000000
_cell_volume 1530.645910
_symmetry_space_group_name_H-M "C 2/C"
_symmetry_group_IT_number 15
_symmetry_cell_setting 'monoclinic'
loop_
_space_group_symop_operation_xyz
x,y,z
-x,y,1/2-z
-x,-y,-z
x,-y,1/2+z
1/2+x,1/2+y,z
1/2-x,1/2+y,1/2-z
1/2-x,1/2-y,-z
1/2+x,1/2-y,1/2+z
loop_
_atom_site_type_symbol
_atom_site_label
_atom_site_fract_x
_atom_site_fract_y
_atom_site_fract_z
Si Si1 0.946669 0.364248 0.077482
Si Si2 0.081908 0.223871 0.098970
Si Si3 0.399323 0.939822 0.710474
Si Si4 0.536341 0.521263 0.070363
Si Si5 0.685463 0.619320 0.646940
O O1 0.996882 0.285385 0.096990
O O2 0.925820 0.456524 0.151613
O O3 0.751044 0.341403 0.184996
O O4 0.592269 0.378854 0.554073
O O5 0.841318 0.232783 0.365253
O O6 0.375678 0.884294 0.641905
O O7 0.596256 0.892335 0.579370
O O8 0.218339 0.950295 0.928104
O O9 0.370299 0.483187 0.275463
O O10 0.500000 0.500000 0.000000
O O11 0.500000 0.657524 0.750000
#
# Coordination Sequence:
#
# PCOD9289963 Si02
#       5
#     8   8   8   8   8
#     4   9  20  45  62  97 152 187 233 317 364 431
#     4  12  29  42  70 114 150 190 242 318 389 433
#     4   9  20  41  68  89 146 194 234 296 365 437
#     4  12  23  42  70 104 142 198 245 293 380 455
#     4  10  22  40  71 100 135 192 247 293 358 452
#
# _framework density 26.132757999999999
#
# number of rings (size 3 to 8) (size 9 to 14) (size 15 to 20)
#    1.200    0.400    2.000    1.800    8.400    0.800 
#    0.000    0.000    0.000    1.200    5.200    2.800 
#    0.000    0.000    0.000    0.000    0.000    0.000 
#
# Total GULP energy -111355.815794 kJ/mol
# GULP energy per Si atom -5567.790790 kJ/mol
# Density = 2.607328 g / cm^3
# Si number density = 26.132758 Si / 1000 Ang^3
#
#
#
# Elastic Constant Matrix: (Units=GPa)
#
#
# Indices 1 2 3 4 5 6 
#
# 1 184.0016 63.3876 29.5987 0.0003 -40.0310 0.0005
# 2 63.3876 79.9088 16.5606 -0.0123 6.8961 0.0031
# 3 29.5987 16.5606 107.1734 -0.0273 -7.3565 0.0058
# 4 0.0003 -0.0123 -0.0273 19.4520 0.0008 3.3168
# 5 -40.0310 6.8961 -7.3565 0.0008 60.5406 0.0022
# 6 0.0005 0.0031 0.0058 3.3168 0.0022 29.4260
#
#
#
# Elastic Compliance Matrix: (Units=1/GPa)
#
#
# Indices 1 2 3 4 5 6 
#
# 1 0.010179 -0.008527 -0.000973 -0.000007 0.007583 0.000001
# 2 -0.008527 0.020254 -0.001331 0.000012 -0.008107 -0.000002
# 3 -0.000973 -0.001331 0.009854 0.000014 0.000706 -0.000003
# 4 -0.000007 0.000012 0.000014 0.052416 -0.000005 -0.005908
# 5 0.007583 -0.008107 0.000706 -0.000005 0.022541 -0.000001
# 6 0.000001 -0.000002 -0.000003 -0.005908 -0.000001 0.034650
#
#
# Mechanical properties :
#
#
# Convention : Reuss Voigt Hill
#
# Bulk Modulus (GPa) = 53.69501 65.57530 59.63515
# Shear Modulus (GPa) = 28.12734 39.31949 33.72342
#
# Velocity S-wave (km/s) = 3.28430 3.88313 3.59620
# Velocity P-wave (km/s) = 5.91386 6.72700 6.33350
#
# Compressibility (1/GPa) = 0.01862371
#
# Stress axis : x y z
#
# Youngs Moduli (GPa) = 98.24562 49.37346 101.48663
#
# Poissons Ratio (x) = 0.42101 0.09874
# Poissons Ratio (y) = 0.83774 0.13510
# Poissons Ratio (z) = 0.09559 0.06573
#
# Static dielectric constant tensor:
#      x y z
#    x 2.127760 0.000000 0.090260 
#    y 0.000000 2.067900 0.000040 
#    z 0.090260 0.000040 5.801600 
# 
# From -- ./inp_files/249810.got.cif
#   From: 2010.05.17/outbox.cif.g08.bks.cpg/sg15_125_cif.got.tgz:249810.got - 2010.06.03 18:47:42.
