data_PCOD9289361
_publ_section_title
;
Structure prediction by ZEFSAII (Michael W. Deem and Ramdas Pophale) SiO2 
 PCOD9289361
Probable space group: C 2/C
;
_chemical_formula_sum "Si O2"
_cell_formula_units_Z 44
_cell_length_a 21.207168
_cell_length_b 8.327297
_cell_length_c 11.024924
_cell_angle_alpha 90.000000
_cell_angle_beta 108.018599
_cell_angle_gamma 90.000000
_cell_volume 1851.496218
_symmetry_space_group_name_H-M "C 2/C"
_symmetry_group_IT_number 15
_symmetry_cell_setting 'monoclinic'
loop_
_space_group_symop_operation_xyz
x,y,z
-x,y,1/2-z
-x,-y,-z
x,-y,1/2+z
1/2+x,1/2+y,z
1/2-x,1/2+y,1/2-z
1/2-x,1/2-y,-z
1/2+x,1/2-y,1/2+z
loop_
_atom_site_type_symbol
_atom_site_label
_atom_site_fract_x
_atom_site_fract_y
_atom_site_fract_z
Si Si1 0.297743 0.327244 0.769725
Si Si2 0.368362 0.449389 0.144820
Si Si3 0.742489 0.043637 0.918287
Si Si4 0.500000 0.351756 0.750000
Si Si5 0.606845 0.076512 0.384467
Si Si6 0.928094 0.617758 0.878645
O O1 0.333808 0.490608 0.747780
O O2 0.265222 0.216459 0.647372
O O3 0.241519 0.392888 0.824064
O O4 0.357332 0.213629 0.850749
O O5 0.437022 0.542855 0.177114
O O6 0.381755 0.263862 0.133508
O O7 0.313349 0.514441 0.019512
O O8 0.676441 0.012259 0.956304
O O9 0.479395 0.245759 0.853967
O O10 0.561135 0.057326 0.477327
O O11 0.581858 0.000862 0.242360
#
# Coordination Sequence:
#
# PCOD9289361 Si02
#       6
#     8   8   8   4   8   8
#     4  10  22  40  64 107 143 182 238 294 372 426
#     4  11  23  44  70 103 142 199 236 305 355 438
#     4  11  22  40  70 104 150 184 234 305 367 444
#     4  10  26  50  66 100 148 190 258 290 352 444
#     4  11  24  43  75 106 144 183 248 303 380 422
#     4  10  24  47  68 104 141 190 240 307 353 438
#
# _framework density 23.764562999999999
#
# number of rings (size 3 to 8) (size 9 to 14) (size 15 to 20)
#    0.000    1.455    1.818    2.182    5.091    2.182 
#    9.818    0.000    0.000    0.000    0.000    0.000 
#    0.000    0.000    0.000    0.000    0.000    0.000 
#
# Total GULP energy -122958.966287 kJ/mol
# GULP energy per Si atom -5589.043922 kJ/mol
# Density = 2.371047 g / cm^3
# Si number density = 23.764563 Si / 1000 Ang^3
#
#
#
# Elastic Constant Matrix: (Units=GPa)
#
#
# Indices 1 2 3 4 5 6 
#
# 1 125.0427 48.9850 39.1537 0.0000 -13.5414 0.0000
# 2 48.9850 125.6502 54.7551 0.0000 -5.2177 0.0000
# 3 39.1537 54.7551 100.8364 0.0000 -18.1646 0.0000
# 4 0.0000 0.0000 0.0000 25.4629 0.0000 -5.5785
# 5 -13.5414 -5.2177 -18.1646 0.0000 47.4022 0.0000
# 6 0.0000 0.0000 0.0000 -5.5785 0.0000 30.1619
#
#
#
# Elastic Compliance Matrix: (Units=1/GPa)
#
#
# Indices 1 2 3 4 5 6 
#
# 1 0.009957 -0.002964 -0.001937 0.000000 0.001776 0.000000
# 2 -0.002964 0.011361 -0.005312 0.000000 -0.001632 0.000000
# 3 -0.001937 -0.005312 0.014339 0.000000 0.004357 0.000000
# 4 0.000000 0.000000 0.000000 0.040931 0.000000 0.007570
# 5 0.001776 -0.001632 0.004357 0.000000 0.023093 0.000000
# 6 0.000000 0.000000 0.000000 0.007570 0.000000 0.034555
#
#
# Mechanical properties :
#
#
# Convention : Reuss Voigt Hill
#
# Bulk Modulus (GPa) = 65.65738 70.81301 68.23520
# Shear Modulus (GPa) = 31.30090 34.51443 32.90767
#
# Velocity S-wave (km/s) = 3.63316 3.81510 3.72524
# Velocity P-wave (km/s) = 6.72964 7.01920 6.87594
#
# Compressibility (1/GPa) = 0.01523058
#
# Stress axis : x y z
#
# Youngs Moduli (GPa) = 100.42949 88.01745 69.74202
#
# Poissons Ratio (x) = 0.26089 0.13508
# Poissons Ratio (y) = 0.29768 0.37050
# Poissons Ratio (z) = 0.19452 0.46758
#
# Static dielectric constant tensor:
#      x y z
#    x 1.869840 0.000000 -0.036140 
#    y 0.000000 1.883640 0.000000 
#    z -0.036140 0.000000 2.075110 
# 
# From -- ./inp_files/116530.got.cif
#   From: 2010.05.17/outbox.cif.g08.bks.cpg/sg15_59_cif.got.tgz:116530.got - 2010.06.03 18:47:42.
