data_PCOD9289269
_publ_section_title
;
Structure prediction by ZEFSAII (Michael W. Deem and Ramdas Pophale) SiO2 
 PCOD9289269
Probable space group: C 2/C
;
_chemical_formula_sum "Si O2"
_cell_formula_units_Z 48
_cell_length_a 7.917220
_cell_length_b 29.453484
_cell_length_c 8.349338
_cell_angle_alpha 90.000000
_cell_angle_beta 89.051254
_cell_angle_gamma 90.000000
_cell_volume 1946.712812
_symmetry_space_group_name_H-M "C 2/C"
_symmetry_group_IT_number 15
_symmetry_cell_setting 'monoclinic'
loop_
_space_group_symop_operation_xyz
x,y,z
-x,y,1/2-z
-x,-y,-z
x,-y,1/2+z
1/2+x,1/2+y,z
1/2-x,1/2+y,1/2-z
1/2-x,1/2-y,-z
1/2+x,1/2-y,1/2+z
loop_
_atom_site_type_symbol
_atom_site_label
_atom_site_fract_x
_atom_site_fract_y
_atom_site_fract_z
Si Si1 0.189557 0.812777 0.819600
Si Si2 0.200852 0.363437 0.989907
Si Si3 0.306219 0.774892 0.328148
Si Si4 0.178140 0.063452 0.830442
Si Si5 0.371685 0.026692 0.383381
Si Si6 0.809822 0.383915 0.044184
O O1 0.282412 0.843128 0.687031
O O2 0.261763 0.761429 0.802489
O O3 0.204695 0.840321 0.984834
O O4 0.000000 0.809937 0.750000
O O5 0.255114 0.324696 0.118689
O O6 0.309146 0.409615 0.003513
O O7 0.003639 0.372379 0.013543
O O8 0.500000 0.782215 0.250000
O O9 0.250000 0.750000 0.500000
O O10 0.292399 0.096647 0.721771
O O11 0.000000 0.064422 0.750000
O O12 0.249051 0.013153 0.829623
O O13 0.500000 0.044720 0.250000
O O14 0.270682 0.069595 0.449286
O O15 0.500000 0.000000 0.500000
#
# Coordination Sequence:
#
# PCOD9289269 Si02
#       6
#     8   8   8   8   8   8
#     4  10  22  40  62  98 132 166 218 277 336 386
#     4  11  21  42  67  92 127 176 223 268 328 402
#     4   9  19  37  62  91 131 171 218 278 332 398
#     4  12  26  42  62  95 131 168 215 274 338 383
#     4  12  23  44  66  94 126 168 219 266 321 398
#     4  12  24  41  69  92 128 173 224 267 324 407
#
# _framework density 24.656950999999999
#
# number of rings (size 3 to 8) (size 9 to 14) (size 15 to 20)
#    0.000    1.000    3.333    4.000    0.000    1.333 
#    0.000   12.500    0.000    0.000    0.000    0.000 
#    0.000    0.000    0.000    0.000    0.000    0.000 
#
# Total GULP energy -133853.358433 kJ/mol
# GULP energy per Si atom -5577.223268 kJ/mol
# Density = 2.460083 g / cm^3
# Si number density = 24.656951 Si / 1000 Ang^3
#
#
#
# Elastic Constant Matrix: (Units=GPa)
#
#
# Indices 1 2 3 4 5 6 
#
# 1 74.7847 -10.6677 -11.7926 0.0000 3.9183 0.0000
# 2 -10.6677 151.5549 10.8125 0.0000 4.4682 0.0000
# 3 -11.7926 10.8125 48.7023 0.0000 -8.1560 0.0000
# 4 0.0000 0.0000 0.0000 40.6179 0.0000 2.2592
# 5 3.9183 4.4682 -8.1560 0.0000 35.5089 0.0000
# 6 0.0000 0.0000 0.0000 2.2592 0.0000 28.0353
#
#
#
# Elastic Compliance Matrix: (Units=1/GPa)
#
#
# Indices 1 2 3 4 5 6 
#
# 1 0.014017 0.000796 0.003059 0.000000 -0.000944 0.000000
# 2 0.000796 0.006802 -0.001534 0.000000 -0.001296 0.000000
# 3 0.003059 -0.001534 0.022454 0.000000 0.005013 0.000000
# 4 0.000000 0.000000 0.000000 0.024731 0.000000 -0.001993
# 5 -0.000944 -0.001296 0.005013 0.000000 0.029581 0.000000
# 6 0.000000 0.000000 0.000000 -0.001993 0.000000 0.035830
#
#
# Mechanical properties :
#
#
# Convention : Reuss Voigt Hill
#
# Bulk Modulus (GPa) = 20.87032 27.97181 24.42106
# Shear Modulus (GPa) = 34.54383 39.94508 37.24446
#
# Velocity S-wave (km/s) = 3.74702 4.02933 3.89074
# Velocity P-wave (km/s) = 5.21564 5.74599 5.48722
#
# Compressibility (1/GPa) = 0.04791494
#
# Stress axis : x y z
#
# Youngs Moduli (GPa) = 71.34106 147.01566 44.53595
#
# Poissons Ratio (x) = -0.11706 -0.13624
# Poissons Ratio (y) = -0.05680 0.06834
# Poissons Ratio (z) = -0.21824 0.22558
#
# Static dielectric constant tensor:
#      x y z
#    x 1.952570 0.000000 -0.011700 
#    y 0.000000 2.521970 0.000000 
#    z -0.011700 0.000000 2.425430 
# 
# From -- ./inp_files/26118.got.cif
#   From: 2010.05.17/outbox.cif.g08.bks.cpg/sg15_14_cif.got.tgz:26118.got - 2010.06.03 18:47:42.
