data_PCOD9289458
_publ_section_title
;
Structure prediction by ZEFSAII (Michael W. Deem and Ramdas Pophale) SiO2 
 PCOD9289458
Probable space group: C 2/C
;
_chemical_formula_sum "Si O2"
_cell_formula_units_Z 56
_cell_length_a 26.064942
_cell_length_b 7.513719
_cell_length_c 17.421585
_cell_angle_alpha 90.000000
_cell_angle_beta 141.438072
_cell_angle_gamma 90.000000
_cell_volume 2126.857601
_symmetry_space_group_name_H-M "C 2/C"
_symmetry_group_IT_number 15
_symmetry_cell_setting 'monoclinic'
loop_
_space_group_symop_operation_xyz
x,y,z
-x,y,1/2-z
-x,-y,-z
x,-y,1/2+z
1/2+x,1/2+y,z
1/2-x,1/2+y,1/2-z
1/2-x,1/2-y,-z
1/2+x,1/2-y,1/2+z
loop_
_atom_site_type_symbol
_atom_site_label
_atom_site_fract_x
_atom_site_fract_y
_atom_site_fract_z
Si Si1 0.489905 0.152742 0.889219
Si Si2 0.758344 0.432765 0.247138
Si Si3 0.545676 0.493546 0.877851
Si Si4 0.855297 0.616909 0.168480
Si Si5 0.378594 0.262020 0.343404
Si Si6 0.777041 0.133656 0.958745
Si Si7 0.613684 0.857968 0.975195
O O1 0.489936 0.349170 0.854452
O O2 0.407654 0.045816 0.769863
O O3 0.557635 0.026336 0.929118
O O4 0.532986 0.193029 0.022488
O O5 0.662001 0.429014 0.160000
O O6 0.811360 0.607208 0.286193
O O7 0.757664 0.317795 0.166956
O O8 0.805741 0.370967 0.378537
O O9 0.500000 0.560501 0.750000
O O10 0.571880 0.673252 0.949774
O O11 0.626662 0.387785 0.943078
O O12 0.876608 0.778920 0.249620
O O13 0.760805 0.559563 0.066777
O O14 0.873884 0.636597 0.101492
O O15 0.750000 0.250000 0.000000
#
# Coordination Sequence:
#
# PCOD9289458 Si02
#       7
#     8   8   8   8   8   8   8
#     4  11  22  43  70  93 136 188 219 276 345 395
#     4  10  22  40  64  97 130 179 221 272 339 403
#     4  12  24  42  68 100 132 177 225 270 336 408
#     4  11  23  41  66 101 132 179 231 280 337 400
#     4  10  22  40  68  94 138 178 228 281 339 407
#     4  11  23  41  66 100 133 171 232 280 330 405
#     4  11  24  43  68  97 140 179 223 277 340 403
#
# _framework density 26.329924999999999
#
# number of rings (size 3 to 8) (size 9 to 14) (size 15 to 20)
#    0.000    1.143    1.429    6.000    2.000    2.286 
#    0.000    0.000    3.143    6.857    0.000    0.000 
#    0.000    0.000    0.000    0.000    0.000    0.000 
#
# Total GULP energy -156540.474574 kJ/mol
# GULP energy per Si atom -5590.731235 kJ/mol
# Density = 2.627000 g / cm^3
# Si number density = 26.329925 Si / 1000 Ang^3
#
#
#
# Elastic Constant Matrix: (Units=GPa)
#
#
# Indices 1 2 3 4 5 6 
#
# 1 110.4424 9.3997 43.7641 0.0000 -32.7850 0.0000
# 2 9.3997 85.2512 16.4698 0.0000 -5.2372 0.0000
# 3 43.7641 16.4698 130.4460 0.0000 -25.5858 0.0000
# 4 0.0000 0.0000 0.0000 33.1127 0.0000 7.6684
# 5 -32.7850 -5.2372 -25.5858 0.0000 55.6275 0.0000
# 6 0.0000 0.0000 0.0000 7.6684 0.0000 40.7892
#
#
#
# Elastic Compliance Matrix: (Units=1/GPa)
#
#
# Indices 1 2 3 4 5 6 
#
# 1 0.011893 -0.000417 -0.002825 0.000000 0.005671 0.000000
# 2 -0.000417 0.012049 -0.001327 0.000000 0.000278 0.000000
# 3 -0.002825 -0.001327 0.009266 0.000000 0.002472 0.000000
# 4 0.000000 0.000000 0.000000 0.031575 0.000000 -0.005936
# 5 0.005671 0.000278 0.002472 0.000000 0.022482 0.000000
# 6 0.000000 0.000000 0.000000 -0.005936 0.000000 0.025632
#
#
# Mechanical properties :
#
#
# Convention : Reuss Voigt Hill
#
# Bulk Modulus (GPa) = 41.54482 51.71185 46.62833
# Shear Modulus (GPa) = 38.44416 43.00627 40.72522
#
# Velocity S-wave (km/s) = 3.82526 4.04587 3.93711
# Velocity P-wave (km/s) = 5.94331 6.44267 6.19802
#
# Compressibility (1/GPa) = 0.02407039
#
# Stress axis : x y z
#
# Youngs Moduli (GPa) = 84.08463 82.99129 107.91910
#
# Poissons Ratio (x) = 0.03462 0.30488
# Poissons Ratio (y) = 0.03508 0.14319
# Poissons Ratio (z) = 0.23755 0.11011
#
# Static dielectric constant tensor:
#      x y z
#    x 2.066910 0.000000 0.013950 
#    y 0.000000 2.114980 0.000000 
#    z 0.013950 0.000000 2.103240 
# 
# From -- ./inp_files/222096.got.cif
#   From: 2010.05.17/outbox.cif.g08.bks.cpg/sg15_112_cif.got.tgz:222096.got - 2010.06.03 18:47:42.
