data_PCOD9289529
_publ_section_title
;
Structure prediction by ZEFSAII (Michael W. Deem and Ramdas Pophale) SiO2 
 PCOD9289529
Probable space group: C 2/C
;
_chemical_formula_sum "Si O2"
_cell_formula_units_Z 48
_cell_length_a 15.563271
_cell_length_b 15.842558
_cell_length_c 18.749640
_cell_angle_alpha 90.000000
_cell_angle_beta 26.147584
_cell_angle_gamma 90.000000
_cell_volume 2037.263562
_symmetry_space_group_name_H-M "C 2/C"
_symmetry_group_IT_number 15
_symmetry_cell_setting 'monoclinic'
loop_
_space_group_symop_operation_xyz
x,y,z
-x,y,1/2-z
-x,-y,-z
x,-y,1/2+z
1/2+x,1/2+y,z
1/2-x,1/2+y,1/2-z
1/2-x,1/2-y,-z
1/2+x,1/2-y,1/2+z
loop_
_atom_site_type_symbol
_atom_site_label
_atom_site_fract_x
_atom_site_fract_y
_atom_site_fract_z
Si Si1 0.792090 0.320929 0.116568
Si Si2 0.547723 0.155220 0.298149
Si Si3 0.684243 0.980609 0.166475
Si Si4 0.702664 0.846551 0.888170
Si Si5 0.557393 0.513410 0.790793
Si Si6 0.959423 0.309041 0.196638
O O1 0.694499 0.231376 0.203608
O O2 0.645170 0.395884 0.244273
O O3 0.851955 0.331243 0.988993
O O4 0.996632 0.332737 0.003825
O O5 0.500000 0.156629 0.250000
O O6 0.641743 0.063800 0.244741
O O7 0.500000 0.975711 0.250000
O O8 0.679561 0.891012 0.209604
O O9 0.874411 0.993707 0.977368
O O10 0.784834 0.939557 0.817340
O O11 0.857032 0.776623 0.748234
O O12 0.653913 0.829097 0.007721
O O13 0.500000 0.513059 0.750000
O O14 0.000000 0.299860 0.250000
#
# Coordination Sequence:
#
# PCOD9289529 Si02
#       6
#     8   8   8   8   8   8
#     4  12  25  42  64  98 134 168 210 266 323 377
#     4  11  22  42  66  93 127 172 218 261 310 381
#     4  10  22  40  65  95 122 160 217 269 309 366
#     4  12  25  42  64  98 134 168 210 266 323 377
#     4  12  23  42  68  95 127 172 216 263 318 384
#     4  11  22  42  66  93 127 172 218 261 310 381
#
# _framework density 23.561017
#
# number of rings (size 3 to 8) (size 9 to 14) (size 15 to 20)
#    0.000    0.667    0.000   10.500    0.000    0.000 
#    0.000    2.500    0.000    0.000    0.000    0.000 
#    0.000    0.000    0.000    0.000    0.000    0.000 
#
# Total GULP energy -134532.341572 kJ/mol
# GULP energy per Si atom -5605.514232 kJ/mol
# Density = 2.350739 g / cm^3
# Si number density = 23.561017 Si / 1000 Ang^3
#
#
#
# Elastic Constant Matrix: (Units=GPa)
#
#
# Indices 1 2 3 4 5 6 
#
# 1 55.9741 17.8975 -7.5269 -0.0303 -6.1688 -0.0106
# 2 17.8975 100.5095 -32.5825 -0.0133 -15.4600 -0.0123
# 3 -7.5269 -32.5825 73.0878 -0.0364 12.3389 -0.0047
# 4 -0.0303 -0.0133 -0.0364 41.3290 0.0197 -20.5663
# 5 -6.1688 -15.4600 12.3389 0.0197 38.1192 -0.0057
# 6 -0.0106 -0.0123 -0.0047 -20.5663 -0.0057 -6.1814
#
#
#
# Elastic Compliance Matrix: (Units=1/GPa)
#
#
# Indices 1 2 3 4 5 6 
#
# 1 0.019068 -0.003021 0.000320 -0.000001 0.001757 -0.000026
# 2 -0.003021 0.012493 0.004745 -0.000003 0.003042 -0.000015
# 3 0.000320 0.004745 0.016393 0.000003 -0.003330 -0.000030
# 4 -0.000001 -0.000003 0.000003 0.009111 -0.000012 -0.030314
# 5 0.001757 0.003042 -0.003330 -0.000012 0.028830 0.000006
# 6 -0.000026 -0.000015 -0.000030 -0.030314 0.000006 -0.060917
#
#
# Mechanical properties :
#
#
# Convention : Reuss Voigt Hill
#
# Bulk Modulus (GPa) = 19.21550 20.57194 19.89372
# Shear Modulus (GPa) = 130.76168 31.43890 81.10029
#
# Velocity S-wave (km/s) = 7.45786 3.65685 5.87334
# Velocity P-wave (km/s) = 9.07375 5.15562 7.37947
#
# Compressibility (1/GPa) = 0.05204132
#
# Stress axis : x y z
#
# Youngs Moduli (GPa) = 52.44347 80.04233 61.00325
#
# Poissons Ratio (x) = 0.24184 -0.01953
# Poissons Ratio (y) = 0.15845 -0.28945
# Poissons Ratio (z) = -0.01679 -0.37979
#
# Static dielectric constant tensor:
#      x y z
#    x 1.990720 0.000000 0.045700 
#    y 0.000000 1.880660 0.000010 
#    z 0.045700 0.000010 1.839660 
# 
# From -- ./inp_files/280236.got.cif
#   From: 2010.05.17/outbox.cif.g08.bks.cpg/sg15_141_cif.got.tgz:280236.got - 2010.06.03 18:47:42.
