data_PCOD9289447
_publ_section_title
;
Structure prediction by ZEFSAII (Michael W. Deem and Ramdas Pophale) SiO2 
 PCOD9289447
Probable space group: C 2/C
;
_chemical_formula_sum "Si O2"
_cell_formula_units_Z 36
_cell_length_a 11.244595
_cell_length_b 8.528881
_cell_length_c 16.604799
_cell_angle_alpha 90.000000
_cell_angle_beta 91.436068
_cell_angle_gamma 90.000000
_cell_volume 1591.963358
_symmetry_space_group_name_H-M "C 2/C"
_symmetry_group_IT_number 15
_symmetry_cell_setting 'monoclinic'
loop_
_space_group_symop_operation_xyz
x,y,z
-x,y,1/2-z
-x,-y,-z
x,-y,1/2+z
1/2+x,1/2+y,z
1/2-x,1/2+y,1/2-z
1/2-x,1/2-y,-z
1/2+x,1/2-y,1/2+z
loop_
_atom_site_type_symbol
_atom_site_label
_atom_site_fract_x
_atom_site_fract_y
_atom_site_fract_z
Si Si1 0.039675 0.674433 0.095527
Si Si2 0.956779 0.304528 0.417873
Si Si3 0.294683 0.399890 0.804603
Si Si4 0.212448 0.709519 0.855959
Si Si5 0.000000 0.133493 0.750000
O O1 0.172557 0.748980 0.088710
O O2 0.056301 0.487914 0.104473
O O3 0.982235 0.757655 0.171771
O O4 0.963985 0.705983 0.014166
O O5 0.084168 0.242428 0.387058
O O6 0.853806 0.206796 0.373735
O O7 0.203277 0.522954 0.840783
O O8 0.259648 0.294848 0.728235
O O9 0.393522 0.517735 0.770495
#
# Coordination Sequence:
#
# PCOD9289447 Si02
#       5
#     8   8   8   8   4
#     4  10  25  42  66  95 129 165 221 257 326 372
#     4  11  23  46  64  93 131 171 204 278 312 377
#     4  11  23  40  67  97 128 169 220 254 328 371
#     4  11  23  40  66  96 126 171 213 263 312 392
#     4  10  22  40  64  96 124 172 206 270 306 390
#
# _framework density 22.613586000000002
#
# number of rings (size 3 to 8) (size 9 to 14) (size 15 to 20)
#    0.000    1.333    2.222    2.000    9.333    3.556 
#    4.000    2.222    0.000    0.000    0.000    0.000 
#    0.000    0.000    0.000    0.000    0.000    0.000 
#
# Total GULP energy -100719.576898 kJ/mol
# GULP energy per Si atom -5595.532050 kJ/mol
# Density = 2.256212 g / cm^3
# Si number density = 22.613586 Si / 1000 Ang^3
#
#
#
# Elastic Constant Matrix: (Units=GPa)
#
#
# Indices 1 2 3 4 5 6 
#
# 1 19.8098 -2.4086 0.9201 0.0000 -7.8973 0.0000
# 2 -2.4086 111.3897 75.0601 0.0000 4.2293 0.0000
# 3 0.9201 75.0601 115.5459 0.0000 9.6307 0.0000
# 4 0.0000 0.0000 0.0000 40.3350 0.0000 11.4148
# 5 -7.8973 4.2293 9.6307 0.0000 21.6218 0.0000
# 6 0.0000 0.0000 0.0000 11.4148 0.0000 37.0792
#
#
#
# Elastic Compliance Matrix: (Units=1/GPa)
#
#
# Indices 1 2 3 4 5 6 
#
# 1 0.060536 0.003668 -0.004827 0.000000 0.023543 0.000000
# 2 0.003668 0.016240 -0.010827 0.000000 0.002986 0.000000
# 3 -0.004827 -0.010827 0.016302 0.000000 -0.006906 0.000000
# 4 0.000000 0.000000 0.000000 0.027158 0.000000 -0.008361
# 5 0.023543 0.002986 -0.006906 0.000000 0.057341 0.000000
# 6 0.000000 0.000000 0.000000 -0.008361 0.000000 0.029543
#
#
# Mechanical properties :
#
#
# Convention : Reuss Voigt Hill
#
# Bulk Modulus (GPa) = 14.47090 43.76539 29.11814
# Shear Modulus (GPa) = 19.67509 31.35211 25.51360
#
# Velocity S-wave (km/s) = 2.95287 3.72752 3.36258
# Velocity P-wave (km/s) = 4.24724 6.15804 5.28963
#
# Compressibility (1/GPa) = 0.06910423
#
# Stress axis : x y z
#
# Youngs Moduli (GPa) = 16.51916 61.57803 61.34091
#
# Poissons Ratio (x) = -0.22585 0.29609
# Poissons Ratio (y) = -0.06059 0.66417
# Poissons Ratio (z) = 0.07974 0.66674
#
# Static dielectric constant tensor:
#      x y z
#    x 1.884130 0.000000 -0.023870 
#    y 0.000000 1.820140 0.000000 
#    z -0.023870 0.000000 1.805650 
# 
# From -- ./inp_files/150300.got.cif
#   From: 2010.05.17/outbox.cif.g08.bks.cpg/sg15_76_cif.got.tgz:150300.got - 2010.06.03 18:47:42.
