data_PCOD9289614
_publ_section_title
;
Structure prediction by ZEFSAII (Michael W. Deem and Ramdas Pophale) SiO2 
 PCOD9289614
Probable space group: C 2/C
;
_chemical_formula_sum "Si O2"
_cell_formula_units_Z 52
_cell_length_a 12.831012
_cell_length_b 15.093950
_cell_length_c 17.749587
_cell_angle_alpha 90.000000
_cell_angle_beta 53.207651
_cell_angle_gamma 90.000000
_cell_volume 2752.848383
_symmetry_space_group_name_H-M "C 2/C"
_symmetry_group_IT_number 15
_symmetry_cell_setting 'monoclinic'
loop_
_space_group_symop_operation_xyz
x,y,z
-x,y,1/2-z
-x,-y,-z
x,-y,1/2+z
1/2+x,1/2+y,z
1/2-x,1/2+y,1/2-z
1/2-x,1/2-y,-z
1/2+x,1/2-y,1/2+z
loop_
_atom_site_type_symbol
_atom_site_label
_atom_site_fract_x
_atom_site_fract_y
_atom_site_fract_z
Si Si1 0.608005 0.564280 0.638078
Si Si2 0.713644 0.856227 0.317762
Si Si3 0.000000 0.632978 0.250000
Si Si4 0.209253 0.893730 0.508449
Si Si5 0.853715 0.539116 0.798459
Si Si6 0.463926 0.268967 0.140130
Si Si7 0.063115 0.720536 0.521721
O O1 0.500000 0.548624 0.750000
O O2 0.733354 0.601567 0.628120
O O3 0.642944 0.475740 0.578931
O O4 0.549312 0.641761 0.610851
O O5 0.695457 0.929854 0.260981
O O6 0.825325 0.791585 0.238203
O O7 0.577728 0.808058 0.388597
O O8 0.879400 0.566041 0.289906
O O9 0.024393 0.693914 0.167391
O O10 0.262064 0.926552 0.404542
O O11 0.112636 0.811490 0.537874
O O12 0.331907 0.854754 0.501821
O O13 0.000000 0.576936 0.750000
O O14 0.444933 0.236891 0.063955
#
# Coordination Sequence:
#
# PCOD9289614 Si02
#       7
#     8   8   4   8   8   8   8
#     4  10  25  45  62  90 134 166 209 270 319 374
#     4  11  22  44  65  90 133 168 209 267 316 375
#     4  10  22  40  66  92 124 168 212 258 316 374
#     4  11  24  44  63  98 130 165 216 265 317 381
#     4  10  22  41  66  92 127 166 213 261 314 381
#     4  11  23  45  61  96 131 162 217 263 319 377
#     4  11  25  39  68  96 124 173 214 261 314 385
#
# _framework density 18.889526
#
# number of rings (size 3 to 8) (size 9 to 14) (size 15 to 20)
#    0.462    0.923    5.385    0.000    4.308    4.308 
#    2.769    0.000    0.000    0.000    0.000    0.000 
#    0.000    0.000    0.000    0.000    0.000    0.000 
#
# Total GULP energy -145189.330331 kJ/mol
# GULP energy per Si atom -5584.205013 kJ/mol
# Density = 1.884653 g / cm^3
# Si number density = 18.889526 Si / 1000 Ang^3
#
#
#
# Elastic Constant Matrix: (Units=GPa)
#
#
# Indices 1 2 3 4 5 6 
#
# 1 89.2289 38.6470 38.1084 0.0000 1.7639 0.0000
# 2 38.6470 117.6923 54.0954 0.0000 -8.0743 0.0000
# 3 38.1084 54.0954 65.7199 0.0000 4.4676 0.0000
# 4 0.0000 0.0000 0.0000 31.3944 0.0000 -0.9205
# 5 1.7639 -8.0743 4.4676 0.0000 32.0884 0.0000
# 6 0.0000 0.0000 0.0000 -0.9205 0.0000 -16.6008
#
#
#
# Elastic Compliance Matrix: (Units=1/GPa)
#
#
# Indices 1 2 3 4 5 6 
#
# 1 0.015060 -0.001526 -0.007465 0.000000 -0.000173 0.000000
# 2 -0.001526 0.014685 -0.011569 0.000000 0.005390 0.000000
# 3 -0.007465 -0.011569 0.029517 0.000000 -0.006610 0.000000
# 4 0.000000 0.000000 0.000000 0.031801 0.000000 -0.001763
# 5 -0.000173 0.005390 -0.006610 0.000000 0.033450 0.000000
# 6 0.000000 0.000000 0.000000 -0.001763 0.000000 -0.060140
#
#
# Mechanical properties :
#
#
# Convention : Reuss Voigt Hill
#
# Bulk Modulus (GPa) = 55.12129 59.37140 57.24635
# Shear Modulus (GPa) = 44.82724 18.82909 31.82816
#
# Velocity S-wave (km/s) = 4.87676 3.16064 4.10928
# Velocity P-wave (km/s) = 7.80734 6.69467 7.27232
#
# Compressibility (1/GPa) = 0.01814181
#
# Stress axis : x y z
#
# Youngs Moduli (GPa) = 66.40319 68.09572 33.87900
#
# Poissons Ratio (x) = 0.10391 0.25289
# Poissons Ratio (y) = 0.10133 0.39195
# Poissons Ratio (z) = 0.49568 0.78782
#
# Static dielectric constant tensor:
#      x y z
#    x 1.663610 0.000000 -0.005120 
#    y 0.000000 1.636960 0.000000 
#    z -0.005120 0.000000 1.620180 
# 
# From -- ./inp_files/197688.got.cif
#   From: 2010.05.17/outbox.cif.g08.bks.cpg/sg15_99_cif.got.tgz:197688.got - 2010.06.03 18:47:42.
