data_PCOD9289812
_publ_section_title
;
Structure prediction by ZEFSAII (Michael W. Deem and Ramdas Pophale) SiO2 
 PCOD9289812
Probable space group: C 2/C
;
_chemical_formula_sum "Si O2"
_cell_formula_units_Z 44
_cell_length_a 8.554885
_cell_length_b 16.508801
_cell_length_c 15.550904
_cell_angle_alpha 90.000000
_cell_angle_beta 96.786324
_cell_angle_gamma 90.000000
_cell_volume 2180.880454
_symmetry_space_group_name_H-M "C 2/C"
_symmetry_group_IT_number 15
_symmetry_cell_setting 'monoclinic'
loop_
_space_group_symop_operation_xyz
x,y,z
-x,y,1/2-z
-x,-y,-z
x,-y,1/2+z
1/2+x,1/2+y,z
1/2-x,1/2+y,1/2-z
1/2-x,1/2-y,-z
1/2+x,1/2-y,1/2+z
loop_
_atom_site_type_symbol
_atom_site_label
_atom_site_fract_x
_atom_site_fract_y
_atom_site_fract_z
Si Si1 0.448792 0.322633 0.657095
Si Si2 0.000000 0.972971 0.750000
Si Si3 0.257353 0.607513 0.712337
Si Si4 0.500000 0.004641 0.750000
Si Si5 0.500000 0.261100 0.250000
Si Si6 0.923854 0.365517 0.878325
Si Si7 0.387922 0.201270 0.957475
O O1 0.500000 0.278479 0.750000
O O2 0.543289 0.407938 0.678237
O O3 0.263088 0.344646 0.639802
O O4 0.507078 0.270002 0.582224
O O5 0.125439 0.033213 0.798814
O O6 0.354401 0.681050 0.758166
O O7 0.182606 0.643793 0.621515
O O8 0.142303 0.566240 0.772807
O O9 0.458621 0.948013 0.828490
O O10 0.480876 0.202701 0.168821
O O11 0.999890 0.354674 0.976181
O O12 0.250000 0.250000 0.000000
#
# Coordination Sequence:
#
# PCOD9289812 Si02
#       7
#     8   4   8   4   4   8   8
#     4  10  22  44  73  95 132 185 226 269 335 410
#     4   9  22  44  68  91 132 176 228 261 344 394
#     4  11  23  42  65 101 127 178 225 277 330 406
#     4  11  24  42  70  97 134 178 222 279 340 402
#     4  10  22  40  68  94 128 180 226 262 336 408
#     4  11  23  44  67  98 136 177 222 280 338 401
#     4  12  26  42  68 106 136 175 227 287 335 393
#
# _framework density 20.175338
#
# number of rings (size 3 to 8) (size 9 to 14) (size 15 to 20)
#    0.545    0.727    3.636    1.636    8.909    0.727 
#    0.000    0.909    0.000    0.000    0.000    0.000 
#    0.000    0.000    0.000    0.000    0.000    0.000 
#
# Total GULP energy -122539.296296 kJ/mol
# GULP energy per Si atom -5569.968013 kJ/mol
# Density = 2.012942 g / cm^3
# Si number density = 20.175338 Si / 1000 Ang^3
#
#
#
# Elastic Constant Matrix: (Units=GPa)
#
#
# Indices 1 2 3 4 5 6 
#
# 1 93.1502 38.5893 26.9889 0.0000 -1.3085 0.0000
# 2 38.5893 105.7568 13.2939 0.0000 -2.9975 0.0000
# 3 26.9889 13.2939 42.6309 0.0000 9.7299 0.0000
# 4 0.0000 0.0000 0.0000 15.5018 0.0000 3.7261
# 5 -1.3085 -2.9975 9.7299 0.0000 32.3037 0.0000
# 6 0.0000 0.0000 0.0000 3.7261 0.0000 29.9844
#
#
#
# Elastic Compliance Matrix: (Units=1/GPa)
#
#
# Indices 1 2 3 4 5 6 
#
# 1 0.015147 -0.004326 -0.008901 0.000000 0.002893 0.000000
# 2 -0.004326 0.011196 -0.001020 0.000000 0.001171 0.000000
# 3 -0.008901 -0.001020 0.031692 0.000000 -0.010001 0.000000
# 4 0.000000 0.000000 0.000000 0.066495 0.000000 -0.008263
# 5 0.002893 0.001171 -0.010001 0.000000 0.034194 0.000000
# 6 0.000000 0.000000 0.000000 -0.008263 0.000000 0.034378
#
#
# Mechanical properties :
#
#
# Convention : Reuss Voigt Hill
#
# Bulk Modulus (GPa) = 33.84953 44.36467 39.10710
# Shear Modulus (GPa) = 21.60370 26.40234 24.00302
#
# Velocity S-wave (km/s) = 3.27585 3.62144 3.45298
# Velocity P-wave (km/s) = 5.57874 6.28679 5.94332
#
# Compressibility (1/GPa) = 0.02954251
#
# Stress axis : x y z
#
# Youngs Moduli (GPa) = 66.01985 89.32113 31.55324
#
# Poissons Ratio (x) = 0.38641 0.28084
# Poissons Ratio (y) = 0.28561 0.03217
# Poissons Ratio (z) = 0.58761 0.09107
#
# Static dielectric constant tensor:
#      x y z
#    x 1.864470 0.000000 0.007480 
#    y 0.000000 1.709980 0.000000 
#    z 0.007480 0.000000 1.755820 
# 
# From -- ./inp_files/134534.got.cif
#   From: 2010.05.17/outbox.cif.g08.bks.cpg/sg15_68_cif.got.tgz:134534.got - 2010.06.03 18:47:42.
