data_PCOD9289156
_publ_section_title
;
Structure prediction by ZEFSAII (Michael W. Deem and Ramdas Pophale) SiO2 
 PCOD9289156
Probable space group: C 2/C
;
_chemical_formula_sum "Si O2"
_cell_formula_units_Z 40
_cell_length_a 16.415181
_cell_length_b 23.954808
_cell_length_c 9.245804
_cell_angle_alpha 90.000000
_cell_angle_beta 29.747366
_cell_angle_gamma 90.000000
_cell_volume 1803.928513
_symmetry_space_group_name_H-M "C 2/C"
_symmetry_group_IT_number 15
_symmetry_cell_setting 'monoclinic'
loop_
_space_group_symop_operation_xyz
x,y,z
-x,y,1/2-z
-x,-y,-z
x,-y,1/2+z
1/2+x,1/2+y,z
1/2-x,1/2+y,1/2-z
1/2-x,1/2-y,-z
1/2+x,1/2-y,1/2+z
loop_
_atom_site_type_symbol
_atom_site_label
_atom_site_fract_x
_atom_site_fract_y
_atom_site_fract_z
Si Si1 0.814835 0.413821 0.593425
Si Si2 0.688656 0.631809 0.003985
Si Si3 0.313420 0.335043 0.495315
Si Si4 0.812706 0.287631 0.094756
Si Si5 0.615382 0.969657 0.441708
O O1 0.706973 0.379601 0.645670
O O2 0.774811 0.479242 0.666065
O O3 0.798020 0.384555 0.773755
O O4 0.000000 0.410558 0.250000
O O5 0.500000 0.635297 0.250000
O O6 0.781694 0.686321 0.798838
O O7 0.778522 0.579101 0.790365
O O8 0.500000 0.347662 0.250000
O O9 0.292377 0.323015 0.358848
O O10 0.265283 0.276999 0.648885
O O11 0.000000 0.291523 0.750000
O O12 0.500000 0.000000 0.500000
O O13 0.500000 0.949192 0.750000
#
# Coordination Sequence:
#
# PCOD9289156 Si02
#       5
#     8   8   8   8   8
#     4  11  23  40  62  89 121 162 205 248 305 367
#     4  12  25  39  62  95 123 157 205 256 307 353
#     4  10  22  40  61  91 123 158 206 253 302 361
#     4  10  22  40  64  88 120 167 204 243 308 370
#     4  11  23  44  65  89 123 165 208 247 304 376
#
# _framework density 22.173826999999999
#
# number of rings (size 3 to 8) (size 9 to 14) (size 15 to 20)
#    0.000    1.200    4.000    3.000    2.800    3.200 
#    0.000    0.000    0.000    0.000    0.000    0.000 
#    0.000    0.000    0.000    0.000    0.000    0.000 
#
# Total GULP energy -111904.390910 kJ/mol
# GULP energy per Si atom -5595.219546 kJ/mol
# Density = 2.212336 g / cm^3
# Si number density = 22.173827 Si / 1000 Ang^3
#
#
#
# Elastic Constant Matrix: (Units=GPa)
#
#
# Indices 1 2 3 4 5 6 
#
# 1 52.1909 -14.9157 -8.5290 -0.0002 1.4181 0.0001
# 2 -14.9157 66.1627 25.7584 0.0000 10.3043 0.0000
# 3 -8.5290 25.7584 63.4678 -0.0004 4.8113 0.0000
# 4 -0.0002 0.0000 -0.0004 27.0599 0.0002 9.9726
# 5 1.4181 10.3043 4.8113 0.0002 33.6852 0.0000
# 6 0.0001 0.0000 0.0000 9.9726 0.0000 28.2878
#
#
#
# Elastic Compliance Matrix: (Units=1/GPa)
#
#
# Indices 1 2 3 4 5 6 
#
# 1 0.020728 0.004628 0.001092 0.000000 -0.002444 0.000000
# 2 0.004628 0.019685 -0.006971 0.000000 -0.005221 0.000000
# 3 0.001092 -0.006971 0.018777 0.000000 -0.000595 0.000000
# 4 0.000000 0.000000 0.000000 0.042473 0.000000 -0.014974
# 5 -0.002444 -0.005221 -0.000595 0.000000 0.031472 0.000000
# 6 0.000000 0.000000 0.000000 -0.014974 0.000000 0.040630
#
#
# Mechanical properties :
#
#
# Convention : Reuss Voigt Hill
#
# Bulk Modulus (GPa) = 17.64009 20.71653 19.17831
# Shear Modulus (GPa) = 25.61967 29.77376 27.69671
#
# Velocity S-wave (km/s) = 3.40281 3.66832 3.53806
# Velocity P-wave (km/s) = 4.83854 5.22544 5.03570
#
# Compressibility (1/GPa) = 0.05668905
#
# Stress axis : x y z
#
# Youngs Moduli (GPa) = 48.24365 50.80047 53.25579
#
# Poissons Ratio (x) = -0.23512 -0.05818
# Poissons Ratio (y) = -0.22329 0.37127
# Poissons Ratio (z) = -0.05270 0.35415
#
# Static dielectric constant tensor:
#      x y z
#    x 1.870860 0.000000 0.012690 
#    y 0.000000 1.792710 0.000000 
#    z 0.012690 0.000000 1.773020 
# 
# From -- ./inp_files/23414.got.cif
#   From: 2010.05.17/outbox.cif.g08.bks.cpg/sg15_12_cif.got.tgz:23414.got - 2010.06.03 18:47:42.
