data_PCOD9289874
_publ_section_title
;
Structure prediction by ZEFSAII (Michael W. Deem and Ramdas Pophale) SiO2 
 PCOD9289874
Probable space group: C 2/C
;
_chemical_formula_sum "Si O2"
_cell_formula_units_Z 48
_cell_length_a 17.634799
_cell_length_b 15.014609
_cell_length_c 16.240039
_cell_angle_alpha 90.000000
_cell_angle_beta 33.739352
_cell_angle_gamma 90.000000
_cell_volume 2388.304855
_symmetry_space_group_name_H-M "C 2/C"
_symmetry_group_IT_number 15
_symmetry_cell_setting 'monoclinic'
loop_
_space_group_symop_operation_xyz
x,y,z
-x,y,1/2-z
-x,-y,-z
x,-y,1/2+z
1/2+x,1/2+y,z
1/2-x,1/2+y,1/2-z
1/2-x,1/2-y,-z
1/2+x,1/2-y,1/2+z
loop_
_atom_site_type_symbol
_atom_site_label
_atom_site_fract_x
_atom_site_fract_y
_atom_site_fract_z
Si Si1 0.621668 0.659981 0.035401
Si Si2 0.867623 0.983124 0.566672
Si Si3 0.613559 0.870046 0.583629
Si Si4 0.648519 0.010714 0.406637
Si Si5 0.192428 0.819151 0.664851
Si Si6 0.397795 0.669318 0.915213
O O1 0.461785 0.679816 0.159559
O O2 0.657793 0.670852 0.099047
O O3 0.646551 0.558108 0.989871
O O4 0.724087 0.727879 0.897420
O O5 0.745357 0.995750 0.740099
O O6 0.893033 0.889181 0.500790
O O7 0.000000 0.000000 0.500000
O O8 0.500000 0.906903 0.750000
O O9 0.650814 0.935414 0.475687
O O10 0.565017 0.771797 0.598546
O O11 0.748172 0.846020 0.513101
O O12 0.500000 0.000000 0.500000
O O13 0.707682 0.101281 0.395619
O O14 0.500000 0.639216 0.750000
#
# Coordination Sequence:
#
# PCOD9289874 Si02
#       6
#     8   8   8   8   8   8
#     4  10  23  43  68  92 127 172 229 268 321 383
#     4  12  24  39  64  98 131 172 209 268 335 394
#     4  10  22  44  65  92 121 167 216 266 313 378
#     4  12  26  40  63  99 139 168 210 266 341 395
#     4  10  23  44  66  94 124 176 224 271 316 386
#     4  10  22  40  69  91 120 166 222 263 309 378
#
# _framework density 20.097937000000002
#
# number of rings (size 3 to 8) (size 9 to 14) (size 15 to 20)
#    0.000    1.333    1.667    3.000    4.667    2.667 
#    3.000    0.000    0.000    0.000    0.000    0.000 
#    0.000    0.000    0.000    0.000    0.000    0.000 
#
# Total GULP energy -133838.765638 kJ/mol
# GULP energy per Si atom -5576.615235 kJ/mol
# Density = 2.005219 g / cm^3
# Si number density = 20.097937 Si / 1000 Ang^3
#
#
#
# Elastic Constant Matrix: (Units=GPa)
#
#
# Indices 1 2 3 4 5 6 
#
# 1 50.1497 12.6129 -0.2005 0.0001 -16.3557 0.0000
# 2 12.6129 66.1544 2.8359 0.0002 4.6926 -0.0001
# 3 -0.2005 2.8359 114.8371 0.0004 -7.0637 -0.0001
# 4 0.0001 0.0002 0.0004 27.8011 -0.0001 -0.7724
# 5 -16.3557 4.6926 -7.0637 -0.0001 38.4789 0.0000
# 6 0.0000 -0.0001 -0.0001 -0.7724 0.0000 4.3852
#
#
#
# Elastic Compliance Matrix: (Units=1/GPa)
#
#
# Indices 1 2 3 4 5 6 
#
# 1 0.025125 -0.005647 0.000893 0.000000 0.011532 0.000000
# 2 -0.005647 0.016545 -0.000698 0.000000 -0.004546 0.000000
# 3 0.000893 -0.000698 0.008855 0.000000 0.002090 0.000000
# 4 0.000000 0.000000 0.000000 0.036147 0.000000 0.006367
# 5 0.011532 -0.004546 0.002090 0.000000 0.031828 0.000000
# 6 0.000000 0.000000 0.000000 0.006367 0.000000 0.229159
#
#
# Mechanical properties :
#
#
# Convention : Reuss Voigt Hill
#
# Bulk Modulus (GPa) = 25.23883 29.07086 27.15484
# Shear Modulus (GPa) = 13.44917 28.52591 20.98754
#
# Velocity S-wave (km/s) = 2.58966 3.77151 3.23501
# Velocity P-wave (km/s) = 4.63972 5.78461 5.24350
#
# Compressibility (1/GPa) = 0.03962150
#
# Stress axis : x y z
#
# Youngs Moduli (GPa) = 39.80096 60.44078 112.92608
#
# Poissons Ratio (x) = 0.34128 -0.10080
# Poissons Ratio (y) = 0.22474 0.07883
# Poissons Ratio (z) = -0.03553 0.04219
#
# Static dielectric constant tensor:
#      x y z
#    x 1.673470 0.000000 -0.013630 
#    y 0.000000 1.717330 0.000000 
#    z -0.013630 0.000000 1.701310 
# 
# From -- ./inp_files/211319.got.cif
#   From: 2010.05.17/outbox.cif.g08.bks.cpg/sg15_106_cif.got.tgz:211319.got - 2010.06.03 18:47:42.
