data_PCOD9289909
_publ_section_title
;
Structure prediction by ZEFSAII (Michael W. Deem and Ramdas Pophale) SiO2 
 PCOD9289909
Probable space group: C 2/C
;
_chemical_formula_sum "Si O2"
_cell_formula_units_Z 44
_cell_length_a 16.088106
_cell_length_b 8.175067
_cell_length_c 17.082988
_cell_angle_alpha 90.000000
_cell_angle_beta 56.524406
_cell_angle_gamma 90.000000
_cell_volume 1874.084004
_symmetry_space_group_name_H-M "C 2/C"
_symmetry_group_IT_number 15
_symmetry_cell_setting 'monoclinic'
loop_
_space_group_symop_operation_xyz
x,y,z
-x,y,1/2-z
-x,-y,-z
x,-y,1/2+z
1/2+x,1/2+y,z
1/2-x,1/2+y,1/2-z
1/2-x,1/2-y,-z
1/2+x,1/2-y,1/2+z
loop_
_atom_site_type_symbol
_atom_site_label
_atom_site_fract_x
_atom_site_fract_y
_atom_site_fract_z
Si Si1 0.818713 0.382802 0.286158
Si Si2 0.513754 0.063094 0.580196
Si Si3 0.705821 0.252102 0.203024
Si Si4 0.000000 0.891165 0.250000
Si Si5 0.207921 0.587337 0.985927
Si Si6 0.876640 0.842130 0.903251
O O1 0.738832 0.284703 0.274959
O O2 0.775966 0.562550 0.327669
O O3 0.857543 0.273521 0.337731
O O4 0.915599 0.419605 0.182135
O O5 0.572048 0.235732 0.556020
O O6 0.500000 0.000000 0.500000
O O7 0.595179 0.936267 0.570790
O O8 0.591361 0.293888 0.241828
O O9 0.772742 0.376996 0.116132
O O10 0.049990 0.011922 0.160571
O O11 0.273469 0.431731 0.975515
O O12 0.250000 0.750000 0.000000
#
# Coordination Sequence:
#
# PCOD9289909 Si02
#       6
#     8   8   8   4   8   8
#     4  12  25  46  73 102 142 190 251 288 351 429
#     4  12  25  44  68 106 143 184 233 303 358 413
#     4  11  25  42  69 102 138 188 236 296 348 433
#     4  10  22  40  70 102 130 178 250 284 346 416
#     4  11  25  46  69 104 146 182 234 294 371 418
#     4  11  24  46  74  96 139 197 235 288 352 437
#
# _framework density 23.478138000000001
#
# number of rings (size 3 to 8) (size 9 to 14) (size 15 to 20)
#    0.000    0.727    3.636    3.818    7.636    0.000 
#    0.000    0.909    0.000    0.000    0.000    0.000 
#    0.000    0.000    0.000    0.000    0.000    0.000 
#
# Total GULP energy -123169.463831 kJ/mol
# GULP energy per Si atom -5598.611992 kJ/mol
# Density = 2.342470 g / cm^3
# Si number density = 23.478138 Si / 1000 Ang^3
#
#
#
# Elastic Constant Matrix: (Units=GPa)
#
#
# Indices 1 2 3 4 5 6 
#
# 1 121.3344 51.2716 40.2617 0.0000 4.8326 0.0000
# 2 51.2716 132.9287 18.5727 0.0000 17.1498 0.0001
# 3 40.2617 18.5727 87.7335 0.0000 -5.1255 0.0000
# 4 0.0000 0.0000 0.0000 36.3256 0.0000 -1.5544
# 5 4.8326 17.1498 -5.1255 0.0000 41.5030 0.0000
# 6 0.0000 0.0001 0.0000 -1.5544 0.0000 36.0106
#
#
#
# Elastic Compliance Matrix: (Units=1/GPa)
#
#
# Indices 1 2 3 4 5 6 
#
# 1 0.011279 -0.003691 -0.004414 0.000000 -0.000333 0.000000
# 2 -0.003691 0.009477 -0.000520 0.000000 -0.003551 0.000000
# 3 -0.004414 -0.000520 0.013675 0.000000 0.002418 0.000000
# 4 0.000000 0.000000 0.000000 0.027580 0.000000 0.001191
# 5 -0.000333 -0.003551 0.002418 0.000000 0.025899 0.000000
# 6 0.000000 0.000000 0.000000 0.001191 0.000000 0.027821
#
#
# Mechanical properties :
#
#
# Convention : Reuss Voigt Hill
#
# Bulk Modulus (GPa) = 58.20187 62.46761 60.33474
# Shear Modulus (GPa) = 36.04669 38.22720 37.13694
#
# Velocity S-wave (km/s) = 3.92258 4.03948 3.98146
# Velocity P-wave (km/s) = 6.73492 6.95852 6.84763
#
# Compressibility (1/GPa) = 0.01718158
#
# Stress axis : x y z
#
# Youngs Moduli (GPa) = 88.65777 105.51746 73.12480
#
# Poissons Ratio (x) = 0.38944 0.32280
# Poissons Ratio (y) = 0.32721 0.03802
# Poissons Ratio (z) = 0.39137 0.05487
#
# Static dielectric constant tensor:
#      x y z
#    x 1.911720 0.000000 0.023660 
#    y 0.000000 1.871470 0.000000 
#    z 0.023660 0.000000 1.977020 
# 
# From -- ./inp_files/202589.got.cif
#   From: 2010.05.17/outbox.cif.g08.bks.cpg/sg15_102_cif.got.tgz:202589.got - 2010.06.03 18:47:42.
