data_PCOD9289657
_publ_section_title
;
Structure prediction by ZEFSAII (Michael W. Deem and Ramdas Pophale) SiO2 
 PCOD9289657
Probable space group: C 2/C
;
_chemical_formula_sum "Si O2"
_cell_formula_units_Z 32
_cell_length_a 11.488697
_cell_length_b 19.466218
_cell_length_c 8.428802
_cell_angle_alpha 90.000000
_cell_angle_beta 131.891242
_cell_angle_gamma 90.000000
_cell_volume 1403.241824
_symmetry_space_group_name_H-M "C 2/C"
_symmetry_group_IT_number 15
_symmetry_cell_setting 'monoclinic'
loop_
_space_group_symop_operation_xyz
x,y,z
-x,y,1/2-z
-x,-y,-z
x,-y,1/2+z
1/2+x,1/2+y,z
1/2-x,1/2+y,1/2-z
1/2-x,1/2-y,-z
1/2+x,1/2-y,1/2+z
loop_
_atom_site_type_symbol
_atom_site_label
_atom_site_fract_x
_atom_site_fract_y
_atom_site_fract_z
Si Si1 0.357688 0.291121 0.723154
Si Si2 0.186942 0.570013 0.721173
Si Si3 0.310385 0.076649 0.403566
Si Si4 0.142640 0.695722 0.492922
O O1 0.500000 0.319365 0.750000
O O2 0.250000 0.250000 0.500000
O O3 0.268501 0.353583 0.727247
O O4 0.417680 0.236593 0.906564
O O5 0.244030 0.495592 0.717249
O O6 0.236766 0.630691 0.648467
O O7 0.996663 0.575437 0.542615
O O8 0.221980 0.579030 0.937673
O O9 0.250000 0.750000 0.500000
O O10 0.000000 0.674685 0.250000
#
# Coordination Sequence:
#
# PCOD9289657 Si02
#       4
#     8   8   8   8
#     4  12  24  45  69  97 132 180 226 273 337 398
#     4  10  22  40  66  97 128 174 221 271 330 394
#     4  10  22  40  67  95 130 172 224 273 324 400
#     4  12  26  41  66  98 134 171 221 278 330 395
#
# _framework density 22.804338000000001
#
# number of rings (size 3 to 8) (size 9 to 14) (size 15 to 20)
#    0.000    1.000    2.500    4.500   10.500    0.000 
#    0.000    2.500    0.000    0.000    0.000    0.000 
#    0.000    0.000    0.000    0.000    0.000    0.000 
#
# Total GULP energy -89511.555514 kJ/mol
# GULP energy per Si atom -5594.472220 kJ/mol
# Density = 2.275243 g / cm^3
# Si number density = 22.804338 Si / 1000 Ang^3
#
#
#
# Elastic Constant Matrix: (Units=GPa)
#
#
# Indices 1 2 3 4 5 6 
#
# 1 61.1960 20.8724 5.2682 0.0000 -5.2729 0.0000
# 2 20.8724 162.5612 25.2008 0.0000 -10.0276 0.0000
# 3 5.2682 25.2008 73.0989 0.0000 -23.5970 0.0000
# 4 0.0000 0.0000 0.0000 38.7810 0.0000 -12.4989
# 5 -5.2729 -10.0276 -23.5970 0.0000 24.7112 0.0000
# 6 0.0000 0.0000 0.0000 -12.4989 0.0000 47.8057
#
#
#
# Elastic Compliance Matrix: (Units=1/GPa)
#
#
# Indices 1 2 3 4 5 6 
#
# 1 0.017300 -0.002101 0.000569 0.000000 0.003383 0.000000
# 2 -0.002101 0.006763 -0.002080 0.000000 0.000310 0.000000
# 3 0.000569 -0.002080 0.020416 0.000000 0.018773 0.000000
# 4 0.000000 0.000000 0.000000 0.028159 0.000000 0.007362
# 5 0.003383 0.000310 0.018773 0.000000 0.059242 0.000000
# 6 0.000000 0.000000 0.000000 0.007362 0.000000 0.022843
#
#
# Mechanical properties :
#
#
# Convention : Reuss Voigt Hill
#
# Bulk Modulus (GPa) = 26.84122 44.39319 35.61720
# Shear Modulus (GPa) = 28.67568 38.62724 33.65146
#
# Velocity S-wave (km/s) = 3.54992 4.12011 3.84560
# Velocity P-wave (km/s) = 5.34775 6.49177 5.94733
#
# Compressibility (1/GPa) = 0.03725613
#
# Stress axis : x y z
#
# Youngs Moduli (GPa) = 57.80361 147.86672 48.98042
#
# Poissons Ratio (x) = 0.31065 -0.02789
# Poissons Ratio (y) = 0.12144 0.10188
# Poissons Ratio (z) = -0.03292 0.30758
#
# Static dielectric constant tensor:
#      x y z
#    x 1.853900 0.000000 0.010440 
#    y 0.000000 1.869400 0.000000 
#    z 0.010440 0.000000 1.827760 
# 
# From -- ./inp_files/28859.got.cif
#   From: 2010.05.17/outbox.cif.g08.bks.cpg/sg15_15_cif.got.tgz:28859.got - 2010.06.03 18:47:42.
