data_PCOD9289915
_publ_section_title
;
Structure prediction by ZEFSAII (Michael W. Deem and Ramdas Pophale) SiO2 
 PCOD9289915
Probable space group: C 2/C
;
_chemical_formula_sum "Si O2"
_cell_formula_units_Z 44
_cell_length_a 4.950358
_cell_length_b 18.348877
_cell_length_c 19.494047
_cell_angle_alpha 90.000000
_cell_angle_beta 114.633013
_cell_angle_gamma 90.000000
_cell_volume 1609.570957
_symmetry_space_group_name_H-M "C 2/C"
_symmetry_group_IT_number 15
_symmetry_cell_setting 'monoclinic'
loop_
_space_group_symop_operation_xyz
x,y,z
-x,y,1/2-z
-x,-y,-z
x,-y,1/2+z
1/2+x,1/2+y,z
1/2-x,1/2+y,1/2-z
1/2-x,1/2-y,-z
1/2+x,1/2-y,1/2+z
loop_
_atom_site_type_symbol
_atom_site_label
_atom_site_fract_x
_atom_site_fract_y
_atom_site_fract_z
Si Si1 0.903518 0.173116 0.132111
Si Si2 0.453653 0.076190 0.166652
Si Si3 0.906378 0.316699 0.473906
Si Si4 0.500000 0.417664 0.250000
Si Si5 0.812373 0.178038 0.842555
Si Si6 0.986439 0.558190 0.596251
O O1 0.733754 0.112604 0.159014
O O2 0.861480 0.247757 0.167762
O O3 0.225067 0.142623 0.151475
O O4 0.734725 0.189029 0.042409
O O5 0.500000 0.047820 0.250000
O O6 0.320497 0.015504 0.100890
O O7 0.750000 0.250000 0.500000
O O8 0.669865 0.308152 0.386114
O O9 0.920412 0.407660 0.466967
O O10 0.711417 0.365910 0.229324
O O11 0.711616 0.456462 0.327056
O O12 0.708361 0.124898 0.893250
#
# Coordination Sequence:
#
# PCOD9289915 Si02
#       6
#     8   8   8   4   8   8
#     4  11  28  46  73 105 149 191 242 309 377 434
#     4  12  29  47  69 105 151 195 241 308 374 445
#     4   9  23  45  73 106 145 188 248 308 371 436
#     4  10  22  40  70 104 136 188 262 296 374 442
#     4  10  23  43  73 104 139 194 245 312 359 455
#     4  11  25  43  75  99 145 192 249 300 374 444
#
# _framework density 27.336476999999999
#
# number of rings (size 3 to 8) (size 9 to 14) (size 15 to 20)
#    0.000    1.455    0.000    2.182   19.091    4.364 
#    0.000    0.000    0.000    0.000    0.000    0.000 
#    0.000    0.000    0.000    0.000    0.000    0.000 
#
# Total GULP energy -122542.992276 kJ/mol
# GULP energy per Si atom -5570.136013 kJ/mol
# Density = 2.727426 g / cm^3
# Si number density = 27.336477 Si / 1000 Ang^3
#
#
#
# Elastic Constant Matrix: (Units=GPa)
#
#
# Indices 1 2 3 4 5 6 
#
# 1 90.8509 16.1567 22.9784 0.0000 -8.7376 0.0000
# 2 16.1567 143.1717 -1.6773 0.0000 -41.8889 0.0000
# 3 22.9784 -1.6773 97.3990 0.0000 -8.3019 0.0000
# 4 0.0000 0.0000 0.0000 68.8761 0.0000 -0.4528
# 5 -8.7376 -41.8889 -8.3019 0.0000 31.7081 0.0000
# 6 0.0000 0.0000 0.0000 -0.4528 0.0000 44.4560
#
#
#
# Elastic Compliance Matrix: (Units=1/GPa)
#
#
# Indices 1 2 3 4 5 6 
#
# 1 0.012002 -0.001025 -0.002744 0.000000 0.001234 0.000000
# 2 -0.001025 0.011695 0.001776 0.000000 0.015632 0.000000
# 3 -0.002744 0.001776 0.011333 0.000000 0.004557 0.000000
# 4 0.000000 0.000000 0.000000 0.014520 0.000000 0.000148
# 5 0.001234 0.015632 0.004557 0.000000 0.053722 0.000000
# 6 0.000000 0.000000 0.000000 0.000148 0.000000 0.022496
#
#
# Mechanical properties :
#
#
# Convention : Reuss Voigt Hill
#
# Bulk Modulus (GPa) = 32.21358 45.14857 38.68108
# Shear Modulus (GPa) = 35.68804 48.60564 42.14684
#
# Velocity S-wave (km/s) = 3.61710 4.22127 3.93081
# Velocity P-wave (km/s) = 5.40872 6.34906 5.89766
#
# Compressibility (1/GPa) = 0.03104281
#
# Stress axis : x y z
#
# Youngs Moduli (GPa) = 83.31850 85.50852 88.23459
#
# Poissons Ratio (x) = 0.08769 0.24212
# Poissons Ratio (y) = 0.08544 -0.15668
# Poissons Ratio (z) = 0.22863 -0.15184
#
# Static dielectric constant tensor:
#      x y z
#    x 2.530280 0.000000 -0.206070 
#    y 0.000000 2.223650 0.000000 
#    z -0.206070 0.000000 2.332080 
# 
# From -- ./inp_files/260921.got.cif
#   From: 2010.05.17/outbox.cif.g08.bks.cpg/sg15_131_cif.got.tgz:260921.got - 2010.06.03 18:47:42.
