data_PCOD9289390
_publ_section_title
;
Structure prediction by ZEFSAII (Michael W. Deem and Ramdas Pophale) SiO2 
 PCOD9289390
Probable space group: C 2/C
;
_chemical_formula_sum "Si O2"
_cell_formula_units_Z 48
_cell_length_a 27.796388
_cell_length_b 15.030701
_cell_length_c 8.877336
_cell_angle_alpha 90.000000
_cell_angle_beta 34.481973
_cell_angle_gamma 90.000000
_cell_volume 2099.807114
_symmetry_space_group_name_H-M "C 2/C"
_symmetry_group_IT_number 15
_symmetry_cell_setting 'monoclinic'
loop_
_space_group_symop_operation_xyz
x,y,z
-x,y,1/2-z
-x,-y,-z
x,-y,1/2+z
1/2+x,1/2+y,z
1/2-x,1/2+y,1/2-z
1/2-x,1/2-y,-z
1/2+x,1/2-y,1/2+z
loop_
_atom_site_type_symbol
_atom_site_label
_atom_site_fract_x
_atom_site_fract_y
_atom_site_fract_z
Si Si1 0.500000 0.734734 0.250000
Si Si2 0.125398 0.007819 0.742599
Si Si3 0.926690 0.125401 0.861806
Si Si4 0.750665 0.719590 0.172083
Si Si5 0.173735 0.125064 0.852034
Si Si6 0.572010 0.880110 0.271434
Si Si7 0.000000 0.531235 0.250000
O O1 0.415689 0.674540 0.454021
O O2 0.509798 0.801993 0.367507
O O3 0.060366 0.075005 0.828488
O O4 0.194872 0.067928 0.649841
O O5 0.160971 0.942260 0.524551
O O6 0.085928 0.949321 0.976728
O O7 0.000000 0.183354 0.750000
O O8 0.838355 0.173542 0.071198
O O9 0.761788 0.801058 0.258150
O O10 0.750000 0.750000 0.000000
O O11 0.832571 0.657055 0.981364
O O12 0.548296 0.910153 0.500928
O O13 0.559678 0.964914 0.193623
#
# Coordination Sequence:
#
# PCOD9289390 Si02
#       7
#     4   8   8   8   8   8   4
#     4   9  20  36  60  93 134 170 202 265 324 380
#     4  10  23  40  65  95 126 166 216 266 317 397
#     4  11  24  40  67  96 129 170 219 265 328 389
#     4  11  23  44  61  93 137 170 210 276 330 381
#     4  10  22  40  64  91 130 169 211 265 326 384
#     4   9  20  39  67  94 132 173 211 270 319 383
#     4   9  18  42  68 101 124 170 228 257 320 392
#
# _framework density 22.859241999999998
#
# number of rings (size 3 to 8) (size 9 to 14) (size 15 to 20)
#    0.000    2.000    1.667    0.500    7.000    2.000 
#    4.500    0.000    0.000    0.000    0.000    0.000 
#    0.000    0.000    0.000    0.000    0.000    0.000 
#
# Total GULP energy -134135.425203 kJ/mol
# GULP energy per Si atom -5588.976050 kJ/mol
# Density = 2.280721 g / cm^3
# Si number density = 22.859242 Si / 1000 Ang^3
#
#
#
# Elastic Constant Matrix: (Units=GPa)
#
#
# Indices 1 2 3 4 5 6 
#
# 1 167.7319 78.4407 59.4930 0.0000 3.9331 0.0000
# 2 78.4407 109.3073 47.2968 0.0000 2.1600 0.0000
# 3 59.4930 47.2968 56.6757 0.0000 1.5961 0.0000
# 4 0.0000 0.0000 0.0000 -45.1471 0.0000 6.5507
# 5 3.9331 2.1600 1.5961 0.0000 42.4048 0.0000
# 6 0.0000 0.0000 0.0000 6.5507 0.0000 43.7751
#
#
#
# Elastic Compliance Matrix: (Units=1/GPa)
#
#
# Indices 1 2 3 4 5 6 
#
# 1 0.010715 -0.004412 -0.007552 0.000000 -0.000485 0.000000
# 2 -0.004412 0.016139 -0.008835 0.000000 -0.000080 0.000000
# 3 -0.007552 -0.008835 0.032947 0.000000 -0.000090 0.000000
# 4 0.000000 0.000000 0.000000 -0.021679 0.000000 0.003244
# 5 -0.000485 -0.000080 -0.000090 0.000000 0.023635 0.000000
# 6 0.000000 0.000000 0.000000 0.003244 0.000000 0.022359
#
#
# Mechanical properties :
#
#
# Convention : Reuss Voigt Hill
#
# Bulk Modulus (GPa) = 54.93478 78.24178 66.58828
# Shear Modulus (GPa) = 37.94159 18.10553 28.02356
#
# Velocity S-wave (km/s) = 4.07847 2.81738 3.50511
# Velocity P-wave (km/s) = 6.80166 6.69966 6.75085
#
# Compressibility (1/GPa) = 0.01820340
#
# Stress axis : x y z
#
# Youngs Moduli (GPa) = 93.32400 61.96202 30.35158
#
# Poissons Ratio (x) = 0.27338 0.22923
# Poissons Ratio (y) = 0.41175 0.26814
# Poissons Ratio (z) = 0.70483 0.54741
#
# Static dielectric constant tensor:
#      x y z
#    x 1.879740 0.000000 -0.028000 
#    y 0.000000 1.920890 0.000000 
#    z -0.028000 0.000000 1.783010 
# 
# From -- ./inp_files/66453.got.cif
#   From: 2010.05.17/outbox.cif.g08.bks.cpg/sg15_34_cif.got.tgz:66453.got - 2010.06.03 18:47:42.
