data_PCOD9289423
_publ_section_title
;
Structure prediction by ZEFSAII (Michael W. Deem and Ramdas Pophale) SiO2 
 PCOD9289423
Probable space group: C 2/C
;
_chemical_formula_sum "Si O2"
_cell_formula_units_Z 56
_cell_length_a 7.944149
_cell_length_b 30.641680
_cell_length_c 9.857331
_cell_angle_alpha 90.000000
_cell_angle_beta 68.370807
_cell_angle_gamma 90.000000
_cell_volume 2230.540827
_symmetry_space_group_name_H-M "C 2/C"
_symmetry_group_IT_number 15
_symmetry_cell_setting 'monoclinic'
loop_
_space_group_symop_operation_xyz
x,y,z
-x,y,1/2-z
-x,-y,-z
x,-y,1/2+z
1/2+x,1/2+y,z
1/2-x,1/2+y,1/2-z
1/2-x,1/2-y,-z
1/2+x,1/2-y,1/2+z
loop_
_atom_site_type_symbol
_atom_site_label
_atom_site_fract_x
_atom_site_fract_y
_atom_site_fract_z
Si Si1 0.356124 0.567148 0.589586
Si Si2 0.461007 0.651240 0.934456
Si Si3 0.618472 0.796858 0.421017
Si Si4 0.349163 0.523456 0.178237
Si Si5 0.967807 0.389811 0.418803
Si Si6 0.835446 0.238137 0.616878
Si Si7 0.835653 0.398977 0.864763
O O1 0.420072 0.609923 0.650636
O O2 0.538330 0.542968 0.483722
O O3 0.272152 0.525432 0.690020
O O4 0.228044 0.586920 0.510066
O O5 0.302767 0.676835 0.901882
O O6 0.598688 0.688928 0.922521
O O7 0.345519 0.629465 0.088467
O O8 0.485715 0.837188 0.421823
O O9 0.689395 0.764153 0.281861
O O10 0.514405 0.769218 0.567925
O O11 0.500000 0.524500 0.250000
O O12 0.190068 0.558614 0.220772
O O13 0.000000 0.400286 0.250000
O O14 0.106015 0.406446 0.494969
O O15 0.750000 0.250000 0.500000
O O16 0.000000 0.372570 0.750000
#
# Coordination Sequence:
#
# PCOD9289423 Si02
#       7
#     8   8   8   8   8   8   8
#     4  10  22  40  64  94 130 173 221 272 339 403
#     4  10  23  42  66  93 128 172 223 277 333 406
#     4  11  25  44  67  96 133 172 223 283 344 409
#     4  10  22  40  64  96 134 178 225 279 336 401
#     4  11  23  41  68 100 132 174 226 282 337 405
#     4  12  24  42  65  95 130 168 216 275 339 407
#     4  10  23  43  66  97 137 179 224 280 342 405
#
# _framework density 25.106019
#
# number of rings (size 3 to 8) (size 9 to 14) (size 15 to 20)
#    0.000    1.429    0.000    4.714    0.000   10.286 
#    0.000    8.571    0.000    0.000    0.000    0.000 
#    0.000    0.000    0.000    0.000    0.000    0.000 
#
# Total GULP energy -156045.643708 kJ/mol
# GULP energy per Si atom -5573.058704 kJ/mol
# Density = 2.504888 g / cm^3
# Si number density = 25.106019 Si / 1000 Ang^3
#
#
#
# Elastic Constant Matrix: (Units=GPa)
#
#
# Indices 1 2 3 4 5 6 
#
# 1 116.3009 49.6930 17.1193 0.0000 8.9559 0.0000
# 2 49.6930 174.8643 45.0338 0.0000 6.9358 0.0000
# 3 17.1193 45.0338 70.7906 0.0000 -3.7666 0.0000
# 4 0.0000 0.0000 0.0000 8.0266 0.0000 -0.3468
# 5 8.9559 6.9358 -3.7666 0.0000 37.6705 0.0000
# 6 0.0000 0.0000 0.0000 -0.3468 0.0000 47.6438
#
#
#
# Elastic Compliance Matrix: (Units=1/GPa)
#
#
# Indices 1 2 3 4 5 6 
#
# 1 0.009962 -0.002516 -0.000915 0.000000 -0.001997 0.000000
# 2 -0.002516 0.007585 -0.004282 0.000000 -0.001227 0.000000
# 3 -0.000915 -0.004282 0.017217 0.000000 0.002727 0.000000
# 4 0.000000 0.000000 0.000000 0.124625 0.000000 0.000907
# 5 -0.001997 -0.001227 0.002727 0.000000 0.027519 0.000000
# 6 0.000000 0.000000 0.000000 0.000907 0.000000 0.020996
#
#
# Mechanical properties :
#
#
# Convention : Reuss Voigt Hill
#
# Bulk Modulus (GPa) = 51.71237 65.07200 58.39218
# Shear Modulus (GPa) = 21.76037 35.34216 28.55127
#
# Velocity S-wave (km/s) = 2.94724 3.75603 3.37594
# Velocity P-wave (km/s) = 5.67661 6.69219 6.20521
#
# Compressibility (1/GPa) = 0.01933773
#
# Stress axis : x y z
#
# Youngs Moduli (GPa) = 100.38248 131.83504 58.08358
#
# Poissons Ratio (x) = 0.33173 0.05312
# Poissons Ratio (y) = 0.25259 0.24872
# Poissons Ratio (z) = 0.09181 0.56454
#
# Static dielectric constant tensor:
#      x y z
#    x -8.759080 0.000000 10.577210 
#    y 0.000000 2.063970 0.000000 
#    z 10.577210 0.000000 -8.312890 
# 
# From -- ./inp_files/81256.got.cif
#   From: 2010.05.17/outbox.cif.g08.bks.cpg/sg15_41_cif.got.tgz:81256.got - 2010.06.03 18:47:42.
