data_PCOD9289691
_publ_section_title
;
Structure prediction by ZEFSAII (Michael W. Deem and Ramdas Pophale) SiO2 
 PCOD9289691
Probable space group: C 2/C
;
_chemical_formula_sum "Si O2"
_cell_formula_units_Z 48
_cell_length_a 13.476207
_cell_length_b 13.565866
_cell_length_c 12.535537
_cell_angle_alpha 90.000000
_cell_angle_beta 75.149310
_cell_angle_gamma 90.000000
_cell_volume 2215.152291
_symmetry_space_group_name_H-M "C 2/C"
_symmetry_group_IT_number 15
_symmetry_cell_setting 'monoclinic'
loop_
_space_group_symop_operation_xyz
x,y,z
-x,y,1/2-z
-x,-y,-z
x,-y,1/2+z
1/2+x,1/2+y,z
1/2-x,1/2+y,1/2-z
1/2-x,1/2-y,-z
1/2+x,1/2-y,1/2+z
loop_
_atom_site_type_symbol
_atom_site_label
_atom_site_fract_x
_atom_site_fract_y
_atom_site_fract_z
Si Si1 0.295267 0.941184 0.214817
Si Si2 0.068048 0.021061 0.316779
Si Si3 0.386398 0.864663 0.747027
Si Si4 0.341840 0.824285 0.988305
Si Si5 0.710081 0.710213 0.898155
Si Si6 0.986810 0.144240 0.970401
O O1 0.319871 0.886735 0.098416
O O2 0.287501 0.862564 0.314006
O O3 0.180948 0.990056 0.247562
O O4 0.379161 0.027204 0.199900
O O5 0.073633 0.086151 0.421662
O O6 0.000000 0.079463 0.250000
O O7 0.994326 0.927059 0.365803
O O8 0.500000 0.830299 0.750000
O O9 0.328606 0.789360 0.682287
O O10 0.338911 0.880634 0.877417
O O11 0.250000 0.750000 0.000000
O O12 0.440527 0.752823 0.971779
O O13 0.607367 0.652367 0.960752
O O14 0.750000 0.750000 0.000000
#
# Coordination Sequence:
#
# PCOD9289691 Si02
#       6
#     8   8   8   8   8   8
#     4  11  27  42  69 108 140 187 239 303 357 437
#     4  10  22  40  67 100 140 171 234 294 355 419
#     4  12  27  48  74 103 146 196 244 297 364 442
#     4  12  23  43  74 100 140 190 245 290 366 434
#     4  11  26  47  71 102 144 184 241 306 361 424
#     4  10  23  41  67 101 129 187 229 291 351 427
#
# _framework density 21.668939999999999
#
# number of rings (size 3 to 8) (size 9 to 14) (size 15 to 20)
#    0.000    1.000    3.333    2.000    7.000    3.333 
#    0.000    0.000    0.000    0.000    0.000    0.000 
#    0.000    0.000    0.000    0.000    0.000    0.000 
#
# Total GULP energy -133859.953351 kJ/mol
# GULP energy per Si atom -5577.498056 kJ/mol
# Density = 2.161962 g / cm^3
# Si number density = 21.668940 Si / 1000 Ang^3
#
#
#
# Elastic Constant Matrix: (Units=GPa)
#
#
# Indices 1 2 3 4 5 6 
#
# 1 29.4772 -4.1182 16.1723 0.0000 11.6079 0.0000
# 2 -4.1182 78.8139 34.1457 0.0000 11.8028 0.0000
# 3 16.1723 34.1457 121.4605 0.0000 9.4419 0.0000
# 4 0.0000 0.0000 0.0000 35.7886 0.0000 -6.9746
# 5 11.6079 11.8028 9.4419 0.0000 31.0893 0.0000
# 6 0.0000 0.0000 0.0000 -6.9746 0.0000 32.4660
#
#
#
# Elastic Compliance Matrix: (Units=1/GPa)
#
#
# Indices 1 2 3 4 5 6 
#
# 1 0.046073 0.008170 -0.007019 0.000000 -0.018172 0.000000
# 2 0.008170 0.016496 -0.005122 0.000000 -0.007757 0.000000
# 3 -0.007019 -0.005122 0.010501 0.000000 0.001376 0.000000
# 4 0.000000 0.000000 0.000000 0.029163 0.000000 0.006265
# 5 -0.018172 -0.007757 0.001376 0.000000 0.041477 0.000000
# 6 0.000000 0.000000 0.000000 0.006265 0.000000 0.032147
#
#
# Mechanical properties :
#
#
# Convention : Reuss Voigt Hill
#
# Bulk Modulus (GPa) = 15.35467 35.79459 25.57463
# Shear Modulus (GPa) = 24.32995 32.10555 28.21775
#
# Velocity S-wave (km/s) = 3.35446 3.85338 3.61254
# Velocity P-wave (km/s) = 4.70155 6.02933 5.40636
#
# Compressibility (1/GPa) = 0.06512677
#
# Stress axis : x y z
#
# Youngs Moduli (GPa) = 21.70485 60.62140 95.23219
#
# Poissons Ratio (x) = -0.49525 0.66839
# Poissons Ratio (y) = -0.17732 0.48779
# Poissons Ratio (z) = 0.15234 0.31051
#
# Static dielectric constant tensor:
#      x y z
#    x 1.737500 0.000000 -0.031060 
#    y 0.000000 1.831350 0.000000 
#    z -0.031060 0.000000 1.781090 
# 
# From -- ./inp_files/96183.got.cif
#   From: 2010.05.17/outbox.cif.g08.bks.cpg/sg15_49_cif.got.tgz:96183.got - 2010.06.03 18:47:42.
