data_PCOD9289907
_publ_section_title
;
Structure prediction by ZEFSAII (Michael W. Deem and Ramdas Pophale) SiO2 
 PCOD9289907
Probable space group: C 2/C
;
_chemical_formula_sum "Si O2"
_cell_formula_units_Z 60
_cell_length_a 6.167593
_cell_length_b 17.491543
_cell_length_c 25.298379
_cell_angle_alpha 90.000000
_cell_angle_beta 92.061395
_cell_angle_gamma 90.000000
_cell_volume 2727.441107
_symmetry_space_group_name_H-M "C 2/C"
_symmetry_group_IT_number 15
_symmetry_cell_setting 'monoclinic'
loop_
_space_group_symop_operation_xyz
x,y,z
-x,y,1/2-z
-x,-y,-z
x,-y,1/2+z
1/2+x,1/2+y,z
1/2-x,1/2+y,1/2-z
1/2-x,1/2-y,-z
1/2+x,1/2-y,1/2+z
loop_
_atom_site_type_symbol
_atom_site_label
_atom_site_fract_x
_atom_site_fract_y
_atom_site_fract_z
Si Si1 0.500000 0.382884 0.750000
Si Si2 0.964142 0.835893 0.128583
Si Si3 0.326676 0.865629 0.046910
Si Si4 0.653746 0.385056 0.927310
Si Si5 0.873900 0.442835 0.695521
Si Si6 0.851262 0.465020 0.385106
Si Si7 0.653627 0.803221 0.672869
Si Si8 0.154523 0.233899 0.056614
O O1 0.623533 0.436448 0.708754
O O2 0.332294 0.330487 0.716585
O O3 0.799399 0.901891 0.144652
O O4 0.815180 0.770942 0.099867
O O5 0.123212 0.869227 0.084853
O O6 0.102825 0.786619 0.171311
O O7 0.515015 0.922911 0.067517
O O8 0.432187 0.782136 0.054390
O O9 0.259705 0.878025 0.986038
O O10 0.694725 0.470032 0.907050
O O11 0.763212 0.332091 0.883454
O O12 0.409241 0.353283 0.932134
O O13 0.000000 0.465728 0.750000
O O14 0.969299 0.496019 0.650860
O O15 0.946901 0.355996 0.683589
O O16 0.250000 0.250000 0.000000
#
# Coordination Sequence:
#
# PCOD9289907 Si02
#       8
#     4   8   8   8   8   8   8   8
#     4  10  22  42  74 106 118 156 228 298 330 390
#     4  11  23  41  63  98 141 176 215 268 334 398
#     4  11  22  40  60  96 144 181 224 270 325 394
#     4  11  21  41  64  98 131 183 234 268 320 384
#     4   9  21  44  72  98 122 162 227 275 338 402
#     4  10  25  41  65 101 139 179 215 273 337 402
#     4  10  22  40  70 101 126 168 223 283 331 390
#     4  11  21  37  63  91 132 183 231 271 313 382
#
# _framework density 21.998642
#
# number of rings (size 3 to 8) (size 9 to 14) (size 15 to 20)
#    0.000    1.600    2.667    1.600    1.867    3.733 
#    4.800    0.000   11.733    0.000    0.000    0.000 
#    0.000    0.000    0.000    0.000    0.000    0.000 
#
# Total GULP energy -167653.688218 kJ/mol
# GULP energy per Si atom -5588.456274 kJ/mol
# Density = 2.194857 g / cm^3
# Si number density = 21.998642 Si / 1000 Ang^3
#
#
#
# Elastic Constant Matrix: (Units=GPa)
#
#
# Indices 1 2 3 4 5 6 
#
# 1 87.3333 48.8856 24.8962 0.0000 -17.2592 0.0000
# 2 48.8856 118.0310 35.0833 0.0000 -2.5587 0.0000
# 3 24.8962 35.0833 67.9109 0.0000 -14.1731 0.0000
# 4 0.0000 0.0000 0.0000 12.9557 0.0000 8.5409
# 5 -17.2592 -2.5587 -14.1731 0.0000 33.9525 0.0000
# 6 0.0000 0.0000 0.0000 8.5409 0.0000 21.7610
#
#
#
# Elastic Compliance Matrix: (Units=1/GPa)
#
#
# Indices 1 2 3 4 5 6 
#
# 1 0.016936 -0.006469 -0.001284 0.000000 0.007586 0.000000
# 2 -0.006469 0.012554 -0.005042 0.000000 -0.004447 0.000000
# 3 -0.001284 -0.005042 0.019263 0.000000 0.007009 0.000000
# 4 0.000000 0.000000 0.000000 0.104129 0.000000 -0.040869
# 5 0.007586 -0.004447 0.007009 0.000000 0.035900 0.000000
# 6 0.000000 0.000000 0.000000 -0.040869 0.000000 0.061994
#
#
# Mechanical properties :
#
#
# Convention : Reuss Voigt Hill
#
# Bulk Modulus (GPa) = 43.16992 54.55616 48.86304
# Shear Modulus (GPa) = 17.60025 24.69450 21.14738
#
# Velocity S-wave (km/s) = 2.83160 3.35408 3.10385
# Velocity P-wave (km/s) = 5.50973 6.31296 5.92497
#
# Compressibility (1/GPa) = 0.02316428
#
# Stress axis : x y z
#
# Youngs Moduli (GPa) = 59.04449 79.65744 51.91200
#
# Poissons Ratio (x) = 0.51527 0.06666
# Poissons Ratio (y) = 0.38193 0.26174
# Poissons Ratio (z) = 0.07581 0.40164
#
# Static dielectric constant tensor:
#      x y z
#    x 1.865910 0.000000 -0.011340 
#    y 0.000000 1.828720 0.000000 
#    z -0.011340 0.000000 1.822950 
# 
# From -- ./inp_files/286090.got.cif
#   From: 2010.05.17/outbox.cif.g08.bks.cpg/sg15_144_cif.got.tgz:286090.got - 2010.06.03 18:47:42.
