data_PCOD9289559
_publ_section_title
;
Structure prediction by ZEFSAII (Michael W. Deem and Ramdas Pophale) SiO2 
 PCOD9289559
Probable space group: C 2/C
;
_chemical_formula_sum "Si O2"
_cell_formula_units_Z 56
_cell_length_a 8.301426
_cell_length_b 26.959318
_cell_length_c 11.777842
_cell_angle_alpha 90.000000
_cell_angle_beta 112.786696
_cell_angle_gamma 90.000000
_cell_volume 2430.167221
_symmetry_space_group_name_H-M "C 2/C"
_symmetry_group_IT_number 15
_symmetry_cell_setting 'monoclinic'
loop_
_space_group_symop_operation_xyz
x,y,z
-x,y,1/2-z
-x,-y,-z
x,-y,1/2+z
1/2+x,1/2+y,z
1/2-x,1/2+y,1/2-z
1/2-x,1/2-y,-z
1/2+x,1/2-y,1/2+z
loop_
_atom_site_type_symbol
_atom_site_label
_atom_site_fract_x
_atom_site_fract_y
_atom_site_fract_z
Si Si1 0.500000 0.656147 0.750000
Si Si2 0.028665 0.919654 0.073930
Si Si3 0.000000 0.541660 0.750000
Si Si4 0.201680 0.884793 0.787076
Si Si5 0.184168 0.693732 0.356642
Si Si6 0.388453 0.875918 0.070925
Si Si7 0.350135 0.793165 0.381380
Si Si8 0.834038 0.980041 0.828969
O O1 0.555432 0.620977 0.869151
O O2 0.326970 0.687392 0.726677
O O3 0.210173 0.893634 0.084618
O O4 0.055911 0.970257 0.151073
O O5 0.926388 0.941419 0.938852
O O6 0.019607 0.579962 0.648904
O O7 0.844649 0.504392 0.677406
O O8 0.270109 0.857840 0.692377
O O9 0.203757 0.944815 0.786463
O O10 0.000000 0.869570 0.750000
O O11 0.329093 0.871795 0.924777
O O12 0.336012 0.733773 0.368850
O O13 0.164272 0.694801 0.487149
O O14 0.000000 0.709433 0.250000
O O15 0.485383 0.823920 0.120181
#
# Coordination Sequence:
#
# PCOD9289559 Si02
#       8
#     4   8   4   8   8   8   8   8
#     4  12  24  40  69 102 131 184 230 282 340 416
#     4  10  23  41  66  98 139 179 234 274 343 408
#     4  10  24  42  65 106 137 184 238 272 344 422
#     4  12  25  43  69 100 136 182 230 288 345 407
#     4  11  24  48  69 105 134 176 235 274 351 417
#     4  11  23  46  68 100 141 180 224 291 347 414
#     4  11  24  44  74  98 139 178 219 294 339 415
#     4  10  22  40  65  97 139 179 227 284 333 410
#
# _framework density 23.043680999999999
#
# number of rings (size 3 to 8) (size 9 to 14) (size 15 to 20)
#    0.000    1.143    3.571    2.571    2.000    1.714 
#    3.857    2.143    0.000    0.000    0.000    0.000 
#    0.000    0.000    0.000    0.000    0.000    0.000 
#
# Total GULP energy -156172.263081 kJ/mol
# GULP energy per Si atom -5577.580824 kJ/mol
# Density = 2.299123 g / cm^3
# Si number density = 23.043681 Si / 1000 Ang^3
#
#
#
# Elastic Constant Matrix: (Units=GPa)
#
#
# Indices 1 2 3 4 5 6 
#
# 1 44.4217 41.3490 17.2120 0.0000 11.8689 0.0000
# 2 41.3490 114.9745 24.7903 0.0000 3.1344 0.0000
# 3 17.2120 24.7903 84.1456 0.0000 7.5287 0.0000
# 4 0.0000 0.0000 0.0000 -125.3855 0.0000 -69.6748
# 5 11.8689 3.1344 7.5287 0.0000 30.6448 0.0000
# 6 0.0000 0.0000 0.0000 -69.6748 0.0000 11.3321
#
#
#
# Elastic Compliance Matrix: (Units=1/GPa)
#
#
# Indices 1 2 3 4 5 6 
#
# 1 0.039484 -0.013191 -0.003009 0.000000 -0.013204 0.000000
# 2 -0.013191 0.013697 -0.001706 0.000000 0.004127 0.000000
# 3 -0.003009 -0.001706 0.013172 0.000000 -0.001896 0.000000
# 4 0.000000 0.000000 0.000000 -0.001806 0.000000 -0.011103
# 5 -0.013204 0.004127 -0.001896 0.000000 0.037790 0.000000
# 6 0.000000 0.000000 0.000000 -0.011103 0.000000 0.019980
#
#
# Mechanical properties :
#
#
# Convention : Reuss Voigt Hill
#
# Bulk Modulus (GPa) = 32.74350 45.58272 39.16311
# Shear Modulus (GPa) = 29.70706 -6.00236 11.85235
#
# Velocity S-wave (km/s) = 3.59439 -1.61568 2.27037
# Velocity P-wave (km/s) = 5.60949 4.04269 4.88926
#
# Compressibility (1/GPa) = 0.03054041
#
# Stress axis : x y z
#
# Youngs Moduli (GPa) = 25.32663 73.00854 75.91874
#
# Poissons Ratio (x) = 0.96307 0.22843
# Poissons Ratio (y) = 0.33409 0.12954
# Poissons Ratio (z) = 0.07620 0.12458
#
# Static dielectric constant tensor:
#      x y z
#    x 1.915770 0.000000 0.029140 
#    y 0.000000 1.822280 0.000000 
#    z 0.029140 0.000000 1.949760 
# 
# From -- ./inp_files/81448.got.cif
#   From: 2010.05.17/outbox.cif.g08.bks.cpg/sg15_41_cif.got.tgz:81448.got - 2010.06.03 18:47:42.
