data_PCOD9289499
_publ_section_title
;
Structure prediction by ZEFSAII (Michael W. Deem and Ramdas Pophale) SiO2 
 PCOD9289499
Probable space group: C 2/C
;
_chemical_formula_sum "Si O2"
_cell_formula_units_Z 52
_cell_length_a 12.404074
_cell_length_b 13.842626
_cell_length_c 21.363393
_cell_angle_alpha 90.000000
_cell_angle_beta 130.906022
_cell_angle_gamma 90.000000
_cell_volume 2772.369615
_symmetry_space_group_name_H-M "C 2/C"
_symmetry_group_IT_number 15
_symmetry_cell_setting 'monoclinic'
loop_
_space_group_symop_operation_xyz
x,y,z
-x,y,1/2-z
-x,-y,-z
x,-y,1/2+z
1/2+x,1/2+y,z
1/2-x,1/2+y,1/2-z
1/2-x,1/2-y,-z
1/2+x,1/2-y,1/2+z
loop_
_atom_site_type_symbol
_atom_site_label
_atom_site_fract_x
_atom_site_fract_y
_atom_site_fract_z
Si Si1 0.081654 0.686439 0.720508
Si Si2 0.161819 0.175078 0.425263
Si Si3 0.733450 0.527333 0.762471
Si Si4 0.177749 0.329731 0.641038
Si Si5 0.500000 0.649476 0.750000
Si Si6 0.905567 0.219293 0.580944
Si Si7 0.008044 0.992972 0.428566
O O1 0.136433 0.600707 0.698305
O O2 0.222007 0.743571 0.795516
O O3 0.000000 0.646133 0.750000
O O4 0.975881 0.765610 0.651308
O O5 0.250000 0.250000 0.500000
O O6 0.265812 0.150241 0.407256
O O7 0.103693 0.080390 0.437955
O O8 0.789876 0.426554 0.809112
O O9 0.621771 0.579930 0.766920
O O10 0.644959 0.507026 0.664976
O O11 0.019433 0.290428 0.591358
O O12 0.438118 0.712104 0.668265
O O13 0.750000 0.250000 0.500000
O O14 0.928537 0.110476 0.565615
O O15 0.000000 0.000000 0.500000
#
# Coordination Sequence:
#
# PCOD9289499 Si02
#       7
#     8   8   8   8   4   8   8
#     4  10  22  40  65  91 125 164 217 262 312 382
#     4  11  24  40  68  96 125 169 219 271 321 384
#     4  11  22  41  66  94 128 174 215 265 321 399
#     4  11  21  43  65  93 124 173 219 261 323 389
#     4  10  22  42  66  92 132 178 214 260 344 386
#     4  11  25  43  64  95 133 171 216 273 327 398
#     4  11  23  40  64  94 132 168 212 269 332 380
#
# _framework density 18.756516999999999
#
# number of rings (size 3 to 8) (size 9 to 14) (size 15 to 20)
#    0.000    1.231    4.615    2.769    3.231    4.923 
#    1.385    2.308    0.000    0.000    0.000    0.000 
#    0.000    0.000    0.000    0.000    0.000    0.000 
#
# Total GULP energy -145186.260601 kJ/mol
# GULP energy per Si atom -5584.086946 kJ/mol
# Density = 1.871383 g / cm^3
# Si number density = 18.756517 Si / 1000 Ang^3
#
#
#
# Elastic Constant Matrix: (Units=GPa)
#
#
# Indices 1 2 3 4 5 6 
#
# 1 137.9904 70.1141 77.8321 0.0000 3.0575 0.0000
# 2 70.1141 112.8591 47.4632 0.0000 -5.9075 0.0000
# 3 77.8321 47.4632 106.7801 0.0000 -3.0006 0.0000
# 4 0.0000 0.0000 0.0000 30.0237 0.0000 -5.1458
# 5 3.0575 -5.9075 -3.0006 0.0000 41.2886 0.0000
# 6 0.0000 0.0000 0.0000 -5.1458 0.0000 13.4591
#
#
#
# Elastic Compliance Matrix: (Units=1/GPa)
#
#
# Indices 1 2 3 4 5 6 
#
# 1 0.015081 -0.005966 -0.008413 0.000000 -0.002582 0.000000
# 2 -0.005966 0.013319 -0.001509 0.000000 0.002238 0.000000
# 3 -0.008413 -0.001509 0.016212 0.000000 0.001585 0.000000
# 4 0.000000 0.000000 0.000000 0.035643 0.000000 0.013627
# 5 -0.002582 0.002238 0.001585 0.000000 0.024846 0.000000
# 6 0.000000 0.000000 0.000000 0.013627 0.000000 0.079509
#
#
# Mechanical properties :
#
#
# Convention : Reuss Voigt Hill
#
# Bulk Modulus (GPa) = 77.90256 83.16093 80.53175
# Shear Modulus (GPa) = 22.65889 27.76895 25.21392
#
# Velocity S-wave (km/s) = 3.47948 3.85190 3.67041
# Velocity P-wave (km/s) = 7.60040 8.01350 7.80968
#
# Compressibility (1/GPa) = 0.01283655
#
# Stress axis : x y z
#
# Youngs Moduli (GPa) = 66.30957 75.08325 61.68098
#
# Poissons Ratio (x) = 0.44795 0.51893
# Poissons Ratio (y) = 0.39560 0.09305
# Poissons Ratio (z) = 0.55787 0.11327
#
# Static dielectric constant tensor:
#      x y z
#    x 1.695910 0.000000 0.041360 
#    y 0.000000 1.609640 0.000000 
#    z 0.041360 0.000000 1.762240 
# 
# From -- ./inp_files/237479.got.cif
#   From: 2010.05.17/outbox.cif.g08.bks.cpg/sg15_119_cif.got.tgz:237479.got - 2010.06.03 18:47:42.
