data_PCOD9289850
_publ_section_title
;
Structure prediction by ZEFSAII (Michael W. Deem and Ramdas Pophale) SiO2 
 PCOD9289850
Probable space group: C 2/C
;
_chemical_formula_sum "Si O2"
_cell_formula_units_Z 56
_cell_length_a 11.692078
_cell_length_b 27.348672
_cell_length_c 8.710406
_cell_angle_alpha 90.000000
_cell_angle_beta 111.418396
_cell_angle_gamma 90.000000
_cell_volume 2592.909690
_symmetry_space_group_name_H-M "C 2/C"
_symmetry_group_IT_number 15
_symmetry_cell_setting 'monoclinic'
loop_
_space_group_symop_operation_xyz
x,y,z
-x,y,1/2-z
-x,-y,-z
x,-y,1/2+z
1/2+x,1/2+y,z
1/2-x,1/2+y,1/2-z
1/2-x,1/2-y,-z
1/2+x,1/2-y,1/2+z
loop_
_atom_site_type_symbol
_atom_site_label
_atom_site_fract_x
_atom_site_fract_y
_atom_site_fract_z
Si Si1 0.143251 0.015054 0.081092
Si Si2 0.584258 0.149941 0.658169
Si Si3 0.897045 0.675203 0.324328
Si Si4 0.827485 0.110695 0.238016
Si Si5 0.784605 0.072257 0.694652
Si Si6 0.944608 0.142118 0.970844
Si Si7 0.712813 0.270379 0.147859
O O1 0.155560 0.053564 0.226599
O O2 0.221230 0.968012 0.171515
O O3 0.183575 0.043461 0.946337
O O4 0.000000 0.000000 0.000000
O O5 0.500000 0.127166 0.750000
O O6 0.480886 0.179301 0.514997
O O7 0.664306 0.106514 0.621277
O O8 0.684172 0.190624 0.754301
O O9 0.808390 0.629345 0.300099
O O10 0.813196 0.723056 0.261659
O O11 0.000000 0.667973 0.250000
O O12 0.916058 0.134359 0.410721
O O13 0.870598 0.127130 0.090530
O O14 0.892750 0.108238 0.809516
O O15 0.911172 0.197774 0.920541
O O16 0.750000 0.250000 0.000000
#
# Coordination Sequence:
#
# PCOD9289850 Si02
#       7
#     8   8   8   8   8   8   8
#     4  12  24  42  70  98 138 170 228 291 353 399
#     4  11  24  46  73  96 141 182 228 280 345 412
#     4  12  26  44  65 102 145 183 226 277 345 416
#     4  11  23  41  68  98 132 176 227 283 343 405
#     4  11  24  44  65 103 132 174 223 289 346 412
#     4  10  22  40  68  98 134 170 229 287 342 394
#     4  11  22  43  71 100 132 181 232 279 333 415
#
# _framework density 21.597359999999998
#
# number of rings (size 3 to 8) (size 9 to 14) (size 15 to 20)
#    0.000    0.857    4.286    3.000    4.000    0.571 
#    5.143    3.571    0.000    0.000    0.000    0.000 
#    0.000    0.000    0.000    0.000    0.000    0.000 
#
# Total GULP energy -156436.550489 kJ/mol
# GULP energy per Si atom -5587.019660 kJ/mol
# Density = 2.154820 g / cm^3
# Si number density = 21.597360 Si / 1000 Ang^3
#
#
#
# Elastic Constant Matrix: (Units=GPa)
#
#
# Indices 1 2 3 4 5 6 
#
# 1 111.6389 28.2023 17.8609 0.0000 3.7647 0.0000
# 2 28.2023 110.2352 8.7431 0.0000 8.3438 0.0000
# 3 17.8609 8.7431 33.4223 0.0000 -8.6144 0.0000
# 4 0.0000 0.0000 0.0000 28.2725 0.0000 5.1744
# 5 3.7647 8.3438 -8.6144 0.0000 27.7657 0.0000
# 6 0.0000 0.0000 0.0000 5.1744 0.0000 64.9501
#
#
#
# Elastic Compliance Matrix: (Units=1/GPa)
#
#
# Indices 1 2 3 4 5 6 
#
# 1 0.010475 -0.002029 -0.005734 0.000000 -0.002590 0.000000
# 2 -0.002029 0.010050 -0.002448 0.000000 -0.003505 0.000000
# 3 -0.005734 -0.002448 0.036971 0.000000 0.012984 0.000000
# 4 0.000000 0.000000 0.000000 0.035893 0.000000 -0.002860
# 5 -0.002590 -0.003505 0.012984 0.000000 0.041448 0.000000
# 6 0.000000 0.000000 0.000000 -0.002860 0.000000 0.015624
#
#
# Mechanical properties :
#
#
# Convention : Reuss Voigt Hill
#
# Bulk Modulus (GPa) = 26.97350 40.54545 33.75947
# Shear Modulus (GPa) = 27.28620 37.56368 32.42494
#
# Velocity S-wave (km/s) = 3.55830 4.17498 3.87891
# Velocity P-wave (km/s) = 5.42202 6.48496 5.97717
#
# Compressibility (1/GPa) = 0.03707343
#
# Stress axis : x y z
#
# Youngs Moduli (GPa) = 95.46729 99.50218 27.04787
#
# Poissons Ratio (x) = 0.20189 0.15510
# Poissons Ratio (y) = 0.19370 0.06621
# Poissons Ratio (z) = 0.54745 0.24358
#
# Static dielectric constant tensor:
#      x y z
#    x 1.701550 0.000000 0.032800 
#    y 0.000000 1.795830 0.000000 
#    z 0.032800 0.000000 1.772480 
# 
# From -- ./inp_files/34340.got.cif
#   From: 2010.05.17/outbox.cif.g08.bks.cpg/sg15_18_cif.got.tgz:34340.got - 2010.06.03 18:47:42.
