data_PCOD9289617
_publ_section_title
;
Structure prediction by ZEFSAII (Michael W. Deem and Ramdas Pophale) SiO2 
 PCOD9289617
Probable space group: C 2/C
;
_chemical_formula_sum "Si O2"
_cell_formula_units_Z 36
_cell_length_a 6.744949
_cell_length_b 19.013965
_cell_length_c 13.569418
_cell_angle_alpha 90.000000
_cell_angle_beta 90.505954
_cell_angle_gamma 90.000000
_cell_volume 1740.185911
_symmetry_space_group_name_H-M "C 2/C"
_symmetry_group_IT_number 15
_symmetry_cell_setting 'monoclinic'
loop_
_space_group_symop_operation_xyz
x,y,z
-x,y,1/2-z
-x,-y,-z
x,-y,1/2+z
1/2+x,1/2+y,z
1/2-x,1/2+y,1/2-z
1/2-x,1/2-y,-z
1/2+x,1/2-y,1/2+z
loop_
_atom_site_type_symbol
_atom_site_label
_atom_site_fract_x
_atom_site_fract_y
_atom_site_fract_z
Si Si1 0.967737 0.058343 0.866581
Si Si2 0.817481 0.788922 0.401400
Si Si3 0.691149 0.954324 0.978080
Si Si4 0.876013 0.327160 0.656571
Si Si5 0.500000 0.734927 0.250000
O O1 0.869660 0.129634 0.908389
O O2 0.000000 0.063604 0.750000
O O3 0.828068 0.993540 0.897421
O O4 0.175366 0.051111 0.924077
O O5 0.750000 0.750000 0.500000
O O6 0.642071 0.779211 0.321560
O O7 0.010999 0.745512 0.366934
O O8 0.625456 0.879429 0.934873
O O9 0.500000 0.000000 0.000000
O O10 0.651717 0.311834 0.687481
O O11 0.000000 0.357793 0.750000
#
# Coordination Sequence:
#
# PCOD9289617 Si02
#       5
#     8   8   8   8   4
#     4  11  26  43  65  97 136 170 225 277 334 399
#     4  11  23  42  66  98 132 170 220 279 332 398
#     4  11  26  43  64  96 130 177 219 273 333 398
#     4  10  23  40  66  94 126 171 223 263 329 395
#     4  10  22  40  66  92 128 168 212 268 330 388
#
# _framework density 20.687442999999998
#
# number of rings (size 3 to 8) (size 9 to 14) (size 15 to 20)
#    0.000    1.333    0.000    4.667    4.667   12.444 
#    0.000    0.000    0.000    0.000    0.000    0.000 
#    0.000    0.000    0.000    0.000    0.000    0.000 
#
# Total GULP energy -100704.693939 kJ/mol
# GULP energy per Si atom -5594.705219 kJ/mol
# Density = 2.064036 g / cm^3
# Si number density = 20.687443 Si / 1000 Ang^3
#
#
#
# Elastic Constant Matrix: (Units=GPa)
#
#
# Indices 1 2 3 4 5 6 
#
# 1 118.1436 23.8150 11.7409 0.0000 7.1475 0.0000
# 2 23.8150 64.7764 8.9991 0.0000 17.7263 0.0000
# 3 11.7409 8.9991 72.4675 0.0000 -5.7950 0.0000
# 4 0.0000 0.0000 0.0000 160.8146 0.0000 4.3877
# 5 7.1475 17.7263 -5.7950 0.0000 25.1545 0.0000
# 6 0.0000 0.0000 0.0000 4.3877 0.0000 13.2366
#
#
#
# Elastic Compliance Matrix: (Units=1/GPa)
#
#
# Indices 1 2 3 4 5 6 
#
# 1 0.009237 -0.003022 -0.001183 0.000000 -0.000768 0.000000
# 2 -0.003022 0.021037 -0.003300 0.000000 -0.014727 0.000000
# 3 -0.001183 -0.003300 0.014888 0.000000 0.006092 0.000000
# 4 0.000000 0.000000 0.000000 0.006275 0.000000 -0.002080
# 5 -0.000768 -0.014727 0.006092 0.000000 0.051754 0.000000
# 6 0.000000 0.000000 0.000000 -0.002080 0.000000 0.076237
#
#
# Mechanical properties :
#
#
# Convention : Reuss Voigt Hill
#
# Bulk Modulus (GPa) = 33.16472 38.27752 35.72112
# Shear Modulus (GPa) = 24.45118 53.89665 39.17391
#
# Velocity S-wave (km/s) = 3.44166 5.10973 4.35628
# Velocity P-wave (km/s) = 5.64442 7.30448 6.52744
#
# Compressibility (1/GPa) = 0.03015252
#
# Stress axis : x y z
#
# Youngs Moduli (GPa) = 108.25588 47.53502 67.16857
#
# Poissons Ratio (x) = 0.14364 0.07945
# Poissons Ratio (y) = 0.32711 0.22169
# Poissons Ratio (z) = 0.12804 0.15689
#
# Static dielectric constant tensor:
#      x y z
#    x 1.707500 0.000000 -0.014230 
#    y 0.000000 1.704500 0.000000 
#    z -0.014230 0.000000 1.754440 
# 
# From -- ./inp_files/128750.got.cif
#   From: 2010.05.17/outbox.cif.g08.bks.cpg/sg15_65_cif.got.tgz:128750.got - 2010.06.03 18:47:42.
