data_PCOD9289323
_publ_section_title
;
Structure prediction by ZEFSAII (Michael W. Deem and Ramdas Pophale) SiO2 
 PCOD9289323
Probable space group: C 2/C
;
_chemical_formula_sum "Si O2"
_cell_formula_units_Z 56
_cell_length_a 23.029876
_cell_length_b 25.929610
_cell_length_c 10.539075
_cell_angle_alpha 90.000000
_cell_angle_beta 156.010340
_cell_angle_gamma 90.000000
_cell_volume 2558.746736
_symmetry_space_group_name_H-M "C 2/C"
_symmetry_group_IT_number 15
_symmetry_cell_setting 'monoclinic'
loop_
_space_group_symop_operation_xyz
x,y,z
-x,y,1/2-z
-x,-y,-z
x,-y,1/2+z
1/2+x,1/2+y,z
1/2-x,1/2+y,1/2-z
1/2-x,1/2-y,-z
1/2+x,1/2-y,1/2+z
loop_
_atom_site_type_symbol
_atom_site_label
_atom_site_fract_x
_atom_site_fract_y
_atom_site_fract_z
Si Si1 0.500000 0.225483 0.750000
Si Si2 0.728373 0.112355 0.000629
Si Si3 0.159707 0.792850 0.892501
Si Si4 0.349002 0.165808 0.998827
Si Si5 0.247226 0.554075 0.303164
Si Si6 0.397220 0.149275 0.365675
Si Si7 0.000000 0.994653 0.750000
Si Si8 0.778723 0.555610 0.779873
O O1 0.528368 0.261628 0.686607
O O2 0.383339 0.185409 0.462042
O O3 0.566926 0.137031 0.680232
O O4 0.741113 0.075817 0.903319
O O5 0.841846 0.158095 0.202334
O O6 0.753458 0.081206 0.178563
O O7 0.250000 0.750000 0.000000
O O8 0.234746 0.813496 0.171359
O O9 0.350758 0.103185 0.993720
O O10 0.500000 0.185675 0.250000
O O11 0.334119 0.176897 0.116596
O O12 0.179030 0.595145 0.259920
O O13 0.405958 0.532226 0.652077
O O14 0.156812 0.501403 0.106112
O O15 0.871986 0.957386 0.450962
#
# Coordination Sequence:
#
# PCOD9289323 Si02
#       8
#     4   8   8   8   8   8   4   8
#     4  12  24  45  70  94 128 174 225 274 348 398
#     4  11  21  40  67  94 129 176 218 268 334 392
#     4  11  22  44  69  93 128 174 214 282 343 389
#     4  11  22  40  65  99 131 164 221 271 325 398
#     4  10  22  40  63  94 133 180 210 270 325 392
#     4  12  22  42  66  97 132 164 222 280 322 404
#     4   8  22  43  54  92 134 172 217 258 322 388
#     4   9  22  39  61  93 132 176 213 261 322 388
#
# _framework density 21.885715000000001
#
# number of rings (size 3 to 8) (size 9 to 14) (size 15 to 20)
#    0.857    0.571    5.714    0.000    2.000    5.143 
#    5.143    0.000    3.143    0.000    0.000    0.000 
#    0.000    0.000    0.000    0.000    0.000    0.000 
#
# Total GULP energy -155876.183221 kJ/mol
# GULP energy per Si atom -5567.006544 kJ/mol
# Density = 2.183590 g / cm^3
# Si number density = 21.885715 Si / 1000 Ang^3
#
#
#
# Elastic Constant Matrix: (Units=GPa)
#
#
# Indices 1 2 3 4 5 6 
#
# 1 87.2098 30.7080 4.6752 0.0000 -16.1961 0.0000
# 2 30.7080 108.2608 2.6446 0.0000 -3.2228 0.0000
# 3 4.6752 2.6446 33.1752 0.0000 5.4735 0.0000
# 4 0.0000 0.0000 0.0000 16.8942 0.0000 9.6536
# 5 -16.1961 -3.2228 5.4735 0.0000 41.3623 0.0000
# 6 0.0000 0.0000 0.0000 9.6536 0.0000 27.7111
#
#
#
# Elastic Compliance Matrix: (Units=1/GPa)
#
#
# Indices 1 2 3 4 5 6 
#
# 1 0.013940 -0.003727 -0.002576 0.000000 0.005509 0.000000
# 2 -0.003727 0.010280 -0.000190 0.000000 -0.000633 0.000000
# 3 -0.002576 -0.000190 0.031375 0.000000 -0.005175 0.000000
# 4 0.000000 0.000000 0.000000 0.073903 0.000000 -0.025745
# 5 0.005509 -0.000633 -0.005175 0.000000 0.026969 0.000000
# 6 0.000000 0.000000 0.000000 -0.025745 0.000000 0.045055
#
#
# Mechanical properties :
#
#
# Convention : Reuss Voigt Hill
#
# Bulk Modulus (GPa) = 23.46935 33.85572 28.66253
# Shear Modulus (GPa) = 21.86151 29.90139 25.88145
#
# Velocity S-wave (km/s) = 3.16396 3.70029 3.44259
# Velocity P-wave (km/s) = 4.90860 5.81026 5.37836
#
# Compressibility (1/GPa) = 0.04260876
#
# Stress axis : x y z
#
# Youngs Moduli (GPa) = 71.73477 97.27683 31.87240
#
# Poissons Ratio (x) = 0.36257 0.08211
# Poissons Ratio (y) = 0.26737 0.00605
# Poissons Ratio (z) = 0.18481 0.01846
#
# Static dielectric constant tensor:
#      x y z
#    x 1.840040 0.000000 0.020300 
#    y 0.000000 1.828800 0.000000 
#    z 0.020300 0.000000 1.855260 
# 
# From -- ./inp_files/124545.got.cif
#   From: 2010.05.17/outbox.cif.g08.bks.cpg/sg15_63_cif.got.tgz:124545.got - 2010.06.03 18:47:42.
