data_PCOD9289693
_publ_section_title
;
Structure prediction by ZEFSAII (Michael W. Deem and Ramdas Pophale) SiO2 
 PCOD9289693
Probable space group: C 2/C
;
_chemical_formula_sum "Si O2"
_cell_formula_units_Z 44
_cell_length_a 9.680790
_cell_length_b 11.881649
_cell_length_c 16.202613
_cell_angle_alpha 90.000000
_cell_angle_beta 92.455758
_cell_angle_gamma 90.000000
_cell_volume 1861.973689
_symmetry_space_group_name_H-M "C 2/C"
_symmetry_group_IT_number 15
_symmetry_cell_setting 'monoclinic'
loop_
_space_group_symop_operation_xyz
x,y,z
-x,y,1/2-z
-x,-y,-z
x,-y,1/2+z
1/2+x,1/2+y,z
1/2-x,1/2+y,1/2-z
1/2-x,1/2-y,-z
1/2+x,1/2-y,1/2+z
loop_
_atom_site_type_symbol
_atom_site_label
_atom_site_fract_x
_atom_site_fract_y
_atom_site_fract_z
Si Si1 0.801135 0.418851 0.971241
Si Si2 0.735183 0.787076 0.696901
Si Si3 0.419598 0.167078 0.961943
Si Si4 0.000000 0.935957 0.750000
Si Si5 0.332522 0.555861 0.878631
Si Si6 0.708561 0.186064 0.372450
O O1 0.809890 0.352652 0.886168
O O2 0.920359 0.364227 0.032090
O O3 0.839684 0.547898 0.952960
O O4 0.662423 0.412254 0.023714
O O5 0.873275 0.854771 0.724865
O O6 0.736860 0.657410 0.672265
O O7 0.652070 0.789254 0.780948
O O8 0.384211 0.217791 0.051533
O O9 0.354047 0.249950 0.893358
O O10 0.962992 0.013499 0.828525
O O11 0.234313 0.446730 0.877099
#
# Coordination Sequence:
#
# PCOD9289693 Si02
#       6
#     8   8   8   4   8   8
#     4  10  22  40  67 101 133 181 240 285 350 422
#     4  11  24  42  66  99 136 179 238 286 348 422
#     4   9  20  42  66  96 141 179 229 295 347 419
#     4  10  26  46  66 100 144 188 228 300 354 406
#     4  10  23  43  62  98 131 181 233 276 357 413
#     4   9  21  40  66  96 136 188 227 278 364 408
#
# _framework density 23.630838000000001
#
# number of rings (size 3 to 8) (size 9 to 14) (size 15 to 20)
#    0.000    2.182    0.000    0.545   10.182    2.909 
#    6.545    0.000    0.000    0.000    0.000    0.000 
#    0.000    0.000    0.000    0.000    0.000    0.000 
#
# Total GULP energy -122820.226500 kJ/mol
# GULP energy per Si atom -5582.737568 kJ/mol
# Density = 2.357705 g / cm^3
# Si number density = 23.630838 Si / 1000 Ang^3
#
#
#
# Elastic Constant Matrix: (Units=GPa)
#
#
# Indices 1 2 3 4 5 6 
#
# 1 53.0907 22.8049 36.4338 0.0000 -0.3151 0.0000
# 2 22.8049 135.5288 66.2749 0.0000 6.8229 0.0000
# 3 36.4338 66.2749 151.3441 0.0000 -16.0042 0.0000
# 4 0.0000 0.0000 0.0000 18.5920 0.0000 -2.1854
# 5 -0.3151 6.8229 -16.0042 0.0000 28.5376 0.0000
# 6 0.0000 0.0000 0.0000 -2.1854 0.0000 21.5750
#
#
#
# Elastic Compliance Matrix: (Units=1/GPa)
#
#
# Indices 1 2 3 4 5 6 
#
# 1 0.022936 -0.001160 -0.005270 0.000000 -0.002425 0.000000
# 2 -0.001160 0.010121 -0.004688 0.000000 -0.005062 0.000000
# 3 -0.005270 -0.004688 0.010674 0.000000 0.007049 0.000000
# 4 0.000000 0.000000 0.000000 0.054435 0.000000 0.005514
# 5 -0.002425 -0.005062 0.007049 0.000000 0.040178 0.000000
# 6 0.000000 0.000000 0.000000 0.005514 0.000000 0.046909
#
#
# Mechanical properties :
#
#
# Convention : Reuss Voigt Hill
#
# Bulk Modulus (GPa) = 46.52180 65.66564 56.09372
# Shear Modulus (GPa) = 23.29327 28.03758 25.66542
#
# Velocity S-wave (km/s) = 3.14302 3.44827 3.29918
# Velocity P-wave (km/s) = 5.73594 6.61079 6.18884
#
# Compressibility (1/GPa) = 0.02149530
#
# Stress axis : x y z
#
# Youngs Moduli (GPa) = 43.59932 98.80386 93.68177
#
# Poissons Ratio (x) = 0.11464 0.49369
# Poissons Ratio (y) = 0.05059 0.43918
# Poissons Ratio (z) = 0.22976 0.46320
#
# Static dielectric constant tensor:
#      x y z
#    x 2.002030 0.000000 -0.087430 
#    y 0.000000 1.858290 0.000000 
#    z -0.087430 0.000000 1.972740 
# 
# From -- ./inp_files/142326.got.cif
#   From: 2010.05.17/outbox.cif.g08.bks.cpg/sg15_72_cif.got.tgz:142326.got - 2010.06.03 18:47:42.
