data_PCOD9289805
_publ_section_title
;
Structure prediction by ZEFSAII (Michael W. Deem and Ramdas Pophale) SiO2 
 PCOD9289805
Probable space group: C 2/C
;
_chemical_formula_sum "Si O2"
_cell_formula_units_Z 40
_cell_length_a 12.659869
_cell_length_b 13.915293
_cell_length_c 8.173644
_cell_angle_alpha 90.000000
_cell_angle_beta 87.722329
_cell_angle_gamma 90.000000
_cell_volume 1438.778831
_symmetry_space_group_name_H-M "C 2/C"
_symmetry_group_IT_number 15
_symmetry_cell_setting 'monoclinic'
loop_
_space_group_symop_operation_xyz
x,y,z
-x,y,1/2-z
-x,-y,-z
x,-y,1/2+z
1/2+x,1/2+y,z
1/2-x,1/2+y,1/2-z
1/2-x,1/2-y,-z
1/2+x,1/2-y,1/2+z
loop_
_atom_site_type_symbol
_atom_site_label
_atom_site_fract_x
_atom_site_fract_y
_atom_site_fract_z
Si Si1 0.878181 0.532694 0.974226
Si Si2 0.588896 0.324047 0.588294
Si Si3 0.877978 0.828038 0.258906
Si Si4 0.000000 0.989427 0.750000
Si Si5 0.000000 0.653518 0.750000
Si Si6 0.719240 0.137901 0.201978
O O1 0.897284 0.590513 0.800358
O O2 0.803642 0.442486 0.934024
O O3 0.840768 0.595871 0.130938
O O4 0.000000 0.500000 0.000000
O O5 0.660621 0.320833 0.425416
O O6 0.513047 0.416278 0.596802
O O7 0.515350 0.230686 0.604134
O O8 0.664109 0.341383 0.737970
O O9 0.820262 0.742801 0.352502
O O10 0.000000 0.795164 0.250000
O O11 0.897395 0.941738 0.276864
#
# Coordination Sequence:
#
# PCOD9289805 Si02
#       6
#     8   8   8   4   4   8
#     4  12  24  45  69 101 136 183 222 277 340 409
#     4  11  24  44  65 100 133 175 225 286 332 397
#     4  10  22  40  68  91 130 176 218 267 338 399
#     4   9  24  41  68  88 132 179 224 263 348 394
#     4  11  24  41  72  92 138 179 220 275 352 398
#     4  12  26  42  73 102 137 172 234 282 332 398
#
# _framework density 27.801356999999999
#
# number of rings (size 3 to 8) (size 9 to 14) (size 15 to 20)
#    0.600    0.400    4.000    2.400    2.800    0.000 
#    0.000    1.000    0.000    0.000    0.000    0.000 
#    0.000    0.000    0.000    0.000    0.000    0.000 
#
# Total GULP energy -111525.298422 kJ/mol
# GULP energy per Si atom -5576.264921 kJ/mol
# Density = 2.773808 g / cm^3
# Si number density = 27.801357 Si / 1000 Ang^3
#
#
#
# Elastic Constant Matrix: (Units=GPa)
#
#
# Indices 1 2 3 4 5 6 
#
# 1 85.1915 7.2043 16.4657 0.0000 2.5956 0.0000
# 2 7.2043 176.6066 10.3060 0.0000 -11.3768 0.0000
# 3 16.4657 10.3060 67.2094 0.0000 -8.6729 0.0000
# 4 0.0000 0.0000 0.0000 9.1719 0.0000 19.3853
# 5 2.5956 -11.3768 -8.6729 0.0000 56.6413 0.0000
# 6 0.0000 0.0000 0.0000 19.3853 0.0000 18.6409
#
#
#
# Elastic Compliance Matrix: (Units=1/GPa)
#
#
# Indices 1 2 3 4 5 6 
#
# 1 0.012410 -0.000396 -0.003125 0.000000 -0.001127 0.000000
# 2 -0.000396 0.005786 -0.000651 0.000000 0.001081 0.000000
# 3 -0.003125 -0.000651 0.016063 0.000000 0.002472 0.000000
# 4 0.000000 0.000000 0.000000 -0.091013 0.000000 0.094647
# 5 -0.001127 0.001081 0.002472 0.000000 0.018302 0.000000
# 6 0.000000 0.000000 0.000000 0.094647 0.000000 -0.044781
#
#
# Mechanical properties :
#
#
# Convention : Reuss Voigt Hill
#
# Bulk Modulus (GPa) = 38.58740 44.10663 41.34702
# Shear Modulus (GPa) = -75.47157 36.55960 -19.45598
#
# Velocity S-wave (km/s) = -5.21590 3.63027 -2.64828
# Velocity P-wave (km/s) = 4.72910 5.78543 2.35656
#
# Compressibility (1/GPa) = 0.02591519
#
# Stress axis : x y z
#
# Youngs Moduli (GPa) = 80.57947 172.82912 62.25394
#
# Poissons Ratio (x) = 0.06852 0.19454
# Poissons Ratio (y) = 0.03195 0.04051
# Poissons Ratio (z) = 0.25181 0.11245
#
# Static dielectric constant tensor:
#      x y z
#    x 2.117220 0.000000 0.049490 
#    y 0.000000 2.246020 0.000000 
#    z 0.049490 0.000000 2.306660 
# 
# From -- ./inp_files/38005.got.cif
#   From: 2010.05.17/outbox.cif.g08.bks.cpg/sg15_20_cif.got.tgz:38005.got - 2010.06.03 18:47:42.
