data_PCOD9289365
_publ_section_title
;
Structure prediction by ZEFSAII (Michael W. Deem and Ramdas Pophale) SiO2 
 PCOD9289365
Probable space group: C 2/C
;
_chemical_formula_sum "Si O2"
_cell_formula_units_Z 44
_cell_length_a 27.121519
_cell_length_b 14.574500
_cell_length_c 14.070763
_cell_angle_alpha 90.000000
_cell_angle_beta 19.258545
_cell_angle_gamma 90.000000
_cell_volume 1834.498559
_symmetry_space_group_name_H-M "C 2/C"
_symmetry_group_IT_number 15
_symmetry_cell_setting 'monoclinic'
loop_
_space_group_symop_operation_xyz
x,y,z
-x,y,1/2-z
-x,-y,-z
x,-y,1/2+z
1/2+x,1/2+y,z
1/2-x,1/2+y,1/2-z
1/2-x,1/2-y,-z
1/2+x,1/2-y,1/2+z
loop_
_atom_site_type_symbol
_atom_site_label
_atom_site_fract_x
_atom_site_fract_y
_atom_site_fract_z
Si Si1 0.283435 0.305208 0.840044
Si Si2 0.361955 0.605143 0.594192
Si Si3 0.413227 0.129708 0.507890
Si Si4 0.793965 0.642136 0.426321
Si Si5 0.000000 0.280277 0.250000
Si Si6 0.970679 0.924986 0.197739
O O1 0.347763 0.228204 0.653023
O O2 0.413466 0.381444 0.591381
O O3 0.250000 0.250000 0.000000
O O4 0.125545 0.335254 0.080033
O O5 0.279296 0.607553 0.843710
O O6 0.424451 0.706737 0.459501
O O7 0.491680 0.531841 0.366442
O O8 0.237738 0.574881 0.742042
O O9 0.500000 0.132589 0.250000
O O10 0.532535 0.115704 0.375567
O O11 0.750000 0.750000 0.500000
O O12 0.699997 0.595251 0.515454
O O13 0.000000 0.886485 0.250000
#
# Coordination Sequence:
#
# PCOD9289365 Si02
#       6
#     8   8   8   8   4   8
#     4  11  23  38  64  96 131 167 221 266 323 390
#     4  10  22  44  66  92 134 172 212 273 334 383
#     4   9  20  41  67  90 123 174 218 266 324 384
#     4  11  22  38  71  96 125 172 221 270 321 393
#     4  10  22  40  64  86 128 178 212 268 324 380
#     4  12  25  42  67 100 132 172 223 271 329 394
#
# _framework density 23.984755
#
# number of rings (size 3 to 8) (size 9 to 14) (size 15 to 20)
#    0.000    1.455    2.727    2.182    5.091    0.000 
#    4.909    0.909    0.000    0.000    0.000    0.000 
#    0.000    0.000    0.000    0.000    0.000    0.000 
#
# Total GULP energy -122714.375378 kJ/mol
# GULP energy per Si atom -5577.926154 kJ/mol
# Density = 2.393016 g / cm^3
# Si number density = 23.984755 Si / 1000 Ang^3
#
#
#
# Elastic Constant Matrix: (Units=GPa)
#
#
# Indices 1 2 3 4 5 6 
#
# 1 104.2398 18.8192 44.4844 0.0002 -48.3882 -0.0001
# 2 18.8192 45.2346 8.6584 0.0003 -8.3199 -0.0001
# 3 44.4844 8.6584 90.3143 0.0004 -33.3970 -0.0001
# 4 0.0002 0.0003 0.0004 16.7504 -0.0002 -2.7319
# 5 -48.3882 -8.3199 -33.3970 -0.0002 69.0636 0.0001
# 6 -0.0001 -0.0001 -0.0001 -2.7319 0.0001 24.3164
#
#
#
# Elastic Compliance Matrix: (Units=1/GPa)
#
#
# Indices 1 2 3 4 5 6 
#
# 1 0.016329 -0.004337 -0.004371 0.000000 0.008804 0.000000
# 2 -0.004337 0.023909 -0.000261 0.000000 -0.000285 0.000000
# 3 -0.004371 -0.000261 0.014743 0.000000 0.004035 0.000000
# 4 0.000000 0.000000 0.000000 0.060814 0.000000 0.006832
# 5 0.008804 -0.000285 0.004035 0.000000 0.022565 0.000000
# 6 0.000000 0.000000 0.000000 0.006832 0.000000 0.041892
#
#
# Mechanical properties :
#
#
# Convention : Reuss Voigt Hill
#
# Bulk Modulus (GPa) = 26.99718 42.63474 34.81596
# Shear Modulus (GPa) = 23.74872 33.21452 28.48162
#
# Velocity S-wave (km/s) = 3.15009 3.72535 3.44973
# Velocity P-wave (km/s) = 4.95088 6.02650 5.51497
#
# Compressibility (1/GPa) = 0.03704091
#
# Stress axis : x y z
#
# Youngs Moduli (GPa) = 61.24232 41.82524 67.83058
#
# Poissons Ratio (x) = 0.18141 0.29650
# Poissons Ratio (y) = 0.26562 0.01771
# Poissons Ratio (z) = 0.26770 0.01092
#
# Static dielectric constant tensor:
#      x y z
#    x 1.995940 0.000000 -0.067780 
#    y 0.000000 1.938660 0.000000 
#    z -0.067780 0.000000 1.971290 
# 
# From -- ./inp_files/178773.got.cif
#   From: 2010.05.17/outbox.cif.g08.bks.cpg/sg15_90_cif.got.tgz:178773.got - 2010.06.03 18:47:42.
