data_PCOD9289884
_publ_section_title
;
Structure prediction by ZEFSAII (Michael W. Deem and Ramdas Pophale) SiO2 
 PCOD9289884
Probable space group: C 2/C
;
_chemical_formula_sum "Si O2"
_cell_formula_units_Z 56
_cell_length_a 9.479988
_cell_length_b 29.372472
_cell_length_c 12.877898
_cell_angle_alpha 90.000000
_cell_angle_beta 128.581527
_cell_angle_gamma 90.000000
_cell_volume 2803.143739
_symmetry_space_group_name_H-M "C 2/C"
_symmetry_group_IT_number 15
_symmetry_cell_setting 'monoclinic'
loop_
_space_group_symop_operation_xyz
x,y,z
-x,y,1/2-z
-x,-y,-z
x,-y,1/2+z
1/2+x,1/2+y,z
1/2-x,1/2+y,1/2-z
1/2-x,1/2-y,-z
1/2+x,1/2-y,1/2+z
loop_
_atom_site_type_symbol
_atom_site_label
_atom_site_fract_x
_atom_site_fract_y
_atom_site_fract_z
Si Si1 0.647868 0.889664 0.905868
Si Si2 0.305230 0.210990 0.107423
Si Si3 0.591039 0.185214 0.904355
Si Si4 0.519324 0.711726 0.384599
Si Si5 0.159541 0.973324 0.520210
Si Si6 0.878361 0.597642 0.879396
Si Si7 0.500000 0.031050 0.750000
Si Si8 0.000000 0.934883 0.250000
O O1 0.500000 0.889229 0.750000
O O2 0.691652 0.837512 0.949838
O O3 0.812182 0.920102 0.939115
O O4 0.581177 0.913488 0.981262
O O5 0.500000 0.220408 0.250000
O O6 0.162989 0.202701 0.135889
O O7 0.250000 0.250000 0.000000
O O8 0.500000 0.186567 0.750000
O O9 0.561346 0.235769 0.935866
O O10 0.484680 0.144596 0.910042
O O11 0.808521 0.181127 0.003477
O O12 0.500000 0.708797 0.250000
O O13 0.102353 0.968377 0.374974
O O14 0.339903 0.999473 0.634253
O O15 0.000000 0.000000 0.500000
O O16 0.939812 0.562753 0.818703
O O17 0.658846 0.596440 0.774907
#
# Coordination Sequence:
#
# PCOD9289884 Si02
#       8
#     8   8   8   8   8   8   4   4
#     4  10  24  43  68  95 145 183 226 289 349 415
#     4  11  26  46  71 103 142 186 237 285 358 423
#     4  10  22  40  69  95 139 173 227 287 347 405
#     4  10  24  42  67  98 137 183 227 285 353 419
#     4  11  23  44  68 101 141 178 234 284 358 414
#     4  11  23  42  69 104 133 178 237 286 348 414
#     4  12  24  42  76  98 139 185 234 288 352 426
#     4  10  24  42  68 100 139 179 222 298 350 416
#
# _framework density 19.977568000000002
#
# number of rings (size 3 to 8) (size 9 to 14) (size 15 to 20)
#    0.000    1.429    2.857    0.857   10.000    6.857 
#    6.429    0.000    3.143    0.000    0.000    0.000 
#    0.000    0.000    0.000    0.000    0.000    0.000 
#
# Total GULP energy -156017.559879 kJ/mol
# GULP energy per Si atom -5572.055710 kJ/mol
# Density = 1.993210 g / cm^3
# Si number density = 19.977568 Si / 1000 Ang^3
#
#
#
# Elastic Constant Matrix: (Units=GPa)
#
#
# Indices 1 2 3 4 5 6 
#
# 1 142.9053 53.4919 72.8645 0.0000 19.3317 0.0000
# 2 53.4919 118.1016 61.9398 0.0000 7.9146 0.0000
# 3 72.8645 61.9398 127.2553 0.0000 15.7049 0.0000
# 4 0.0000 0.0000 0.0000-1517.6517 0.0000 1600.6794
# 5 19.3317 7.9146 15.7049 0.0000 35.8290 0.0000
# 6 0.0000 0.0000 0.0000 1600.6794 0.0000-1619.6478
#
#
#
# Elastic Compliance Matrix: (Units=1/GPa)
#
#
# Indices 1 2 3 4 5 6 
#
# 1 0.010597 -0.002162 -0.004618 0.000000 -0.003216 0.000000
# 2 -0.002162 0.011811 -0.004581 0.000000 0.000565 0.000000
# 3 -0.004618 -0.004581 0.013003 0.000000 -0.002196 0.000000
# 4 0.000000 0.000000 0.000000 0.015557 0.000000 0.015374
# 5 -0.003216 0.000565 -0.002196 0.000000 0.030483 0.000000
# 6 0.000000 0.000000 0.000000 0.015374 0.000000 0.014577
#
#
# Mechanical properties :
#
#
# Convention : Reuss Voigt Hill
#
# Bulk Modulus (GPa) = 78.80907 84.98382 81.89645
# Shear Modulus (GPa) = 40.65732 -606.96300 -283.15284
#
# Velocity S-wave (km/s) = 4.51616 -17.44941 -11.91818
# Velocity P-wave (km/s) = 8.16876 19.06158 12.17816
#
# Compressibility (1/GPa) = 0.01268890
#
# Stress axis : x y z
#
# Youngs Moduli (GPa) = 94.36918 84.66664 76.90383
#
# Poissons Ratio (x) = 0.18304 0.35517
# Poissons Ratio (y) = 0.20402 0.35228
# Poissons Ratio (z) = 0.43583 0.38784
#
# Static dielectric constant tensor:
#      x y z
#    x 1.754480 0.000000 -0.003440 
#    y 0.000000 1.735200 0.000000 
#    z -0.003440 0.000000 1.726990 
# 
# From -- ./inp_files/82729.got.cif
#   From: 2010.05.17/outbox.cif.g08.bks.cpg/sg15_42_cif.got.tgz:82729.got - 2010.06.03 18:47:42.
