data_PCOD9289659
_publ_section_title
;
Structure prediction by ZEFSAII (Michael W. Deem and Ramdas Pophale) SiO2 
 PCOD9289659
Probable space group: C 2/C
;
_chemical_formula_sum "Si O2"
_cell_formula_units_Z 56
_cell_length_a 16.913819
_cell_length_b 16.216637
_cell_length_c 14.574116
_cell_angle_alpha 90.000000
_cell_angle_beta 135.685244
_cell_angle_gamma 90.000000
_cell_volume 2792.627547
_symmetry_space_group_name_H-M "C 2/C"
_symmetry_group_IT_number 15
_symmetry_cell_setting 'monoclinic'
loop_
_space_group_symop_operation_xyz
x,y,z
-x,y,1/2-z
-x,-y,-z
x,-y,1/2+z
1/2+x,1/2+y,z
1/2-x,1/2+y,1/2-z
1/2-x,1/2-y,-z
1/2+x,1/2-y,1/2+z
loop_
_atom_site_type_symbol
_atom_site_label
_atom_site_fract_x
_atom_site_fract_y
_atom_site_fract_z
Si Si1 0.000000 0.823159 0.250000
Si Si2 0.066133 0.792244 0.978117
Si Si3 0.508916 0.120113 0.867219
Si Si4 0.091252 0.271096 0.996678
Si Si5 0.000000 0.903632 0.750000
Si Si6 0.178160 0.042819 0.843910
Si Si7 0.075998 0.558182 0.404037
Si Si8 0.766177 0.363248 0.260713
O O1 0.072445 0.770713 0.383022
O O2 0.087527 0.883667 0.273150
O O3 0.083160 0.697838 0.960210
O O4 0.025355 0.846234 0.858505
O O5 0.974642 0.782921 0.983575
O O6 0.174461 0.833519 0.112933
O O7 0.500000 0.123113 0.750000
O O8 0.384469 0.128702 0.806508
O O9 0.555469 0.030712 0.931396
O O10 0.044754 0.364266 0.941620
O O11 0.212045 0.292937 0.142575
O O12 0.892211 0.962014 0.685877
O O13 0.229184 0.053923 0.783737
O O14 0.287947 0.059666 0.999147
O O15 0.000000 0.563485 0.250000
#
# Coordination Sequence:
#
# PCOD9289659 Si02
#       8
#     4   8   8   8   4   8   8   8
#     4  11  20  44  69  96 134 174 219 282 340 395
#     4  11  23  43  66  97 134 176 224 274 331 406
#     4  10  23  42  65  98 131 174 225 275 333 401
#     4  10  22  40  66  99 130 170 222 279 329 403
#     4  11  26  44  69  98 134 190 225 266 346 397
#     4  10  24  43  65  97 135 172 225 279 329 408
#     4  10  22  40  66  97 130 172 221 274 340 396
#     4  10  23  41  67  97 134 174 224 285 331 398
#
# _framework density 20.052800000000001
#
# number of rings (size 3 to 8) (size 9 to 14) (size 15 to 20)
#    0.000    1.714    2.857    0.000    4.000   12.000 
#    0.000    0.000    0.000    0.000    0.000    0.000 
#    0.000    0.000    0.000    0.000    0.000    0.000 
#
# Total GULP energy -156085.773328 kJ/mol
# GULP energy per Si atom -5574.491905 kJ/mol
# Density = 2.000716 g / cm^3
# Si number density = 20.052800 Si / 1000 Ang^3
#
#
#
# Elastic Constant Matrix: (Units=GPa)
#
#
# Indices 1 2 3 4 5 6 
#
# 1 80.0883 32.0529 32.7176 0.0000 -5.1981 0.0000
# 2 32.0529 102.8501 44.0727 0.0000 -11.3888 0.0000
# 3 32.7176 44.0727 136.7348 -0.0001 -7.9360 0.0000
# 4 0.0000 0.0000 -0.0001 180.7337 0.0000 -2.9885
# 5 -5.1981 -11.3888 -7.9360 0.0000 36.2187 0.0000
# 6 0.0000 0.0000 0.0000 -2.9885 0.0000 29.8438
#
#
#
# Elastic Compliance Matrix: (Units=1/GPa)
#
#
# Indices 1 2 3 4 5 6 
#
# 1 0.014925 -0.003572 -0.002391 0.000000 0.000495 0.000000
# 2 -0.003572 0.012420 -0.002990 0.000000 0.002738 0.000000
# 3 -0.002391 -0.002990 0.008888 0.000000 0.000664 0.000000
# 4 0.000000 0.000000 0.000000 0.005542 0.000000 0.000555
# 5 0.000495 0.002738 0.000664 0.000000 0.028687 0.000000
# 6 0.000000 0.000000 0.000000 0.000555 0.000000 0.033563
#
#
# Mechanical properties :
#
#
# Convention : Reuss Voigt Hill
#
# Bulk Modulus (GPa) = 54.56327 59.70662 57.13494
# Shear Modulus (GPa) = 39.05016 63.41458 51.23237
#
# Velocity S-wave (km/s) = 4.41769 5.62961 5.06006
# Velocity P-wave (km/s) = 7.30001 8.49093 7.91789
#
# Compressibility (1/GPa) = 0.01832735
#
# Stress axis : x y z
#
# Youngs Moduli (GPa) = 67.00318 80.51291 112.51368
#
# Poissons Ratio (x) = 0.28757 0.26904
# Poissons Ratio (y) = 0.23932 0.33640
# Poissons Ratio (z) = 0.16021 0.24072
#
# Static dielectric constant tensor:
#      x y z
#    x 1.742820 0.000000 -0.017120 
#    y 0.000000 1.725690 0.000000 
#    z -0.017120 0.000000 1.714430 
# 
# From -- ./inp_files/163115.got.cif
#   From: 2010.05.17/outbox.cif.g08.bks.cpg/sg15_82_cif.got.tgz:163115.got - 2010.06.03 18:47:42.
