data_PCOD9289778
_publ_section_title
;
Structure prediction by ZEFSAII (Michael W. Deem and Ramdas Pophale) SiO2 
 PCOD9289778
Probable space group: C 2/C
;
_chemical_formula_sum "Si O2"
_cell_formula_units_Z 36
_cell_length_a 20.503493
_cell_length_b 7.159561
_cell_length_c 14.036848
_cell_angle_alpha 90.000000
_cell_angle_beta 133.204939
_cell_angle_gamma 90.000000
_cell_volume 1501.957087
_symmetry_space_group_name_H-M "C 2/C"
_symmetry_group_IT_number 15
_symmetry_cell_setting 'monoclinic'
loop_
_space_group_symop_operation_xyz
x,y,z
-x,y,1/2-z
-x,-y,-z
x,-y,1/2+z
1/2+x,1/2+y,z
1/2-x,1/2+y,1/2-z
1/2-x,1/2-y,-z
1/2+x,1/2-y,1/2+z
loop_
_atom_site_type_symbol
_atom_site_label
_atom_site_fract_x
_atom_site_fract_y
_atom_site_fract_z
Si Si1 0.836693 0.335957 0.399795
Si Si2 0.000000 0.749479 0.750000
Si Si3 0.000000 0.111863 0.859188
Si Si4 0.690740 0.062834 0.940739
Si Si5 0.836693 0.664046 0.273593
O O1 0.911483 0.186371 0.501707
O O2 0.797192 0.435684 0.454479
O O3 0.878063 0.500003 0.378064
O O4 0.750000 0.250003 0.261535
O O5 0.911768 0.628849 0.661769
O O6 0.999999 0.890340 0.659405
O O7 0.000000 0.188837 0.750000
O O8 0.911484 0.186370 0.821260
O O9 0.702808 0.935685 0.860093
O O10 0.750000 0.250000 0.000000
#
# Coordination Sequence:
#
# PCOD9289778 Si02
#       5
#     8   4   8   8   8
#     4  12  25  44  67 101 136 179 225 275 337 399
#     4  10  22  40  68 102 122 174 228 256 344 396
#     4  10  22  44  69  96 134 176 219 275 337 388
#     4  12  22  40  66  94 134 176 220 276 328 398
#     4  12  25  44  67 101 136 179 225 275 337 399
#
# _framework density 23.968727000000001
#
# number of rings (size 3 to 8) (size 9 to 14) (size 15 to 20)
#    0.667    0.000    2.222    6.667    0.000    0.000 
#    0.000    3.333    0.000    0.000    0.000    0.000 
#    0.000    0.000    0.000    0.000    0.000    0.000 
#
# Total GULP energy -100852.125792 kJ/mol
# GULP energy per Si atom -5602.895877 kJ/mol
# Density = 2.391417 g / cm^3
# Si number density = 23.968727 Si / 1000 Ang^3
#
#
#
# Elastic Constant Matrix: (Units=GPa)
#
#
# Indices 1 2 3 4 5 6 
#
# 1 48.6787 14.7723 23.9574 0.0000 19.8256 0.0000
# 2 14.7723 95.7066 17.9150 0.0000 15.5382 0.0000
# 3 23.9574 17.9150 58.6299 0.0000 29.3843 0.0000
# 4 0.0000 0.0000 0.0000 40.9905 0.0000 2.7213
# 5 19.8256 15.5382 29.3843 0.0000 61.6224 0.0000
# 6 0.0000 0.0000 0.0000 2.7213 0.0000 40.4396
#
#
#
# Elastic Compliance Matrix: (Units=1/GPa)
#
#
# Indices 1 2 3 4 5 6 
#
# 1 0.026930 -0.001917 -0.008303 0.000000 -0.004222 0.000000
# 2 -0.001917 0.011333 -0.002045 0.000000 -0.001266 0.000000
# 3 -0.008303 -0.002045 0.025593 0.000000 -0.009017 0.000000
# 4 0.000000 0.000000 0.000000 0.024505 0.000000 -0.001649
# 5 -0.004222 -0.001266 -0.009017 0.000000 0.022205 0.000000
# 6 0.000000 0.000000 0.000000 -0.001649 0.000000 0.024839
#
#
# Mechanical properties :
#
#
# Convention : Reuss Voigt Hill
#
# Bulk Modulus (GPa) = 25.42849 35.14497 30.28673
# Shear Modulus (GPa) = 28.89443 38.36853 33.63148
#
# Velocity S-wave (km/s) = 3.47581 4.00531 3.74991
# Velocity P-wave (km/s) = 5.17111 6.00705 5.60469
#
# Compressibility (1/GPa) = 0.03932598
#
# Stress axis : x y z
#
# Youngs Moduli (GPa) = 37.13308 88.23941 39.07351
#
# Poissons Ratio (x) = 0.16917 0.32441
# Poissons Ratio (y) = 0.07119 0.07991
# Poissons Ratio (z) = 0.30830 0.18047
#
# Static dielectric constant tensor:
#      x y z
#    x 1.973260 0.000000 0.028670 
#    y 0.000000 1.851260 0.000000 
#    z 0.028670 0.000000 1.979060 
# 
# From -- ./inp_files/166725.got.cif
#   From: 2010.05.17/outbox.cif.g08.bks.cpg/sg15_84_cif.got.tgz:166725.got - 2010.06.03 18:47:42.
