data_PCOD9289510
_publ_section_title
;
Structure prediction by ZEFSAII (Michael W. Deem and Ramdas Pophale) SiO2 
 PCOD9289510
Probable space group: C 2/C
;
_chemical_formula_sum "Si O2"
_cell_formula_units_Z 40
_cell_length_a 23.597853
_cell_length_b 9.991750
_cell_length_c 8.264475
_cell_angle_alpha 90.000000
_cell_angle_beta 125.900064
_cell_angle_gamma 90.000000
_cell_volume 1578.469934
_symmetry_space_group_name_H-M "C 2/C"
_symmetry_group_IT_number 15
_symmetry_cell_setting 'monoclinic'
loop_
_space_group_symop_operation_xyz
x,y,z
-x,y,1/2-z
-x,-y,-z
x,-y,1/2+z
1/2+x,1/2+y,z
1/2-x,1/2+y,1/2-z
1/2-x,1/2-y,-z
1/2+x,1/2-y,1/2+z
loop_
_atom_site_type_symbol
_atom_site_label
_atom_site_fract_x
_atom_site_fract_y
_atom_site_fract_z
Si Si1 0.064419 0.855122 0.231888
Si Si2 0.359321 0.556223 0.336034
Si Si3 0.710781 0.024239 0.666767
Si Si4 0.654147 0.168989 0.865016
Si Si5 0.931578 0.568252 0.245127
O O1 0.077499 0.962338 0.115156
O O2 0.060592 0.707153 0.148063
O O3 0.000000 0.863219 0.250000
O O4 0.127649 0.884337 0.463849
O O5 0.354894 0.680557 0.204456
O O6 0.288243 0.471292 0.227943
O O7 0.708209 0.092745 0.836172
O O8 0.643926 0.091487 0.467576
O O9 0.684684 0.869147 0.593552
O O10 0.584004 0.080194 0.714690
O O11 0.000000 0.557194 0.250000
#
# Coordination Sequence:
#
# PCOD9289510 Si02
#       5
#     8   8   8   8   8
#     4  11  25  45  63  94 130 171 207 261 319 379
#     4  12  23  42  66  94 132 160 216 264 311 381
#     4  10  22  40  65  93 127 167 209 261 314 367
#     4  10  22  41  63  94 126 164 218 253 315 369
#     4   9  22  43  64  90 130 166 211 257 313 375
#
# _framework density 25.340994999999999
#
# number of rings (size 3 to 8) (size 9 to 14) (size 15 to 20)
#    1.200    0.400    2.000    2.400    0.000    5.600 
#    0.000    0.000    0.000    0.000    0.000    0.000 
#    0.000    0.000    0.000    0.000    0.000    0.000 
#
# Total GULP energy -111409.712304 kJ/mol
# GULP energy per Si atom -5570.485615 kJ/mol
# Density = 2.528332 g / cm^3
# Si number density = 25.340995 Si / 1000 Ang^3
#
#
#
# Elastic Constant Matrix: (Units=GPa)
#
#
# Indices 1 2 3 4 5 6 
#
# 1 134.5504 76.5326 -9.8415 0.0000 38.8406 0.0000
# 2 76.5326 119.1081 1.2904 0.0000 22.2815 0.0000
# 3 -9.8415 1.2904 54.3321 0.0000 17.9783 0.0000
# 4 0.0000 0.0000 0.0000 11.6676 0.0000 -9.5274
# 5 38.8406 22.2815 17.9783 0.0000 22.5328 0.0000
# 6 0.0000 0.0000 0.0000 -9.5274 0.0000 35.4250
#
#
#
# Elastic Compliance Matrix: (Units=1/GPa)
#
#
# Indices 1 2 3 4 5 6 
#
# 1 0.047878 -0.011291 0.044232 0.000000 -0.106655 0.000000
# 2 -0.011291 0.013740 -0.005864 0.000000 0.010555 0.000000
# 3 0.044232 -0.005864 0.067755 0.000000 -0.124505 0.000000
# 4 0.000000 0.000000 0.000000 0.109828 0.000000 0.029538
# 5 -0.106655 0.010555 -0.124505 0.000000 0.317126 0.000000
# 6 0.000000 0.000000 0.000000 0.029538 0.000000 0.036173
#
#
# Mechanical properties :
#
#
# Convention : Reuss Voigt Hill
#
# Bulk Modulus (GPa) = 5.44880 49.32818 27.38849
# Shear Modulus (GPa) = 8.34000 29.92568 19.13284
#
# Velocity S-wave (km/s) = 1.81611 3.44018 2.75074
# Velocity P-wave (km/s) = 2.55979 5.94035 4.57386
#
# Compressibility (1/GPa) = 0.18352655
#
# Stress axis : x y z
#
# Youngs Moduli (GPa) = 20.88650 72.78143 14.75906
#
# Poissons Ratio (x) = 0.82178 -0.65283
# Poissons Ratio (y) = 0.23583 0.08655
# Poissons Ratio (z) = -0.92386 0.42680
#
# Static dielectric constant tensor:
#      x y z
#    x 2.015230 0.000000 -0.031600 
#    y 0.000000 2.011900 0.000000 
#    z -0.031600 0.000000 2.109580 
# 
# From -- ./inp_files/121693.got.cif
#   From: 2010.05.17/outbox.cif.g08.bks.cpg/sg15_61_cif.got.tgz:121693.got - 2010.06.03 18:47:42.
