data_PCOD9289611
_publ_section_title
;
Structure prediction by ZEFSAII (Michael W. Deem and Ramdas Pophale) SiO2 
 PCOD9289611
Probable space group: C 2/C
;
_chemical_formula_sum "Si O2"
_cell_formula_units_Z 64
_cell_length_a 18.462580
_cell_length_b 26.411907
_cell_length_c 9.092963
_cell_angle_alpha 90.000000
_cell_angle_beta 140.040433
_cell_angle_gamma 90.000000
_cell_volume 2847.734938
_symmetry_space_group_name_H-M "C 2/C"
_symmetry_group_IT_number 15
_symmetry_cell_setting 'monoclinic'
loop_
_space_group_symop_operation_xyz
x,y,z
-x,y,1/2-z
-x,-y,-z
x,-y,1/2+z
1/2+x,1/2+y,z
1/2-x,1/2+y,1/2-z
1/2-x,1/2-y,-z
1/2+x,1/2-y,1/2+z
loop_
_atom_site_type_symbol
_atom_site_label
_atom_site_fract_x
_atom_site_fract_y
_atom_site_fract_z
Si Si1 0.449520 0.605596 0.331634
Si Si2 0.628139 0.774863 0.815427
Si Si3 0.110235 0.740362 0.624027
Si Si4 0.350446 0.574189 0.721718
Si Si5 0.266178 0.830541 0.952320
Si Si6 0.888152 0.572318 0.492822
Si Si7 0.603320 0.113079 0.298839
Si Si8 0.841034 0.975549 0.880245
O O1 0.500000 0.598470 0.250000
O O2 0.556314 0.617650 0.604961
O O3 0.343394 0.642779 0.146546
O O4 0.399173 0.559042 0.346996
O O5 0.523518 0.746275 0.572545
O O6 0.621040 0.832166 0.750943
O O7 0.750000 0.750000 0.000000
O O8 0.611977 0.782315 0.964899
O O9 0.200200 0.786258 0.761096
O O10 0.152001 0.699616 0.808826
O O11 0.225762 0.596294 0.547178
O O12 0.370613 0.532225 0.880020
O O13 0.362766 0.547071 0.578982
O O14 0.332886 0.875272 0.971898
O O15 0.921305 0.577091 0.375393
O O16 0.791463 0.530830 0.352953
O O17 0.000000 0.559366 0.750000
O O18 0.500000 0.112712 0.250000
#
# Coordination Sequence:
#
# PCOD9289611 Si02
#       8
#     8   8   8   8   8   8   8   8
#     4  11  24  39  66  97 129 174 216 274 329 385
#     4  11  23  39  65  91 130 173 218 267 332 386
#     4  10  22  41  62  92 131 169 220 272 317 393
#     4  11  24  42  68  92 133 172 219 272 329 404
#     4  10  23  41  63  95 131 172 223 269 330 384
#     4  10  22  40  66  91 128 172 217 272 329 393
#     4  11  24  41  63  96 126 167 221 273 332 388
#     4  10  23  44  62  98 130 174 219 267 335 395
#
# _framework density 22.474001000000001
#
# number of rings (size 3 to 8) (size 9 to 14) (size 15 to 20)
#    0.000    1.500    1.250    3.000    3.500    2.500 
#    4.500    5.000    0.000    0.000    0.000    0.000 
#    0.000    0.000    0.000    0.000    0.000    0.000 
#
# Total GULP energy -178438.133830 kJ/mol
# GULP energy per Si atom -5576.191682 kJ/mol
# Density = 2.242285 g / cm^3
# Si number density = 22.474001 Si / 1000 Ang^3
#
#
#
# Elastic Constant Matrix: (Units=GPa)
#
#
# Indices 1 2 3 4 5 6 
#
# 1 113.4787 6.1839 38.5352 0.0000 15.5955 0.0000
# 2 6.1839 27.4159 -3.9469 0.0000 1.1123 0.0000
# 3 38.5352 -3.9469 143.3896 0.0000 28.1486 0.0000
# 4 0.0000 0.0000 0.0000 1.9856 0.0000 -3.5513
# 5 15.5955 1.1123 28.1486 0.0000 23.6643 0.0000
# 6 0.0000 0.0000 0.0000 -3.5513 0.0000 13.8637
#
#
#
# Elastic Compliance Matrix: (Units=1/GPa)
#
#
# Indices 1 2 3 4 5 6 
#
# 1 0.010199 -0.002411 -0.001970 0.000000 -0.004265 0.000000
# 2 -0.002411 0.037456 0.002234 0.000000 -0.002829 0.000000
# 3 -0.001970 0.002234 0.009564 0.000000 -0.010183 0.000000
# 4 0.000000 0.000000 0.000000 0.929473 0.000000 0.238095
# 5 -0.004265 -0.002829 -0.010183 0.000000 0.057314 0.000000
# 6 0.000000 0.000000 0.000000 0.238095 0.000000 0.133122
#
#
# Mechanical properties :
#
#
# Convention : Reuss Voigt Hill
#
# Bulk Modulus (GPa) = 18.89473 40.64763 29.77118
# Shear Modulus (GPa) = 4.16993 24.13686 14.15340
#
# Velocity S-wave (km/s) = 1.36363 3.28073 2.51224
# Velocity P-wave (km/s) = 3.30226 5.69884 4.65734
#
# Compressibility (1/GPa) = 0.05292481
#
# Stress axis : x y z
#
# Youngs Moduli (GPa) = 98.05196 26.69835 104.55942
#
# Poissons Ratio (x) = 0.06437 0.20599
# Poissons Ratio (y) = 0.23640 -0.23362
# Poissons Ratio (z) = 0.19317 -0.05965
#
# Static dielectric constant tensor:
#      x y z
#    x 1.980360 0.000000 0.184210 
#    y 0.000000 1.870370 0.000000 
#    z 0.184210 0.000000 2.054920 
# 
# From -- ./inp_files/52843.got.cif
#   From: 2010.05.17/outbox.cif.g08.bks.cpg/sg15_27_cif.got.tgz:52843.got - 2010.06.03 18:47:42.
