data_PCOD9289813
_publ_section_title
;
Structure prediction by ZEFSAII (Michael W. Deem and Ramdas Pophale) SiO2 
 PCOD9289813
Probable space group: C 2/C
;
_chemical_formula_sum "Si O2"
_cell_formula_units_Z 52
_cell_length_a 18.042330
_cell_length_b 30.577206
_cell_length_c 5.256966
_cell_angle_alpha 90.000000
_cell_angle_beta 121.263578
_cell_angle_gamma 90.000000
_cell_volume 2479.045324
_symmetry_space_group_name_H-M "C 2/C"
_symmetry_group_IT_number 15
_symmetry_cell_setting 'monoclinic'
loop_
_space_group_symop_operation_xyz
x,y,z
-x,y,1/2-z
-x,-y,-z
x,-y,1/2+z
1/2+x,1/2+y,z
1/2-x,1/2+y,1/2-z
1/2-x,1/2-y,-z
1/2+x,1/2-y,1/2+z
loop_
_atom_site_type_symbol
_atom_site_label
_atom_site_fract_x
_atom_site_fract_y
_atom_site_fract_z
Si Si1 0.899856 0.086651 0.023313
Si Si2 0.698578 0.265221 0.658131
Si Si3 0.500000 0.133053 0.750000
Si Si4 0.153284 0.392822 0.838456
Si Si5 0.173108 0.131087 0.103154
Si Si6 0.763263 0.472628 0.250513
Si Si7 0.407208 0.184831 0.964772
O O1 0.865793 0.114923 0.201178
O O2 0.000000 0.075676 0.250000
O O3 0.884567 0.113734 0.735829
O O4 0.835133 0.045352 0.897900
O O5 0.750000 0.250000 0.500000
O O6 0.681668 0.316573 0.621260
O O7 0.614514 0.234802 0.533272
O O8 0.750000 0.250000 0.000000
O O9 0.442328 0.104250 0.455461
O O10 0.575562 0.165861 0.783332
O O11 0.231828 0.389854 0.777545
O O12 0.157896 0.347555 0.007480
O O13 0.174737 0.432264 0.065827
O O14 0.777014 0.508636 0.494552
O O15 0.500000 0.176394 0.250000
#
# Coordination Sequence:
#
# PCOD9289813 Si02
#       7
#     8   8   4   8   8   8   8
#     4  11  25  45  69  99 136 178 217 267 341 403
#     4  12  24  40  65  96 132 176 228 269 315 375
#     4  10  22  40  68  94 128 184 218 274 326 398
#     4  10  22  41  68  91 134 170 226 265 337 394
#     4  11  23  41  69  98 136 182 224 273 323 390
#     4  11  25  43  70 102 128 166 215 278 334 402
#     4  10  23  40  63  95 128 176 224 272 320 378
#
# _framework density 20.975818
#
# number of rings (size 3 to 8) (size 9 to 14) (size 15 to 20)
#    0.000    1.231    1.538    4.154   10.769    1.846 
#    1.385    0.769    0.000    0.000    0.000    0.000 
#    0.000    0.000    0.000    0.000    0.000    0.000 
#
# Total GULP energy -145226.217393 kJ/mol
# GULP energy per Si atom -5585.623746 kJ/mol
# Density = 2.092808 g / cm^3
# Si number density = 20.975818 Si / 1000 Ang^3
#
#
#
# Elastic Constant Matrix: (Units=GPa)
#
#
# Indices 1 2 3 4 5 6 
#
# 1 57.5699 2.3052 25.7150 0.0000 0.3049 0.0000
# 2 2.3052 79.7814 24.4333 0.0000 2.1637 0.0000
# 3 25.7150 24.4333 98.1590 0.0000 -0.7741 0.0000
# 4 0.0000 0.0000 0.0000 29.1901 0.0000 -1.8132
# 5 0.3049 2.1637 -0.7741 0.0000 36.8141 0.0000
# 6 0.0000 0.0000 0.0000 -1.8132 0.0000 30.1524
#
#
#
# Elastic Compliance Matrix: (Units=1/GPa)
#
#
# Indices 1 2 3 4 5 6 
#
# 1 0.019765 0.001109 -0.005457 0.000000 -0.000344 0.000000
# 2 0.001109 0.013659 -0.003697 0.000000 -0.000890 0.000000
# 3 -0.005457 -0.003697 0.012542 0.000000 0.000526 0.000000
# 4 0.000000 0.000000 0.000000 0.034387 0.000000 0.002068
# 5 -0.000344 -0.000890 0.000526 0.000000 0.027230 0.000000
# 6 0.000000 0.000000 0.000000 0.002068 0.000000 0.033289
#
#
# Mechanical properties :
#
#
# Convention : Reuss Voigt Hill
#
# Bulk Modulus (GPa) = 33.47223 37.82414 35.64819
# Shear Modulus (GPa) = 29.95466 31.43512 30.69489
#
# Velocity S-wave (km/s) = 3.78306 3.87542 3.82952
# Velocity P-wave (km/s) = 5.92235 6.17224 6.04859
#
# Compressibility (1/GPa) = 0.02987551
#
# Stress axis : x y z
#
# Youngs Moduli (GPa) = 50.59461 73.21350 79.73484
#
# Poissons Ratio (x) = -0.08122 0.43509
# Poissons Ratio (y) = -0.05613 0.29482
# Poissons Ratio (z) = 0.27608 0.27071
#
# Static dielectric constant tensor:
#      x y z
#    x 1.921630 0.000000 -0.000820 
#    y 0.000000 3.448720 0.000000 
#    z -0.000820 0.000000 1.965070 
# 
# From -- ./inp_files/11635.got.cif
#   From: 2010.05.17/outbox.cif.g08.bks.cpg/sg15_6_cif.got.tgz:11635.got - 2010.06.03 18:47:42.
