data_PCOD9289120
_publ_section_title
;
Structure prediction by ZEFSAII (Michael W. Deem and Ramdas Pophale) SiO2 
 PCOD9289120
Probable space group: C 2/C
;
_chemical_formula_sum "Si O2"
_cell_formula_units_Z 44
_cell_length_a 22.838561
_cell_length_b 13.480955
_cell_length_c 12.434633
_cell_angle_alpha 90.000000
_cell_angle_beta 31.776604
_cell_angle_gamma 90.000000
_cell_volume 2016.092270
_symmetry_space_group_name_H-M "C 2/C"
_symmetry_group_IT_number 15
_symmetry_cell_setting 'monoclinic'
loop_
_space_group_symop_operation_xyz
x,y,z
-x,y,1/2-z
-x,-y,-z
x,-y,1/2+z
1/2+x,1/2+y,z
1/2-x,1/2+y,1/2-z
1/2-x,1/2-y,-z
1/2+x,1/2-y,1/2+z
loop_
_atom_site_type_symbol
_atom_site_label
_atom_site_fract_x
_atom_site_fract_y
_atom_site_fract_z
Si Si1 0.074618 0.644758 0.716305
Si Si2 0.685877 0.553138 0.103014
Si Si3 0.927254 0.774898 0.589048
Si Si4 0.500000 0.209825 0.250000
Si Si5 0.754858 0.657018 0.571519
Si Si6 0.686615 0.682155 0.912342
O O1 0.189249 0.591737 0.566176
O O2 0.023105 0.693647 0.904320
O O3 0.109759 0.736911 0.586881
O O4 0.000000 0.582212 0.750000
O O5 0.601604 0.620446 0.307200
O O6 0.698180 0.437925 0.105800
O O7 0.665239 0.581338 0.011069
O O8 0.807686 0.725196 0.751860
O O9 0.983688 0.774531 0.384391
O O10 0.385041 0.149287 0.406317
O O11 0.750000 0.750000 0.500000
O O12 0.683678 0.673128 0.790478
#
# Coordination Sequence:
#
# PCOD9289120 Si02
#       6
#     8   8   8   4   8   8
#     4   9  17  31  62  87 113 154 206 248 297 366
#     4   9  19  38  61  85 119 161 207 247 306 365
#     4   8  17  37  57  82 123 161 192 250 307 360
#     4  10  22  40  60  94 132 158 206 262 304 372
#     4  11  24  39  62  88 127 165 200 254 321 357
#     4   8  18  37  55  84 120 158 195 245 301 371
#
# _framework density 21.824399
#
# number of rings (size 3 to 8) (size 9 to 14) (size 15 to 20)
#    0.000    2.909    0.000    2.182    3.818    4.364 
#    0.000    3.636   10.000    0.000    0.000    0.000 
#    0.000    0.000    0.000    0.000    0.000    0.000 
#
# Total GULP energy -122573.346952 kJ/mol
# GULP energy per Si atom -5571.515771 kJ/mol
# Density = 2.177473 g / cm^3
# Si number density = 21.824399 Si / 1000 Ang^3
#
#
#
# Elastic Constant Matrix: (Units=GPa)
#
#
# Indices 1 2 3 4 5 6 
#
# 1 59.4393 8.3307 25.1674 0.0000 28.9985 0.0000
# 2 8.3307 101.4728 20.8233 0.0000 36.0765 0.0000
# 3 25.1674 20.8233 103.0423 0.0000 38.6823 0.0000
# 4 0.0000 0.0000 0.0000 8.1485 0.0000 1.9391
# 5 28.9985 36.0765 38.6823 0.0000 58.7400 0.0000
# 6 0.0000 0.0000 0.0000 1.9391 0.0000 22.6303
#
#
#
# Elastic Compliance Matrix: (Units=1/GPa)
#
#
# Indices 1 2 3 4 5 6 
#
# 1 0.022953 0.002680 -0.001695 0.000000 -0.011861 0.000000
# 2 0.002680 0.012939 0.000280 0.000000 -0.009454 0.000000
# 3 -0.001695 0.000280 0.013035 0.000000 -0.007919 0.000000
# 4 0.000000 0.000000 0.000000 0.125276 0.000000 -0.010735
# 5 -0.011861 -0.009454 -0.007919 0.000000 0.033901 0.000000
# 6 0.000000 0.000000 0.000000 -0.010735 0.000000 0.045108
#
#
# Mechanical properties :
#
#
# Convention : Reuss Voigt Hill
#
# Bulk Modulus (GPa) = 19.43392 41.39971 30.41682
# Shear Modulus (GPa) = 18.66829 31.87930 25.27380
#
# Velocity S-wave (km/s) = 2.92787 3.82608 3.40671
# Velocity P-wave (km/s) = 4.51153 6.20719 5.42601
#
# Compressibility (1/GPa) = 0.05145642
#
# Stress axis : x y z
#
# Youngs Moduli (GPa) = 43.56814 77.28838 76.71633
#
# Poissons Ratio (x) = -0.20717 0.13003
# Poissons Ratio (y) = -0.11678 -0.02145
# Poissons Ratio (z) = 0.07385 -0.02161
#
# Static dielectric constant tensor:
#      x y z
#    x 1.959610 0.000000 -0.065050 
#    y 0.000000 1.785520 0.000000 
#    z -0.065050 0.000000 1.857240 
# 
# From -- ./inp_files/117884.got.cif
#   From: 2010.05.17/outbox.cif.g08.bks.cpg/sg15_59_cif.got.tgz:117884.got - 2010.06.03 18:47:42.
