data_PCOD9289996
_publ_section_title
;
Structure prediction by ZEFSAII (Michael W. Deem and Ramdas Pophale) SiO2 
 PCOD9289996
Probable space group: C 2/C
;
_chemical_formula_sum "Si O2"
_cell_formula_units_Z 40
_cell_length_a 20.856108
_cell_length_b 10.372520
_cell_length_c 9.832373
_cell_angle_alpha 90.000000
_cell_angle_beta 135.013531
_cell_angle_gamma 90.000000
_cell_volume 1503.689989
_symmetry_space_group_name_H-M "C 2/C"
_symmetry_group_IT_number 15
_symmetry_cell_setting 'monoclinic'
loop_
_space_group_symop_operation_xyz
x,y,z
-x,y,1/2-z
-x,-y,-z
x,-y,1/2+z
1/2+x,1/2+y,z
1/2-x,1/2+y,1/2-z
1/2-x,1/2-y,-z
1/2+x,1/2-y,1/2+z
loop_
_atom_site_type_symbol
_atom_site_label
_atom_site_fract_x
_atom_site_fract_y
_atom_site_fract_z
Si Si1 0.398135 0.259363 0.910810
Si Si2 0.740203 0.611591 0.153108
Si Si3 0.906858 0.086671 0.167269
Si Si4 0.354051 0.868057 0.072517
Si Si5 0.564145 0.092453 0.189031
O O1 0.332991 0.273405 0.942549
O O2 0.412997 0.384807 0.837265
O O3 0.348609 0.164387 0.725660
O O4 0.497643 0.212407 0.099290
O O5 0.679778 0.497011 0.002944
O O6 0.767387 0.602406 0.353054
O O7 0.837465 0.626471 0.227929
O O8 0.896148 0.232058 0.086687
O O9 0.000000 0.030126 0.250000
O O10 0.410420 0.998825 0.148282
O O11 0.500000 0.000000 0.000000
#
# Coordination Sequence:
#
# PCOD9289996 Si02
#       5
#     8   8   8   8   8
#     4   9  22  42  68 101 138 181 235 285 350 418
#     4  12  22  38  73 102 141 185 233 289 358 409
#     4  10  23  42  69  99 143 192 226 291 356 417
#     4   9  22  43  69 105 135 182 236 285 345 421
#     4  10  22  40  72 109 135 182 235 294 344 426
#
# _framework density 26.601226
#
# number of rings (size 3 to 8) (size 9 to 14) (size 15 to 20)
#    1.200    0.800    0.000    3.000    5.600    0.800 
#    0.000    2.000    0.000    4.800    0.000    0.000 
#    0.000    0.000    0.000    0.000    0.000    0.000 
#
# Total GULP energy -111647.178607 kJ/mol
# GULP energy per Si atom -5582.358930 kJ/mol
# Density = 2.654068 g / cm^3
# Si number density = 26.601226 Si / 1000 Ang^3
#
#
#
# Elastic Constant Matrix: (Units=GPa)
#
#
# Indices 1 2 3 4 5 6 
#
# 1 188.8363 55.9516 86.5463 0.0000 55.5022 0.0000
# 2 55.9516 96.6938 73.5880 0.0000 14.0847 0.0000
# 3 86.5463 73.5880 172.1027 0.0000 34.5547 0.0000
# 4 0.0000 0.0000 0.0000 63.1683 0.0000 -4.0791
# 5 55.5022 14.0847 34.5547 0.0000 61.6947 0.0000
# 6 0.0000 0.0000 0.0000 -4.0791 0.0000 12.0143
#
#
#
# Elastic Compliance Matrix: (Units=1/GPa)
#
#
# Indices 1 2 3 4 5 6 
#
# 1 0.008851 -0.002636 -0.002080 0.000000 -0.006196 0.000000
# 2 -0.002636 0.016118 -0.005975 0.000000 0.002039 0.000000
# 3 -0.002080 -0.005975 0.009872 0.000000 -0.002294 0.000000
# 4 0.000000 0.000000 0.000000 0.016186 0.000000 0.005495
# 5 -0.006196 0.002039 -0.002294 0.000000 0.022602 0.000000
# 6 0.000000 0.000000 0.000000 0.005495 0.000000 0.085100
#
#
# Mechanical properties :
#
#
# Convention : Reuss Voigt Hill
#
# Bulk Modulus (GPa) = 74.30507 98.86716 86.58612
# Shear Modulus (GPa) = 27.08598 43.47858 35.28228
#
# Velocity S-wave (km/s) = 3.19442 4.04723 3.64585
# Velocity P-wave (km/s) = 6.44976 7.68682 7.09530
#
# Compressibility (1/GPa) = 0.01345803
#
# Stress axis : x y z
#
# Youngs Moduli (GPa) = 112.98223 62.04273 101.29825
#
# Poissons Ratio (x) = 0.16357 0.21067
# Poissons Ratio (y) = 0.29786 0.60529
# Poissons Ratio (z) = 0.23497 0.37073
#
# Static dielectric constant tensor:
#      x y z
#    x 2.270040 0.000000 0.064480 
#    y 0.000000 2.211250 0.000000 
#    z 0.064480 0.000000 2.109420 
# 
# From -- ./inp_files/105036.got.cif
#   From: 2010.05.17/outbox.cif.g08.bks.cpg/sg15_53_cif.got.tgz:105036.got - 2010.06.03 18:47:42.
