data_PCOD9289305
_publ_section_title
;
Structure prediction by ZEFSAII (Michael W. Deem and Ramdas Pophale) SiO2 
 PCOD9289305
Probable space group: C 2/C
;
_chemical_formula_sum "Si O2"
_cell_formula_units_Z 40
_cell_length_a 8.494641
_cell_length_b 24.318726
_cell_length_c 8.856155
_cell_angle_alpha 90.000000
_cell_angle_beta 75.225758
_cell_angle_gamma 90.000000
_cell_volume 1769.007785
_symmetry_space_group_name_H-M "C 2/C"
_symmetry_group_IT_number 15
_symmetry_cell_setting 'monoclinic'
loop_
_space_group_symop_operation_xyz
x,y,z
-x,y,1/2-z
-x,-y,-z
x,-y,1/2+z
1/2+x,1/2+y,z
1/2-x,1/2+y,1/2-z
1/2-x,1/2-y,-z
1/2+x,1/2-y,1/2+z
loop_
_atom_site_type_symbol
_atom_site_label
_atom_site_fract_x
_atom_site_fract_y
_atom_site_fract_z
Si Si1 0.883081 0.673390 0.410053
Si Si2 0.179499 0.539208 0.649698
Si Si3 0.463215 0.726230 0.088283
Si Si4 0.272943 0.434283 0.448435
Si Si5 0.572798 0.389929 0.562784
O O1 0.718806 0.700707 0.381710
O O2 0.972485 0.721864 0.477805
O O3 0.824986 0.623007 0.526702
O O4 0.000000 0.652659 0.250000
O O5 0.184708 0.479573 0.572748
O O6 0.285017 0.542528 0.777211
O O7 0.256714 0.580748 0.508899
O O8 0.000000 0.552910 0.750000
O O9 0.500000 0.742428 0.250000
O O10 0.577722 0.674521 0.019663
O O11 0.442645 0.420172 0.487430
O O12 0.500000 0.393196 0.750000
#
# Coordination Sequence:
#
# PCOD9289305 Si02
#       5
#     8   8   8   8   8
#     4  10  22  40  63  92 130 171 215 271 326 384
#     4  12  25  41  65  96 132 173 222 273 323 386
#     4   9  21  40  64  94 126 167 217 266 324 394
#     4  11  24  42  63  93 133 175 219 266 329 394
#     4  10  22  43  69  96 132 175 218 266 328 397
#
# _framework density 22.611545
#
# number of rings (size 3 to 8) (size 9 to 14) (size 15 to 20)
#    0.000    1.600    0.000    3.600    0.000   11.200 
#    0.000    0.000    0.000    0.000    0.000    0.000 
#    0.000    0.000    0.000    0.000    0.000    0.000 
#
# Total GULP energy -111921.888339 kJ/mol
# GULP energy per Si atom -5596.094417 kJ/mol
# Density = 2.256008 g / cm^3
# Si number density = 22.611545 Si / 1000 Ang^3
#
#
#
# Elastic Constant Matrix: (Units=GPa)
#
#
# Indices 1 2 3 4 5 6 
#
# 1 43.6508 37.6570 21.1201 0.0000 -7.9853 0.0000
# 2 37.6570 112.2166 48.1489 0.0000 -10.4422 0.0000
# 3 21.1201 48.1489 97.7875 0.0000 4.2255 0.0000
# 4 0.0000 0.0000 0.0000 3.9428 0.0000 6.9301
# 5 -7.9853 -10.4422 4.2255 0.0000 46.2038 0.0000
# 6 0.0000 0.0000 0.0000 6.9301 0.0000 -5.7291
#
#
#
# Elastic Compliance Matrix: (Units=1/GPa)
#
#
# Indices 1 2 3 4 5 6 
#
# 1 0.033200 -0.009689 -0.002563 0.000000 0.003782 0.000000
# 2 -0.009689 0.014579 -0.005176 0.000000 0.002094 0.000000
# 3 -0.002563 -0.005176 0.013451 0.000000 -0.002843 0.000000
# 4 0.000000 0.000000 0.000000 0.081132 0.000000 0.098139
# 5 0.003782 0.002094 -0.002843 0.000000 0.023030 0.000000
# 6 0.000000 0.000000 0.000000 0.098139 0.000000 -0.055835
#
#
# Mechanical properties :
#
#
# Convention : Reuss Voigt Hill
#
# Bulk Modulus (GPa) = 37.91767 51.94522 44.93144
# Shear Modulus (GPa) = 32.63616 18.66542 25.65079
#
# Velocity S-wave (km/s) = 3.80325 2.87624 3.37176
# Velocity P-wave (km/s) = 6.00765 5.83550 5.92220
#
# Compressibility (1/GPa) = 0.02637293
#
# Stress axis : x y z
#
# Youngs Moduli (GPa) = 30.12045 68.59412 74.34254
#
# Poissons Ratio (x) = 0.66463 0.19055
# Poissons Ratio (y) = 0.29185 0.38480
# Poissons Ratio (z) = 0.07720 0.35504
#
# Static dielectric constant tensor:
#      x y z
#    x 1.889410 0.000000 0.026260 
#    y 0.000000 1.806140 0.000000 
#    z 0.026260 0.000000 1.803460 
# 
# From -- ./inp_files/23398.got.cif
#   From: 2010.05.17/outbox.cif.g08.bks.cpg/sg15_12_cif.got.tgz:23398.got - 2010.06.03 18:47:42.
