data_PCOD9289793
_publ_section_title
;
Structure prediction by ZEFSAII (Michael W. Deem and Ramdas Pophale) SiO2 
 PCOD9289793
Probable space group: C 2/C
;
_chemical_formula_sum "Si O2"
_cell_formula_units_Z 52
_cell_length_a 28.181147
_cell_length_b 8.423409
_cell_length_c 29.428224
_cell_angle_alpha 90.000000
_cell_angle_beta 20.754023
_cell_angle_gamma 90.000000
_cell_volume 2475.433433
_symmetry_space_group_name_H-M "C 2/C"
_symmetry_group_IT_number 15
_symmetry_cell_setting 'monoclinic'
loop_
_space_group_symop_operation_xyz
x,y,z
-x,y,1/2-z
-x,-y,-z
x,-y,1/2+z
1/2+x,1/2+y,z
1/2-x,1/2+y,1/2-z
1/2-x,1/2-y,-z
1/2+x,1/2-y,1/2+z
loop_
_atom_site_type_symbol
_atom_site_label
_atom_site_fract_x
_atom_site_fract_y
_atom_site_fract_z
Si Si1 0.000000 0.588096 0.750000
Si Si2 0.256621 0.323429 0.689250
Si Si3 0.771636 0.297488 0.278415
Si Si4 0.959294 0.303308 0.934640
Si Si5 0.187652 0.369129 0.520588
Si Si6 0.720311 0.303317 0.578407
Si Si7 0.567825 0.184216 0.534736
O O1 0.081257 0.474745 0.643560
O O2 0.087080 0.701757 0.704996
O O3 0.245588 0.513214 0.702511
O O4 0.270042 0.253681 0.727564
O O5 0.380258 0.274846 0.546969
O O6 0.115782 0.261799 0.794678
O O7 0.650418 0.222536 0.415262
O O8 0.917090 0.249709 0.168356
O O9 0.882027 0.271388 0.957103
O O10 0.947697 0.494261 0.948937
O O11 0.250000 0.250000 0.500000
O O12 0.289532 0.505399 0.411163
O O13 0.750000 0.250000 0.500000
O O14 0.838287 0.260095 0.507721
#
# Coordination Sequence:
#
# PCOD9289793 Si02
#       7
#     4   8   8   8   8   8   8
#     4  10  22  40  68  86 140 168 218 268 324 390
#     4  11  24  42  65  92 130 165 216 268 324 385
#     4  11  24  41  66  94 126 169 212 269 324 384
#     4  10  24  43  63  93 130 168 212 267 323 386
#     4  10  23  41  64  98 130 172 218 269 328 384
#     4   9  21  39  62  93 124 168 211 262 317 385
#     4  10  23  41  65  92 128 164 216 260 322 384
#
# _framework density 21.006422000000001
#
# number of rings (size 3 to 8) (size 9 to 14) (size 15 to 20)
#    0.000    1.846    0.000    1.846   10.769    8.000 
#    2.769    0.000    0.000    0.000    0.000    0.000 
#    0.000    0.000    0.000    0.000    0.000    0.000 
#
# Total GULP energy -145246.849686 kJ/mol
# GULP energy per Si atom -5586.417296 kJ/mol
# Density = 2.095861 g / cm^3
# Si number density = 21.006422 Si / 1000 Ang^3
#
#
#
# Elastic Constant Matrix: (Units=GPa)
#
#
# Indices 1 2 3 4 5 6 
#
# 1 69.8665 6.6984 -25.1037 -0.0068 -6.5848 0.0022
# 2 6.6984 15.8649 0.6061 0.0172 -15.1346 -0.0059
# 3 -25.1037 0.6061 53.3448 0.0019 -7.8361 -0.0033
# 4 -0.0068 0.0172 0.0019 -3.3392 -0.0003 3.3563
# 5 -6.5848 -15.1346 -7.8361 -0.0003 31.4844 -0.0011
# 6 0.0022 -0.0059 -0.0033 3.3563 -0.0011 33.0505
#
#
#
# Elastic Compliance Matrix: (Units=1/GPa)
#
#
# Indices 1 2 3 4 5 6 
#
# 1 0.018467 -0.004154 0.009354 -0.000050 0.004194 0.000004
# 2 -0.004154 0.120046 0.005221 0.000587 0.058137 -0.000035
# 3 0.009354 0.005221 0.024646 0.000022 0.010600 0.000001
# 4 -0.000050 0.000587 0.000022 -0.271734 0.000275 0.027595
# 5 0.004194 0.058137 0.010600 0.000275 0.063224 -0.000015
# 6 0.000004 -0.000035 0.000001 0.027595 -0.000015 0.027454
#
#
# Mechanical properties :
#
#
# Convention : Reuss Voigt Hill
#
# Bulk Modulus (GPa) = 5.43472 11.49753 8.46613
# Shear Modulus (GPa) = 221.28894 22.69753 121.99323
#
# Velocity S-wave (km/s) = 10.27483 3.29067 7.62891
# Velocity P-wave (km/s) = 11.97312 4.46354 9.03545
#
# Compressibility (1/GPa) = 0.18400197
#
# Stress axis : x y z
#
# Youngs Moduli (GPa) = 54.14934 8.33012 40.57511
#
# Poissons Ratio (x) = 0.03460 -0.37954
# Poissons Ratio (y) = 0.22493 -0.21185
# Poissons Ratio (z) = -0.50651 -0.04349
#
# Static dielectric constant tensor:
#      x y z
#    x 1.761340 0.000000 -0.012370 
#    y 0.000000 1.739020 0.000000 
#    z -0.012370 0.000000 1.837100 
# 
# From -- ./inp_files/320169.got.cif
#   From: 2010.05.17/outbox.cif.g08.bks.cpg/sg15_161_cif.got.tgz:320169.got - 2010.06.03 18:47:42.
