data_PCOD9289847
_publ_section_title
;
Structure prediction by ZEFSAII (Michael W. Deem and Ramdas Pophale) SiO2 
 PCOD9289847
Probable space group: C 2/C
;
_chemical_formula_sum "Si O2"
_cell_formula_units_Z 56
_cell_length_a 21.316380
_cell_length_b 8.931167
_cell_length_c 14.562185
_cell_angle_alpha 90.000000
_cell_angle_beta 111.408774
_cell_angle_gamma 90.000000
_cell_volume 2581.058547
_symmetry_space_group_name_H-M "C 2/C"
_symmetry_group_IT_number 15
_symmetry_cell_setting 'monoclinic'
loop_
_space_group_symop_operation_xyz
x,y,z
-x,y,1/2-z
-x,-y,-z
x,-y,1/2+z
1/2+x,1/2+y,z
1/2-x,1/2+y,1/2-z
1/2-x,1/2-y,-z
1/2+x,1/2-y,1/2+z
loop_
_atom_site_type_symbol
_atom_site_label
_atom_site_fract_x
_atom_site_fract_y
_atom_site_fract_z
Si Si1 0.945211 0.786541 0.644789
Si Si2 0.818959 0.591579 0.537655
Si Si3 0.275588 0.532647 0.350457
Si Si4 0.326397 0.236779 0.008860
Si Si5 0.679872 0.210985 0.159099
Si Si6 0.553052 0.356193 0.355040
Si Si7 0.975363 0.333049 0.963238
O O1 0.875638 0.694393 0.615579
O O2 0.970717 0.745816 0.558378
O O3 0.000000 0.742816 0.750000
O O4 0.938856 0.965547 0.640417
O O5 0.766877 0.535792 0.586598
O O6 0.845990 0.435592 0.507960
O O7 0.795537 0.675641 0.432783
O O8 0.328131 0.652595 0.422116
O O9 0.310875 0.389502 0.322873
O O10 0.225463 0.617948 0.254343
O O11 0.372195 0.295113 0.115931
O O12 0.250000 0.250000 0.000000
O O13 0.600515 0.169670 0.119525
O O14 0.500000 0.315379 0.250000
O O15 0.524728 0.268647 0.428434
O O16 0.000000 0.500000 0.000000
#
# Coordination Sequence:
#
# PCOD9289847 Si02
#       7
#     8   8   8   8   8   8   8
#     4  10  23  43  65  97 134 180 230 277 342 406
#     4  10  22  42  67  96 133 175 228 282 336 409
#     4  11  24  43  69  97 142 173 229 285 340 414
#     4  10  22  40  68  98 132 176 225 278 334 396
#     4  11  24  43  64 103 130 183 224 281 348 406
#     4  11  24  43  69 100 139 181 223 281 348 410
#     4  11  25  42  69  95 137 175 234 286 338 413
#
# _framework density 21.696524
#
# number of rings (size 3 to 8) (size 9 to 14) (size 15 to 20)
#    0.000    1.429    0.000    5.143    6.000    2.286 
#    5.143    0.000    0.000    0.000    0.000    0.000 
#    0.000    0.000    0.000    0.000    0.000    0.000 
#
# Total GULP energy -156329.369870 kJ/mol
# GULP energy per Si atom -5583.191781 kJ/mol
# Density = 2.164714 g / cm^3
# Si number density = 21.696524 Si / 1000 Ang^3
#
#
#
# Elastic Constant Matrix: (Units=GPa)
#
#
# Indices 1 2 3 4 5 6 
#
# 1 65.2440 26.3417 23.9741 0.0000 24.9275 0.0000
# 2 26.3417 121.8329 61.6477 0.0000 40.1190 0.0000
# 3 23.9741 61.6477 99.3605 0.0000 40.8995 0.0000
# 4 0.0000 0.0000 0.0000 45.8868 0.0000 9.6239
# 5 24.9275 40.1190 40.8995 0.0000 31.3565 0.0000
# 6 0.0000 0.0000 0.0000 9.6239 0.0000 26.8433
#
#
#
# Elastic Compliance Matrix: (Units=1/GPa)
#
#
# Indices 1 2 3 4 5 6 
#
# 1 0.022920 0.001277 0.003995 0.000000 -0.025066 0.000000
# 2 0.001277 0.014645 -0.002729 0.000000 -0.016193 0.000000
# 3 0.003995 -0.002729 0.023027 0.000000 -0.029719 0.000000
# 4 0.000000 0.000000 0.000000 0.023565 0.000000 -0.008448
# 5 -0.025066 -0.016193 -0.029719 0.000000 0.111300 0.000000
# 6 0.000000 0.000000 0.000000 -0.008448 0.000000 0.040282
#
#
# Mechanical properties :
#
#
# Convention : Reuss Voigt Hill
#
# Bulk Modulus (GPa) = 15.22573 56.70714 35.96644
# Shear Modulus (GPa) = 19.79838 32.44892 26.12365
#
# Velocity S-wave (km/s) = 3.02406 3.87147 3.47370
# Velocity P-wave (km/s) = 4.38476 6.79541 5.71855
#
# Compressibility (1/GPa) = 0.06567828
#
# Stress axis : x y z
#
# Youngs Moduli (GPa) = 43.62949 68.28231 43.42743
#
# Poissons Ratio (x) = -0.08718 -0.17351
# Poissons Ratio (y) = -0.05570 0.11851
# Poissons Ratio (z) = -0.17431 0.18634
#
# Static dielectric constant tensor:
#      x y z
#    x 1.867100 0.000000 0.016790 
#    y 0.000000 1.660460 0.000000 
#    z 0.016790 0.000000 1.761240 
# 
# From -- ./inp_files/172458.got.cif
#   From: 2010.05.17/outbox.cif.g08.bks.cpg/sg15_87_cif.got.tgz:172458.got - 2010.06.03 18:47:42.
