data_PCOD9289783
_publ_section_title
;
Structure prediction by ZEFSAII (Michael W. Deem and Ramdas Pophale) SiO2 
 PCOD9289783
Probable space group: C 2/C
;
_chemical_formula_sum "Si O2"
_cell_formula_units_Z 40
_cell_length_a 11.797364
_cell_length_b 18.855301
_cell_length_c 10.988776
_cell_angle_alpha 90.000000
_cell_angle_beta 140.818064
_cell_angle_gamma 90.000000
_cell_volume 1544.319111
_symmetry_space_group_name_H-M "C 2/C"
_symmetry_group_IT_number 15
_symmetry_cell_setting 'monoclinic'
loop_
_space_group_symop_operation_xyz
x,y,z
-x,y,1/2-z
-x,-y,-z
x,-y,1/2+z
1/2+x,1/2+y,z
1/2-x,1/2+y,1/2-z
1/2-x,1/2-y,-z
1/2+x,1/2-y,1/2+z
loop_
_atom_site_type_symbol
_atom_site_label
_atom_site_fract_x
_atom_site_fract_y
_atom_site_fract_z
Si Si1 0.210087 0.040533 0.398521
Si Si2 0.776379 0.335487 0.287627
Si Si3 0.785558 0.333693 0.556261
Si Si4 0.706081 0.480888 0.146582
Si Si5 0.202700 0.672962 0.168182
O O1 0.289096 0.001820 0.584286
O O2 0.224692 0.124698 0.380263
O O3 0.000000 0.027391 0.250000
O O4 0.292553 0.008632 0.343026
O O5 0.705613 0.360555 0.362551
O O6 0.716135 0.396057 0.147991
O O7 0.728920 0.257679 0.199387
O O8 0.989640 0.336696 0.482273
O O9 0.750000 0.250000 0.500000
O O10 0.715496 0.352739 0.632561
O O11 0.000000 0.342502 0.750000
O O12 0.500000 0.500000 0.000000
#
# Coordination Sequence:
#
# PCOD9289783 Si02
#       5
#     8   8   8   8   8
#     4  10  24  45  67  99 135 184 230 283 347 409
#     4  10  22  40  68 104 137 183 224 286 345 403
#     4   8  16  34  57  95 133 172 217 269 332 389
#     4  10  24  45  66  97 135 181 228 278 346 411
#     4  10  22  40  69 102 141 177 232 286 338 409
#
# _framework density 25.901382000000002
#
# number of rings (size 3 to 8) (size 9 to 14) (size 15 to 20)
#    0.000    2.400    0.000    0.000    8.400    2.400 
#    0.000    3.000    0.000    0.000    0.000    0.000 
#    0.000    0.000    0.000    0.000    0.000    0.000 
#
# Total GULP energy -111557.035004 kJ/mol
# GULP energy per Si atom -5577.851750 kJ/mol
# Density = 2.584243 g / cm^3
# Si number density = 25.901382 Si / 1000 Ang^3
#
#
#
# Elastic Constant Matrix: (Units=GPa)
#
#
# Indices 1 2 3 4 5 6 
#
# 1 133.8903 35.1126 64.8378 0.0000 -40.1927 0.0000
# 2 35.1126 107.9443 30.6407 0.0000 -16.8747 0.0000
# 3 64.8378 30.6407 70.3497 0.0000 -7.8451 0.0000
# 4 0.0000 0.0000 0.0000 31.2082 0.0000 -4.5567
# 5 -40.1927 -16.8747 -7.8451 0.0000 55.7841 0.0000
# 6 0.0000 0.0000 0.0000 -4.5567 0.0000 47.9390
#
#
#
# Elastic Compliance Matrix: (Units=1/GPa)
#
#
# Indices 1 2 3 4 5 6 
#
# 1 0.018406 0.000243 -0.015831 0.000000 0.011109 0.000000
# 2 0.000243 0.010956 -0.004680 0.000000 0.002831 0.000000
# 3 -0.015831 -0.004680 0.029883 0.000000 -0.008620 0.000000
# 4 0.000000 0.000000 0.000000 0.032494 0.000000 0.003089
# 5 0.011109 0.002831 -0.008620 0.000000 0.025575 0.000000
# 6 0.000000 0.000000 0.000000 0.003089 0.000000 0.021153
#
#
# Mechanical properties :
#
#
# Convention : Reuss Voigt Hill
#
# Bulk Modulus (GPa) = 53.45182 63.70741 58.57962
# Shear Modulus (GPa) = 26.99200 39.09247 33.04223
#
# Velocity S-wave (km/s) = 3.23167 3.88916 3.57556
# Velocity P-wave (km/s) = 5.88272 6.69455 6.30172
#
# Compressibility (1/GPa) = 0.01870844
#
# Stress axis : x y z
#
# Youngs Moduli (GPa) = 54.32911 91.27366 33.46397
#
# Poissons Ratio (x) = -0.02219 0.52978
# Poissons Ratio (y) = -0.01321 0.15662
# Poissons Ratio (z) = 0.86010 0.42719
#
# Static dielectric constant tensor:
#      x y z
#    x 2.152560 0.000000 -0.167180 
#    y 0.000000 2.147450 0.000000 
#    z -0.167180 0.000000 2.133840 
# 
# From -- ./inp_files/89886.got.cif
#   From: 2010.05.17/outbox.cif.g08.bks.cpg/sg15_45_cif.got.tgz:89886.got - 2010.06.03 18:47:42.
