data_PCOD9289299
_publ_section_title
;
Structure prediction by ZEFSAII (Michael W. Deem and Ramdas Pophale) SiO2 
 PCOD9289299
Probable space group: C 2/C
;
_chemical_formula_sum "Si O2"
_cell_formula_units_Z 48
_cell_length_a 11.981019
_cell_length_b 10.198260
_cell_length_c 22.006316
_cell_angle_alpha 90.000000
_cell_angle_beta 59.401350
_cell_angle_gamma 90.000000
_cell_volume 2314.441680
_symmetry_space_group_name_H-M "C 2/C"
_symmetry_group_IT_number 15
_symmetry_cell_setting 'monoclinic'
loop_
_space_group_symop_operation_xyz
x,y,z
-x,y,1/2-z
-x,-y,-z
x,-y,1/2+z
1/2+x,1/2+y,z
1/2-x,1/2+y,1/2-z
1/2-x,1/2-y,-z
1/2+x,1/2-y,1/2+z
loop_
_atom_site_type_symbol
_atom_site_label
_atom_site_fract_x
_atom_site_fract_y
_atom_site_fract_z
Si Si1 0.164587 0.051315 0.409448
Si Si2 0.778633 0.403954 0.495678
Si Si3 0.520128 0.804255 0.482614
Si Si4 0.069431 0.210126 0.872135
Si Si5 0.308138 0.596154 0.891198
Si Si6 0.852082 0.731858 0.277331
O O1 0.045343 0.150833 0.457761
O O2 0.259619 0.135957 0.340274
O O3 0.234189 0.994192 0.451098
O O4 0.121069 0.926947 0.383022
O O5 0.750000 0.250000 0.500000
O O6 0.697061 0.455531 0.576397
O O7 0.934670 0.395143 0.462247
O O8 0.444119 0.804611 0.566987
O O9 0.666562 0.852050 0.448862
O O10 0.156090 0.261305 0.792731
O O11 0.923823 0.180147 0.888768
O O12 0.326765 0.624460 0.814707
O O13 0.000000 0.693985 0.250000
#
# Coordination Sequence:
#
# PCOD9289299 Si02
#       6
#     8   8   8   8   8   8
#     4  11  23  43  64  92 132 164 206 272 319 375
#     4  12  23  38  64  99 125 161 211 266 327 368
#     4  11  22  39  68  96 121 165 215 265 313 376
#     4  11  20  40  66  90 124 169 202 259 320 376
#     4  10  22  40  63  92 124 164 215 255 310 384
#     4   9  23  41  64  88 123 175 207 247 316 377
#
# _framework density 20.739343000000002
#
# number of rings (size 3 to 8) (size 9 to 14) (size 15 to 20)
#    0.000    1.333    3.333    2.500    4.667    1.333 
#    6.000    0.000    0.000    0.000    0.000    0.000 
#    0.000    0.000    0.000    0.000    0.000    0.000 
#
# Total GULP energy -133858.377018 kJ/mol
# GULP energy per Si atom -5577.432376 kJ/mol
# Density = 2.069214 g / cm^3
# Si number density = 20.739343 Si / 1000 Ang^3
#
#
#
# Elastic Constant Matrix: (Units=GPa)
#
#
# Indices 1 2 3 4 5 6 
#
# 1 89.7592 20.9185 36.7567 0.0000 2.3035 0.0000
# 2 20.9185 59.7795 25.8021 0.0000 -1.9274 0.0000
# 3 36.7567 25.8021 143.7934 0.0000 0.7548 0.0000
# 4 0.0000 0.0000 0.0000 30.7763 0.0000 4.5301
# 5 2.3035 -1.9274 0.7548 0.0000 22.0810 0.0000
# 6 0.0000 0.0000 0.0000 4.5301 0.0000 32.0517
#
#
#
# Elastic Compliance Matrix: (Units=1/GPa)
#
#
# Indices 1 2 3 4 5 6 
#
# 1 0.013102 -0.003462 -0.002720 0.000000 -0.001576 0.000000
# 2 -0.003462 0.019111 -0.002555 0.000000 0.002117 0.000000
# 3 -0.002720 -0.002555 0.008109 0.000000 -0.000217 0.000000
# 4 0.000000 0.000000 0.000000 0.033183 0.000000 -0.004690
# 5 -0.001576 0.002117 -0.000217 0.000000 0.045644 0.000000
# 6 0.000000 0.000000 0.000000 -0.004690 0.000000 0.031862
#
#
# Mechanical properties :
#
#
# Convention : Reuss Voigt Hill
#
# Bulk Modulus (GPa) = 43.76692 51.14298 47.45495
# Shear Modulus (GPa) = 28.39279 30.97213 29.68246
#
# Velocity S-wave (km/s) = 3.70405 3.86865 3.78724
# Velocity P-wave (km/s) = 6.28033 6.68346 6.48503
#
# Compressibility (1/GPa) = 0.02284831
#
# Stress axis : x y z
#
# Youngs Moduli (GPa) = 76.32530 52.32675 123.31504
#
# Poissons Ratio (x) = 0.18114 0.33538
# Poissons Ratio (y) = 0.26421 0.31512
# Poissons Ratio (z) = 0.20758 0.13372
#
# Static dielectric constant tensor:
#      x y z
#    x 1.842910 0.000000 0.034870 
#    y 0.000000 1.834680 0.000000 
#    z 0.034870 0.000000 1.744000 
# 
# From -- ./inp_files/236839.got.cif
#   From: 2010.05.17/outbox.cif.g08.bks.cpg/sg15_119_cif.got.tgz:236839.got - 2010.06.03 18:47:42.
