data_PCOD9289431
_publ_section_title
;
Structure prediction by ZEFSAII (Michael W. Deem and Ramdas Pophale) SiO2 
 PCOD9289431
Probable space group: C 2/C
;
_chemical_formula_sum "Si O2"
_cell_formula_units_Z 60
_cell_length_a 14.437040
_cell_length_b 17.054568
_cell_length_c 13.410380
_cell_angle_alpha 90.000000
_cell_angle_beta 116.775464
_cell_angle_gamma 90.000000
_cell_volume 2947.839572
_symmetry_space_group_name_H-M "C 2/C"
_symmetry_group_IT_number 15
_symmetry_cell_setting 'monoclinic'
loop_
_space_group_symop_operation_xyz
x,y,z
-x,y,1/2-z
-x,-y,-z
x,-y,1/2+z
1/2+x,1/2+y,z
1/2-x,1/2+y,1/2-z
1/2-x,1/2-y,-z
1/2+x,1/2-y,1/2+z
loop_
_atom_site_type_symbol
_atom_site_label
_atom_site_fract_x
_atom_site_fract_y
_atom_site_fract_z
Si Si1 0.800945 0.548515 0.768226
Si Si2 0.890629 0.869486 0.641661
Si Si3 0.500000 0.096331 0.750000
Si Si4 0.727835 0.855434 0.904709
Si Si5 0.191100 0.614140 0.165994
Si Si6 0.836121 0.693224 0.921559
Si Si7 0.559352 0.214985 0.951764
Si Si8 0.622173 0.500787 0.029667
O O1 0.903360 0.549875 0.748735
O O2 0.817753 0.479003 0.856480
O O3 0.797009 0.632072 0.820242
O O4 0.696780 0.532162 0.654237
O O5 0.806514 0.862586 0.688134
O O6 0.891931 0.793490 0.570398
O O7 0.000000 0.876087 0.750000
O O8 0.868154 0.944311 0.561296
O O9 0.547384 0.152706 0.857153
O O10 0.674356 0.879864 0.775894
O O11 0.761915 0.766527 0.900909
O O12 0.826799 0.913744 0.966660
O O13 0.659706 0.853267 0.971507
O O14 0.120748 0.671393 0.068393
O O15 0.944737 0.728479 0.938418
O O16 0.500000 0.500000 0.000000
#
# Coordination Sequence:
#
# PCOD9289431 Si02
#       8
#     8   8   4   8   8   8   8   8
#     4  10  23  41  64  96 128 172 215 267 333 390
#     4  12  23  40  66  95 131 164 216 269 327 393
#     4  10  22  40  64  94 132 166 218 272 328 390
#     4  10  23  42  61  89 128 172 214 268 323 386
#     4  11  24  38  62  93 125 165 214 264 325 392
#     4  10  22  42  64  85 129 169 216 265 325 391
#     4  11  23  39  64  96 124 167 212 273 327 378
#     4  11  23  40  65  97 132 170 216 271 329 393
#
# _framework density 20.353888999999999
#
# number of rings (size 3 to 8) (size 9 to 14) (size 15 to 20)
#    0.000    1.333    0.667    5.200    3.733    5.867 
#    0.000    0.000    0.000    0.000    0.000    0.000 
#    0.000    0.000    0.000    0.000    0.000    0.000 
#
# Total GULP energy -167531.115469 kJ/mol
# GULP energy per Si atom -5584.370516 kJ/mol
# Density = 2.030756 g / cm^3
# Si number density = 20.353889 Si / 1000 Ang^3
#
#
#
# Elastic Constant Matrix: (Units=GPa)
#
#
# Indices 1 2 3 4 5 6 
#
# 1 67.0472 18.7667 9.6904 0.0000 -19.3823 0.0000
# 2 18.7667 94.9827 34.2127 0.0000 -1.1858 0.0000
# 3 9.6904 34.2127 78.1012 0.0000 -3.1243 0.0000
# 4 0.0000 0.0000 0.0000 35.7772 0.0000 -2.5883
# 5 -19.3823 -1.1858 -3.1243 0.0000 24.8440 0.0000
# 6 0.0000 0.0000 0.0000 -2.5883 0.0000 -28.7971
#
#
#
# Elastic Compliance Matrix: (Units=1/GPa)
#
#
# Indices 1 2 3 4 5 6 
#
# 1 0.020592 -0.003774 -0.000267 0.000000 0.015852 0.000000
# 2 -0.003774 0.013193 -0.005431 0.000000 -0.002998 0.000000
# 3 -0.000267 -0.005431 0.015274 0.000000 0.001453 0.000000
# 4 0.000000 0.000000 0.000000 0.027770 0.000000 -0.002496
# 5 0.015852 -0.002998 0.001453 0.000000 0.052658 0.000000
# 6 0.000000 0.000000 0.000000 -0.002496 0.000000 -0.034501
#
#
# Mechanical properties :
#
#
# Convention : Reuss Voigt Hill
#
# Bulk Modulus (GPa) = 33.20714 40.60785 36.90749
# Shear Modulus (GPa) = 40.33268 18.19559 29.26414
#
# Velocity S-wave (km/s) = 4.45631 2.99316 3.79590
# Velocity P-wave (km/s) = 6.54436 5.65151 6.11425
#
# Compressibility (1/GPa) = 0.03011401
#
# Stress axis : x y z
#
# Youngs Moduli (GPa) = 48.56154 75.79947 65.46994
#
# Poissons Ratio (x) = 0.28610 0.01751
# Poissons Ratio (y) = 0.18329 0.35555
# Poissons Ratio (z) = 0.01299 0.41165
#
# Static dielectric constant tensor:
#      x y z
#    x 1.731510 0.000000 -0.014760 
#    y 0.000000 1.742100 0.000000 
#    z -0.014760 0.000000 1.734470 
# 
# From -- ./inp_files/98814.got.cif
#   From: 2010.05.17/outbox.cif.g08.bks.cpg/sg15_50_cif.got.tgz:98814.got - 2010.06.03 18:47:42.
