data_PCOD9289401
_publ_section_title
;
Structure prediction by ZEFSAII (Michael W. Deem and Ramdas Pophale) SiO2 
 PCOD9289401
Probable space group: C 2/C
;
_chemical_formula_sum "Si O2"
_cell_formula_units_Z 32
_cell_length_a 14.490092
_cell_length_b 12.194408
_cell_length_c 8.660965
_cell_angle_alpha 90.000000
_cell_angle_beta 84.826461
_cell_angle_gamma 90.000000
_cell_volume 1524.141483
_symmetry_space_group_name_H-M "C 2/C"
_symmetry_group_IT_number 15
_symmetry_cell_setting 'monoclinic'
loop_
_space_group_symop_operation_xyz
x,y,z
-x,y,1/2-z
-x,-y,-z
x,-y,1/2+z
1/2+x,1/2+y,z
1/2-x,1/2+y,1/2-z
1/2-x,1/2-y,-z
1/2+x,1/2-y,1/2+z
loop_
_atom_site_type_symbol
_atom_site_label
_atom_site_fract_x
_atom_site_fract_y
_atom_site_fract_z
Si Si1 0.747036 0.439715 0.218666
Si Si2 0.946938 0.098350 0.916883
Si Si3 0.212878 0.866744 0.561939
Si Si4 0.091412 0.262399 0.308662
O O1 0.657257 0.426709 0.124129
O O2 0.710453 0.428629 0.398179
O O3 0.778157 0.562146 0.165831
O O4 0.825932 0.349133 0.181382
O O5 0.000000 0.121975 0.750000
O O6 0.937395 0.201139 0.031617
O O7 0.000000 0.000000 0.000000
O O8 0.250000 0.750000 0.500000
O O9 0.125995 0.831770 0.682178
O O10 0.000000 0.316334 0.250000
#
# Coordination Sequence:
#
# PCOD9289401 Si02
#       4
#     8   8   8   8
#     4  11  22  40  64  93 127 167 210 267 322 376
#     4  12  23  37  63  96 126 165 218 269 317 374
#     4  10  22  40  64  92 127 169 213 259 317 384
#     4  11  23  41  64  95 130 167 213 265 320 384
#
# _framework density 20.995425000000001
#
# number of rings (size 3 to 8) (size 9 to 14) (size 15 to 20)
#    0.000    1.000    0.000    9.000    0.000    2.000 
#    0.000    5.000    0.000   13.500    0.000    0.000 
#    0.000    0.000    0.000    0.000    0.000    0.000 
#
# Total GULP energy -89255.449567 kJ/mol
# GULP energy per Si atom -5578.465598 kJ/mol
# Density = 2.094764 g / cm^3
# Si number density = 20.995425 Si / 1000 Ang^3
#
#
#
# Elastic Constant Matrix: (Units=GPa)
#
#
# Indices 1 2 3 4 5 6 
#
# 1 129.9573 61.4486 67.6301 0.0000 -2.0399 0.0000
# 2 61.4486 117.1899 76.1996 0.0000 -1.4636 0.0000
# 3 67.6301 76.1996 174.4659 0.0000 -13.2756 0.0000
# 4 0.0000 0.0000 0.0000 43.3057 0.0000 1.6505
# 5 -2.0399 -1.4636 -13.2756 0.0000 24.8164 0.0000
# 6 0.0000 0.0000 0.0000 1.6505 0.0000 40.5962
#
#
#
# Elastic Compliance Matrix: (Units=1/GPa)
#
#
# Indices 1 2 3 4 5 6 
#
# 1 0.010927 -0.004121 -0.002487 0.000000 -0.000676 0.000000
# 2 -0.004121 0.013585 -0.004483 0.000000 -0.001936 0.000000
# 3 -0.002487 -0.004483 0.008984 0.000000 0.004337 0.000000
# 4 0.000000 0.000000 0.000000 0.023127 0.000000 -0.000940
# 5 -0.000676 -0.001936 0.004337 0.000000 0.042446 0.000000
# 6 0.000000 0.000000 0.000000 -0.000940 0.000000 0.024671
#
#
# Mechanical properties :
#
#
# Convention : Reuss Voigt Hill
#
# Bulk Modulus (GPa) = 88.39155 92.46329 90.42742
# Shear Modulus (GPa) = 33.40129 36.16599 34.78364
#
# Velocity S-wave (km/s) = 3.99292 4.15488 4.07470
# Velocity P-wave (km/s) = 7.96553 8.19468 8.08091
#
# Compressibility (1/GPa) = 0.01131330
#
# Stress axis : x y z
#
# Youngs Moduli (GPa) = 91.51549 73.61191 111.30730
#
# Poissons Ratio (x) = 0.30333 0.27687
# Poissons Ratio (y) = 0.37711 0.49902
# Poissons Ratio (z) = 0.22764 0.33002
#
# Static dielectric constant tensor:
#      x y z
#    x 1.838290 0.000000 0.009830 
#    y 0.000000 2.070150 0.000000 
#    z 0.009830 0.000000 1.749280 
# 
# From -- ./inp_files/36815.got.cif
#   From: 2010.05.17/outbox.cif.g08.bks.cpg/sg15_19_cif.got.tgz:36815.got - 2010.06.03 18:47:42.
