data_PCOD9289848
_publ_section_title
;
Structure prediction by ZEFSAII (Michael W. Deem and Ramdas Pophale) SiO2 
 PCOD9289848
Probable space group: C 2/C
;
_chemical_formula_sum "Si O2"
_cell_formula_units_Z 36
_cell_length_a 11.881087
_cell_length_b 22.275957
_cell_length_c 7.904480
_cell_angle_alpha 90.000000
_cell_angle_beta 52.691547
_cell_angle_gamma 90.000000
_cell_volume 1663.959456
_symmetry_space_group_name_H-M "C 2/C"
_symmetry_group_IT_number 15
_symmetry_cell_setting 'monoclinic'
loop_
_space_group_symop_operation_xyz
x,y,z
-x,y,1/2-z
-x,-y,-z
x,-y,1/2+z
1/2+x,1/2+y,z
1/2-x,1/2+y,1/2-z
1/2-x,1/2-y,-z
1/2+x,1/2-y,1/2+z
loop_
_atom_site_type_symbol
_atom_site_label
_atom_site_fract_x
_atom_site_fract_y
_atom_site_fract_z
Si Si1 0.837354 0.488123 0.594521
Si Si2 0.500000 0.102054 0.750000
Si Si3 0.344029 0.570990 0.943991
Si Si4 0.522453 0.190153 0.431057
Si Si5 0.320002 0.294010 0.574447
O O1 0.765210 0.548859 0.597993
O O2 0.000000 0.500000 0.500000
O O3 0.866537 0.440164 0.418114
O O4 0.730432 0.457129 0.822622
O O5 0.466447 0.142747 0.617085
O O6 0.500000 0.548345 0.750000
O O7 0.354798 0.642091 0.962285
O O8 0.500000 0.172732 0.250000
O O9 0.450870 0.255159 0.519553
O O10 0.689318 0.194372 0.317196
O O11 0.250000 0.250000 0.500000
#
# Coordination Sequence:
#
# PCOD9289848 Si02
#       5
#     8   4   8   8   8
#     4  12  26  44  71 104 140 193 239 297 357 435
#     4  12  24  44  74 104 136 182 248 292 356 424
#     4  12  25  45  69 103 144 186 240 296 368 423
#     4  10  23  42  69 101 140 182 238 290 356 427
#     4  10  22  40  68  98 132 189 231 288 356 417
#
# _framework density 21.635141000000001
#
# number of rings (size 3 to 8) (size 9 to 14) (size 15 to 20)
#    0.000    0.889    4.444    2.667    6.222    0.889 
#    0.000    0.000    0.000    0.000    0.000    0.000 
#    0.000    0.000    0.000    0.000    0.000    0.000 
#
# Total GULP energy -100437.322338 kJ/mol
# GULP energy per Si atom -5579.851241 kJ/mol
# Density = 2.158590 g / cm^3
# Si number density = 21.635141 Si / 1000 Ang^3
#
#
#
# Elastic Constant Matrix: (Units=GPa)
#
#
# Indices 1 2 3 4 5 6 
#
# 1 83.1518 51.8101 54.1614 0.0000 -21.1465 0.0000
# 2 51.8101 141.0385 59.2841 0.0000 -4.7780 0.0000
# 3 54.1614 59.2841 175.9637 0.0000 -22.2497 0.0000
# 4 0.0000 0.0000 0.0000 24.4589 0.0000 -3.3166
# 5 -21.1465 -4.7780 -22.2497 0.0000 38.0194 0.0000
# 6 0.0000 0.0000 0.0000 -3.3166 0.0000 38.8619
#
#
#
# Elastic Compliance Matrix: (Units=1/GPa)
#
#
# Indices 1 2 3 4 5 6 
#
# 1 0.019712 -0.005654 -0.003095 0.000000 0.008442 0.000000
# 2 -0.005654 0.009896 -0.001981 0.000000 -0.003060 0.000000
# 3 -0.003095 -0.001981 0.007617 0.000000 0.002488 0.000000
# 4 0.000000 0.000000 0.000000 0.041364 0.000000 0.003530
# 5 0.008442 -0.003060 0.002488 0.000000 0.032069 0.000000
# 6 0.000000 0.000000 0.000000 0.003530 0.000000 0.026033
#
#
# Mechanical properties :
#
#
# Convention : Reuss Voigt Hill
#
# Bulk Modulus (GPa) = 63.42786 81.18503 72.30644
# Shear Modulus (GPa) = 30.59845 35.92794 33.26319
#
# Velocity S-wave (km/s) = 3.76479 4.07950 3.92530
# Velocity P-wave (km/s) = 6.94830 7.73278 7.35101
#
# Compressibility (1/GPa) = 0.01576594
#
# Stress axis : x y z
#
# Youngs Moduli (GPa) = 50.73037 101.04829 131.27704
#
# Poissons Ratio (x) = 0.57135 0.40629
# Poissons Ratio (y) = 0.28684 0.26003
# Poissons Ratio (z) = 0.15701 0.20015
#
# Static dielectric constant tensor:
#      x y z
#    x 1.854700 0.000000 0.016510 
#    y 0.000000 1.846010 0.000000 
#    z 0.016510 0.000000 1.879040 
# 
# From -- ./inp_files/41181.got.cif
#   From: 2010.05.17/outbox.cif.g08.bks.cpg/sg15_21_cif.got.tgz:41181.got - 2010.06.03 18:47:42.
