data_PCOD9289197
_publ_section_title
;
Structure prediction by ZEFSAII (Michael W. Deem and Ramdas Pophale) SiO2 
 PCOD9289197
Probable space group: C 2/C
;
_chemical_formula_sum "Si O2"
_cell_formula_units_Z 48
_cell_length_a 8.234910
_cell_length_b 22.922729
_cell_length_c 20.335796
_cell_angle_alpha 90.000000
_cell_angle_beta 148.023591
_cell_angle_gamma 90.000000
_cell_volume 2032.870735
_symmetry_space_group_name_H-M "C 2/C"
_symmetry_group_IT_number 15
_symmetry_cell_setting 'monoclinic'
loop_
_space_group_symop_operation_xyz
x,y,z
-x,y,1/2-z
-x,-y,-z
x,-y,1/2+z
1/2+x,1/2+y,z
1/2-x,1/2+y,1/2-z
1/2-x,1/2-y,-z
1/2+x,1/2-y,1/2+z
loop_
_atom_site_type_symbol
_atom_site_label
_atom_site_fract_x
_atom_site_fract_y
_atom_site_fract_z
Si Si1 0.660728 0.203477 0.074437
Si Si2 0.223593 0.182401 0.187074
Si Si3 0.630093 0.013518 0.616698
Si Si4 0.419484 0.893529 0.590567
Si Si5 0.352270 0.854176 0.348495
Si Si6 0.340917 0.332212 0.423547
O O1 0.574738 0.146683 0.087073
O O2 0.585635 0.267071 0.076844
O O3 0.014996 0.206695 0.173891
O O4 0.488791 0.192613 0.946446
O O5 0.500000 0.219424 0.250000
O O6 0.411612 0.130584 0.286621
O O7 0.997454 0.166110 0.050483
O O8 0.485346 0.961442 0.608890
O O9 0.000000 0.008816 0.750000
O O10 0.500000 0.000000 0.500000
O O11 0.536444 0.079220 0.602010
O O12 0.057222 0.878656 0.461731
O O13 0.483031 0.840569 0.319826
O O14 0.000000 0.856758 0.250000
#
# Coordination Sequence:
#
# PCOD9289197 Si02
#       6
#     8   8   8   8   8   8
#     4  11  20  37  62  90 127 166 207 258 326 389
#     4   9  19  35  58  90 119 158 214 259 310 379
#     4  11  23  42  71  97 126 173 225 270 327 391
#     4  11  22  39  64  93 124 165 218 266 319 394
#     4  10  22  40  62  87 125 171 210 262 327 381
#     4  10  23  38  60  95 126 165 212 268 323 390
#
# _framework density 23.611930000000001
#
# number of rings (size 3 to 8) (size 9 to 14) (size 15 to 20)
#    0.000    1.667    1.667    4.000    2.333    6.000 
#    0.000    2.500    0.000    0.000    0.000    0.000 
#    0.000    0.000    0.000    0.000    0.000    0.000 
#
# Total GULP energy -133871.827214 kJ/mol
# GULP energy per Si atom -5577.992801 kJ/mol
# Density = 2.355819 g / cm^3
# Si number density = 23.611930 Si / 1000 Ang^3
#
#
#
# Elastic Constant Matrix: (Units=GPa)
#
#
# Indices 1 2 3 4 5 6 
#
# 1 86.9248 15.4170 7.2454 -0.0001 31.8151 -0.0001
# 2 15.4170 155.7128 18.2356 0.0000 20.1535 0.0001
# 3 7.2454 18.2356 83.8468 -0.0015 18.9368 0.0027
# 4 -0.0001 0.0000 -0.0015 32.0201 -0.0003 2.6298
# 5 31.8151 20.1535 18.9368 -0.0003 41.4257 0.0002
# 6 -0.0001 0.0001 0.0027 2.6298 0.0002 22.1827
#
#
#
# Elastic Compliance Matrix: (Units=1/GPa)
#
#
# Indices 1 2 3 4 5 6 
#
# 1 0.016187 -0.000091 0.001582 0.000000 -0.013111 0.000000
# 2 -0.000091 0.006905 -0.000837 0.000000 -0.002907 0.000000
# 3 0.001582 -0.000837 0.013554 0.000001 -0.007003 -0.000002
# 4 0.000000 0.000000 0.000001 0.031537 0.000000 -0.003739
# 5 -0.013111 -0.002907 -0.007003 0.000000 0.038824 0.000000
# 6 0.000000 0.000000 -0.000002 -0.003739 0.000000 0.045523
#
#
# Mechanical properties :
#
#
# Convention : Reuss Voigt Hill
#
# Bulk Modulus (GPa) = 26.34828 45.36449 35.85638
# Shear Modulus (GPa) = 30.51103 38.16479 34.33791
#
# Velocity S-wave (km/s) = 3.59860 4.02473 3.81761
# Velocity P-wave (km/s) = 5.33382 6.39157 5.88650
#
# Compressibility (1/GPa) = 0.03795315
#
# Stress axis : x y z
#
# Youngs Moduli (GPa) = 61.77769 144.81471 73.78081
#
# Poissons Ratio (x) = 0.01319 -0.11673
# Poissons Ratio (y) = 0.00563 0.06179
# Poissons Ratio (z) = -0.09774 0.12128
#
# Static dielectric constant tensor:
#      x y z
#    x 2.020680 0.000000 0.064360 
#    y 0.000000 1.852580 0.000000 
#    z 0.064360 0.000000 1.961740 
# 
# From -- ./inp_files/266553.got.cif
#   From: 2010.05.17/outbox.cif.g08.bks.cpg/sg15_134_cif.got.tgz:266553.got - 2010.06.03 18:47:42.
