data_PCOD9289992
_publ_section_title
;
Structure prediction by ZEFSAII (Michael W. Deem and Ramdas Pophale) SiO2 
 PCOD9289992
Probable space group: C 2/C
;
_chemical_formula_sum "Si O2"
_cell_formula_units_Z 40
_cell_length_a 17.789940
_cell_length_b 9.488048
_cell_length_c 9.709235
_cell_angle_alpha 90.000000
_cell_angle_beta 114.801499
_cell_angle_gamma 90.000000
_cell_volume 1487.683420
_symmetry_space_group_name_H-M "C 2/C"
_symmetry_group_IT_number 15
_symmetry_cell_setting 'monoclinic'
loop_
_space_group_symop_operation_xyz
x,y,z
-x,y,1/2-z
-x,-y,-z
x,-y,1/2+z
1/2+x,1/2+y,z
1/2-x,1/2+y,1/2-z
1/2-x,1/2-y,-z
1/2+x,1/2-y,1/2+z
loop_
_atom_site_type_symbol
_atom_site_label
_atom_site_fract_x
_atom_site_fract_y
_atom_site_fract_z
Si Si1 0.656635 0.263901 0.529712
Si Si2 0.037222 0.196406 0.549565
Si Si3 0.592599 0.940833 0.758817
Si Si4 0.602958 0.513610 0.340528
Si Si5 0.193987 0.725720 0.825336
O O1 0.559928 0.270405 0.509207
O O2 0.648042 0.149962 0.404482
O O3 0.665833 0.419267 0.476437
O O4 0.724990 0.216271 0.692696
O O5 0.082940 0.346308 0.611779
O O6 0.057866 0.113915 0.423356
O O7 0.060537 0.095510 0.698481
O O8 0.500000 0.952122 0.750000
O O9 0.633281 0.093266 0.786068
O O10 0.648235 0.625278 0.282412
O O11 0.250000 0.750000 0.000000
#
# Coordination Sequence:
#
# PCOD9289992 Si02
#       5
#     8   8   8   8   8
#     4  10  23  42  66  99 134 167 230 276 333 399
#     4  10  22  40  72 105 131 170 223 284 341 387
#     4   9  23  43  68  99 129 173 223 285 334 391
#     4  11  22  42  66 101 132 173 219 282 334 395
#     4  12  28  42  63  96 137 184 226 268 335 406
#
# _framework density 26.887440999999999
#
# number of rings (size 3 to 8) (size 9 to 14) (size 15 to 20)
#    0.000    1.600    2.000    2.400    8.400    3.200 
#    0.000    2.000    0.000    0.000    0.000    0.000 
#    0.000    0.000    0.000    0.000    0.000    0.000 
#
# Total GULP energy -111791.453489 kJ/mol
# GULP energy per Si atom -5589.572674 kJ/mol
# Density = 2.682624 g / cm^3
# Si number density = 26.887441 Si / 1000 Ang^3
#
#
#
# Elastic Constant Matrix: (Units=GPa)
#
#
# Indices 1 2 3 4 5 6 
#
# 1 65.6079 -1.1763 23.7055 0.0000 2.3963 0.0000
# 2 -1.1763 158.5427 58.1076 0.0000 14.7484 0.0000
# 3 23.7055 58.1076 199.9587 0.0000 -1.3709 0.0000
# 4 0.0000 0.0000 0.0000 42.0815 0.0000 -16.0487
# 5 2.3963 14.7484 -1.3709 0.0000 28.9500 0.0000
# 6 0.0000 0.0000 0.0000 -16.0487 0.0000 7.7112
#
#
#
# Elastic Compliance Matrix: (Units=1/GPa)
#
#
# Indices 1 2 3 4 5 6 
#
# 1 0.016152 0.001136 -0.002259 0.000000 -0.002023 0.000000
# 2 0.001136 0.007558 -0.002359 0.000000 -0.004056 0.000000
# 3 -0.002259 -0.002359 0.005966 0.000000 0.001671 0.000000
# 4 0.000000 0.000000 0.000000 0.115196 0.000000 0.239747
# 5 -0.002023 -0.004056 0.001671 0.000000 0.036855 0.000000
# 6 0.000000 0.000000 0.000000 0.239747 0.000000 0.628645
#
#
# Mechanical properties :
#
#
# Convention : Reuss Voigt Hill
#
# Bulk Modulus (GPa) = 44.02858 65.04253 54.53555
# Shear Modulus (GPa) = 6.06129 38.64673 22.35401
#
# Velocity S-wave (km/s) = 1.50307 3.79536 2.88652
# Velocity P-wave (km/s) = 4.40715 6.59162 5.60680
#
# Compressibility (1/GPa) = 0.02271252
#
# Stress axis : x y z
#
# Youngs Moduli (GPa) = 61.90995 132.31596 167.62438
#
# Poissons Ratio (x) = -0.15030 0.37864
# Poissons Ratio (y) = -0.07032 0.39538
# Poissons Ratio (z) = 0.13985 0.31210
#
# Static dielectric constant tensor:
#      x y z
#    x 2.228180 0.000000 0.009660 
#    y 0.000000 2.055810 0.000000 
#    z 0.009660 0.000000 2.214950 
# 
# From -- ./inp_files/125740.got.cif
#   From: 2010.05.17/outbox.cif.g08.bks.cpg/sg15_63_cif.got.tgz:125740.got - 2010.06.03 18:47:42.
