data_PCOD9289058
_publ_section_title
;
Structure prediction by ZEFSAII (Michael W. Deem and Ramdas Pophale) SiO2 
 PCOD9289058
Probable space group: C 2/C
;
_chemical_formula_sum "Si O2"
_cell_formula_units_Z 64
_cell_length_a 5.327259
_cell_length_b 18.058134
_cell_length_c 30.196091
_cell_angle_alpha 90.000000
_cell_angle_beta 89.489495
_cell_angle_gamma 90.000000
_cell_volume 2904.759425
_symmetry_space_group_name_H-M "C 2/C"
_symmetry_group_IT_number 15
_symmetry_cell_setting 'monoclinic'
loop_
_space_group_symop_operation_xyz
x,y,z
-x,y,1/2-z
-x,-y,-z
x,-y,1/2+z
1/2+x,1/2+y,z
1/2-x,1/2+y,1/2-z
1/2-x,1/2-y,-z
1/2+x,1/2-y,1/2+z
loop_
_atom_site_type_symbol
_atom_site_label
_atom_site_fract_x
_atom_site_fract_y
_atom_site_fract_z
Si Si1 0.252148 0.930514 0.971167
Si Si2 0.114875 0.285570 0.869393
Si Si3 0.575240 0.552039 0.561423
Si Si4 0.565860 0.343388 0.299867
Si Si5 0.733393 0.808861 0.409582
Si Si6 0.101654 0.554999 0.386773
Si Si7 0.539159 0.090854 0.837611
Si Si8 0.422427 0.716641 0.461509
O O1 0.455077 0.919564 0.932014
O O2 0.041095 0.865142 0.967427
O O3 0.292633 0.935056 0.024040
O O4 0.154311 0.013763 0.961794
O O5 0.142140 0.228649 0.828999
O O6 0.832959 0.262899 0.884166
O O7 0.143102 0.371567 0.858563
O O8 0.280470 0.278606 0.914113
O O9 0.544161 0.631649 0.583238
O O10 0.657405 0.489661 0.595922
O O11 0.500000 0.322822 0.250000
O O12 0.818145 0.391335 0.304064
O O13 0.318141 0.387827 0.318496
O O14 0.538136 0.855836 0.381096
O O15 0.641862 0.776578 0.455531
O O16 0.985139 0.490805 0.356738
O O17 0.250000 0.750000 0.500000
#
# Coordination Sequence:
#
# PCOD9289058 Si02
#       8
#     8   8   8   8   8   8   8   8
#     4  11  23  37  56  85 127 179 235 280 327 390
#     4  11  23  41  63  95 129 171 219 274 338 396
#     4  10  23  37  56  84 123 179 235 274 330 375
#     4  11  24  48  75 103 132 168 215 273 342 421
#     4  10  22  40  59  89 129 176 224 277 326 392
#     4  11  23  39  63  87 132 170 219 280 338 389
#     4  10  24  42  73 101 132 171 216 271 338 408
#     4  12  24  36  59  91 133 181 229 282 327 390
#
# _framework density 22.032806000000001
#
# number of rings (size 3 to 8) (size 9 to 14) (size 15 to 20)
#    0.000    1.250    3.750    1.500    7.000    5.000 
#    0.000    1.250    0.000    0.000    0.000    0.000 
#    0.000    0.000    0.000    0.000    0.000    0.000 
#
# Total GULP energy -178370.651298 kJ/mol
# GULP energy per Si atom -5574.082853 kJ/mol
# Density = 2.198266 g / cm^3
# Si number density = 22.032806 Si / 1000 Ang^3
#
#
#
# Elastic Constant Matrix: (Units=GPa)
#
#
# Indices 1 2 3 4 5 6 
#
# 1 65.7860 31.4351 16.1031 0.0000 7.9002 0.0000
# 2 31.4351 143.6148 32.2282 0.0000 10.6656 0.0000
# 3 16.1031 32.2282 91.7699 0.0000 17.2873 0.0000
# 4 0.0000 0.0000 0.0000 22.0150 0.0000 2.6112
# 5 7.9002 10.6656 17.2873 0.0000 35.8690 0.0000
# 6 0.0000 0.0000 0.0000 2.6112 0.0000 25.7804
#
#
#
# Elastic Compliance Matrix: (Units=1/GPa)
#
#
# Indices 1 2 3 4 5 6 
#
# 1 0.017406 -0.003318 -0.001488 0.000000 -0.002130 0.000000
# 2 -0.003318 0.008228 -0.002182 0.000000 -0.000664 0.000000
# 3 -0.001488 -0.002182 0.012913 0.000000 -0.005247 0.000000
# 4 0.000000 0.000000 0.000000 0.045976 0.000000 -0.004657
# 5 -0.002130 -0.000664 -0.005247 0.000000 0.031075 0.000000
# 6 0.000000 0.000000 0.000000 -0.004657 0.000000 0.039261
#
#
# Mechanical properties :
#
#
# Convention : Reuss Voigt Hill
#
# Bulk Modulus (GPa) = 40.69838 51.18928 45.94383
# Shear Modulus (GPa) = 28.24460 31.49319 29.86889
#
# Velocity S-wave (km/s) = 3.58429 3.78481 3.68592
# Velocity P-wave (km/s) = 5.97004 6.51025 6.24599
#
# Compressibility (1/GPa) = 0.02457100
#
# Stress axis : x y z
#
# Youngs Moduli (GPa) = 57.45081 121.53091 77.44332
#
# Poissons Ratio (x) = 0.40322 0.11523
# Poissons Ratio (y) = 0.19061 0.16901
# Poissons Ratio (z) = 0.08548 0.26523
#
# Static dielectric constant tensor:
#      x y z
#    x 1.953270 0.000000 -0.030390 
#    y 0.000000 1.813190 0.000000 
#    z -0.030390 0.000000 1.852060 
# 
# From -- ./inp_files/305799.got.cif
#   From: 2010.05.17/outbox.cif.g08.bks.cpg/sg15_153_cif.got.tgz:305799.got - 2010.06.03 18:47:42.
