data_PCOD9289389
_publ_section_title
;
Structure prediction by ZEFSAII (Michael W. Deem and Ramdas Pophale) SiO2 
 PCOD9289389
Probable space group: C 2/C
;
_chemical_formula_sum "Si O2"
_cell_formula_units_Z 40
_cell_length_a 5.723954
_cell_length_b 26.907521
_cell_length_c 12.013545
_cell_angle_alpha 90.000000
_cell_angle_beta 119.809787
_cell_angle_gamma 90.000000
_cell_volume 1605.465083
_symmetry_space_group_name_H-M "C 2/C"
_symmetry_group_IT_number 15
_symmetry_cell_setting 'monoclinic'
loop_
_space_group_symop_operation_xyz
x,y,z
-x,y,1/2-z
-x,-y,-z
x,-y,1/2+z
1/2+x,1/2+y,z
1/2-x,1/2+y,1/2-z
1/2-x,1/2-y,-z
1/2+x,1/2-y,1/2+z
loop_
_atom_site_type_symbol
_atom_site_label
_atom_site_fract_x
_atom_site_fract_y
_atom_site_fract_z
Si Si1 0.235479 0.308163 0.621038
Si Si2 0.213488 0.046207 0.132841
Si Si3 0.203128 0.805943 0.131498
Si Si4 0.776812 0.377948 0.456192
Si Si5 0.349128 0.043345 0.530809
O O1 0.500000 0.323565 0.750000
O O2 0.156661 0.252689 0.642298
O O3 0.296248 0.308944 0.502879
O O4 0.985122 0.344068 0.573552
O O5 0.500000 0.061676 0.250000
O O6 0.250861 0.987376 0.115446
O O7 0.180659 0.079031 0.014477
O O8 0.913090 0.054595 0.107828
O O9 0.500000 0.816874 0.250000
O O10 0.974967 0.842071 0.125906
O O11 0.957966 0.409090 0.410112
O O12 0.500000 0.000000 0.500000
#
# Coordination Sequence:
#
# PCOD9289389 Si02
#       5
#     8   8   8   8   8
#     4  10  23  41  67  97 135 175 225 275 335 396
#     4  10  22  40  64  91 129 168 221 277 339 400
#     4  10  23  44  63  96 140 180 220 275 334 405
#     4  11  22  37  66  96 130 173 227 275 333 398
#     4   9  21  41  58  88 125 164 212 270 331 390
#
# _framework density 24.914899999999999
#
# number of rings (size 3 to 8) (size 9 to 14) (size 15 to 20)
#    0.000    2.000    0.000    1.800    5.600    3.200 
#    0.000   30.000    0.000    0.000    0.000    0.000 
#    0.000    0.000    0.000    0.000    0.000    0.000 
#
# Total GULP energy -111650.998380 kJ/mol
# GULP energy per Si atom -5582.549919 kJ/mol
# Density = 2.485819 g / cm^3
# Si number density = 24.914900 Si / 1000 Ang^3
#
#
#
# Elastic Constant Matrix: (Units=GPa)
#
#
# Indices 1 2 3 4 5 6 
#
# 1 87.3313 65.5646 51.6830 0.0000 45.9640 0.0000
# 2 65.5646 166.0181 48.3536 0.0000 32.5899 0.0000
# 3 51.6830 48.3536 134.7246 0.0000 25.4220 0.0000
# 4 0.0000 0.0000 0.0000 8.9985 0.0000 34.0170
# 5 45.9640 32.5899 25.4220 0.0000 39.0156 0.0000
# 6 0.0000 0.0000 0.0000 34.0170 0.0000 41.9891
#
#
#
# Elastic Compliance Matrix: (Units=1/GPa)
#
#
# Indices 1 2 3 4 5 6 
#
# 1 0.039258 -0.006569 -0.005713 0.000000 -0.037040 0.000000
# 2 -0.006569 0.008642 -0.000775 0.000000 0.001025 0.000000
# 3 -0.005713 -0.000775 0.009692 0.000000 0.001063 0.000000
# 4 0.000000 0.000000 0.000000 -0.053880 0.000000 0.043650
# 5 -0.037040 0.001025 0.001063 0.000000 0.067719 0.000000
# 6 0.000000 0.000000 0.000000 0.043650 0.000000 -0.011547
#
#
# Mechanical properties :
#
#
# Convention : Reuss Voigt Hill
#
# Bulk Modulus (GPa) = 31.76857 79.91960 55.84409
# Shear Modulus (GPa) = 51.81747 32.83218 42.32482
#
# Velocity S-wave (km/s) = 4.56541 3.63405 4.12609
# Velocity P-wave (km/s) = 6.36939 7.05373 6.72028
#
# Compressibility (1/GPa) = 0.03147765
#
# Stress axis : x y z
#
# Youngs Moduli (GPa) = 25.47221 115.71080 103.17912
#
# Poissons Ratio (x) = 0.76010 0.58950
# Poissons Ratio (y) = 0.16733 0.07998
# Poissons Ratio (z) = 0.14553 0.08970
#
# Static dielectric constant tensor:
#      x y z
#    x 2.191890 0.000000 -0.036210 
#    y 0.000000 1.948580 0.000000 
#    z -0.036210 0.000000 2.021080 
# 
# From -- ./inp_files/130541.got.cif
#   From: 2010.05.17/outbox.cif.g08.bks.cpg/sg15_66_cif.got.tgz:130541.got - 2010.06.03 18:47:42.
