data_PCOD9289696
_publ_section_title
;
Structure prediction by ZEFSAII (Michael W. Deem and Ramdas Pophale) SiO2 
 PCOD9289696
Probable space group: C 2/C
;
_chemical_formula_sum "Si O2"
_cell_formula_units_Z 40
_cell_length_a 30.027865
_cell_length_b 7.526501
_cell_length_c 21.155849
_cell_angle_alpha 90.000000
_cell_angle_beta 19.887897
_cell_angle_gamma 90.000000
_cell_volume 1626.514678
_symmetry_space_group_name_H-M "C 2/C"
_symmetry_group_IT_number 15
_symmetry_cell_setting 'monoclinic'
loop_
_space_group_symop_operation_xyz
x,y,z
-x,y,1/2-z
-x,-y,-z
x,-y,1/2+z
1/2+x,1/2+y,z
1/2-x,1/2+y,1/2-z
1/2-x,1/2-y,-z
1/2+x,1/2-y,1/2+z
loop_
_atom_site_type_symbol
_atom_site_label
_atom_site_fract_x
_atom_site_fract_y
_atom_site_fract_z
Si Si1 0.386859 0.069464 0.013585
Si Si2 0.240522 0.602897 0.935030
Si Si3 0.178801 0.965454 0.398526
Si Si4 0.101893 0.439388 0.810153
Si Si5 0.435914 0.583700 0.773829
O O1 0.392794 0.280152 0.014194
O O2 0.334393 0.015354 0.015257
O O3 0.274950 0.004819 0.212352
O O4 0.526835 0.991973 0.847043
O O5 0.348146 0.735557 0.758179
O O6 0.324198 0.503817 0.877548
O O7 0.136806 0.741724 0.102993
O O8 0.267859 0.958468 0.342492
O O9 0.066703 0.112584 0.557315
O O10 0.000000 0.500000 0.000000
O O11 0.500000 0.490502 0.750000
#
# Coordination Sequence:
#
# PCOD9289696 Si02
#       5
#     8   8   8   8   8
#     4  11  25  45  73 109 140 190 245 293 358 421
#     4  11  24  45  75  98 139 195 239 287 368 422
#     4  11  25  44  73 104 148 183 241 300 354 420
#     4  10  22  40  67 101 139 178 236 295 344 417
#     4  11  24  45  71  99 141 188 233 296 359 429
#
# _framework density 24.592459000000002
#
# number of rings (size 3 to 8) (size 9 to 14) (size 15 to 20)
#    0.000    1.200    2.000    3.600    8.400    0.800 
#    0.000    7.000    0.000    0.000    0.000    0.000 
#    0.000    0.000    0.000    0.000    0.000    0.000 
#
# Total GULP energy -111767.453207 kJ/mol
# GULP energy per Si atom -5588.372660 kJ/mol
# Density = 2.453649 g / cm^3
# Si number density = 24.592459 Si / 1000 Ang^3
#
#
#
# Elastic Constant Matrix: (Units=GPa)
#
#
# Indices 1 2 3 4 5 6 
#
# 1 173.0005 12.3583 33.2133 -0.0006 -34.1352 0.0001
# 2 12.3583 63.6171 13.3383 -0.0007 -1.7163 0.0003
# 3 33.2133 13.3383 135.8084 0.0012 -19.2547 -0.0002
# 4 -0.0006 -0.0007 0.0012 31.4297 0.0005 1.3638
# 5 -34.1352 -1.7163 -19.2547 0.0005 44.7736 0.0000
# 6 0.0001 0.0003 -0.0002 1.3638 0.0000 35.5091
#
#
#
# Elastic Compliance Matrix: (Units=1/GPa)
#
#
# Indices 1 2 3 4 5 6 
#
# 1 0.006997 -0.001035 -0.000915 0.000000 0.004901 0.000000
# 2 -0.001035 0.016203 -0.001450 0.000000 -0.000792 0.000000
# 3 -0.000915 -0.001450 0.008118 0.000000 0.002738 0.000000
# 4 0.000000 0.000000 0.000000 0.031870 0.000000 -0.001224
# 5 0.004901 -0.000792 0.002738 0.000000 0.027219 0.000000
# 6 0.000000 0.000000 0.000000 -0.001224 0.000000 0.028209
#
#
# Mechanical properties :
#
#
# Convention : Reuss Voigt Hill
#
# Bulk Modulus (GPa) = 40.78805 54.47173 47.62989
# Shear Modulus (GPa) = 37.42853 43.24356 40.33605
#
# Velocity S-wave (km/s) = 3.90545 4.19789 4.05431
# Velocity P-wave (km/s) = 6.07934 6.75975 6.42855
#
# Compressibility (1/GPa) = 0.02451699
#
# Stress axis : x y z
#
# Youngs Moduli (GPa) = 142.91857 61.71734 123.18847
#
# Poissons Ratio (x) = 0.06389 0.11267
# Poissons Ratio (y) = 0.14796 0.17868
# Poissons Ratio (z) = 0.13071 0.08952
#
# Static dielectric constant tensor:
#      x y z
#    x 2.039200 0.000000 0.057960 
#    y 0.000000 1.907430 0.000000 
#    z 0.057960 0.000000 1.983600 
# 
# From -- ./inp_files/258907.got.cif
#   From: 2010.05.17/outbox.cif.g08.bks.cpg/sg15_130_cif.got.tgz:258907.got - 2010.06.03 18:47:42.
