data_PCOD9289554
_publ_section_title
;
Structure prediction by ZEFSAII (Michael W. Deem and Ramdas Pophale) SiO2 
 PCOD9289554
Probable space group: C 2/C
;
_chemical_formula_sum "Si O2"
_cell_formula_units_Z 64
_cell_length_a 14.485685
_cell_length_b 11.629677
_cell_length_c 30.416252
_cell_angle_alpha 90.000000
_cell_angle_beta 141.504373
_cell_angle_gamma 90.000000
_cell_volume 3189.482915
_symmetry_space_group_name_H-M "C 2/C"
_symmetry_group_IT_number 15
_symmetry_cell_setting 'monoclinic'
loop_
_space_group_symop_operation_xyz
x,y,z
-x,y,1/2-z
-x,-y,-z
x,-y,1/2+z
1/2+x,1/2+y,z
1/2-x,1/2+y,1/2-z
1/2-x,1/2-y,-z
1/2+x,1/2-y,1/2+z
loop_
_atom_site_type_symbol
_atom_site_label
_atom_site_fract_x
_atom_site_fract_y
_atom_site_fract_z
Si Si1 0.878358 0.785565 0.336874
Si Si2 0.384291 0.640958 0.295031
Si Si3 0.832573 0.515827 0.453999
Si Si4 0.286332 0.003956 0.200400
Si Si5 0.359175 0.857674 0.546232
Si Si6 0.199672 0.751276 0.930630
Si Si7 0.025858 0.088821 0.809706
Si Si8 0.388608 0.010445 0.641695
O O1 0.722553 0.723632 0.271401
O O2 0.980229 0.698180 0.401378
O O3 0.966887 0.821897 0.324959
O O4 0.835664 0.903332 0.344421
O O5 0.288871 0.606742 0.301778
O O6 0.532854 0.701724 0.365525
O O7 0.430844 0.527030 0.285210
O O8 0.824536 0.459083 0.499438
O O9 0.795533 0.651021 0.442015
O O10 0.698430 0.448664 0.379347
O O11 0.000000 0.500000 0.500000
O O12 0.435020 0.970892 0.283416
O O13 0.328769 0.028064 0.166527
O O14 0.250000 0.750000 0.500000
O O15 0.362035 0.914248 0.595251
O O16 0.191207 0.626867 0.904613
O O17 0.250000 0.750000 0.000000
O O18 0.000000 0.127302 0.750000
#
# Coordination Sequence:
#
# PCOD9289554 Si02
#       8
#     8   8   8   8   8   8   8   8
#     4  11  22  40  67  95 132 171 216 271 330 396
#     4  10  22  40  65  97 130 174 216 270 328 398
#     4  11  26  44  66  97 134 175 222 270 334 403
#     4  10  23  41  65 103 128 170 226 272 335 386
#     4  12  25  46  65  93 138 180 214 271 341 395
#     4  11  23  44  67  96 132 173 221 276 330 395
#     4  10  24  41  63  95 130 167 222 271 320 388
#     4  11  23  42  68  97 135 172 221 278 328 397
#
# _framework density 20.065947999999999
#
# number of rings (size 3 to 8) (size 9 to 14) (size 15 to 20)
#    0.000    1.250    5.000    0.000    3.500    3.000 
#    2.250    1.250    0.000    0.000    0.000    0.000 
#    0.000    0.000    0.000    0.000    0.000    0.000 
#
# Total GULP energy -178678.186805 kJ/mol
# GULP energy per Si atom -5583.693338 kJ/mol
# Density = 2.002028 g / cm^3
# Si number density = 20.065948 Si / 1000 Ang^3
#
#
#
# Elastic Constant Matrix: (Units=GPa)
#
#
# Indices 1 2 3 4 5 6 
#
# 1 76.6071 7.1240 26.8367 0.0000 9.6292 0.0000
# 2 7.1240 62.9047 12.9029 0.0000 3.4440 0.0000
# 3 26.8367 12.9029 94.1980 0.0000 6.0896 0.0000
# 4 0.0000 0.0000 0.0000 3.6484 0.0000 -0.8796
# 5 9.6292 3.4440 6.0896 0.0000 35.6596 0.0000
# 6 0.0000 0.0000 0.0000 -0.8796 0.0000 6.2719
#
#
#
# Elastic Compliance Matrix: (Units=1/GPa)
#
#
# Indices 1 2 3 4 5 6 
#
# 1 0.014912 -0.000701 -0.003940 0.000000 -0.003286 0.000000
# 2 -0.000701 0.016441 -0.001984 0.000000 -0.001060 0.000000
# 3 -0.003940 -0.001984 0.012062 0.000000 -0.000804 0.000000
# 4 0.000000 0.000000 0.000000 0.283683 0.000000 0.039785
# 5 -0.003286 -0.001060 -0.000804 0.000000 0.029170 0.000000
# 6 0.000000 0.000000 0.000000 0.039785 0.000000 0.165022
#
#
# Mechanical properties :
#
#
# Convention : Reuss Voigt Hill
#
# Bulk Modulus (GPa) = 33.14948 36.38190 34.76569
# Shear Modulus (GPa) = 9.18112 21.57238 15.37675
#
# Velocity S-wave (km/s) = 2.14136 3.28239 2.77124
# Velocity P-wave (km/s) = 4.76130 5.70403 5.25385
#
# Compressibility (1/GPa) = 0.03016639
#
# Stress axis : x y z
#
# Youngs Moduli (GPa) = 67.05972 60.82210 82.90380
#
# Poissons Ratio (x) = 0.04262 0.32664
# Poissons Ratio (y) = 0.04699 0.16448
# Poissons Ratio (z) = 0.26421 0.12067
#
# Static dielectric constant tensor:
#      x y z
#    x 1.710810 0.000000 0.004100 
#    y 0.000000 1.694250 0.000000 
#    z 0.004100 0.000000 1.713380 
# 
# From -- ./inp_files/313615.got.cif
#   From: 2010.05.17/outbox.cif.g08.bks.cpg/sg15_157_cif.got.tgz:313615.got - 2010.06.03 18:47:42.
