data_PCOD9289976
_publ_section_title
;
Structure prediction by ZEFSAII (Michael W. Deem and Ramdas Pophale) SiO2 
 PCOD9289976
Probable space group: C 2/C
;
_chemical_formula_sum "Si O2"
_cell_formula_units_Z 28
_cell_length_a 13.234376
_cell_length_b 9.154477
_cell_length_c 12.149530
_cell_angle_alpha 90.000000
_cell_angle_beta 46.382205
_cell_angle_gamma 90.000000
_cell_volume 1065.637862
_symmetry_space_group_name_H-M "C 2/C"
_symmetry_group_IT_number 15
_symmetry_cell_setting 'monoclinic'
loop_
_space_group_symop_operation_xyz
x,y,z
-x,y,1/2-z
-x,-y,-z
x,-y,1/2+z
1/2+x,1/2+y,z
1/2-x,1/2+y,1/2-z
1/2-x,1/2-y,-z
1/2+x,1/2-y,1/2+z
loop_
_atom_site_type_symbol
_atom_site_label
_atom_site_fract_x
_atom_site_fract_y
_atom_site_fract_z
Si Si1 0.442181 0.179465 0.057171
Si Si2 0.000000 0.781694 0.250000
Si Si3 0.745057 0.517011 0.060520
Si Si4 0.328184 0.818027 0.301107
O O1 0.497594 0.191802 0.138478
O O2 0.350499 0.039647 0.084955
O O3 0.326285 0.307681 0.134525
O O4 0.556686 0.199586 0.877866
O O5 0.860940 0.883667 0.359424
O O6 0.659657 0.669355 0.136235
O O7 0.826902 0.544759 0.884473
#
# Coordination Sequence:
#
# PCOD9289976 Si02
#       4
#     8   4   8   8
#     4  10  22  40  71  99 143 184 229 293 350 415
#     4  12  24  42  76 104 132 196 238 266 366 436
#     4   9  21  38  68 102 135 180 236 287 338 417
#     4   9  19  40  66  96 142 180 222 293 349 393
#
# _framework density 26.275341999999998
#
# number of rings (size 3 to 8) (size 9 to 14) (size 15 to 20)
#    1.714    0.571    0.000    2.571    0.000    5.714 
#    0.000    1.429    6.286    1.714    0.000    0.000 
#    0.000    0.000    0.000    0.000    0.000    0.000 
#
# Total GULP energy -78290.254107 kJ/mol
# GULP energy per Si atom -5592.161008 kJ/mol
# Density = 2.621554 g / cm^3
# Si number density = 26.275342 Si / 1000 Ang^3
#
#
#
# Elastic Constant Matrix: (Units=GPa)
#
#
# Indices 1 2 3 4 5 6 
#
# 1 190.2777 61.8989 125.3017 0.0000 37.2115 0.0000
# 2 61.8989 96.2707 77.7401 0.0000 13.3117 0.0000
# 3 125.3017 77.7401 242.3448 0.0000 -8.6597 0.0000
# 4 0.0000 0.0000 0.0000 48.1797 0.0000 -1.4523
# 5 37.2115 13.3117 -8.6597 0.0000 48.0654 0.0000
# 6 0.0000 0.0000 0.0000 -1.4523 0.0000 28.5312
#
#
#
# Elastic Compliance Matrix: (Units=1/GPa)
#
#
# Indices 1 2 3 4 5 6 
#
# 1 0.011337 -0.001317 -0.005777 0.000000 -0.009453 0.000000
# 2 -0.001317 0.015325 -0.004378 0.000000 -0.004013 0.000000
# 3 -0.005777 -0.004378 0.008777 0.000000 0.007266 0.000000
# 4 0.000000 0.000000 0.000000 0.020788 0.000000 0.001058
# 5 -0.009453 -0.004013 0.007266 0.000000 0.030544 0.000000
# 6 0.000000 0.000000 0.000000 0.001058 0.000000 0.035103
#
#
# Mechanical properties :
#
#
# Convention : Reuss Voigt Hill
#
# Bulk Modulus (GPa) = 80.03702 117.64160 98.83931
# Shear Modulus (GPa) = 33.56104 42.55208 38.05656
#
# Velocity S-wave (km/s) = 3.57779 4.02863 3.80988
# Velocity P-wave (km/s) = 6.89887 8.15534 7.55328
#
# Compressibility (1/GPa) = 0.01249422
#
# Stress axis : x y z
#
# Youngs Moduli (GPa) = 88.20923 65.25388 113.93102
#
# Poissons Ratio (x) = 0.08596 0.65815
# Poissons Ratio (y) = 0.11620 0.49882
# Poissons Ratio (z) = 0.50956 0.28570
#
# Static dielectric constant tensor:
#      x y z
#    x 2.162570 0.000000 -0.039050 
#    y 0.000000 2.066740 0.000000 
#    z -0.039050 0.000000 2.072030 
# 
# From -- ./inp_files/93914.got.cif
#   From: 2010.05.17/outbox.cif.g08.bks.cpg/sg15_47_cif.got.tgz:93914.got - 2010.06.03 18:47:42.
