data_PCOD9289920
_publ_section_title
;
Structure prediction by ZEFSAII (Michael W. Deem and Ramdas Pophale) SiO2 
 PCOD9289920
Probable space group: C 2/C
;
_chemical_formula_sum "Si O2"
_cell_formula_units_Z 36
_cell_length_a 27.776802
_cell_length_b 5.467368
_cell_length_c 18.288847
_cell_angle_alpha 90.000000
_cell_angle_beta 145.194834
_cell_angle_gamma 90.000000
_cell_volume 1585.336317
_symmetry_space_group_name_H-M "C 2/C"
_symmetry_group_IT_number 15
_symmetry_cell_setting 'monoclinic'
loop_
_space_group_symop_operation_xyz
x,y,z
-x,y,1/2-z
-x,-y,-z
x,-y,1/2+z
1/2+x,1/2+y,z
1/2-x,1/2+y,1/2-z
1/2-x,1/2-y,-z
1/2+x,1/2-y,1/2+z
loop_
_atom_site_type_symbol
_atom_site_label
_atom_site_fract_x
_atom_site_fract_y
_atom_site_fract_z
Si Si1 0.663506 0.963920 0.419529
Si Si2 0.278581 0.158015 0.151873
Si Si3 0.881274 0.911519 0.514999
Si Si4 0.947867 0.748019 0.449679
Si Si5 0.500000 0.256911 0.250000
O O1 0.640981 0.726928 0.437741
O O2 0.694430 0.955286 0.375073
O O3 0.731650 0.124576 0.549428
O O4 0.575318 0.106310 0.308750
O O5 0.362714 0.245918 0.295643
O O6 0.205690 0.049593 0.113315
O O7 0.915437 0.745966 0.493001
O O8 0.955902 0.091253 0.630914
O O9 0.000000 0.500000 0.500000
O O10 0.000000 0.000000 0.500000
#
# Coordination Sequence:
#
# PCOD9289920 Si02
#       5
#     8   8   8   8   4
#     4  10  22  43  71 102 139 185 242 299 362 432
#     4  10  25  44  71 101 144 183 247 295 370 434
#     4  11  25  42  76 101 144 196 241 303 369 438
#     4  12  31  48  74 108 152 194 245 304 371 436
#     4  10  22  40  70 104 144 182 244 302 360 434
#
# _framework density 22.708113999999998
#
# number of rings (size 3 to 8) (size 9 to 14) (size 15 to 20)
#    0.000    1.333    0.000    2.667   18.667    0.000 
#    0.000    0.000    0.000    0.000    0.000    0.000 
#    0.000    0.000    0.000    0.000    0.000    0.000 
#
# Total GULP energy -100668.671867 kJ/mol
# GULP energy per Si atom -5592.703993 kJ/mol
# Density = 2.265643 g / cm^3
# Si number density = 22.708114 Si / 1000 Ang^3
#
#
#
# Elastic Constant Matrix: (Units=GPa)
#
#
# Indices 1 2 3 4 5 6 
#
# 1 78.7251 15.2901 53.4847 0.0008 13.3376 0.0000
# 2 15.2901 85.8216 65.5979 0.0006 19.3102 -0.0003
# 3 53.4847 65.5979 200.7096 0.0001 39.9297 0.0000
# 4 0.0008 0.0006 0.0001 -111.3050 -0.0002 8.6883
# 5 13.3376 19.3102 39.9297 -0.0002 14.6746 -0.0001
# 6 0.0000 -0.0003 0.0000 8.6883 -0.0001 37.1197
#
#
#
# Elastic Compliance Matrix: (Units=1/GPa)
#
#
# Indices 1 2 3 4 5 6 
#
# 1 0.015869 0.001273 -0.003144 0.000000 -0.007543 0.000000
# 2 0.001273 0.017179 -0.002674 0.000000 -0.016487 0.000000
# 3 -0.003144 -0.002674 0.011829 0.000000 -0.025810 0.000000
# 4 0.000000 0.000000 0.000000 -0.008823 -0.000001 0.002065
# 5 -0.007543 -0.016487 -0.025810 -0.000001 0.166925 0.000000
# 6 0.000000 0.000000 0.000000 0.002065 0.000000 0.026457
#
#
# Mechanical properties :
#
#
# Convention : Reuss Voigt Hill
#
# Bulk Modulus (GPa) = 27.94301 70.44461 49.19381
# Shear Modulus (GPa) = 19.96380 3.49012 11.72696
#
# Velocity S-wave (km/s) = 2.96826 1.24108 2.27496
# Velocity P-wave (km/s) = 4.90708 5.75698 5.34894
#
# Compressibility (1/GPa) = 0.03578712
#
# Stress axis : x y z
#
# Youngs Moduli (GPa) = 63.01477 58.21193 84.53970
#
# Poissons Ratio (x) = -0.07412 0.26582
# Poissons Ratio (y) = -0.08024 0.22604
# Poissons Ratio (z) = 0.19814 0.15565
#
# Static dielectric constant tensor:
#      x y z
#    x 1.888450 0.000000 -0.003570 
#    y 0.000000 1.889220 0.000000 
#    z -0.003570 0.000000 1.809860 
# 
# From -- ./inp_files/179925.got.cif
#   From: 2010.05.17/outbox.cif.g08.bks.cpg/sg15_90_cif.got.tgz:179925.got - 2010.06.03 18:47:42.
