data_PCOD9289263
_publ_section_title
;
Structure prediction by ZEFSAII (Michael W. Deem and Ramdas Pophale) SiO2 
 PCOD9289263
Probable space group: C 2/C
;
_chemical_formula_sum "Si O2"
_cell_formula_units_Z 60
_cell_length_a 20.456404
_cell_length_b 12.823136
_cell_length_c 22.508636
_cell_angle_alpha 90.000000
_cell_angle_beta 26.585320
_cell_angle_gamma 90.000000
_cell_volume 2642.377426
_symmetry_space_group_name_H-M "C 2/C"
_symmetry_group_IT_number 15
_symmetry_cell_setting 'monoclinic'
loop_
_space_group_symop_operation_xyz
x,y,z
-x,y,1/2-z
-x,-y,-z
x,-y,1/2+z
1/2+x,1/2+y,z
1/2-x,1/2+y,1/2-z
1/2-x,1/2-y,-z
1/2+x,1/2-y,1/2+z
loop_
_atom_site_type_symbol
_atom_site_label
_atom_site_fract_x
_atom_site_fract_y
_atom_site_fract_z
Si Si1 0.312900 0.998649 0.491830
Si Si2 0.100877 0.616956 0.275249
Si Si3 0.448477 0.322578 0.119931
Si Si4 0.444697 0.827439 0.514379
Si Si5 0.773707 0.847287 0.524016
Si Si6 0.289132 0.987540 0.213829
Si Si7 0.500000 0.859233 0.250000
Si Si8 0.260255 0.714614 0.421827
O O1 0.433423 0.075852 0.423841
O O2 0.201846 0.061548 0.542356
O O3 0.413623 0.931252 0.365730
O O4 0.222391 0.910013 0.598659
O O5 0.129516 0.731652 0.278087
O O6 0.135689 0.625711 0.177721
O O7 0.204881 0.536256 0.225063
O O8 0.473684 0.264764 0.037138
O O9 0.356728 0.427844 0.186554
O O10 0.595836 0.338154 0.036334
O O11 0.587986 0.896525 0.386424
O O12 0.376081 0.773979 0.511637
O O13 0.338119 0.914987 0.632132
O O14 0.750000 0.750000 0.500000
O O15 0.396647 0.785610 0.293909
O O16 0.250000 0.750000 0.500000
#
# Coordination Sequence:
#
# PCOD9289263 Si02
#       8
#     8   8   8   8   8   8   4   8
#     4  11  21  41  67  90 133 179 219 276 343 406
#     4  11  22  43  66  92 131 185 221 274 351 402
#     4  11  25  40  67 102 129 175 231 285 337 405
#     4  10  22  43  66  93 135 176 228 278 342 419
#     4  12  25  41  67 102 136 177 234 283 342 412
#     4  10  23  42  68  92 133 183 224 279 345 409
#     4  10  22  40  62  96 130 172 218 274 340 396
#     4  10  23  38  67 102 127 176 228 274 339 413
#
# _framework density 22.706824999999998
#
# number of rings (size 3 to 8) (size 9 to 14) (size 15 to 20)
#    0.000    1.333    4.000    0.800    1.867    2.667 
#    0.000    4.000    0.000    0.000    0.000    0.000 
#    0.000    0.000    0.000    0.000    0.000    0.000 
#
# Total GULP energy -167364.529421 kJ/mol
# GULP energy per Si atom -5578.817647 kJ/mol
# Density = 2.265514 g / cm^3
# Si number density = 22.706825 Si / 1000 Ang^3
#
#
#
# Elastic Constant Matrix: (Units=GPa)
#
#
# Indices 1 2 3 4 5 6 
#
# 1 177.7501 52.5392 33.0018 -0.0002 -25.5301 0.0001
# 2 52.5392 89.4843 25.8691 -0.0024 -16.7555 0.0008
# 3 33.0018 25.8691 33.8647 -0.0031 -12.3472 0.0006
# 4 -0.0002 -0.0024 -0.0031 20.5100 0.0009 -7.5532
# 5 -25.5301 -16.7555 -12.3472 0.0009 29.0646 0.0001
# 6 0.0001 0.0008 0.0006 -7.5532 0.0001 46.9280
#
#
#
# Elastic Compliance Matrix: (Units=1/GPa)
#
#
# Indices 1 2 3 4 5 6 
#
# 1 0.007685 -0.002652 -0.004212 -0.000001 0.003432 0.000000
# 2 -0.002652 0.015721 -0.008248 0.000000 0.003230 0.000000
# 3 -0.004212 -0.008248 0.043606 0.000005 0.010070 0.000000
# 4 -0.000001 0.000000 0.000005 0.051829 0.000000 0.008342
# 5 0.003432 0.003230 0.010070 0.000000 0.043561 0.000000
# 6 0.000000 0.000000 0.000000 0.008342 0.000000 0.022652
#
#
# Mechanical properties :
#
#
# Convention : Reuss Voigt Hill
#
# Bulk Modulus (GPa) = 27.18167 58.21327 42.69747
# Shear Modulus (GPa) = 21.97430 31.94645 26.96037
#
# Velocity S-wave (km/s) = 3.11423 3.75495 3.44950
# Velocity P-wave (km/s) = 4.99279 6.67024 5.89152
#
# Compressibility (1/GPa) = 0.03678950
#
# Stress axis : x y z
#
# Youngs Moduli (GPa) = 130.13070 63.60865 22.93279
#
# Poissons Ratio (x) = 0.16867 0.09659
# Poissons Ratio (y) = 0.34506 0.18914
# Poissons Ratio (z) = 0.54809 0.52461
#
# Static dielectric constant tensor:
#      x y z
#    x 1.787890 0.000000 0.070550 
#    y 0.000000 1.881740 0.000000 
#    z 0.070550 0.000000 1.922250 
# 
# From -- ./inp_files/280087.got.cif
#   From: 2010.05.17/outbox.cif.g08.bks.cpg/sg15_141_cif.got.tgz:280087.got - 2010.06.03 18:47:42.
