data_PCOD9289674
_publ_section_title
;
Structure prediction by ZEFSAII (Michael W. Deem and Ramdas Pophale) SiO2 
 PCOD9289674
Probable space group: C 2/C
;
_chemical_formula_sum "Si O2"
_cell_formula_units_Z 60
_cell_length_a 13.003265
_cell_length_b 28.091175
_cell_length_c 8.473596
_cell_angle_alpha 90.000000
_cell_angle_beta 71.911191
_cell_angle_gamma 90.000000
_cell_volume 2942.233244
_symmetry_space_group_name_H-M "C 2/C"
_symmetry_group_IT_number 15
_symmetry_cell_setting 'monoclinic'
loop_
_space_group_symop_operation_xyz
x,y,z
-x,y,1/2-z
-x,-y,-z
x,-y,1/2+z
1/2+x,1/2+y,z
1/2-x,1/2+y,1/2-z
1/2-x,1/2-y,-z
1/2+x,1/2-y,1/2+z
loop_
_atom_site_type_symbol
_atom_site_label
_atom_site_fract_x
_atom_site_fract_y
_atom_site_fract_z
Si Si1 0.396890 0.374172 0.040110
Si Si2 0.500000 0.696020 0.250000
Si Si3 0.279972 0.710233 0.204808
Si Si4 0.772421 0.035868 0.048291
Si Si5 0.073521 0.466484 0.072497
Si Si6 0.591569 0.532844 0.810809
Si Si7 0.772837 0.607815 0.153536
Si Si8 0.130816 0.797531 0.192293
O O1 0.454351 0.419420 0.089325
O O2 0.347921 0.342973 0.205814
O O3 0.473924 0.338747 0.908264
O O4 0.312750 0.394225 0.950618
O O5 0.388494 0.722043 0.255700
O O6 0.224198 0.663433 0.305209
O O7 0.194304 0.752832 0.237075
O O8 0.321786 0.698758 0.007320
O O9 0.759662 0.080098 0.171392
O O10 0.667850 0.001823 0.088328
O O11 0.861974 0.002932 0.086347
O O12 0.811153 0.047359 0.853658
O O13 0.000000 0.448868 0.250000
O O14 0.124432 0.421795 0.956851
O O15 0.000000 0.500000 0.000000
O O16 0.500000 0.509094 0.750000
O O17 0.000000 0.791032 0.250000
#
# Coordination Sequence:
#
# PCOD9289674 Si02
#       8
#     8   4   8   8   8   8   8   8
#     4  11  23  40  67  93 134 170 226 270 339 410
#     4  10  22  40  66  98 128 182 214 274 344 402
#     4  10  24  45  72  99 141 174 229 289 340 420
#     4  12  23  44  60  93 136 168 231 279 331 396
#     4  12  23  44  69  89 128 188 225 278 339 400
#     4  12  24  37  62  93 130 178 215 278 333 400
#     4  11  24  43  65  98 132 177 227 280 336 403
#     4  11  22  46  73 104 134 182 225 282 356 415
#
# _framework density 20.392672000000001
#
# number of rings (size 3 to 8) (size 9 to 14) (size 15 to 20)
#    0.000    0.800    5.333    1.600    3.733    2.133 
#    4.800    1.333    1.467    0.000    0.000    0.000 
#    0.000    0.000    0.000    0.000    0.000    0.000 
#
# Total GULP energy -167594.653382 kJ/mol
# GULP energy per Si atom -5586.488446 kJ/mol
# Density = 2.034626 g / cm^3
# Si number density = 20.392672 Si / 1000 Ang^3
#
#
#
# Elastic Constant Matrix: (Units=GPa)
#
#
# Indices 1 2 3 4 5 6 
#
# 1 99.3782 40.7387 18.1067 0.0000 10.6741 0.0000
# 2 40.7387 84.5511 21.9038 0.0000 10.8038 0.0000
# 3 18.1067 21.9038 79.5206 0.0000 -2.8859 0.0000
# 4 0.0000 0.0000 0.0000 39.7352 0.0000 8.4935
# 5 10.6741 10.8038 -2.8859 0.0000 32.1584 0.0000
# 6 0.0000 0.0000 0.0000 8.4935 0.0000 28.4441
#
#
#
# Elastic Compliance Matrix: (Units=1/GPa)
#
#
# Indices 1 2 3 4 5 6 
#
# 1 0.012858 -0.005476 -0.001513 0.000000 -0.002564 0.000000
# 2 -0.005476 0.015787 -0.003239 0.000000 -0.003777 0.000000
# 3 -0.001513 -0.003239 0.013915 0.000000 0.002839 0.000000
# 4 0.000000 0.000000 0.000000 0.026882 0.000000 -0.008027
# 5 -0.002564 -0.003777 0.002839 0.000000 0.033471 0.000000
# 6 0.000000 0.000000 0.000000 -0.008027 0.000000 0.037554
#
#
# Mechanical properties :
#
#
# Convention : Reuss Voigt Hill
#
# Bulk Modulus (GPa) = 45.23670 47.21648 46.22659
# Shear Modulus (GPa) = 29.71052 32.24757 30.97905
#
# Velocity S-wave (km/s) = 3.82111 3.98091 3.90183
# Velocity P-wave (km/s) = 6.45746 6.65839 6.55869
#
# Compressibility (1/GPa) = 0.02210595
#
# Stress axis : x y z
#
# Youngs Moduli (GPa) = 77.77051 63.34217 71.86550
#
# Poissons Ratio (x) = 0.34686 0.10870
# Poissons Ratio (y) = 0.42587 0.23276
# Poissons Ratio (z) = 0.11763 0.20515
#
# Static dielectric constant tensor:
#      x y z
#    x 1.743050 0.000000 -0.016010 
#    y 0.000000 1.692650 0.000000 
#    z -0.016010 0.000000 1.778230 
# 
# From -- ./inp_files/35202.got.cif
#   From: 2010.05.17/outbox.cif.g08.bks.cpg/sg15_18_cif.got.tgz:35202.got - 2010.06.03 18:47:42.
