data_PCOD9289128
_publ_section_title
;
Structure prediction by ZEFSAII (Michael W. Deem and Ramdas Pophale) SiO2 
 PCOD9289128
Probable space group: C 2/C
;
_chemical_formula_sum "Si O2"
_cell_formula_units_Z 52
_cell_length_a 20.712099
_cell_length_b 17.742839
_cell_length_c 8.740056
_cell_angle_alpha 90.000000
_cell_angle_beta 51.787484
_cell_angle_gamma 90.000000
_cell_volume 2523.656463
_symmetry_space_group_name_H-M "C 2/C"
_symmetry_group_IT_number 15
_symmetry_cell_setting 'monoclinic'
loop_
_space_group_symop_operation_xyz
x,y,z
-x,y,1/2-z
-x,-y,-z
x,-y,1/2+z
1/2+x,1/2+y,z
1/2-x,1/2+y,1/2-z
1/2-x,1/2-y,-z
1/2+x,1/2-y,1/2+z
loop_
_atom_site_type_symbol
_atom_site_label
_atom_site_fract_x
_atom_site_fract_y
_atom_site_fract_z
Si Si1 0.000000 0.098999 0.250000
Si Si2 0.214685 0.141335 0.206555
Si Si3 0.828764 0.529079 0.197543
Si Si4 0.816902 0.088760 0.565832
Si Si5 0.533375 0.418878 0.024800
Si Si6 0.594168 0.096081 0.108814
Si Si7 0.735760 0.209082 0.860760
O O1 0.909445 0.061752 0.399945
O O2 0.007002 0.133767 0.414042
O O3 0.131331 0.098755 0.388259
O O4 0.230350 0.222568 0.251784
O O5 0.293066 0.090876 0.134962
O O6 0.203790 0.144108 0.042325
O O7 0.748786 0.477660 0.349422
O O8 0.867762 0.567933 0.287027
O O9 0.892873 0.473203 0.025633
O O10 0.801415 0.141253 0.735873
O O11 0.500000 0.409233 0.250000
O O12 0.500000 0.500000 0.000000
O O13 0.500000 0.117026 0.250000
O O14 0.649819 0.165705 0.978595
O O15 0.750000 0.250000 0.000000
#
# Coordination Sequence:
#
# PCOD9289128 Si02
#       7
#     4   8   8   8   8   8   8
#     4  10  22  40  60  98 130 178 214 278 320 408
#     4  11  23  40  65  92 130 182 217 265 342 407
#     4  11  21  40  69  96 126 173 219 281 332 393
#     4  10  23  42  67  93 137 172 225 268 339 400
#     4  11  23  36  59  94 136 170 221 273 328 389
#     4  11  24  43  68  97 131 167 229 279 333 394
#     4  11  24  43  68  93 133 180 214 273 338 415
#
# _framework density 20.605022000000002
#
# number of rings (size 3 to 8) (size 9 to 14) (size 15 to 20)
#    0.000    1.231    3.846    1.846    4.308    0.615 
#    2.769    0.000    1.692    0.000    0.000    0.000 
#    0.000    0.000    0.000    0.000    0.000    0.000 
#
# Total GULP energy -144753.791279 kJ/mol
# GULP energy per Si atom -5567.453511 kJ/mol
# Density = 2.055812 g / cm^3
# Si number density = 20.605022 Si / 1000 Ang^3
#
#
#
# Elastic Constant Matrix: (Units=GPa)
#
#
# Indices 1 2 3 4 5 6 
#
# 1 41.7678 10.6995 10.9309 0.0000 8.2379 0.0000
# 2 10.6995 75.0911 9.1615 0.0000 -6.3113 0.0000
# 3 10.9309 9.1615 76.4723 0.0000 -3.8869 0.0000
# 4 0.0000 0.0000 0.0000 -5.8131 0.0000 12.8489
# 5 8.2379 -6.3113 -3.8869 0.0000 53.4004 0.0000
# 6 0.0000 0.0000 0.0000 12.8489 0.0000 19.0736
#
#
#
# Elastic Compliance Matrix: (Units=1/GPa)
#
#
# Indices 1 2 3 4 5 6 
#
# 1 0.026817 -0.003786 -0.003626 0.000000 -0.004848 0.000000
# 2 -0.003786 0.014168 -0.001045 0.000000 0.002182 0.000000
# 3 -0.003626 -0.001045 0.013793 0.000000 0.001440 0.000000
# 4 0.000000 0.000000 0.000000 -0.069115 0.000000 0.046559
# 5 -0.004848 0.002182 0.001440 0.000000 0.019837 0.000000
# 6 0.000000 0.000000 0.000000 0.046559 0.000000 0.021064
#
#
# Mechanical properties :
#
#
# Convention : Reuss Voigt Hill
#
# Bulk Modulus (GPa) = 26.41092 28.32390 27.36741
# Shear Modulus (GPa) = 89.12608 24.16813 56.64711
#
# Velocity S-wave (km/s) = 6.58395 3.42851 5.24896
# Velocity P-wave (km/s) = 8.40497 5.42668 7.07433
#
# Compressibility (1/GPa) = 0.03786312
#
# Stress axis : x y z
#
# Youngs Moduli (GPa) = 37.28975 70.58363 72.49882
#
# Poissons Ratio (x) = 0.26724 0.26288
# Poissons Ratio (y) = 0.14119 0.07577
# Poissons Ratio (z) = 0.13521 0.07377
#
# Static dielectric constant tensor:
#      x y z
#    x 1.734130 0.000000 0.051240 
#    y 0.000000 1.747790 0.000000 
#    z 0.051240 0.000000 1.804660 
# 
# From -- ./inp_files/48451.got.cif
#   From: 2010.05.17/outbox.cif.g08.bks.cpg/sg15_25_cif.got.tgz:48451.got - 2010.06.03 18:47:42.
