data_PCOD9289844
_publ_section_title
;
Structure prediction by ZEFSAII (Michael W. Deem and Ramdas Pophale) SiO2 
 PCOD9289844
Probable space group: C 2/C
;
_chemical_formula_sum "Si O2"
_cell_formula_units_Z 60
_cell_length_a 13.923382
_cell_length_b 14.377439
_cell_length_c 25.801240
_cell_angle_alpha 90.000000
_cell_angle_beta 30.493413
_cell_angle_gamma 90.000000
_cell_volume 2620.903026
_symmetry_space_group_name_H-M "C 2/C"
_symmetry_group_IT_number 15
_symmetry_cell_setting 'monoclinic'
loop_
_space_group_symop_operation_xyz
x,y,z
-x,y,1/2-z
-x,-y,-z
x,-y,1/2+z
1/2+x,1/2+y,z
1/2-x,1/2+y,1/2-z
1/2-x,1/2-y,-z
1/2+x,1/2-y,1/2+z
loop_
_atom_site_type_symbol
_atom_site_label
_atom_site_fract_x
_atom_site_fract_y
_atom_site_fract_z
Si Si1 0.574490 0.532120 0.318785
Si Si2 0.312102 0.365925 0.436822
Si Si3 0.876943 0.221425 0.259829
Si Si4 0.466533 0.271699 0.463876
Si Si5 0.398888 0.368401 0.589665
Si Si6 0.048867 0.701199 0.582714
Si Si7 0.000000 0.455420 0.750000
Si Si8 0.979511 0.502520 0.875092
O O1 0.450029 0.448081 0.355550
O O2 0.552103 0.622442 0.293687
O O3 0.522120 0.563388 0.402442
O O4 0.797516 0.510502 0.218297
O O5 0.432897 0.305984 0.421242
O O6 0.212089 0.296203 0.443264
O O7 0.141781 0.415277 0.548143
O O8 0.660795 0.216855 0.376642
O O9 0.000000 0.254519 0.250000
O O10 0.911810 0.290123 0.196078
O O11 0.482005 0.362043 0.493401
O O12 0.446085 0.264313 0.587894
O O13 0.179643 0.393515 0.683652
O O14 0.250000 0.750000 0.500000
O O15 0.082402 0.592037 0.562598
O O16 0.050648 0.510366 0.673337
#
# Coordination Sequence:
#
# PCOD9289844 Si02
#       8
#     8   8   8   8   8   8   4   8
#     4  10  23  43  63  97 133 176 214 280 329 390
#     4  11  23  41  69  95 135 169 228 273 336 391
#     4  11  23  42  65  92 135 171 224 268 332 404
#     4  11  23  42  69 101 127 179 219 279 333 399
#     4  10  22  42  66  95 134 171 219 267 333 392
#     4  11  24  42  64  92 132 175 214 269 337 395
#     4  10  22  40  68  98 130 166 222 276 322 396
#     4  11  21  42  64  97 130 170 218 277 332 389
#
# _framework density 22.892873000000002
#
# number of rings (size 3 to 8) (size 9 to 14) (size 15 to 20)
#    0.000    1.333    2.667    3.200    0.933    1.600 
#    7.200    1.333    0.000    0.000    0.000    0.000 
#    0.000    0.000    0.000    0.000    0.000    0.000 
#
# Total GULP energy -167608.005354 kJ/mol
# GULP energy per Si atom -5586.933512 kJ/mol
# Density = 2.284077 g / cm^3
# Si number density = 22.892873 Si / 1000 Ang^3
#
#
#
# Elastic Constant Matrix: (Units=GPa)
#
#
# Indices 1 2 3 4 5 6 
#
# 1 47.3882 -10.5417 6.3222 -0.0003 -12.4266 0.0000
# 2 -10.5417 78.3595 -2.7956 0.0006 -10.3183 -0.0003
# 3 6.3222 -2.7956 48.7684 0.0024 -17.7693 -0.0006
# 4 -0.0003 0.0006 0.0024 34.4411 -0.0012 -4.3319
# 5 -12.4266 -10.3183 -17.7693 -0.0012 26.0109 0.0003
# 6 0.0000 -0.0003 -0.0006 -4.3319 0.0003 16.2625
#
#
#
# Elastic Compliance Matrix: (Units=1/GPa)
#
#
# Indices 1 2 3 4 5 6 
#
# 1 0.026508 0.005942 0.003165 0.000001 0.017183 0.000000
# 2 0.005942 0.015294 0.004462 0.000000 0.011954 0.000000
# 3 0.003165 0.004462 0.028687 -0.000001 0.022880 0.000000
# 4 0.000001 0.000000 -0.000001 0.030042 0.000001 0.008002
# 5 0.017183 0.011954 0.022880 0.000001 0.067027 0.000000
# 6 0.000000 0.000000 0.000000 0.008002 0.000000 0.063623
#
#
# Mechanical properties :
#
#
# Convention : Reuss Voigt Hill
#
# Bulk Modulus (GPa) = 10.24312 17.83178 14.03745
# Shear Modulus (GPa) = 21.13407 27.44499 24.28953
#
# Velocity S-wave (km/s) = 3.04167 3.46619 3.26085
# Velocity P-wave (km/s) = 4.10119 4.88113 4.50806
#
# Compressibility (1/GPa) = 0.09762651
#
# Stress axis : x y z
#
# Youngs Moduli (GPa) = 37.72482 65.38380 34.85909
#
# Poissons Ratio (x) = -0.38849 -0.11033
# Poissons Ratio (y) = -0.22415 -0.15554
# Poissons Ratio (z) = -0.11940 -0.29174
#
# Static dielectric constant tensor:
#      x y z
#    x 1.835880 0.000000 0.034310 
#    y 0.000000 1.876220 0.000000 
#    z 0.034310 0.000000 1.893760 
# 
# From -- ./inp_files/154288.got.cif
#   From: 2010.05.17/outbox.cif.g08.bks.cpg/sg15_78_cif.got.tgz:154288.got - 2010.06.03 18:47:42.
