data_PCOD9289680
_publ_section_title
;
Structure prediction by ZEFSAII (Michael W. Deem and Ramdas Pophale) SiO2 
 PCOD9289680
Probable space group: C 2/C
;
_chemical_formula_sum "Si O2"
_cell_formula_units_Z 48
_cell_length_a 21.419805
_cell_length_b 24.960704
_cell_length_c 12.708587
_cell_angle_alpha 90.000000
_cell_angle_beta 160.315716
_cell_angle_gamma 90.000000
_cell_volume 2288.702824
_symmetry_space_group_name_H-M "C 2/C"
_symmetry_group_IT_number 15
_symmetry_cell_setting 'monoclinic'
loop_
_space_group_symop_operation_xyz
x,y,z
-x,y,1/2-z
-x,-y,-z
x,-y,1/2+z
1/2+x,1/2+y,z
1/2-x,1/2+y,1/2-z
1/2-x,1/2-y,-z
1/2+x,1/2-y,1/2+z
loop_
_atom_site_type_symbol
_atom_site_label
_atom_site_fract_x
_atom_site_fract_y
_atom_site_fract_z
Si Si1 0.500000 0.397920 0.250000
Si Si2 0.000000 0.348688 0.750000
Si Si3 0.880890 0.177329 0.912507
Si Si4 0.192161 0.142695 0.253069
Si Si5 0.359168 0.931887 0.702199
Si Si6 0.829787 0.552057 0.628963
Si Si7 0.500000 0.768360 0.250000
Si Si8 0.000000 0.085419 0.250000
O O1 0.638543 0.367013 0.547847
O O2 0.647827 0.427419 0.408704
O O3 0.831016 0.311852 0.446759
O O4 0.919407 0.386745 0.714592
O O5 0.000699 0.156853 0.006167
O O6 0.979190 0.228159 0.119516
O O7 0.880660 0.126427 0.990517
O O8 0.285893 0.091727 0.461985
O O9 0.326213 0.192690 0.480909
O O10 0.373866 0.990600 0.672303
O O11 0.500958 0.929552 0.026710
O O12 0.643118 0.553775 0.404509
#
# Coordination Sequence:
#
# PCOD9289680 Si02
#       8
#     4   4   8   8   8   8   4   4
#     4  12  25  43  65 104 142 175 215 281 334 384
#     4  12  22  44  64  99 137 173 219 284 324 402
#     4  10  22  42  68  94 127 176 220 278 335 394
#     4  11  24  45  68  99 136 171 222 284 330 401
#     4  11  24  40  67  99 140 180 224 263 330 395
#     4  10  22  40  66  98 136 185 222 266 326 400
#     4  11  24  45  71  96 124 170 230 276 351 402
#     4   9  17  38  64  91 131 172 226 269 321 392
#
# _framework density 20.972577999999999
#
# number of rings (size 3 to 8) (size 9 to 14) (size 15 to 20)
#    0.000    1.333    3.333    2.000    0.000    4.667 
#    3.000    1.667    0.000    0.000    0.000    0.000 
#    0.000    0.000    0.000    0.000    0.000    0.000 
#
# Total GULP energy -134013.251386 kJ/mol
# GULP energy per Si atom -5583.885474 kJ/mol
# Density = 2.092484 g / cm^3
# Si number density = 20.972578 Si / 1000 Ang^3
#
#
#
# Elastic Constant Matrix: (Units=GPa)
#
#
# Indices 1 2 3 4 5 6 
#
# 1 64.9298 25.3588 14.9167 0.0000 -1.5870 0.0000
# 2 25.3588 83.7069 30.6164 0.0000 -15.4326 0.0000
# 3 14.9167 30.6164 114.5303 0.0000 5.4421 0.0000
# 4 0.0000 0.0000 0.0000 18.2739 0.0000 5.6489
# 5 -1.5870 -15.4326 5.4421 0.0000 31.2819 0.0000
# 6 0.0000 0.0000 0.0000 5.6489 0.0000 15.8349
#
#
#
# Elastic Compliance Matrix: (Units=1/GPa)
#
#
# Indices 1 2 3 4 5 6 
#
# 1 0.017633 -0.005349 -0.000790 0.000000 -0.001607 0.000000
# 2 -0.005349 0.016699 -0.004180 0.000000 0.008694 0.000000
# 3 -0.000790 -0.004180 0.010135 0.000000 -0.003866 0.000000
# 4 0.000000 0.000000 0.000000 0.061505 0.000000 -0.021941
# 5 -0.001607 0.008694 -0.003866 0.000000 0.036847 0.000000
# 6 0.000000 0.000000 0.000000 -0.021941 0.000000 0.070979
#
#
# Mechanical properties :
#
#
# Convention : Reuss Voigt Hill
#
# Bulk Modulus (GPa) = 41.96816 44.99453 43.48134
# Shear Modulus (GPa) = 20.62875 25.89650 23.26262
#
# Velocity S-wave (km/s) = 3.13965 3.51775 3.33407
# Velocity P-wave (km/s) = 5.76174 6.16442 5.96647
#
# Compressibility (1/GPa) = 0.02382759
#
# Stress axis : x y z
#
# Youngs Moduli (GPa) = 56.71315 59.88470 98.66381
#
# Poissons Ratio (x) = 0.32032 0.07797
# Poissons Ratio (y) = 0.30335 0.41245
# Poissons Ratio (z) = 0.04482 0.25034
#
# Static dielectric constant tensor:
#      x y z
#    x 1.771780 0.000000 -0.013970 
#    y 0.000000 1.711680 0.000000 
#    z -0.013970 0.000000 1.792970 
# 
# From -- ./inp_files/115063.got.cif
#   From: 2010.05.17/outbox.cif.g08.bks.cpg/sg15_58_cif.got.tgz:115063.got - 2010.06.03 18:47:42.
