data_PCOD9289789
_publ_section_title
;
Structure prediction by ZEFSAII (Michael W. Deem and Ramdas Pophale) SiO2 
 PCOD9289789
Probable space group: C 2/C
;
_chemical_formula_sum "Si O2"
_cell_formula_units_Z 52
_cell_length_a 9.247750
_cell_length_b 22.059167
_cell_length_c 17.012846
_cell_angle_alpha 90.000000
_cell_angle_beta 136.900960
_cell_angle_gamma 90.000000
_cell_volume 2371.314382
_symmetry_space_group_name_H-M "C 2/C"
_symmetry_group_IT_number 15
_symmetry_cell_setting 'monoclinic'
loop_
_space_group_symop_operation_xyz
x,y,z
-x,y,1/2-z
-x,-y,-z
x,-y,1/2+z
1/2+x,1/2+y,z
1/2-x,1/2+y,1/2-z
1/2-x,1/2-y,-z
1/2+x,1/2-y,1/2+z
loop_
_atom_site_type_symbol
_atom_site_label
_atom_site_fract_x
_atom_site_fract_y
_atom_site_fract_z
Si Si1 0.526036 0.130635 0.025108
Si Si2 0.779386 0.797773 0.210587
Si Si3 0.500000 0.013426 0.750000
Si Si4 0.234381 0.461269 0.992275
Si Si5 0.910134 0.905025 0.579740
Si Si6 0.836102 0.338410 0.754906
Si Si7 0.149911 0.887791 0.122624
O O1 0.411487 0.066407 0.997334
O O2 0.762545 0.122678 0.087808
O O3 0.536314 0.162859 0.113246
O O4 0.393210 0.167347 0.909077
O O5 0.729372 0.727027 0.200094
O O6 0.803231 0.830880 0.303818
O O7 0.000000 0.802212 0.250000
O O8 0.684659 0.058333 0.792757
O O9 0.594944 0.975485 0.859763
O O10 0.356868 0.523654 0.058480
O O11 0.414534 0.412017 0.045780
O O12 0.837436 0.879064 0.466005
O O13 0.154959 0.889133 0.686583
O O14 0.000000 0.348112 0.750000
#
# Coordination Sequence:
#
# PCOD9289789 Si02
#       7
#     8   8   4   8   8   8   8
#     4  12  26  47  70 109 142 184 238 295 361 417
#     4  11  25  47  72 104 138 192 249 292 348 422
#     4  10  22  40  68 110 140 192 228 288 366 420
#     4  11  24  43  74 102 148 183 236 288 353 436
#     4  11  25  47  69 112 139 190 232 295 364 420
#     4  11  28  47  75 100 142 190 247 295 350 424
#     4  11  23  44  71 101 143 186 239 286 357 425
#
# _framework density 21.928768000000002
#
# number of rings (size 3 to 8) (size 9 to 14) (size 15 to 20)
#    0.000    0.923    1.538    5.538    7.538    1.846 
#    8.308    0.000    0.000    0.000    0.000    0.000 
#    0.000    0.000    0.000    0.000    0.000    0.000 
#
# Total GULP energy -145600.011165 kJ/mol
# GULP energy per Si atom -5600.000429 kJ/mol
# Density = 2.187886 g / cm^3
# Si number density = 21.928768 Si / 1000 Ang^3
#
#
#
# Elastic Constant Matrix: (Units=GPa)
#
#
# Indices 1 2 3 4 5 6 
#
# 1 108.4298 18.5879 16.8868 0.0002 4.7804 0.0003
# 2 18.5879 88.0455 27.3362 0.0003 1.7297 0.0005
# 3 16.8868 27.3362 74.9839 0.0006 10.5947 0.0009
# 4 0.0002 0.0003 0.0006 9.5613 0.0002 -34.1358
# 5 4.7804 1.7297 10.5947 0.0002 39.3633 0.0002
# 6 0.0003 0.0005 0.0009 -34.1358 0.0002 -73.6148
#
#
#
# Elastic Compliance Matrix: (Units=1/GPa)
#
#
# Indices 1 2 3 4 5 6 
#
# 1 0.009761 -0.001573 -0.001525 0.000000 -0.000706 0.000000
# 2 -0.001573 0.013081 -0.004533 0.000000 0.000836 0.000000
# 3 -0.001525 -0.004533 0.015882 0.000000 -0.003890 0.000000
# 4 0.000000 0.000000 0.000000 0.039385 0.000000 -0.018263
# 5 -0.000706 0.000836 -0.003890 0.000000 0.026500 0.000000
# 6 0.000000 0.000000 0.000000 -0.018263 0.000000 -0.005115
#
#
# Mechanical properties :
#
#
# Convention : Reuss Voigt Hill
#
# Bulk Modulus (GPa) = 42.62272 44.12012 43.37142
# Shear Modulus (GPa) = 40.79120 8.97184 24.88152
#
# Velocity S-wave (km/s) = 4.31765 2.02490 3.37211
# Velocity P-wave (km/s) = 6.65847 5.06265 5.91463
#
# Compressibility (1/GPa) = 0.02346167
#
# Stress axis : x y z
#
# Youngs Moduli (GPa) = 102.44971 76.44814 62.96568
#
# Poissons Ratio (x) = 0.12028 0.09602
# Poissons Ratio (y) = 0.16119 0.28540
# Poissons Ratio (z) = 0.15622 0.34651
#
# Static dielectric constant tensor:
#      x y z
#    x 1.791100 0.000000 0.002310 
#    y 0.000000 1.795850 0.000000 
#    z 0.002310 0.000000 1.777140 
# 
# From -- ./inp_files/192589.got.cif
#   From: 2010.05.17/outbox.cif.g08.bks.cpg/sg15_97_cif.got.tgz:192589.got - 2010.06.03 18:47:42.
