data_PCOD9289513
_publ_section_title
;
Structure prediction by ZEFSAII (Michael W. Deem and Ramdas Pophale) SiO2 
 PCOD9289513
Probable space group: C 2/C
;
_chemical_formula_sum "Si O2"
_cell_formula_units_Z 52
_cell_length_a 8.985813
_cell_length_b 17.599108
_cell_length_c 16.901319
_cell_angle_alpha 90.000000
_cell_angle_beta 98.208371
_cell_angle_gamma 90.000000
_cell_volume 2645.431397
_symmetry_space_group_name_H-M "C 2/C"
_symmetry_group_IT_number 15
_symmetry_cell_setting 'monoclinic'
loop_
_space_group_symop_operation_xyz
x,y,z
-x,y,1/2-z
-x,-y,-z
x,-y,1/2+z
1/2+x,1/2+y,z
1/2-x,1/2+y,1/2-z
1/2-x,1/2-y,-z
1/2+x,1/2-y,1/2+z
loop_
_atom_site_type_symbol
_atom_site_label
_atom_site_fract_x
_atom_site_fract_y
_atom_site_fract_z
Si Si1 0.000000 0.768190 0.250000
Si Si2 0.085412 0.040793 0.933684
Si Si3 0.348365 0.423040 0.701454
Si Si4 0.171280 0.848826 0.144565
Si Si5 0.649097 0.991878 0.312487
Si Si6 0.906111 0.570152 0.027693
Si Si7 0.601111 0.190478 0.110708
O O1 0.861399 0.820439 0.267774
O O2 0.015860 0.716229 0.328664
O O3 0.977242 0.106567 0.893891
O O4 0.111246 0.978170 0.868070
O O5 0.246530 0.073559 0.972229
O O6 0.000000 0.000000 0.000000
O O7 0.500000 0.387912 0.750000
O O8 0.276093 0.474738 0.764654
O O9 0.225416 0.363457 0.660637
O O10 0.302752 0.909478 0.151571
O O11 0.179591 0.770742 0.095955
O O12 0.500000 0.986360 0.250000
O O13 0.625599 0.047727 0.383888
O O14 0.010391 0.644694 0.037921
O O15 0.000000 0.500000 0.000000
#
# Coordination Sequence:
#
# PCOD9289513 Si02
#       7
#     4   8   8   8   8   8   8
#     4   8  20  40  64  90 136 166 206 278 340 360
#     4  12  23  41  67  98 131 174 217 267 332 396
#     4  12  22  40  70  98 125 176 227 269 319 391
#     4  10  22  40  65  93 134 165 220 273 328 375
#     4  12  22  40  70  98 125 176 227 269 319 391
#     4  12  23  41  67  98 131 174 217 267 332 396
#     4  10  22  40  65  93 134 165 220 273 328 375
#
# _framework density 19.656528999999999
#
# number of rings (size 3 to 8) (size 9 to 14) (size 15 to 20)
#    0.923    0.000    6.154    1.846    0.000    1.231 
#    0.000    3.077    0.000    0.000    0.000    0.000 
#    0.000    0.000    0.000    0.000    0.000    0.000 
#
# Total GULP energy -145017.216681 kJ/mol
# GULP energy per Si atom -5577.585257 kJ/mol
# Density = 1.961179 g / cm^3
# Si number density = 19.656529 Si / 1000 Ang^3
#
#
#
# Elastic Constant Matrix: (Units=GPa)
#
#
# Indices 1 2 3 4 5 6 
#
# 1 78.6388 12.8228 26.9219 0.0000 26.7731 0.0000
# 2 12.8228 97.9689 17.0413 0.0000 4.2557 0.0000
# 3 26.9219 17.0413 60.3405 0.0000 2.2057 0.0000
# 4 0.0000 0.0000 0.0000 17.6935 0.0000 -1.3798
# 5 26.7731 4.2557 2.2057 0.0000 45.9093 0.0000
# 6 0.0000 0.0000 0.0000 -1.3798 0.0000 28.6042
#
#
#
# Elastic Compliance Matrix: (Units=1/GPa)
#
#
# Indices 1 2 3 4 5 6 
#
# 1 0.019228 -0.000657 -0.008000 0.000000 -0.010768 0.000000
# 2 -0.000657 0.010790 -0.002736 0.000000 -0.000485 0.000000
# 3 -0.008000 -0.002736 0.020771 0.000000 0.003921 0.000000
# 4 0.000000 0.000000 0.000000 0.056731 0.000000 0.002737
# 5 -0.010768 -0.000485 0.003921 0.000000 0.027918 0.000000
# 6 0.000000 0.000000 0.000000 0.002737 0.000000 0.035092
#
#
# Mechanical properties :
#
#
# Convention : Reuss Voigt Hill
#
# Bulk Modulus (GPa) = 35.71045 38.94670 37.32858
# Shear Modulus (GPa) = 24.67272 30.45224 27.56248
#
# Velocity S-wave (km/s) = 3.54671 3.94028 3.74866
# Velocity P-wave (km/s) = 5.91429 6.36849 6.14559
#
# Compressibility (1/GPa) = 0.02800301
#
# Stress axis : x y z
#
# Youngs Moduli (GPa) = 52.00649 92.67473 48.14335
#
# Poissons Ratio (x) = 0.06093 0.38514
# Poissons Ratio (y) = 0.03419 0.13174
# Poissons Ratio (z) = 0.41604 0.25359
#
# Static dielectric constant tensor:
#      x y z
#    x 1.675310 0.000000 -0.011500 
#    y 0.000000 1.711590 0.000000 
#    z -0.011500 0.000000 1.702700 
# 
# From -- ./inp_files/136051.got.cif
#   From: 2010.05.17/outbox.cif.g08.bks.cpg/sg15_69_cif.got.tgz:136051.got - 2010.06.03 18:47:42.
