data_PCOD9289679
_publ_section_title
;
Structure prediction by ZEFSAII (Michael W. Deem and Ramdas Pophale) SiO2 
 PCOD9289679
Probable space group: C 2/C
;
_chemical_formula_sum "Si O2"
_cell_formula_units_Z 60
_cell_length_a 26.954121
_cell_length_b 8.824597
_cell_length_c 9.317044
_cell_angle_alpha 90.000000
_cell_angle_beta 95.243526
_cell_angle_gamma 90.000000
_cell_volume 2206.871157
_symmetry_space_group_name_H-M "C 2/C"
_symmetry_group_IT_number 15
_symmetry_cell_setting 'monoclinic'
loop_
_space_group_symop_operation_xyz
x,y,z
-x,y,1/2-z
-x,-y,-z
x,-y,1/2+z
1/2+x,1/2+y,z
1/2-x,1/2+y,1/2-z
1/2-x,1/2-y,-z
1/2+x,1/2-y,1/2+z
loop_
_atom_site_type_symbol
_atom_site_label
_atom_site_fract_x
_atom_site_fract_y
_atom_site_fract_z
Si Si1 0.350458 0.842595 0.119776
Si Si2 0.908801 0.512802 0.901387
Si Si3 0.574348 0.518945 0.636540
Si Si4 0.109596 0.204607 0.922355
Si Si5 0.556703 0.310919 0.861833
Si Si6 0.213049 0.803958 0.318503
Si Si7 0.744064 0.494726 0.088917
Si Si8 0.500000 0.972111 0.250000
O O1 0.373578 0.925963 0.264733
O O2 0.381627 0.686459 0.137244
O O3 0.292991 0.886756 0.102044
O O4 0.374217 0.899500 0.977744
O O5 0.959333 0.452470 0.841658
O O6 0.918593 0.653026 0.013859
O O7 0.588061 0.629434 0.772029
O O8 0.612449 0.420491 0.549014
O O9 0.543534 0.389889 0.708950
O O10 0.545436 0.610588 0.507570
O O11 0.164046 0.255060 0.886842
O O12 0.534586 0.143254 0.850418
O O13 0.247259 0.654168 0.323456
O O14 0.233274 0.937621 0.428792
O O15 0.205701 0.886332 0.164127
#
# Coordination Sequence:
#
# PCOD9289679 Si02
#       8
#     8   8   8   8   8   8   8   4
#     4  11  23  43  69  97 134 185 229 282 350 417
#     4  11  24  42  71  97 134 177 231 286 337 416
#     4  10  22  40  66  98 134 180 226 277 345 418
#     4  11  21  43  64  97 133 180 224 279 348 406
#     4  10  23  41  68  99 137 182 228 285 348 410
#     4  11  25  42  66 101 136 181 227 296 337 423
#     4  11  25  42  69 100 138 178 234 287 350 406
#     4  10  22  46  68 106 138 176 234 290 344 408
#
# _framework density 27.187811
#
# number of rings (size 3 to 8) (size 9 to 14) (size 15 to 20)
#    0.000    1.333    4.000    1.600    3.733    6.400 
#    0.000    0.000    0.000    0.000    0.000    0.000 
#    0.000    0.000    0.000    0.000    0.000    0.000 
#
# Total GULP energy -167690.370116 kJ/mol
# GULP energy per Si atom -5589.679004 kJ/mol
# Density = 2.712593 g / cm^3
# Si number density = 27.187811 Si / 1000 Ang^3
#
#
#
# Elastic Constant Matrix: (Units=GPa)
#
#
# Indices 1 2 3 4 5 6 
#
# 1 60.6029 12.9345 26.1129 0.0000 -19.1015 0.0000
# 2 12.9345 84.0752 53.6688 0.0000 -13.7910 0.0000
# 3 26.1129 53.6688 174.4692 0.0000 -13.1801 0.0000
# 4 0.0000 0.0000 0.0000 67.8730 0.0000 0.4886
# 5 -19.1015 -13.7910 -13.1801 0.0000 32.1626 0.0000
# 6 0.0000 0.0000 0.0000 0.4886 0.0000 28.0531
#
#
#
# Elastic Compliance Matrix: (Units=1/GPa)
#
#
# Indices 1 2 3 4 5 6 
#
# 1 0.021152 0.000147 -0.002329 0.000000 0.011671 0.000000
# 2 0.000147 0.015499 -0.004418 0.000000 0.004923 0.000000
# 3 -0.002329 -0.004418 0.007421 0.000000 -0.000236 0.000000
# 4 0.000000 0.000000 0.000000 0.014735 0.000000 -0.000257
# 5 0.011671 0.004923 -0.000236 0.000000 0.040037 0.000000
# 6 0.000000 0.000000 0.000000 -0.000257 0.000000 0.035651
#
#
# Mechanical properties :
#
#
# Convention : Reuss Voigt Hill
#
# Bulk Modulus (GPa) = 32.39172 56.06440 44.22806
# Shear Modulus (GPa) = 31.64831 40.71315 36.18073
#
# Velocity S-wave (km/s) = 3.41554 3.87392 3.65193
# Velocity P-wave (km/s) = 5.24351 6.37775 5.83824
#
# Compressibility (1/GPa) = 0.03087209
#
# Stress axis : x y z
#
# Youngs Moduli (GPa) = 47.27776 64.52009 134.74499
#
# Poissons Ratio (x) = -0.00950 0.31388
# Poissons Ratio (y) = -0.00696 0.59528
# Poissons Ratio (z) = 0.11013 0.28504
#
# Static dielectric constant tensor:
#      x y z
#    x 2.226980 0.000000 0.070190 
#    y 0.000000 2.208120 0.000000 
#    z 0.070190 0.000000 2.100690 
# 
# From -- ./inp_files/69072.got.cif
#   From: 2010.05.17/outbox.cif.g08.bks.cpg/sg15_35_cif.got.tgz:69072.got - 2010.06.03 18:47:42.
