data_PCOD9289483
_publ_section_title
;
Structure prediction by ZEFSAII (Michael W. Deem and Ramdas Pophale) SiO2 
 PCOD9289483
Probable space group: C 2/C
;
_chemical_formula_sum "Si O2"
_cell_formula_units_Z 40
_cell_length_a 24.262644
_cell_length_b 9.130857
_cell_length_c 18.599592
_cell_angle_alpha 90.000000
_cell_angle_beta 26.586295
_cell_angle_gamma 90.000000
_cell_volume 1844.123424
_symmetry_space_group_name_H-M "C 2/C"
_symmetry_group_IT_number 15
_symmetry_cell_setting 'monoclinic'
loop_
_space_group_symop_operation_xyz
x,y,z
-x,y,1/2-z
-x,-y,-z
x,-y,1/2+z
1/2+x,1/2+y,z
1/2-x,1/2+y,1/2-z
1/2-x,1/2-y,-z
1/2+x,1/2-y,1/2+z
loop_
_atom_site_type_symbol
_atom_site_label
_atom_site_fract_x
_atom_site_fract_y
_atom_site_fract_z
Si Si1 0.464679 0.899399 0.713184
Si Si2 0.297089 0.039151 0.660492
Si Si3 0.572398 0.364022 0.877835
Si Si4 0.104912 0.733019 0.685963
Si Si5 0.128607 0.311403 0.818757
O O1 0.500000 0.835913 0.750000
O O2 0.587712 0.934008 0.524896
O O3 0.379760 0.806629 0.757788
O O4 0.406116 0.058223 0.791779
O O5 0.217286 0.187014 0.748092
O O6 0.212703 0.909434 0.726183
O O7 0.330732 0.969112 0.698497
O O8 0.565145 0.324749 0.802793
O O9 0.500000 0.500000 0.000000
O O10 0.507573 0.228339 0.993160
O O11 0.250000 0.750000 0.500000
O O12 0.000000 0.772268 0.750000
#
# Coordination Sequence:
#
# PCOD9289483 Si02
#       5
#     8   8   8   8   8
#     4  11  24  43  66  97 138 185 232 290 365 425
#     4  11  23  42  67 100 137 178 230 295 355 422
#     4  10  22  40  65 101 135 178 239 289 353 427
#     4  11  24  42  70 100 143 191 240 295 363 441
#     4  11  24  41  69  99 136 180 232 293 356 427
#
# _framework density 21.690522999999999
#
# number of rings (size 3 to 8) (size 9 to 14) (size 15 to 20)
#    0.000    1.200    2.000    4.200    2.800    2.400 
#    0.000    4.000    0.000    0.000    0.000    0.000 
#    0.000    0.000    0.000    0.000    0.000    0.000 
#
# Total GULP energy -111528.310385 kJ/mol
# GULP energy per Si atom -5576.415519 kJ/mol
# Density = 2.164115 g / cm^3
# Si number density = 21.690523 Si / 1000 Ang^3
#
#
#
# Elastic Constant Matrix: (Units=GPa)
#
#
# Indices 1 2 3 4 5 6 
#
# 1 171.8543 64.4088 34.5154 0.0000 29.0380 0.0000
# 2 64.4088 93.3901 21.5211 0.0001 -4.2576 0.0000
# 3 34.5154 21.5211 91.0376 0.0000 -2.0642 0.0000
# 4 0.0000 0.0001 0.0000 12.7754 0.0000 -6.6113
# 5 29.0380 -4.2576 -2.0642 0.0000 35.2859 0.0000
# 6 0.0000 0.0000 0.0000 -6.6113 0.0000 35.5393
#
#
#
# Elastic Compliance Matrix: (Units=1/GPa)
#
#
# Indices 1 2 3 4 5 6 
#
# 1 0.010714 -0.007245 -0.002572 0.000000 -0.009841 0.000000
# 2 -0.007245 0.016276 -0.000922 0.000000 0.007872 0.000000
# 3 -0.002572 -0.000922 0.012239 0.000000 0.002722 0.000000
# 4 0.000000 0.000000 0.000000 0.086614 0.000000 0.016113
# 5 -0.009841 0.007872 0.002722 0.000000 0.037548 0.000000
# 6 0.000000 0.000000 0.000000 0.016113 0.000000 0.031135
#
#
# Mechanical properties :
#
#
# Convention : Reuss Voigt Hill
#
# Bulk Modulus (GPa) = 56.33845 66.35252 61.34549
# Shear Modulus (GPa) = 22.53050 32.44256 27.48653
#
# Velocity S-wave (km/s) = 3.22642 3.87163 3.56366
# Velocity P-wave (km/s) = 6.31743 7.11639 6.72878
#
# Compressibility (1/GPa) = 0.01774987
#
# Stress axis : x y z
#
# Youngs Moduli (GPa) = 93.33886 61.44113 81.70273
#
# Poissons Ratio (x) = 0.44513 0.21017
# Poissons Ratio (y) = 0.67622 0.07536
# Poissons Ratio (z) = 0.24010 0.05667
#
# Static dielectric constant tensor:
#      x y z
#    x 1.868710 0.000000 -0.059020 
#    y 0.000000 1.755460 0.000000 
#    z -0.059020 0.000000 1.828360 
# 
# From -- ./inp_files/218775.got.cif
#   From: 2010.05.17/outbox.cif.g08.bks.cpg/sg15_110_cif.got.tgz:218775.got - 2010.06.03 18:47:42.
