data_PCOD9289326
_publ_section_title
;
Structure prediction by ZEFSAII (Michael W. Deem and Ramdas Pophale) SiO2 
 PCOD9289326
Probable space group: C 2/C
;
_chemical_formula_sum "Si O2"
_cell_formula_units_Z 56
_cell_length_a 21.870321
_cell_length_b 10.520692
_cell_length_c 15.650349
_cell_angle_alpha 90.000000
_cell_angle_beta 142.224782
_cell_angle_gamma 90.000000
_cell_volume 2205.849278
_symmetry_space_group_name_H-M "C 2/C"
_symmetry_group_IT_number 15
_symmetry_cell_setting 'monoclinic'
loop_
_space_group_symop_operation_xyz
x,y,z
-x,y,1/2-z
-x,-y,-z
x,-y,1/2+z
1/2+x,1/2+y,z
1/2-x,1/2+y,1/2-z
1/2-x,1/2-y,-z
1/2+x,1/2-y,1/2+z
loop_
_atom_site_type_symbol
_atom_site_label
_atom_site_fract_x
_atom_site_fract_y
_atom_site_fract_z
Si Si1 0.409430 0.281465 0.370618
Si Si2 0.383848 0.990995 0.297084
Si Si3 0.902219 0.502831 0.512723
Si Si4 0.316767 0.508125 0.497746
Si Si5 0.185093 0.971087 0.808273
Si Si6 0.070075 0.769634 0.407898
Si Si7 0.508832 0.317502 0.856584
O O1 0.377157 0.144938 0.296261
O O2 0.344565 0.409445 0.284920
O O3 0.508497 0.304067 0.424346
O O4 0.434849 0.261067 0.498017
O O5 0.482315 0.952230 0.353383
O O6 0.282080 0.941320 0.145468
O O7 0.397270 0.951089 0.409676
O O8 0.797520 0.574409 0.411432
O O9 0.901528 0.376948 0.569489
O O10 0.309315 0.523348 0.589989
O O11 0.331162 0.648168 0.477820
O O12 0.417264 0.434950 0.584205
O O13 0.097184 0.866525 0.721844
O O14 0.000000 0.803847 0.250000
O O15 0.500000 0.259093 0.750000
#
# Coordination Sequence:
#
# PCOD9289326 Si02
#       7
#     8   8   8   8   8   8   8
#     4  11  21  37  65  89 123 159 199 249 311 357
#     4  10  24  41  56  86 122 169 206 239 295 368
#     4  10  24  39  56  81 127 167 202 235 299 368
#     4  11  21  37  63  92 130 147 200 261 301 371
#     4  11  21  36  63  95 121 156 198 255 320 352
#     4  11  21  37  61  97 124 152 202 256 311 361
#     4  10  22  40  63  95 120 155 204 254 306 357
#
# _framework density 25.387046999999999
#
# number of rings (size 3 to 8) (size 9 to 14) (size 15 to 20)
#    0.000    1.429    2.857    2.571    6.000    1.143 
#    0.000    0.714    3.143    1.714    0.000    0.000 
#    0.000    0.000    0.000    0.000    0.000    0.000 
#
# Total GULP energy -156412.555653 kJ/mol
# GULP energy per Si atom -5586.162702 kJ/mol
# Density = 2.532927 g / cm^3
# Si number density = 25.387047 Si / 1000 Ang^3
#
#
#
# Elastic Constant Matrix: (Units=GPa)
#
#
# Indices 1 2 3 4 5 6 
#
# 1 143.6461 31.5256 60.6094 0.0000 30.1423 0.0000
# 2 31.5256 32.9762 18.4680 0.0000 4.0947 0.0000
# 3 60.6094 18.4680 122.9336 0.0000 29.3921 0.0000
# 4 0.0000 0.0000 0.0000 14.7634 0.0000 -12.0714
# 5 30.1423 4.0947 29.3921 0.0000 53.1489 0.0000
# 6 0.0000 0.0000 0.0000 -12.0714 0.0000 28.2726
#
#
#
# Elastic Compliance Matrix: (Units=1/GPa)
#
#
# Indices 1 2 3 4 5 6 
#
# 1 0.010912 -0.008140 -0.003258 0.000000 -0.003759 0.000000
# 2 -0.008140 0.039186 -0.002599 0.000000 0.003035 0.000000
# 3 -0.003258 -0.002599 0.011111 0.000000 -0.004096 0.000000
# 4 0.000000 0.000000 0.000000 0.104066 0.000000 0.044432
# 5 -0.003759 0.003035 -0.004096 0.000000 0.022979 0.000000
# 6 0.000000 0.000000 0.000000 0.044432 0.000000 0.054341
#
#
# Mechanical properties :
#
#
# Convention : Reuss Voigt Hill
#
# Bulk Modulus (GPa) = 30.10827 57.86243 43.98535
# Shear Modulus (GPa) = 17.75197 31.83385 24.79291
#
# Velocity S-wave (km/s) = 2.64721 3.54494 3.12845
# Velocity P-wave (km/s) = 4.60750 6.29262 5.51480
#
# Compressibility (1/GPa) = 0.03321347
#
# Stress axis : x y z
#
# Youngs Moduli (GPa) = 91.64581 25.51947 90.00424
#
# Poissons Ratio (x) = 0.20773 0.29323
# Poissons Ratio (y) = 0.74601 0.23393
# Poissons Ratio (z) = 0.29858 0.06633
#
# Static dielectric constant tensor:
#      x y z
#    x 1.955480 0.000000 0.021700 
#    y 0.000000 2.133440 0.000000 
#    z 0.021700 0.000000 1.991030 
# 
# From -- ./inp_files/168492.got.cif
#   From: 2010.05.17/outbox.cif.g08.bks.cpg/sg15_85_cif.got.tgz:168492.got - 2010.06.03 18:47:42.
