data_PCOD9290254
_publ_section_title
;
Structure prediction by ZEFSAII (Michael W. Deem and Ramdas Pophale) SiO2 
 PCOD9290254
Probable space group: C 2/C
;
_chemical_formula_sum "Si O2"
_cell_formula_units_Z 48
_cell_length_a 10.892391
_cell_length_b 16.610700
_cell_length_c 20.370434
_cell_angle_alpha 90.000000
_cell_angle_beta 138.349698
_cell_angle_gamma 90.000000
_cell_volume 2449.403444
_symmetry_space_group_name_H-M "C 2/C"
_symmetry_group_IT_number 15
_symmetry_cell_setting 'monoclinic'
loop_
_space_group_symop_operation_xyz
x,y,z
-x,y,1/2-z
-x,-y,-z
x,-y,1/2+z
1/2+x,1/2+y,z
1/2-x,1/2+y,1/2-z
1/2-x,1/2-y,-z
1/2+x,1/2-y,1/2+z
loop_
_atom_site_type_symbol
_atom_site_label
_atom_site_fract_x
_atom_site_fract_y
_atom_site_fract_z
Si Si1 0.859566 0.135341 0.246874
Si Si2 0.290348 0.222282 0.915628
Si Si3 0.592695 0.084903 0.035221
Si Si4 0.631063 0.282684 0.207603
Si Si5 0.376261 0.552998 0.042204
Si Si6 0.501462 0.382945 0.453642
O O1 0.746886 0.078879 0.153219
O O2 0.716554 0.199539 0.217228
O O3 0.000000 0.175761 0.250000
O O4 0.960774 0.087892 0.345678
O O5 0.234571 0.205652 0.817671
O O6 0.090887 0.217866 0.870840
O O7 0.449101 0.156413 0.992752
O O8 0.373342 0.309324 0.968527
O O9 0.696480 0.088988 0.006535
O O10 0.500000 0.000000 0.000000
O O11 0.647776 0.348746 0.157489
O O12 0.389283 0.455837 0.039300
O O13 0.403041 0.583607 0.979233
#
# Coordination Sequence:
#
# PCOD9290254 Si02
#       6
#     8   8   8   8   8   8
#     4  10  22  41  64  92 128 168 213 271 330 388
#     4  11  24  40  66  96 127 171 219 268 326 397
#     4  11  24  41  65  95 129 174 219 270 327 398
#     4  11  23  40  65  96 127 167 214 275 319 391
#     4  10  24  42  64  96 133 173 217 277 331 388
#     4  11  22  42  66  91 131 172 218 271 328 390
#
# _framework density 19.596608
#
# number of rings (size 3 to 8) (size 9 to 14) (size 15 to 20)
#    0.000    1.333    3.333    1.500    4.667    2.000 
#    0.000    0.000    0.000    0.000    0.000    0.000 
#    0.000    0.000    0.000    0.000    0.000    0.000 
#
# Total GULP energy -133730.969976 kJ/mol
# GULP energy per Si atom -5572.123749 kJ/mol
# Density = 1.955201 g / cm^3
# Si number density = 19.596608 Si / 1000 Ang^3
#
#
#
# Elastic Constant Matrix: (Units=GPa)
#
#
# Indices 1 2 3 4 5 6 
#
# 1 92.1618 39.2044 50.1970 0.0000 -3.9891 0.0000
# 2 39.2044 107.8170 36.8830 0.0000 4.0084 0.0000
# 3 50.1970 36.8830 88.1612 0.0000 -13.2128 0.0000
# 4 0.0000 0.0000 0.0000 20.2077 0.0000 -3.9251
# 5 -3.9891 4.0084 -13.2128 0.0000 30.7373 0.0000
# 6 0.0000 0.0000 0.0000 -3.9251 0.0000 25.7450
#
#
#
# Elastic Compliance Matrix: (Units=1/GPa)
#
#
# Indices 1 2 3 4 5 6 
#
# 1 0.016696 -0.003187 -0.008322 0.000000 -0.000995 0.000000
# 2 -0.003187 0.011816 -0.003657 0.000000 -0.003527 0.000000
# 3 -0.008322 -0.003657 0.018727 0.000000 0.007447 0.000000
# 4 0.000000 0.000000 0.000000 0.050996 0.000000 0.007775
# 5 -0.000995 -0.003527 0.007447 0.000000 0.036066 0.000000
# 6 0.000000 0.000000 0.000000 0.007775 0.000000 0.040028
#
#
# Mechanical properties :
#
#
# Convention : Reuss Voigt Hill
#
# Bulk Modulus (GPa) = 59.14840 60.07873 59.61357
# Shear Modulus (GPa) = 23.77586 26.12839 24.95213
#
# Velocity S-wave (km/s) = 3.48697 3.65542 3.57219
# Velocity P-wave (km/s) = 6.81619 6.96709 6.89205
#
# Compressibility (1/GPa) = 0.01690663
#
# Stress axis : x y z
#
# Youngs Moduli (GPa) = 59.89515 84.63042 53.39784
#
# Poissons Ratio (x) = 0.26973 0.44438
# Poissons Ratio (y) = 0.19089 0.19529
# Poissons Ratio (z) = 0.49845 0.30951
#
# Static dielectric constant tensor:
#      x y z
#    x 1.833670 0.000000 0.039930 
#    y 0.000000 1.716270 0.000000 
#    z 0.039930 0.000000 1.728260 
# 
# From -- ./inp_files/143458.got.cif
#   From: 2010.05.17/outbox.cif.g08.bks.cpg/sg15_72_cif.got.tgz:143458.got - 2010.06.03 18:47:42.
