data_PCOD9290267
_publ_section_title
;
Structure prediction by ZEFSAII (Michael W. Deem and Ramdas Pophale) SiO2 
 PCOD9290267
Probable space group: C 2/C
;
_chemical_formula_sum "Si O2"
_cell_formula_units_Z 64
_cell_length_a 19.651495
_cell_length_b 24.003494
_cell_length_c 9.133865
_cell_angle_alpha 90.000000
_cell_angle_beta 144.040566
_cell_angle_gamma 90.000000
_cell_volume 2529.995799
_symmetry_space_group_name_H-M "C 2/C"
_symmetry_group_IT_number 15
_symmetry_cell_setting 'monoclinic'
loop_
_space_group_symop_operation_xyz
x,y,z
-x,y,1/2-z
-x,-y,-z
x,-y,1/2+z
1/2+x,1/2+y,z
1/2-x,1/2+y,1/2-z
1/2-x,1/2-y,-z
1/2+x,1/2-y,1/2+z
loop_
_atom_site_type_symbol
_atom_site_label
_atom_site_fract_x
_atom_site_fract_y
_atom_site_fract_z
Si Si1 0.652867 0.661037 0.284905
Si Si2 0.396469 0.314895 0.343940
Si Si3 0.940403 0.653519 0.281559
Si Si4 0.467713 0.942233 0.023154
Si Si5 0.262540 0.790230 0.693239
Si Si6 0.269231 0.489016 0.933029
Si Si7 0.245768 0.109315 0.733143
Si Si8 0.098414 0.963659 0.593960
O O1 0.735883 0.687190 0.306874
O O2 0.724563 0.648636 0.555702
O O3 0.605121 0.600697 0.149403
O O4 0.533116 0.695564 0.100861
O O5 0.305294 0.273575 0.267475
O O6 0.364973 0.375374 0.356416
O O7 0.352177 0.305784 0.101021
O O8 0.012878 0.609412 0.505092
O O9 0.867556 0.685088 0.277941
O O10 0.000000 0.687191 0.250000
O O11 0.851819 0.619096 0.026250
O O12 0.328618 0.943809 0.767444
O O13 0.500000 0.940166 0.250000
O O14 0.500000 0.000000 0.000000
O O15 0.245662 0.548387 0.818050
O O16 0.381550 0.467377 0.043462
O O17 0.289151 0.506307 0.134210
O O18 0.000000 0.000000 0.500000
#
# Coordination Sequence:
#
# PCOD9290267 Si02
#       8
#     8   8   8   8   8   8   8   8
#     4  11  23  41  66  97 132 169 220 280 331 406
#     4  10  22  42  66  94 131 171 215 274 342 407
#     4  11  24  43  65  91 131 174 220 280 337 401
#     4  12  24  40  64  95 132 181 231 274 333 396
#     4  10  24  42  66  97 127 170 224 276 342 407
#     4  11  22  38  59  89 129 165 210 267 314 385
#     4  10  22  41  64  94 130 172 216 271 343 402
#     4  11  23  37  60  93 129 170 213 258 322 390
#
# _framework density 25.296484
#
# number of rings (size 3 to 8) (size 9 to 14) (size 15 to 20)
#    0.000    1.250    0.000    6.000    0.000   12.500 
#    0.000    2.500    0.000    0.000    0.000    0.000 
#    0.000    0.000    0.000    0.000    0.000    0.000 
#
# Total GULP energy -178781.575617 kJ/mol
# GULP energy per Si atom -5586.924238 kJ/mol
# Density = 2.523891 g / cm^3
# Si number density = 25.296484 Si / 1000 Ang^3
#
#
#
# Elastic Constant Matrix: (Units=GPa)
#
#
# Indices 1 2 3 4 5 6 
#
# 1 136.9701 23.0036 41.5499 0.0000 -22.3168 0.0000
# 2 23.0036 63.6476 13.2035 0.0000 -18.6584 0.0000
# 3 41.5499 13.2035 81.1765 0.0000 -20.6272 0.0000
# 4 0.0000 0.0000 0.0000 25.6590 0.0000 -2.4372
# 5 -22.3168 -18.6584 -20.6272 0.0000 51.1785 0.0000
# 6 0.0000 0.0000 0.0000 -2.4372 0.0000 45.7002
#
#
#
# Elastic Compliance Matrix: (Units=1/GPa)
#
#
# Indices 1 2 3 4 5 6 
#
# 1 0.009091 -0.001987 -0.003907 0.000000 0.001665 0.000000
# 2 -0.001987 0.018164 -0.000529 0.000000 0.005543 0.000000
# 3 -0.003907 -0.000529 0.015511 0.000000 0.004355 0.000000
# 4 0.000000 0.000000 0.000000 0.039171 0.000000 0.002089
# 5 0.001665 0.005543 0.004355 0.000000 0.024042 0.000000
# 6 0.000000 0.000000 0.000000 0.002089 0.000000 0.021993
#
#
# Mechanical properties :
#
#
# Convention : Reuss Voigt Hill
#
# Bulk Modulus (GPa) = 33.42176 48.58979 41.00578
# Shear Modulus (GPa) = 33.15827 38.11001 35.63414
#
# Velocity S-wave (km/s) = 3.62441 3.88562 3.75728
# Velocity P-wave (km/s) = 5.54579 6.27539 5.92184
#
# Compressibility (1/GPa) = 0.02992063
#
# Stress axis : x y z
#
# Youngs Moduli (GPa) = 109.99829 55.05324 64.46914
#
# Poissons Ratio (x) = 0.10940 0.25188
# Poissons Ratio (y) = 0.21858 0.03410
# Poissons Ratio (z) = 0.42975 0.02912
#
# Static dielectric constant tensor:
#      x y z
#    x 2.064260 0.000000 0.123360 
#    y 0.000000 2.039020 0.000000 
#    z 0.123360 0.000000 2.083620 
# 
# From -- ./inp_files/52847.got.cif
#   From: 2010.05.17/outbox.cif.g08.bks.cpg/sg15_27_cif.got.tgz:52847.got - 2010.06.03 18:47:42.
