data_PCOD9290132
_publ_section_title
;
Structure prediction by ZEFSAII (Michael W. Deem and Ramdas Pophale) SiO2 
 PCOD9290132
Probable space group: C 2/C
;
_chemical_formula_sum "Si O2"
_cell_formula_units_Z 48
_cell_length_a 13.488687
_cell_length_b 13.113660
_cell_length_c 29.065759
_cell_angle_alpha 90.000000
_cell_angle_beta 153.103245
_cell_angle_gamma 90.000000
_cell_volume 2325.855309
_symmetry_space_group_name_H-M "C 2/C"
_symmetry_group_IT_number 15
_symmetry_cell_setting 'monoclinic'
loop_
_space_group_symop_operation_xyz
x,y,z
-x,y,1/2-z
-x,-y,-z
x,-y,1/2+z
1/2+x,1/2+y,z
1/2-x,1/2+y,1/2-z
1/2-x,1/2-y,-z
1/2+x,1/2-y,1/2+z
loop_
_atom_site_type_symbol
_atom_site_label
_atom_site_fract_x
_atom_site_fract_y
_atom_site_fract_z
Si Si1 0.672527 0.176648 0.426304
Si Si2 0.678784 0.487886 0.288010
Si Si3 0.233906 0.280715 0.207293
Si Si4 0.911398 0.157335 0.135424
Si Si5 0.150157 0.537893 0.498751
Si Si6 0.434118 0.219842 0.967012
O O1 0.750000 0.250000 0.500000
O O2 0.445809 0.215459 0.309957
O O3 0.644299 0.073764 0.443405
O O4 0.858831 0.181158 0.464635
O O5 0.500000 0.450126 0.250000
O O6 0.708329 0.400629 0.261784
O O7 0.603722 0.602310 0.244138
O O8 0.909338 0.495509 0.408417
O O9 0.169624 0.273332 0.126785
O O10 0.027552 0.239002 0.150742
O O11 0.696090 0.203351 0.071026
O O12 0.816632 0.054653 0.072573
O O13 0.168921 0.630168 0.543081
#
# Coordination Sequence:
#
# PCOD9290132 Si02
#       6
#     8   8   8   8   8   8
#     4  10  22  41  62  92 130 172 208 262 328 383
#     4  12  22  39  67  94 129 169 216 269 322 384
#     4  12  24  39  66  99 130 167 216 272 325 379
#     4  12  24  40  65  98 130 168 220 271 320 382
#     4  11  22  41  64  95 131 168 216 268 323 382
#     4  11  22  40  66  96 128 166 218 268 321 377
#
# _framework density 20.637568999999999
#
# number of rings (size 3 to 8) (size 9 to 14) (size 15 to 20)
#    0.000    0.667    5.000    5.500    0.000    0.000 
#    0.000    0.833    0.000    0.000    0.000    0.000 
#    0.000    0.000    0.000    0.000    0.000    0.000 
#
# Total GULP energy -133860.064526 kJ/mol
# GULP energy per Si atom -5577.502689 kJ/mol
# Density = 2.059060 g / cm^3
# Si number density = 20.637569 Si / 1000 Ang^3
#
#
#
# Elastic Constant Matrix: (Units=GPa)
#
#
# Indices 1 2 3 4 5 6 
#
# 1 139.0703 57.8902 38.9113 0.0001 11.2859 0.0000
# 2 57.8902 47.8746 15.0609 0.0000 10.1179 0.0001
# 3 38.9113 15.0609 65.3768 0.0020 0.5785 -0.0004
# 4 0.0001 0.0000 0.0020 32.2244 -0.0001 4.7260
# 5 11.2859 10.1179 0.5785 -0.0001 31.9569 0.0000
# 6 0.0000 0.0001 -0.0004 4.7260 0.0000 47.7121
#
#
#
# Elastic Compliance Matrix: (Units=1/GPa)
#
#
# Indices 1 2 3 4 5 6 
#
# 1 0.016128 -0.017778 -0.005504 0.000000 0.000032 0.000000
# 2 -0.017778 0.043818 0.000554 0.000000 -0.007605 0.000000
# 3 -0.005504 0.000554 0.018432 -0.000001 0.001435 0.000000
# 4 0.000000 0.000000 -0.000001 0.031490 0.000000 -0.003119
# 5 0.000032 -0.007605 0.001435 0.000000 0.033663 0.000000
# 6 0.000000 0.000000 0.000000 -0.003119 0.000000 0.021268
#
#
# Mechanical properties :
#
#
# Convention : Reuss Voigt Hill
#
# Bulk Modulus (GPa) = 30.37488 52.89405 41.63447
# Shear Modulus (GPa) = 22.60118 31.74263 27.17190
#
# Velocity S-wave (km/s) = 3.31289 3.92612 3.63247
# Velocity P-wave (km/s) = 5.42069 6.79986 6.14906
#
# Compressibility (1/GPa) = 0.03292194
#
# Stress axis : x y z
#
# Youngs Moduli (GPa) = 62.00299 22.82184 54.25469
#
# Poissons Ratio (x) = 0.40572 0.29863
# Poissons Ratio (y) = 1.10227 -0.03006
# Poissons Ratio (z) = 0.34127 -0.01264
#
# Static dielectric constant tensor:
#      x y z
#    x 1.772350 0.000000 -0.000360 
#    y 0.000000 1.824960 0.000000 
#    z -0.000360 0.000000 1.803980 
# 
# From -- ./inp_files/293138.got.cif
#   From: 2010.05.17/outbox.cif.g08.bks.cpg/sg15_147_cif.got.tgz:293138.got - 2010.06.03 18:47:42.
