data_PCOD9290280
_publ_section_title
;
Structure prediction by ZEFSAII (Michael W. Deem and Ramdas Pophale) SiO2 
 PCOD9290280
Probable space group: C 2/C
;
_chemical_formula_sum "Si O2"
_cell_formula_units_Z 56
_cell_length_a 27.052215
_cell_length_b 17.199978
_cell_length_c 9.650924
_cell_angle_alpha 90.000000
_cell_angle_beta 138.685166
_cell_angle_gamma 90.000000
_cell_volume 2964.644373
_symmetry_space_group_name_H-M "C 2/C"
_symmetry_group_IT_number 15
_symmetry_cell_setting 'monoclinic'
loop_
_space_group_symop_operation_xyz
x,y,z
-x,y,1/2-z
-x,-y,-z
x,-y,1/2+z
1/2+x,1/2+y,z
1/2-x,1/2+y,1/2-z
1/2-x,1/2-y,-z
1/2+x,1/2-y,1/2+z
loop_
_atom_site_type_symbol
_atom_site_label
_atom_site_fract_x
_atom_site_fract_y
_atom_site_fract_z
Si Si1 0.973442 0.704562 0.353444
Si Si2 0.713217 0.461241 0.252852
Si Si3 0.346483 0.040151 0.372534
Si Si4 0.508613 0.380453 0.102550
Si Si5 0.879952 0.016095 0.200054
Si Si6 0.698202 0.824510 0.928825
Si Si7 0.934483 0.438981 0.338876
O O1 0.986525 0.791883 0.433920
O O2 0.883568 0.691682 0.175661
O O3 0.000000 0.699257 0.250000
O O4 0.026295 0.643023 0.544006
O O5 0.774158 0.510525 0.300070
O O6 0.688745 0.505551 0.340092
O O7 0.750387 0.379239 0.366913
O O8 0.643482 0.457100 0.001709
O O9 0.325101 0.119263 0.248051
O O10 0.405599 0.055593 0.620571
O O11 0.373690 0.973387 0.321124
O O12 0.500000 0.380872 0.250000
O O13 0.581626 0.431406 0.224017
O O14 0.439266 0.424551 0.888379
O O15 0.750000 0.750000 0.000000
O O16 0.000000 0.500000 0.500000
#
# Coordination Sequence:
#
# PCOD9290280 Si02
#       7
#     8   8   8   8   8   8   8
#     4  11  24  41  67  94 136 175 218 275 338 389
#     4  12  22  41  65  93 132 172 219 265 333 401
#     4  12  24  41  66  99 131 175 224 271 331 408
#     4  10  22  41  64  96 129 168 222 274 331 385
#     4  11  22  39  68  95 124 175 221 271 323 404
#     4  12  26  43  65 101 138 176 220 281 342 392
#     4  12  22  41  67  94 128 169 223 271 322 392
#
# _framework density 18.889279999999999
#
# number of rings (size 3 to 8) (size 9 to 14) (size 15 to 20)
#    0.000    0.571    5.714    3.000    0.000    1.143 
#    0.000    1.429    0.000    6.000    0.000    0.000 
#    0.000    0.000    0.000    0.000    0.000    0.000 
#
# Total GULP energy -156319.539792 kJ/mol
# GULP energy per Si atom -5582.840707 kJ/mol
# Density = 1.884629 g / cm^3
# Si number density = 18.889280 Si / 1000 Ang^3
#
#
#
# Elastic Constant Matrix: (Units=GPa)
#
#
# Indices 1 2 3 4 5 6 
#
# 1 105.3761 43.3135 22.1780 0.0000 10.1564 0.0000
# 2 43.3135 144.9330 69.4513 0.0000 -4.8173 0.0000
# 3 22.1780 69.4513 121.6782 0.0000 -8.2564 0.0000
# 4 0.0000 0.0000 0.0000 25.8872 0.0000 -0.5846
# 5 10.1564 -4.8173 -8.2564 0.0000 26.0160 0.0000
# 6 0.0000 0.0000 0.0000 -0.5846 0.0000 16.7973
#
#
#
# Elastic Compliance Matrix: (Units=1/GPa)
#
#
# Indices 1 2 3 4 5 6 
#
# 1 0.011489 -0.003350 -0.000540 0.000000 -0.005277 0.000000
# 2 -0.003350 0.010474 -0.005261 0.000000 0.001578 0.000000
# 3 -0.000540 -0.005261 0.011516 0.000000 0.002891 0.000000
# 4 0.000000 0.000000 0.000000 0.038659 0.000000 0.001345
# 5 -0.005277 0.001578 0.002891 0.000000 0.041708 0.000000
# 6 0.000000 0.000000 0.000000 0.001345 0.000000 0.059580
#
#
# Mechanical properties :
#
#
# Convention : Reuss Voigt Hill
#
# Bulk Modulus (GPa) = 65.88790 71.31920 68.60355
# Shear Modulus (GPa) = 25.40810 29.54307 27.47559
#
# Velocity S-wave (km/s) = 3.67155 3.95905 3.81801
# Velocity P-wave (km/s) = 7.27534 7.66402 7.47221
#
# Compressibility (1/GPa) = 0.01517729
#
# Stress axis : x y z
#
# Youngs Moduli (GPa) = 87.03887 95.47097 86.83731
#
# Poissons Ratio (x) = 0.31985 0.04689
# Poissons Ratio (y) = 0.29160 0.45684
# Poissons Ratio (z) = 0.04699 0.50226
#
# Static dielectric constant tensor:
#      x y z
#    x 1.618080 0.000000 -0.046110 
#    y 0.000000 1.634290 0.000000 
#    z -0.046110 0.000000 1.617360 
# 
# From -- ./inp_files/67187.got.cif
#   From: 2010.05.17/outbox.cif.g08.bks.cpg/sg15_34_cif.got.tgz:67187.got - 2010.06.03 18:47:42.
