data_PCOD9290088
_publ_section_title
;
Structure prediction by ZEFSAII (Michael W. Deem and Ramdas Pophale) SiO2 
 PCOD9290088
Probable space group: C 2/C
;
_chemical_formula_sum "Si O2"
_cell_formula_units_Z 36
_cell_length_a 7.306201
_cell_length_b 12.348938
_cell_length_c 22.601433
_cell_angle_alpha 90.000000
_cell_angle_beta 116.679578
_cell_angle_gamma 90.000000
_cell_volume 1822.078404
_symmetry_space_group_name_H-M "C 2/C"
_symmetry_group_IT_number 15
_symmetry_cell_setting 'monoclinic'
loop_
_space_group_symop_operation_xyz
x,y,z
-x,y,1/2-z
-x,-y,-z
x,-y,1/2+z
1/2+x,1/2+y,z
1/2-x,1/2+y,1/2-z
1/2-x,1/2-y,-z
1/2+x,1/2-y,1/2+z
loop_
_atom_site_type_symbol
_atom_site_label
_atom_site_fract_x
_atom_site_fract_y
_atom_site_fract_z
Si Si1 0.000000 0.228692 0.250000
Si Si2 0.488460 0.276813 0.525058
Si Si3 0.994425 0.910495 0.861269
Si Si4 0.160129 0.115107 0.936822
Si Si5 0.122913 0.119065 0.707345
O O1 0.931801 0.155043 0.184958
O O2 0.183691 0.305672 0.256346
O O3 0.572275 0.328434 0.597934
O O4 0.619994 0.170510 0.528586
O O5 0.536787 0.360580 0.479009
O O6 0.250000 0.250000 0.500000
O O7 0.832158 0.999360 0.813273
O O8 0.159288 0.989727 0.917066
O O9 0.027521 0.168084 0.864385
O O10 0.000000 0.104624 0.750000
#
# Coordination Sequence:
#
# PCOD9290088 Si02
#       5
#     4   8   8   8   8
#     4  12  22  42  66  86 120 166 196 240 308 356
#     4  11  21  39  65  86 119 163 198 242 301 357
#     4  10  22  41  61  90 122 154 203 247 294 360
#     4   9  22  41  56  91 125 147 200 255 286 349
#     4  10  22  43  58  90 125 150 202 250 291 359
#
# _framework density 19.757655
#
# number of rings (size 3 to 8) (size 9 to 14) (size 15 to 20)
#    1.333    0.444    1.111    3.333    0.000    0.889 
#    6.000    6.667    0.000    0.000    0.000    0.000 
#    0.000    0.000    0.000    0.000    0.000    0.000 
#
# Total GULP energy -100223.364993 kJ/mol
# GULP energy per Si atom -5567.964722 kJ/mol
# Density = 1.971269 g / cm^3
# Si number density = 19.757655 Si / 1000 Ang^3
#
#
#
# Elastic Constant Matrix: (Units=GPa)
#
#
# Indices 1 2 3 4 5 6 
#
# 1 103.1593 39.2192 33.3572 0.0000 -11.4408 0.0000
# 2 39.2192 87.8723 18.0910 0.0000 -12.4062 0.0000
# 3 33.3572 18.0910 97.0714 0.0000 -41.9237 0.0000
# 4 0.0000 0.0000 0.0000 3.9576 0.0000 -8.9289
# 5 -11.4408 -12.4062 -41.9237 0.0000 30.8338 0.0000
# 6 0.0000 0.0000 0.0000 -8.9289 0.0000 11.2110
#
#
#
# Elastic Compliance Matrix: (Units=1/GPa)
#
#
# Indices 1 2 3 4 5 6 
#
# 1 0.012988 -0.005342 -0.005607 0.000000 -0.004954 0.000000
# 2 -0.005342 0.014268 0.001938 0.000000 0.006394 0.000000
# 3 -0.005607 0.001938 0.027389 0.000000 0.035939 0.000000
# 4 0.000000 0.000000 0.000000 -0.317070 0.000000 -0.252529
# 5 -0.004954 0.006394 0.035939 0.000000 0.082031 0.000000
# 6 0.000000 0.000000 0.000000 -0.252529 0.000000 -0.111928
#
#
# Mechanical properties :
#
#
# Convention : Reuss Voigt Hill
#
# Bulk Modulus (GPa) = 27.30563 52.15976 39.73269
# Shear Modulus (GPa) = -19.07735 22.36285 1.64275
#
# Velocity S-wave (km/s) = -3.11073 3.36796 0.91283
# Velocity P-wave (km/s) = 0.97370 6.44835 4.61137
#
# Compressibility (1/GPa) = 0.03662249
#
# Stress axis : x y z
#
# Youngs Moduli (GPa) = 76.99179 70.08644 36.51115
#
# Poissons Ratio (x) = 0.37440 0.20473
# Poissons Ratio (y) = 0.41129 -0.07075
# Poissons Ratio (z) = 0.43172 -0.13582
#
# Static dielectric constant tensor:
#      x y z
#    x 1.663600 0.000000 0.012430 
#    y 0.000000 1.728860 0.000000 
#    z 0.012430 0.000000 1.704330 
# 
# From -- ./inp_files/260027.got.cif
#   From: 2010.05.17/outbox.cif.g08.bks.cpg/sg15_131_cif.got.tgz:260027.got - 2010.06.03 18:47:42.
