data_PCOD9290450
_publ_section_title
;
Structure prediction by ZEFSAII (Michael W. Deem and Ramdas Pophale) SiO2 
 PCOD9290450
Probable space group: C 2/C
;
_chemical_formula_sum "Si O2"
_cell_formula_units_Z 40
_cell_length_a 11.740641
_cell_length_b 26.396082
_cell_length_c 11.612380
_cell_angle_alpha 90.000000
_cell_angle_beta 27.251843
_cell_angle_gamma 90.000000
_cell_volume 1647.879845
_symmetry_space_group_name_H-M "C 2/C"
_symmetry_group_IT_number 15
_symmetry_cell_setting 'monoclinic'
loop_
_space_group_symop_operation_xyz
x,y,z
-x,y,1/2-z
-x,-y,-z
x,-y,1/2+z
1/2+x,1/2+y,z
1/2-x,1/2+y,1/2-z
1/2-x,1/2-y,-z
1/2+x,1/2-y,1/2+z
loop_
_atom_site_type_symbol
_atom_site_label
_atom_site_fract_x
_atom_site_fract_y
_atom_site_fract_z
Si Si1 0.282750 0.777501 0.197891
Si Si2 0.090851 0.077828 0.355202
Si Si3 0.500000 0.202443 0.750000
Si Si4 0.259741 0.978460 0.148754
Si Si5 0.558657 0.876615 0.572425
Si Si6 0.500000 0.349210 0.750000
O O1 0.354117 0.775262 0.270069
O O2 0.006282 0.754209 0.436385
O O3 0.297419 0.834472 0.132074
O O4 0.319977 0.105311 0.212824
O O5 0.922847 0.049289 0.598270
O O6 0.949875 0.119240 0.409778
O O7 0.161499 0.033179 0.201550
O O8 0.733449 0.176652 0.475122
O O9 0.312713 0.931613 0.017649
O O10 0.500000 0.000000 0.000000
O O11 0.500000 0.854191 0.750000
#
# Coordination Sequence:
#
# PCOD9290450 Si02
#       6
#     8   8   4   8   8   4
#     4  12  27  48  75 105 139 182 243 302 367 427
#     4  10  22  41  66 105 139 189 234 291 348 425
#     4  12  24  47  74 110 140 186 228 303 374 426
#     4   9  21  41  66  99 142 184 242 281 351 415
#     4  11  25  45  69  98 143 191 237 294 350 432
#     4  12  24  39  78 106 150 178 230 295 364 424
#
# _framework density 24.273614999999999
#
# number of rings (size 3 to 8) (size 9 to 14) (size 15 to 20)
#    0.000    1.200    2.000    3.000    5.600    6.400 
#    0.000    0.000    0.000    0.000    0.000    0.000 
#    0.000    0.000    0.000    0.000    0.000    0.000 
#
# Total GULP energy -111483.103299 kJ/mol
# GULP energy per Si atom -5574.155165 kJ/mol
# Density = 2.421837 g / cm^3
# Si number density = 24.273615 Si / 1000 Ang^3
#
#
#
# Elastic Constant Matrix: (Units=GPa)
#
#
# Indices 1 2 3 4 5 6 
#
# 1 61.3471 21.0161 -3.1313 -0.0001 13.3625 0.0000
# 2 21.0161 103.4833 27.0290 0.0000 11.8392 0.0000
# 3 -3.1313 27.0290 70.0503 -0.0002 0.5219 -0.0001
# 4 -0.0001 0.0000 -0.0002 45.1793 0.0001 15.5132
# 5 13.3625 11.8392 0.5219 0.0001 30.6502 0.0000
# 6 0.0000 0.0000 -0.0001 15.5132 0.0000 -15.1546
#
#
#
# Elastic Compliance Matrix: (Units=1/GPa)
#
#
# Indices 1 2 3 4 5 6 
#
# 1 0.019214 -0.003716 0.002345 0.000000 -0.006981 0.000000
# 2 -0.003716 0.012001 -0.004775 0.000000 -0.002934 0.000000
# 3 0.002345 -0.004775 0.016219 0.000000 0.000546 0.000000
# 4 0.000000 0.000000 0.000000 0.016377 0.000000 0.016765
# 5 -0.006981 -0.002934 0.000546 0.000000 0.036794 0.000000
# 6 0.000000 0.000000 0.000000 0.016765 0.000000 -0.048825
#
#
# Mechanical properties :
#
#
# Convention : Reuss Voigt Hill
#
# Bulk Modulus (GPa) = 28.45636 36.07869 32.26753
# Shear Modulus (GPa) = 65.97554 24.79945 45.38750
#
# Velocity S-wave (km/s) = 5.21909 3.19981 4.32884
# Velocity P-wave (km/s) = 6.93305 5.34297 6.18929
#
# Compressibility (1/GPa) = 0.03514152
#
# Stress axis : x y z
#
# Youngs Moduli (GPa) = 52.04549 83.32734 61.65775
#
# Poissons Ratio (x) = 0.30963 -0.14457
# Poissons Ratio (y) = 0.19339 0.29440
# Poissons Ratio (z) = -0.12203 0.39787
#
# Static dielectric constant tensor:
#      x y z
#    x 1.903800 0.000000 -0.019870 
#    y 0.000000 2.030060 0.000000 
#    z -0.019870 0.000000 2.025080 
# 
# From -- ./inp_files/92223.got.cif
#   From: 2010.05.17/outbox.cif.g08.bks.cpg/sg15_47_cif.got.tgz:92223.got - 2010.06.03 18:47:42.
