data_PCOD9290965
_publ_section_title
;
Structure prediction by ZEFSAII (Michael W. Deem and Ramdas Pophale) SiO2 
 PCOD9290965
Probable space group: C 2/C
;
_chemical_formula_sum "Si O2"
_cell_formula_units_Z 56
_cell_length_a 9.643246
_cell_length_b 17.860961
_cell_length_c 16.099591
_cell_angle_alpha 90.000000
_cell_angle_beta 65.619817
_cell_angle_gamma 90.000000
_cell_volume 2525.681382
_symmetry_space_group_name_H-M "C 2/C"
_symmetry_group_IT_number 15
_symmetry_cell_setting 'monoclinic'
loop_
_space_group_symop_operation_xyz
x,y,z
-x,y,1/2-z
-x,-y,-z
x,-y,1/2+z
1/2+x,1/2+y,z
1/2-x,1/2+y,1/2-z
1/2-x,1/2-y,-z
1/2+x,1/2-y,1/2+z
loop_
_atom_site_type_symbol
_atom_site_label
_atom_site_fract_x
_atom_site_fract_y
_atom_site_fract_z
Si Si1 0.456794 0.647726 0.088730
Si Si2 0.609294 0.183545 0.863772
Si Si3 0.330936 0.054610 0.755702
Si Si4 0.286850 0.161643 0.997518
Si Si5 0.986634 0.992648 0.156248
Si Si6 0.249370 0.894034 0.009051
Si Si7 0.067542 0.445844 0.911446
O O1 0.419959 0.728593 0.136926
O O2 0.625044 0.632728 0.010887
O O3 0.455189 0.581105 0.155166
O O4 0.349015 0.645141 0.036354
O O5 0.688970 0.139828 0.770521
O O6 0.693463 0.157729 0.928111
O O7 0.439088 0.148230 0.908573
O O8 0.500000 0.045949 0.750000
O O9 0.174069 0.037346 0.840891
O O10 0.340576 0.996080 0.675744
O O11 0.332927 0.121385 0.073291
O O12 0.250000 0.250000 0.000000
O O13 0.000000 0.970966 0.250000
O O14 0.137209 0.959400 0.073132
O O15 0.404441 0.915772 0.921582
O O16 0.000000 0.500000 0.000000
#
# Coordination Sequence:
#
# PCOD9290965 Si02
#       7
#     8   8   8   8   8   8   8
#     4  11  23  38  67  98 125 162 230 271 313 387
#     4  10  22  42  62  89 134 169 208 270 338 379
#     4  12  25  40  65  93 133 175 216 258 334 405
#     4   9  19  35  62  97 119 156 210 270 319 364
#     4  12  24  41  64  96 134 170 213 273 336 390
#     4  11  22  40  69  94 124 166 220 276 317 381
#     4  11  19  40  67  88 124 168 217 266 310 381
#
# _framework density 22.172235000000001
#
# number of rings (size 3 to 8) (size 9 to 14) (size 15 to 20)
#    0.000    1.143    4.286    3.429    2.000    0.571 
#    0.000    0.000   12.571    0.000    0.000    0.000 
#    0.000    0.000    0.000    0.000    0.000    0.000 
#
# Total GULP energy -155942.563672 kJ/mol
# GULP energy per Si atom -5569.377274 kJ/mol
# Density = 2.212177 g / cm^3
# Si number density = 22.172235 Si / 1000 Ang^3
#
#
#
# Elastic Constant Matrix: (Units=GPa)
#
#
# Indices 1 2 3 4 5 6 
#
# 1 158.6397 25.4822 7.7045 0.0000 -22.4922 0.0000
# 2 25.4822 131.9938 28.7195 0.0000 -8.1484 0.0000
# 3 7.7045 28.7195 31.6134 0.0000 -9.6049 0.0000
# 4 0.0000 0.0000 0.0000 18.7357 0.0000 -2.3478
# 5 -22.4922 -8.1484 -9.6049 0.0000 21.9463 0.0000
# 6 0.0000 0.0000 0.0000 -2.3478 0.0000 34.3111
#
#
#
# Elastic Compliance Matrix: (Units=1/GPa)
#
#
# Indices 1 2 3 4 5 6 
#
# 1 0.007577 -0.001366 0.001845 0.000000 0.008066 0.000000
# 2 -0.001366 0.009691 -0.008999 0.000000 -0.001741 0.000000
# 3 0.001845 -0.008999 0.044886 0.000000 0.018194 0.000000
# 4 0.000000 0.000000 0.000000 0.053836 0.000000 0.003684
# 5 0.008066 -0.001741 0.018194 0.000000 0.061149 0.000000
# 6 0.000000 0.000000 0.000000 0.003684 0.000000 0.029397
#
#
# Mechanical properties :
#
#
# Convention : Reuss Voigt Hill
#
# Bulk Modulus (GPa) = 22.16682 49.56216 35.86449
# Shear Modulus (GPa) = 20.95438 32.35466 26.65452
#
# Velocity S-wave (km/s) = 3.07754 3.82415 3.47098
# Velocity P-wave (km/s) = 4.75895 6.47307 5.68103
#
# Compressibility (1/GPa) = 0.04511247
#
# Stress axis : x y z
#
# Youngs Moduli (GPa) = 131.97769 103.19342 22.27867
#
# Poissons Ratio (x) = 0.14100 -0.04111
# Poissons Ratio (y) = 0.18033 0.20050
# Poissons Ratio (z) = -0.24353 0.92868
#
# Static dielectric constant tensor:
#      x y z
#    x 1.911130 0.000000 -0.020360 
#    y 0.000000 1.900740 0.000000 
#    z -0.020360 0.000000 1.895020 
# 
# From -- ./inp_files/190905.got.cif
#   From: 2010.05.17/outbox.cif.g08.bks.cpg/sg15_96_cif.got.tgz:190905.got - 2010.06.03 18:47:42.
