data_PCOD9290710
_publ_section_title
;
Structure prediction by ZEFSAII (Michael W. Deem and Ramdas Pophale) SiO2 
 PCOD9290710
Probable space group: C 2/C
;
_chemical_formula_sum "Si O2"
_cell_formula_units_Z 60
_cell_length_a 27.262950
_cell_length_b 13.721317
_cell_length_c 22.080437
_cell_angle_alpha 90.000000
_cell_angle_beta 18.068359
_cell_angle_gamma 90.000000
_cell_volume 2561.829091
_symmetry_space_group_name_H-M "C 2/C"
_symmetry_group_IT_number 15
_symmetry_cell_setting 'monoclinic'
loop_
_space_group_symop_operation_xyz
x,y,z
-x,y,1/2-z
-x,-y,-z
x,-y,1/2+z
1/2+x,1/2+y,z
1/2-x,1/2+y,1/2-z
1/2-x,1/2-y,-z
1/2+x,1/2-y,1/2+z
loop_
_atom_site_type_symbol
_atom_site_label
_atom_site_fract_x
_atom_site_fract_y
_atom_site_fract_z
Si Si1 0.776448 0.291400 0.402830
Si Si2 0.124719 0.866070 0.806683
Si Si3 0.500095 0.809381 0.975418
Si Si4 0.934522 0.963094 0.203911
Si Si5 0.500000 0.566292 0.250000
Si Si6 0.349715 0.724718 0.043920
Si Si7 0.924825 0.412445 0.901496
Si Si8 0.542395 0.074352 0.541759
O O1 0.750000 0.250000 0.500000
O O2 0.783364 0.199421 0.350718
O O3 0.632994 0.366634 0.562285
O O4 0.939926 0.348992 0.201512
O O5 0.268891 0.906447 0.678081
O O6 0.027473 0.949389 0.886834
O O7 0.012600 0.790215 0.971235
O O8 0.361122 0.792431 0.090642
O O9 0.669606 0.804864 0.743925
O O10 0.487830 0.898086 0.037392
O O11 0.761068 0.932004 0.386631
O O12 0.052131 0.873166 0.062236
O O13 0.928956 0.002419 0.279147
O O14 0.434753 0.795949 0.896642
O O15 0.000000 0.446315 0.750000
O O16 0.984603 0.473182 0.890196
#
# Coordination Sequence:
#
# PCOD9290710 Si02
#       8
#     8   8   8   8   4   8   8   8
#     4  11  21  37  64 103 141 180 224 292 361 431
#     4  10  22  41  69 101 142 181 230 298 371 428
#     4  11  24  45  71 105 138 184 243 296 364 435
#     4  11  26  44  68 103 139 193 235 296 368 424
#     4  12  24  40  66 104 148 186 240 290 364 452
#     4  12  26  47  72  99 140 192 249 296 355 418
#     4  11  26  47  71 103 142 189 242 301 364 425
#     4  10  23  41  69 101 137 184 231 296 358 430
#
# _framework density 23.420767000000001
#
# number of rings (size 3 to 8) (size 9 to 14) (size 15 to 20)
#    0.000    1.067    4.000    1.600    4.667    4.800 
#    0.000    0.000    0.000    0.000    0.000    0.000 
#    0.000    0.000    0.000    0.000    0.000    0.000 
#
# Total GULP energy -167687.425927 kJ/mol
# GULP energy per Si atom -5589.580864 kJ/mol
# Density = 2.336746 g / cm^3
# Si number density = 23.420767 Si / 1000 Ang^3
#
#
#
# Elastic Constant Matrix: (Units=GPa)
#
#
# Indices 1 2 3 4 5 6 
#
# 1 63.3022 15.5548 -2.1251 -0.0008 -7.3970 -0.0002
# 2 15.5548 110.3991 13.1343 -0.0024 2.1318 0.0021
# 3 -2.1251 13.1343 56.1186 -0.0024 -8.0855 0.0007
# 4 -0.0008 -0.0024 -0.0024 20.2996 0.0021 0.6880
# 5 -7.3970 2.1318 -8.0855 0.0021 28.9959 -0.0010
# 6 -0.0002 0.0021 0.0007 0.6880 -0.0010 27.8207
#
#
#
# Elastic Compliance Matrix: (Units=1/GPa)
#
#
# Indices 1 2 3 4 5 6 
#
# 1 0.017144 -0.002757 0.002036 0.000000 0.005144 0.000000
# 2 -0.002757 0.009812 -0.002715 0.000001 -0.002182 -0.000001
# 3 0.002036 -0.002715 0.019416 0.000001 0.006133 0.000000
# 4 0.000000 0.000001 0.000001 0.049303 -0.000003 -0.001219
# 5 0.005144 -0.002182 0.006133 -0.000003 0.037670 0.000001
# 6 0.000000 -0.000001 0.000000 -0.001219 0.000001 0.035975
#
#
# Mechanical properties :
#
#
# Convention : Reuss Voigt Hill
#
# Bulk Modulus (GPa) = 25.31760 31.43866 28.37813
# Shear Modulus (GPa) = 26.40488 28.97363 27.68926
#
# Velocity S-wave (km/s) = 3.36134 3.52105 3.44212
# Velocity P-wave (km/s) = 5.08902 5.47567 5.28588
#
# Compressibility (1/GPa) = 0.03949822
#
# Stress axis : x y z
#
# Youngs Moduli (GPa) = 58.32904 101.91967 51.50502
#
# Poissons Ratio (x) = 0.28100 -0.10484
# Poissons Ratio (y) = 0.16082 0.13984
# Poissons Ratio (z) = -0.11873 0.27672
#
# Static dielectric constant tensor:
#      x y z
#    x 1.920020 0.000000 0.009110 
#    y 0.000000 1.930940 0.000000 
#    z 0.009110 0.000000 1.865450 
# 
# From -- ./inp_files/257858.got.cif
#   From: 2010.05.17/outbox.cif.g08.bks.cpg/sg15_129_cif.got.tgz:257858.got - 2010.06.03 18:47:42.
