data_PCOD9290447
_publ_section_title
;
Structure prediction by ZEFSAII (Michael W. Deem and Ramdas Pophale) SiO2 
 PCOD9290447
Probable space group: C 2/C
;
_chemical_formula_sum "Si O2"
_cell_formula_units_Z 52
_cell_length_a 24.637230
_cell_length_b 6.560272
_cell_length_c 15.340966
_cell_angle_alpha 90.000000
_cell_angle_beta 125.606568
_cell_angle_gamma 90.000000
_cell_volume 2015.928630
_symmetry_space_group_name_H-M "C 2/C"
_symmetry_group_IT_number 15
_symmetry_cell_setting 'monoclinic'
loop_
_space_group_symop_operation_xyz
x,y,z
-x,y,1/2-z
-x,-y,-z
x,-y,1/2+z
1/2+x,1/2+y,z
1/2-x,1/2+y,1/2-z
1/2-x,1/2-y,-z
1/2+x,1/2-y,1/2+z
loop_
_atom_site_type_symbol
_atom_site_label
_atom_site_fract_x
_atom_site_fract_y
_atom_site_fract_z
Si Si1 0.677455 0.320381 0.506087
Si Si2 0.339729 0.909700 0.818290
Si Si3 0.685845 0.415829 0.338500
Si Si4 0.241497 0.801525 0.129467
Si Si5 0.458487 0.741829 0.550167
Si Si6 0.500000 0.553914 0.250000
Si Si7 0.467211 0.154187 0.869177
O O1 0.645751 0.313769 0.380679
O O2 0.739580 0.174405 0.577937
O O3 0.710170 0.544537 0.532094
O O4 0.621776 0.289014 0.526006
O O5 0.343508 0.692683 0.772712
O O6 0.320723 0.832773 0.895842
O O7 0.274209 0.040369 0.729027
O O8 0.402063 0.034194 0.842187
O O9 0.698509 0.653332 0.339906
O O10 0.478887 0.591933 0.648643
O O11 0.485762 0.721586 0.475909
O O12 0.478519 0.974147 0.594214
O O13 0.541989 0.713789 0.227262
#
# Coordination Sequence:
#
# PCOD9290447 Si02
#       7
#     8   8   8   8   8   4   8
#     4  10  24  42  68 100 140 184 239 296 370 432
#     4  11  24  40  73 103 144 184 237 295 369 441
#     4  10  22  41  66 103 144 181 233 299 362 440
#     4  11  22  41  66 107 137 186 230 293 369 443
#     4  11  27  50  74 108 150 199 252 310 370 447
#     4  12  28  48  78 110 142 202 262 298 382 436
#     4  11  28  50  75 108 152 197 249 319 370 433
#
# _framework density 25.794564000000001
#
# number of rings (size 3 to 8) (size 9 to 14) (size 15 to 20)
#    0.000    1.231    1.538    2.308    8.615    4.923 
#    0.000    0.000    0.000    0.000    0.000    0.000 
#    0.000    0.000    0.000    0.000    0.000    0.000 
#
# Total GULP energy -144993.786025 kJ/mol
# GULP energy per Si atom -5576.684078 kJ/mol
# Density = 2.573585 g / cm^3
# Si number density = 25.794564 Si / 1000 Ang^3
#
#
#
# Elastic Constant Matrix: (Units=GPa)
#
#
# Indices 1 2 3 4 5 6 
#
# 1 108.7043 50.5681 28.7462 0.0000 -15.5209 0.0000
# 2 50.5681 99.1895 9.9384 0.0000 0.8423 0.0000
# 3 28.7462 9.9384 50.6893 0.0000 -17.1064 0.0000
# 4 0.0000 0.0000 0.0000 35.5574 0.0000 -12.3787
# 5 -15.5209 0.8423 -17.1064 0.0000 37.6361 0.0000
# 6 0.0000 0.0000 0.0000 -12.3787 0.0000 38.1677
#
#
#
# Elastic Compliance Matrix: (Units=1/GPa)
#
#
# Indices 1 2 3 4 5 6 
#
# 1 0.014339 -0.006777 -0.005618 0.000000 0.003512 0.000000
# 2 -0.006777 0.013546 0.000168 0.000000 -0.003022 0.000000
# 3 -0.005618 0.000168 0.026102 0.000000 0.009543 0.000000
# 4 0.000000 0.000000 0.000000 0.031703 0.000000 0.010282
# 5 0.003512 -0.003022 0.009543 0.000000 0.032424 0.000000
# 6 0.000000 0.000000 0.000000 0.010282 0.000000 0.029535
#
#
# Mechanical properties :
#
#
# Convention : Reuss Voigt Hill
#
# Bulk Modulus (GPa) = 33.86184 48.56539 41.21361
# Shear Modulus (GPa) = 27.48065 33.56093 30.52079
#
# Velocity S-wave (km/s) = 3.26754 3.61097 3.44354
# Velocity P-wave (km/s) = 5.23371 6.02114 5.64118
#
# Compressibility (1/GPa) = 0.02953177
#
# Stress axis : x y z
#
# Youngs Moduli (GPa) = 69.74041 73.82463 38.31165
#
# Poissons Ratio (x) = 0.50032 0.21523
# Poissons Ratio (y) = 0.47264 -0.00643
# Poissons Ratio (z) = 0.39179 -0.01238
#
# Static dielectric constant tensor:
#      x y z
#    x 2.129100 0.000000 0.012640 
#    y 0.000000 2.055580 0.000000 
#    z 0.012640 0.000000 2.109510 
# 
# From -- ./inp_files/221372.got.cif
#   From: 2010.05.17/outbox.cif.g08.bks.cpg/sg15_111_cif.got.tgz:221372.got - 2010.06.03 18:47:42.
