data_PCOD9290824
_publ_section_title
;
Structure prediction by ZEFSAII (Michael W. Deem and Ramdas Pophale) SiO2 
 PCOD9290824
Probable space group: C 2/C
;
_chemical_formula_sum "Si O2"
_cell_formula_units_Z 56
_cell_length_a 9.040570
_cell_length_b 17.871410
_cell_length_c 24.168798
_cell_angle_alpha 90.000000
_cell_angle_beta 139.657277
_cell_angle_gamma 90.000000
_cell_volume 2527.868025
_symmetry_space_group_name_H-M "C 2/C"
_symmetry_group_IT_number 15
_symmetry_cell_setting 'monoclinic'
loop_
_space_group_symop_operation_xyz
x,y,z
-x,y,1/2-z
-x,-y,-z
x,-y,1/2+z
1/2+x,1/2+y,z
1/2-x,1/2+y,1/2-z
1/2-x,1/2-y,-z
1/2+x,1/2-y,1/2+z
loop_
_atom_site_type_symbol
_atom_site_label
_atom_site_fract_x
_atom_site_fract_y
_atom_site_fract_z
Si Si1 0.454142 0.416322 0.403841
Si Si2 0.104079 0.326497 0.967316
Si Si3 0.858184 0.083853 0.375870
Si Si4 0.219791 0.929712 0.272734
Si Si5 0.916982 0.406018 0.817256
Si Si6 0.069492 0.685868 0.833997
Si Si7 0.236384 0.188080 0.449651
O O1 0.715536 0.393840 0.481522
O O2 0.390380 0.498878 0.403798
O O3 0.375788 0.420286 0.317214
O O4 0.312828 0.356399 0.399545
O O5 0.912775 0.347033 0.866392
O O6 0.976981 0.326353 0.989670
O O7 0.250000 0.250000 0.000000
O O8 0.743743 0.096479 0.282770
O O9 0.669444 0.112017 0.364889
O O10 0.104502 0.119723 0.438902
O O11 0.401437 0.861892 0.325368
O O12 0.000000 0.925971 0.250000
O O13 0.355704 0.008710 0.319198
O O14 0.087875 0.769672 0.860476
O O15 0.000000 0.683767 0.750000
O O16 0.250000 0.250000 0.500000
#
# Coordination Sequence:
#
# PCOD9290824 Si02
#       7
#     8   8   8   8   8   8   8
#     4  10  22  44  68  95 134 175 218 276 339 404
#     4  12  26  42  67  98 138 181 227 277 343 410
#     4  10  23  45  68  96 135 175 225 277 339 404
#     4  10  22  41  71 100 128 168 233 276 332 403
#     4  10  23  43  69  97 133 177 222 276 339 409
#     4  10  22  45  71  95 134 185 221 276 344 416
#     4  12  28  43  64  98 140 175 231 279 343 407
#
# _framework density 22.153055999999999
#
# number of rings (size 3 to 8) (size 9 to 14) (size 15 to 20)
#    0.000    1.429    2.857    0.857    8.000    2.286 
#    2.571    0.000    0.000    0.000    0.000    0.000 
#    0.000    0.000    0.000    0.000    0.000    0.000 
#
# Total GULP energy -156214.658340 kJ/mol
# GULP energy per Si atom -5579.094941 kJ/mol
# Density = 2.210263 g / cm^3
# Si number density = 22.153056 Si / 1000 Ang^3
#
#
#
# Elastic Constant Matrix: (Units=GPa)
#
#
# Indices 1 2 3 4 5 6 
#
# 1 120.4645 6.1693 17.1307 -0.0001 15.9605 -0.0001
# 2 6.1693 22.9380 -0.0772 -0.0001 -5.0880 -0.0001
# 3 17.1307 -0.0772 51.1491 -0.0001 -1.3858 0.0000
# 4 -0.0001 -0.0001 -0.0001 37.1897 -0.0001 5.8385
# 5 15.9605 -5.0880 -1.3858 -0.0001 32.6019 -0.0001
# 6 -0.0001 -0.0001 0.0000 5.8385 -0.0001 32.1802
#
#
#
# Elastic Compliance Matrix: (Units=1/GPa)
#
#
# Indices 1 2 3 4 5 6 
#
# 1 0.009711 -0.003843 -0.003407 0.000000 -0.005499 0.000000
# 2 -0.003843 0.046683 0.001608 0.000000 0.009235 0.000000
# 3 -0.003407 0.001608 0.020770 0.000000 0.002802 0.000000
# 4 0.000000 0.000000 0.000000 0.027678 0.000000 -0.005022
# 5 -0.005499 0.009235 0.002802 0.000000 0.034925 0.000000
# 6 0.000000 0.000000 0.000000 -0.005022 0.000000 0.031986
#
#
# Mechanical properties :
#
#
# Convention : Reuss Voigt Hill
#
# Bulk Modulus (GPa) = 15.17918 26.77748 20.97833
# Shear Modulus (GPa) = 24.39043 31.81628 28.10336
#
# Velocity S-wave (km/s) = 3.32173 3.79384 3.56560
# Velocity P-wave (km/s) = 4.64528 5.59506 5.14215
#
# Compressibility (1/GPa) = 0.06587970
#
# Stress axis : x y z
#
# Youngs Moduli (GPa) = 102.97534 21.42088 48.14605
#
# Poissons Ratio (x) = 0.08232 0.16404
# Poissons Ratio (y) = 0.39574 -0.07741
# Poissons Ratio (z) = 0.35086 -0.03444
#
# Static dielectric constant tensor:
#      x y z
#    x 1.789660 0.000000 0.006090 
#    y 0.000000 1.810250 0.000000 
#    z 0.006090 0.000000 1.934620 
# 
# From -- ./inp_files/289744.got.cif
#   From: 2010.05.17/outbox.cif.g08.bks.cpg/sg15_145_cif.got.tgz:289744.got - 2010.06.03 18:47:42.
