data_PCOD9290332
_publ_section_title
;
Structure prediction by ZEFSAII (Michael W. Deem and Ramdas Pophale) SiO2 
 PCOD9290332
Probable space group: C 2/C
;
_chemical_formula_sum "Si O2"
_cell_formula_units_Z 56
_cell_length_a 19.551280
_cell_length_b 23.216012
_cell_length_c 5.676671
_cell_angle_alpha 90.000000
_cell_angle_beta 53.940345
_cell_angle_gamma 90.000000
_cell_volume 2082.980953
_symmetry_space_group_name_H-M "C 2/C"
_symmetry_group_IT_number 15
_symmetry_cell_setting 'monoclinic'
loop_
_space_group_symop_operation_xyz
x,y,z
-x,y,1/2-z
-x,-y,-z
x,-y,1/2+z
1/2+x,1/2+y,z
1/2-x,1/2+y,1/2-z
1/2-x,1/2-y,-z
1/2+x,1/2-y,1/2+z
loop_
_atom_site_type_symbol
_atom_site_label
_atom_site_fract_x
_atom_site_fract_y
_atom_site_fract_z
Si Si1 0.000000 0.112700 0.750000
Si Si2 0.869567 0.217477 0.061099
Si Si3 0.191477 0.626068 0.206876
Si Si4 0.264920 0.513391 0.186932
Si Si5 0.590876 0.060095 0.056466
Si Si6 0.327586 0.684090 0.643841
Si Si7 0.424178 0.174831 0.720460
Si Si8 0.000000 0.890804 0.750000
O O1 0.076711 0.158574 0.573674
O O2 0.001146 0.078978 0.501750
O O3 0.815214 0.207506 0.407292
O O4 0.919234 0.275070 0.037233
O O5 0.834755 0.222743 0.867075
O O6 0.245991 0.580708 0.242871
O O7 0.112349 0.592046 0.257607
O O8 0.157666 0.674255 0.445970
O O9 0.248266 0.644623 0.872499
O O10 0.306876 0.494718 0.345887
O O11 0.174262 0.479004 0.346274
O O12 0.500000 0.028864 0.250000
O O13 0.578121 0.112150 0.897159
O O14 0.416614 0.649732 0.440784
O O15 0.500000 0.184911 0.750000
#
# Coordination Sequence:
#
# PCOD9290332 Si02
#       8
#     4   8   8   8   8   8   8   4
#     4   8  16  32  56  82 112 151 215 244 310 368
#     4  10  24  38  63  87 127 174 218 273 325 388
#     4  11  25  42  64  95 129 171 224 283 335 391
#     4  10  22  41  65  90 124 169 216 269 336 388
#     4  11  24  42  63  92 133 178 227 277 327 390
#     4  10  23  42  65  93 128 170 224 276 327 396
#     4  12  26  40  62  92 132 180 232 274 324 387
#     4   8  16  36  58  88 116 161 205 262 316 382
#
# _framework density 26.884550000000001
#
# number of rings (size 3 to 8) (size 9 to 14) (size 15 to 20)
#    0.000    1.714    2.857    0.000   11.000    4.000 
#    0.000    0.000    0.000    0.000    0.000    4.000 
#    0.000    0.000    0.000    0.000    0.000    0.000 
#
# Total GULP energy -156546.435287 kJ/mol
# GULP energy per Si atom -5590.944117 kJ/mol
# Density = 2.682336 g / cm^3
# Si number density = 26.884550 Si / 1000 Ang^3
#
#
#
# Elastic Constant Matrix: (Units=GPa)
#
#
# Indices 1 2 3 4 5 6 
#
# 1 97.8907 20.3958 52.5528 0.0000 18.5998 0.0000
# 2 20.3958 55.4173 35.2893 0.0000 0.9810 0.0000
# 3 52.5528 35.2893 185.4322 0.0000 47.6744 0.0000
# 4 0.0000 0.0000 0.0000 14.3471 0.0000 9.2347
# 5 18.5998 0.9810 47.6744 0.0000 62.2105 0.0000
# 6 0.0000 0.0000 0.0000 9.2347 0.0000 31.0348
#
#
#
# Elastic Compliance Matrix: (Units=1/GPa)
#
#
# Indices 1 2 3 4 5 6 
#
# 1 0.012528 -0.002966 -0.002534 0.000000 -0.001757 0.000000
# 2 -0.002966 0.021803 -0.004295 0.000000 0.003834 0.000000
# 3 -0.002534 -0.004295 0.008364 0.000000 -0.005584 0.000000
# 4 0.000000 0.000000 0.000000 0.086213 0.000000 -0.025653
# 5 -0.001757 0.003834 -0.005584 0.000000 0.020819 0.000000
# 6 0.000000 0.000000 0.000000 -0.025653 0.000000 0.039855
#
#
# Mechanical properties :
#
#
# Convention : Reuss Voigt Hill
#
# Bulk Modulus (GPa) = 43.27935 61.69066 52.48501
# Shear Modulus (GPa) = 23.05498 36.88531 29.97015
#
# Velocity S-wave (km/s) = 2.93158 3.70806 3.34244
# Velocity P-wave (km/s) = 5.25281 6.42878 5.87032
#
# Compressibility (1/GPa) = 0.02310571
#
# Stress axis : x y z
#
# Youngs Moduli (GPa) = 79.82264 45.86474 119.55893
#
# Poissons Ratio (x) = 0.13602 0.30302
# Poissons Ratio (y) = 0.23673 0.51345
# Poissons Ratio (z) = 0.20231 0.19697
#
# Static dielectric constant tensor:
#      x y z
#    x 2.090800 0.000000 -0.019620 
#    y 0.000000 2.091280 0.000000 
#    z -0.019620 0.000000 2.134140 
# 
# From -- ./inp_files/16438.got.cif
#   From: 2010.05.17/outbox.cif.g08.bks.cpg/sg15_9_cif.got.tgz:16438.got - 2010.06.03 18:47:42.
