data_PCOD9290924
_publ_section_title
;
Structure prediction by ZEFSAII (Michael W. Deem and Ramdas Pophale) SiO2 
 PCOD9290924
Probable space group: C 2/C
;
_chemical_formula_sum "Si O2"
_cell_formula_units_Z 56
_cell_length_a 5.407477
_cell_length_b 29.510122
_cell_length_c 17.158824
_cell_angle_alpha 90.000000
_cell_angle_beta 83.061855
_cell_angle_gamma 90.000000
_cell_volume 2718.073687
_symmetry_space_group_name_H-M "C 2/C"
_symmetry_group_IT_number 15
_symmetry_cell_setting 'monoclinic'
loop_
_space_group_symop_operation_xyz
x,y,z
-x,y,1/2-z
-x,-y,-z
x,-y,1/2+z
1/2+x,1/2+y,z
1/2-x,1/2+y,1/2-z
1/2-x,1/2-y,-z
1/2+x,1/2-y,1/2+z
loop_
_atom_site_type_symbol
_atom_site_label
_atom_site_fract_x
_atom_site_fract_y
_atom_site_fract_z
Si Si1 0.230936 0.215257 0.801008
Si Si2 0.708114 0.520546 0.087523
Si Si3 0.948776 0.611604 0.062048
Si Si4 0.500000 0.516114 0.750000
Si Si5 0.231119 0.679782 0.300767
Si Si6 0.000000 0.575015 0.750000
Si Si7 0.867419 0.069871 0.974116
Si Si8 0.242412 0.372622 0.105547
O O1 0.500000 0.208154 0.750000
O O2 0.230598 0.267633 0.827304
O O3 0.204943 0.178208 0.869518
O O4 0.000000 0.209094 0.750000
O O5 0.903718 0.560281 0.094790
O O6 0.541288 0.512850 0.170047
O O7 0.799366 0.470493 0.057232
O O8 0.551149 0.542652 0.023529
O O9 0.833104 0.646196 0.126751
O O10 0.841601 0.622547 0.980373
O O11 0.240338 0.608483 0.031281
O O12 0.246440 0.544767 0.750670
O O13 0.500000 0.670755 0.250000
O O14 0.000000 0.675027 0.250000
O O15 0.044711 0.606234 0.672828
O O16 0.014981 0.095256 0.900558
#
# Coordination Sequence:
#
# PCOD9290924 Si02
#       8
#     8   8   8   4   8   4   8   8
#     4  10  23  43  70 101 133 176 216 273 343 397
#     4  10  23  39  61  91 128 176 221 270 329 384
#     4  11  25  40  69  95 134 182 223 278 334 396
#     4  12  26  40  64  95 128 175 230 278 322 396
#     4  10  25  48  71  98 137 174 224 281 331 400
#     4  12  26  42  64  99 134 171 222 286 328 398
#     4  10  22  42  60  93 134 173 217 277 331 389
#     4  11  24  40  69 100 133 175 223 274 344 401
#
# _framework density 20.602824999999999
#
# number of rings (size 3 to 8) (size 9 to 14) (size 15 to 20)
#    0.000    1.429    2.143    1.286   10.000    0.571 
#    0.000    0.714    0.000    0.000    0.000    0.000 
#    0.000    0.000    0.000    0.000    0.000    0.000 
#
# Total GULP energy -156221.090035 kJ/mol
# GULP energy per Si atom -5579.324644 kJ/mol
# Density = 2.055593 g / cm^3
# Si number density = 20.602825 Si / 1000 Ang^3
#
#
#
# Elastic Constant Matrix: (Units=GPa)
#
#
# Indices 1 2 3 4 5 6 
#
# 1 90.6139 36.8169 27.3137 0.0000 -19.9853 0.0000
# 2 36.8169 120.1199 88.4070 0.0000 -16.1414 0.0000
# 3 27.3137 88.4070 128.9675 0.0000 -28.3611 0.0000
# 4 0.0000 0.0000 0.0000 -31.5817 0.0000 72.3771
# 5 -19.9853 -16.1414 -28.3611 0.0000 25.1677 0.0000
# 6 0.0000 0.0000 0.0000 72.3771 0.0000 -66.3183
#
#
#
# Elastic Compliance Matrix: (Units=1/GPa)
#
#
# Indices 1 2 3 4 5 6 
#
# 1 0.014846 -0.005171 0.003010 0.000000 0.011864 0.000000
# 2 -0.005171 0.018767 -0.013329 0.000000 -0.007090 0.000000
# 3 0.003010 -0.013329 0.019808 0.000000 0.016162 0.000000
# 4 0.000000 0.000000 0.000000 0.021094 0.000000 0.023021
# 5 0.011864 -0.007090 0.016162 0.000000 0.062821 0.000000
# 6 0.000000 0.000000 0.000000 0.023021 0.000000 0.010045
#
#
# Mechanical properties :
#
#
# Convention : Reuss Voigt Hill
#
# Bulk Modulus (GPa) = 44.56248 71.64184 58.10216
# Shear Modulus (GPa) = 26.90463 -2.06889 12.41787
#
# Velocity S-wave (km/s) = 3.61760 -1.00317 2.45771
# Velocity P-wave (km/s) = 6.25505 5.78848 6.02628
#
# Compressibility (1/GPa) = 0.02244041
#
# Stress axis : x y z
#
# Youngs Moduli (GPa) = 67.35610 53.28460 50.48560
#
# Poissons Ratio (x) = 0.27555 -0.15194
# Poissons Ratio (y) = 0.34831 0.67291
# Poissons Ratio (z) = -0.20272 0.71022
#
# Static dielectric constant tensor:
#      x y z
#    x 1.828200 0.000000 0.001480 
#    y 0.000000 1.745020 0.000000 
#    z 0.001480 0.000000 1.725860 
# 
# From -- ./inp_files/186163.got.cif
#   From: 2010.05.17/outbox.cif.g08.bks.cpg/sg15_94_cif.got.tgz:186163.got - 2010.06.03 18:47:42.
