data_PCOD9290547
_publ_section_title
;
Structure prediction by ZEFSAII (Michael W. Deem and Ramdas Pophale) SiO2 
 PCOD9290547
Probable space group: C 2/C
;
_chemical_formula_sum "Si O2"
_cell_formula_units_Z 40
_cell_length_a 5.271675
_cell_length_b 28.593219
_cell_length_c 13.803334
_cell_angle_alpha 90.000000
_cell_angle_beta 75.844499
_cell_angle_gamma 90.000000
_cell_volume 2017.456675
_symmetry_space_group_name_H-M "C 2/C"
_symmetry_group_IT_number 15
_symmetry_cell_setting 'monoclinic'
loop_
_space_group_symop_operation_xyz
x,y,z
-x,y,1/2-z
-x,-y,-z
x,-y,1/2+z
1/2+x,1/2+y,z
1/2-x,1/2+y,1/2-z
1/2-x,1/2-y,-z
1/2+x,1/2-y,1/2+z
loop_
_atom_site_type_symbol
_atom_site_label
_atom_site_fract_x
_atom_site_fract_y
_atom_site_fract_z
Si Si1 0.000000 0.484909 0.750000
Si Si2 0.000000 0.797726 0.250000
Si Si3 0.500000 0.263611 0.750000
Si Si4 0.001797 0.399730 0.887932
Si Si5 0.370631 0.374271 0.415463
Si Si6 0.493237 0.348642 0.611464
Si Si7 0.500000 0.548114 0.750000
O O1 0.957046 0.450198 0.845394
O O2 0.247774 0.516275 0.754368
O O3 0.764194 0.766573 0.230562
O O4 0.862615 0.831503 0.341728
O O5 0.519816 0.297935 0.655223
O O6 0.298720 0.383108 0.858709
O O7 0.804499 0.365570 0.848936
O O8 0.892257 0.392854 0.007378
O O9 0.533880 0.354904 0.492289
O O10 0.477988 0.417843 0.344943
#
# Coordination Sequence:
#
# PCOD9290547 Si02
#       7
#     4   4   4   8   8   8   4
#     4  12  24  40  66  97 124 155 222 258 302 354
#     4  11  26  41  64  93 128 167 202 265 300 375
#     4  12  24  40  66  97 124 155 222 258 302 354
#     4  10  22  41  67  88 125 168 203 254 311 373
#     4   9  26  44  64  86 134 168 206 239 336 362
#     4  10  22  41  67  88 125 168 203 254 311 373
#     4  11  26  41  64  93 128 167 202 265 300 375
#
# _framework density 19.826944000000001
#
# number of rings (size 3 to 8) (size 9 to 14) (size 15 to 20)
#    1.200    0.400    0.000    3.600    5.600    4.800 
#    0.000    0.000    0.000    0.000    0.000    0.000 
#    0.000    0.000    0.000    0.000    0.000    0.000 
#
# Total GULP energy -111440.120027 kJ/mol
# GULP energy per Si atom -5572.006001 kJ/mol
# Density = 1.978182 g / cm^3
# Si number density = 19.826944 Si / 1000 Ang^3
#
#
#
# Elastic Constant Matrix: (Units=GPa)
#
#
# Indices 1 2 3 4 5 6 
#
# 1 117.0333 60.6549 34.5394 0.0000 4.6878 0.0000
# 2 60.6549 142.5726 55.4977 0.0000 3.4002 0.0000
# 3 34.5394 55.4977 123.9406 0.0000 -1.4742 0.0000
# 4 0.0000 0.0000 0.0000 9.2882 0.0000 9.4900
# 5 4.6878 3.4002 -1.4742 0.0000 24.8230 0.0000
# 6 0.0000 0.0000 0.0000 9.4900 0.0000 16.9142
#
#
#
# Elastic Compliance Matrix: (Units=1/GPa)
#
#
# Indices 1 2 3 4 5 6 
#
# 1 0.011166 -0.004231 -0.001236 0.000000 -0.001603 0.000000
# 2 -0.004231 0.010146 -0.003373 0.000000 -0.000791 0.000000
# 3 -0.001236 -0.003373 0.009939 0.000000 0.001286 0.000000
# 4 0.000000 0.000000 0.000000 0.252292 0.000000 -0.141553
# 5 -0.001603 -0.000791 0.001286 0.000000 0.040773 0.000000
# 6 0.000000 0.000000 0.000000 -0.141553 0.000000 0.138543
#
#
# Mechanical properties :
#
#
# Convention : Reuss Voigt Hill
#
# Bulk Modulus (GPa) = 73.69451 76.10338 74.89894
# Shear Modulus (GPa) = 10.30792 25.72870 18.01831
#
# Velocity S-wave (km/s) = 2.28259 3.60622 3.01787
# Velocity P-wave (km/s) = 6.64805 7.47040 7.07119
#
# Compressibility (1/GPa) = 0.01356953
#
# Stress axis : x y z
#
# Youngs Moduli (GPa) = 89.55363 98.56066 100.61612
#
# Poissons Ratio (x) = 0.41702 0.12439
# Poissons Ratio (y) = 0.37891 0.33942
# Poissons Ratio (z) = 0.11072 0.33249
#
# Static dielectric constant tensor:
#      x y z
#    x 1.670380 0.000000 -0.014540 
#    y 0.000000 1.659670 0.000000 
#    z -0.014540 0.000000 1.774190 
# 
# From -- ./inp_files/129102.got.cif
#   From: 2010.05.17/outbox.cif.g08.bks.cpg/sg15_65_cif.got.tgz:129102.got - 2010.06.03 18:47:42.
