data_PCOD9290881
_publ_section_title
;
Structure prediction by ZEFSAII (Michael W. Deem and Ramdas Pophale) SiO2 
 PCOD9290881
Probable space group: C 2/C
;
_chemical_formula_sum "Si O2"
_cell_formula_units_Z 44
_cell_length_a 16.936960
_cell_length_b 10.700279
_cell_length_c 12.773129
_cell_angle_alpha 90.000000
_cell_angle_beta 128.273300
_cell_angle_gamma 90.000000
_cell_volume 1817.328910
_symmetry_space_group_name_H-M "C 2/C"
_symmetry_group_IT_number 15
_symmetry_cell_setting 'monoclinic'
loop_
_space_group_symop_operation_xyz
x,y,z
-x,y,1/2-z
-x,-y,-z
x,-y,1/2+z
1/2+x,1/2+y,z
1/2-x,1/2+y,1/2-z
1/2-x,1/2-y,-z
1/2+x,1/2-y,1/2+z
loop_
_atom_site_type_symbol
_atom_site_label
_atom_site_fract_x
_atom_site_fract_y
_atom_site_fract_z
Si Si1 0.441217 0.377356 0.984065
Si Si2 0.000000 0.343009 0.250000
Si Si3 0.863540 0.287046 0.834683
Si Si4 0.612826 0.766381 0.878888
Si Si5 0.811093 0.804678 0.684672
Si Si6 0.852138 0.483596 0.981123
O O1 0.356807 0.360822 0.828309
O O2 0.500000 0.500000 0.000000
O O3 0.527114 0.269716 0.052694
O O4 0.395856 0.361621 0.063055
O O5 0.905199 0.260273 0.208764
O O6 0.949160 0.426980 0.119181
O O7 0.834945 0.265961 0.690966
O O8 0.782573 0.223839 0.847023
O O9 0.862512 0.432639 0.870517
O O10 0.500000 0.799754 0.750000
O O11 0.650928 0.873736 0.988124
O O12 0.750564 0.910294 0.570288
#
# Coordination Sequence:
#
# PCOD9290881 Si02
#       6
#     8   4   8   8   8   8
#     4  11  24  46  68 101 147 190 232 304 368 437
#     4  12  20  44  72 104 150 190 248 302 382 422
#     4   9  23  46  68 110 141 182 253 295 365 442
#     4  10  22  44  74 105 141 193 246 304 368 427
#     4  10  23  44  68 105 144 189 237 305 357 454
#     4  10  22  41  73 109 139 192 242 307 360 446
#
# _framework density 24.211355999999999
#
# number of rings (size 3 to 8) (size 9 to 14) (size 15 to 20)
#    1.091    0.727    2.727    0.545    0.000    6.545 
#   11.455    0.000    0.000    0.000    0.000    0.000 
#    0.000    0.000    0.000    0.000    0.000    0.000 
#
# Total GULP energy -122702.885952 kJ/mol
# GULP energy per Si atom -5577.403907 kJ/mol
# Density = 2.415625 g / cm^3
# Si number density = 24.211356 Si / 1000 Ang^3
#
#
#
# Elastic Constant Matrix: (Units=GPa)
#
#
# Indices 1 2 3 4 5 6 
#
# 1 121.6928 31.3494 45.1932 0.0000 6.0500 0.0000
# 2 31.3494 64.0820 52.2571 0.0000 -12.8976 0.0000
# 3 45.1932 52.2571 130.3621 0.0000 7.7744 0.0000
# 4 0.0000 0.0000 0.0000 9.8925 0.0000 1.9653
# 5 6.0500 -12.8976 7.7744 0.0000 52.1417 0.0000
# 6 0.0000 0.0000 0.0000 1.9653 0.0000 26.8196
#
#
#
# Elastic Compliance Matrix: (Units=1/GPa)
#
#
# Indices 1 2 3 4 5 6 
#
# 1 0.009953 -0.003722 -0.001851 0.000000 -0.001799 0.000000
# 2 -0.003722 0.027589 -0.010293 0.000000 0.008791 0.000000
# 3 -0.001851 -0.010293 0.012691 0.000000 -0.004224 0.000000
# 4 0.000000 0.000000 0.000000 0.102580 0.000000 -0.007517
# 5 -0.001799 0.008791 -0.004224 0.000000 0.022192 0.000000
# 6 0.000000 0.000000 0.000000 -0.007517 0.000000 0.037837
#
#
# Mechanical properties :
#
#
# Convention : Reuss Voigt Hill
#
# Bulk Modulus (GPa) = 54.05332 63.74848 58.90090
# Shear Modulus (GPa) = 19.94089 30.25989 25.10039
#
# Velocity S-wave (km/s) = 2.87299 3.53912 3.22331
# Velocity P-wave (km/s) = 5.77750 6.56412 6.18333
#
# Compressibility (1/GPa) = 0.01850025
#
# Stress axis : x y z
#
# Youngs Moduli (GPa) = 100.47094 36.24640 78.79686
#
# Poissons Ratio (x) = 0.13489 0.14588
# Poissons Ratio (y) = 0.37391 0.81109
# Poissons Ratio (z) = 0.18601 0.37310
#
# Static dielectric constant tensor:
#      x y z
#    x 2.135260 0.000000 0.037000 
#    y 0.000000 1.965410 0.000000 
#    z 0.037000 0.000000 1.948320 
# 
# From -- ./inp_files/161113.got.cif
#   From: 2010.05.17/outbox.cif.g08.bks.cpg/sg15_81_cif.got.tgz:161113.got - 2010.06.03 18:47:42.
