data_PCOD9290127
_publ_section_title
;
Structure prediction by ZEFSAII (Michael W. Deem and Ramdas Pophale) SiO2 
 PCOD9290127
Probable space group: C 2/C
;
_chemical_formula_sum "Si O2"
_cell_formula_units_Z 48
_cell_length_a 15.123674
_cell_length_b 28.402176
_cell_length_c 8.668774
_cell_angle_alpha 90.000000
_cell_angle_beta 31.350248
_cell_angle_gamma 90.000000
_cell_volume 1937.286890
_symmetry_space_group_name_H-M "C 2/C"
_symmetry_group_IT_number 15
_symmetry_cell_setting 'monoclinic'
loop_
_space_group_symop_operation_xyz
x,y,z
-x,y,1/2-z
-x,-y,-z
x,-y,1/2+z
1/2+x,1/2+y,z
1/2-x,1/2+y,1/2-z
1/2-x,1/2-y,-z
1/2+x,1/2-y,1/2+z
loop_
_atom_site_type_symbol
_atom_site_label
_atom_site_fract_x
_atom_site_fract_y
_atom_site_fract_z
Si Si1 0.665189 0.857877 0.410882
Si Si2 0.531459 0.691984 0.879405
Si Si3 0.581679 0.219907 0.784310
Si Si4 0.841560 0.050861 0.649835
Si Si5 0.176059 0.471793 0.721360
Si Si6 0.375800 0.401515 0.587555
O O1 0.795957 0.835547 0.339527
O O2 0.617480 0.819762 0.355339
O O3 0.759284 0.902590 0.198511
O O4 0.500000 0.872860 0.750000
O O5 0.500000 0.705522 0.750000
O O6 0.385662 0.652414 0.131571
O O7 0.537713 0.739224 0.968148
O O8 0.500000 0.201218 0.750000
O O9 0.750000 0.250000 0.500000
O O10 0.026492 0.065609 0.435364
O O11 0.819089 0.006912 0.574156
O O12 0.726012 0.040039 0.972730
O O13 0.201942 0.424814 0.787116
O O14 0.000000 0.500000 0.000000
O O15 0.500000 0.400855 0.250000
#
# Coordination Sequence:
#
# PCOD9290127 Si02
#       6
#     8   8   8   8   8   8
#     4  11  24  44  69  96 133 180 229 277 335 413
#     4  10  22  42  69  97 130 181 229 270 334 415
#     4  12  26  46  66  99 141 173 221 286 350 407
#     4  10  22  41  62  91 127 169 217 266 324 393
#     4  11  20  37  61  92 128 163 213 271 317 377
#     4   8  18  38  63  89 124 170 216 260 316 393
#
# _framework density 24.776918999999999
#
# number of rings (size 3 to 8) (size 9 to 14) (size 15 to 20)
#    0.000    1.667    1.667    3.500    2.333    1.333 
#    3.000    0.000    0.000    0.000    0.000    0.000 
#    0.000    0.000    0.000    0.000    0.000    0.000 
#
# Total GULP energy -134433.251713 kJ/mol
# GULP energy per Si atom -5601.385488 kJ/mol
# Density = 2.472053 g / cm^3
# Si number density = 24.776919 Si / 1000 Ang^3
#
#
#
# Elastic Constant Matrix: (Units=GPa)
#
#
# Indices 1 2 3 4 5 6 
#
# 1 123.9968 46.5555 24.3408 0.0000 -7.3115 0.0000
# 2 46.5555 106.5899 9.9881 0.0000 2.7632 0.0000
# 3 24.3408 9.9881 59.6286 0.0000 -10.0262 0.0000
# 4 0.0000 0.0000 0.0000 27.0799 0.0000 -9.1736
# 5 -7.3115 2.7632 -10.0262 0.0000 22.3706 0.0000
# 6 0.0000 0.0000 0.0000 -9.1736 0.0000 45.0797
#
#
#
# Elastic Compliance Matrix: (Units=1/GPa)
#
#
# Indices 1 2 3 4 5 6 
#
# 1 0.010457 -0.004342 -0.003111 0.000000 0.002560 0.000000
# 2 -0.004342 0.011422 -0.000667 0.000000 -0.003129 0.000000
# 3 -0.003111 -0.000667 0.019461 0.000000 0.007788 0.000000
# 4 0.000000 0.000000 0.000000 0.039662 0.000000 0.008071
# 5 0.002560 -0.003129 0.007788 0.000000 0.049415 0.000000
# 6 0.000000 0.000000 0.000000 0.008071 0.000000 0.023825
#
#
# Mechanical properties :
#
#
# Convention : Reuss Voigt Hill
#
# Bulk Modulus (GPa) = 39.83955 50.22045 45.03000
# Shear Modulus (GPa) = 27.95664 32.86143 30.40903
#
# Velocity S-wave (km/s) = 3.36271 3.64578 3.50710
# Velocity P-wave (km/s) = 5.58492 6.16728 5.88331
#
# Compressibility (1/GPa) = 0.02510068
#
# Stress axis : x y z
#
# Youngs Moduli (GPa) = 95.63399 87.55180 51.38351
#
# Poissons Ratio (x) = 0.38015 0.15984
# Poissons Ratio (y) = 0.41524 0.03427
# Poissons Ratio (z) = 0.29749 0.05839
#
# Static dielectric constant tensor:
#      x y z
#    x 1.925030 0.000000 0.004330 
#    y 0.000000 1.987180 0.000000 
#    z 0.004330 0.000000 2.020310 
# 
# From -- ./inp_files/43795.got.cif
#   From: 2010.05.17/outbox.cif.g08.bks.cpg/sg15_22_cif.got.tgz:43795.got - 2010.06.03 18:47:42.
