data_PCOD9290570
_publ_section_title
;
Structure prediction by ZEFSAII (Michael W. Deem and Ramdas Pophale) SiO2 
 PCOD9290570
Probable space group: C 2/C
;
_chemical_formula_sum "Si O2"
_cell_formula_units_Z 64
_cell_length_a 28.625893
_cell_length_b 12.389981
_cell_length_c 8.021000
_cell_angle_alpha 90.000000
_cell_angle_beta 93.992416
_cell_angle_gamma 90.000000
_cell_volume 2837.938672
_symmetry_space_group_name_H-M "C 2/C"
_symmetry_group_IT_number 15
_symmetry_cell_setting 'monoclinic'
loop_
_space_group_symop_operation_xyz
x,y,z
-x,y,1/2-z
-x,-y,-z
x,-y,1/2+z
1/2+x,1/2+y,z
1/2-x,1/2+y,1/2-z
1/2-x,1/2-y,-z
1/2+x,1/2-y,1/2+z
loop_
_atom_site_type_symbol
_atom_site_label
_atom_site_fract_x
_atom_site_fract_y
_atom_site_fract_z
Si Si1 0.448195 0.557340 0.807411
Si Si2 0.117624 0.351659 0.459705
Si Si3 0.386721 0.262808 0.216473
Si Si4 0.300047 0.600134 0.778168
Si Si5 0.836941 0.416134 0.518131
Si Si6 0.053221 0.835760 0.822119
Si Si7 0.266886 0.387699 0.890594
Si Si8 0.791926 0.678401 0.689687
O O1 0.500000 0.543009 0.750000
O O2 0.425761 0.650179 0.685748
O O3 0.427403 0.436242 0.785091
O O4 0.447236 0.609469 0.991933
O O5 0.100019 0.325486 0.641130
O O6 0.129120 0.480283 0.450585
O O7 0.083769 0.275092 0.338321
O O8 0.169819 0.305736 0.440877
O O9 0.348214 0.338858 0.296121
O O10 0.364692 0.193517 0.064501
O O11 0.300254 0.474689 0.812659
O O12 0.282011 0.619185 0.586048
O O13 0.257623 0.635802 0.888741
O O14 0.789031 0.413201 0.617870
O O15 0.817124 0.403627 0.326438
O O16 0.000000 0.810662 0.750000
O O17 0.277700 0.280230 0.794667
#
# Coordination Sequence:
#
# PCOD9290570 Si02
#       8
#     8   8   8   8   8   8   8   8
#     4  10  22  41  67  94 122 161 191 250 320 369
#     4  11  25  38  63  94 118 167 207 253 313 361
#     4  11  24  40  60  90 127 155 207 258 305 371
#     4  11  23  38  57  87 124 163 207 263 298 364
#     4  11  21  43  59  83 126 169 209 254 299 362
#     4  10  22  43  66  96 126 152 203 253 308 378
#     4  11  23  37  58  86 122 169 214 252 312 346
#     4  11  22  39  58  86 124 170 213 245 306 366
#
# _framework density 22.551580999999999
#
# number of rings (size 3 to 8) (size 9 to 14) (size 15 to 20)
#    0.000    1.250    3.750    3.000    5.250    3.500 
#    0.000    0.625    0.000    3.750    0.000    0.000 
#    0.000    0.000    0.000    0.000    0.000    0.000 
#
# Total GULP energy -178526.582489 kJ/mol
# GULP energy per Si atom -5578.955703 kJ/mol
# Density = 2.250025 g / cm^3
# Si number density = 22.551581 Si / 1000 Ang^3
#
#
#
# Elastic Constant Matrix: (Units=GPa)
#
#
# Indices 1 2 3 4 5 6 
#
# 1 53.8245 34.2705 -14.7460 0.0000 9.8696 0.0000
# 2 34.2705 140.0869 4.5601 0.0000 5.2248 0.0000
# 3 -14.7460 4.5601 30.3086 0.0000 -1.0151 0.0000
# 4 0.0000 0.0000 0.0000 34.5723 0.0000 2.6195
# 5 9.8696 5.2248 -1.0151 0.0000 21.5267 0.0000
# 6 0.0000 0.0000 0.0000 2.6195 0.0000 49.0627
#
#
#
# Elastic Compliance Matrix: (Units=1/GPa)
#
#
# Indices 1 2 3 4 5 6 
#
# 1 0.029312 -0.007249 0.014984 0.000000 -0.010973 0.000000
# 2 -0.007249 0.009036 -0.004856 0.000000 0.000901 0.000000
# 3 0.014984 -0.004856 0.040889 0.000000 -0.003763 0.000000
# 4 0.000000 0.000000 0.000000 0.029042 0.000000 -0.001551
# 5 -0.010973 0.000901 -0.003763 0.000000 0.051089 0.000000
# 6 0.000000 0.000000 0.000000 -0.001551 0.000000 0.020465
#
#
# Mechanical properties :
#
#
# Convention : Reuss Voigt Hill
#
# Bulk Modulus (GPa) = 11.76551 30.26547 21.01549
# Shear Modulus (GPa) = 24.70270 34.37471 29.53870
#
# Velocity S-wave (km/s) = 3.31325 3.90843 3.62308
# Velocity P-wave (km/s) = 4.45706 5.81527 5.18087
#
# Compressibility (1/GPa) = 0.08499418
#
# Stress axis : x y z
#
# Youngs Moduli (GPa) = 34.11600 110.66439 24.45652
#
# Poissons Ratio (x) = 0.80224 -0.36646
# Poissons Ratio (y) = 0.24732 0.11877
# Poissons Ratio (z) = -0.51120 0.53743
#
# Static dielectric constant tensor:
#      x y z
#    x 1.882830 0.000000 0.016450 
#    y 0.000000 1.935380 0.000000 
#    z 0.016450 0.000000 1.887940 
# 
# From -- ./inp_files/69376.got.cif
#   From: 2010.05.17/outbox.cif.g08.bks.cpg/sg15_35_cif.got.tgz:69376.got - 2010.06.03 18:47:42.
