data_PCOD9290203
_publ_section_title
;
Structure prediction by ZEFSAII (Michael W. Deem and Ramdas Pophale) SiO2 
 PCOD9290203
Probable space group: C 2/C
;
_chemical_formula_sum "Si O2"
_cell_formula_units_Z 56
_cell_length_a 12.060405
_cell_length_b 14.094142
_cell_length_c 28.577983
_cell_angle_alpha 90.000000
_cell_angle_beta 141.090254
_cell_angle_gamma 90.000000
_cell_volume 3051.109121
_symmetry_space_group_name_H-M "C 2/C"
_symmetry_group_IT_number 15
_symmetry_cell_setting 'monoclinic'
loop_
_space_group_symop_operation_xyz
x,y,z
-x,y,1/2-z
-x,-y,-z
x,-y,1/2+z
1/2+x,1/2+y,z
1/2-x,1/2+y,1/2-z
1/2-x,1/2-y,-z
1/2+x,1/2-y,1/2+z
loop_
_atom_site_type_symbol
_atom_site_label
_atom_site_fract_x
_atom_site_fract_y
_atom_site_fract_z
Si Si1 0.815837 0.383465 0.662243
Si Si2 0.521217 0.495428 0.620720
Si Si3 0.153247 0.984858 0.268634
Si Si4 0.944110 0.527717 0.107691
Si Si5 0.305927 0.170529 0.888750
Si Si6 0.302428 0.140387 0.509528
Si Si7 0.270404 0.647829 0.529107
O O1 0.685291 0.453673 0.646541
O O2 0.860762 0.421601 0.625282
O O3 0.722624 0.281260 0.630368
O O4 0.000000 0.375088 0.750000
O O5 0.575214 0.521754 0.691104
O O6 0.360837 0.418121 0.566451
O O7 0.445455 0.590604 0.572071
O O8 0.205851 0.890894 0.316095
O O9 0.000000 0.032778 0.250000
O O10 0.344797 0.030795 0.323034
O O11 0.862236 0.421807 0.074713
O O12 0.885501 0.583305 0.042090
O O13 0.232522 0.151970 0.916164
O O14 0.512484 0.143146 0.957434
O O15 0.250000 0.250000 0.500000
O O16 0.250000 0.750000 0.500000
#
# Coordination Sequence:
#
# PCOD9290203 Si02
#       7
#     8   8   8   8   8   8   8
#     4  12  23  41  66  97 129 171 215 263 323 387
#     4  11  24  40  65  94 131 169 214 271 320 384
#     4  11  22  41  63  92 126 167 211 262 323 376
#     4  10  24  39  65  95 129 164 215 265 316 385
#     4  11  23  39  68  92 129 172 216 265 318 394
#     4  10  22  41  63  95 127 171 218 261 328 378
#     4  11  23  40  62  98 127 163 217 266 319 377
#
# _framework density 18.353981999999998
#
# number of rings (size 3 to 8) (size 9 to 14) (size 15 to 20)
#    0.000    1.143    5.714    0.429    2.000    5.143 
#    0.000    0.000    0.000    0.000    0.000    0.000 
#    0.000    0.000    0.000    0.000    0.000    0.000 
#
# Total GULP energy -156073.723295 kJ/mol
# GULP energy per Si atom -5574.061546 kJ/mol
# Density = 1.831221 g / cm^3
# Si number density = 18.353982 Si / 1000 Ang^3
#
#
#
# Elastic Constant Matrix: (Units=GPa)
#
#
# Indices 1 2 3 4 5 6 
#
# 1 100.1467 35.3618 36.5942 0.0000 6.5814 0.0000
# 2 35.3618 97.0943 37.8624 0.0000 -4.2738 0.0000
# 3 36.5942 37.8624 108.1241 0.0000 8.8869 0.0000
# 4 0.0000 0.0000 0.0000 24.1836 0.0000 -0.1589
# 5 6.5814 -4.2738 8.8869 0.0000 31.8752 0.0000
# 6 0.0000 0.0000 0.0000 -0.1589 0.0000 29.5906
#
#
#
# Elastic Compliance Matrix: (Units=1/GPa)
#
#
# Indices 1 2 3 4 5 6 
#
# 1 0.012394 -0.003532 -0.002772 0.000000 -0.002260 0.000000
# 2 -0.003532 0.013189 -0.003713 0.000000 0.003533 0.000000
# 3 -0.002772 -0.003713 0.011750 0.000000 -0.003202 0.000000
# 4 0.000000 0.000000 0.000000 0.041352 0.000000 0.000222
# 5 -0.002260 0.003533 -0.003202 0.000000 0.033205 0.000000
# 6 0.000000 0.000000 0.000000 0.000222 0.000000 0.033796
#
#
# Mechanical properties :
#
#
# Convention : Reuss Voigt Hill
#
# Bulk Modulus (GPa) = 57.81028 58.33354 58.07191
# Shear Modulus (GPa) = 29.15650 30.16632 29.66141
#
# Velocity S-wave (km/s) = 3.99001 4.05851 4.02440
# Velocity P-wave (km/s) = 7.26585 7.33577 7.30090
#
# Compressibility (1/GPa) = 0.01729796
#
# Stress axis : x y z
#
# Youngs Moduli (GPa) = 80.68364 75.81857 85.10415
#
# Poissons Ratio (x) = 0.26782 0.23591
# Poissons Ratio (y) = 0.28501 0.31603
# Poissons Ratio (z) = 0.22366 0.28155
#
# Static dielectric constant tensor:
#      x y z
#    x 1.621830 0.000000 0.020670 
#    y 0.000000 1.654820 0.000000 
#    z 0.020670 0.000000 1.657030 
# 
# From -- ./inp_files/292852.got.cif
#   From: 2010.05.17/outbox.cif.g08.bks.cpg/sg15_147_cif.got.tgz:292852.got - 2010.06.03 18:47:42.
