data_PCOD9290805
_publ_section_title
;
Structure prediction by ZEFSAII (Michael W. Deem and Ramdas Pophale) SiO2 
 PCOD9290805
Probable space group: C 2/C
;
_chemical_formula_sum "Si O2"
_cell_formula_units_Z 44
_cell_length_a 5.542055
_cell_length_b 27.373663
_cell_length_c 15.550497
_cell_angle_alpha 90.000000
_cell_angle_beta 62.348262
_cell_angle_gamma 90.000000
_cell_volume 2089.663109
_symmetry_space_group_name_H-M "C 2/C"
_symmetry_group_IT_number 15
_symmetry_cell_setting 'monoclinic'
loop_
_space_group_symop_operation_xyz
x,y,z
-x,y,1/2-z
-x,-y,-z
x,-y,1/2+z
1/2+x,1/2+y,z
1/2-x,1/2+y,1/2-z
1/2-x,1/2-y,-z
1/2+x,1/2-y,1/2+z
loop_
_atom_site_type_symbol
_atom_site_label
_atom_site_fract_x
_atom_site_fract_y
_atom_site_fract_z
Si Si1 0.484157 0.626869 0.871000
Si Si2 0.502974 0.049547 0.552830
Si Si3 0.673316 0.294251 0.807754
Si Si4 0.000000 0.428976 0.250000
Si Si5 0.130175 0.714222 0.946389
Si Si6 0.842239 0.861400 0.963117
O O1 0.268381 0.582560 0.913604
O O2 0.342377 0.676851 0.867565
O O3 0.740375 0.605837 0.778099
O O4 0.593705 0.641820 0.946892
O O5 0.543576 0.044075 0.650504
O O6 0.736242 0.083751 0.472719
O O7 0.500000 0.000000 0.500000
O O8 0.500000 0.294421 0.750000
O O9 0.544832 0.251184 0.886595
O O10 0.603460 0.345016 0.867052
O O11 0.000000 0.287842 0.750000
O O12 0.250000 0.750000 0.000000
O O13 0.898830 0.677159 0.018350
#
# Coordination Sequence:
#
# PCOD9290805 Si02
#       6
#     8   8   8   4   8   8
#     4  10  22  41  70  93 134 170 230 287 340 413
#     4  10  23  45  73  94 133 174 225 287 364 418
#     4  12  27  41  63 100 147 185 239 284 342 421
#     4  10  22  42  66 108 132 162 234 290 348 424
#     4  11  22  42  67  92 135 190 234 275 347 412
#     4  10  23  43  66  93 131 178 230 282 349 409
#
# _framework density 21.056025000000002
#
# number of rings (size 3 to 8) (size 9 to 14) (size 15 to 20)
#    0.000    1.455    1.818    2.182    5.091    7.273 
#    6.545    3.636    2.000    0.000    0.000    0.000 
#    0.000    0.000    0.000    0.000    0.000    0.000 
#
# Total GULP energy -122781.756464 kJ/mol
# GULP energy per Si atom -5580.988930 kJ/mol
# Density = 2.100810 g / cm^3
# Si number density = 21.056025 Si / 1000 Ang^3
#
#
#
# Elastic Constant Matrix: (Units=GPa)
#
#
# Indices 1 2 3 4 5 6 
#
# 1 55.9307 36.8014 16.3532 0.0000 3.1085 0.0000
# 2 36.8014 153.9666 59.4413 0.0000 10.8498 0.0000
# 3 16.3532 59.4413 78.3896 0.0000 15.8809 0.0000
# 4 0.0000 0.0000 0.0000 29.0669 0.0000 12.2381
# 5 3.1085 10.8498 15.8809 0.0000 30.6097 0.0000
# 6 0.0000 0.0000 0.0000 12.2381 0.0000 33.9839
#
#
#
# Elastic Compliance Matrix: (Units=1/GPa)
#
#
# Indices 1 2 3 4 5 6 
#
# 1 0.021253 -0.004763 -0.000812 0.000000 -0.000049 0.000000
# 2 -0.004763 0.010255 -0.006866 0.000000 0.000411 0.000000
# 3 -0.000812 -0.006866 0.019693 0.000000 -0.007701 0.000000
# 4 0.000000 0.000000 0.000000 0.040552 0.000000 -0.014603
# 5 -0.000049 0.000411 -0.007701 0.000000 0.036524 0.000000
# 6 0.000000 0.000000 0.000000 -0.014603 0.000000 0.034685
#
#
# Mechanical properties :
#
#
# Convention : Reuss Voigt Hill
#
# Bulk Modulus (GPa) = 37.99542 57.05320 47.52431
# Shear Modulus (GPa) = 25.43019 30.44484 27.93752
#
# Velocity S-wave (km/s) = 3.47902 3.80662 3.64650
# Velocity P-wave (km/s) = 5.84998 6.81727 6.35206
#
# Compressibility (1/GPa) = 0.02631896
#
# Stress axis : x y z
#
# Youngs Moduli (GPa) = 47.05118 97.51233 50.78066
#
# Poissons Ratio (x) = 0.46446 0.04124
# Poissons Ratio (y) = 0.22411 0.34865
# Poissons Ratio (z) = 0.03821 0.66950
#
# Static dielectric constant tensor:
#      x y z
#    x 1.899800 0.000000 -0.027940 
#    y 0.000000 1.712820 0.000000 
#    z -0.027940 0.000000 1.844060 
# 
# From -- ./inp_files/129392.got.cif
#   From: 2010.05.17/outbox.cif.g08.bks.cpg/sg15_65_cif.got.tgz:129392.got - 2010.06.03 18:47:42.
