data_PCOD9290310
_publ_section_title
;
Structure prediction by ZEFSAII (Michael W. Deem and Ramdas Pophale) SiO2 
 PCOD9290310
Probable space group: C 2/C
;
_chemical_formula_sum "Si O2"
_cell_formula_units_Z 48
_cell_length_a 11.525179
_cell_length_b 24.161478
_cell_length_c 14.436895
_cell_angle_alpha 90.000000
_cell_angle_beta 31.567597
_cell_angle_gamma 90.000000
_cell_volume 2104.578322
_symmetry_space_group_name_H-M "C 2/C"
_symmetry_group_IT_number 15
_symmetry_cell_setting 'monoclinic'
loop_
_space_group_symop_operation_xyz
x,y,z
-x,y,1/2-z
-x,-y,-z
x,-y,1/2+z
1/2+x,1/2+y,z
1/2-x,1/2+y,1/2-z
1/2-x,1/2-y,-z
1/2+x,1/2-y,1/2+z
loop_
_atom_site_type_symbol
_atom_site_label
_atom_site_fract_x
_atom_site_fract_y
_atom_site_fract_z
Si Si1 0.380442 0.704717 0.474531
Si Si2 0.179711 0.569592 0.197972
Si Si3 0.231184 0.876303 0.662618
Si Si4 0.016714 0.461980 0.400042
Si Si5 0.649615 0.196972 0.822335
Si Si6 0.423645 0.606847 0.697962
O O1 0.250000 0.750000 0.500000
O O2 0.494127 0.653538 0.343763
O O3 0.591983 0.738408 0.370808
O O4 0.220369 0.687313 0.666878
O O5 0.201602 0.598721 0.282330
O O6 0.110860 0.505173 0.260997
O O7 0.000000 0.594516 0.250000
O O8 0.400767 0.581427 0.991626
O O9 0.286165 0.927450 0.553584
O O10 0.416112 0.831038 0.509295
O O11 0.200644 0.418793 0.307211
O O12 0.000000 0.500000 0.500000
O O13 0.855281 0.171507 0.739051
O O14 0.500000 0.592350 0.750000
#
# Coordination Sequence:
#
# PCOD9290310 Si02
#       6
#     8   8   8   8   8   8
#     4  12  24  42  70  96 136 188 231 290 356 412
#     4  11  21  41  72  99 137 183 224 290 361 415
#     4  10  22  41  65 101 140 174 233 287 339 426
#     4   9  20  39  67  96 138 172 226 286 341 423
#     4  11  23  41  67  99 133 175 234 282 344 422
#     4  11  22  41  69 100 136 180 227 287 355 418
#
# _framework density 22.807418999999999
#
# number of rings (size 3 to 8) (size 9 to 14) (size 15 to 20)
#    0.000    1.333    3.333    4.000    0.000    0.000 
#    0.000    8.333   36.667    0.000    0.000    0.000 
#    0.000    0.000    0.000    0.000    0.000    0.000 
#
# Total GULP energy -133679.195009 kJ/mol
# GULP energy per Si atom -5569.966459 kJ/mol
# Density = 2.275551 g / cm^3
# Si number density = 22.807419 Si / 1000 Ang^3
#
#
#
# Elastic Constant Matrix: (Units=GPa)
#
#
# Indices 1 2 3 4 5 6 
#
# 1 84.7861 30.6190 41.8071 -0.0107 11.2876 0.0028
# 2 30.6190 101.1562 50.7508 0.0007 -0.3620 0.0007
# 3 41.8071 50.7508 173.1982 -0.0214 10.9171 0.0121
# 4 -0.0107 0.0007 -0.0214 13.5459 0.0181 -10.3870
# 5 11.2876 -0.3620 10.9171 0.0181 31.0301 -0.0078
# 6 0.0028 0.0007 0.0121 -10.3870 -0.0078 21.3898
#
#
#
# Elastic Compliance Matrix: (Units=1/GPa)
#
#
# Indices 1 2 3 4 5 6 
#
# 1 0.014738 -0.003327 -0.002293 0.000020 -0.004593 0.000008
# 2 -0.003327 0.012397 -0.002981 -0.000015 0.002404 -0.000005
# 3 -0.002293 -0.002981 0.007313 0.000014 -0.001773 0.000003
# 4 0.000020 -0.000015 0.000014 0.117621 -0.000067 0.057117
# 5 -0.004593 0.002404 -0.001773 -0.000067 0.034550 -0.000018
# 6 0.000008 -0.000005 0.000003 0.057117 -0.000018 0.074488
#
#
# Mechanical properties :
#
#
# Convention : Reuss Voigt Hill
#
# Bulk Modulus (GPa) = 57.98685 67.27714 62.63199
# Shear Modulus (GPa) = 17.60213 28.92407 23.26310
#
# Velocity S-wave (km/s) = 2.78109 3.56502 3.19718
# Velocity P-wave (km/s) = 5.98267 6.81966 6.41483
#
# Compressibility (1/GPa) = 0.01724529
#
# Stress axis : x y z
#
# Youngs Moduli (GPa) = 67.85131 80.66502 136.75179
#
# Poissons Ratio (x) = 0.26838 0.31359
# Poissons Ratio (y) = 0.22574 0.40766
# Poissons Ratio (z) = 0.15559 0.24046
#
# Static dielectric constant tensor:
#      x y z
#    x 2.070230 0.000010 -0.129860 
#    y 0.000010 1.766010 0.000000 
#    z -0.129860 0.000000 1.961000 
# 
# From -- ./inp_files/148682.got.cif
#   From: 2010.05.17/outbox.cif.g08.bks.cpg/sg15_75_cif.got.tgz:148682.got - 2010.06.03 18:47:42.
