data_PCOD9290867
_publ_section_title
;
Structure prediction by ZEFSAII (Michael W. Deem and Ramdas Pophale) SiO2 
 PCOD9290867
Probable space group: C 2/C
;
_chemical_formula_sum "Si O2"
_cell_formula_units_Z 60
_cell_length_a 23.940154
_cell_length_b 5.124969
_cell_length_c 19.691919
_cell_angle_alpha 90.000000
_cell_angle_beta 84.541645
_cell_angle_gamma 90.000000
_cell_volume 2405.096355
_symmetry_space_group_name_H-M "C 2/C"
_symmetry_group_IT_number 15
_symmetry_cell_setting 'monoclinic'
loop_
_space_group_symop_operation_xyz
x,y,z
-x,y,1/2-z
-x,-y,-z
x,-y,1/2+z
1/2+x,1/2+y,z
1/2-x,1/2+y,1/2-z
1/2-x,1/2-y,-z
1/2+x,1/2-y,1/2+z
loop_
_atom_site_type_symbol
_atom_site_label
_atom_site_fract_x
_atom_site_fract_y
_atom_site_fract_z
Si Si1 0.326171 0.784134 0.739272
Si Si2 0.245472 0.506066 0.549310
Si Si3 0.000000 0.688482 0.750000
Si Si4 0.504285 0.118947 0.109308
Si Si5 0.363211 0.345182 0.558447
Si Si6 0.088014 0.366462 0.000123
Si Si7 0.929882 0.005972 0.175430
Si Si8 0.704671 0.727116 0.182567
O O1 0.383613 0.715258 0.694468
O O2 0.316549 0.567881 0.800736
O O3 0.269564 0.773232 0.700654
O O4 0.328625 0.078122 0.764771
O O5 0.250000 0.750000 0.500000
O O6 0.302747 0.451233 0.584097
O O7 0.202520 0.621515 0.610654
O O8 0.250000 0.250000 0.500000
O O9 0.000501 0.522780 0.818092
O O10 0.053948 0.868483 0.755488
O O11 0.457808 0.098170 0.054797
O O12 0.488871 0.413170 0.134765
O O13 0.559194 0.994454 0.068967
O O14 0.392295 0.566238 0.506743
O O15 0.399814 0.324258 0.621901
O O16 0.361796 0.063335 0.523999
#
# Coordination Sequence:
#
# PCOD9290867 Si02
#       8
#     8   8   4   8   8   8   8   8
#     4  10  22  41  72  98 131 175 223 277 332 421
#     4  12  25  45  67 100 140 175 226 293 344 402
#     4  12  24  44  62 104 136 180 224 292 344 402
#     4  10  24  42  66  99 138 178 230 286 341 398
#     4  11  23  45  72  99 127 185 234 272 345 421
#     4  10  23  43  73  97 131 182 237 278 332 417
#     4  11  24  43  70  97 138 181 228 278 347 417
#     4  10  22  43  67 102 132 171 225 279 343 402
#
# _framework density 24.947025
#
# number of rings (size 3 to 8) (size 9 to 14) (size 15 to 20)
#    0.000    1.333    2.667    2.000    3.733    1.600 
#    7.200    0.000    0.000    0.000    0.000    0.000 
#    0.000    0.000    0.000    0.000    0.000    0.000 
#
# Total GULP energy -167346.800234 kJ/mol
# GULP energy per Si atom -5578.226674 kJ/mol
# Density = 2.489024 g / cm^3
# Si number density = 24.947025 Si / 1000 Ang^3
#
#
#
# Elastic Constant Matrix: (Units=GPa)
#
#
# Indices 1 2 3 4 5 6 
#
# 1 32.7840 12.8880 2.8222 0.0000 4.6842 0.0000
# 2 12.8880 106.3188 13.5301 0.0000 12.2532 0.0000
# 3 2.8222 13.5301 77.0690 0.0000 0.3198 0.0000
# 4 0.0000 0.0000 0.0000 23.7269 0.0000 2.3750
# 5 4.6842 12.2532 0.3198 0.0000 24.4829 0.0000
# 6 0.0000 0.0000 0.0000 2.3750 0.0000 26.8181
#
#
#
# Elastic Compliance Matrix: (Units=1/GPa)
#
#
# Indices 1 2 3 4 5 6 
#
# 1 0.032516 -0.003344 -0.000585 0.000000 -0.004540 0.000000
# 2 -0.003344 0.010562 -0.001713 0.000000 -0.004624 0.000000
# 3 -0.000585 -0.001713 0.013294 0.000000 0.000795 0.000000
# 4 0.000000 0.000000 0.000000 0.042523 0.000000 -0.003766
# 5 -0.004540 -0.004624 0.000795 0.000000 0.044017 0.000000
# 6 0.000000 0.000000 0.000000 -0.003766 0.000000 0.037622
#
#
# Mechanical properties :
#
#
# Convention : Reuss Voigt Hill
#
# Bulk Modulus (GPa) = 22.17812 30.51695 26.34753
# Shear Modulus (GPa) = 24.17243 27.46766 25.82005
#
# Velocity S-wave (km/s) = 3.11617 3.32179 3.22062
# Velocity P-wave (km/s) = 4.67512 5.19342 4.94107
#
# Compressibility (1/GPa) = 0.04508949
#
# Stress axis : x y z
#
# Youngs Moduli (GPa) = 30.75386 94.68023 75.22097
#
# Poissons Ratio (x) = 0.31661 0.04399
# Poissons Ratio (y) = 0.10284 0.12882
# Poissons Ratio (z) = 0.01799 0.16215
#
# Static dielectric constant tensor:
#      x y z
#    x 2.039470 0.000000 -0.009760 
#    y 0.000000 2.021620 0.000000 
#    z -0.009760 0.000000 1.941150 
# 
# From -- ./inp_files/223640.got.cif
#   From: 2010.05.17/outbox.cif.g08.bks.cpg/sg15_112_cif.got.tgz:223640.got - 2010.06.03 18:47:42.
