data_PCOD9290234
_publ_section_title
;
Structure prediction by ZEFSAII (Michael W. Deem and Ramdas Pophale) SiO2 
 PCOD9290234
Probable space group: C 2/C
;
_chemical_formula_sum "Si O2"
_cell_formula_units_Z 56
_cell_length_a 24.778865
_cell_length_b 13.656539
_cell_length_c 8.725556
_cell_angle_alpha 90.000000
_cell_angle_beta 120.447220
_cell_angle_gamma 90.000000
_cell_volume 2545.487484
_symmetry_space_group_name_H-M "C 2/C"
_symmetry_group_IT_number 15
_symmetry_cell_setting 'monoclinic'
loop_
_space_group_symop_operation_xyz
x,y,z
-x,y,1/2-z
-x,-y,-z
x,-y,1/2+z
1/2+x,1/2+y,z
1/2-x,1/2+y,1/2-z
1/2-x,1/2-y,-z
1/2+x,1/2-y,1/2+z
loop_
_atom_site_type_symbol
_atom_site_label
_atom_site_fract_x
_atom_site_fract_y
_atom_site_fract_z
Si Si1 0.922326 0.710598 0.889897
Si Si2 0.293371 0.353530 0.336753
Si Si3 0.916029 0.073861 0.875611
Si Si4 0.500000 0.324073 0.250000
Si Si5 0.156787 0.888211 0.752611
Si Si6 0.711310 0.881046 0.662026
Si Si7 0.000000 0.817890 0.750000
Si Si8 0.168973 0.445260 0.262940
O O1 0.860285 0.777006 0.805647
O O2 0.955159 0.746114 0.781421
O O3 0.898569 0.600681 0.868828
O O4 0.965411 0.751994 0.084131
O O5 0.345018 0.385265 0.286543
O O6 0.321360 0.391258 0.539811
O O7 0.291676 0.235809 0.334475
O O8 0.223449 0.397215 0.233888
O O9 0.951192 0.109760 0.774631
O O10 0.903086 0.957622 0.858647
O O11 0.957636 0.115829 0.075584
O O12 0.215847 0.913026 0.732628
O O13 0.684541 0.914796 0.459050
O O14 0.674787 0.939657 0.739956
#
# Coordination Sequence:
#
# PCOD9290234 Si02
#       8
#     8   8   8   4   8   8   4   8
#     4  11  22  42  64  91 130 170 214 261 309 383
#     4  11  21  43  65  94 130 173 202 263 323 380
#     4  11  23  40  62  95 132 172 212 254 309 387
#     4  10  28  39  60  95 138 166 213 266 315 360
#     4  11  21  36  65  94 131 163 210 250 308 392
#     4  11  22  39  67 100 129 165 204 261 327 383
#     4  10  22  41  64  89 132 188 211 240 315 372
#     4  11  22  41  67  95 124 168 214 262 324 373
#
# _framework density 21.999714000000001
#
# number of rings (size 3 to 8) (size 9 to 14) (size 15 to 20)
#    0.000    1.143    5.714    0.857    2.000    4.571 
#    0.000    1.429    0.000   14.571    0.000    0.000 
#    0.000    0.000    0.000    0.000    0.000    0.000 
#
# Total GULP energy -156570.483458 kJ/mol
# GULP energy per Si atom -5591.802981 kJ/mol
# Density = 2.194964 g / cm^3
# Si number density = 21.999714 Si / 1000 Ang^3
#
#
#
# Elastic Constant Matrix: (Units=GPa)
#
#
# Indices 1 2 3 4 5 6 
#
# 1 66.2746 21.6453 14.1682 0.0000 7.3390 0.0000
# 2 21.6453 69.2949 10.6841 0.0000 -2.7272 0.0000
# 3 14.1682 10.6841 36.9589 0.0000 0.0211 0.0000
# 4 0.0000 0.0000 0.0000 18.3231 0.0000 8.4395
# 5 7.3390 -2.7272 0.0211 0.0000 20.7647 0.0000
# 6 0.0000 0.0000 0.0000 8.4395 0.0000 32.3934
#
#
#
# Elastic Compliance Matrix: (Units=1/GPa)
#
#
# Indices 1 2 3 4 5 6 
#
# 1 0.018850 -0.005300 -0.005690 0.000000 -0.007353 0.000000
# 2 -0.005300 0.016677 -0.002792 0.000000 0.004066 0.000000
# 3 -0.005690 -0.002792 0.030044 0.000000 0.001614 0.000000
# 4 0.000000 0.000000 0.000000 0.062018 0.000000 -0.016158
# 5 -0.007353 0.004066 0.001614 0.000000 0.051290 0.000000
# 6 0.000000 0.000000 0.000000 -0.016158 0.000000 0.035080
#
#
# Mechanical properties :
#
#
# Convention : Reuss Voigt Hill
#
# Bulk Modulus (GPa) = 26.30987 29.50262 27.90625
# Shear Modulus (GPa) = 19.67013 22.69829 21.18421
#
# Velocity S-wave (km/s) = 2.99341 3.21558 3.10648
# Velocity P-wave (km/s) = 4.89208 5.21787 5.05760
#
# Compressibility (1/GPa) = 0.03800855
#
# Stress axis : x y z
#
# Youngs Moduli (GPa) = 53.04925 59.96229 33.28414
#
# Poissons Ratio (x) = 0.31782 0.18938
# Poissons Ratio (y) = 0.28118 0.09291
# Poissons Ratio (z) = 0.30184 0.16739
#
# Static dielectric constant tensor:
#      x y z
#    x 1.836040 0.000000 -0.005360 
#    y 0.000000 1.824540 0.000000 
#    z -0.005360 0.000000 1.813140 
# 
# From -- ./inp_files/61510.got.cif
#   From: 2010.05.17/outbox.cif.g08.bks.cpg/sg15_31_cif.got.tgz:61510.got - 2010.06.03 18:47:42.
