data_PCOD9290182
_publ_section_title
;
Structure prediction by ZEFSAII (Michael W. Deem and Ramdas Pophale) SiO2 
 PCOD9290182
Probable space group: C 2/C
;
_chemical_formula_sum "Si O2"
_cell_formula_units_Z 56
_cell_length_a 9.026569
_cell_length_b 13.908108
_cell_length_c 18.833602
_cell_angle_alpha 90.000000
_cell_angle_beta 103.856743
_cell_angle_gamma 90.000000
_cell_volume 2295.607125
_symmetry_space_group_name_H-M "C 2/C"
_symmetry_group_IT_number 15
_symmetry_cell_setting 'monoclinic'
loop_
_space_group_symop_operation_xyz
x,y,z
-x,y,1/2-z
-x,-y,-z
x,-y,1/2+z
1/2+x,1/2+y,z
1/2-x,1/2+y,1/2-z
1/2-x,1/2-y,-z
1/2+x,1/2-y,1/2+z
loop_
_atom_site_type_symbol
_atom_site_label
_atom_site_fract_x
_atom_site_fract_y
_atom_site_fract_z
Si Si1 0.466422 0.809491 0.070634
Si Si2 0.924421 0.930454 0.118174
Si Si3 0.688463 0.090236 0.710601
Si Si4 0.370619 0.382179 0.875653
Si Si5 0.699139 0.701285 0.636953
Si Si6 0.185057 0.640574 0.485130
Si Si7 0.348420 0.132659 0.272547
O O1 0.569712 0.858569 0.144339
O O2 0.520552 0.698871 0.079431
O O3 0.294416 0.816020 0.077002
O O4 0.519451 0.855473 0.002451
O O5 0.846811 0.916930 0.185404
O O6 0.788404 0.928307 0.045977
O O7 0.031025 0.840570 0.112971
O O8 0.032773 0.022137 0.123947
O O9 0.718761 0.145162 0.787808
O O10 0.637656 0.981095 0.717082
O O11 0.298420 0.349400 0.793606
O O12 0.222811 0.392586 0.910145
O O13 0.684625 0.811181 0.659192
O O14 0.250000 0.750000 0.500000
O O15 0.500000 0.170384 0.250000
#
# Coordination Sequence:
#
# PCOD9290182 Si02
#       7
#     8   8   8   8   8   8   8
#     4  10  22  41  63  91 125 170 206 262 316 375
#     4  11  23  40  67  94 123 168 213 262 309 382
#     4  11  22  39  61  91 132 163 204 252 326 380
#     4  11  22  41  67  89 125 170 216 257 313 383
#     4  12  23  37  63  98 128 158 209 262 319 376
#     4   9  22  43  66  87 124 173 217 257 313 372
#     4  12  25  37  63  97 132 161 205 266 325 380
#
# _framework density 24.394416
#
# number of rings (size 3 to 8) (size 9 to 14) (size 15 to 20)
#    0.000    1.143    2.857    3.857    4.000    1.143 
#    0.000    3.571    3.143    0.000    0.000    0.000 
#    0.000    0.000    0.000    0.000    0.000    0.000 
#
# Total GULP energy -156855.283672 kJ/mol
# GULP energy per Si atom -5601.974417 kJ/mol
# Density = 2.433889 g / cm^3
# Si number density = 24.394416 Si / 1000 Ang^3
#
#
#
# Elastic Constant Matrix: (Units=GPa)
#
#
# Indices 1 2 3 4 5 6 
#
# 1 110.2343 26.7148 57.6952 0.0000 -44.5639 0.0000
# 2 26.7148 69.7680 12.4075 0.0000 -2.6366 0.0000
# 3 57.6952 12.4075 73.0897 0.0000 -24.6569 0.0000
# 4 0.0000 0.0000 0.0000 12.4657 0.0000 -9.9967
# 5 -44.5639 -2.6366 -24.6569 0.0000 47.9984 0.0000
# 6 0.0000 0.0000 0.0000 -9.9967 0.0000 25.6693
#
#
#
# Elastic Compliance Matrix: (Units=1/GPa)
#
#
# Indices 1 2 3 4 5 6 
#
# 1 0.022689 -0.006008 -0.011970 0.000000 0.014587 0.000000
# 2 -0.006008 0.016384 0.000464 0.000000 -0.004440 0.000000
# 3 -0.011970 0.000464 0.023359 0.000000 0.000912 0.000000
# 4 0.000000 0.000000 0.000000 0.116652 0.000000 0.045429
# 5 0.014587 -0.004440 0.000912 0.000000 0.034602 0.000000
# 6 0.000000 0.000000 0.000000 0.045429 0.000000 0.056649
#
#
# Mechanical properties :
#
#
# Convention : Reuss Voigt Hill
#
# Bulk Modulus (GPa) = 36.49101 49.63635 43.06368
# Shear Modulus (GPa) = 15.89836 27.64497 21.77167
#
# Velocity S-wave (km/s) = 2.55565 3.37003 2.99069
# Velocity P-wave (km/s) = 4.86823 5.96107 5.44216
#
# Compressibility (1/GPa) = 0.02740401
#
# Stress axis : x y z
#
# Youngs Moduli (GPa) = 44.07360 61.03694 42.80946
#
# Poissons Ratio (x) = 0.36671 0.51241
# Poissons Ratio (y) = 0.26480 -0.01984
# Poissons Ratio (z) = 0.52754 -0.02829
#
# Static dielectric constant tensor:
#      x y z
#    x 1.922390 0.000000 -0.012760 
#    y 0.000000 1.920950 0.000000 
#    z -0.012760 0.000000 1.938360 
# 
# From -- ./inp_files/231563.got.cif
#   From: 2010.05.17/outbox.cif.g08.bks.cpg/sg15_116_cif.got.tgz:231563.got - 2010.06.03 18:47:42.
