data_PCOD9290585
_publ_section_title
;
Structure prediction by ZEFSAII (Michael W. Deem and Ramdas Pophale) SiO2 
 PCOD9290585
Probable space group: C 2/C
;
_chemical_formula_sum "Si O2"
_cell_formula_units_Z 64
_cell_length_a 10.524862
_cell_length_b 17.652180
_cell_length_c 15.464567
_cell_angle_alpha 90.000000
_cell_angle_beta 94.374508
_cell_angle_gamma 90.000000
_cell_volume 2864.741789
_symmetry_space_group_name_H-M "C 2/C"
_symmetry_group_IT_number 15
_symmetry_cell_setting 'monoclinic'
loop_
_space_group_symop_operation_xyz
x,y,z
-x,y,1/2-z
-x,-y,-z
x,-y,1/2+z
1/2+x,1/2+y,z
1/2-x,1/2+y,1/2-z
1/2-x,1/2-y,-z
1/2+x,1/2-y,1/2+z
loop_
_atom_site_type_symbol
_atom_site_label
_atom_site_fract_x
_atom_site_fract_y
_atom_site_fract_z
Si Si1 0.190819 0.879490 0.853154
Si Si2 0.751257 0.210067 0.887404
Si Si3 0.218858 0.376582 0.207129
Si Si4 0.903777 0.559087 0.038119
Si Si5 0.358454 0.038774 0.229229
Si Si6 0.964878 0.695708 0.946333
Si Si7 0.019238 0.148919 0.480480
Si Si8 0.848214 0.044884 0.575524
O O1 0.264543 0.801254 0.877054
O O2 0.247838 0.910492 0.766452
O O3 0.188267 0.957055 0.910228
O O4 0.048698 0.857316 0.878481
O O5 0.753456 0.170341 0.793980
O O6 0.609305 0.196356 0.917336
O O7 0.855711 0.174252 0.957677
O O8 0.148600 0.455453 0.229064
O O9 0.125725 0.330406 0.137781
O O10 0.344827 0.408177 0.164760
O O11 0.854220 0.531589 0.126967
O O12 0.968705 0.639983 0.029035
O O13 0.777833 0.571634 0.977819
O O14 0.000000 0.500000 0.000000
O O15 0.500000 0.072070 0.250000
O O16 0.927614 0.778598 0.978658
O O17 0.962399 0.075220 0.522898
#
# Coordination Sequence:
#
# PCOD9290585 Si02
#       8
#     8   8   8   8   8   8   8   8
#     4  10  23  43  61  96 133 176 227 274 335 420
#     4  11  23  39  71  96 132 185 231 278 344 424
#     4  10  22  43  66  97 131 170 225 290 340 402
#     4  11  23  38  71  96 127 172 224 293 342 405
#     4  11  23  38  65 100 129 162 220 291 344 391
#     4  10  22  41  67  95 132 172 233 280 347 414
#     4  11  25  41  68  95 136 189 223 278 348 434
#     4  10  24  44  66  94 137 175 225 280 351 411
#
# _framework density 22.340584
#
# number of rings (size 3 to 8) (size 9 to 14) (size 15 to 20)
#    0.000    1.500    0.000    6.000    8.750    4.500 
#    0.000    1.875    8.250    0.000    0.000    0.000 
#    0.000    0.000    0.000    0.000    0.000    0.000 
#
# Total GULP energy -178161.086328 kJ/mol
# GULP energy per Si atom -5567.533948 kJ/mol
# Density = 2.228974 g / cm^3
# Si number density = 22.340584 Si / 1000 Ang^3
#
#
#
# Elastic Constant Matrix: (Units=GPa)
#
#
# Indices 1 2 3 4 5 6 
#
# 1 41.5686 35.3419 26.3854 0.0000 -15.4893 0.0000
# 2 35.3419 128.1281 21.4859 0.0000 -14.9489 0.0000
# 3 26.3854 21.4859 62.3257 0.0000 -19.9824 0.0000
# 4 0.0000 0.0000 0.0000 38.5295 0.0000 -10.8691
# 5 -15.4893 -14.9489 -19.9824 0.0000 38.3063 0.0000
# 6 0.0000 0.0000 0.0000 -10.8691 0.0000 19.8118
#
#
#
# Elastic Compliance Matrix: (Units=1/GPa)
#
#
# Indices 1 2 3 4 5 6 
#
# 1 0.042009 -0.008661 -0.012532 0.000000 0.007069 0.000000
# 2 -0.008661 0.010211 0.000362 0.000000 0.000671 0.000000
# 3 -0.012532 0.000362 0.023592 0.000000 0.007380 0.000000
# 4 0.000000 0.000000 0.000000 0.030706 0.000000 0.016846
# 5 0.007069 0.000671 0.007380 0.000000 0.033076 0.000000
# 6 0.000000 0.000000 0.000000 0.016846 0.000000 0.059717
#
#
# Mechanical properties :
#
#
# Convention : Reuss Voigt Hill
#
# Bulk Modulus (GPa) = 29.28335 44.27210 36.77773
# Shear Modulus (GPa) = 19.81312 29.25014 24.53163
#
# Velocity S-wave (km/s) = 2.98126 3.62233 3.31732
# Velocity P-wave (km/s) = 4.99867 6.11187 5.58308
#
# Compressibility (1/GPa) = 0.03414909
#
# Stress axis : x y z
#
# Youngs Moduli (GPa) = 23.80423 97.92959 42.38775
#
# Poissons Ratio (x) = 0.84819 0.53121
# Poissons Ratio (y) = 0.20617 -0.01533
# Poissons Ratio (z) = 0.29832 -0.03543
#
# Static dielectric constant tensor:
#      x y z
#    x 1.916710 0.000000 0.009940 
#    y 0.000000 1.940290 0.000000 
#    z 0.009940 0.000000 1.284480 
# 
# From -- ./inp_files/146072.got.cif
#   From: 2010.05.17/outbox.cif.g08.bks.cpg/sg15_74_cif.got.tgz:146072.got - 2010.06.03 18:47:42.
