data_PCOD9290290
_publ_section_title
;
Structure prediction by ZEFSAII (Michael W. Deem and Ramdas Pophale) SiO2 
 PCOD9290290
Probable space group: C 2/C
;
_chemical_formula_sum "Si O2"
_cell_formula_units_Z 56
_cell_length_a 16.358624
_cell_length_b 9.576905
_cell_length_c 13.128343
_cell_angle_alpha 90.000000
_cell_angle_beta 100.780112
_cell_angle_gamma 90.000000
_cell_volume 2020.454625
_symmetry_space_group_name_H-M "C 2/C"
_symmetry_group_IT_number 15
_symmetry_cell_setting 'monoclinic'
loop_
_space_group_symop_operation_xyz
x,y,z
-x,y,1/2-z
-x,-y,-z
x,-y,1/2+z
1/2+x,1/2+y,z
1/2-x,1/2+y,1/2-z
1/2-x,1/2-y,-z
1/2+x,1/2-y,1/2+z
loop_
_atom_site_type_symbol
_atom_site_label
_atom_site_fract_x
_atom_site_fract_y
_atom_site_fract_z
Si Si1 0.248398 0.532286 0.275758
Si Si2 0.303613 0.407402 0.483655
Si Si3 0.590811 0.889971 0.951924
Si Si4 0.336893 0.650067 0.633669
Si Si5 0.916663 0.212888 0.350646
Si Si6 0.000000 0.020542 0.750000
Si Si7 0.342240 0.849465 0.909644
Si Si8 0.000000 0.455237 0.250000
O O1 0.242171 0.446531 0.377577
O O2 0.268273 0.413973 0.193599
O O3 0.327302 0.636973 0.310201
O O4 0.171065 0.616842 0.210702
O O5 0.339437 0.547685 0.537367
O O6 0.370414 0.302600 0.450438
O O7 0.252629 0.346937 0.567617
O O8 0.664869 0.804039 0.913219
O O9 0.529602 0.946824 0.850263
O O10 0.615076 0.027242 0.020259
O O11 0.565813 0.780843 0.034892
O O12 0.422692 0.619007 0.710304
O O13 0.979709 0.087870 0.336285
O O14 0.931379 0.343996 0.276790
#
# Coordination Sequence:
#
# PCOD9290290 Si02
#       8
#     8   8   8   8   8   4   8   4
#     4  10  22  42  68  94 128 173 219 269 324 392
#     4  10  22  43  63  94 126 172 214 263 324 402
#     4  12  25  44  65 102 134 172 214 281 327 389
#     4  10  22  41  64  97 128 168 226 264 321 387
#     4  10  23  44  67  95 129 179 218 271 334 387
#     4   9  21  42  70  90 128 178 222 268 316 404
#     4  10  26  38  68  95 133 167 216 264 333 394
#     4  11  27  42  66  94 142 166 224 270 336 388
#
# _framework density 27.716532000000001
#
# number of rings (size 3 to 8) (size 9 to 14) (size 15 to 20)
#    0.000    1.714    1.429    0.857   12.000    5.143 
#    2.571    0.000    0.000    0.000    0.000    0.000 
#    0.000    0.000    0.000    0.000    0.000    0.000 
#
# Total GULP energy -156790.547085 kJ/mol
# GULP energy per Si atom -5599.662396 kJ/mol
# Density = 2.765345 g / cm^3
# Si number density = 27.716532 Si / 1000 Ang^3
#
#
#
# Elastic Constant Matrix: (Units=GPa)
#
#
# Indices 1 2 3 4 5 6 
#
# 1 58.4912 31.1200 29.1758 0.0000 1.2080 0.0000
# 2 31.1200 174.0811 54.6524 0.0000 -7.3113 0.0000
# 3 29.1758 54.6524 173.0284 0.0000 -7.0226 0.0000
# 4 0.0000 0.0000 0.0000 49.2740 0.0000 -0.2631
# 5 1.2080 -7.3113 -7.0226 0.0000 36.1426 0.0000
# 6 0.0000 0.0000 0.0000 -0.2631 0.0000 41.4830
#
#
#
# Elastic Compliance Matrix: (Units=1/GPa)
#
#
# Indices 1 2 3 4 5 6 
#
# 1 0.019904 -0.002836 -0.002530 0.000000 -0.001731 0.000000
# 2 -0.002836 0.006811 -0.001626 0.000000 0.001157 0.000000
# 3 -0.002530 -0.001626 0.006763 0.000000 0.001070 0.000000
# 4 0.000000 0.000000 0.000000 0.020295 0.000000 0.000129
# 5 -0.001731 0.001157 0.001070 0.000000 0.028168 0.000000
# 6 0.000000 0.000000 0.000000 0.000129 0.000000 0.024107
#
#
# Mechanical properties :
#
#
# Convention : Reuss Voigt Hill
#
# Bulk Modulus (GPa) = 51.30404 70.61078 60.95741
# Shear Modulus (GPa) = 39.51622 44.75676 42.13649
#
# Velocity S-wave (km/s) = 3.77998 4.02282 3.90329
# Velocity P-wave (km/s) = 6.13200 6.86359 6.50808
#
# Compressibility (1/GPa) = 0.01949164
#
# Stress axis : x y z
#
# Youngs Moduli (GPa) = 50.24208 146.83132 147.86174
#
# Poissons Ratio (x) = 0.41647 0.37416
# Poissons Ratio (y) = 0.14250 0.24042
# Poissons Ratio (z) = 0.12714 0.23874
#
# Static dielectric constant tensor:
#      x y z
#    x 2.245660 0.000000 -0.069540 
#    y 0.000000 2.275980 0.000000 
#    z -0.069540 0.000000 2.122850 
# 
# From -- ./inp_files/122024.got.cif
#   From: 2010.05.17/outbox.cif.g08.bks.cpg/sg15_62_cif.got.tgz:122024.got - 2010.06.03 18:47:42.
