data_PCOD9290780
_publ_section_title
;
Structure prediction by ZEFSAII (Michael W. Deem and Ramdas Pophale) SiO2 
 PCOD9290780
Probable space group: C 2/C
;
_chemical_formula_sum "Si O2"
_cell_formula_units_Z 60
_cell_length_a 25.702174
_cell_length_b 15.651651
_cell_length_c 14.028155
_cell_angle_alpha 90.000000
_cell_angle_beta 154.162187
_cell_angle_gamma 90.000000
_cell_volume 2459.477699
_symmetry_space_group_name_H-M "C 2/C"
_symmetry_group_IT_number 15
_symmetry_cell_setting 'monoclinic'
loop_
_space_group_symop_operation_xyz
x,y,z
-x,y,1/2-z
-x,-y,-z
x,-y,1/2+z
1/2+x,1/2+y,z
1/2-x,1/2+y,1/2-z
1/2-x,1/2-y,-z
1/2+x,1/2-y,1/2+z
loop_
_atom_site_type_symbol
_atom_site_label
_atom_site_fract_x
_atom_site_fract_y
_atom_site_fract_z
Si Si1 0.653753 0.376302 0.397316
Si Si2 0.409150 0.822946 0.889657
Si Si3 0.876097 0.559650 0.520410
Si Si4 0.325200 0.467480 0.425237
Si Si5 0.500000 0.765902 0.750000
Si Si6 0.357166 0.173799 0.853491
Si Si7 0.779106 0.173962 0.120683
Si Si8 0.541075 0.625043 0.511014
O O1 0.790813 0.344533 0.632861
O O2 0.643403 0.455609 0.452986
O O3 0.569424 0.297797 0.292265
O O4 0.609631 0.403487 0.219922
O O5 0.528771 0.840984 0.026232
O O6 0.417214 0.723528 0.931232
O O7 0.402096 0.878377 0.973633
O O8 0.767298 0.503471 0.305779
O O9 0.829377 0.613479 0.533284
O O10 0.000000 0.515496 0.750000
O O11 0.429127 0.426756 0.534278
O O12 0.247243 0.391840 0.343676
O O13 0.594080 0.825237 0.959354
O O14 0.311022 0.270835 0.766867
O O15 0.899612 0.125573 0.293511
O O16 0.750000 0.250000 0.000000
#
# Coordination Sequence:
#
# PCOD9290780 Si02
#       8
#     8   8   8   8   4   8   8   8
#     4  11  24  42  68 101 146 188 235 308 365 430
#     4  10  22  41  70 102 134 184 251 291 354 434
#     4  11  24  43  66  97 148 190 230 298 367 427
#     4  11  27  43  67 109 150 183 239 299 375 430
#     4  12  22  44  74  96 142 186 254 294 344 440
#     4  11  24  42  71 105 136 185 245 300 350 433
#     4  11  24  47  74 102 136 187 248 295 353 436
#     4  11  23  44  72 103 137 192 241 294 363 434
#
# _framework density 24.395424999999999
#
# number of rings (size 3 to 8) (size 9 to 14) (size 15 to 20)
#    0.000    1.067    2.667    5.200    2.800    4.800 
#    2.400    0.000    0.000    0.000    0.000    0.000 
#    0.000    0.000    0.000    0.000    0.000    0.000 
#
# Total GULP energy -168127.096390 kJ/mol
# GULP energy per Si atom -5604.236546 kJ/mol
# Density = 2.433990 g / cm^3
# Si number density = 24.395425 Si / 1000 Ang^3
#
#
#
# Elastic Constant Matrix: (Units=GPa)
#
#
# Indices 1 2 3 4 5 6 
#
# 1 81.1763 33.3461 19.7335 0.0000 9.6630 0.0000
# 2 33.3461 81.2006 15.9501 0.0000 4.1586 0.0000
# 3 19.7335 15.9501 109.5024 0.0000 2.8219 0.0000
# 4 0.0000 0.0000 0.0000 33.2249 0.0000 -0.8665
# 5 9.6630 4.1586 2.8219 0.0000 44.3982 0.0000
# 6 0.0000 0.0000 0.0000 -0.8665 0.0000 25.2873
#
#
#
# Elastic Compliance Matrix: (Units=1/GPa)
#
#
# Indices 1 2 3 4 5 6 
#
# 1 0.015503 -0.005861 -0.001870 0.000000 -0.002706 0.000000
# 2 -0.005861 0.014944 -0.001119 0.000000 -0.000053 0.000000
# 3 -0.001870 -0.001119 0.009635 0.000000 -0.000100 0.000000
# 4 0.000000 0.000000 0.000000 0.030125 0.000000 0.001032
# 5 -0.002706 -0.000053 -0.000100 0.000000 0.023124 0.000000
# 6 0.000000 0.000000 0.000000 0.001032 0.000000 0.039581
#
#
# Mechanical properties :
#
#
# Convention : Reuss Voigt Hill
#
# Bulk Modulus (GPa) = 44.67890 45.54875 45.11383
# Shear Modulus (GPa) = 31.63088 34.10538 32.86813
#
# Velocity S-wave (km/s) = 3.60473 3.74307 3.67455
# Velocity P-wave (km/s) = 5.97324 6.11493 6.04450
#
# Compressibility (1/GPa) = 0.02238193
#
# Stress axis : x y z
#
# Youngs Moduli (GPa) = 64.50306 66.91440 103.78907
#
# Poissons Ratio (x) = 0.39216 0.19413
# Poissons Ratio (y) = 0.37802 0.11617
# Poissons Ratio (z) = 0.12065 0.07490
#
# Static dielectric constant tensor:
#      x y z
#    x 1.951430 0.000000 -0.040860 
#    y 0.000000 1.936230 0.000000 
#    z -0.040860 0.000000 1.967390 
# 
# From -- ./inp_files/178558.got.cif
#   From: 2010.05.17/outbox.cif.g08.bks.cpg/sg15_90_cif.got.tgz:178558.got - 2010.06.03 18:47:42.
