data_PCOD9290012
_publ_section_title
;
Structure prediction by ZEFSAII (Michael W. Deem and Ramdas Pophale) SiO2 
 PCOD9290012
Probable space group: C 2/C
;
_chemical_formula_sum "Si O2"
_cell_formula_units_Z 60
_cell_length_a 27.064989
_cell_length_b 5.373454
_cell_length_c 18.747378
_cell_angle_alpha 90.000000
_cell_angle_beta 91.794828
_cell_angle_gamma 90.000000
_cell_volume 2725.139920
_symmetry_space_group_name_H-M "C 2/C"
_symmetry_group_IT_number 15
_symmetry_cell_setting 'monoclinic'
loop_
_space_group_symop_operation_xyz
x,y,z
-x,y,1/2-z
-x,-y,-z
x,-y,1/2+z
1/2+x,1/2+y,z
1/2-x,1/2+y,1/2-z
1/2-x,1/2-y,-z
1/2+x,1/2-y,1/2+z
loop_
_atom_site_type_symbol
_atom_site_label
_atom_site_fract_x
_atom_site_fract_y
_atom_site_fract_z
Si Si1 0.262489 0.568923 0.789560
Si Si2 0.904254 0.198974 0.439961
Si Si3 0.500000 0.085328 0.750000
Si Si4 0.833381 0.473245 0.149006
Si Si5 0.575780 0.713093 0.813731
Si Si6 0.987803 0.870380 0.602954
Si Si7 0.389131 0.791641 0.022801
Si Si8 0.366918 0.352037 0.782112
O O1 0.252086 0.856872 0.769867
O O2 0.225321 0.488006 0.851388
O O3 0.320912 0.532275 0.799330
O O4 0.890407 0.449267 0.480702
O O5 0.887426 0.237005 0.357930
O O6 0.963095 0.139371 0.441568
O O7 0.881504 0.949911 0.473480
O O8 0.502084 0.241496 0.678101
O O9 0.548196 0.914789 0.764097
O O10 0.872816 0.697893 0.148874
O O11 0.849399 0.301474 0.084463
O O12 0.845734 0.351203 0.226436
O O13 0.536622 0.629973 0.872245
O O14 0.591487 0.492047 0.761980
O O15 0.942475 0.732029 0.563460
#
# Coordination Sequence:
#
# PCOD9290012 Si02
#       8
#     8   8   4   8   8   8   8   8
#     4  10  22  40  73 107 132 167 229 293 346 401
#     4  12  29  44  66 100 141 185 229 278 337 406
#     4  12  24  36  68 104 132 170 238 286 342 394
#     4  11  23  44  73 100 132 179 232 285 344 407
#     4  12  21  40  70  99 136 171 232 286 342 393
#     4  12  25  43  61 100 132 191 223 281 332 413
#     4  12  27  46  67  96 144 185 226 274 343 409
#     4  11  24  45  70 102 135 176 232 291 343 404
#
# _framework density 22.017219999999998
#
# number of rings (size 3 to 8) (size 9 to 14) (size 15 to 20)
#    0.000    0.533    4.000    4.400    5.600    0.000 
#    0.000    1.333    0.000    0.000    0.000    0.000 
#    0.000    0.000    0.000    0.000    0.000    0.000 
#
# Total GULP energy -167699.102963 kJ/mol
# GULP energy per Si atom -5589.970099 kJ/mol
# Density = 2.196711 g / cm^3
# Si number density = 22.017220 Si / 1000 Ang^3
#
#
#
# Elastic Constant Matrix: (Units=GPa)
#
#
# Indices 1 2 3 4 5 6 
#
# 1 68.9282 -6.0568 5.5809 0.0000 -29.2759 0.0000
# 2 -6.0568 91.2704 29.4247 0.0000 -7.6782 0.0000
# 3 5.5809 29.4247 88.4079 0.0000 -8.4007 0.0000
# 4 0.0000 0.0000 0.0000 30.0955 0.0000 -3.9420
# 5 -29.2759 -7.6782 -8.4007 0.0000 20.7727 0.0000
# 6 0.0000 0.0000 0.0000 -3.9420 0.0000 23.9131
#
#
#
# Elastic Compliance Matrix: (Units=1/GPa)
#
#
# Indices 1 2 3 4 5 6 
#
# 1 0.040937 0.007618 0.000655 0.000000 0.060776 0.000000
# 2 0.007618 0.013874 -0.003734 0.000000 0.014354 0.000000
# 3 0.000655 -0.003734 0.012968 0.000000 0.004787 0.000000
# 4 0.000000 0.000000 0.000000 0.033961 0.000000 0.005598
# 5 0.060776 0.014354 0.004787 0.000000 0.141035 0.000000
# 6 0.000000 0.000000 0.000000 0.005598 0.000000 0.042741
#
#
# Mechanical properties :
#
#
# Convention : Reuss Voigt Hill
#
# Bulk Modulus (GPa) = 13.01125 34.05601 23.53363
# Shear Modulus (GPa) = 16.55318 29.60011 23.07665
#
# Velocity S-wave (km/s) = 2.74492 3.67059 3.24098
# Velocity P-wave (km/s) = 3.99607 5.78497 4.97164
#
# Compressibility (1/GPa) = 0.07685659
#
# Stress axis : x y z
#
# Youngs Moduli (GPa) = 24.42753 72.07967 77.11478
#
# Poissons Ratio (x) = -0.54912 -0.05053
# Poissons Ratio (y) = -0.18609 0.28798
# Poissons Ratio (z) = -0.01601 0.26918
#
# Static dielectric constant tensor:
#      x y z
#    x 1.845930 0.000000 -0.024500 
#    y 0.000000 1.865840 0.000000 
#    z -0.024500 0.000000 1.808510 
# 
# From -- ./inp_files/221252.got.cif
#   From: 2010.05.17/outbox.cif.g08.bks.cpg/sg15_111_cif.got.tgz:221252.got - 2010.06.03 18:47:42.
