data_PCOD9290903
_publ_section_title
;
Structure prediction by ZEFSAII (Michael W. Deem and Ramdas Pophale) SiO2 
 PCOD9290903
Probable space group: C 2/C
;
_chemical_formula_sum "Si O2"
_cell_formula_units_Z 36
_cell_length_a 18.391283
_cell_length_b 7.543397
_cell_length_c 10.548555
_cell_angle_alpha 90.000000
_cell_angle_beta 94.065847
_cell_angle_gamma 90.000000
_cell_volume 1459.746908
_symmetry_space_group_name_H-M "C 2/C"
_symmetry_group_IT_number 15
_symmetry_cell_setting 'monoclinic'
loop_
_space_group_symop_operation_xyz
x,y,z
-x,y,1/2-z
-x,-y,-z
x,-y,1/2+z
1/2+x,1/2+y,z
1/2-x,1/2+y,1/2-z
1/2-x,1/2-y,-z
1/2+x,1/2-y,1/2+z
loop_
_atom_site_type_symbol
_atom_site_label
_atom_site_fract_x
_atom_site_fract_y
_atom_site_fract_z
Si Si1 0.223739 0.248515 0.692696
Si Si2 0.000000 0.577260 0.250000
Si Si3 0.139109 0.207794 0.436707
Si Si4 0.614064 0.330937 0.399939
Si Si5 0.876394 0.543771 0.907332
O O1 0.191522 0.151679 0.562601
O O2 0.309378 0.258542 0.677628
O O3 0.181423 0.180627 0.809929
O O4 0.191318 0.447816 0.669772
O O5 0.950936 0.711254 0.161583
O O6 0.945413 0.459502 0.325071
O O7 0.106792 0.392727 0.481508
O O8 0.091016 0.035076 0.410520
O O9 0.638026 0.230152 0.530098
#
# Coordination Sequence:
#
# PCOD9290903 Si02
#       5
#     8   4   8   8   8
#     4   8  20  39  53  93 122 134 201 249 271 373
#     4  10  22  42  56  88 124 146 214 244 268 358
#     4   9  20  39  57  89 120 147 198 240 293 353
#     4  11  21  38  63  82 119 164 185 243 301 334
#     4   9  20  40  58  84 119 155 195 243 287 346
#
# _framework density 24.661812000000001
#
# number of rings (size 3 to 8) (size 9 to 14) (size 15 to 20)
#    1.333    1.333    0.000    0.667    3.111    1.778 
#    8.000    2.222    0.000    0.000    0.000    0.000 
#    0.000    0.000    0.000    0.000    0.000    0.000 
#
# Total GULP energy -100541.650773 kJ/mol
# GULP energy per Si atom -5585.647265 kJ/mol
# Density = 2.460568 g / cm^3
# Si number density = 24.661812 Si / 1000 Ang^3
#
#
#
# Elastic Constant Matrix: (Units=GPa)
#
#
# Indices 1 2 3 4 5 6 
#
# 1 60.7977 -4.2739 21.2002 0.0000 -23.0566 0.0000
# 2 -4.2739 107.8874 17.4186 0.0000 1.0080 0.0000
# 3 21.2002 17.4186 85.5968 0.0000 -32.6820 0.0000
# 4 0.0000 0.0000 0.0000 20.7718 0.0000 -0.9956
# 5 -23.0566 1.0080 -32.6820 0.0000 36.1280 0.0000
# 6 0.0000 0.0000 0.0000 -0.9956 0.0000 24.1396
#
#
#
# Elastic Compliance Matrix: (Units=1/GPa)
#
#
# Indices 1 2 3 4 5 6 
#
# 1 0.021766 0.000800 -0.000395 0.000000 0.013511 0.000000
# 2 0.000800 0.009847 -0.003226 0.000000 -0.002683 0.000000
# 3 -0.000395 -0.003226 0.018905 0.000000 0.016940 0.000000
# 4 0.000000 0.000000 0.000000 0.048238 0.000000 0.001989
# 5 0.013511 -0.002683 0.016940 0.000000 0.051701 0.000000
# 6 0.000000 0.000000 0.000000 0.001989 0.000000 0.041508
#
#
# Mechanical properties :
#
#
# Convention : Reuss Voigt Hill
#
# Bulk Modulus (GPa) = 22.28425 35.88576 29.08500
# Shear Modulus (GPa) = 23.52234 30.87034 27.19634
#
# Velocity S-wave (km/s) = 3.09171 3.54184 3.32440
# Velocity P-wave (km/s) = 4.66909 5.59544 5.15312
#
# Compressibility (1/GPa) = 0.04487475
#
# Stress axis : x y z
#
# Youngs Moduli (GPa) = 45.94355 101.55860 52.89679
#
# Poissons Ratio (x) = -0.08122 0.02088
# Poissons Ratio (y) = -0.03674 0.17065
# Poissons Ratio (z) = 0.01814 0.32764
#
# Static dielectric constant tensor:
#      x y z
#    x 1.968140 0.000000 0.127130 
#    y 0.000000 1.939540 0.000000 
#    z 0.127130 0.000000 2.053340 
# 
# From -- ./inp_files/109330.got.cif
#   From: 2010.05.17/outbox.cif.g08.bks.cpg/sg15_55_cif.got.tgz:109330.got - 2010.06.03 18:47:42.
