data_PCOD9290524
_publ_section_title
;
Structure prediction by ZEFSAII (Michael W. Deem and Ramdas Pophale) SiO2 
 PCOD9290524
Probable space group: C 2/C
;
_chemical_formula_sum "Si O2"
_cell_formula_units_Z 52
_cell_length_a 21.896151
_cell_length_b 15.895643
_cell_length_c 11.424653
_cell_angle_alpha 90.000000
_cell_angle_beta 142.503081
_cell_angle_gamma 90.000000
_cell_volume 2420.502799
_symmetry_space_group_name_H-M "C 2/C"
_symmetry_group_IT_number 15
_symmetry_cell_setting 'monoclinic'
loop_
_space_group_symop_operation_xyz
x,y,z
-x,y,1/2-z
-x,-y,-z
x,-y,1/2+z
1/2+x,1/2+y,z
1/2-x,1/2+y,1/2-z
1/2-x,1/2-y,-z
1/2+x,1/2-y,1/2+z
loop_
_atom_site_type_symbol
_atom_site_label
_atom_site_fract_x
_atom_site_fract_y
_atom_site_fract_z
Si Si1 0.260044 0.432697 0.677149
Si Si2 0.561144 0.039098 0.741795
Si Si3 0.477525 0.740948 0.854605
Si Si4 0.355630 0.275200 0.717333
Si Si5 0.883537 0.389895 0.841599
Si Si6 0.000000 0.161675 0.250000
Si Si7 0.918129 0.071877 0.903146
O O1 0.161879 0.425191 0.448256
O O2 0.338640 0.367513 0.745577
O O3 0.218850 0.401968 0.740965
O O4 0.310379 0.524579 0.742500
O O5 0.500000 0.989739 0.750000
O O6 0.597646 0.975447 0.699767
O O7 0.479714 0.106565 0.575057
O O8 0.500000 0.738348 0.750000
O O9 0.397214 0.810630 0.777282
O O10 0.436839 0.650951 0.843773
O O11 0.581795 0.766455 0.081128
O O12 0.250000 0.250000 0.500000
O O13 0.428370 0.282184 0.718587
O O14 0.061770 0.106029 0.435763
O O15 0.000000 0.000000 0.000000
#
# Coordination Sequence:
#
# PCOD9290524 Si02
#       7
#     8   8   8   8   8   4   8
#     4  11  23  40  67  98 128 179 238 278 343 419
#     4   9  20  41  65  93 135 182 234 282 340 415
#     4  11  25  46  71 103 148 180 225 297 360 413
#     4  11  25  43  71 100 132 178 235 286 344 416
#     4  10  22  41  66  98 139 180 223 290 356 411
#     4  10  24  44  70  94 136 180 234 282 338 408
#     4  11  24  44  68  97 135 186 227 283 341 416
#
# _framework density 21.483139999999999
#
# number of rings (size 3 to 8) (size 9 to 14) (size 15 to 20)
#    0.000    1.538    3.077    1.385    7.538    1.231 
#    6.923    1.538    0.000    0.000    0.000    0.000 
#    0.000    0.000    0.000    0.000    0.000    0.000 
#
# Total GULP energy -144940.508522 kJ/mol
# GULP energy per Si atom -5574.634943 kJ/mol
# Density = 2.143424 g / cm^3
# Si number density = 21.483140 Si / 1000 Ang^3
#
#
#
# Elastic Constant Matrix: (Units=GPa)
#
#
# Indices 1 2 3 4 5 6 
#
# 1 169.6594 57.4002 49.5296 0.0000 -10.9073 0.0000
# 2 57.4002 91.1659 6.8043 0.0000 1.0782 0.0000
# 3 49.5296 6.8043 61.0521 0.0000 -5.1063 0.0000
# 4 0.0000 0.0000 0.0000 17.8349 0.0000 2.1795
# 5 -10.9073 1.0782 -5.1063 0.0000 35.8699 0.0000
# 6 0.0000 0.0000 0.0000 2.1795 0.0000 23.6415
#
#
#
# Elastic Compliance Matrix: (Units=1/GPa)
#
#
# Indices 1 2 3 4 5 6 
#
# 1 0.010201 -0.005894 -0.007433 0.000000 0.002221 0.000000
# 2 -0.005894 0.014476 0.003018 0.000000 -0.001798 0.000000
# 3 -0.007433 0.003018 0.022140 0.000000 0.000801 0.000000
# 4 0.000000 0.000000 0.000000 0.056709 0.000000 -0.005228
# 5 0.002221 -0.001798 0.000801 0.000000 0.028722 0.000000
# 6 0.000000 0.000000 0.000000 -0.005228 0.000000 0.042780
#
#
# Mechanical properties :
#
#
# Convention : Reuss Voigt Hill
#
# Bulk Modulus (GPa) = 38.16947 61.03843 49.60395
# Shear Modulus (GPa) = 24.46414 29.34548 26.90481
#
# Velocity S-wave (km/s) = 3.37821 3.69992 3.54272
# Velocity P-wave (km/s) = 5.74649 6.83568 6.31461
#
# Compressibility (1/GPa) = 0.02619895
#
# Stress axis : x y z
#
# Youngs Moduli (GPa) = 98.02783 69.07864 45.16641
#
# Poissons Ratio (x) = 0.40718 0.33573
# Poissons Ratio (y) = 0.57781 -0.13632
# Poissons Ratio (z) = 0.72866 -0.20849
#
# Static dielectric constant tensor:
#      x y z
#    x 1.777890 0.000000 -0.019020 
#    y 0.000000 1.801050 0.000000 
#    z -0.019020 0.000000 1.880520 
# 
# From -- ./inp_files/113695.got.cif
#   From: 2010.05.17/outbox.cif.g08.bks.cpg/sg15_57_cif.got.tgz:113695.got - 2010.06.03 18:47:42.
