data_PCOD9290270
_publ_section_title
;
Structure prediction by ZEFSAII (Michael W. Deem and Ramdas Pophale) SiO2 
 PCOD9290270
Probable space group: C 2/C
;
_chemical_formula_sum "Si O2"
_cell_formula_units_Z 40
_cell_length_a 15.039561
_cell_length_b 9.780133
_cell_length_c 11.542936
_cell_angle_alpha 90.000000
_cell_angle_beta 83.364111
_cell_angle_gamma 90.000000
_cell_volume 1686.463303
_symmetry_space_group_name_H-M "C 2/C"
_symmetry_group_IT_number 15
_symmetry_cell_setting 'monoclinic'
loop_
_space_group_symop_operation_xyz
x,y,z
-x,y,1/2-z
-x,-y,-z
x,-y,1/2+z
1/2+x,1/2+y,z
1/2-x,1/2+y,1/2-z
1/2-x,1/2-y,-z
1/2+x,1/2-y,1/2+z
loop_
_atom_site_type_symbol
_atom_site_label
_atom_site_fract_x
_atom_site_fract_y
_atom_site_fract_z
Si Si1 0.098380 0.770704 0.694733
Si Si2 0.782754 0.673476 0.611879
Si Si3 0.320788 0.638425 0.531854
Si Si4 0.397525 0.713064 0.754871
Si Si5 0.650770 0.018174 0.091392
O O1 0.165411 0.754478 0.794352
O O2 0.123352 0.880376 0.592646
O O3 0.100620 0.620391 0.633505
O O4 0.000000 0.801378 0.750000
O O5 0.750000 0.750000 0.500000
O O6 0.688164 0.630513 0.681635
O O7 0.849977 0.562661 0.544183
O O8 0.250000 0.750000 0.500000
O O9 0.378964 0.707193 0.621709
O O10 0.257188 0.518458 0.588904
O O11 0.500000 0.667695 0.750000
O O12 0.383743 0.860338 0.820354
#
# Coordination Sequence:
#
# PCOD9290270 Si02
#       5
#     8   8   8   8   8
#     4  11  24  39  65  99 130 171 222 273 323 386
#     4  10  23  41  63  92 134 174 211 270 331 385
#     4  10  22  41  64  94 138 170 211 273 334 378
#     4  11  23  43  69  99 131 172 219 271 326 393
#     4  10  23  41  68  92 128 175 215 266 328 387
#
# _framework density 23.718275999999999
#
# number of rings (size 3 to 8) (size 9 to 14) (size 15 to 20)
#    0.000    1.600    4.000    0.600   11.200    0.800 
#    0.000    2.000    0.000    0.000    0.000    0.000 
#    0.000    0.000    0.000    0.000    0.000    0.000 
#
# Total GULP energy -111480.285547 kJ/mol
# GULP energy per Si atom -5574.014277 kJ/mol
# Density = 2.366429 g / cm^3
# Si number density = 23.718276 Si / 1000 Ang^3
#
#
#
# Elastic Constant Matrix: (Units=GPa)
#
#
# Indices 1 2 3 4 5 6 
#
# 1 147.3358 -4.9245 80.1100 0.0000 -15.6691 0.0000
# 2 -4.9245 51.4371 13.9377 0.0000 -2.0326 0.0000
# 3 80.1100 13.9377 162.9407 0.0000 -0.5209 0.0000
# 4 0.0000 0.0000 0.0000 23.3810 0.0000 -6.8598
# 5 -15.6691 -2.0326 -0.5209 0.0000 48.7518 0.0000
# 6 0.0000 0.0000 0.0000 -6.8598 0.0000 15.5394
#
#
#
# Elastic Compliance Matrix: (Units=1/GPa)
#
#
# Indices 1 2 3 4 5 6 
#
# 1 0.009999 0.002473 -0.005117 0.000000 0.003262 0.000000
# 2 0.002473 0.020546 -0.002968 0.000000 0.001620 0.000000
# 3 -0.005117 -0.002968 0.008902 0.000000 -0.001673 0.000000
# 4 0.000000 0.000000 0.000000 0.049133 0.000000 0.021690
# 5 0.003262 0.001620 -0.001673 0.000000 0.021610 0.000000
# 6 0.000000 0.000000 0.000000 0.021690 0.000000 0.073928
#
#
# Mechanical properties :
#
#
# Convention : Reuss Voigt Hill
#
# Bulk Modulus (GPa) = 35.43328 59.99555 47.71442
# Shear Modulus (GPa) = 24.41999 35.70712 30.06356
#
# Velocity S-wave (km/s) = 3.21220 3.88425 3.56410
# Velocity P-wave (km/s) = 5.35997 6.74288 6.09080
#
# Compressibility (1/GPa) = 0.02822205
#
# Stress axis : x y z
#
# Youngs Moduli (GPa) = 100.00871 48.67076 112.33933
#
# Poissons Ratio (x) = -0.12035 0.57486
# Poissons Ratio (y) = -0.24730 0.33343
# Poissons Ratio (z) = 0.51176 0.14446
#
# Static dielectric constant tensor:
#      x y z
#    x 1.871700 0.000000 -0.063020 
#    y 0.000000 2.065300 0.000000 
#    z -0.063020 0.000000 1.987450 
# 
# From -- ./inp_files/94532.got.cif
#   From: 2010.05.17/outbox.cif.g08.bks.cpg/sg15_48_cif.got.tgz:94532.got - 2010.06.03 18:47:42.
