data_PCOD9290068
_publ_section_title
;
Structure prediction by ZEFSAII (Michael W. Deem and Ramdas Pophale) SiO2 
 PCOD9290068
Probable space group: C 2/C
;
_chemical_formula_sum "Si O2"
_cell_formula_units_Z 64
_cell_length_a 11.442933
_cell_length_b 25.557188
_cell_length_c 10.985951
_cell_angle_alpha 90.000000
_cell_angle_beta 74.734854
_cell_angle_gamma 90.000000
_cell_volume 3099.476540
_symmetry_space_group_name_H-M "C 2/C"
_symmetry_group_IT_number 15
_symmetry_cell_setting 'monoclinic'
loop_
_space_group_symop_operation_xyz
x,y,z
-x,y,1/2-z
-x,-y,-z
x,-y,1/2+z
1/2+x,1/2+y,z
1/2-x,1/2+y,1/2-z
1/2-x,1/2-y,-z
1/2+x,1/2-y,1/2+z
loop_
_atom_site_type_symbol
_atom_site_label
_atom_site_fract_x
_atom_site_fract_y
_atom_site_fract_z
Si Si1 0.223044 0.686675 0.838952
Si Si2 0.099994 0.128156 0.525623
Si Si3 0.380522 0.705162 0.204905
Si Si4 0.211239 0.564730 0.154444
Si Si5 0.327293 0.383369 0.127689
Si Si6 0.047556 0.606134 0.008660
Si Si7 0.121092 0.544135 0.779021
Si Si8 0.263470 0.877184 0.614114
O O1 0.181515 0.746173 0.845878
O O2 0.272400 0.671032 0.692243
O O3 0.109236 0.651531 0.912090
O O4 0.326721 0.665885 0.902411
O O5 0.084438 0.162164 0.406581
O O6 0.179339 0.076596 0.470016
O O7 0.969156 0.113562 0.611611
O O8 0.500000 0.719774 0.250000
O O9 0.283580 0.677987 0.321531
O O10 0.146529 0.510398 0.204284
O O11 0.262371 0.582788 0.270004
O O12 0.109006 0.602633 0.124272
O O13 0.244801 0.424711 0.221930
O O14 0.302811 0.390040 0.992353
O O15 0.086392 0.551691 0.930360
O O16 0.906407 0.616767 0.053426
O O17 0.000000 0.567670 0.750000
#
# Coordination Sequence:
#
# PCOD9290068 Si02
#       8
#     8   8   8   8   8   8   8   8
#     4  10  24  40  65  90 126 165 211 261 311 381
#     4  10  22  47  62  88 132 170 208 259 320 374
#     4  11  23  39  65  96 124 165 216 261 316 378
#     4  10  24  39  64  91 127 170 211 263 312 379
#     4  11  23  39  66  91 126 170 205 264 312 377
#     4  10  22  41  60  91 129 163 207 264 323 370
#     4  11  22  37  64  97 124 166 218 262 314 371
#     4  11  22  39  62  93 128 163 207 265 320 369
#
# _framework density 20.648647
#
# number of rings (size 3 to 8) (size 9 to 14) (size 15 to 20)
#    0.000    1.500    2.500    1.875    3.500    3.000 
#    0.000    3.750    8.250    0.000    0.000    0.000 
#    0.000    0.000    0.000    0.000    0.000    0.000 
#
# Total GULP energy -178425.421285 kJ/mol
# GULP energy per Si atom -5575.794415 kJ/mol
# Density = 2.060165 g / cm^3
# Si number density = 20.648647 Si / 1000 Ang^3
#
#
#
# Elastic Constant Matrix: (Units=GPa)
#
#
# Indices 1 2 3 4 5 6 
#
# 1 98.4314 27.6456 28.2988 0.0000 -25.7716 0.0000
# 2 27.6456 52.1843 21.2942 0.0000 -26.3600 0.0000
# 3 28.2988 21.2942 80.5889 0.0000 -4.2870 0.0000
# 4 0.0000 0.0000 0.0000 21.1563 0.0000 3.7027
# 5 -25.7716 -26.3600 -4.2870 0.0000 46.4599 0.0000
# 6 0.0000 0.0000 0.0000 3.7027 0.0000 19.4246
#
#
#
# Elastic Compliance Matrix: (Units=1/GPa)
#
#
# Indices 1 2 3 4 5 6 
#
# 1 0.013460 -0.002843 -0.003682 0.000000 0.005513 0.000000
# 2 -0.002843 0.031096 -0.006395 0.000000 0.015476 0.000000
# 3 -0.003682 -0.006395 0.015164 0.000000 -0.004271 0.000000
# 4 0.000000 0.000000 0.000000 0.048899 0.000000 -0.009321
# 5 0.005513 0.015476 -0.004271 0.000000 0.032968 0.000000
# 6 0.000000 0.000000 0.000000 -0.009321 0.000000 0.053258
#
#
# Mechanical properties :
#
#
# Convention : Reuss Voigt Hill
#
# Bulk Modulus (GPa) = 29.51612 42.85352 36.18482
# Shear Modulus (GPa) = 21.55375 27.67257 24.61316
#
# Velocity S-wave (km/s) = 3.23435 3.66480 3.45628
# Velocity P-wave (km/s) = 5.31728 6.22144 5.78705
#
# Compressibility (1/GPa) = 0.03387979
#
# Stress axis : x y z
#
# Youngs Moduli (GPa) = 74.29426 32.15871 65.94540
#
# Poissons Ratio (x) = 0.09144 0.24280
# Poissons Ratio (y) = 0.21124 0.42171
# Poissons Ratio (z) = 0.27354 0.20565
#
# Static dielectric constant tensor:
#      x y z
#    x 1.741980 0.000000 0.021240 
#    y 0.000000 1.759090 0.000000 
#    z 0.021240 0.000000 1.795100 
# 
# From -- ./inp_files/91250.got.cif
#   From: 2010.05.17/outbox.cif.g08.bks.cpg/sg15_46_cif.got.tgz:91250.got - 2010.06.03 18:47:42.
