data_PCOD9290197
_publ_section_title
;
Structure prediction by ZEFSAII (Michael W. Deem and Ramdas Pophale) SiO2 
 PCOD9290197
Probable space group: C 2/C
;
_chemical_formula_sum "Si O2"
_cell_formula_units_Z 44
_cell_length_a 8.355454
_cell_length_b 11.199278
_cell_length_c 20.679991
_cell_angle_alpha 90.000000
_cell_angle_beta 82.849496
_cell_angle_gamma 90.000000
_cell_volume 1920.080952
_symmetry_space_group_name_H-M "C 2/C"
_symmetry_group_IT_number 15
_symmetry_cell_setting 'monoclinic'
loop_
_space_group_symop_operation_xyz
x,y,z
-x,y,1/2-z
-x,-y,-z
x,-y,1/2+z
1/2+x,1/2+y,z
1/2-x,1/2+y,1/2-z
1/2-x,1/2-y,-z
1/2+x,1/2-y,1/2+z
loop_
_atom_site_type_symbol
_atom_site_label
_atom_site_fract_x
_atom_site_fract_y
_atom_site_fract_z
Si Si1 0.000000 0.879981 0.750000
Si Si2 0.777483 0.529468 0.950569
Si Si3 0.592877 0.855214 0.931030
Si Si4 0.648226 0.049469 0.290287
Si Si5 0.981420 0.678140 0.856491
Si Si6 0.588209 0.306508 0.980007
O O1 0.171457 0.947911 0.748077
O O2 0.975627 0.791391 0.811280
O O3 0.627676 0.439812 0.956056
O O4 0.936100 0.441838 0.942634
O O5 0.817977 0.610067 0.885954
O O6 0.785481 0.595068 0.020180
O O7 0.647301 0.869006 0.854876
O O8 0.540672 0.723897 0.957749
O O9 0.500000 0.085004 0.250000
O O10 0.599843 0.917643 0.317607
O O11 0.043728 0.725042 0.921761
O O12 0.750000 0.250000 0.000000
#
# Coordination Sequence:
#
# PCOD9290197 Si02
#       6
#     4   8   8   8   8   8
#     4  12  28  44  64 100 130 182 232 262 322 408
#     4   8  15  32  62  94 126 165 204 271 337 377
#     4   8  16  32  56  95 123 162 215 264 323 391
#     4  11  24  46  67  90 136 180 220 276 326 383
#     4  10  22  41  63  93 137 169 217 280 323 388
#     4   9  16  30  66  99 122 169 216 261 344 397
#
# _framework density 22.915700999999999
#
# number of rings (size 3 to 8) (size 9 to 14) (size 15 to 20)
#    0.000    2.545    0.909    3.273    7.636    0.000 
#    1.636    3.636    0.000    5.455    0.000    0.000 
#    0.000    0.000    0.000    0.000    0.000    0.000 
#
# Total GULP energy -122819.415565 kJ/mol
# GULP energy per Si atom -5582.700707 kJ/mol
# Density = 2.286354 g / cm^3
# Si number density = 22.915701 Si / 1000 Ang^3
#
#
#
# Elastic Constant Matrix: (Units=GPa)
#
#
# Indices 1 2 3 4 5 6 
#
# 1 109.8455 51.4731 59.2507 0.0000 -33.9563 0.0000
# 2 51.4731 80.9918 37.4709 0.0000 -24.4776 0.0000
# 3 59.2507 37.4709 113.4147 0.0000 -15.7081 0.0000
# 4 0.0000 0.0000 0.0000 35.3044 0.0000 -7.2245
# 5 -33.9563 -24.4776 -15.7081 0.0000 30.2211 0.0000
# 6 0.0000 0.0000 0.0000 -7.2245 0.0000 35.6155
#
#
#
# Elastic Compliance Matrix: (Units=1/GPa)
#
#
# Indices 1 2 3 4 5 6 
#
# 1 0.019375 -0.004967 -0.006490 0.000000 0.014374 0.000000
# 2 -0.004967 0.019341 -0.002585 0.000000 0.008741 0.000000
# 3 -0.006490 -0.002585 0.012674 0.000000 -0.002798 0.000000
# 4 0.000000 0.000000 0.000000 0.029552 0.000000 0.005994
# 5 0.014374 0.008741 -0.002798 0.000000 0.054865 0.000000
# 6 0.000000 0.000000 0.000000 0.005994 0.000000 0.029294
#
#
# Mechanical properties :
#
#
# Convention : Reuss Voigt Hill
#
# Bulk Modulus (GPa) = 42.90555 66.73792 54.82174
# Shear Modulus (GPa) = 24.88133 30.63204 27.75668
#
# Velocity S-wave (km/s) = 3.29869 3.66009 3.48408
# Velocity P-wave (km/s) = 5.76821 6.85917 6.33721
#
# Compressibility (1/GPa) = 0.02330701
#
# Stress axis : x y z
#
# Youngs Moduli (GPa) = 51.61191 51.70339 78.89982
#
# Poissons Ratio (x) = 0.25681 0.51209
# Poissons Ratio (y) = 0.25635 0.20392
# Poissons Ratio (z) = 0.33498 0.13363
#
# Static dielectric constant tensor:
#      x y z
#    x 1.902140 0.000000 -0.049550 
#    y 0.000000 1.988050 0.000000 
#    z -0.049550 0.000000 1.842410 
# 
# From -- ./inp_files/230159.got.cif
#   From: 2010.05.17/outbox.cif.g08.bks.cpg/sg15_116_cif.got.tgz:230159.got - 2010.06.03 18:47:42.
