data_PCOD9290857
_publ_section_title
;
Structure prediction by ZEFSAII (Michael W. Deem and Ramdas Pophale) SiO2 
 PCOD9290857
Probable space group: C 2/C
;
_chemical_formula_sum "Si O2"
_cell_formula_units_Z 32
_cell_length_a 15.638048
_cell_length_b 11.543642
_cell_length_c 10.727717
_cell_angle_alpha 90.000000
_cell_angle_beta 42.998960
_cell_angle_gamma 90.000000
_cell_volume 1320.710335
_symmetry_space_group_name_H-M "C 2/C"
_symmetry_group_IT_number 15
_symmetry_cell_setting 'monoclinic'
loop_
_space_group_symop_operation_xyz
x,y,z
-x,y,1/2-z
-x,-y,-z
x,-y,1/2+z
1/2+x,1/2+y,z
1/2-x,1/2+y,1/2-z
1/2-x,1/2-y,-z
1/2+x,1/2-y,1/2+z
loop_
_atom_site_type_symbol
_atom_site_label
_atom_site_fract_x
_atom_site_fract_y
_atom_site_fract_z
Si Si1 0.351065 0.986255 0.798748
Si Si2 0.431067 0.558627 0.455034
Si Si3 0.369669 0.792608 0.946035
Si Si4 0.499220 0.810002 0.042772
O O1 0.361533 0.929458 0.924559
O O2 0.411832 0.890011 0.640384
O O3 0.429100 0.103219 0.708418
O O4 0.209344 0.011212 0.910406
O O5 0.500000 0.536033 0.250000
O O6 0.500000 0.500000 0.500000
O O7 0.434229 0.697370 0.475002
O O8 0.500000 0.746181 0.750000
O O9 0.250000 0.750000 0.000000
O O10 0.385558 0.767944 0.072915
#
# Coordination Sequence:
#
# PCOD9290857 Si02
#       4
#     8   8   8   8
#     4  10  25  46  76 108 157 203 258 313 402 467
#     4  12  30  49  78 118 159 201 265 328 390 459
#     4  10  22  41  72 105 146 197 253 310 383 461
#     4  10  25  48  76 109 151 207 257 323 392 466
#
# _framework density 24.229386000000002
#
# number of rings (size 3 to 8) (size 9 to 14) (size 15 to 20)
#    0.000    1.500    0.000    1.500   14.000   10.000 
#    0.000    0.000    0.000    0.000    0.000    0.000 
#    0.000    0.000    0.000    0.000    0.000    0.000 
#
# Total GULP energy -89546.731404 kJ/mol
# GULP energy per Si atom -5596.670713 kJ/mol
# Density = 2.417424 g / cm^3
# Si number density = 24.229386 Si / 1000 Ang^3
#
#
#
# Elastic Constant Matrix: (Units=GPa)
#
#
# Indices 1 2 3 4 5 6 
#
# 1 166.4661 38.2463 64.0652 0.0000 -25.4030 0.0000
# 2 38.2463 131.2469 34.0804 0.0000 -10.0857 0.0000
# 3 64.0652 34.0804 86.2482 0.0000 -16.4978 0.0000
# 4 0.0000 0.0000 0.0000 25.9334 0.0000 -7.7473
# 5 -25.4030 -10.0857 -16.4978 0.0000 47.4070 0.0000
# 6 0.0000 0.0000 0.0000 -7.7473 0.0000 51.3454
#
#
#
# Elastic Compliance Matrix: (Units=1/GPa)
#
#
# Indices 1 2 3 4 5 6 
#
# 1 0.008789 -0.000888 -0.005692 0.000000 0.002540 0.000000
# 2 -0.000888 0.008601 -0.002657 0.000000 0.000429 0.000000
# 3 -0.005692 -0.002657 0.017335 0.000000 0.002417 0.000000
# 4 0.000000 0.000000 0.000000 0.040380 0.000000 0.006093
# 5 0.002540 0.000429 0.002417 0.000000 0.023388 0.000000
# 6 0.000000 0.000000 0.000000 0.006093 0.000000 0.020395
#
#
# Mechanical properties :
#
#
# Convention : Reuss Voigt Hill
#
# Bulk Modulus (GPa) = 61.53379 72.97167 67.25273
# Shear Modulus (GPa) = 35.01911 41.44178 38.23044
#
# Velocity S-wave (km/s) = 3.80585 4.14018 3.97653
# Velocity P-wave (km/s) = 6.69060 7.28266 6.99290
#
# Compressibility (1/GPa) = 0.01625123
#
# Stress axis : x y z
#
# Youngs Moduli (GPa) = 113.77219 116.26697 57.68786
#
# Poissons Ratio (x) = 0.10326 0.32836
# Poissons Ratio (y) = 0.10104 0.15326
# Poissons Ratio (z) = 0.64760 0.30889
#
# Static dielectric constant tensor:
#      x y z
#    x 1.948740 0.000000 0.013660 
#    y 0.000000 2.000130 0.000000 
#    z 0.013660 0.000000 2.016990 
# 
# From -- ./inp_files/103485.got.cif
#   From: 2010.05.17/outbox.cif.g08.bks.cpg/sg15_52_cif.got.tgz:103485.got - 2010.06.03 18:47:42.
