data_PCOD9290023
_publ_section_title
;
Structure prediction by ZEFSAII (Michael W. Deem and Ramdas Pophale) SiO2 
 PCOD9290023
Probable space group: C 2/C
;
_chemical_formula_sum "Si O2"
_cell_formula_units_Z 44
_cell_length_a 26.777583
_cell_length_b 7.590673
_cell_length_c 14.503740
_cell_angle_alpha 90.000000
_cell_angle_beta 39.684989
_cell_angle_gamma 90.000000
_cell_volume 1882.511349
_symmetry_space_group_name_H-M "C 2/C"
_symmetry_group_IT_number 15
_symmetry_cell_setting 'monoclinic'
loop_
_space_group_symop_operation_xyz
x,y,z
-x,y,1/2-z
-x,-y,-z
x,-y,1/2+z
1/2+x,1/2+y,z
1/2-x,1/2+y,1/2-z
1/2-x,1/2-y,-z
1/2+x,1/2-y,1/2+z
loop_
_atom_site_type_symbol
_atom_site_label
_atom_site_fract_x
_atom_site_fract_y
_atom_site_fract_z
Si Si1 0.761233 0.414087 0.184332
Si Si2 0.493962 0.342300 0.583814
Si Si3 0.352252 0.743628 0.884995
Si Si4 0.863561 0.373988 0.668285
Si Si5 0.188588 0.131504 0.140834
Si Si6 0.000000 0.056062 0.750000
O O1 0.819705 0.462741 0.183764
O O2 0.686627 0.289071 0.302579
O O3 0.722037 0.587444 0.194298
O O4 0.811974 0.325498 0.030962
O O5 0.500000 0.500000 0.500000
O O6 0.546954 0.175366 0.481858
O O7 0.401529 0.304329 0.728349
O O8 0.527783 0.426990 0.629477
O O9 0.354479 0.864759 0.791358
O O10 0.314573 0.558619 0.906277
O O11 0.437403 0.682618 0.793354
O O12 0.250000 0.250000 0.000000
#
# Coordination Sequence:
#
# PCOD9290023 Si02
#       6
#     8   8   8   8   8   4
#     4  11  25  41  72  99 145 186 237 305 357 424
#     4  11  21  44  72 105 139 191 239 291 357 456
#     4  10  23  47  69 100 147 187 237 298 364 431
#     4  11  24  45  72 107 135 189 247 289 367 442
#     4  10  22  42  72 105 139 186 237 295 369 433
#     4  10  22  40  74  96 144 192 226 286 380 416
#
# _framework density 23.373031000000001
#
# number of rings (size 3 to 8) (size 9 to 14) (size 15 to 20)
#    0.000    1.455    5.455    2.182    7.636    1.455 
#    3.273    0.909    0.000    0.000    0.000    0.000 
#    0.000    0.000    0.000    0.000    0.000    0.000 
#
# Total GULP energy -123029.454197 kJ/mol
# GULP energy per Si atom -5592.247918 kJ/mol
# Density = 2.331983 g / cm^3
# Si number density = 23.373031 Si / 1000 Ang^3
#
#
#
# Elastic Constant Matrix: (Units=GPa)
#
#
# Indices 1 2 3 4 5 6 
#
# 1 115.8170 29.2336 34.6640 -0.0004 13.1823 0.0001
# 2 29.2336 73.5232 38.9617 0.0014 0.3746 -0.0005
# 3 34.6640 38.9617 134.0425 0.0004 -14.4119 -0.0002
# 4 -0.0004 0.0014 0.0004 41.8671 0.0001 -0.0136
# 5 13.1823 0.3746 -14.4119 0.0001 26.5098 0.0000
# 6 0.0001 -0.0005 -0.0002 -0.0136 0.0000 48.0864
#
#
#
# Elastic Compliance Matrix: (Units=1/GPa)
#
#
# Indices 1 2 3 4 5 6 
#
# 1 0.010966 -0.002871 -0.002744 0.000000 -0.006904 0.000000
# 2 -0.002871 0.017048 -0.004339 -0.000001 -0.001172 0.000000
# 3 -0.002744 -0.004339 0.010179 0.000000 0.006959 0.000000
# 4 0.000000 -0.000001 0.000000 0.023885 0.000000 0.000007
# 5 -0.006904 -0.001172 0.006959 0.000000 0.044955 0.000000
# 6 0.000000 0.000000 0.000000 0.000007 0.000000 0.020796
#
#
# Mechanical properties :
#
#
# Convention : Reuss Voigt Hill
#
# Bulk Modulus (GPa) = 54.68626 58.78904 56.73765
# Shear Modulus (GPa) = 32.50308 37.99422 35.24865
#
# Velocity S-wave (km/s) = 3.73315 4.03619 3.88763
# Velocity P-wave (km/s) = 6.48304 6.85042 6.66926
#
# Compressibility (1/GPa) = 0.01828613
#
# Stress axis : x y z
#
# Youngs Moduli (GPa) = 91.19110 58.65808 98.23925
#
# Poissons Ratio (x) = 0.16841 0.26953
# Poissons Ratio (y) = 0.26182 0.42624
# Poissons Ratio (z) = 0.25019 0.25451
#
# Static dielectric constant tensor:
#      x y z
#    x 1.943720 0.000000 -0.013090 
#    y 0.000000 1.974240 0.000000 
#    z -0.013090 0.000000 1.888010 
# 
# From -- ./inp_files/176448.got.cif
#   From: 2010.05.17/outbox.cif.g08.bks.cpg/sg15_89_cif.got.tgz:176448.got - 2010.06.03 18:47:42.
