data_PCOD9290339
_publ_section_title
;
Structure prediction by ZEFSAII (Michael W. Deem and Ramdas Pophale) SiO2 
 PCOD9290339
Probable space group: C 2/C
;
_chemical_formula_sum "Si O2"
_cell_formula_units_Z 32
_cell_length_a 11.174793
_cell_length_b 31.095014
_cell_length_c 5.076727
_cell_angle_alpha 90.000000
_cell_angle_beta 116.157155
_cell_angle_gamma 90.000000
_cell_volume 1583.402122
_symmetry_space_group_name_H-M "C 2/C"
_symmetry_group_IT_number 15
_symmetry_cell_setting 'monoclinic'
loop_
_space_group_symop_operation_xyz
x,y,z
-x,y,1/2-z
-x,-y,-z
x,-y,1/2+z
1/2+x,1/2+y,z
1/2-x,1/2+y,1/2-z
1/2-x,1/2-y,-z
1/2+x,1/2-y,1/2+z
loop_
_atom_site_type_symbol
_atom_site_label
_atom_site_fract_x
_atom_site_fract_y
_atom_site_fract_z
Si Si1 0.275113 0.779634 0.779008
Si Si2 0.287598 0.102602 0.893014
Si Si3 0.000000 0.325871 0.750000
Si Si4 0.000000 0.469016 0.750000
Si Si5 0.141385 0.128703 0.241659
O O1 0.250000 0.750000 0.500000
O O2 0.425052 0.797110 0.890470
O O3 0.183423 0.821780 0.730849
O O4 0.250000 0.750000 0.000000
O O5 0.240313 0.105112 0.545825
O O6 0.385289 0.143682 0.022205
O O7 0.374394 0.062288 0.073523
O O8 0.165195 0.107723 0.978616
O O9 0.000000 0.500000 0.500000
O O10 0.000000 0.127037 0.250000
#
# Coordination Sequence:
#
# PCOD9290339 Si02
#       5
#     8   8   4   4   8
#     4  11  24  36  56  83 116 160 208 277 317 348
#     4  10  22  41  65  91 121 166 202 251 316 380
#     4   9  22  40  58  80 120 156 208 254 316 370
#     4  11  22  40  72 106 130 148 196 264 316 376
#     4  11  23  40  62  86 122 170 222 247 305 388
#
# _framework density 20.209651000000001
#
# number of rings (size 3 to 8) (size 9 to 14) (size 15 to 20)
#    0.000    1.500    0.000    5.250    3.500   12.000 
#    0.000    0.000    0.000   15.000    0.000    0.000 
#    0.000    0.000    0.000    0.000    0.000    0.000 
#
# Total GULP energy -89343.007139 kJ/mol
# GULP energy per Si atom -5583.937946 kJ/mol
# Density = 2.016365 g / cm^3
# Si number density = 20.209651 Si / 1000 Ang^3
#
#
#
# Elastic Constant Matrix: (Units=GPa)
#
#
# Indices 1 2 3 4 5 6 
#
# 1 133.0555 51.8781 21.1175 0.0000 -8.1540 0.0000
# 2 51.8781 119.2061 38.0887 0.0000 -13.9838 0.0000
# 3 21.1175 38.0887 107.3072 0.0000 -28.9962 0.0000
# 4 0.0000 0.0000 0.0000 22.3695 0.0000 -17.5414
# 5 -8.1540 -13.9838 -28.9962 0.0000 37.1592 0.0000
# 6 0.0000 0.0000 0.0000 -17.5414 0.0000 17.7210
#
#
#
# Elastic Compliance Matrix: (Units=1/GPa)
#
#
# Indices 1 2 3 4 5 6 
#
# 1 0.009072 -0.003800 -0.000361 0.000000 0.000279 0.000000
# 2 -0.003800 0.011095 -0.002899 0.000000 0.001080 0.000000
# 3 -0.000361 -0.002899 0.012802 0.000000 0.008820 0.000000
# 4 0.000000 0.000000 0.000000 0.199764 0.000000 0.197739
# 5 0.000279 0.001080 0.008820 0.000000 0.034261 0.000000
# 6 0.000000 0.000000 0.000000 0.197739 0.000000 0.252165
#
#
# Mechanical properties :
#
#
# Convention : Reuss Voigt Hill
#
# Bulk Modulus (GPa) = 53.05105 64.63749 58.84427
# Shear Modulus (GPa) = 9.26678 32.01557 20.64117
#
# Velocity S-wave (km/s) = 2.14366 3.98448 3.19933
# Velocity P-wave (km/s) = 5.69512 7.29528 6.54429
#
# Compressibility (1/GPa) = 0.01884977
#
# Stress axis : x y z
#
# Youngs Moduli (GPa) = 110.23397 90.12761 78.11089
#
# Poissons Ratio (x) = 0.34247 0.02821
# Poissons Ratio (y) = 0.41887 0.22643
# Poissons Ratio (z) = 0.03981 0.26126
#
# Static dielectric constant tensor:
#      x y z
#    x 1.732140 0.000000 0.013890 
#    y 0.000000 1.703670 0.000000 
#    z 0.013890 0.000000 1.730250 
# 
# From -- ./inp_files/4789.got.cif
#   From: 2010.05.17/outbox.cif.g08.bks.cpg/sg15_3_cif.got.tgz:4789.got - 2010.06.03 18:47:42.
