data_PCOD9290942
_publ_section_title
;
Structure prediction by ZEFSAII (Michael W. Deem and Ramdas Pophale) SiO2 
 PCOD9290942
Probable space group: C 2/C
;
_chemical_formula_sum "Si O2"
_cell_formula_units_Z 56
_cell_length_a 14.882173
_cell_length_b 8.080516
_cell_length_c 26.485184
_cell_angle_alpha 90.000000
_cell_angle_beta 65.447731
_cell_angle_gamma 90.000000
_cell_volume 2897.013859
_symmetry_space_group_name_H-M "C 2/C"
_symmetry_group_IT_number 15
_symmetry_cell_setting 'monoclinic'
loop_
_space_group_symop_operation_xyz
x,y,z
-x,y,1/2-z
-x,-y,-z
x,-y,1/2+z
1/2+x,1/2+y,z
1/2-x,1/2+y,1/2-z
1/2-x,1/2-y,-z
1/2+x,1/2-y,1/2+z
loop_
_atom_site_type_symbol
_atom_site_label
_atom_site_fract_x
_atom_site_fract_y
_atom_site_fract_z
Si Si1 0.470528 0.697995 0.640353
Si Si2 0.529751 0.051845 0.624956
Si Si3 0.088934 0.432670 0.445183
Si Si4 0.741972 0.908236 0.037380
Si Si5 0.720435 0.213728 0.373666
Si Si6 0.076805 0.120258 0.511269
Si Si7 0.055162 0.882470 0.684036
O O1 0.353635 0.724690 0.653624
O O2 0.520087 0.687087 0.573265
O O3 0.511933 0.538952 0.661508
O O4 0.505790 0.874079 0.655062
O O5 0.447228 0.094278 0.603155
O O6 0.630132 0.032730 0.568804
O O7 0.535434 0.209115 0.659864
O O8 0.169395 0.573380 0.420124
O O9 0.114539 0.261669 0.465012
O O10 0.000000 0.500000 0.500000
O O11 0.767430 0.863643 0.089594
O O12 0.750000 0.750000 0.000000
O O13 0.824370 0.027225 0.996060
O O14 0.826068 0.133247 0.334704
O O15 0.000000 0.000000 0.500000
O O16 0.000000 0.887343 0.750000
#
# Coordination Sequence:
#
# PCOD9290942 Si02
#       7
#     8   8   8   8   8   8   8
#     4  11  23  42  66  97 132 168 226 267 329 411
#     4  10  23  40  61  95 128 169 218 275 318 401
#     4  11  19  36  61  92 134 167 204 252 322 405
#     4  11  21  33  56  90 134 172 211 250 314 393
#     4  10  22  42  61  94 129 169 220 272 318 404
#     4  12  20  32  60  91 132 178 201 247 327 400
#     4  11  26  49  69  89 129 171 230 296 348 378
#
# _framework density 19.330249999999999
#
# number of rings (size 3 to 8) (size 9 to 14) (size 15 to 20)
#    0.000    1.143    4.286    4.286    2.000    1.143 
#    5.143    0.000    0.000    0.000    0.000    0.000 
#    0.000    0.000    0.000    0.000    0.000    0.000 
#
# Total GULP energy -156138.613505 kJ/mol
# GULP energy per Si atom -5576.379054 kJ/mol
# Density = 1.928625 g / cm^3
# Si number density = 19.330250 Si / 1000 Ang^3
#
#
#
# Elastic Constant Matrix: (Units=GPa)
#
#
# Indices 1 2 3 4 5 6 
#
# 1 92.2871 50.2850 27.8217 0.0000 -9.5218 0.0000
# 2 50.2850 119.7448 24.7927 0.0000 4.4859 0.0000
# 3 27.8217 24.7927 73.8956 0.0000 -11.0082 0.0000
# 4 0.0000 0.0000 0.0000 14.9289 0.0000 0.1140
# 5 -9.5218 4.4859 -11.0082 0.0000 20.2939 0.0000
# 6 0.0000 0.0000 0.0000 0.1140 0.0000 35.8342
#
#
#
# Elastic Compliance Matrix: (Units=1/GPa)
#
#
# Indices 1 2 3 4 5 6 
#
# 1 0.015906 -0.006388 -0.002745 0.000000 0.007386 0.000000
# 2 -0.006388 0.011838 -0.002614 0.000000 -0.007032 0.000000
# 3 -0.002745 -0.002614 0.016686 0.000000 0.008341 0.000000
# 4 0.000000 0.000000 0.000000 0.066986 0.000000 -0.000213
# 5 0.007386 -0.007032 0.008341 0.000000 0.058820 0.000000
# 6 0.000000 0.000000 0.000000 -0.000213 0.000000 0.027907
#
#
# Mechanical properties :
#
#
# Convention : Reuss Voigt Hill
#
# Bulk Modulus (GPa) = 47.76604 54.63625 51.20115
# Shear Modulus (GPa) = 21.87069 26.41326 24.14198
#
# Velocity S-wave (km/s) = 3.36731 3.70052 3.53784
# Velocity P-wave (km/s) = 6.31526 6.82528 6.57522
#
# Compressibility (1/GPa) = 0.02093538
#
# Stress axis : x y z
#
# Youngs Moduli (GPa) = 62.86978 84.47175 59.93094
#
# Poissons Ratio (x) = 0.53958 0.16452
# Poissons Ratio (y) = 0.40160 0.15669
# Poissons Ratio (z) = 0.17259 0.22085
#
# Static dielectric constant tensor:
#      x y z
#    x 1.761280 0.000000 0.011910 
#    y 0.000000 1.842200 0.000000 
#    z 0.011910 0.000000 1.633310 
# 
# From -- ./inp_files/273070.got.cif
#   From: 2010.05.17/outbox.cif.g08.bks.cpg/sg15_137_cif.got.tgz:273070.got - 2010.06.03 18:47:42.
