data_PCOD9290938
_publ_section_title
;
Structure prediction by ZEFSAII (Michael W. Deem and Ramdas Pophale) SiO2 
 PCOD9290938
Probable space group: C 2/C
;
_chemical_formula_sum "Si O2"
_cell_formula_units_Z 40
_cell_length_a 23.298130
_cell_length_b 6.968674
_cell_length_c 26.438182
_cell_angle_alpha 90.000000
_cell_angle_beta 23.492603
_cell_angle_gamma 90.000000
_cell_volume 1711.092594
_symmetry_space_group_name_H-M "C 2/C"
_symmetry_group_IT_number 15
_symmetry_cell_setting 'monoclinic'
loop_
_space_group_symop_operation_xyz
x,y,z
-x,y,1/2-z
-x,-y,-z
x,-y,1/2+z
1/2+x,1/2+y,z
1/2-x,1/2+y,1/2-z
1/2-x,1/2-y,-z
1/2+x,1/2-y,1/2+z
loop_
_atom_site_type_symbol
_atom_site_label
_atom_site_fract_x
_atom_site_fract_y
_atom_site_fract_z
Si Si1 0.392196 0.492361 0.380561
Si Si2 0.068946 0.211672 0.302298
Si Si3 0.166008 0.470060 0.416277
Si Si4 0.429022 0.083912 0.396289
Si Si5 0.551181 0.299319 0.935196
O O1 0.500000 0.567742 0.250000
O O2 0.415812 0.620372 0.411209
O O3 0.226772 0.486730 0.498012
O O4 0.448428 0.280582 0.350731
O O5 0.093102 0.196755 0.342663
O O6 0.055380 0.425552 0.291099
O O7 0.188653 0.070963 0.183890
O O8 0.088088 0.390943 0.529322
O O9 0.174847 0.297434 0.369399
O O10 0.078726 0.644810 0.460749
O O11 0.500000 0.500000 0.000000
#
# Coordination Sequence:
#
# PCOD9290938 Si02
#       5
#     8   8   8   8   8
#     4  11  22  42  67  94 127 170 211 271 328 393
#     4  11  23  40  66  93 127 169 210 268 328 389
#     4  10  22  42  61  93 130 163 219 262 311 390
#     4  10  23  43  62  94 129 165 217 269 323 390
#     4  10  23  40  62  90 127 169 212 265 316 378
#
# _framework density 23.376875999999999
#
# number of rings (size 3 to 8) (size 9 to 14) (size 15 to 20)
#    0.000    1.600    2.000    1.800    2.800    2.400 
#   14.400    0.000    0.000    0.000    0.000    0.000 
#    0.000    0.000    0.000    0.000    0.000    0.000 
#
# Total GULP energy -111666.105638 kJ/mol
# GULP energy per Si atom -5583.305282 kJ/mol
# Density = 2.332367 g / cm^3
# Si number density = 23.376876 Si / 1000 Ang^3
#
#
#
# Elastic Constant Matrix: (Units=GPa)
#
#
# Indices 1 2 3 4 5 6 
#
# 1 107.4003 30.5287 3.3225 0.0003 -1.6134 -0.0015
# 2 30.5287 70.6129 10.7637 -0.0010 -3.9692 0.0015
# 3 3.3225 10.7637 32.2401 0.0016 -0.6037 -0.0008
# 4 0.0003 -0.0010 0.0016 20.8960 -0.0011 -7.3672
# 5 -1.6134 -3.9692 -0.6037 -0.0011 19.9525 0.0011
# 6 -0.0015 0.0015 -0.0008 -7.3672 0.0011 57.8305
#
#
#
# Elastic Compliance Matrix: (Units=1/GPa)
#
#
# Indices 1 2 3 4 5 6 
#
# 1 0.010622 -0.004666 0.000462 0.000000 -0.000055 0.000000
# 2 -0.004666 0.017131 -0.005185 0.000001 0.002874 -0.000001
# 3 0.000462 -0.005185 0.032701 -0.000003 -0.000005 0.000000
# 4 0.000000 0.000001 -0.000003 0.050107 0.000002 0.006383
# 5 -0.000055 0.002874 -0.000005 0.000002 0.050686 -0.000001
# 6 0.000000 -0.000001 0.000000 0.006383 -0.000001 0.018105
#
#
# Mechanical properties :
#
#
# Convention : Reuss Voigt Hill
#
# Bulk Modulus (GPa) = 23.99433 33.27591 28.63512
# Shear Modulus (GPa) = 23.58265 30.77835 27.18050
#
# Velocity S-wave (km/s) = 3.17961 3.63246 3.41355
# Velocity P-wave (km/s) = 4.87507 5.64433 5.27374
#
# Compressibility (1/GPa) = 0.04167651
#
# Stress axis : x y z
#
# Youngs Moduli (GPa) = 94.14305 58.37441 30.58053
#
# Poissons Ratio (x) = 0.27237 -0.01413
# Poissons Ratio (y) = 0.43926 0.15855
# Poissons Ratio (z) = -0.04350 0.30265
#
# Static dielectric constant tensor:
#      x y z
#    x 1.941880 0.000000 -0.038940 
#    y 0.000000 1.905720 0.000000 
#    z -0.038940 0.000000 1.898670 
# 
# From -- ./inp_files/301744.got.cif
#   From: 2010.05.17/outbox.cif.g08.bks.cpg/sg15_151_cif.got.tgz:301744.got - 2010.06.03 18:47:42.
