data_PCOD9290426
_publ_section_title
;
Structure prediction by ZEFSAII (Michael W. Deem and Ramdas Pophale) SiO2 
 PCOD9290426
Probable space group: C 2/C
;
_chemical_formula_sum "Si O2"
_cell_formula_units_Z 56
_cell_length_a 14.548470
_cell_length_b 18.442836
_cell_length_c 11.748637
_cell_angle_alpha 90.000000
_cell_angle_beta 114.948222
_cell_angle_gamma 90.000000
_cell_volume 2858.189506
_symmetry_space_group_name_H-M "C 2/C"
_symmetry_group_IT_number 15
_symmetry_cell_setting 'monoclinic'
loop_
_space_group_symop_operation_xyz
x,y,z
-x,y,1/2-z
-x,-y,-z
x,-y,1/2+z
1/2+x,1/2+y,z
1/2-x,1/2+y,1/2-z
1/2-x,1/2-y,-z
1/2+x,1/2-y,1/2+z
loop_
_atom_site_type_symbol
_atom_site_label
_atom_site_fract_x
_atom_site_fract_y
_atom_site_fract_z
Si Si1 0.607093 0.589509 0.371323
Si Si2 0.194414 0.765582 0.315660
Si Si3 0.037911 0.180716 0.550424
Si Si4 0.254680 0.108125 0.250579
Si Si5 0.481167 0.953423 0.872653
Si Si6 0.592567 0.453773 0.495363
Si Si7 0.600319 0.806010 0.984699
O O1 0.500000 0.590433 0.250000
O O2 0.589095 0.640870 0.470115
O O3 0.697916 0.615168 0.340345
O O4 0.629922 0.506040 0.415838
O O5 0.122960 0.800918 0.185768
O O6 0.236344 0.688475 0.294739
O O7 0.291400 0.814197 0.397661
O O8 0.127845 0.741975 0.388813
O O9 0.957294 0.123030 0.558640
O O10 0.978742 0.254969 0.488928
O O11 0.364491 0.072263 0.315074
O O12 0.180920 0.061361 0.131225
O O13 0.500000 0.981845 0.750000
O O14 0.550872 0.881493 0.922556
O O15 0.500000 0.000000 0.000000
O O16 0.500000 0.500000 0.500000
#
# Coordination Sequence:
#
# PCOD9290426 Si02
#       7
#     8   8   8   8   8   8   8
#     4  11  23  41  64 101 141 172 215 287 355 409
#     4  11  23  40  74  98 132 179 235 283 347 408
#     4  11  21  41  66  99 132 170 224 281 345 410
#     4  12  23  45  67  95 138 184 223 289 352 403
#     4  12  28  50  71  98 143 189 238 289 342 423
#     4  10  22  41  65  99 134 169 226 280 354 407
#     4  11  22  46  67  98 131 178 233 288 338 409
#
# _framework density 19.592822999999999
#
# number of rings (size 3 to 8) (size 9 to 14) (size 15 to 20)
#    0.000    0.857    7.143    0.429    2.000    4.000 
#    0.000    0.714    0.000    0.000    0.000    0.000 
#    0.000    0.000    0.000    0.000    0.000    0.000 
#
# Total GULP energy -156318.940615 kJ/mol
# GULP energy per Si atom -5582.819308 kJ/mol
# Density = 1.954823 g / cm^3
# Si number density = 19.592823 Si / 1000 Ang^3
#
#
#
# Elastic Constant Matrix: (Units=GPa)
#
#
# Indices 1 2 3 4 5 6 
#
# 1 109.5198 28.9548 52.7576 0.0000 1.2747 0.0000
# 2 28.9548 67.6489 36.4804 0.0000 5.8443 0.0000
# 3 52.7576 36.4804 116.0031 0.0000 31.8001 0.0000
# 4 0.0000 0.0000 0.0000 30.7166 0.0000 10.1047
# 5 1.2747 5.8443 31.8001 0.0000 43.9721 0.0000
# 6 0.0000 0.0000 0.0000 10.1047 0.0000 22.7549
#
#
#
# Elastic Compliance Matrix: (Units=1/GPa)
#
#
# Indices 1 2 3 4 5 6 
#
# 1 0.012740 -0.002473 -0.006243 0.000000 0.004474 0.000000
# 2 -0.002473 0.018438 -0.005016 0.000000 0.001249 0.000000
# 3 -0.006243 -0.005016 0.015971 0.000000 -0.010702 0.000000
# 4 0.000000 0.000000 0.000000 0.038125 0.000000 -0.016930
# 5 0.004474 0.001249 -0.010702 0.000000 0.030186 0.000000
# 6 0.000000 0.000000 0.000000 -0.016930 0.000000 0.051465
#
#
# Mechanical properties :
#
#
# Convention : Reuss Voigt Hill
#
# Bulk Modulus (GPa) = 50.79948 58.83969 54.81958
# Shear Modulus (GPa) = 24.88201 31.15401 28.01801
#
# Velocity S-wave (km/s) = 3.56751 3.99190 3.78566
# Velocity P-wave (km/s) = 6.55388 7.16543 6.86647
#
# Compressibility (1/GPa) = 0.01968524
#
# Stress axis : x y z
#
# Youngs Moduli (GPa) = 78.49464 54.23698 62.61412
#
# Poissons Ratio (x) = 0.13412 0.39089
# Poissons Ratio (y) = 0.19410 0.31406
# Poissons Ratio (z) = 0.49002 0.27204
#
# Static dielectric constant tensor:
#      x y z
#    x 1.716530 0.000000 -0.037610 
#    y 0.000000 1.703260 0.000000 
#    z -0.037610 0.000000 1.725240 
# 
# From -- ./inp_files/98837.got.cif
#   From: 2010.05.17/outbox.cif.g08.bks.cpg/sg15_50_cif.got.tgz:98837.got - 2010.06.03 18:47:42.
