data_PCOD9290910
_publ_section_title
;
Structure prediction by ZEFSAII (Michael W. Deem and Ramdas Pophale) SiO2 
 PCOD9290910
Probable space group: C 2/C
;
_chemical_formula_sum "Si O2"
_cell_formula_units_Z 52
_cell_length_a 24.406984
_cell_length_b 20.027433
_cell_length_c 13.249726
_cell_angle_alpha 90.000000
_cell_angle_beta 24.105080
_cell_angle_gamma 90.000000
_cell_volume 2645.112513
_symmetry_space_group_name_H-M "C 2/C"
_symmetry_group_IT_number 15
_symmetry_cell_setting 'monoclinic'
loop_
_space_group_symop_operation_xyz
x,y,z
-x,y,1/2-z
-x,-y,-z
x,-y,1/2+z
1/2+x,1/2+y,z
1/2-x,1/2+y,1/2-z
1/2-x,1/2-y,-z
1/2+x,1/2-y,1/2+z
loop_
_atom_site_type_symbol
_atom_site_label
_atom_site_fract_x
_atom_site_fract_y
_atom_site_fract_z
Si Si1 0.000000 0.844366 0.750000
Si Si2 0.081167 0.756042 0.431852
Si Si3 0.747608 0.071765 0.738639
Si Si4 0.156322 0.931654 0.984174
Si Si5 0.472266 0.832080 0.973880
Si Si6 0.863519 0.209625 0.044386
Si Si7 0.228616 0.131798 0.579927
O O1 0.003368 0.796933 0.647163
O O2 0.130972 0.890163 0.521855
O O3 0.229859 0.735967 0.215992
O O4 0.117732 0.809958 0.282209
O O5 0.006715 0.687136 0.530458
O O6 0.769508 0.087516 0.820941
O O7 0.757289 0.994076 0.697225
O O8 0.612868 0.105909 0.922165
O O9 0.162568 0.868823 0.896998
O O10 0.198912 0.905922 0.024613
O O11 0.000000 0.952446 0.250000
O O12 0.621504 0.837596 0.676682
O O13 0.390821 0.765529 0.081232
O O14 0.000000 0.211234 0.750000
#
# Coordination Sequence:
#
# PCOD9290910 Si02
#       7
#     4   8   8   8   8   8   8
#     4  10  22  42  58  90 132 166 206 250 316 384
#     4  11  21  38  65  95 125 157 214 265 309 371
#     4  11  24  43  62  90 132 173 207 251 313 396
#     4  11  24  40  62  95 131 162 214 259 313 370
#     4  12  21  40  70  93 122 165 212 264 321 363
#     4  11  19  37  64  97 121 150 211 273 301 358
#     4  11  22  40  68  94 124 164 214 268 315 363
#
# _framework density 19.658899000000002
#
# number of rings (size 3 to 8) (size 9 to 14) (size 15 to 20)
#    0.000    0.923    6.923    2.769    0.000    1.846 
#    2.769    0.000    0.000    0.000    0.000    0.000 
#    0.000    0.000    0.000    0.000    0.000    0.000 
#
# Total GULP energy -144919.692122 kJ/mol
# GULP energy per Si atom -5573.834312 kJ/mol
# Density = 1.961415 g / cm^3
# Si number density = 19.658899 Si / 1000 Ang^3
#
#
#
# Elastic Constant Matrix: (Units=GPa)
#
#
# Indices 1 2 3 4 5 6 
#
# 1 72.4254 35.5884 34.9467 0.0003 -18.0305 -0.0007
# 2 35.5884 106.9686 34.0657 -0.0009 1.5395 0.0001
# 3 34.9467 34.0657 43.7203 -0.0007 -1.8593 -0.0005
# 4 0.0003 -0.0009 -0.0007 26.8316 0.0003 1.9892
# 5 -18.0305 1.5395 -1.8593 0.0003 27.9993 0.0005
# 6 -0.0007 0.0001 -0.0005 1.9892 0.0005 19.3968
#
#
#
# Elastic Compliance Matrix: (Units=1/GPa)
#
#
# Indices 1 2 3 4 5 6 
#
# 1 0.029934 -0.003785 -0.020206 -0.000001 0.018142 0.000000
# 2 -0.003785 0.012962 -0.007229 0.000000 -0.003630 0.000000
# 3 -0.020206 -0.007229 0.044244 0.000001 -0.009676 0.000000
# 4 -0.000001 0.000000 0.000001 0.037555 -0.000001 -0.003851
# 5 0.018142 -0.003630 -0.009676 -0.000001 0.046955 -0.000001
# 6 0.000000 0.000000 0.000000 -0.003851 -0.000001 0.051950
#
#
# Mechanical properties :
#
#
# Convention : Reuss Voigt Hill
#
# Bulk Modulus (GPa) = 40.48399 48.03510 44.25954
# Shear Modulus (GPa) = 16.99101 22.74644 19.86872
#
# Velocity S-wave (km/s) = 2.94307 3.40524 3.18256
# Velocity P-wave (km/s) = 5.67334 6.32046 6.00562
#
# Compressibility (1/GPa) = 0.02470112
#
# Stress axis : x y z
#
# Youngs Moduli (GPa) = 33.40732 77.14775 22.60169
#
# Poissons Ratio (x) = 0.29202 0.45669
# Poissons Ratio (y) = 0.12645 0.16338
# Poissons Ratio (z) = 0.67502 0.55767
#
# Static dielectric constant tensor:
#      x y z
#    x 1.794710 0.000000 -0.004030 
#    y 0.000000 1.720400 0.000000 
#    z -0.004030 0.000000 1.673070 
# 
# From -- ./inp_files/178999.got.cif
#   From: 2010.05.17/outbox.cif.g08.bks.cpg/sg15_90_cif.got.tgz:178999.got - 2010.06.03 18:47:42.
