data_PCOD9290946
_publ_section_title
;
Structure prediction by ZEFSAII (Michael W. Deem and Ramdas Pophale) SiO2 
 PCOD9290946
Probable space group: C 2/C
;
_chemical_formula_sum "Si O2"
_cell_formula_units_Z 48
_cell_length_a 23.230000
_cell_length_b 11.182283
_cell_length_c 9.600001
_cell_angle_alpha 90.000000
_cell_angle_beta 120.863920
_cell_angle_gamma 90.000000
_cell_volume 2140.595784
_symmetry_space_group_name_H-M "C 2/C"
_symmetry_group_IT_number 15
_symmetry_cell_setting 'monoclinic'
loop_
_space_group_symop_operation_xyz
x,y,z
-x,y,1/2-z
-x,-y,-z
x,-y,1/2+z
1/2+x,1/2+y,z
1/2-x,1/2+y,1/2-z
1/2-x,1/2-y,-z
1/2+x,1/2-y,1/2+z
loop_
_atom_site_type_symbol
_atom_site_label
_atom_site_fract_x
_atom_site_fract_y
_atom_site_fract_z
Si Si1 0.763247 0.065726 0.516529
Si Si2 0.550050 0.041593 0.440794
Si Si3 0.190880 0.877660 0.127336
Si Si4 0.044688 0.981200 0.921015
Si Si5 0.608062 0.723597 0.890205
Si Si6 0.645434 0.145627 0.179360
O O1 0.767848 0.072641 0.688592
O O2 0.815903 0.168405 0.525890
O O3 0.692565 0.087009 0.355405
O O4 0.786571 0.938056 0.486972
O O5 0.500000 0.031446 0.250000
O O6 0.586449 0.171305 0.470209
O O7 0.500000 0.000000 0.500000
O O8 0.609233 0.945948 0.533823
O O9 0.189405 0.736260 0.142480
O O10 0.113767 0.918593 0.046629
O O11 0.066487 0.106733 0.878747
O O12 0.000000 0.913915 0.750000
O O13 0.000000 0.000000 0.000000
O O14 0.596012 0.778155 0.720512
#
# Coordination Sequence:
#
# PCOD9290946 Si02
#       6
#     8   8   8   8   8   8
#     4  10  23  42  72  92 129 169 222 272 335 387
#     4  12  26  44  66  98 135 180 223 268 329 401
#     4  10  22  42  61  99 123 167 220 268 326 391
#     4  11  22  38  68  93 129 172 212 269 325 387
#     4  10  22  44  66  93 127 176 219 262 327 396
#     4  11  24  42  71  91 134 178 213 272 332 399
#
# _framework density 22.423663999999999
#
# number of rings (size 3 to 8) (size 9 to 14) (size 15 to 20)
#    0.000    1.333    1.667    5.500    7.000    0.667 
#    6.000    0.833    0.000    0.000    0.000    0.000 
#    0.000    0.000    0.000    0.000    0.000    0.000 
#
# Total GULP energy -133969.135799 kJ/mol
# GULP energy per Si atom -5582.047325 kJ/mol
# Density = 2.237263 g / cm^3
# Si number density = 22.423664 Si / 1000 Ang^3
#
#
#
# Elastic Constant Matrix: (Units=GPa)
#
#
# Indices 1 2 3 4 5 6 
#
# 1 43.5911 -1.7148 6.6344 0.0000 -0.8151 0.0000
# 2 -1.7148 66.8148 14.7355 0.0000 3.9652 0.0000
# 3 6.6344 14.7355 88.7936 0.0000 27.4516 0.0000
# 4 0.0000 0.0000 0.0000 35.0057 0.0000 -7.7207
# 5 -0.8151 3.9652 27.4516 0.0000 34.2257 0.0000
# 6 0.0000 0.0000 0.0000 -7.7207 0.0000 25.0610
#
#
#
# Elastic Compliance Matrix: (Units=1/GPa)
#
#
# Indices 1 2 3 4 5 6 
#
# 1 0.023448 0.001050 -0.002741 0.000000 0.002635 0.000000
# 2 0.001050 0.015586 -0.002812 0.000000 0.000474 0.000000
# 3 -0.002741 -0.002812 0.015761 0.000000 -0.012381 0.000000
# 4 0.000000 0.000000 0.000000 0.030649 0.000000 0.009442
# 5 0.002635 0.000474 -0.012381 0.000000 0.039156 0.000000
# 6 0.000000 0.000000 0.000000 0.009442 0.000000 0.042812
#
#
# Mechanical properties :
#
#
# Convention : Reuss Voigt Hill
#
# Bulk Modulus (GPa) = 21.83894 26.50109 24.17001
# Shear Modulus (GPa) = 26.08504 30.82811 28.45657
#
# Velocity S-wave (km/s) = 3.41439 3.71186 3.56623
# Velocity P-wave (km/s) = 5.03036 5.49677 5.26873
#
# Compressibility (1/GPa) = 0.04578978
#
# Stress axis : x y z
#
# Youngs Moduli (GPa) = 42.64724 64.16171 63.44671
#
# Poissons Ratio (x) = -0.06736 0.17390
# Poissons Ratio (y) = -0.04477 0.17839
# Poissons Ratio (z) = 0.11689 0.18040
#
# Static dielectric constant tensor:
#      x y z
#    x 1.980020 0.000000 0.027590 
#    y 0.000000 1.866850 0.000000 
#    z 0.027590 0.000000 1.789480 
# 
# From -- ./inp_files/65245.got.cif
#   From: 2010.05.17/outbox.cif.g08.bks.cpg/sg15_33_cif.got.tgz:65245.got - 2010.06.03 18:47:42.
