data_PCOD9290008
_publ_section_title
;
Structure prediction by ZEFSAII (Michael W. Deem and Ramdas Pophale) SiO2 
 PCOD9290008
Probable space group: C 2/C
;
_chemical_formula_sum "Si O2"
_cell_formula_units_Z 52
_cell_length_a 18.060083
_cell_length_b 14.533897
_cell_length_c 19.449702
_cell_angle_alpha 90.000000
_cell_angle_beta 25.543998
_cell_angle_gamma 90.000000
_cell_volume 2201.393233
_symmetry_space_group_name_H-M "C 2/C"
_symmetry_group_IT_number 15
_symmetry_cell_setting 'monoclinic'
loop_
_space_group_symop_operation_xyz
x,y,z
-x,y,1/2-z
-x,-y,-z
x,-y,1/2+z
1/2+x,1/2+y,z
1/2-x,1/2+y,1/2-z
1/2-x,1/2-y,-z
1/2+x,1/2-y,1/2+z
loop_
_atom_site_type_symbol
_atom_site_label
_atom_site_fract_x
_atom_site_fract_y
_atom_site_fract_z
Si Si1 0.704689 0.381003 0.705973
Si Si2 0.905554 0.817099 0.475067
Si Si3 0.000000 0.844786 0.250000
Si Si4 0.777321 0.505068 0.018619
Si Si5 0.454548 0.229248 0.573631
Si Si6 0.680681 0.981889 0.672141
Si Si7 0.705261 0.437164 0.291145
O O1 0.691493 0.417875 0.639181
O O2 0.564809 0.322870 0.866228
O O3 0.755898 0.473768 0.703933
O O4 0.854576 0.306536 0.582326
O O5 0.956029 0.789905 0.355865
O O6 0.900905 0.743976 0.539231
O O7 0.730436 0.875182 0.621091
O O8 0.052737 0.886927 0.378945
O O9 0.837185 0.913317 0.374849
O O10 0.779431 0.526360 0.935344
O O11 0.981988 0.492383 0.861452
O O12 0.342018 0.142843 0.689942
O O13 0.810681 0.021081 0.619731
#
# Coordination Sequence:
#
# PCOD9290008 Si02
#       7
#     8   8   4   8   8   8   8
#     4  12  25  45  72 102 143 191 235 302 354 424
#     4  11  23  43  71 107 141 185 241 298 349 430
#     4  10  22  44  74 104 142 190 240 288 374 424
#     4  10  22  42  70 106 139 189 236 289 361 435
#     4  12  26  42  70 110 140 180 252 291 351 429
#     4  10  22  40  73 102 138 189 240 283 361 422
#     4  12  23  43  74  99 142 193 235 296 360 418
#
# _framework density 23.621406
#
# number of rings (size 3 to 8) (size 9 to 14) (size 15 to 20)
#    0.000    0.923    6.154    0.923    0.000    0.000 
#    0.000    1.538    6.769    0.000    0.000    0.000 
#    0.000    0.000    0.000    0.000    0.000    0.000 
#
# Total GULP energy -145294.499155 kJ/mol
# GULP energy per Si atom -5588.249968 kJ/mol
# Density = 2.356764 g / cm^3
# Si number density = 23.621406 Si / 1000 Ang^3
#
#
#
# Elastic Constant Matrix: (Units=GPa)
#
#
# Indices 1 2 3 4 5 6 
#
# 1 103.1644 1.2850 5.1902 -0.0043 19.6514 0.0089
# 2 1.2850 66.9038 16.8408 -0.0014 1.8323 0.0201
# 3 5.1902 16.8408 57.7558 -0.0041 -1.4439 0.0181
# 4 -0.0043 -0.0014 -0.0041 46.1824 -0.0026 -1.6864
# 5 19.6514 1.8323 -1.4439 -0.0026 31.4844 0.0082
# 6 0.0089 0.0201 0.0181 -1.6864 0.0082 45.4492
#
#
#
# Elastic Compliance Matrix: (Units=1/GPa)
#
#
# Indices 1 2 3 4 5 6 
#
# 1 0.011085 0.000295 -0.001257 0.000001 -0.006994 -0.000001
# 2 0.000295 0.016181 -0.004778 0.000000 -0.001345 -0.000005
# 3 -0.001257 -0.004778 0.018869 0.000001 0.001928 -0.000005
# 4 0.000001 0.000000 0.000001 0.021683 0.000001 0.000805
# 5 -0.006994 -0.001345 0.001928 0.000001 0.036294 -0.000005
# 6 -0.000001 -0.000005 -0.000005 0.000805 -0.000005 0.022032
#
#
# Mechanical properties :
#
#
# Convention : Reuss Voigt Hill
#
# Bulk Modulus (GPa) = 28.85664 30.49512 29.67588
# Shear Modulus (GPa) = 33.51766 38.25705 35.88735
#
# Velocity S-wave (km/s) = 3.77099 4.02878 3.90201
# Velocity P-wave (km/s) = 5.58599 5.88043 5.73510
#
# Compressibility (1/GPa) = 0.03465407
#
# Stress axis : x y z
#
# Youngs Moduli (GPa) = 90.21168 61.80182 52.99778
#
# Poissons Ratio (x) = -0.01823 0.06662
# Poissons Ratio (y) = -0.02662 0.25324
# Poissons Ratio (z) = 0.11340 0.29530
#
# Static dielectric constant tensor:
#      x y z
#    x 1.805350 -0.000010 -0.178700 
#    y -0.000010 1.832460 -0.000010 
#    z -0.178700 -0.000010 1.734150 
# 
# From -- ./inp_files/249097.got.cif
#   From: 2010.05.17/outbox.cif.g08.bks.cpg/sg15_125_cif.got.tgz:249097.got - 2010.06.03 18:47:42.
