data_PCOD9290115
_publ_section_title
;
Structure prediction by ZEFSAII (Michael W. Deem and Ramdas Pophale) SiO2 
 PCOD9290115
Probable space group: C 2/C
;
_chemical_formula_sum "Si O2"
_cell_formula_units_Z 40
_cell_length_a 8.167643
_cell_length_b 24.758625
_cell_length_c 7.904191
_cell_angle_alpha 90.000000
_cell_angle_beta 86.410712
_cell_angle_gamma 90.000000
_cell_volume 1595.247116
_symmetry_space_group_name_H-M "C 2/C"
_symmetry_group_IT_number 15
_symmetry_cell_setting 'monoclinic'
loop_
_space_group_symop_operation_xyz
x,y,z
-x,y,1/2-z
-x,-y,-z
x,-y,1/2+z
1/2+x,1/2+y,z
1/2-x,1/2+y,1/2-z
1/2-x,1/2-y,-z
1/2+x,1/2-y,1/2+z
loop_
_atom_site_type_symbol
_atom_site_label
_atom_site_fract_x
_atom_site_fract_y
_atom_site_fract_z
Si Si1 0.819656 0.884353 0.327602
Si Si2 0.691144 0.220539 0.679545
Si Si3 0.168542 0.428081 0.836369
Si Si4 0.314229 0.326425 0.689817
Si Si5 0.191116 0.012957 0.474395
O O1 0.751511 0.840444 0.199958
O O2 0.819255 0.851040 0.503470
O O3 0.000000 0.897654 0.250000
O O4 0.747375 0.941687 0.394184
O O5 0.500000 0.217155 0.750000
O O6 0.750000 0.250000 0.500000
O O7 0.758001 0.266300 0.804001
O O8 0.208576 0.365288 0.818440
O O9 0.199163 0.459219 0.008403
O O10 0.296193 0.458046 0.706063
O O11 0.000000 0.437679 0.750000
O O12 0.500000 0.326607 0.750000
O O13 0.000000 0.000000 0.500000
#
# Coordination Sequence:
#
# PCOD9290115 Si02
#       5
#     8   8   8   8   8
#     4  11  22  39  65  93 124 168 217 269 324 390
#     4  11  25  43  65  95 130 170 217 272 333 402
#     4  11  23  38  61  92 124 161 211 275 327 379
#     4  10  22  41  62  88 124 170 213 259 324 401
#     4  11  23  41  63  90 126 173 218 261 326 404
#
# _framework density 25.074484999999999
#
# number of rings (size 3 to 8) (size 9 to 14) (size 15 to 20)
#    0.000    1.200    0.000    7.800    0.000    6.400 
#    0.000    0.000    0.000    0.000    0.000    0.000 
#    0.000    0.000    0.000    0.000    0.000    0.000 
#
# Total GULP energy -111666.811851 kJ/mol
# GULP energy per Si atom -5583.340593 kJ/mol
# Density = 2.501741 g / cm^3
# Si number density = 25.074485 Si / 1000 Ang^3
#
#
#
# Elastic Constant Matrix: (Units=GPa)
#
#
# Indices 1 2 3 4 5 6 
#
# 1 67.0539 -1.0596 -7.3908 0.0000 5.1525 0.0000
# 2 -1.0596 151.7448 16.9542 0.0000 7.0141 0.0000
# 3 -7.3908 16.9542 113.6473 0.0000 -7.0774 0.0000
# 4 0.0000 0.0000 0.0000 44.1144 0.0000 13.0308
# 5 5.1525 7.0141 -7.0774 0.0000 31.1529 0.0000
# 6 0.0000 0.0000 0.0000 13.0308 0.0000 -38.8907
#
#
#
# Elastic Compliance Matrix: (Units=1/GPa)
#
#
# Indices 1 2 3 4 5 6 
#
# 1 0.015187 0.000123 0.000823 0.000000 -0.002353 0.000000
# 2 0.000123 0.006799 -0.001119 0.000000 -0.001805 0.000000
# 3 0.000823 -0.001119 0.009156 0.000000 0.002196 0.000000
# 4 0.000000 0.000000 0.000000 0.020627 0.000000 0.006911
# 5 -0.002353 -0.001805 0.002196 0.000000 0.033394 0.000000
# 6 0.000000 0.000000 0.000000 0.006911 0.000000 -0.023397
#
#
# Mechanical properties :
#
#
# Convention : Reuss Voigt Hill
#
# Bulk Modulus (GPa) = 32.47159 38.82820 35.64990
# Shear Modulus (GPa) = 69.08202 28.87146 48.97674
#
# Velocity S-wave (km/s) = 5.25457 3.39695 4.42435
# Velocity P-wave (km/s) = 7.05636 5.55918 6.35203
#
# Compressibility (1/GPa) = 0.03079615
#
# Stress axis : x y z
#
# Youngs Moduli (GPa) = 65.84679 147.07357 109.21423
#
# Poissons Ratio (x) = -0.01807 -0.08986
# Poissons Ratio (y) = -0.00809 0.12219
# Poissons Ratio (z) = -0.05418 0.16454
#
# Static dielectric constant tensor:
#      x y z
#    x 1.956910 0.000000 -0.046810 
#    y 0.000000 2.024350 0.000000 
#    z -0.046810 0.000000 2.092660 
# 
# From -- ./inp_files/23772.got.cif
#   From: 2010.05.17/outbox.cif.g08.bks.cpg/sg15_12_cif.got.tgz:23772.got - 2010.06.03 18:47:42.
