data_PCOD9290376
_publ_section_title
;
Structure prediction by ZEFSAII (Michael W. Deem and Ramdas Pophale) SiO2 
 PCOD9290376
Probable space group: C 2/C
;
_chemical_formula_sum "Si O2"
_cell_formula_units_Z 40
_cell_length_a 11.565852
_cell_length_b 9.879672
_cell_length_c 20.341991
_cell_angle_alpha 90.000000
_cell_angle_beta 61.435400
_cell_angle_gamma 90.000000
_cell_volume 2041.483617
_symmetry_space_group_name_H-M "C 2/C"
_symmetry_group_IT_number 15
_symmetry_cell_setting 'monoclinic'
loop_
_space_group_symop_operation_xyz
x,y,z
-x,y,1/2-z
-x,-y,-z
x,-y,1/2+z
1/2+x,1/2+y,z
1/2-x,1/2+y,1/2-z
1/2-x,1/2-y,-z
1/2+x,1/2-y,1/2+z
loop_
_atom_site_type_symbol
_atom_site_label
_atom_site_fract_x
_atom_site_fract_y
_atom_site_fract_z
Si Si1 0.876476 0.690806 0.002375
Si Si2 0.274869 0.571735 0.920269
Si Si3 0.560773 0.596582 0.901240
Si Si4 0.859106 0.199814 0.104716
Si Si5 0.143491 0.169831 0.734482
O O1 0.833661 0.538182 0.030798
O O2 0.909756 0.779955 0.057982
O O3 0.750000 0.750000 0.000000
O O4 0.005298 0.717417 0.922909
O O5 0.407407 0.570834 0.926101
O O6 0.213724 0.721697 0.934374
O O7 0.318367 0.556594 0.831088
O O8 0.613820 0.455679 0.915243
O O9 0.629162 0.622696 0.812399
O O10 0.758707 0.221203 0.192261
O O11 0.000000 0.221960 0.750000
#
# Coordination Sequence:
#
# PCOD9290376 Si02
#       5
#     8   8   8   8   8
#     4  12  24  41  64 100 128 170 212 256 322 381
#     4   9  22  42  65  89 126 163 211 263 310 377
#     4  11  22  43  67  88 135 165 206 271 315 369
#     4  10  22  41  65  94 128 161 217 257 317 376
#     4   8  20  41  64  92 120 166 215 256 318 369
#
# _framework density 19.593592999999998
#
# number of rings (size 3 to 8) (size 9 to 14) (size 15 to 20)
#    1.200    0.800    2.000    1.200    2.800    0.800 
#    3.600    3.000    0.000    0.000    0.000    0.000 
#    0.000    0.000    0.000    0.000    0.000    0.000 
#
# Total GULP energy -111403.585034 kJ/mol
# GULP energy per Si atom -5570.179252 kJ/mol
# Density = 1.954900 g / cm^3
# Si number density = 19.593593 Si / 1000 Ang^3
#
#
#
# Elastic Constant Matrix: (Units=GPa)
#
#
# Indices 1 2 3 4 5 6 
#
# 1 89.6530 34.5822 41.0646 0.0000 -12.7262 0.0000
# 2 34.5822 99.8739 25.5006 0.0000 4.4180 0.0000
# 3 41.0646 25.5006 93.8642 0.0000 -9.0689 0.0000
# 4 0.0000 0.0000 0.0000 23.6422 0.0000 -4.8546
# 5 -12.7262 4.4180 -9.0689 0.0000 40.1066 0.0000
# 6 0.0000 0.0000 0.0000 -4.8546 0.0000 32.9598
#
#
#
# Elastic Compliance Matrix: (Units=1/GPa)
#
#
# Indices 1 2 3 4 5 6 
#
# 1 0.015888 -0.004323 -0.005360 0.000000 0.004306 0.000000
# 2 -0.004323 0.012077 -0.001688 0.000000 -0.003084 0.000000
# 3 -0.005360 -0.001688 0.013608 0.000000 0.001562 0.000000
# 4 0.000000 0.000000 0.000000 0.043616 0.000000 0.006424
# 5 0.004306 -0.003084 0.001562 0.000000 0.026993 0.000000
# 6 0.000000 0.000000 0.000000 0.006424 0.000000 0.031286
#
#
# Mechanical properties :
#
#
# Convention : Reuss Voigt Hill
#
# Bulk Modulus (GPa) = 53.10428 53.96510 53.53469
# Shear Modulus (GPa) = 28.98754 31.49129 30.23942
#
# Velocity S-wave (km/s) = 3.85052 4.01337 3.93279
# Velocity P-wave (km/s) = 6.85058 7.00558 6.92851
#
# Compressibility (1/GPa) = 0.01883087
#
# Stress axis : x y z
#
# Youngs Moduli (GPa) = 62.93986 82.80291 73.48505
#
# Poissons Ratio (x) = 0.35797 0.39391
# Poissons Ratio (y) = 0.27210 0.12401
# Poissons Ratio (z) = 0.33738 0.13974
#
# Static dielectric constant tensor:
#      x y z
#    x 1.699870 0.000000 -0.019770 
#    y 0.000000 1.683410 0.000000 
#    z -0.019770 0.000000 1.768250 
# 
# From -- ./inp_files/235711.got.cif
#   From: 2010.05.17/outbox.cif.g08.bks.cpg/sg15_118_cif.got.tgz:235711.got - 2010.06.03 18:47:42.
