data_PCOD9290046
_publ_section_title
;
Structure prediction by ZEFSAII (Michael W. Deem and Ramdas Pophale) SiO2 
 PCOD9290046
Probable space group: C 2/C
;
_chemical_formula_sum "Si O2"
_cell_formula_units_Z 56
_cell_length_a 11.579358
_cell_length_b 9.609820
_cell_length_c 28.984862
_cell_angle_alpha 90.000000
_cell_angle_beta 127.114652
_cell_angle_gamma 90.000000
_cell_volume 2571.954902
_symmetry_space_group_name_H-M "C 2/C"
_symmetry_group_IT_number 15
_symmetry_cell_setting 'monoclinic'
loop_
_space_group_symop_operation_xyz
x,y,z
-x,y,1/2-z
-x,-y,-z
x,-y,1/2+z
1/2+x,1/2+y,z
1/2-x,1/2+y,1/2-z
1/2-x,1/2-y,-z
1/2+x,1/2-y,1/2+z
loop_
_atom_site_type_symbol
_atom_site_label
_atom_site_fract_x
_atom_site_fract_y
_atom_site_fract_z
Si Si1 0.419460 0.349575 0.688995
Si Si2 0.363607 0.424825 0.303531
Si Si3 0.562778 0.182907 0.311306
Si Si4 0.180743 0.022944 0.102652
Si Si5 0.984679 0.701575 0.558509
Si Si6 0.280018 0.088271 0.821245
Si Si7 0.782652 0.759640 0.438645
O O1 0.500000 0.270376 0.750000
O O2 0.535251 0.444076 0.688422
O O3 0.315164 0.456244 0.689913
O O4 0.307806 0.276401 0.628634
O O5 0.455318 0.283409 0.314161
O O6 0.334165 0.455070 0.349805
O O7 0.224308 0.411105 0.235585
O O8 0.500000 0.113424 0.250000
O O9 0.680536 0.285223 0.315553
O O10 0.653848 0.075895 0.363152
O O11 0.149702 0.909279 0.056497
O O12 0.079861 0.158807 0.075621
O O13 0.911135 0.665534 0.491329
O O14 0.847478 0.736613 0.556615
O O15 0.079385 0.597079 0.612735
#
# Coordination Sequence:
#
# PCOD9290046 Si02
#       7
#     8   8   8   8   8   8   8
#     4   9  18  36  59  86 117 144 188 246 292 343
#     4   9  17  36  60  84 116 149 185 242 300 334
#     4   8  17  34  55  83 116 147 186 234 288 345
#     4  11  21  37  61  84 115 157 192 239 289 344
#     4  10  22  41  57  77 121 158 192 240 287 341
#     4   8  17  35  61  81 112 157 184 236 300 339
#     4  11  23  37  58  85 113 157 196 236 291 346
#
# _framework density 21.773320999999999
#
# number of rings (size 3 to 8) (size 9 to 14) (size 15 to 20)
#    0.000    2.571    1.429    2.143    0.000    3.429 
#   10.286    0.000    0.000    3.429    0.000    0.000 
#    0.000    0.000    0.000    0.000    0.000    0.000 
#
# Total GULP energy -155897.551929 kJ/mol
# GULP energy per Si atom -5567.769712 kJ/mol
# Density = 2.172376 g / cm^3
# Si number density = 21.773321 Si / 1000 Ang^3
#
#
#
# Elastic Constant Matrix: (Units=GPa)
#
#
# Indices 1 2 3 4 5 6 
#
# 1 49.7488 9.2403 28.3834 0.0000 -35.2588 0.0000
# 2 9.2403 20.2376 10.3665 0.0000 -7.9747 0.0000
# 3 28.3834 10.3665 146.9652 0.0000 -2.3984 0.0000
# 4 0.0000 0.0000 0.0000 26.2935 0.0000 5.9287
# 5 -35.2588 -7.9747 -2.3984 0.0000 92.0025 0.0000
# 6 0.0000 0.0000 0.0000 5.9287 0.0000 23.6707
#
#
#
# Elastic Compliance Matrix: (Units=1/GPa)
#
#
# Indices 1 2 3 4 5 6 
#
# 1 0.033192 -0.007548 -0.005684 0.000000 0.011918 0.000000
# 2 -0.007548 0.054784 -0.002377 0.000000 0.001794 0.000000
# 3 -0.005684 -0.002377 0.008034 0.000000 -0.002175 0.000000
# 4 0.000000 0.000000 0.000000 0.040309 0.000000 -0.010096
# 5 0.011918 0.001794 -0.002175 0.000000 0.015536 0.000000
# 6 0.000000 0.000000 0.000000 -0.010096 0.000000 0.044775
#
#
# Mechanical properties :
#
#
# Convention : Reuss Voigt Hill
#
# Bulk Modulus (GPa) = 15.43363 34.77022 25.10193
# Shear Modulus (GPa) = 20.04452 39.65742 29.85097
#
# Velocity S-wave (km/s) = 3.03743 4.27239 3.70670
# Velocity P-wave (km/s) = 4.40511 6.35150 5.46565
#
# Compressibility (1/GPa) = 0.06479355
#
# Stress axis : x y z
#
# Youngs Moduli (GPa) = 30.12735 18.25353 124.46780
#
# Poissons Ratio (x) = 0.13777 0.70742
# Poissons Ratio (y) = 0.22739 0.29590
# Poissons Ratio (z) = 0.17123 0.04340
#
# Static dielectric constant tensor:
#      x y z
#    x 1.791130 0.000000 -0.000550 
#    y 0.000000 1.895530 0.000000 
#    z -0.000550 0.000000 2.052440 
# 
# From -- ./inp_files/292081.got.cif
#   From: 2010.05.17/outbox.cif.g08.bks.cpg/sg15_147_cif.got.tgz:292081.got - 2010.06.03 18:47:42.
