data_PCOD9290704
_publ_section_title
;
Structure prediction by ZEFSAII (Michael W. Deem and Ramdas Pophale) SiO2 
 PCOD9290704
Probable space group: C 2/C
;
_chemical_formula_sum "Si O2"
_cell_formula_units_Z 48
_cell_length_a 24.196887
_cell_length_b 11.293964
_cell_length_c 17.644160
_cell_angle_alpha 90.000000
_cell_angle_beta 158.376538
_cell_angle_gamma 90.000000
_cell_volume 1776.849189
_symmetry_space_group_name_H-M "C 2/C"
_symmetry_group_IT_number 15
_symmetry_cell_setting 'monoclinic'
loop_
_space_group_symop_operation_xyz
x,y,z
-x,y,1/2-z
-x,-y,-z
x,-y,1/2+z
1/2+x,1/2+y,z
1/2-x,1/2+y,1/2-z
1/2-x,1/2-y,-z
1/2+x,1/2-y,1/2+z
loop_
_atom_site_type_symbol
_atom_site_label
_atom_site_fract_x
_atom_site_fract_y
_atom_site_fract_z
Si Si1 0.057861 0.772106 0.672879
Si Si2 0.500000 0.874068 0.750000
Si Si3 0.741003 0.989076 0.873491
Si Si4 0.000000 0.141092 0.250000
Si Si5 0.913570 0.253644 0.783391
Si Si6 0.271046 0.496385 0.097802
Si Si7 0.714386 0.160642 0.738880
O O1 0.073991 0.771041 0.784050
O O2 0.150890 0.671755 0.747422
O O3 0.878475 0.786207 0.430588
O O4 0.147194 0.890627 0.764721
O O5 0.412874 0.788311 0.694529
O O6 0.384689 0.960691 0.561517
O O7 0.691038 0.851996 0.811146
O O8 0.700886 0.020126 0.731414
O O9 0.731242 0.009377 0.956627
O O10 0.906158 0.049509 0.079731
O O11 0.871006 0.119032 0.739232
O O12 0.082667 0.277801 0.026252
#
# Coordination Sequence:
#
# PCOD9290704 Si02
#       7
#     8   4   8   4   8   8   8
#     4  10  24  45  66 102 139 186 231 294 348 421
#     4  10  22  41  69 100 134 180 235 289 346 422
#     4   9  19  40  63  95 126 174 227 278 336 415
#     4   8  18  39  71  94 130 182 229 277 346 416
#     4  11  24  41  66 101 138 183 231 291 350 424
#     4  10  23  42  70  99 138 178 237 290 352 414
#     4  11  25  44  67 101 143 187 232 285 358 417
#
# _framework density 27.014111
#
# number of rings (size 3 to 8) (size 9 to 14) (size 15 to 20)
#    0.000    2.000    0.000    2.500    2.333   18.000 
#    3.000    1.667    0.000    0.000    0.000    0.000 
#    0.000    0.000    0.000    0.000    0.000    0.000 
#
# Total GULP energy -133610.065354 kJ/mol
# GULP energy per Si atom -5567.086056 kJ/mol
# Density = 2.695263 g / cm^3
# Si number density = 27.014111 Si / 1000 Ang^3
#
#
#
# Elastic Constant Matrix: (Units=GPa)
#
#
# Indices 1 2 3 4 5 6 
#
# 1 -24.4381 -273.4684 -23.9215 0.0000 5.9185 0.0000
# 2 -273.4684 -979.0046 -98.8801 0.0000 -0.9260 0.0000
# 3 -23.9215 -98.8801 116.9878 -0.0001 4.6278 0.0000
# 4 0.0000 0.0000 -0.0001 33.1639 0.0000 -4.6922
# 5 5.9185 -0.9260 4.6278 0.0000 30.9873 0.0000
# 6 0.0000 0.0000 0.0000 -4.6922 0.0000 11.8968
#
#
#
# Elastic Compliance Matrix: (Units=1/GPa)
#
#
# Indices 1 2 3 4 5 6 
#
# 1 0.019740 -0.005467 -0.000431 0.000000 -0.003869 0.000000
# 2 -0.005467 0.000573 -0.000679 0.000000 0.001163 0.000000
# 3 -0.000431 -0.000679 0.007930 0.000000 -0.001122 0.000000
# 4 0.000000 0.000000 0.000000 0.031935 0.000000 0.012595
# 5 -0.003869 0.001163 -0.001122 0.000000 0.033213 0.000000
# 6 0.000000 0.000000 0.000000 0.012595 0.000000 0.089024
#
#
# Mechanical properties :
#
#
# Convention : Reuss Voigt Hill
#
# Bulk Modulus (GPa) = 66.27757 -186.55499 -60.13871
# Shear Modulus (GPa) = 24.92540 -17.46939 3.72800
#
# Velocity S-wave (km/s) = 3.04086 -2.54574 1.17602
# Velocity P-wave (km/s) = 6.07592 8.82323 4.52397
#
# Compressibility (1/GPa) = 0.01508806
#
# Stress axis : x y z
#
# Youngs Moduli (GPa) = 50.65909 1744.81839 126.10547
#
# Poissons Ratio (x) = 9.53852 0.05437
# Poissons Ratio (y) = 0.27694 0.08568
# Poissons Ratio (z) = 0.02184 1.18546
#
# Static dielectric constant tensor:
#      x y z
#    x 2.390540 0.000000 -0.161970 
#    y 0.000000 2.752090 0.000000 
#    z -0.161970 0.000000 2.472860 
# 
# From -- ./inp_files/257678.got.cif
#   From: 2010.05.17/outbox.cif.g08.bks.cpg/sg15_129_cif.got.tgz:257678.got - 2010.06.03 18:47:42.
