data_PCOD9290002
_publ_section_title
;
Structure prediction by ZEFSAII (Michael W. Deem and Ramdas Pophale) SiO2 
 PCOD9290002
Probable space group: C 2/C
;
_chemical_formula_sum "Si O2"
_cell_formula_units_Z 48
_cell_length_a 10.554691
_cell_length_b 20.403863
_cell_length_c 11.770315
_cell_angle_alpha 90.000000
_cell_angle_beta 60.378848
_cell_angle_gamma 90.000000
_cell_volume 2203.545095
_symmetry_space_group_name_H-M "C 2/C"
_symmetry_group_IT_number 15
_symmetry_cell_setting 'monoclinic'
loop_
_space_group_symop_operation_xyz
x,y,z
-x,y,1/2-z
-x,-y,-z
x,-y,1/2+z
1/2+x,1/2+y,z
1/2-x,1/2+y,1/2-z
1/2-x,1/2-y,-z
1/2+x,1/2-y,1/2+z
loop_
_atom_site_type_symbol
_atom_site_label
_atom_site_fract_x
_atom_site_fract_y
_atom_site_fract_z
Si Si1 0.326000 0.739332 0.588873
Si Si2 0.008448 0.364451 0.574602
Si Si3 0.859582 0.626987 0.729774
Si Si4 0.657939 0.467632 0.455378
Si Si5 0.199884 0.408270 0.666911
Si Si6 0.000764 0.856319 0.624747
O O1 0.250000 0.750000 0.500000
O O2 0.395243 0.804917 0.607712
O O3 0.216364 0.697983 0.715972
O O4 0.458818 0.692510 0.493648
O O5 0.080299 0.380205 0.423240
O O6 0.134664 0.353253 0.612123
O O7 0.914930 0.420199 0.680886
O O8 0.736598 0.574204 0.820997
O O9 0.000000 0.621543 0.750000
O O10 0.500000 0.500000 0.500000
O O11 0.764318 0.528592 0.425732
O O12 0.623430 0.413851 0.566927
O O13 0.347147 0.386884 0.662054
O O14 0.000000 0.826017 0.750000
#
# Coordination Sequence:
#
# PCOD9290002 Si02
#       6
#     8   8   8   8   8   8
#     4  11  23  41  63  95 134 169 231 279 335 407
#     4  11  25  41  64  98 139 180 216 290 345 407
#     4  11  24  41  69 102 128 178 238 287 341 403
#     4   9  22  45  66  99 138 176 234 282 352 426
#     4  10  24  44  61  99 137 177 226 271 357 407
#     4  10  22  40  72  95 127 182 227 285 338 409
#
# _framework density 21.783080000000002
#
# number of rings (size 3 to 8) (size 9 to 14) (size 15 to 20)
#    0.000    1.667    1.667    1.000    9.333    4.000 
#    3.000    5.833    0.000    0.000    0.000    0.000 
#    0.000    0.000    0.000    0.000    0.000    0.000 
#
# Total GULP energy -133878.501188 kJ/mol
# GULP energy per Si atom -5578.270883 kJ/mol
# Density = 2.173350 g / cm^3
# Si number density = 21.783080 Si / 1000 Ang^3
#
#
#
# Elastic Constant Matrix: (Units=GPa)
#
#
# Indices 1 2 3 4 5 6 
#
# 1 82.3222 28.9265 55.3170 0.0000 -2.9383 0.0000
# 2 28.9265 67.9929 27.0150 0.0000 -12.7537 0.0000
# 3 55.3170 27.0150 164.1696 0.0000 -12.0041 0.0000
# 4 0.0000 0.0000 0.0000 29.4616 0.0000 -13.3701
# 5 -2.9383 -12.7537 -12.0041 0.0000 34.2939 0.0000
# 6 0.0000 0.0000 0.0000 -13.3701 0.0000 27.5931
#
#
#
# Elastic Compliance Matrix: (Units=1/GPa)
#
#
# Indices 1 2 3 4 5 6 
#
# 1 0.017585 -0.005908 -0.005135 0.000000 -0.002488 0.000000
# 2 -0.005908 0.018632 -0.000622 0.000000 0.006205 0.000000
# 3 -0.005135 -0.000622 0.008082 0.000000 0.002158 0.000000
# 4 0.000000 0.000000 0.000000 0.043510 0.000000 0.021083
# 5 -0.002488 0.006205 0.002158 0.000000 0.032010 0.000000
# 6 0.000000 0.000000 0.000000 0.021083 0.000000 0.046457
#
#
# Mechanical properties :
#
#
# Convention : Reuss Voigt Hill
#
# Bulk Modulus (GPa) = 47.68805 59.66684 53.67744
# Shear Modulus (GPa) = 25.43328 31.81813 28.62571
#
# Velocity S-wave (km/s) = 3.42068 3.82603 3.62902
# Velocity P-wave (km/s) = 6.12708 6.85338 6.50039
#
# Compressibility (1/GPa) = 0.02096961
#
# Stress axis : x y z
#
# Youngs Moduli (GPa) = 56.86683 53.67205 123.73820
#
# Poissons Ratio (x) = 0.31707 0.63540
# Poissons Ratio (y) = 0.33595 0.07692
# Poissons Ratio (z) = 0.29201 0.03336
#
# Static dielectric constant tensor:
#      x y z
#    x 1.804570 0.000000 -0.047430 
#    y 0.000000 1.886390 0.000000 
#    z -0.047430 0.000000 1.799030 
# 
# From -- ./inp_files/89402.got.cif
#   From: 2010.05.17/outbox.cif.g08.bks.cpg/sg15_45_cif.got.tgz:89402.got - 2010.06.03 18:47:42.
