data_PCOD9290075
_publ_section_title
;
Structure prediction by ZEFSAII (Michael W. Deem and Ramdas Pophale) SiO2 
 PCOD9290075
Probable space group: C 2/C
;
_chemical_formula_sum "Si O2"
_cell_formula_units_Z 48
_cell_length_a 8.922831
_cell_length_b 17.392030
_cell_length_c 15.325294
_cell_angle_alpha 90.000000
_cell_angle_beta 96.235937
_cell_angle_gamma 90.000000
_cell_volume 2364.201115
_symmetry_space_group_name_H-M "C 2/C"
_symmetry_group_IT_number 15
_symmetry_cell_setting 'monoclinic'
loop_
_space_group_symop_operation_xyz
x,y,z
-x,y,1/2-z
-x,-y,-z
x,-y,1/2+z
1/2+x,1/2+y,z
1/2-x,1/2+y,1/2-z
1/2-x,1/2-y,-z
1/2+x,1/2-y,1/2+z
loop_
_atom_site_type_symbol
_atom_site_label
_atom_site_fract_x
_atom_site_fract_y
_atom_site_fract_z
Si Si1 0.500000 0.225740 0.750000
Si Si2 0.167503 0.829673 0.482467
Si Si3 0.940611 0.441150 0.069729
Si Si4 0.414930 0.758037 0.048342
Si Si5 0.628330 0.524078 0.078456
Si Si6 0.714302 0.896770 0.189975
Si Si7 0.000000 0.003062 0.750000
O O1 0.539471 0.262548 0.847500
O O2 0.353782 0.171875 0.757286
O O3 0.250000 0.750000 0.500000
O O4 0.203766 0.896555 0.552588
O O5 0.209764 0.861445 0.391541
O O6 0.000223 0.802495 0.491893
O O7 0.950361 0.350315 0.043940
O O8 0.769959 0.464429 0.086102
O O9 0.067199 0.445974 0.153442
O O10 0.000000 0.500000 0.000000
O O11 0.250000 0.750000 0.000000
O O12 0.534813 0.538526 0.161348
O O13 0.500000 0.500000 0.000000
O O14 0.849194 0.946285 0.235530
#
# Coordination Sequence:
#
# PCOD9290075 Si02
#       7
#     4   8   8   8   8   8   4
#     4  10  22  41  60  96 133 174 224 274 336 423
#     4  12  22  44  66  96 137 175 220 279 343 410
#     4  11  20  42  67  93 128 175 224 268 332 414
#     4  11  24  39  66  98 130 175 220 278 344 399
#     4  12  24  42  68 100 131 176 230 277 336 407
#     4  11  23  40  69  96 132 179 224 277 345 406
#     4  12  24  41  68 100 135 172 226 288 332 409
#
# _framework density 20.302841000000001
#
# number of rings (size 3 to 8) (size 9 to 14) (size 15 to 20)
#    0.000    0.667    6.667    3.000    2.333    0.667 
#    0.000    0.000    0.000    2.000    0.000    0.000 
#    0.000    0.000    0.000    0.000    0.000    0.000 
#
# Total GULP energy -133686.510692 kJ/mol
# GULP energy per Si atom -5570.271279 kJ/mol
# Density = 2.025663 g / cm^3
# Si number density = 20.302841 Si / 1000 Ang^3
#
#
#
# Elastic Constant Matrix: (Units=GPa)
#
#
# Indices 1 2 3 4 5 6 
#
# 1 122.0709 12.0497 30.3521 0.0000 6.3721 0.0000
# 2 12.0497 69.1918 30.3288 0.0000 -0.3914 0.0000
# 3 30.3521 30.3288 101.0682 0.0000 -28.3182 0.0000
# 4 0.0000 0.0000 0.0000 13.8054 0.0000 -1.7725
# 5 6.3721 -0.3914 -28.3182 0.0000 49.1542 0.0000
# 6 0.0000 0.0000 0.0000 -1.7725 0.0000 37.4431
#
#
#
# Elastic Compliance Matrix: (Units=1/GPa)
#
#
# Indices 1 2 3 4 5 6 
#
# 1 0.009295 -0.000003 -0.003730 0.000000 -0.003354 0.000000
# 2 -0.000003 0.017095 -0.006071 0.000000 -0.003361 0.000000
# 3 -0.003730 -0.006071 0.015453 0.000000 0.009338 0.000000
# 4 0.000000 0.000000 0.000000 0.072878 0.000000 0.003450
# 5 -0.003354 -0.003361 0.009338 0.000000 0.026132 0.000000
# 6 0.000000 0.000000 0.000000 0.003450 0.000000 0.026870
#
#
# Mechanical properties :
#
#
# Convention : Reuss Voigt Hill
#
# Bulk Modulus (GPa) = 44.97421 48.64358 46.80890
# Shear Modulus (GPa) = 25.67493 34.72056 30.19775
#
# Velocity S-wave (km/s) = 3.55998 4.13986 3.86082
# Velocity P-wave (km/s) = 6.25281 6.84560 6.55591
#
# Compressibility (1/GPa) = 0.02223496
#
# Stress axis : x y z
#
# Youngs Moduli (GPa) = 107.58677 58.49637 64.71368
#
# Poissons Ratio (x) = 0.00015 0.24141
# Poissons Ratio (y) = 0.00027 0.39287
# Poissons Ratio (z) = 0.40134 0.35513
#
# Static dielectric constant tensor:
#      x y z
#    x 2.285420 0.000000 -0.298880 
#    y 0.000000 1.716410 0.000000 
#    z -0.298880 0.000000 1.910840 
# 
# From -- ./inp_files/134909.got.cif
#   From: 2010.05.17/outbox.cif.g08.bks.cpg/sg15_68_cif.got.tgz:134909.got - 2010.06.03 18:47:42.
