data_PCOD9290042
_publ_section_title
;
Structure prediction by ZEFSAII (Michael W. Deem and Ramdas Pophale) SiO2 
 PCOD9290042
Probable space group: C 2/C
;
_chemical_formula_sum "Si O2"
_cell_formula_units_Z 28
_cell_length_a 11.153981
_cell_length_b 11.132954
_cell_length_c 15.305408
_cell_angle_alpha 90.000000
_cell_angle_beta 140.636773
_cell_angle_gamma 90.000000
_cell_volume 1205.410704
_symmetry_space_group_name_H-M "C 2/C"
_symmetry_group_IT_number 15
_symmetry_cell_setting 'monoclinic'
loop_
_space_group_symop_operation_xyz
x,y,z
-x,y,1/2-z
-x,-y,-z
x,-y,1/2+z
1/2+x,1/2+y,z
1/2-x,1/2+y,1/2-z
1/2-x,1/2-y,-z
1/2+x,1/2-y,1/2+z
loop_
_atom_site_type_symbol
_atom_site_label
_atom_site_fract_x
_atom_site_fract_y
_atom_site_fract_z
Si Si1 0.000000 0.587802 0.250000
Si Si2 0.191489 0.814789 0.279187
Si Si3 0.857740 0.959035 0.065481
Si Si4 0.966547 0.228191 0.133994
O O1 0.878731 0.680444 0.240307
O O2 0.165128 0.527928 0.401486
O O3 0.196214 0.895753 0.371016
O O4 0.393289 0.800098 0.349271
O O5 0.022123 0.868679 0.123950
O O6 0.972929 0.083352 0.134233
O O7 0.000000 0.269882 0.250000
O O8 0.750000 0.250000 0.000000
#
# Coordination Sequence:
#
# PCOD9290042 Si02
#       4
#     4   8   8   8
#     4  10  22  40  80 106 136 198 240 292 370 426
#     4  10  22  47  75  99 150 188 245 296 359 428
#     4  10  23  49  73 106 143 193 237 303 363 418
#     4  12  29  46  70 109 148 192 243 298 362 432
#
# _framework density 23.228597000000001
#
# number of rings (size 3 to 8) (size 9 to 14) (size 15 to 20)
#    0.000    1.714    2.857    3.429   10.000    4.571 
#    0.000    0.000    0.000    0.000    0.000    0.000 
#    0.000    0.000    0.000    0.000    0.000    0.000 
#
# Total GULP energy -78072.482829 kJ/mol
# GULP energy per Si atom -5576.605916 kJ/mol
# Density = 2.317573 g / cm^3
# Si number density = 23.228597 Si / 1000 Ang^3
#
#
#
# Elastic Constant Matrix: (Units=GPa)
#
#
# Indices 1 2 3 4 5 6 
#
# 1 134.2878 42.3035 59.1860 0.0000 49.6234 0.0000
# 2 42.3035 73.1709 19.4005 0.0000 4.1965 0.0000
# 3 59.1860 19.4005 190.4089 0.0001 21.4131 0.0000
# 4 0.0000 0.0000 0.0001 60.1450 0.0000 8.7666
# 5 49.6234 4.1965 21.4131 0.0000 31.8411 0.0000
# 6 0.0000 0.0000 0.0000 8.7666 0.0000 8.5220
#
#
#
# Elastic Compliance Matrix: (Units=1/GPa)
#
#
# Indices 1 2 3 4 5 6 
#
# 1 0.026646 -0.012499 -0.002731 0.000000 -0.038043 0.000000
# 2 -0.012499 0.019937 -0.000045 0.000000 0.016882 0.000000
# 3 -0.002731 -0.000045 0.006086 0.000000 0.000169 0.000000
# 4 0.000000 0.000000 0.000000 0.019559 0.000000 -0.020121
# 5 -0.038043 0.016882 0.000169 0.000000 0.088356 0.000000
# 6 0.000000 0.000000 0.000000 -0.020121 0.000000 0.138041
#
#
# Mechanical properties :
#
#
# Convention : Reuss Voigt Hill
#
# Bulk Modulus (GPa) = 45.20914 71.07194 58.14054
# Shear Modulus (GPa) = 14.85675 38.56682 26.71178
#
# Velocity S-wave (km/s) = 2.53175 4.07912 3.39477
# Velocity P-wave (km/s) = 5.29635 7.26972 6.36004
#
# Compressibility (1/GPa) = 0.02211942
#
# Stress axis : x y z
#
# Youngs Moduli (GPa) = 37.52937 50.15880 164.30504
#
# Poissons Ratio (x) = 0.62695 0.44867
# Poissons Ratio (y) = 0.46909 0.00733
# Poissons Ratio (z) = 0.10248 0.00224
#
# Static dielectric constant tensor:
#      x y z
#    x 1.900910 0.000000 -0.034950 
#    y 0.000000 2.168320 0.000000 
#    z -0.034950 0.000000 1.886560 
# 
# From -- ./inp_files/55548.got.cif
#   From: 2010.05.17/outbox.cif.g08.bks.cpg/sg15_28_cif.got.tgz:55548.got - 2010.06.03 18:47:42.
