data_PCOD9290309
_publ_section_title
;
Structure prediction by ZEFSAII (Michael W. Deem and Ramdas Pophale) SiO2 
 PCOD9290309
Probable space group: C 2/C
;
_chemical_formula_sum "Si O2"
_cell_formula_units_Z 44
_cell_length_a 5.602993
_cell_length_b 15.000251
_cell_length_c 20.905840
_cell_angle_alpha 90.000000
_cell_angle_beta 86.645895
_cell_angle_gamma 90.000000
_cell_volume 1754.048711
_symmetry_space_group_name_H-M "C 2/C"
_symmetry_group_IT_number 15
_symmetry_cell_setting 'monoclinic'
loop_
_space_group_symop_operation_xyz
x,y,z
-x,y,1/2-z
-x,-y,-z
x,-y,1/2+z
1/2+x,1/2+y,z
1/2-x,1/2+y,1/2-z
1/2-x,1/2-y,-z
1/2+x,1/2-y,1/2+z
loop_
_atom_site_type_symbol
_atom_site_label
_atom_site_fract_x
_atom_site_fract_y
_atom_site_fract_z
Si Si1 0.182314 0.089870 0.073289
Si Si2 0.000000 0.210585 0.750000
Si Si3 0.003645 0.734308 0.461786
Si Si4 0.933790 0.916650 0.075157
Si Si5 0.357276 0.654900 0.189188
Si Si6 0.202906 0.449939 0.194932
O O1 0.443380 0.135753 0.066901
O O2 0.017716 0.152061 0.122000
O O3 0.097210 0.082572 0.000887
O O4 0.131819 0.988067 0.095443
O O5 0.136284 0.278252 0.699563
O O6 0.153427 0.138254 0.786954
O O7 0.250000 0.750000 0.500000
O O8 0.003174 0.815274 0.413087
O O9 0.750000 0.750000 0.500000
O O10 0.693467 0.939967 0.117947
O O11 0.500000 0.683413 0.250000
O O12 0.296508 0.551035 0.200663
O O13 0.000000 0.447790 0.250000
#
# Coordination Sequence:
#
# PCOD9290309 Si02
#       6
#     8   4   8   8   8   8
#     4   9  21  44  68  98 139 185 237 298 367 430
#     4  12  26  42  74  98 138 198 228 302 372 420
#     4  10  22  41  65 100 139 179 236 291 356 433
#     4   9  21  43  68  98 137 184 237 301 362 432
#     4  11  24  47  69 103 143 184 242 294 361 441
#     4  11  24  46  70 103 141 183 244 296 359 441
#
# _framework density 25.084821999999999
#
# number of rings (size 3 to 8) (size 9 to 14) (size 15 to 20)
#    0.000    1.818    1.818    0.545    5.091    3.636 
#    3.273    0.000    0.000    0.000    0.000    0.000 
#    0.000    0.000    0.000    0.000    0.000    0.000 
#
# Total GULP energy -122472.027817 kJ/mol
# GULP energy per Si atom -5566.910355 kJ/mol
# Density = 2.502773 g / cm^3
# Si number density = 25.084822 Si / 1000 Ang^3
#
#
#
# Elastic Constant Matrix: (Units=GPa)
#
#
# Indices 1 2 3 4 5 6 
#
# 1 88.1894 58.1328 75.0173 0.0000 -43.2336 0.0000
# 2 58.1328 190.6815 45.4224 0.0000 -22.8750 0.0000
# 3 75.0173 45.4224 189.7860 0.0000 -33.1134 0.0000
# 4 0.0000 0.0000 0.0000 47.5171 0.0000 -5.6620
# 5 -43.2336 -22.8750 -33.1134 0.0000 30.6651 0.0000
# 6 0.0000 0.0000 0.0000 -5.6620 0.0000 27.7665
#
#
#
# Elastic Compliance Matrix: (Units=1/GPa)
#
#
# Indices 1 2 3 4 5 6 
#
# 1 0.052157 -0.006738 -0.008687 0.000000 0.059126 0.000000
# 2 -0.006738 0.006724 0.000335 0.000000 -0.004123 0.000000
# 3 -0.008687 0.000335 0.008045 0.000000 -0.003310 0.000000
# 4 0.000000 0.000000 0.000000 0.021569 0.000000 0.004398
# 5 0.059126 -0.004123 -0.003310 0.000000 0.109321 0.000000
# 6 0.000000 0.000000 0.000000 0.004398 0.000000 0.036911
#
#
# Mechanical properties :
#
#
# Convention : Reuss Voigt Hill
#
# Bulk Modulus (GPa) = 27.21485 91.75577 59.48531
# Shear Modulus (GPa) = 18.04033 40.52871 29.28452
#
# Velocity S-wave (km/s) = 2.68465 4.02390 3.42046
# Velocity P-wave (km/s) = 4.52576 7.63195 6.27412
#
# Compressibility (1/GPa) = 0.03674464
#
# Stress axis : x y z
#
# Youngs Moduli (GPa) = 19.17305 148.71309 124.29873
#
# Poissons Ratio (x) = 1.00210 1.07979
# Poissons Ratio (y) = 0.12920 -0.04162
# Poissons Ratio (z) = 0.16656 -0.04980
#
# Static dielectric constant tensor:
#      x y z
#    x 2.096740 0.000000 -0.033880 
#    y 0.000000 2.228910 0.000000 
#    z -0.033880 0.000000 2.116760 
# 
# From -- ./inp_files/285395.got.cif
#   From: 2010.05.17/outbox.cif.g08.bks.cpg/sg15_143_cif.got.tgz:285395.got - 2010.06.03 18:47:42.
