data_PCOD9290558
_publ_section_title
;
Structure prediction by ZEFSAII (Michael W. Deem and Ramdas Pophale) SiO2 
 PCOD9290558
Probable space group: C 2/C
;
_chemical_formula_sum "Si O2"
_cell_formula_units_Z 52
_cell_length_a 22.066635
_cell_length_b 8.368626
_cell_length_c 31.457869
_cell_angle_alpha 90.000000
_cell_angle_beta 24.053401
_cell_angle_gamma 90.000000
_cell_volume 2367.777372
_symmetry_space_group_name_H-M "C 2/C"
_symmetry_group_IT_number 15
_symmetry_cell_setting 'monoclinic'
loop_
_space_group_symop_operation_xyz
x,y,z
-x,y,1/2-z
-x,-y,-z
x,-y,1/2+z
1/2+x,1/2+y,z
1/2-x,1/2+y,1/2-z
1/2-x,1/2-y,-z
1/2+x,1/2-y,1/2+z
loop_
_atom_site_type_symbol
_atom_site_label
_atom_site_fract_x
_atom_site_fract_y
_atom_site_fract_z
Si Si1 0.000000 0.418461 0.750000
Si Si2 0.632980 0.977794 0.791589
Si Si3 0.545960 0.327934 0.096036
Si Si4 0.728387 0.205461 0.905201
Si Si5 0.698915 0.535772 0.068455
Si Si6 0.286868 0.838574 0.180383
Si Si7 0.540792 0.161733 0.652800
O O1 0.880241 0.306772 0.803522
O O2 0.925411 0.535452 0.831809
O O3 0.496414 0.857518 0.868924
O O4 0.768468 0.851342 0.702955
O O5 0.619991 0.061734 0.845442
O O6 0.618628 0.114256 0.765114
O O7 0.651070 0.405362 0.063688
O O8 0.382362 0.403903 0.204300
O O9 0.618050 0.317976 0.003287
O O10 0.671952 0.154347 0.895267
O O11 0.769428 0.055360 0.908397
O O12 0.564496 0.662532 0.155631
O O13 0.840652 0.636695 0.961247
#
# Coordination Sequence:
#
# PCOD9290558 Si02
#       7
#     4   8   8   8   8   8   8
#     4  12  22  40  68  98 132 158 220 270 324 400
#     4  10  22  44  63  88 127 171 215 265 323 371
#     4  10  22  41  67  92 128 176 208 267 324 388
#     4  12  21  41  68  97 127 174 217 258 337 385
#     4  11  22  39  67  98 130 168 205 267 337 389
#     4  10  24  41  65  90 124 174 219 271 307 390
#     4  11  23  40  64  98 133 161 212 271 323 392
#
# _framework density 21.961524000000001
#
# number of rings (size 3 to 8) (size 9 to 14) (size 15 to 20)
#    0.923    0.308    4.615    2.308    2.154    2.462 
#    0.000    0.769    3.385    0.000    0.000    0.000 
#    0.000    0.000    0.000    0.000    0.000    0.000 
#
# Total GULP energy -144950.188449 kJ/mol
# GULP energy per Si atom -5575.007248 kJ/mol
# Density = 2.191154 g / cm^3
# Si number density = 21.961524 Si / 1000 Ang^3
#
#
#
# Elastic Constant Matrix: (Units=GPa)
#
#
# Indices 1 2 3 4 5 6 
#
# 1 134.3195 53.3804 8.7369 0.0277 32.7468 -0.0627
# 2 53.3804 94.1430 6.8218 0.0212 15.1530 -0.0402
# 3 8.7369 6.8218 42.2251 0.0053 16.4804 -0.0154
# 4 0.0277 0.0212 0.0053 19.2607 -0.0057 -0.7021
# 5 32.7468 15.1530 16.4804 -0.0057 29.4136 0.0196
# 6 -0.0627 -0.0402 -0.0154 -0.7021 0.0196 32.8673
#
#
#
# Elastic Compliance Matrix: (Units=1/GPa)
#
#
# Indices 1 2 3 4 5 6 
#
# 1 0.012498 -0.005220 0.003377 -0.000016 -0.013117 0.000027
# 2 -0.005220 0.013774 -0.000824 -0.000007 -0.000823 0.000007
# 3 0.003377 -0.000824 0.031253 -0.000017 -0.020846 0.000032
# 4 -0.000016 -0.000007 -0.000017 0.051960 0.000041 0.001110
# 5 -0.013117 -0.000823 -0.020846 0.000041 0.060705 -0.000071
# 6 0.000027 0.000007 0.000032 0.001110 -0.000071 0.030449
#
#
# Mechanical properties :
#
#
# Convention : Reuss Voigt Hill
#
# Bulk Modulus (GPa) = 19.16042 45.39620 32.27831
# Shear Modulus (GPa) = 22.38443 29.75823 26.07133
#
# Velocity S-wave (km/s) = 3.19604 3.68505 3.44922
# Velocity P-wave (km/s) = 4.72896 6.23071 5.53104
#
# Compressibility (1/GPa) = 0.05219093
#
# Stress axis : x y z
#
# Youngs Moduli (GPa) = 80.01582 72.60076 31.99672
#
# Poissons Ratio (x) = 0.37895 -0.10805
# Poissons Ratio (y) = 0.41766 0.02637
# Poissons Ratio (z) = -0.27020 0.05983
#
# Static dielectric constant tensor:
#      x y z
#    x 1.795670 0.000000 -0.030600 
#    y 0.000000 1.828080 0.000000 
#    z -0.030600 0.000000 1.902980 
# 
# From -- ./inp_files/317371.got.cif
#   From: 2010.05.17/outbox.cif.g08.bks.cpg/sg15_159_cif.got.tgz:317371.got - 2010.06.03 18:47:42.
