data_PCOD9290980
_publ_section_title
;
Structure prediction by ZEFSAII (Michael W. Deem and Ramdas Pophale) SiO2 
 PCOD9290980
Probable space group: C 2/C
;
_chemical_formula_sum "Si O2"
_cell_formula_units_Z 56
_cell_length_a 8.557734
_cell_length_b 32.467291
_cell_length_c 11.344234
_cell_angle_alpha 90.000000
_cell_angle_beta 58.601012
_cell_angle_gamma 90.000000
_cell_volume 2690.382736
_symmetry_space_group_name_H-M "C 2/C"
_symmetry_group_IT_number 15
_symmetry_cell_setting 'monoclinic'
loop_
_space_group_symop_operation_xyz
x,y,z
-x,y,1/2-z
-x,-y,-z
x,-y,1/2+z
1/2+x,1/2+y,z
1/2-x,1/2+y,1/2-z
1/2-x,1/2-y,-z
1/2+x,1/2-y,1/2+z
loop_
_atom_site_type_symbol
_atom_site_label
_atom_site_fract_x
_atom_site_fract_y
_atom_site_fract_z
Si Si1 0.814594 0.509059 0.140128
Si Si2 0.026796 0.179033 0.878326
Si Si3 0.647123 0.406557 0.786103
Si Si4 0.000000 0.546023 0.750000
Si Si5 0.789347 0.320660 0.806543
Si Si6 0.347149 0.592547 0.590071
Si Si7 0.000000 0.046023 0.750000
Si Si8 0.792484 0.249944 0.344151
O O1 0.759849 0.555608 0.188191
O O2 0.859648 0.485048 0.242590
O O3 0.650915 0.485212 0.138992
O O4 0.000000 0.500000 0.000000
O O5 0.132084 0.141567 0.902978
O O6 0.149849 0.219337 0.840064
O O7 0.000000 0.169631 0.750000
O O8 0.840738 0.185608 0.027521
O O9 0.500000 0.389983 0.750000
O O10 0.768952 0.368821 0.781444
O O11 0.512763 0.422123 0.942095
O O12 0.146939 0.576516 0.629074
O O13 0.723010 0.292848 0.722373
O O14 0.000000 0.310818 0.750000
O O15 0.397362 0.574572 0.698018
O O16 0.750000 0.250000 0.500000
O O17 0.000000 0.264926 0.250000
#
# Coordination Sequence:
#
# PCOD9290980 Si02
#       8
#     8   8   8   4   8   8   4   8
#     4  11  24  39  64  97 129 177 226 274 339 396
#     4  11  25  46  73 102 142 186 230 280 349 413
#     4  11  24  44  69  94 134 182 226 284 339 404
#     4  10  24  38  62  96 134 174 230 278 324 414
#     4  11  27  47  71 104 140 183 233 283 343 420
#     4  10  23  44  65  96 137 176 225 278 345 398
#     4  10  22  42  62  92 132 172 216 282 328 396
#     4  12  26  47  73 107 140 180 227 286 347 420
#
# _framework density 20.814882000000001
#
# number of rings (size 3 to 8) (size 9 to 14) (size 15 to 20)
#    0.000    1.143    2.857    1.714    8.000    3.429 
#    2.571    0.000    0.000    0.000    0.000    0.000 
#    0.000    0.000    0.000    0.000    0.000    0.000 
#
# Total GULP energy -156202.770180 kJ/mol
# GULP energy per Si atom -5578.670364 kJ/mol
# Density = 2.076751 g / cm^3
# Si number density = 20.814882 Si / 1000 Ang^3
#
#
#
# Elastic Constant Matrix: (Units=GPa)
#
#
# Indices 1 2 3 4 5 6 
#
# 1 72.8897 23.4235 17.0676 0.0000 -15.9457 0.0000
# 2 23.4235 93.5357 36.9284 0.0000 -20.2641 0.0000
# 3 17.0676 36.9284 111.9758 0.0000 -15.9668 0.0000
# 4 0.0000 0.0000 0.0000 14.7959 0.0000 11.5764
# 5 -15.9457 -20.2641 -15.9668 0.0000 40.6636 0.0000
# 6 0.0000 0.0000 0.0000 11.5764 0.0000 -1.2085
#
#
#
# Elastic Compliance Matrix: (Units=1/GPa)
#
#
# Indices 1 2 3 4 5 6 
#
# 1 0.015759 -0.002612 -0.000895 0.000000 0.004526 0.000000
# 2 -0.002612 0.013679 -0.003482 0.000000 0.004425 0.000000
# 3 -0.000895 -0.003482 0.010506 0.000000 0.002039 0.000000
# 4 0.000000 0.000000 0.000000 0.007956 0.000000 0.076213
# 5 0.004526 0.004425 0.002039 0.000000 0.029373 0.000000
# 6 0.000000 0.000000 0.000000 0.076213 0.000000 -0.097409
#
#
# Mechanical properties :
#
#
# Convention : Reuss Voigt Hill
#
# Bulk Modulus (GPa) = 38.51398 48.13780 43.32589
# Shear Modulus (GPa) = 2002.18191 24.24898 1013.21544
#
# Velocity S-wave (km/s) = 31.04815 3.41689 22.08690
# Velocity P-wave (km/s) = 36.10900 6.22444 25.90949
#
# Compressibility (1/GPa) = 0.02596460
#
# Stress axis : x y z
#
# Youngs Moduli (GPa) = 63.45735 73.10670 95.18386
#
# Poissons Ratio (x) = 0.19098 0.08519
# Poissons Ratio (y) = 0.16577 0.33142
# Poissons Ratio (z) = 0.05680 0.25455
#
# Static dielectric constant tensor:
#      x y z
#    x 1.772440 0.000000 0.060560 
#    y 0.000000 1.393590 0.000000 
#    z 0.060560 0.000000 1.857800 
# 
# From -- ./inp_files/82535.got.cif
#   From: 2010.05.17/outbox.cif.g08.bks.cpg/sg15_42_cif.got.tgz:82535.got - 2010.06.03 18:47:42.
