data_PCOD9290538
_publ_section_title
;
Structure prediction by ZEFSAII (Michael W. Deem and Ramdas Pophale) SiO2 
 PCOD9290538
Probable space group: C 2/C
;
_chemical_formula_sum "Si O2"
_cell_formula_units_Z 40
_cell_length_a 10.162514
_cell_length_b 20.851965
_cell_length_c 11.973152
_cell_angle_alpha 90.000000
_cell_angle_beta 137.914853
_cell_angle_gamma 90.000000
_cell_volume 1700.525928
_symmetry_space_group_name_H-M "C 2/C"
_symmetry_group_IT_number 15
_symmetry_cell_setting 'monoclinic'
loop_
_space_group_symop_operation_xyz
x,y,z
-x,y,1/2-z
-x,-y,-z
x,-y,1/2+z
1/2+x,1/2+y,z
1/2-x,1/2+y,1/2-z
1/2-x,1/2-y,-z
1/2+x,1/2-y,1/2+z
loop_
_atom_site_type_symbol
_atom_site_label
_atom_site_fract_x
_atom_site_fract_y
_atom_site_fract_z
Si Si1 0.996371 0.321426 0.098728
Si Si2 0.189595 0.267117 0.730803
Si Si3 0.500000 0.012761 0.250000
Si Si4 0.500000 0.651983 0.750000
Si Si5 0.813085 0.109149 0.419841
Si Si6 0.265588 0.398666 0.419100
O O1 0.797094 0.342539 0.035092
O O2 0.115952 0.257975 0.209780
O O3 0.142445 0.378860 0.229535
O O4 0.949106 0.304525 0.941987
O O5 0.245087 0.318208 0.858324
O O6 0.105630 0.202767 0.733555
O O7 0.640122 0.061919 0.272260
O O8 0.667683 0.964293 0.401159
O O9 0.368143 0.607800 0.585876
O O10 0.008938 0.096953 0.471027
#
# Coordination Sequence:
#
# PCOD9290538 Si02
#       6
#     8   8   4   4   8   8
#     4  10  22  41  67 101 141 177 219 280 344 410
#     4  12  23  40  68 104 146 177 222 280 351 420
#     4  10  25  46  72  96 136 185 242 282 330 400
#     4  12  25  42  62 104 146 181 220 280 344 424
#     4  12  25  43  71 100 138 186 230 283 347 400
#     4  10  24  48  68  99 141 179 236 284 332 408
#
# _framework density 23.522133
#
# number of rings (size 3 to 8) (size 9 to 14) (size 15 to 20)
#    0.000    1.200    4.000    1.800    2.800    8.000 
#    0.000   13.000    0.000    0.000    0.000    0.000 
#    0.000    0.000    0.000    0.000    0.000    0.000 
#
# Total GULP energy -111434.230949 kJ/mol
# GULP energy per Si atom -5571.711547 kJ/mol
# Density = 2.346860 g / cm^3
# Si number density = 23.522133 Si / 1000 Ang^3
#
#
#
# Elastic Constant Matrix: (Units=GPa)
#
#
# Indices 1 2 3 4 5 6 
#
# 1 110.6685 24.4602 33.0115 0.0000 22.9108 0.0000
# 2 24.4602 89.4181 18.4891 0.0000 3.4983 0.0000
# 3 33.0115 18.4891 77.6312 0.0000 11.0532 0.0000
# 4 0.0000 0.0000 0.0000 11.5031 0.0000 14.3846
# 5 22.9108 3.4983 11.0532 0.0000 36.2167 0.0000
# 6 0.0000 0.0000 0.0000 14.3846 0.0000 25.9533
#
#
#
# Elastic Compliance Matrix: (Units=1/GPa)
#
#
# Indices 1 2 3 4 5 6 
#
# 1 0.011906 -0.002261 -0.003641 0.000000 -0.006202 0.000000
# 2 -0.002261 0.012195 -0.002069 0.000000 0.000884 0.000000
# 3 -0.003641 -0.002069 0.015228 0.000000 -0.002144 0.000000
# 4 0.000000 0.000000 0.000000 0.283250 0.000000 -0.156991
# 5 -0.006202 0.000884 -0.002144 0.000000 0.032104 0.000000
# 6 0.000000 0.000000 0.000000 -0.156991 0.000000 0.125543
#
#
# Mechanical properties :
#
#
# Convention : Reuss Voigt Hill
#
# Bulk Modulus (GPa) = 42.75996 47.73772 45.24884
# Shear Modulus (GPa) = 9.92136 28.18509 19.05323
#
# Velocity S-wave (km/s) = 2.05598 3.46531 2.84916
# Velocity P-wave (km/s) = 4.88407 6.02910 5.48654
#
# Compressibility (1/GPa) = 0.02338636
#
# Stress axis : x y z
#
# Youngs Moduli (GPa) = 83.99207 81.99966 65.66945
#
# Poissons Ratio (x) = 0.18543 0.23912
# Poissons Ratio (y) = 0.18993 0.13585
# Poissons Ratio (z) = 0.30583 0.16964
#
# Static dielectric constant tensor:
#      x y z
#    x 2.047730 0.000000 0.045740 
#    y 0.000000 1.878350 0.000000 
#    z 0.045740 0.000000 1.980980 
# 
# From -- ./inp_files/146909.got.cif
#   From: 2010.05.17/outbox.cif.g08.bks.cpg/sg15_74_cif.got.tgz:146909.got - 2010.06.03 18:47:42.
