data_PCOD9290464
_publ_section_title
;
Structure prediction by ZEFSAII (Michael W. Deem and Ramdas Pophale) SiO2 
 PCOD9290464
Probable space group: C 2/C
;
_chemical_formula_sum "Si O2"
_cell_formula_units_Z 64
_cell_length_a 26.473400
_cell_length_b 15.326080
_cell_length_c 11.788287
_cell_angle_alpha 90.000000
_cell_angle_beta 36.195588
_cell_angle_gamma 90.000000
_cell_volume 2824.511998
_symmetry_space_group_name_H-M "C 2/C"
_symmetry_group_IT_number 15
_symmetry_cell_setting 'monoclinic'
loop_
_space_group_symop_operation_xyz
x,y,z
-x,y,1/2-z
-x,-y,-z
x,-y,1/2+z
1/2+x,1/2+y,z
1/2-x,1/2+y,1/2-z
1/2-x,1/2-y,-z
1/2+x,1/2-y,1/2+z
loop_
_atom_site_type_symbol
_atom_site_label
_atom_site_fract_x
_atom_site_fract_y
_atom_site_fract_z
Si Si1 0.195470 0.097331 0.477520
Si Si2 0.048134 0.300434 0.931962
Si Si3 0.493717 0.668020 0.643759
Si Si4 0.167166 0.399302 0.572602
Si Si5 0.179747 0.710435 0.399757
Si Si6 0.455715 0.511526 0.454369
Si Si7 0.434036 0.926520 0.265704
Si Si8 0.702875 0.406965 0.352868
O O1 0.100573 0.125006 0.686300
O O2 0.257652 0.106370 0.472245
O O3 0.238535 0.161619 0.304876
O O4 0.199618 0.994548 0.434734
O O5 0.991756 0.219095 0.997624
O O6 0.105658 0.320447 0.718095
O O7 0.109981 0.282047 0.924539
O O8 0.990270 0.382156 0.067085
O O9 0.500000 0.719915 0.750000
O O10 0.562560 0.590692 0.531649
O O11 0.114329 0.487524 0.683291
O O12 0.207970 0.401260 0.375305
O O13 0.135563 0.644593 0.567388
O O14 0.191441 0.809420 0.422667
O O15 0.500000 0.536666 0.250000
O O16 0.500000 0.500000 0.500000
O O17 0.372663 0.571677 0.601228
O O18 0.500000 0.944089 0.250000
#
# Coordination Sequence:
#
# PCOD9290464 Si02
#       8
#     8   8   8   8   8   8   8   8
#     4  11  22  44  63  93 133 169 223 271 328 411
#     4  10  22  41  66  93 125 172 221 272 331 406
#     4  11  22  42  61  93 135 171 219 279 327 401
#     4  11  23  42  68  93 127 179 221 267 341 404
#     4  10  22  41  66  92 127 167 220 269 338 405
#     4  11  23  39  63  96 134 174 223 279 346 413
#     4  10  22  43  65  95 133 165 217 286 333 401
#     4  12  23  40  69  94 130 182 215 274 344 413
#
# _framework density 22.658783
#
# number of rings (size 3 to 8) (size 9 to 14) (size 15 to 20)
#    0.000    1.250    3.750    3.375    0.000    5.000 
#    4.500    0.625    0.000    0.000    0.000    0.000 
#    0.000    0.000    0.000    0.000    0.000    0.000 
#
# Total GULP energy -178476.157571 kJ/mol
# GULP energy per Si atom -5577.379924 kJ/mol
# Density = 2.260721 g / cm^3
# Si number density = 22.658783 Si / 1000 Ang^3
#
#
#
# Elastic Constant Matrix: (Units=GPa)
#
#
# Indices 1 2 3 4 5 6 
#
# 1 37.3000 3.4342 2.4339 0.0000 1.7719 0.0000
# 2 3.4342 92.2954 8.0323 0.0000 -4.1032 0.0000
# 3 2.4339 8.0323 71.6924 0.0000 1.5637 0.0000
# 4 0.0000 0.0000 0.0000 17.0519 0.0000 -2.0967
# 5 1.7719 -4.1032 1.5637 0.0000 23.5020 0.0000
# 6 0.0000 0.0000 0.0000 -2.0967 0.0000 28.3927
#
#
#
# Elastic Compliance Matrix: (Units=1/GPa)
#
#
# Indices 1 2 3 4 5 6 
#
# 1 0.027058 -0.001038 -0.000755 0.000000 -0.002171 0.000000
# 2 -0.001038 0.011075 -0.001251 0.000000 0.002095 0.000000
# 3 -0.000755 -0.001251 0.014138 0.000000 -0.001102 0.000000
# 4 0.000000 0.000000 0.000000 0.059182 0.000000 0.004370
# 5 -0.002171 0.002095 -0.001102 0.000000 0.043152 0.000000
# 6 0.000000 0.000000 0.000000 0.004370 0.000000 0.035543
#
#
# Mechanical properties :
#
#
# Convention : Reuss Voigt Hill
#
# Bulk Modulus (GPa) = 21.65275 25.45428 23.55352
# Shear Modulus (GPa) = 23.62604 26.28183 24.95394
#
# Velocity S-wave (km/s) = 3.23257 3.40942 3.32217
# Velocity P-wave (km/s) = 4.84865 5.17271 5.01330
#
# Compressibility (1/GPa) = 0.04618352
#
# Stress axis : x y z
#
# Youngs Moduli (GPa) = 36.95828 90.29000 70.72965
#
# Poissons Ratio (x) = 0.09368 0.05340
# Poissons Ratio (y) = 0.03835 0.08851
# Poissons Ratio (z) = 0.02790 0.11298
#
# Static dielectric constant tensor:
#      x y z
#    x 1.881530 0.000000 0.017340 
#    y 0.000000 1.897600 0.000000 
#    z 0.017340 0.000000 1.868310 
# 
# From -- ./inp_files/123504.got.cif
#   From: 2010.05.17/outbox.cif.g08.bks.cpg/sg15_62_cif.got.tgz:123504.got - 2010.06.03 18:47:42.
