data_PCOD9290609
_publ_section_title
;
Structure prediction by ZEFSAII (Michael W. Deem and Ramdas Pophale) SiO2 
 PCOD9290609
Probable space group: C 2/C
;
_chemical_formula_sum "Si O2"
_cell_formula_units_Z 56
_cell_length_a 13.902948
_cell_length_b 19.342414
_cell_length_c 18.292718
_cell_angle_alpha 90.000000
_cell_angle_beta 147.014153
_cell_angle_gamma 90.000000
_cell_volume 2678.177387
_symmetry_space_group_name_H-M "C 2/C"
_symmetry_group_IT_number 15
_symmetry_cell_setting 'monoclinic'
loop_
_space_group_symop_operation_xyz
x,y,z
-x,y,1/2-z
-x,-y,-z
x,-y,1/2+z
1/2+x,1/2+y,z
1/2-x,1/2+y,1/2-z
1/2-x,1/2-y,-z
1/2+x,1/2-y,1/2+z
loop_
_atom_site_type_symbol
_atom_site_label
_atom_site_fract_x
_atom_site_fract_y
_atom_site_fract_z
Si Si1 0.522651 0.134413 0.850574
Si Si2 0.500000 0.124312 0.250000
Si Si3 0.500000 0.354325 0.250000
Si Si4 0.127682 0.937890 0.474869
Si Si5 0.975487 0.213928 0.089697
Si Si6 0.603701 0.576782 0.386531
Si Si7 0.340419 0.756511 0.742143
Si Si8 0.861795 0.846154 0.377664
O O1 0.500000 0.118571 0.750000
O O2 0.561431 0.215390 0.891982
O O3 0.330555 0.123695 0.765218
O O4 0.687762 0.093021 0.989097
O O5 0.668794 0.079468 0.379985
O O6 0.559756 0.176291 0.223202
O O7 0.568967 0.399598 0.361769
O O8 0.650301 0.301358 0.315806
O O9 0.007811 0.904593 0.461809
O O10 0.093919 0.018572 0.442216
O O11 0.150045 0.224010 0.152011
O O12 0.988877 0.148786 0.151133
O O13 0.836197 0.188673 0.940176
O O14 0.500000 0.550373 0.250000
O O15 0.423415 0.715277 0.863192
#
# Coordination Sequence:
#
# PCOD9290609 Si02
#       8
#     8   4   4   8   8   8   8   8
#     4  11  24  44  68  97 125 169 216 265 317 370
#     4  11  22  38  68 100 127 168 220 256 311 386
#     4   9  20  42  66  88 137 168 208 258 325 378
#     4  11  24  44  63  95 132 173 208 258 320 385
#     4  11  22  40  67  98 130 160 215 266 316 367
#     4  12  27  45  66  90 129 173 217 257 320 387
#     4   9  21  36  65 101 127 166 209 267 317 368
#     4  10  22  41  67  98 133 164 205 269 325 366
#
# _framework density 20.909742999999999
#
# number of rings (size 3 to 8) (size 9 to 14) (size 15 to 20)
#    0.000    1.429    3.571    0.857    7.000    2.286 
#    2.571    0.714    0.000    0.000    0.000    0.000 
#    0.000    0.000    0.000    0.000    0.000    0.000 
#
# Total GULP energy -156260.301817 kJ/mol
# GULP energy per Si atom -5580.725065 kJ/mol
# Density = 2.086215 g / cm^3
# Si number density = 20.909743 Si / 1000 Ang^3
#
#
#
# Elastic Constant Matrix: (Units=GPa)
#
#
# Indices 1 2 3 4 5 6 
#
# 1 66.1857 7.0303 23.9411 -0.0008 1.8285 -0.0005
# 2 7.0303 72.1767 27.5789 -0.0035 1.3370 -0.0027
# 3 23.9411 27.5789 107.3321 -0.0036 12.3005 -0.0027
# 4 -0.0008 -0.0035 -0.0036 18.2972 -0.0011 -2.7790
# 5 1.8285 1.3370 12.3005 -0.0011 33.0929 -0.0008
# 6 -0.0005 -0.0027 -0.0027 -2.7790 -0.0008 18.0334
#
#
#
# Elastic Compliance Matrix: (Units=1/GPa)
#
#
# Indices 1 2 3 4 5 6 
#
# 1 0.016445 -0.000209 -0.003668 0.000000 0.000463 0.000000
# 2 -0.000209 0.015391 -0.004009 0.000003 0.000880 0.000002
# 3 -0.003668 -0.004009 0.011618 0.000001 -0.003954 0.000001
# 4 0.000000 0.000003 0.000001 0.055963 0.000002 0.008624
# 5 0.000463 0.000880 -0.003954 0.000002 0.031626 0.000001
# 6 0.000000 0.000002 0.000001 0.008624 0.000001 0.056782
#
#
# Mechanical properties :
#
#
# Convention : Reuss Voigt Hill
#
# Bulk Modulus (GPa) = 36.12307 40.31056 38.21681
# Shear Modulus (GPa) = 23.49365 26.36098 24.92732
#
# Velocity S-wave (km/s) = 3.35561 3.55449 3.45648
# Velocity P-wave (km/s) = 5.68566 6.01382 5.85204
#
# Compressibility (1/GPa) = 0.02768314
#
# Stress axis : x y z
#
# Youngs Moduli (GPa) = 60.80852 64.97412 86.07238
#
# Poissons Ratio (x) = 0.01358 0.31567
# Poissons Ratio (y) = 0.01271 0.34505
# Poissons Ratio (z) = 0.22302 0.26047
#
# Static dielectric constant tensor:
#      x y z
#    x 1.789320 0.000000 -0.029490 
#    y 0.000000 1.740610 0.000000 
#    z -0.029490 0.000000 1.820690 
# 
# From -- ./inp_files/245220.got.cif
#   From: 2010.05.17/outbox.cif.g08.bks.cpg/sg15_123_cif.got.tgz:245220.got - 2010.06.03 18:47:42.
