data_PCOD9290301
_publ_section_title
;
Structure prediction by ZEFSAII (Michael W. Deem and Ramdas Pophale) SiO2 
 PCOD9290301
Probable space group: C 2/C
;
_chemical_formula_sum "Si O2"
_cell_formula_units_Z 64
_cell_length_a 25.302960
_cell_length_b 12.410333
_cell_length_c 13.308928
_cell_angle_alpha 90.000000
_cell_angle_beta 48.280583
_cell_angle_gamma 90.000000
_cell_volume 3119.441597
_symmetry_space_group_name_H-M "C 2/C"
_symmetry_group_IT_number 15
_symmetry_cell_setting 'monoclinic'
loop_
_space_group_symop_operation_xyz
x,y,z
-x,y,1/2-z
-x,-y,-z
x,-y,1/2+z
1/2+x,1/2+y,z
1/2-x,1/2+y,1/2-z
1/2-x,1/2-y,-z
1/2+x,1/2-y,1/2+z
loop_
_atom_site_type_symbol
_atom_site_label
_atom_site_fract_x
_atom_site_fract_y
_atom_site_fract_z
Si Si1 0.632975 0.927600 0.447070
Si Si2 0.118363 0.498791 0.681373
Si Si3 0.740641 0.974888 0.655407
Si Si4 0.650635 0.670297 0.970808
Si Si5 0.010863 0.308587 0.854999
Si Si6 0.276899 0.736050 0.211078
Si Si7 0.014335 0.875349 0.510800
Si Si8 0.382359 0.245265 0.765979
O O1 0.611460 0.997197 0.570102
O O2 0.561746 0.861620 0.511255
O O3 0.690451 0.833468 0.394621
O O4 0.674387 0.998003 0.313174
O O5 0.199782 0.469301 0.602376
O O6 0.069124 0.403218 0.785441
O O7 0.101541 0.617576 0.744106
O O8 0.782099 0.872391 0.642486
O O9 0.795444 0.071550 0.585451
O O10 0.695024 0.749225 0.842658
O O11 0.579564 0.634510 0.005150
O O12 0.639011 0.719441 0.095099
O O13 0.000000 0.283769 0.750000
O O14 0.028253 0.201850 0.896392
O O15 0.320544 0.738403 0.260958
O O16 0.946857 0.819884 0.649220
O O17 0.000000 0.000000 0.500000
#
# Coordination Sequence:
#
# PCOD9290301 Si02
#       8
#     8   8   8   8   8   8   8   8
#     4  10  22  41  64  99 130 173 220 275 338 385
#     4  11  23  41  70 101 129 175 222 282 338 392
#     4  11  23  40  64  97 136 173 222 274 330 398
#     4  11  25  40  66 104 127 178 227 269 338 397
#     4  10  23  43  68  98 130 172 223 276 336 395
#     4  11  22  43  66  94 140 177 219 276 338 393
#     4  12  26  47  67  97 137 181 225 274 336 402
#     4  12  24  45  69  98 138 174 226 281 335 395
#
# _framework density 20.516492
#
# number of rings (size 3 to 8) (size 9 to 14) (size 15 to 20)
#    0.000    1.000    3.750    3.000    1.750    7.500 
#    2.250    0.000    0.000    0.000    0.000    0.000 
#    0.000    0.000    0.000    0.000    0.000    0.000 
#
# Total GULP energy -178698.703024 kJ/mol
# GULP energy per Si atom -5584.334470 kJ/mol
# Density = 2.046980 g / cm^3
# Si number density = 20.516492 Si / 1000 Ang^3
#
#
#
# Elastic Constant Matrix: (Units=GPa)
#
#
# Indices 1 2 3 4 5 6 
#
# 1 71.4756 36.6348 3.1536 0.0000 -10.3449 0.0000
# 2 36.6348 119.7133 23.6188 0.0000 1.2338 0.0000
# 3 3.1536 23.6188 55.1553 0.0000 -7.1323 0.0000
# 4 0.0000 0.0000 0.0000 11.2176 0.0000 1.1400
# 5 -10.3449 1.2338 -7.1323 0.0000 26.2583 0.0000
# 6 0.0000 0.0000 0.0000 1.1400 0.0000 24.8750
#
#
#
# Elastic Compliance Matrix: (Units=1/GPa)
#
#
# Indices 1 2 3 4 5 6 
#
# 1 0.018233 -0.006191 0.002669 0.000000 0.008199 0.000000
# 2 -0.006191 0.011287 -0.005040 0.000000 -0.004338 0.000000
# 3 0.002669 -0.005040 0.021042 0.000000 0.007004 0.000000
# 4 0.000000 0.000000 0.000000 0.089563 0.000000 -0.004105
# 5 0.008199 -0.004338 0.007004 0.000000 0.043419 0.000000
# 6 0.000000 0.000000 0.000000 -0.004105 0.000000 0.040389
#
#
# Mechanical properties :
#
#
# Convention : Reuss Voigt Hill
#
# Bulk Modulus (GPa) = 29.90687 41.46206 35.68446
# Shear Modulus (GPa) = 19.82525 24.66597 22.24561
#
# Velocity S-wave (km/s) = 3.11192 3.47111 3.29641
# Velocity P-wave (km/s) = 5.24602 6.02643 5.64971
#
# Compressibility (1/GPa) = 0.03343714
#
# Stress axis : x y z
#
# Youngs Moduli (GPa) = 54.84663 88.59841 47.52377
#
# Poissons Ratio (x) = 0.54848 -0.12683
# Poissons Ratio (y) = 0.33953 0.23954
# Poissons Ratio (z) = -0.14637 0.44657
#
# Static dielectric constant tensor:
#      x y z
#    x 1.743880 0.000000 0.015430 
#    y 0.000000 1.727160 0.000000 
#    z 0.015430 0.000000 1.737730 
# 
# From -- ./inp_files/177789.got.cif
#   From: 2010.05.17/outbox.cif.g08.bks.cpg/sg15_89_cif.got.tgz:177789.got - 2010.06.03 18:47:42.
