data_PCOD9290777
_publ_section_title
;
Structure prediction by ZEFSAII (Michael W. Deem and Ramdas Pophale) SiO2 
 PCOD9290777
Probable space group: C 2/C
;
_chemical_formula_sum "Si O2"
_cell_formula_units_Z 56
_cell_length_a 13.804003
_cell_length_b 5.379919
_cell_length_c 30.402705
_cell_angle_alpha 90.000000
_cell_angle_beta 84.495746
_cell_angle_gamma 90.000000
_cell_volume 2247.428476
_symmetry_space_group_name_H-M "C 2/C"
_symmetry_group_IT_number 15
_symmetry_cell_setting 'monoclinic'
loop_
_space_group_symop_operation_xyz
x,y,z
-x,y,1/2-z
-x,-y,-z
x,-y,1/2+z
1/2+x,1/2+y,z
1/2-x,1/2+y,1/2-z
1/2-x,1/2-y,-z
1/2+x,1/2-y,1/2+z
loop_
_atom_site_type_symbol
_atom_site_label
_atom_site_fract_x
_atom_site_fract_y
_atom_site_fract_z
Si Si1 0.688085 0.214657 0.594017
Si Si2 0.968555 0.183003 0.463134
Si Si3 0.395969 0.889141 0.551770
Si Si4 0.602201 0.612027 0.768073
Si Si5 0.184728 0.028494 0.671370
Si Si6 0.390519 0.889694 0.176475
Si Si7 0.452938 0.817495 0.884620
O O1 0.606870 0.380120 0.572098
O O2 0.790914 0.294738 0.570418
O O3 0.690174 0.264868 0.646341
O O4 0.642079 0.944392 0.589741
O O5 0.906214 0.364344 0.498764
O O6 0.063579 0.331436 0.442524
O O7 0.000000 0.000000 0.500000
O O8 0.471075 0.737199 0.580599
O O9 0.500000 0.670968 0.750000
O O10 0.671800 0.549725 0.723922
O O11 0.592290 0.360987 0.797051
O O12 0.629281 0.858570 0.794057
O O13 0.288869 0.151417 0.655300
O O14 0.091380 0.151561 0.652096
O O15 0.482616 0.971160 0.143599
#
# Coordination Sequence:
#
# PCOD9290777 Si02
#       7
#     8   8   8   8   8   8   8
#     4  11  24  42  69 102 144 192 242 306 377 446
#     4  10  22  41  70 100 142 188 242 302 373 452
#     4  10  22  44  67 103 143 185 246 303 373 451
#     4  12  26  47  76 104 150 197 252 314 378 444
#     4  12  26  44  71 104 144 192 248 306 380 446
#     4  12  27  48  74 107 149 199 251 317 373 451
#     4  11  25  45  69 103 145 191 245 311 372 448
#
# _framework density 24.917365
#
# number of rings (size 3 to 8) (size 9 to 14) (size 15 to 20)
#    0.000    0.857    2.857    3.429    4.000    1.714 
#    0.000    0.000    0.000    0.000    0.000    0.000 
#    0.000    0.000    0.000    0.000    0.000    0.000 
#
# Total GULP energy -156285.263055 kJ/mol
# GULP energy per Si atom -5581.616538 kJ/mol
# Density = 2.486065 g / cm^3
# Si number density = 24.917365 Si / 1000 Ang^3
#
#
#
# Elastic Constant Matrix: (Units=GPa)
#
#
# Indices 1 2 3 4 5 6 
#
# 1 140.1794 6.9641 18.0719 0.0000 4.6011 0.0000
# 2 6.9641 55.2869 25.7853 0.0000 9.1556 0.0000
# 3 18.0719 25.7853 114.7259 0.0000 5.6310 0.0000
# 4 0.0000 0.0000 0.0000 37.2607 0.0000 9.8750
# 5 4.6011 9.1556 5.6310 0.0000 43.7704 0.0000
# 6 0.0000 0.0000 0.0000 9.8750 0.0000 29.2831
#
#
#
# Elastic Compliance Matrix: (Units=1/GPa)
#
#
# Indices 1 2 3 4 5 6 
#
# 1 0.007304 -0.000339 -0.001047 0.000000 -0.000562 0.000000
# 2 -0.000339 0.020823 -0.004443 0.000000 -0.003748 0.000000
# 3 -0.001047 -0.004443 0.009891 0.000000 -0.000233 0.000000
# 4 0.000000 0.000000 0.000000 0.029472 0.000000 -0.009939
# 5 -0.000562 -0.003748 -0.000233 0.000000 0.023720 0.000000
# 6 0.000000 0.000000 0.000000 -0.009939 0.000000 0.037501
#
#
# Mechanical properties :
#
#
# Convention : Reuss Voigt Hill
#
# Bulk Modulus (GPa) = 37.93382 45.75942 41.84662
# Shear Modulus (GPa) = 33.52230 39.35424 36.43827
#
# Velocity S-wave (km/s) = 3.67187 3.97847 3.82824
# Velocity P-wave (km/s) = 5.76487 6.28559 6.03085
#
# Compressibility (1/GPa) = 0.02636170
#
# Stress axis : x y z
#
# Youngs Moduli (GPa) = 136.91220 48.02396 101.09895
#
# Poissons Ratio (x) = 0.01627 0.10583
# Poissons Ratio (y) = 0.04637 0.44916
# Poissons Ratio (z) = 0.14332 0.21336
#
# Static dielectric constant tensor:
#      x y z
#    x 1.976770 0.000000 -0.038480 
#    y 0.000000 2.254740 0.000000 
#    z -0.038480 0.000000 2.052890 
# 
# From -- ./inp_files/312339.got.cif
#   From: 2010.05.17/outbox.cif.g08.bks.cpg/sg15_157_cif.got.tgz:312339.got - 2010.06.03 18:47:42.
