data_PCOD9290531
_publ_section_title
;
Structure prediction by ZEFSAII (Michael W. Deem and Ramdas Pophale) SiO2 
 PCOD9290531
Probable space group: C 2/C
;
_chemical_formula_sum "Si O2"
_cell_formula_units_Z 40
_cell_length_a 19.204656
_cell_length_b 10.165198
_cell_length_c 8.646254
_cell_angle_alpha 90.000000
_cell_angle_beta 73.279949
_cell_angle_gamma 90.000000
_cell_volume 1616.552339
_symmetry_space_group_name_H-M "C 2/C"
_symmetry_group_IT_number 15
_symmetry_cell_setting 'monoclinic'
loop_
_space_group_symop_operation_xyz
x,y,z
-x,y,1/2-z
-x,-y,-z
x,-y,1/2+z
1/2+x,1/2+y,z
1/2-x,1/2+y,1/2-z
1/2-x,1/2-y,-z
1/2+x,1/2-y,1/2+z
loop_
_atom_site_type_symbol
_atom_site_label
_atom_site_fract_x
_atom_site_fract_y
_atom_site_fract_z
Si Si1 0.813226 0.355530 0.164816
Si Si2 0.845656 0.609444 0.985024
Si Si3 0.207117 0.917423 0.757437
Si Si4 0.013361 0.644136 0.423003
Si Si5 0.457374 0.389809 0.622613
O O1 0.847627 0.450673 0.013334
O O2 0.857903 0.354149 0.299159
O O3 0.794779 0.207736 0.125608
O O4 0.743705 0.442820 0.266010
O O5 0.763401 0.637194 0.093445
O O6 0.904847 0.672568 0.063071
O O7 0.122803 0.937478 0.779595
O O8 0.000000 0.638898 0.250000
O O9 0.000000 0.500000 0.500000
O O10 0.960940 0.757852 0.519711
O O11 0.500000 0.360599 0.750000
O O12 0.500000 0.500000 0.500000
#
# Coordination Sequence:
#
# PCOD9290531 Si02
#       5
#     8   8   8   8   8
#     4  10  22  41  67 100 127 178 222 286 327 402
#     4  10  23  40  71  92 136 171 231 271 342 397
#     4  10  25  42  71  94 138 174 237 269 346 400
#     4  12  25  46  72 104 141 183 231 290 357 413
#     4  12  28  46  70 104 146 186 230 288 353 417
#
# _framework density 24.744019999999999
#
# number of rings (size 3 to 8) (size 9 to 14) (size 15 to 20)
#    1.200    0.000    0.000    5.400    5.600    0.800 
#    3.600    0.000    0.000    0.000    0.000    0.000 
#    0.000    0.000    0.000    0.000    0.000    0.000 
#
# Total GULP energy -111666.444391 kJ/mol
# GULP energy per Si atom -5583.322220 kJ/mol
# Density = 2.468770 g / cm^3
# Si number density = 24.744020 Si / 1000 Ang^3
#
#
#
# Elastic Constant Matrix: (Units=GPa)
#
#
# Indices 1 2 3 4 5 6 
#
# 1 153.5091 13.5270 44.0341 0.0000 -10.1017 0.0000
# 2 13.5270 91.2247 0.1109 0.0000 -3.0607 0.0000
# 3 44.0341 0.1109 113.1118 0.0000 6.6179 0.0000
# 4 0.0000 0.0000 0.0000 37.2261 0.0000 -10.4616
# 5 -10.1017 -3.0607 6.6179 0.0000 36.2885 0.0000
# 6 0.0000 0.0000 0.0000 -10.4616 0.0000 30.5030
#
#
#
# Elastic Compliance Matrix: (Units=1/GPa)
#
#
# Indices 1 2 3 4 5 6 
#
# 1 0.007681 -0.001047 -0.003142 0.000000 0.002623 0.000000
# 2 -0.001047 0.011136 0.000363 0.000000 0.000582 0.000000
# 3 -0.003142 0.000363 0.010222 0.000000 -0.002708 0.000000
# 4 0.000000 0.000000 0.000000 0.029728 0.000000 0.010196
# 5 0.002623 0.000582 -0.002708 0.000000 0.028830 0.000000
# 6 0.000000 0.000000 0.000000 0.010196 0.000000 0.036280
#
#
# Mechanical properties :
#
#
# Convention : Reuss Voigt Hill
#
# Bulk Modulus (GPa) = 46.76086 52.57662 49.66874
# Shear Modulus (GPa) = 36.05944 40.81510 38.43727
#
# Velocity S-wave (km/s) = 3.82160 4.06580 3.94559
# Velocity P-wave (km/s) = 6.19772 6.58296 6.39324
#
# Compressibility (1/GPa) = 0.02138541
#
# Stress axis : x y z
#
# Youngs Moduli (GPa) = 130.19911 89.79656 97.82574
#
# Poissons Ratio (x) = 0.09402 0.30741
# Poissons Ratio (y) = 0.13633 -0.03548
# Poissons Ratio (z) = 0.40914 -0.03257
#
# Static dielectric constant tensor:
#      x y z
#    x 2.147680 0.000000 0.006730 
#    y 0.000000 1.980060 0.000000 
#    z 0.006730 0.000000 1.899380 
# 
# From -- ./inp_files/54166.got.cif
#   From: 2010.05.17/outbox.cif.g08.bks.cpg/sg15_28_cif.got.tgz:54166.got - 2010.06.03 18:47:42.
