data_PCOD9290935
_publ_section_title
;
Structure prediction by ZEFSAII (Michael W. Deem and Ramdas Pophale) SiO2 
 PCOD9290935
Probable space group: C 2/C
;
_chemical_formula_sum "Si O2"
_cell_formula_units_Z 56
_cell_length_a 32.476860
_cell_length_b 9.363564
_cell_length_c 11.251812
_cell_angle_alpha 90.000000
_cell_angle_beta 132.529861
_cell_angle_gamma 90.000000
_cell_volume 2521.512089
_symmetry_space_group_name_H-M "C 2/C"
_symmetry_group_IT_number 15
_symmetry_cell_setting 'monoclinic'
loop_
_space_group_symop_operation_xyz
x,y,z
-x,y,1/2-z
-x,-y,-z
x,-y,1/2+z
1/2+x,1/2+y,z
1/2-x,1/2+y,1/2-z
1/2-x,1/2-y,-z
1/2+x,1/2-y,1/2+z
loop_
_atom_site_type_symbol
_atom_site_label
_atom_site_fract_x
_atom_site_fract_y
_atom_site_fract_z
Si Si1 0.799518 0.580921 0.775011
Si Si2 0.623574 0.105489 0.782372
Si Si3 0.117652 0.926298 0.721328
Si Si4 0.391047 0.173965 0.147987
Si Si5 0.306547 0.332930 0.151749
Si Si6 0.935947 0.044219 0.638668
Si Si7 0.285844 0.201206 0.355694
O O1 0.835804 0.532918 0.734689
O O2 0.761673 0.714545 0.669000
O O3 0.765328 0.446058 0.756689
O O4 0.841851 0.633730 0.959429
O O5 0.606665 0.255797 0.692385
O O6 0.585410 0.976923 0.756921
O O7 0.662127 0.158705 0.964548
O O8 0.092892 0.981508 0.546337
O O9 0.179973 0.999295 0.846753
O O10 0.090351 0.969234 0.795333
O O11 0.358886 0.257751 0.189788
O O12 0.431000 0.287181 0.162927
O O13 0.305440 0.304124 0.288961
O O14 0.250000 0.250000 0.000000
O O15 0.000000 0.001199 0.750000
#
# Coordination Sequence:
#
# PCOD9290935 Si02
#       7
#     8   8   8   8   8   8   8
#     4  11  22  36  55  83 129 169 224 270 320 392
#     4  11  23  39  60  92 131 175 223 279 336 407
#     4  11  25  42  72 102 137 175 230 288 346 421
#     4  10  22  42  61  91 130 177 217 279 336 412
#     4  11  22  38  60  90 135 179 220 267 332 408
#     4  11  24  48  75 101 132 176 231 299 361 413
#     4  11  24  34  56  87 126 179 223 264 321 395
#
# _framework density 22.208894999999998
#
# number of rings (size 3 to 8) (size 9 to 14) (size 15 to 20)
#    0.000    1.143    4.286    1.714    4.000    0.000 
#    0.000    1.429    0.000    0.000    0.000    0.000 
#    0.000    0.000    0.000    0.000    0.000    0.000 
#
# Total GULP energy -156140.701806 kJ/mol
# GULP energy per Si atom -5576.453636 kJ/mol
# Density = 2.215835 g / cm^3
# Si number density = 22.208895 Si / 1000 Ang^3
#
#
#
# Elastic Constant Matrix: (Units=GPa)
#
#
# Indices 1 2 3 4 5 6 
#
# 1 62.2769 19.2918 24.8206 0.0000 -22.0859 0.0000
# 2 19.2918 106.3149 9.5305 0.0000 -3.7679 0.0000
# 3 24.8206 9.5305 66.2825 0.0000 -23.3712 0.0000
# 4 0.0000 0.0000 0.0000 30.1842 0.0000 -12.8398
# 5 -22.0859 -3.7679 -23.3712 0.0000 30.9864 0.0000
# 6 0.0000 0.0000 0.0000 -12.8398 0.0000 29.6141
#
#
#
# Elastic Compliance Matrix: (Units=1/GPa)
#
#
# Indices 1 2 3 4 5 6 
#
# 1 0.023321 -0.003441 -0.003439 0.000000 0.013610 0.000000
# 2 -0.003441 0.010037 -0.000803 0.000000 -0.001837 0.000000
# 3 -0.003439 -0.000803 0.021240 0.000000 0.013471 0.000000
# 4 0.000000 0.000000 0.000000 0.040622 0.000000 0.017612
# 5 0.013610 -0.001837 0.013471 0.000000 0.051910 0.000000
# 6 0.000000 0.000000 0.000000 0.017612 0.000000 0.041404
#
#
# Mechanical properties :
#
#
# Convention : Reuss Voigt Hill
#
# Bulk Modulus (GPa) = 25.48924 38.01776 31.75350
# Shear Modulus (GPa) = 23.04396 30.23903 26.64150
#
# Velocity S-wave (km/s) = 3.22468 3.69395 3.46726
# Velocity P-wave (km/s) = 5.03653 5.94551 5.50980
#
# Compressibility (1/GPa) = 0.03923224
#
# Stress axis : x y z
#
# Youngs Moduli (GPa) = 42.88073 99.62887 47.08061
#
# Poissons Ratio (x) = 0.34283 0.16192
# Poissons Ratio (y) = 0.14756 0.03778
# Poissons Ratio (z) = 0.14748 0.07995
#
# Static dielectric constant tensor:
#      x y z
#    x 1.803320 0.000000 -0.017530 
#    y 0.000000 1.954190 0.000000 
#    z -0.017530 0.000000 1.835620 
# 
# From -- ./inp_files/125981.got.cif
#   From: 2010.05.17/outbox.cif.g08.bks.cpg/sg15_63_cif.got.tgz:125981.got - 2010.06.03 18:47:42.
