data_PCOD9290022
_publ_section_title
;
Structure prediction by ZEFSAII (Michael W. Deem and Ramdas Pophale) SiO2 
 PCOD9290022
Probable space group: C 2/C
;
_chemical_formula_sum "Si O2"
_cell_formula_units_Z 36
_cell_length_a 11.912067
_cell_length_b 7.787916
_cell_length_c 15.875930
_cell_angle_alpha 90.000000
_cell_angle_beta 73.741441
_cell_angle_gamma 90.000000
_cell_volume 1413.912170
_symmetry_space_group_name_H-M "C 2/C"
_symmetry_group_IT_number 15
_symmetry_cell_setting 'monoclinic'
loop_
_space_group_symop_operation_xyz
x,y,z
-x,y,1/2-z
-x,-y,-z
x,-y,1/2+z
1/2+x,1/2+y,z
1/2-x,1/2+y,1/2-z
1/2-x,1/2-y,-z
1/2+x,1/2-y,1/2+z
loop_
_atom_site_type_symbol
_atom_site_label
_atom_site_fract_x
_atom_site_fract_y
_atom_site_fract_z
Si Si1 0.368591 0.947741 0.006311
Si Si2 0.999951 0.871270 0.425176
Si Si3 0.747000 0.108322 0.631035
Si Si4 0.760467 0.274620 0.190625
Si Si5 0.500000 0.602256 0.750000
O O1 0.303010 0.903407 0.107858
O O2 0.395210 0.763715 0.954790
O O3 0.500000 0.000000 0.000000
O O4 0.313664 0.071721 0.946032
O O5 0.130329 0.791245 0.404576
O O6 0.985744 0.981084 0.342958
O O7 0.000000 0.000000 0.500000
O O8 0.685924 0.188479 0.727298
O O9 0.781894 0.917974 0.656210
O O10 0.620006 0.291074 0.231968
#
# Coordination Sequence:
#
# PCOD9290022 Si02
#       5
#     8   8   8   8   4
#     4  12  27  46  71 103 153 190 241 308 367 435
#     4  11  22  44  72 101 135 190 234 296 363 429
#     4  11  25  46  72 106 144 188 247 296 367 441
#     4  11  24  45  73 105 140 191 242 301 368 437
#     4  10  22  40  74  96 138 186 230 296 366 414
#
# _framework density 25.461269999999999
#
# number of rings (size 3 to 8) (size 9 to 14) (size 15 to 20)
#    0.000    0.889    4.444    2.000    6.222    1.778 
#    8.000    0.000    0.000    0.000    0.000    0.000 
#    0.000    0.000    0.000    0.000    0.000    0.000 
#
# Total GULP energy -100479.179879 kJ/mol
# GULP energy per Si atom -5582.176660 kJ/mol
# Density = 2.540332 g / cm^3
# Si number density = 25.461270 Si / 1000 Ang^3
#
#
#
# Elastic Constant Matrix: (Units=GPa)
#
#
# Indices 1 2 3 4 5 6 
#
# 1 110.8702 11.6244 40.2699 0.0000 -7.9561 0.0000
# 2 11.6244 52.1091 31.4432 0.0000 1.2753 0.0000
# 3 40.2699 31.4432 212.7648 0.0000 13.6167 0.0000
# 4 0.0000 0.0000 0.0000 42.2677 0.0000 3.7573
# 5 -7.9561 1.2753 13.6167 0.0000 43.3925 0.0000
# 6 0.0000 0.0000 0.0000 3.7573 0.0000 42.4692
#
#
#
# Elastic Compliance Matrix: (Units=1/GPa)
#
#
# Indices 1 2 3 4 5 6 
#
# 1 0.010000 -0.001157 -0.001879 0.000000 0.002457 0.000000
# 2 -0.001157 0.021209 -0.002921 0.000000 0.000081 0.000000
# 3 -0.001879 -0.002921 0.005617 0.000000 -0.002021 0.000000
# 4 0.000000 0.000000 0.000000 0.023846 0.000000 -0.002110
# 5 0.002457 0.000081 -0.002021 0.000000 0.024128 0.000000
# 6 0.000000 0.000000 0.000000 -0.002110 0.000000 0.023733
#
#
# Mechanical properties :
#
#
# Convention : Reuss Voigt Hill
#
# Bulk Modulus (GPa) = 40.14103 60.26879 50.20491
# Shear Modulus (GPa) = 38.83512 45.11964 41.97738
#
# Velocity S-wave (km/s) = 3.90970 4.21419 4.06479
# Velocity P-wave (km/s) = 6.01504 6.88486 6.46460
#
# Compressibility (1/GPa) = 0.02491217
#
# Stress axis : x y z
#
# Youngs Moduli (GPa) = 100.00359 47.14998 178.04382
#
# Poissons Ratio (x) = 0.05456 0.33452
# Poissons Ratio (y) = 0.11572 0.51998
# Poissons Ratio (z) = 0.18789 0.13770
#
# Static dielectric constant tensor:
#      x y z
#    x 2.076200 0.000000 -0.051960 
#    y 0.000000 2.045400 0.000000 
#    z -0.051960 0.000000 2.137640 
# 
# From -- ./inp_files/141981.got.cif
#   From: 2010.05.17/outbox.cif.g08.bks.cpg/sg15_71_cif.got.tgz:141981.got - 2010.06.03 18:47:42.
