data_PCOD9290992
_publ_section_title
;
Structure prediction by ZEFSAII (Michael W. Deem and Ramdas Pophale) SiO2 
 PCOD9290992
Probable space group: C 2/C
;
_chemical_formula_sum "Si O2"
_cell_formula_units_Z 56
_cell_length_a 11.348984
_cell_length_b 18.118858
_cell_length_c 14.204359
_cell_angle_alpha 90.000000
_cell_angle_beta 119.911465
_cell_angle_gamma 90.000000
_cell_volume 2531.785081
_symmetry_space_group_name_H-M "C 2/C"
_symmetry_group_IT_number 15
_symmetry_cell_setting 'monoclinic'
loop_
_space_group_symop_operation_xyz
x,y,z
-x,y,1/2-z
-x,-y,-z
x,-y,1/2+z
1/2+x,1/2+y,z
1/2-x,1/2+y,1/2-z
1/2-x,1/2-y,-z
1/2+x,1/2-y,1/2+z
loop_
_atom_site_type_symbol
_atom_site_label
_atom_site_fract_x
_atom_site_fract_y
_atom_site_fract_z
Si Si1 0.634699 0.308133 0.934158
Si Si2 0.368970 0.956781 0.415981
Si Si3 0.754584 0.144291 0.487882
Si Si4 0.161177 0.754534 0.311292
Si Si5 0.987320 0.085538 0.476608
Si Si6 0.641369 0.427700 0.773058
Si Si7 0.091069 0.308392 0.190423
O O1 0.626130 0.373527 0.006843
O O2 0.652394 0.354577 0.843912
O O3 0.498570 0.258363 0.889722
O O4 0.750000 0.250000 0.000000
O O5 0.308069 0.927290 0.489944
O O6 0.403436 0.887180 0.361484
O O7 0.500000 0.000000 0.500000
O O8 0.262684 0.014920 0.330004
O O9 0.757346 0.200549 0.575845
O O10 0.677472 0.173423 0.364549
O O11 0.910133 0.127317 0.527153
O O12 0.252106 0.776276 0.255541
O O13 0.000000 0.771880 0.250000
O O14 0.892510 0.092996 0.346616
O O15 0.000000 0.000000 0.500000
O O16 0.500000 0.465514 0.750000
O O17 0.000000 0.318573 0.250000
#
# Coordination Sequence:
#
# PCOD9290992 Si02
#       7
#     8   8   8   8   8   8   8
#     4  11  23  42  70 103 143 187 238 309 376 430
#     4  11  25  44  67  99 144 187 242 303 369 434
#     4  10  22  42  62  94 136 172 240 279 344 440
#     4  10  23  43  69  96 134 185 223 290 358 422
#     4  11  23  41  68  99 140 189 245 296 360 451
#     4  10  23  44  67 100 142 194 245 297 362 446
#     4  11  24  44  68 104 142 173 243 305 355 438
#
# _framework density 22.118781999999999
#
# number of rings (size 3 to 8) (size 9 to 14) (size 15 to 20)
#    0.000    1.429    1.429    3.857    0.000    9.143 
#    0.000    0.000    0.000    0.000    0.000    0.000 
#    0.000    0.000    0.000    0.000    0.000    0.000 
#
# Total GULP energy -155980.414702 kJ/mol
# GULP energy per Si atom -5570.729097 kJ/mol
# Density = 2.206844 g / cm^3
# Si number density = 22.118782 Si / 1000 Ang^3
#
#
#
# Elastic Constant Matrix: (Units=GPa)
#
#
# Indices 1 2 3 4 5 6 
#
# 1 130.4794 45.9144 43.1737 0.0000 -0.7846 0.0000
# 2 45.9144 120.9056 34.5578 0.0000 3.5532 0.0000
# 3 43.1737 34.5578 44.1908 0.0000 2.9128 0.0000
# 4 0.0000 0.0000 0.0000 33.6173 0.0000 2.7185
# 5 -0.7846 3.5532 2.9128 0.0000 39.6404 0.0000
# 6 0.0000 0.0000 0.0000 2.7185 0.0000 57.8665
#
#
#
# Elastic Compliance Matrix: (Units=1/GPa)
#
#
# Indices 1 2 3 4 5 6 
#
# 1 0.011579 -0.001514 -0.010202 0.000000 0.001115 0.000000
# 2 -0.001514 0.010854 -0.006977 0.000000 -0.000490 0.000000
# 3 -0.010202 -0.006977 0.038210 0.000000 -0.002384 0.000000
# 4 0.000000 0.000000 0.000000 0.029860 0.000000 -0.001403
# 5 0.001115 -0.000490 -0.002384 0.000000 0.025468 0.000000
# 6 0.000000 0.000000 0.000000 -0.001403 0.000000 0.017347
#
#
# Mechanical properties :
#
#
# Convention : Reuss Voigt Hill
#
# Bulk Modulus (GPa) = 42.99736 60.31862 51.65799
# Shear Modulus (GPa) = 28.01790 37.68681 32.85236
#
# Velocity S-wave (km/s) = 3.56294 4.13223 3.85810
# Velocity P-wave (km/s) = 6.03386 7.07790 6.57663
#
# Compressibility (1/GPa) = 0.02325724
#
# Stress axis : x y z
#
# Youngs Moduli (GPa) = 86.36114 92.12836 26.17128
#
# Poissons Ratio (x) = 0.13948 0.26701
# Poissons Ratio (y) = 0.13075 0.18259
# Poissons Ratio (z) = 0.88108 0.64277
#
# Static dielectric constant tensor:
#      x y z
#    x 1.871200 0.000000 -0.060430 
#    y 0.000000 1.848220 0.000000 
#    z -0.060430 0.000000 1.794950 
# 
# From -- ./inp_files/146160.got.cif
#   From: 2010.05.17/outbox.cif.g08.bks.cpg/sg15_74_cif.got.tgz:146160.got - 2010.06.03 18:47:42.
