data_PCOD9290078
_publ_section_title
;
Structure prediction by ZEFSAII (Michael W. Deem and Ramdas Pophale) SiO2 
 PCOD9290078
Probable space group: C 2/C
;
_chemical_formula_sum "Si O2"
_cell_formula_units_Z 60
_cell_length_a 10.868053
_cell_length_b 20.771188
_cell_length_c 13.716512
_cell_angle_alpha 90.000000
_cell_angle_beta 74.066934
_cell_angle_gamma 90.000000
_cell_volume 2977.443773
_symmetry_space_group_name_H-M "C 2/C"
_symmetry_group_IT_number 15
_symmetry_cell_setting 'monoclinic'
loop_
_space_group_symop_operation_xyz
x,y,z
-x,y,1/2-z
-x,-y,-z
x,-y,1/2+z
1/2+x,1/2+y,z
1/2-x,1/2+y,1/2-z
1/2-x,1/2-y,-z
1/2+x,1/2-y,1/2+z
loop_
_atom_site_type_symbol
_atom_site_label
_atom_site_fract_x
_atom_site_fract_y
_atom_site_fract_z
Si Si1 0.341712 0.570588 0.490600
Si Si2 0.000000 0.391713 0.250000
Si Si3 0.891233 0.802219 0.356972
Si Si4 0.501398 0.199274 0.017650
Si Si5 0.530101 0.442822 0.128323
Si Si6 0.534506 0.065073 0.540368
Si Si7 0.865284 0.722974 0.704164
Si Si8 0.288932 0.700323 0.403859
O O1 0.397485 0.507360 0.423786
O O2 0.406558 0.567479 0.583929
O O3 0.187680 0.570672 0.518994
O O4 0.365025 0.639795 0.433177
O O5 0.987704 0.434505 0.160013
O O6 0.116842 0.341473 0.234466
O O7 0.924870 0.748955 0.430512
O O8 0.892409 0.875285 0.397623
O O9 0.759569 0.784356 0.333874
O O10 0.000000 0.800682 0.250000
O O11 0.359977 0.188459 0.092213
O O12 0.537714 0.124648 0.995538
O O13 0.520651 0.225228 0.901455
O O14 0.500000 0.450091 0.250000
O O15 0.500000 0.000000 0.500000
O O16 0.851873 0.776873 0.789058
O O17 0.250000 0.750000 0.500000
#
# Coordination Sequence:
#
# PCOD9290078 Si02
#       8
#     8   4   8   8   8   8   8   8
#     4  10  23  43  62  95 130 166 214 268 321 390
#     4  10  24  40  64  94 118 168 228 252 326 396
#     4  11  22  39  70  92 130 174 213 273 335 381
#     4  10  22  41  61 100 127 162 225 260 325 391
#     4  10  24  42  65  93 128 173 215 257 330 401
#     4  10  23  41  66  89 128 171 212 269 319 383
#     4  11  22  40  66  95 127 168 214 275 324 391
#     4  11  21  39  66  92 131 164 210 274 324 380
#
# _framework density 20.151513999999999
#
# number of rings (size 3 to 8) (size 9 to 14) (size 15 to 20)
#    0.000    1.600    1.333    3.600    9.333    0.000 
#    9.600    0.000    0.000    0.000    0.000    0.000 
#    0.000    0.000    0.000    0.000    0.000    0.000 
#
# Total GULP energy -167039.966322 kJ/mol
# GULP energy per Si atom -5567.998877 kJ/mol
# Density = 2.010565 g / cm^3
# Si number density = 20.151514 Si / 1000 Ang^3
#
#
#
# Elastic Constant Matrix: (Units=GPa)
#
#
# Indices 1 2 3 4 5 6 
#
# 1 78.8235 31.1756 32.1332 0.0000 20.3172 0.0000
# 2 31.1756 154.7245 73.4036 0.0000 30.3241 0.0000
# 3 32.1332 73.4036 111.0782 0.0000 17.1693 0.0000
# 4 0.0000 0.0000 0.0000 33.8499 0.0000 24.1242
# 5 20.3172 30.3241 17.1693 0.0000 39.0618 0.0000
# 6 0.0000 0.0000 0.0000 24.1242 0.0000 5.8172
#
#
#
# Elastic Compliance Matrix: (Units=1/GPa)
#
#
# Indices 1 2 3 4 5 6 
#
# 1 0.015869 -0.000320 -0.003371 0.000000 -0.006524 0.000000
# 2 -0.000320 0.010388 -0.005956 0.000000 -0.005280 0.000000
# 3 -0.003371 -0.005956 0.013870 0.000000 0.000281 0.000000
# 4 0.000000 0.000000 0.000000 -0.015107 0.000000 0.062650
# 5 -0.006524 -0.005280 0.000281 0.000000 0.032970 0.000000
# 6 0.000000 0.000000 0.000000 0.062650 0.000000 -0.087908
#
#
# Mechanical properties :
#
#
# Convention : Reuss Voigt Hill
#
# Bulk Modulus (GPa) = 47.99853 68.67233 58.33543
# Shear Modulus (GPa) = -1358.56721 29.60672 -664.48024
#
# Velocity S-wave (km/s) = -25.99307 3.83718 -18.17850
# Velocity P-wave (km/s) = 29.61389 7.33375 20.28791
#
# Compressibility (1/GPa) = 0.02083397
#
# Stress axis : x y z
#
# Youngs Moduli (GPa) = 63.01678 96.26504 72.09574
#
# Poissons Ratio (x) = 0.03076 0.24304
# Poissons Ratio (y) = 0.02013 0.42941
# Poissons Ratio (z) = 0.21243 0.57336
#
# Static dielectric constant tensor:
#      x y z
#    x 1.849670 0.000000 -0.058780 
#    y 0.000000 1.744120 0.000000 
#    z -0.058780 0.000000 1.714070 
# 
# From -- ./inp_files/146029.got.cif
#   From: 2010.05.17/outbox.cif.g08.bks.cpg/sg15_74_cif.got.tgz:146029.got - 2010.06.03 18:47:42.
