data_PCOD9290303
_publ_section_title
;
Structure prediction by ZEFSAII (Michael W. Deem and Ramdas Pophale) SiO2 
 PCOD9290303
Probable space group: C 2/C
;
_chemical_formula_sum "Si O2"
_cell_formula_units_Z 36
_cell_length_a 12.909205
_cell_length_b 5.617698
_cell_length_c 21.672744
_cell_angle_alpha 90.000000
_cell_angle_beta 91.824514
_cell_angle_gamma 90.000000
_cell_volume 1570.910913
_symmetry_space_group_name_H-M "C 2/C"
_symmetry_group_IT_number 15
_symmetry_cell_setting 'monoclinic'
loop_
_space_group_symop_operation_xyz
x,y,z
-x,y,1/2-z
-x,-y,-z
x,-y,1/2+z
1/2+x,1/2+y,z
1/2-x,1/2+y,1/2-z
1/2-x,1/2-y,-z
1/2+x,1/2-y,1/2+z
loop_
_atom_site_type_symbol
_atom_site_label
_atom_site_fract_x
_atom_site_fract_y
_atom_site_fract_z
Si Si1 0.531805 0.195558 0.950262
Si Si2 0.148640 0.908183 0.489662
Si Si3 0.106264 0.342817 0.862088
Si Si4 0.713881 0.352613 0.719117
Si Si5 0.500000 0.554454 0.750000
O O1 0.638345 0.311281 0.977316
O O2 0.553425 0.085289 0.884262
O O3 0.431926 0.363817 0.955915
O O4 0.500000 0.000000 0.000000
O O5 0.250000 0.750000 0.500000
O O6 0.104553 0.819849 0.422548
O O7 0.225639 0.374725 0.844274
O O8 0.047946 0.220445 0.804392
O O9 0.761762 0.583627 0.756787
O O10 0.592302 0.399325 0.722731
#
# Coordination Sequence:
#
# PCOD9290303 Si02
#       5
#     8   8   8   8   4
#     4   9  21  40  64  94 131 170 229 283 356 420
#     4  10  22  41  64  99 132 177 230 292 356 429
#     4  10  23  42  65  96 132 179 228 284 354 425
#     4  10  24  44  65 100 136 183 237 280 353 427
#     4  10  24  46  66  98 142 178 228 294 352 418
#
# _framework density 22.916639
#
# number of rings (size 3 to 8) (size 9 to 14) (size 15 to 20)
#    0.000    2.222    0.000    0.000    6.222   14.222 
#    8.000    0.000    0.000    0.000    0.000    0.000 
#    0.000    0.000    0.000    0.000    0.000    0.000 
#
# Total GULP energy -100306.933091 kJ/mol
# GULP energy per Si atom -5572.607394 kJ/mol
# Density = 2.286448 g / cm^3
# Si number density = 22.916639 Si / 1000 Ang^3
#
#
#
# Elastic Constant Matrix: (Units=GPa)
#
#
# Indices 1 2 3 4 5 6 
#
# 1 158.2070 25.3952 46.7130 0.0000 -19.9794 0.0000
# 2 25.3952 72.9580 12.2865 0.0000 4.8708 0.0000
# 3 46.7130 12.2865 85.3785 0.0000 -17.1880 0.0000
# 4 0.0000 0.0000 0.0000 28.4123 0.0000 -5.6007
# 5 -19.9794 4.8708 -17.1880 0.0000 52.6866 0.0000
# 6 0.0000 0.0000 0.0000 -5.6007 0.0000 39.6415
#
#
#
# Elastic Compliance Matrix: (Units=1/GPa)
#
#
# Indices 1 2 3 4 5 6 
#
# 1 0.008030 -0.002320 -0.003643 0.000000 0.002071 0.000000
# 2 -0.002320 0.014937 -0.001429 0.000000 -0.002727 0.000000
# 3 -0.003643 -0.001429 0.014620 0.000000 0.003520 0.000000
# 4 0.000000 0.000000 0.000000 0.036204 0.000000 0.005115
# 5 0.002071 -0.002727 0.003520 0.000000 0.021166 0.000000
# 6 0.000000 0.000000 0.000000 0.005115 0.000000 0.025949
#
#
# Mechanical properties :
#
#
# Convention : Reuss Voigt Hill
#
# Bulk Modulus (GPa) = 43.85338 53.92588 48.88963
# Shear Modulus (GPa) = 34.89394 39.62468 37.25931
#
# Velocity S-wave (km/s) = 3.90634 4.16273 4.03657
# Velocity P-wave (km/s) = 6.28678 6.83278 6.56546
#
# Compressibility (1/GPa) = 0.02280326
#
# Stress axis : x y z
#
# Youngs Moduli (GPa) = 124.52653 66.94875 68.39962
#
# Poissons Ratio (x) = 0.15532 0.24917
# Poissons Ratio (y) = 0.28891 0.09775
# Poissons Ratio (z) = 0.45363 0.09568
#
# Static dielectric constant tensor:
#      x y z
#    x 1.917170 0.000000 0.017890 
#    y 0.000000 2.208160 0.000000 
#    z 0.017890 0.000000 1.822920 
# 
# From -- ./inp_files/241459.got.cif
#   From: 2010.05.17/outbox.cif.g08.bks.cpg/sg15_121_cif.got.tgz:241459.got - 2010.06.03 18:47:42.
