data_PCOD9290171
_publ_section_title
;
Structure prediction by ZEFSAII (Michael W. Deem and Ramdas Pophale) SiO2 
 PCOD9290171
Probable space group: C 2/C
;
_chemical_formula_sum "Si O2"
_cell_formula_units_Z 48
_cell_length_a 17.402932
_cell_length_b 30.880140
_cell_length_c 8.874635
_cell_angle_alpha 90.000000
_cell_angle_beta 27.198317
_cell_angle_gamma 90.000000
_cell_volume 2179.900207
_symmetry_space_group_name_H-M "C 2/C"
_symmetry_group_IT_number 15
_symmetry_cell_setting 'monoclinic'
loop_
_space_group_symop_operation_xyz
x,y,z
-x,y,1/2-z
-x,-y,-z
x,-y,1/2+z
1/2+x,1/2+y,z
1/2-x,1/2+y,1/2-z
1/2-x,1/2-y,-z
1/2+x,1/2-y,1/2+z
loop_
_atom_site_type_symbol
_atom_site_label
_atom_site_fract_x
_atom_site_fract_y
_atom_site_fract_z
Si Si1 0.008122 0.320564 0.559873
Si Si2 0.735651 0.055741 0.481087
Si Si3 0.619335 0.644165 0.185666
Si Si4 0.421891 0.087688 0.218616
Si Si5 0.184788 0.027808 0.477723
Si Si6 0.943845 0.235265 0.175551
O O1 0.961374 0.276041 0.560794
O O2 0.000000 0.311589 0.750000
O O3 0.892581 0.362137 0.729327
O O4 0.196969 0.338025 0.190961
O O5 0.843426 0.100070 0.290913
O O6 0.714836 0.034592 0.353419
O O7 0.814186 0.020051 0.455321
O O8 0.560948 0.068811 0.863081
O O9 0.500000 0.634768 0.250000
O O10 0.542702 0.685906 0.406174
O O11 0.500000 0.086097 0.250000
O O12 0.259587 0.058821 0.475561
O O13 0.000000 0.039947 0.750000
O O14 0.750000 0.250000 0.500000
O O15 0.000000 0.232224 0.250000
#
# Coordination Sequence:
#
# PCOD9290171 Si02
#       6
#     8   8   8   8   8   8
#     4   9  19  35  60  89 120 157 197 244 300 359
#     4  11  23  40  62  86 121 166 207 253 308 367
#     4   9  19  37  59  84 118 160 201 244 302 362
#     4  10  22  41  63  89 124 167 208 247 301 372
#     4  12  25  40  61  91 122 159 209 262 307 356
#     4   9  18  35  58  83 113 151 194 238 291 356
#
# _framework density 22.019355999999998
#
# number of rings (size 3 to 8) (size 9 to 14) (size 15 to 20)
#    0.000    2.000    0.000    3.000    0.000    8.000 
#    0.000    8.333    0.000    0.000    0.000    0.000 
#    0.000    0.000    0.000    0.000    0.000    0.000 
#
# Total GULP energy -133976.569095 kJ/mol
# GULP energy per Si atom -5582.357046 kJ/mol
# Density = 2.196924 g / cm^3
# Si number density = 22.019356 Si / 1000 Ang^3
#
#
#
# Elastic Constant Matrix: (Units=GPa)
#
#
# Indices 1 2 3 4 5 6 
#
# 1 82.2656 65.6860 12.8924 0.0001 -4.9368 0.0001
# 2 65.6860 189.7219 28.5639 0.0000 -3.4861 0.0000
# 3 12.8924 28.5639 26.5860 0.0002 9.6106 0.0001
# 4 0.0001 0.0000 0.0002 -11.4480 -0.0001 -12.6711
# 5 -4.9368 -3.4861 9.6106 -0.0001 34.9618 -0.0001
# 6 0.0001 0.0000 0.0001 -12.6711 -0.0001 -30.4489
#
#
#
# Elastic Compliance Matrix: (Units=1/GPa)
#
#
# Indices 1 2 3 4 5 6 
#
# 1 0.017164 -0.005344 -0.003626 0.000000 0.002888 0.000000
# 2 -0.005344 0.008201 -0.006931 0.000000 0.001968 0.000000
# 3 -0.003626 -0.006931 0.052467 0.000001 -0.015626 0.000000
# 4 0.000000 0.000000 0.000001 -0.161943 -0.000001 0.067392
# 5 0.002888 0.001968 -0.015626 -0.000001 0.033502 0.000000
# 6 0.000000 0.000000 0.000000 0.067392 0.000000 -0.060886
#
#
# Mechanical properties :
#
#
# Convention : Reuss Voigt Hill
#
# Bulk Modulus (GPa) = 21.72468 56.98422 39.35445
# Shear Modulus (GPa) = -77.69837 11.37507 -33.16165
#
# Velocity S-wave (km/s) = -5.94668 2.27534 -3.88496
# Velocity P-wave (km/s) = 6.10435 5.73046 1.48742
#
# Compressibility (1/GPa) = 0.04603059
#
# Stress axis : x y z
#
# Youngs Moduli (GPa) = 58.26176 121.94224 19.05951
#
# Poissons Ratio (x) = 0.65160 0.06911
# Poissons Ratio (y) = 0.31132 0.13210
# Poissons Ratio (z) = 0.21126 0.84518
#
# Static dielectric constant tensor:
#      x y z
#    x 1.774380 0.000000 0.004920 
#    y 0.000000 1.856220 0.000000 
#    z 0.004920 0.000000 1.898660 
# 
# From -- ./inp_files/52734.got.cif
#   From: 2010.05.17/outbox.cif.g08.bks.cpg/sg15_27_cif.got.tgz:52734.got - 2010.06.03 18:47:42.
