data_PCOD9290374
_publ_section_title
;
Structure prediction by ZEFSAII (Michael W. Deem and Ramdas Pophale) SiO2 
 PCOD9290374
Probable space group: C 2/C
;
_chemical_formula_sum "Si O2"
_cell_formula_units_Z 44
_cell_length_a 6.405382
_cell_length_b 14.225011
_cell_length_c 20.425424
_cell_angle_alpha 90.000000
_cell_angle_beta 90.672768
_cell_angle_gamma 90.000000
_cell_volume 1860.967491
_symmetry_space_group_name_H-M "C 2/C"
_symmetry_group_IT_number 15
_symmetry_cell_setting 'monoclinic'
loop_
_space_group_symop_operation_xyz
x,y,z
-x,y,1/2-z
-x,-y,-z
x,-y,1/2+z
1/2+x,1/2+y,z
1/2-x,1/2+y,1/2-z
1/2-x,1/2-y,-z
1/2+x,1/2-y,1/2+z
loop_
_atom_site_type_symbol
_atom_site_label
_atom_site_fract_x
_atom_site_fract_y
_atom_site_fract_z
Si Si1 0.500000 0.342213 0.250000
Si Si2 0.143626 0.333191 0.700155
Si Si3 0.956768 0.880752 0.597701
Si Si4 0.150591 0.262401 0.921223
Si Si5 0.913018 0.086778 0.890385
Si Si6 0.909674 0.394845 0.009998
O O1 0.315513 0.263020 0.258396
O O2 0.534354 0.402717 0.185843
O O3 0.338752 0.379710 0.666971
O O4 0.000000 0.392041 0.750000
O O5 0.000500 0.300271 0.638337
O O6 0.786609 0.878768 0.539468
O O7 0.121200 0.797185 0.596244
O O8 0.073316 0.979089 0.589866
O O9 0.089333 0.153197 0.923338
O O10 0.074684 0.318654 0.984962
O O11 0.689195 0.119513 0.918246
O O12 0.000000 0.500000 0.000000
#
# Coordination Sequence:
#
# PCOD9290374 Si02
#       6
#     4   8   8   8   8   8
#     4   8  20  44  62  90 126 168 214 268 324 408
#     4   8  19  42  62  87 133 165 209 267 334 397
#     4  11  23  41  66  97 131 174 225 282 343 410
#     4  10  22  41  65  94 127 175 216 278 338 396
#     4  11  22  42  67  98 132 172 231 272 342 420
#     4  11  23  44  65  94 138 175 220 290 345 405
#
# _framework density 23.643615
#
# number of rings (size 3 to 8) (size 9 to 14) (size 15 to 20)
#    0.545    1.455    1.818    1.091    0.000    2.909 
#    9.818    0.000    0.000    0.000    0.000    0.000 
#    0.000    0.000    0.000    0.000    0.000    0.000 
#
# Total GULP energy -122770.493989 kJ/mol
# GULP energy per Si atom -5580.476999 kJ/mol
# Density = 2.358980 g / cm^3
# Si number density = 23.643615 Si / 1000 Ang^3
#
#
#
# Elastic Constant Matrix: (Units=GPa)
#
#
# Indices 1 2 3 4 5 6 
#
# 1 56.4076 20.6664 31.7482 0.0000 -25.6729 0.0000
# 2 20.6664 82.7011 23.1384 0.0000 -15.4573 0.0000
# 3 31.7482 23.1384 176.5102 0.0000 -33.9460 0.0000
# 4 0.0000 0.0000 0.0000 38.8250 0.0000 -9.9617
# 5 -25.6729 -15.4573 -33.9460 0.0000 35.4235 0.0000
# 6 0.0000 0.0000 0.0000 -9.9617 0.0000 37.5243
#
#
#
# Elastic Compliance Matrix: (Units=1/GPa)
#
#
# Indices 1 2 3 4 5 6 
#
# 1 0.027502 -0.003298 -0.001174 0.000000 0.017367 0.000000
# 2 -0.003298 0.013645 -0.000625 0.000000 0.002965 0.000000
# 3 -0.001174 -0.000625 0.007040 0.000000 0.005622 0.000000
# 4 0.000000 0.000000 0.000000 0.027639 0.000000 0.007337
# 5 0.017367 0.002965 0.005622 0.000000 0.047498 0.000000
# 6 0.000000 0.000000 0.000000 0.007337 0.000000 0.028597
#
#
# Mechanical properties :
#
#
# Convention : Reuss Voigt Hill
#
# Bulk Modulus (GPa) = 26.32168 51.85831 39.08999
# Shear Modulus (GPa) = 28.60739 38.35896 33.48318
#
# Velocity S-wave (km/s) = 3.48219 4.03225 3.76727
# Velocity P-wave (km/s) = 5.22728 6.60755 5.95752
#
# Compressibility (1/GPa) = 0.03799150
#
# Stress axis : x y z
#
# Youngs Moduli (GPa) = 36.36135 73.28723 142.04853
#
# Poissons Ratio (x) = 0.24169 0.16680
# Poissons Ratio (y) = 0.11992 0.08883
# Poissons Ratio (z) = 0.04270 0.04583
#
# Static dielectric constant tensor:
#      x y z
#    x 1.954130 0.000000 0.035400 
#    y 0.000000 1.911800 0.000000 
#    z 0.035400 0.000000 1.986150 
# 
# From -- ./inp_files/263854.got.cif
#   From: 2010.05.17/outbox.cif.g08.bks.cpg/sg15_132_cif.got.tgz:263854.got - 2010.06.03 18:47:42.
