data_PCOD9290369
_publ_section_title
;
Structure prediction by ZEFSAII (Michael W. Deem and Ramdas Pophale) SiO2 
 PCOD9290369
Probable space group: C 2/C
;
_chemical_formula_sum "Si O2"
_cell_formula_units_Z 32
_cell_length_a 21.289929
_cell_length_b 5.723533
_cell_length_c 9.751151
_cell_angle_alpha 90.000000
_cell_angle_beta 89.160790
_cell_angle_gamma 90.000000
_cell_volume 1188.085509
_symmetry_space_group_name_H-M "C 2/C"
_symmetry_group_IT_number 15
_symmetry_cell_setting 'monoclinic'
loop_
_space_group_symop_operation_xyz
x,y,z
-x,y,1/2-z
-x,-y,-z
x,-y,1/2+z
1/2+x,1/2+y,z
1/2-x,1/2+y,1/2-z
1/2-x,1/2-y,-z
1/2+x,1/2-y,1/2+z
loop_
_atom_site_type_symbol
_atom_site_label
_atom_site_fract_x
_atom_site_fract_y
_atom_site_fract_z
Si Si1 0.926919 0.516286 0.293504
Si Si2 0.750717 0.945095 0.115547
Si Si3 0.325308 0.166525 0.609310
Si Si4 0.952155 0.019764 0.377349
O O1 0.886016 0.467118 0.158831
O O2 0.916222 0.771660 0.361890
O O3 0.000000 0.523391 0.250000
O O4 0.916663 0.270877 0.377182
O O5 0.725265 0.893910 0.267216
O O6 0.820755 0.052962 0.120016
O O7 0.750000 0.750000 0.000000
O O8 0.700594 0.111066 0.039893
O O9 0.000000 0.034715 0.250000
O O10 0.000000 0.000000 0.500000
#
# Coordination Sequence:
#
# PCOD9290369 Si02
#       4
#     8   8   8   8
#     4  10  24  45  70 106 143 185 231 288 356 433
#     4  11  24  46  69 100 139 178 247 293 360 417
#     4  11  25  43  74 103 137 189 233 303 358 427
#     4  10  22  41  65  93 140 182 227 273 336 416
#
# _framework density 26.934087999999999
#
# number of rings (size 3 to 8) (size 9 to 14) (size 15 to 20)
#    0.000    1.500    2.500    0.750    3.500    8.000 
#    4.500    0.000    0.000    0.000    0.000    0.000 
#    0.000    0.000    0.000    0.000    0.000    0.000 
#
# Total GULP energy -89363.064958 kJ/mol
# GULP energy per Si atom -5585.191560 kJ/mol
# Density = 2.687278 g / cm^3
# Si number density = 26.934088 Si / 1000 Ang^3
#
#
#
# Elastic Constant Matrix: (Units=GPa)
#
#
# Indices 1 2 3 4 5 6 
#
# 1 79.7375 37.9707 13.0299 0.0000 10.1375 0.0000
# 2 37.9707 203.3593 44.0689 0.0000 15.6542 0.0000
# 3 13.0299 44.0689 193.2141 0.0000 16.7356 0.0000
# 4 0.0000 0.0000 0.0000 55.0933 0.0000 12.6520
# 5 10.1375 15.6542 16.7356 0.0000 40.9437 0.0000
# 6 0.0000 0.0000 0.0000 12.6520 0.0000 35.5921
#
#
#
# Elastic Compliance Matrix: (Units=1/GPa)
#
#
# Indices 1 2 3 4 5 6 
#
# 1 0.014024 -0.002387 -0.000186 0.000000 -0.002484 0.000000
# 2 -0.002387 0.005676 -0.001033 0.000000 -0.001157 0.000000
# 3 -0.000186 -0.001033 0.005583 0.000000 -0.001841 0.000000
# 4 0.000000 0.000000 0.000000 0.019764 0.000000 -0.007026
# 5 -0.002484 -0.001157 -0.001841 0.000000 0.026233 0.000000
# 6 0.000000 0.000000 0.000000 -0.007026 0.000000 0.030594
#
#
# Mechanical properties :
#
#
# Convention : Reuss Voigt Hill
#
# Bulk Modulus (GPa) = 55.33990 74.04998 64.69494
# Shear Modulus (GPa) = 43.43613 51.74191 47.58902
#
# Velocity S-wave (km/s) = 4.02018 4.38774 4.20797
# Velocity P-wave (km/s) = 6.49154 7.29537 6.90516
#
# Compressibility (1/GPa) = 0.01807014
#
# Stress axis : x y z
#
# Youngs Moduli (GPa) = 71.30629 176.17739 179.10456
#
# Poissons Ratio (x) = 0.42053 0.03335
# Poissons Ratio (y) = 0.17021 0.18510
# Poissons Ratio (z) = 0.01328 0.18207
#
# Static dielectric constant tensor:
#      x y z
#    x 2.199690 0.000000 -0.035300 
#    y 0.000000 2.644830 0.000000 
#    z -0.035300 0.000000 2.019230 
# 
# From -- ./inp_files/115447.got.cif
#   From: 2010.05.17/outbox.cif.g08.bks.cpg/sg15_58_cif.got.tgz:115447.got - 2010.06.03 18:47:42.
