data_PCOD9290650
_publ_section_title
;
Structure prediction by ZEFSAII (Michael W. Deem and Ramdas Pophale) SiO2 
 PCOD9290650
Probable space group: C 2/C
;
_chemical_formula_sum "Si O2"
_cell_formula_units_Z 40
_cell_length_a 12.697496
_cell_length_b 13.707756
_cell_length_c 15.193151
_cell_angle_alpha 90.000000
_cell_angle_beta 145.637905
_cell_angle_gamma 90.000000
_cell_volume 1492.572643
_symmetry_space_group_name_H-M "C 2/C"
_symmetry_group_IT_number 15
_symmetry_cell_setting 'monoclinic'
loop_
_space_group_symop_operation_xyz
x,y,z
-x,y,1/2-z
-x,-y,-z
x,-y,1/2+z
1/2+x,1/2+y,z
1/2-x,1/2+y,1/2-z
1/2-x,1/2-y,-z
1/2+x,1/2-y,1/2+z
loop_
_atom_site_type_symbol
_atom_site_label
_atom_site_fract_x
_atom_site_fract_y
_atom_site_fract_z
Si Si1 0.000000 0.235522 0.750000
Si Si2 0.000000 0.093639 0.250000
Si Si3 0.378844 0.922937 0.749622
Si Si4 0.295532 0.760851 0.927021
Si Si5 0.936235 0.923697 0.088219
Si Si6 0.157757 0.385628 0.189929
O O1 0.922248 0.307957 0.772772
O O2 0.135475 0.163731 0.898846
O O3 0.856825 0.158409 0.205876
O O4 0.103096 0.023313 0.388760
O O5 0.500000 0.959400 0.750000
O O6 0.418742 0.004525 0.848577
O O7 0.162327 0.926627 0.573079
O O8 0.240949 0.663929 0.836802
O O9 0.250000 0.750000 0.000000
O O10 0.496268 0.810689 0.048950
O O11 0.155694 0.902818 0.236778
#
# Coordination Sequence:
#
# PCOD9290650 Si02
#       6
#     4   4   8   8   8   8
#     4   9  24  41  66  88 134 177 218 267 332 402
#     4  11  24  43  70  90 144 169 226 269 348 402
#     4  10  22  41  68  91 131 176 219 265 335 398
#     4  12  24  45  69 101 132 184 219 276 338 406
#     4  11  24  43  64 102 130 178 219 283 330 391
#     4  12  26  41  72 100 136 168 234 276 329 393
#
# _framework density 26.799365999999999
#
# number of rings (size 3 to 8) (size 9 to 14) (size 15 to 20)
#    0.600    0.400    2.000    4.800    2.800    2.400 
#    0.000    0.000    0.000    0.000    0.000    0.000 
#    0.000    0.000    0.000    0.000    0.000    0.000 
#
# Total GULP energy -111776.619092 kJ/mol
# GULP energy per Si atom -5588.830955 kJ/mol
# Density = 2.673837 g / cm^3
# Si number density = 26.799366 Si / 1000 Ang^3
#
#
#
# Elastic Constant Matrix: (Units=GPa)
#
#
# Indices 1 2 3 4 5 6 
#
# 1 60.9505 14.2651 9.8544 0.0006 11.0148 0.0002
# 2 14.2651 156.5318 19.1590 0.0003 -10.9928 0.0001
# 3 9.8544 19.1590 79.6195 0.0005 15.0233 0.0002
# 4 0.0006 0.0003 0.0005 23.0100 0.0005 7.8523
# 5 11.0148 -10.9928 15.0233 0.0005 49.7386 0.0001
# 6 0.0002 0.0001 0.0002 7.8523 0.0001 26.3155
#
#
#
# Elastic Compliance Matrix: (Units=1/GPa)
#
#
# Indices 1 2 3 4 5 6 
#
# 1 0.017709 -0.001772 -0.001009 0.000000 -0.004009 0.000000
# 2 -0.001772 0.006963 -0.001931 0.000000 0.002514 0.000000
# 3 -0.001009 -0.001931 0.013985 0.000000 -0.004427 0.000000
# 4 0.000000 0.000000 0.000000 0.048387 0.000000 -0.014438
# 5 -0.004009 0.002514 -0.004427 0.000000 0.022886 0.000000
# 6 0.000000 0.000000 0.000000 -0.014438 0.000000 0.042309
#
#
# Mechanical properties :
#
#
# Convention : Reuss Voigt Hill
#
# Bulk Modulus (GPa) = 34.20758 42.62874 38.41816
# Shear Modulus (GPa) = 29.17070 36.73436 32.95253
#
# Velocity S-wave (km/s) = 3.30280 3.70634 3.51037
# Velocity P-wave (km/s) = 5.22845 5.85295 5.54949
#
# Compressibility (1/GPa) = 0.02923329
#
# Stress axis : x y z
#
# Youngs Moduli (GPa) = 56.46842 143.61967 71.50741
#
# Poissons Ratio (x) = 0.25447 0.07216
# Poissons Ratio (y) = 0.10005 0.13805
# Poissons Ratio (z) = 0.05698 0.27728
#
# Static dielectric constant tensor:
#      x y z
#    x 2.093870 0.000000 -0.000150 
#    y 0.000000 2.085040 0.000000 
#    z -0.000150 0.000000 2.170370 
# 
# From -- ./inp_files/38004.got.cif
#   From: 2010.05.17/outbox.cif.g08.bks.cpg/sg15_20_cif.got.tgz:38004.got - 2010.06.03 18:47:42.
