data_PCOD9290663
_publ_section_title
;
Structure prediction by ZEFSAII (Michael W. Deem and Ramdas Pophale) SiO2 
 PCOD9290663
Probable space group: C 2/C
;
_chemical_formula_sum "Si O2"
_cell_formula_units_Z 60
_cell_length_a 10.880914
_cell_length_b 29.077595
_cell_length_c 9.172034
_cell_angle_alpha 90.000000
_cell_angle_beta 92.247596
_cell_angle_gamma 90.000000
_cell_volume 2899.714753
_symmetry_space_group_name_H-M "C 2/C"
_symmetry_group_IT_number 15
_symmetry_cell_setting 'monoclinic'
loop_
_space_group_symop_operation_xyz
x,y,z
-x,y,1/2-z
-x,-y,-z
x,-y,1/2+z
1/2+x,1/2+y,z
1/2-x,1/2+y,1/2-z
1/2-x,1/2-y,-z
1/2+x,1/2-y,1/2+z
loop_
_atom_site_type_symbol
_atom_site_label
_atom_site_fract_x
_atom_site_fract_y
_atom_site_fract_z
Si Si1 0.758887 0.302648 0.045147
Si Si2 0.017343 0.644036 0.079675
Si Si3 0.133997 0.648862 0.683288
Si Si4 0.187906 0.053980 0.254674
Si Si5 0.500000 0.477087 0.250000
Si Si6 0.044324 0.860040 0.901373
Si Si7 0.438494 0.039700 0.404357
Si Si8 0.668595 0.589455 0.948706
O O1 0.801338 0.313389 0.212239
O O2 0.750000 0.250000 0.000000
O O3 0.863655 0.327002 0.954193
O O4 0.635344 0.329662 0.999797
O O5 0.038935 0.590917 0.034506
O O6 0.000000 0.644499 0.250000
O O7 0.903695 0.663347 0.981600
O O8 0.231560 0.607783 0.662229
O O9 0.000000 0.638203 0.750000
O O10 0.114130 0.093669 0.341486
O O11 0.293493 0.035414 0.365312
O O12 0.101151 0.012800 0.196585
O O13 0.236051 0.073729 0.102118
O O14 0.423761 0.446590 0.132340
O O15 0.000000 0.836075 0.750000
O O16 0.926854 0.873057 0.992613
O O17 0.500000 0.037552 0.250000
O O18 0.500000 0.000000 0.500000
#
# Coordination Sequence:
#
# PCOD9290663 Si02
#       8
#     8   8   8   8   4   8   8   8
#     4  11  24  46  70 101 136 170 218 289 347 410
#     4  10  22  45  71  95 137 183 225 280 346 404
#     4  10  24  44  72  99 131 174 223 281 349 401
#     4  11  23  41  62  95 138 180 234 277 346 395
#     4  12  24  36  64  96 138 184 230 286 334 394
#     4  10  22  41  68  94 131 180 219 277 343 405
#     4  11  25  40  63  97 134 185 233 277 331 405
#     4  11  22  42  66  98 136 180 232 279 336 410
#
# _framework density 20.691690999999999
#
# number of rings (size 3 to 8) (size 9 to 14) (size 15 to 20)
#    0.000    1.333    3.333    2.800    5.600    3.200 
#    2.400    0.667    0.000    0.000    0.000    0.000 
#    0.000    0.000    0.000    0.000    0.000    0.000 
#
# Total GULP energy -167440.996851 kJ/mol
# GULP energy per Si atom -5581.366562 kJ/mol
# Density = 2.064460 g / cm^3
# Si number density = 20.691691 Si / 1000 Ang^3
#
#
#
# Elastic Constant Matrix: (Units=GPa)
#
#
# Indices 1 2 3 4 5 6 
#
# 1 100.5409 49.3704 39.3125 0.0000 27.8194 0.0000
# 2 49.3704 109.7986 57.9451 0.0000 9.8426 0.0000
# 3 39.3125 57.9451 119.9644 0.0000 30.2579 0.0000
# 4 0.0000 0.0000 0.0000 13.6409 0.0000 -7.9521
# 5 27.8194 9.8426 30.2579 0.0000 35.7981 0.0000
# 6 0.0000 0.0000 0.0000 -7.9521 0.0000 4.8525
#
#
#
# Elastic Compliance Matrix: (Units=1/GPa)
#
#
# Indices 1 2 3 4 5 6 
#
# 1 0.016002 -0.006601 0.000792 0.000000 -0.011290 0.000000
# 2 -0.006601 0.015069 -0.006818 0.000000 0.006749 0.000000
# 3 0.000792 -0.006818 0.014046 0.000000 -0.010614 0.000000
# 4 0.000000 0.000000 0.000000 1.641945 0.000000 2.690791
# 5 -0.011290 0.006749 -0.010614 0.000000 0.043823 0.000000
# 6 0.000000 0.000000 0.000000 2.690791 0.000000 4.615701
#
#
# Mechanical properties :
#
#
# Convention : Reuss Voigt Hill
#
# Bulk Modulus (GPa) = 50.34296 69.28444 59.81370
# Shear Modulus (GPa) = 0.78389 23.10335 11.94362
#
# Velocity S-wave (km/s) = 0.61617 3.34511 2.40514
# Velocity P-wave (km/s) = 4.98890 6.96251 6.05663
#
# Compressibility (1/GPa) = 0.01986375
#
# Stress axis : x y z
#
# Youngs Moduli (GPa) = 62.49280 66.36279 71.19369
#
# Poissons Ratio (x) = 0.43808 -0.05641
# Poissons Ratio (y) = 0.41253 0.48537
# Poissons Ratio (z) = -0.04951 0.45243
#
# Static dielectric constant tensor:
#      x y z
#    x 1.753230 0.000000 -0.009200 
#    y 0.000000 1.724570 0.000000 
#    z -0.009200 0.000000 1.768760 
# 
# From -- ./inp_files/35266.got.cif
#   From: 2010.05.17/outbox.cif.g08.bks.cpg/sg15_18_cif.got.tgz:35266.got - 2010.06.03 18:47:42.
