data_PCOD9290813
_publ_section_title
;
Structure prediction by ZEFSAII (Michael W. Deem and Ramdas Pophale) SiO2 
 PCOD9290813
Probable space group: C 2/C
;
_chemical_formula_sum "Si O2"
_cell_formula_units_Z 36
_cell_length_a 9.053688
_cell_length_b 18.885795
_cell_length_c 9.407279
_cell_angle_alpha 90.000000
_cell_angle_beta 78.152174
_cell_angle_gamma 90.000000
_cell_volume 1574.246690
_symmetry_space_group_name_H-M "C 2/C"
_symmetry_group_IT_number 15
_symmetry_cell_setting 'monoclinic'
loop_
_space_group_symop_operation_xyz
x,y,z
-x,y,1/2-z
-x,-y,-z
x,-y,1/2+z
1/2+x,1/2+y,z
1/2-x,1/2+y,1/2-z
1/2-x,1/2-y,-z
1/2+x,1/2-y,1/2+z
loop_
_atom_site_type_symbol
_atom_site_label
_atom_site_fract_x
_atom_site_fract_y
_atom_site_fract_z
Si Si1 0.635508 0.631666 0.608241
Si Si2 0.214501 0.521414 0.456887
Si Si3 0.500000 0.996533 0.750000
Si Si4 0.610153 0.653940 0.061179
Si Si5 0.669272 0.213108 0.723306
O O1 0.500000 0.618045 0.750000
O O2 0.730378 0.559719 0.565910
O O3 0.550639 0.658368 0.484362
O O4 0.746280 0.690784 0.650763
O O5 0.101227 0.540935 0.350531
O O6 0.356800 0.572382 0.415974
O O7 0.124930 0.532701 0.622805
O O8 0.649984 0.704891 0.183803
O O9 0.729850 0.679035 0.919468
O O10 0.500000 0.183674 0.750000
#
# Coordination Sequence:
#
# PCOD9290813 Si02
#       5
#     8   8   4   8   8
#     4  10  22  41  70  96 135 178 221 285 345 388
#     4  11  23  42  69 102 138 173 229 283 335 411
#     4  10  24  38  64 110 132 178 216 280 360 378
#     4  10  23  42  63  98 129 177 227 268 336 405
#     4  10  23  41  64  90 136 179 218 271 339 399
#
# _framework density 22.868079999999999
#
# number of rings (size 3 to 8) (size 9 to 14) (size 15 to 20)
#    0.000    1.778    0.000    3.333    9.333    3.556 
#   10.000    0.000    0.000    0.000    0.000    0.000 
#    0.000    0.000    0.000    0.000    0.000    0.000 
#
# Total GULP energy -100490.241136 kJ/mol
# GULP energy per Si atom -5582.791174 kJ/mol
# Density = 2.281603 g / cm^3
# Si number density = 22.868080 Si / 1000 Ang^3
#
#
#
# Elastic Constant Matrix: (Units=GPa)
#
#
# Indices 1 2 3 4 5 6 
#
# 1 148.3467 49.7057 62.2762 0.0000 28.1618 0.0000
# 2 49.7057 114.8329 63.9547 0.0000 26.0212 0.0000
# 3 62.2762 63.9547 136.0334 0.0000 12.2939 0.0000
# 4 0.0000 0.0000 0.0000 4.3937 0.0000 -0.8221
# 5 28.1618 26.0212 12.2939 0.0000 34.1417 0.0000
# 6 0.0000 0.0000 0.0000 -0.8221 0.0000 16.6230
#
#
#
# Elastic Compliance Matrix: (Units=1/GPa)
#
#
# Indices 1 2 3 4 5 6 
#
# 1 0.009628 -0.000881 -0.003449 0.000000 -0.006029 0.000000
# 2 -0.000881 0.013900 -0.005416 0.000000 -0.007917 0.000000
# 3 -0.003449 -0.005416 0.011211 0.000000 0.002936 0.000000
# 4 0.000000 0.000000 0.000000 0.229722 0.000000 0.011360
# 5 -0.006029 -0.007917 0.002936 0.000000 0.039240 0.000000
# 6 0.000000 0.000000 0.000000 0.011360 0.000000 0.060719
#
#
# Mechanical properties :
#
#
# Convention : Reuss Voigt Hill
#
# Bulk Modulus (GPa) = 65.58343 83.45403 74.51873
# Shear Modulus (GPa) = 12.85362 25.91678 19.38520
#
# Velocity S-wave (km/s) = 2.37339 3.37013 2.91468
# Velocity P-wave (km/s) = 6.02096 7.19143 6.63206
#
# Compressibility (1/GPa) = 0.01524775
#
# Stress axis : x y z
#
# Youngs Moduli (GPa) = 103.85880 71.94198 89.19665
#
# Poissons Ratio (x) = 0.06336 0.30764
# Poissons Ratio (y) = 0.09146 0.48312
# Poissons Ratio (z) = 0.35821 0.38966
#
# Static dielectric constant tensor:
#      x y z
#    x 1.826860 0.000000 -0.029460 
#    y 0.000000 1.837800 0.000000 
#    z -0.029460 0.000000 1.876790 
# 
# From -- ./inp_files/22544.got.cif
#   From: 2010.05.17/outbox.cif.g08.bks.cpg/sg15_12_cif.got.tgz:22544.got - 2010.06.03 18:47:42.
