data_PCOD9290072
_publ_section_title
;
Structure prediction by ZEFSAII (Michael W. Deem and Ramdas Pophale) SiO2 
 PCOD9290072
Probable space group: C 2/C
;
_chemical_formula_sum "Si O2"
_cell_formula_units_Z 48
_cell_length_a 26.601569
_cell_length_b 5.097903
_cell_length_c 18.123187
_cell_angle_alpha 90.000000
_cell_angle_beta 109.313335
_cell_angle_gamma 90.000000
_cell_volume 2319.414634
_symmetry_space_group_name_H-M "C 2/C"
_symmetry_group_IT_number 15
_symmetry_cell_setting 'monoclinic'
loop_
_space_group_symop_operation_xyz
x,y,z
-x,y,1/2-z
-x,-y,-z
x,-y,1/2+z
1/2+x,1/2+y,z
1/2-x,1/2+y,1/2-z
1/2-x,1/2-y,-z
1/2+x,1/2-y,1/2+z
loop_
_atom_site_type_symbol
_atom_site_label
_atom_site_fract_x
_atom_site_fract_y
_atom_site_fract_z
Si Si1 0.919250 0.684550 0.579555
Si Si2 0.907855 0.202584 0.478921
Si Si3 0.373775 0.644910 0.842101
Si Si4 0.038235 0.467626 0.126215
Si Si5 0.626040 0.743723 0.281880
Si Si6 0.214652 0.495803 0.740936
O O1 0.890865 0.454455 0.518514
O O2 0.890816 0.750598 0.642274
O O3 0.977778 0.559414 0.620879
O O4 0.923876 0.957581 0.537624
O O5 0.953632 0.310846 0.446285
O O6 0.867012 0.076622 0.400256
O O7 0.365065 0.531699 0.755868
O O8 0.434215 0.751935 0.875613
O O9 0.331466 0.874637 0.833636
O O10 0.077070 0.358005 0.209112
O O11 0.679917 0.905478 0.293466
O O12 0.254093 0.251258 0.772217
#
# Coordination Sequence:
#
# PCOD9290072 Si02
#       6
#     8   8   8   8   8   8
#     4  12  25  38  62  93 137 171 208 255 307 366
#     4  11  24  39  61  90 133 177 214 245 300 376
#     4  10  22  43  66  95 125 164 218 256 312 376
#     4  10  22  41  60  93 129 178 216 248 295 374
#     4  10  24  41  63  98 126 161 211 271 319 361
#     4  11  22  41  71  95 115 155 212 272 319 384
#
# _framework density 20.694879
#
# number of rings (size 3 to 8) (size 9 to 14) (size 15 to 20)
#    0.000    1.333    3.333    1.500    9.333    0.000 
#    0.000    0.000    0.000    6.000    0.000    0.000 
#    0.000    0.000    0.000    0.000    0.000    0.000 
#
# Total GULP energy -133870.817454 kJ/mol
# GULP energy per Si atom -5577.950727 kJ/mol
# Density = 2.064778 g / cm^3
# Si number density = 20.694879 Si / 1000 Ang^3
#
#
#
# Elastic Constant Matrix: (Units=GPa)
#
#
# Indices 1 2 3 4 5 6 
#
# 1 113.0027 52.9237 56.6997 0.0000 -14.2985 0.0000
# 2 52.9237 156.3615 51.5464 0.0000 -10.0951 0.0000
# 3 56.6997 51.5464 93.8315 0.0000 -30.3553 0.0000
# 4 0.0000 0.0000 0.0000 31.4837 0.0000 13.2327
# 5 -14.2985 -10.0951 -30.3553 0.0000 23.0977 0.0000
# 6 0.0000 0.0000 0.0000 13.2327 0.0000 27.9815
#
#
#
# Elastic Compliance Matrix: (Units=1/GPa)
#
#
# Indices 1 2 3 4 5 6 
#
# 1 0.013445 -0.002130 -0.007938 0.000000 -0.003040 0.000000
# 2 -0.002130 0.008351 -0.004430 0.000000 -0.003490 0.000000
# 3 -0.007938 -0.004430 0.027262 0.000000 0.028978 0.000000
# 4 0.000000 0.000000 0.000000 0.039642 0.000000 -0.018747
# 5 -0.003040 -0.003490 0.028978 0.000000 0.077971 0.000000
# 6 0.000000 0.000000 0.000000 -0.018747 0.000000 0.044603
#
#
# Mechanical properties :
#
#
# Convention : Reuss Voigt Hill
#
# Bulk Modulus (GPa) = 49.84179 76.17058 63.00619
# Shear Modulus (GPa) = 20.24638 29.98099 25.11369
#
# Velocity S-wave (km/s) = 3.13122 3.81033 3.48734
# Velocity P-wave (km/s) = 6.09993 7.49964 6.83570
#
# Compressibility (1/GPa) = 0.02006349
#
# Stress axis : x y z
#
# Youngs Moduli (GPa) = 74.37621 119.73972 36.68110
#
# Poissons Ratio (x) = 0.25508 0.29116
# Poissons Ratio (y) = 0.15845 0.16249
# Poissons Ratio (z) = 0.59036 0.53041
#
# Static dielectric constant tensor:
#      x y z
#    x 1.742780 0.000000 0.050330 
#    y 0.000000 1.840450 0.000000 
#    z 0.050330 0.000000 1.757260 
# 
# From -- ./inp_files/217583.got.cif
#   From: 2010.05.17/outbox.cif.g08.bks.cpg/sg15_109_cif.got.tgz:217583.got - 2010.06.03 18:47:42.
