data_PCOD9290364
_publ_section_title
;
Structure prediction by ZEFSAII (Michael W. Deem and Ramdas Pophale) SiO2 
 PCOD9290364
Probable space group: C 2/C
;
_chemical_formula_sum "Si O2"
_cell_formula_units_Z 48
_cell_length_a 26.424545
_cell_length_b 12.796380
_cell_length_c 13.896194
_cell_angle_alpha 90.000000
_cell_angle_beta 30.704346
_cell_angle_gamma 90.000000
_cell_volume 2399.265157
_symmetry_space_group_name_H-M "C 2/C"
_symmetry_group_IT_number 15
_symmetry_cell_setting 'monoclinic'
loop_
_space_group_symop_operation_xyz
x,y,z
-x,y,1/2-z
-x,-y,-z
x,-y,1/2+z
1/2+x,1/2+y,z
1/2-x,1/2+y,1/2-z
1/2-x,1/2-y,-z
1/2+x,1/2-y,1/2+z
loop_
_atom_site_type_symbol
_atom_site_label
_atom_site_fract_x
_atom_site_fract_y
_atom_site_fract_z
Si Si1 0.336918 0.358407 0.752045
Si Si2 0.595830 0.122937 0.155036
Si Si3 0.305058 0.588821 0.724988
Si Si4 0.064929 0.427628 0.324599
Si Si5 0.774398 0.850777 0.064155
Si Si6 0.540782 0.741301 0.926866
O O1 0.313415 0.469082 0.744343
O O2 0.251371 0.271458 0.876271
O O3 0.442298 0.313725 0.545695
O O4 0.341769 0.366945 0.860438
O O5 0.500000 0.152167 0.250000
O O6 0.593134 0.191322 0.257078
O O7 0.585568 0.000197 0.199935
O O8 0.697225 0.133237 0.931140
O O9 0.314817 0.599564 0.594720
O O10 0.386639 0.657284 0.646319
O O11 0.168487 0.400400 0.206764
O O12 0.000000 0.500000 0.500000
O O13 0.001954 0.321516 0.422574
#
# Coordination Sequence:
#
# PCOD9290364 Si02
#       6
#     8   8   8   8   8   8
#     4  10  22  44  63  90 136 168 209 270 319 386
#     4  11  22  40  63  96 125 165 213 272 329 375
#     4  12  23  40  69  95 122 173 219 259 327 390
#     4   9  18  38  60  86 126 159 206 266 311 373
#     4  10  22  41  65  93 129 171 212 267 323 377
#     4  10  23  41  60  92 134 163 213 271 314 386
#
# _framework density 20.006125000000001
#
# number of rings (size 3 to 8) (size 9 to 14) (size 15 to 20)
#    0.000    1.667    1.667    4.000    0.000    4.667 
#    6.000    0.000    0.000    0.000    0.000    0.000 
#    0.000    0.000    0.000    0.000    0.000    0.000 
#
# Total GULP energy -134020.589718 kJ/mol
# GULP energy per Si atom -5584.191238 kJ/mol
# Density = 1.996059 g / cm^3
# Si number density = 20.006125 Si / 1000 Ang^3
#
#
#
# Elastic Constant Matrix: (Units=GPa)
#
#
# Indices 1 2 3 4 5 6 
#
# 1 67.1067 44.5703 -3.3981 0.0000 15.2514 0.0000
# 2 44.5703 106.9390 13.6150 0.0000 8.0155 0.0000
# 3 -3.3981 13.6150 30.5367 0.0000 2.5177 0.0000
# 4 0.0000 0.0000 0.0000 17.0891 0.0000 2.0319
# 5 15.2514 8.0155 2.5177 0.0000 27.5951 0.0000
# 6 0.0000 0.0000 0.0000 2.0319 0.0000 14.6225
#
#
#
# Elastic Compliance Matrix: (Units=1/GPa)
#
#
# Indices 1 2 3 4 5 6 
#
# 1 0.025015 -0.010642 0.008477 0.000000 -0.011507 0.000000
# 2 -0.010642 0.014615 -0.007895 0.000000 0.002357 0.000000
# 3 0.008477 -0.007895 0.037692 0.000000 -0.005831 0.000000
# 4 0.000000 0.000000 0.000000 0.059500 0.000000 -0.008268
# 5 -0.011507 0.002357 -0.005831 0.000000 0.042446 0.000000
# 6 0.000000 0.000000 0.000000 -0.008268 0.000000 0.069536
#
#
# Mechanical properties :
#
#
# Convention : Reuss Voigt Hill
#
# Bulk Modulus (GPa) = 17.48209 34.90631 26.19420
# Shear Modulus (GPa) = 17.36170 21.84769 19.60470
#
# Velocity S-wave (km/s) = 2.94907 3.30820 3.13379
# Velocity P-wave (km/s) = 4.51147 5.66374 5.12012
#
# Compressibility (1/GPa) = 0.05720141
#
# Stress axis : x y z
#
# Youngs Moduli (GPa) = 39.97671 68.42201 26.53113
#
# Poissons Ratio (x) = 0.72817 -0.22491
# Poissons Ratio (y) = 0.42545 0.20946
# Poissons Ratio (z) = -0.33890 0.54018
#
# Static dielectric constant tensor:
#      x y z
#    x 1.673500 0.000000 0.012630 
#    y 0.000000 1.727440 0.000000 
#    z 0.012630 0.000000 1.721280 
# 
# From -- ./inp_files/151800.got.cif
#   From: 2010.05.17/outbox.cif.g08.bks.cpg/sg15_76_cif.got.tgz:151800.got - 2010.06.03 18:47:42.
