data_PCOD9290188
_publ_section_title
;
Structure prediction by ZEFSAII (Michael W. Deem and Ramdas Pophale) SiO2 
 PCOD9290188
Probable space group: C 2/C
;
_chemical_formula_sum "Si O2"
_cell_formula_units_Z 56
_cell_length_a 23.713040
_cell_length_b 12.252443
_cell_length_c 22.827470
_cell_angle_alpha 90.000000
_cell_angle_beta 19.738314
_cell_angle_gamma 90.000000
_cell_volume 2239.910129
_symmetry_space_group_name_H-M "C 2/C"
_symmetry_group_IT_number 15
_symmetry_cell_setting 'monoclinic'
loop_
_space_group_symop_operation_xyz
x,y,z
-x,y,1/2-z
-x,-y,-z
x,-y,1/2+z
1/2+x,1/2+y,z
1/2-x,1/2+y,1/2-z
1/2-x,1/2-y,-z
1/2+x,1/2-y,1/2+z
loop_
_atom_site_type_symbol
_atom_site_label
_atom_site_fract_x
_atom_site_fract_y
_atom_site_fract_z
Si Si1 0.395566 0.038800 0.485602
Si Si2 0.797390 0.875642 0.440645
Si Si3 0.424346 0.552437 0.633018
Si Si4 0.589854 0.375966 0.532150
Si Si5 0.875802 0.576061 0.824120
Si Si6 0.100332 0.308394 0.863972
Si Si7 0.852401 0.736270 0.698524
O O1 0.279877 0.092903 0.547711
O O2 0.262923 0.014411 0.666357
O O3 0.504116 0.943967 0.349206
O O4 0.536075 0.118017 0.374806
O O5 0.750000 0.750000 0.500000
O O6 0.693784 0.959689 0.583565
O O7 0.000000 0.889731 0.250000
O O8 0.500000 0.500000 0.500000
O O9 0.539931 0.500816 0.570998
O O10 0.414172 0.682591 0.642169
O O11 0.707105 0.360862 0.472913
O O12 0.704898 0.338068 0.365587
O O13 0.427528 0.303285 0.679258
O O14 0.000000 0.625992 0.750000
O O15 0.281651 0.313076 0.715662
O O16 0.986135 0.332228 0.032262
#
# Coordination Sequence:
#
# PCOD9290188 Si02
#       7
#     8   8   8   8   8   8   8
#     4  11  25  39  66 101 139 194 217 281 355 414
#     4  11  24  42  66 100 142 185 232 284 348 423
#     4  12  23  40  66 101 140 186 233 278 342 427
#     4  11  24  43  69  94 133 183 228 294 353 402
#     4  10  25  47  68 102 137 176 242 293 344 427
#     4  11  22  40  60  97 144 178 232 267 339 430
#     4  10  22  41  63  91 134 176 228 286 341 404
#
# _framework density 25.001003000000001
#
# number of rings (size 3 to 8) (size 9 to 14) (size 15 to 20)
#    0.000    1.143    4.286    2.143    8.000    2.286 
#    0.000    2.857    0.000    0.000    0.000    0.000 
#    0.000    0.000    0.000    0.000    0.000    0.000 
#
# Total GULP energy -156460.241592 kJ/mol
# GULP energy per Si atom -5587.865771 kJ/mol
# Density = 2.494410 g / cm^3
# Si number density = 25.001003 Si / 1000 Ang^3
#
#
#
# Elastic Constant Matrix: (Units=GPa)
#
#
# Indices 1 2 3 4 5 6 
#
# 1 125.0998 37.6190 24.8825 -0.0059 -46.2908 0.0000
# 2 37.6190 70.5728 17.2932 -0.0153 -13.4466 0.0011
# 3 24.8825 17.2932 115.4619 -0.0104 -12.5138 0.0039
# 4 -0.0059 -0.0153 -0.0104 29.9970 0.0038 -9.3423
# 5 -46.2908 -13.4466 -12.5138 0.0038 65.9834 -0.0002
# 6 0.0000 0.0011 0.0039 -9.3423 -0.0002 30.7438
#
#
#
# Elastic Compliance Matrix: (Units=1/GPa)
#
#
# Indices 1 2 3 4 5 6 
#
# 1 0.012499 -0.004947 -0.001135 -0.000001 0.007545 0.000000
# 2 -0.004947 0.017130 -0.001529 0.000008 -0.000270 0.000002
# 3 -0.001135 -0.001529 0.009204 0.000002 0.000638 -0.000001
# 4 -0.000001 0.000008 0.000002 0.036821 -0.000001 0.011189
# 5 0.007545 -0.000270 0.000638 -0.000001 0.020515 0.000000
# 6 0.000000 0.000002 -0.000001 0.011189 0.000000 0.035927
#
#
# Mechanical properties :
#
#
# Convention : Reuss Voigt Hill
#
# Bulk Modulus (GPa) = 42.35247 52.30267 47.32757
# Shear Modulus (GPa) = 32.21917 40.76749 36.49333
#
# Velocity S-wave (km/s) = 3.59376 4.04249 3.82471
# Velocity P-wave (km/s) = 5.84784 6.53870 6.20290
#
# Compressibility (1/GPa) = 0.02361137
#
# Stress axis : x y z
#
# Youngs Moduli (GPa) = 80.00695 58.37726 108.65396
#
# Poissons Ratio (x) = 0.28878 0.12331
# Poissons Ratio (y) = 0.39578 0.16611
# Poissons Ratio (z) = 0.09080 0.08925
#
# Static dielectric constant tensor:
#      x y z
#    x 2.065160 0.000000 -0.039870 
#    y 0.000000 1.997330 0.000000 
#    z -0.039870 0.000000 2.027210 
# 
# From -- ./inp_files/282091.got.cif
#   From: 2010.05.17/outbox.cif.g08.bks.cpg/sg15_142_cif.got.tgz:282091.got - 2010.06.03 18:47:42.
