data_PCOD9290433
_publ_section_title
;
Structure prediction by ZEFSAII (Michael W. Deem and Ramdas Pophale) SiO2 
 PCOD9290433
Probable space group: C 2/C
;
_chemical_formula_sum "Si O2"
_cell_formula_units_Z 56
_cell_length_a 17.439929
_cell_length_b 7.694093
_cell_length_c 19.549079
_cell_angle_alpha 90.000000
_cell_angle_beta 65.064573
_cell_angle_gamma 90.000000
_cell_volume 2378.658294
_symmetry_space_group_name_H-M "C 2/C"
_symmetry_group_IT_number 15
_symmetry_cell_setting 'monoclinic'
loop_
_space_group_symop_operation_xyz
x,y,z
-x,y,1/2-z
-x,-y,-z
x,-y,1/2+z
1/2+x,1/2+y,z
1/2-x,1/2+y,1/2-z
1/2-x,1/2-y,-z
1/2+x,1/2-y,1/2+z
loop_
_atom_site_type_symbol
_atom_site_label
_atom_site_fract_x
_atom_site_fract_y
_atom_site_fract_z
Si Si1 0.258300 0.418018 0.150899
Si Si2 0.009737 0.837303 0.664319
Si Si3 0.377310 0.030297 0.906889
Si Si4 0.100152 0.557230 0.957102
Si Si5 0.739684 0.171389 0.810515
Si Si6 0.589174 0.660428 0.675482
Si Si7 0.416843 0.556655 0.068739
O O1 0.191255 0.386373 0.117494
O O2 0.263769 0.627136 0.163784
O O3 0.236684 0.330711 0.230084
O O4 0.353476 0.394125 0.090180
O O5 0.040516 0.650509 0.628780
O O6 0.000000 0.823870 0.750000
O O7 0.935004 0.892883 0.641490
O O8 0.076345 0.994509 0.631683
O O9 0.394558 0.837662 0.871423
O O10 0.353328 0.021376 0.994749
O O11 0.163927 0.547843 0.867805
O O12 0.103502 0.765865 0.963348
O O13 0.000000 0.500000 0.000000
O O14 0.832160 0.118504 0.804271
O O15 0.500000 0.682339 0.750000
O O16 0.500000 0.500000 0.000000
#
# Coordination Sequence:
#
# PCOD9290433 Si02
#       7
#     8   8   8   8   8   8   8
#     4  10  24  42  68  99 135 180 228 289 352 418
#     4  11  23  40  71 100 138 178 234 285 341 422
#     4  11  24  42  68 101 132 183 232 286 350 421
#     4  11  24  44  64  94 137 177 226 287 349 408
#     4  10  24  42  66  95 137 176 224 288 348 414
#     4  10  22  41  66 100 137 177 225 289 352 409
#     4  11  24  44  68  99 137 184 226 287 356 418
#
# _framework density 23.542684000000001
#
# number of rings (size 3 to 8) (size 9 to 14) (size 15 to 20)
#    0.000    1.429    1.429    3.000    6.000    9.714 
#    0.000    1.429    0.000    0.000    0.000    0.000 
#    0.000    0.000    0.000    0.000    0.000    0.000 
#
# Total GULP energy -156251.431878 kJ/mol
# GULP energy per Si atom -5580.408281 kJ/mol
# Density = 2.348910 g / cm^3
# Si number density = 23.542684 Si / 1000 Ang^3
#
#
#
# Elastic Constant Matrix: (Units=GPa)
#
#
# Indices 1 2 3 4 5 6 
#
# 1 110.8226 -12.2280 23.6937 0.0000 5.6657 0.0000
# 2 -12.2280 54.2677 -1.7749 0.0000 3.4018 0.0000
# 3 23.6937 -1.7749 80.2817 0.0000 -8.6524 0.0000
# 4 0.0000 0.0000 0.0000 8.8280 0.0000 -5.5049
# 5 5.6657 3.4018 -8.6524 0.0000 45.1571 0.0000
# 6 0.0000 0.0000 0.0000 -5.5049 0.0000 15.9228
#
#
#
# Elastic Compliance Matrix: (Units=1/GPa)
#
#
# Indices 1 2 3 4 5 6 
#
# 1 0.010050 0.002290 -0.003135 0.000000 -0.002034 0.000000
# 2 0.002290 0.019042 -0.000450 0.000000 -0.001808 0.000000
# 3 -0.003135 -0.000450 0.013700 0.000000 0.003052 0.000000
# 4 0.000000 0.000000 0.000000 0.144407 0.000000 0.049925
# 5 -0.002034 -0.001808 0.003052 0.000000 0.023121 0.000000
# 6 0.000000 0.000000 0.000000 0.049925 0.000000 0.080063
#
#
# Mechanical properties :
#
#
# Convention : Reuss Voigt Hill
#
# Bulk Modulus (GPa) = 24.87391 29.41706 27.14549
# Shear Modulus (GPa) = 16.31994 29.69366 23.00680
#
# Velocity S-wave (km/s) = 2.63574 3.55529 3.12947
# Velocity P-wave (km/s) = 4.45547 5.41994 4.96120
#
# Compressibility (1/GPa) = 0.04020276
#
# Stress axis : x y z
#
# Youngs Moduli (GPa) = 99.49990 52.51628 72.99096
#
# Poissons Ratio (x) = -0.12024 0.22881
# Poissons Ratio (y) = -0.22781 0.03282
# Poissons Ratio (z) = 0.31191 0.02361
#
# Static dielectric constant tensor:
#      x y z
#    x 2.162030 0.000000 -0.150640 
#    y 0.000000 1.922980 0.000000 
#    z -0.150640 0.000000 1.974030 
# 
# From -- ./inp_files/209521.got.cif
#   From: 2010.05.17/outbox.cif.g08.bks.cpg/sg15_105_cif.got.tgz:209521.got - 2010.06.03 18:47:42.
