data_PCOD9290577
_publ_section_title
;
Structure prediction by ZEFSAII (Michael W. Deem and Ramdas Pophale) SiO2 
 PCOD9290577
Probable space group: C 2/C
;
_chemical_formula_sum "Si O2"
_cell_formula_units_Z 48
_cell_length_a 9.823584
_cell_length_b 13.251902
_cell_length_c 16.695837
_cell_angle_alpha 90.000000
_cell_angle_beta 76.762696
_cell_angle_gamma 90.000000
_cell_volume 2115.734224
_symmetry_space_group_name_H-M "C 2/C"
_symmetry_group_IT_number 15
_symmetry_cell_setting 'monoclinic'
loop_
_space_group_symop_operation_xyz
x,y,z
-x,y,1/2-z
-x,-y,-z
x,-y,1/2+z
1/2+x,1/2+y,z
1/2-x,1/2+y,1/2-z
1/2-x,1/2-y,-z
1/2+x,1/2-y,1/2+z
loop_
_atom_site_type_symbol
_atom_site_label
_atom_site_fract_x
_atom_site_fract_y
_atom_site_fract_z
Si Si1 0.000000 0.965201 0.250000
Si Si2 0.973597 0.695102 0.847600
Si Si3 0.500000 0.123739 0.250000
Si Si4 0.828223 0.099690 0.990429
Si Si5 0.940732 0.905923 0.906082
Si Si6 0.799869 0.795747 0.334044
Si Si7 0.057832 0.484195 0.582861
O O1 0.980691 0.037284 0.176727
O O2 0.866865 0.891690 0.278295
O O3 0.893454 0.797259 0.881867
O O4 0.132699 0.703388 0.858602
O O5 0.000000 0.687754 0.750000
O O6 0.901912 0.596024 0.892397
O O7 0.369289 0.198342 0.284501
O O8 0.526742 0.059180 0.327949
O O9 0.843922 0.181655 0.919393
O O10 0.955888 0.107951 0.033576
O O11 0.683969 0.094371 0.056320
O O12 0.829791 0.989123 0.948043
O O13 0.000000 0.500000 0.500000
#
# Coordination Sequence:
#
# PCOD9290577 Si02
#       7
#     4   8   4   8   8   8   8
#     4   9  20  41  64  92 128 169 212 267 326 380
#     4  12  25  40  63  98 133 170 213 265 328 386
#     4  11  26  45  70  96 124 181 222 267 320 392
#     4  10  23  44  69  93 128 171 219 270 324 390
#     4  10  22  41  67  95 125 171 216 271 320 384
#     4  10  23  43  67  94 127 171 225 264 320 392
#     4  12  26  44  66  96 139 173 215 269 333 387
#
# _framework density 22.687159999999999
#
# number of rings (size 3 to 8) (size 9 to 14) (size 15 to 20)
#    0.000    1.333    3.333    1.000    4.667    4.667 
#    0.000    0.000    0.000    0.000    0.000    0.000 
#    0.000    0.000    0.000    0.000    0.000    0.000 
#
# Total GULP energy -134037.647336 kJ/mol
# GULP energy per Si atom -5584.901972 kJ/mol
# Density = 2.263552 g / cm^3
# Si number density = 22.687160 Si / 1000 Ang^3
#
#
#
# Elastic Constant Matrix: (Units=GPa)
#
#
# Indices 1 2 3 4 5 6 
#
# 1 19.8262 -13.3375 0.7073 0.0000 -0.9092 0.0000
# 2 -13.3375 161.1669 60.3901 0.0000 -0.7058 0.0000
# 3 0.7073 60.3901 147.3408 0.0000 15.1912 0.0000
# 4 0.0000 0.0000 0.0000 42.9828 0.0000 6.6739
# 5 -0.9092 -0.7058 15.1912 0.0000 34.5846 0.0000
# 6 0.0000 0.0000 0.0000 6.6739 0.0000 -9.8461
#
#
#
# Elastic Compliance Matrix: (Units=1/GPa)
#
#
# Indices 1 2 3 4 5 6 
#
# 1 0.054420 0.005578 -0.002835 0.000000 0.002790 0.000000
# 2 0.005578 0.007981 -0.003488 0.000000 0.001842 0.000000
# 3 -0.002835 -0.003488 0.008636 0.000000 -0.003939 0.000000
# 4 0.000000 0.000000 0.000000 0.021050 0.000000 0.014268
# 5 0.002790 0.001842 -0.003939 0.000000 0.030756 0.000000
# 6 0.000000 0.000000 0.000000 0.014268 0.000000 -0.091892
#
#
# Mechanical properties :
#
#
# Convention : Reuss Voigt Hill
#
# Bulk Modulus (GPa) = 14.37860 47.09485 30.73673
# Shear Modulus (GPa) = 89.88963 32.24920 61.06942
#
# Velocity S-wave (km/s) = 6.30138 3.77433 5.19389
# Velocity P-wave (km/s) = 7.70031 6.30853 7.03890
#
# Compressibility (1/GPa) = 0.06954779
#
# Stress axis : x y z
#
# Youngs Moduli (GPa) = 18.37559 125.29131 115.78975
#
# Poissons Ratio (x) = -0.69889 0.32829
# Poissons Ratio (y) = -0.10250 0.40387
# Poissons Ratio (z) = 0.05210 0.43701
#
# Static dielectric constant tensor:
#      x y z
#    x 1.756300 0.000000 -0.025380 
#    y 0.000000 1.866230 0.000000 
#    z -0.025380 0.000000 1.865640 
# 
# From -- ./inp_files/196564.got.cif
#   From: 2010.05.17/outbox.cif.g08.bks.cpg/sg15_99_cif.got.tgz:196564.got - 2010.06.03 18:47:42.
