data_PCOD9290291
_publ_section_title
;
Structure prediction by ZEFSAII (Michael W. Deem and Ramdas Pophale) SiO2 
 PCOD9290291
Probable space group: C 2/C
;
_chemical_formula_sum "Si O2"
_cell_formula_units_Z 48
_cell_length_a 28.606127
_cell_length_b 11.838475
_cell_length_c 13.251777
_cell_angle_alpha 90.000000
_cell_angle_beta 27.543884
_cell_angle_gamma 90.000000
_cell_volume 2075.261989
_symmetry_space_group_name_H-M "C 2/C"
_symmetry_group_IT_number 15
_symmetry_cell_setting 'monoclinic'
loop_
_space_group_symop_operation_xyz
x,y,z
-x,y,1/2-z
-x,-y,-z
x,-y,1/2+z
1/2+x,1/2+y,z
1/2-x,1/2+y,1/2-z
1/2-x,1/2-y,-z
1/2+x,1/2-y,1/2+z
loop_
_atom_site_type_symbol
_atom_site_label
_atom_site_fract_x
_atom_site_fract_y
_atom_site_fract_z
Si Si1 0.729608 0.418117 0.715391
Si Si2 0.262340 0.938065 0.882363
Si Si3 0.822486 0.680990 0.755863
Si Si4 0.960844 0.681551 0.068902
Si Si5 0.101457 0.597737 0.101698
Si Si6 0.410545 0.575856 0.625672
O O1 0.736494 0.392992 0.820899
O O2 0.721073 0.307214 0.662314
O O3 0.825384 0.496745 0.507027
O O4 0.635289 0.500945 0.875752
O O5 0.380256 0.905488 0.675046
O O6 0.251294 0.073577 0.905794
O O7 0.183090 0.899513 0.118248
O O8 0.855839 0.665376 0.574948
O O9 0.919802 0.664070 0.641795
O O10 0.922382 0.678746 0.259224
O O11 0.949940 0.798747 0.030482
O O12 0.000000 0.544797 0.250000
O O13 0.500000 0.500000 0.500000
#
# Coordination Sequence:
#
# PCOD9290291 Si02
#       6
#     8   8   8   8   8   8
#     4  11  23  42  65  96 135 161 214 269 322 375
#     4  11  25  40  70  92 128 173 216 260 322 378
#     4  10  22  41  64  97 130 162 208 269 320 381
#     4  11  21  42  68  91 124 171 220 256 314 388
#     4   9  20  39  67  94 122 170 220 259 313 385
#     4  12  25  43  64  96 128 172 212 266 323 381
#
# _framework density 23.12961
#
# number of rings (size 3 to 8) (size 9 to 14) (size 15 to 20)
#    0.000    1.333    3.333    2.000    4.667    1.333 
#    0.000    0.000    0.000    0.000    0.000    0.000 
#    0.000    0.000    0.000    0.000    0.000    0.000 
#
# Total GULP energy -134027.974059 kJ/mol
# GULP energy per Si atom -5584.498919 kJ/mol
# Density = 2.307697 g / cm^3
# Si number density = 23.129610 Si / 1000 Ang^3
#
#
#
# Elastic Constant Matrix: (Units=GPa)
#
#
# Indices 1 2 3 4 5 6 
#
# 1 103.8594 17.1537 13.1381 0.0000 -29.6345 0.0000
# 2 17.1537 113.9118 13.2465 0.0000 -33.3921 0.0000
# 3 13.1381 13.2465 49.2064 0.0000 -23.0272 0.0000
# 4 0.0000 0.0000 0.0000 30.6150 0.0000 -6.1519
# 5 -29.6345 -33.3921 -23.0272 0.0000 39.1394 0.0000
# 6 0.0000 0.0000 0.0000 -6.1519 0.0000 28.7910
#
#
#
# Elastic Compliance Matrix: (Units=1/GPa)
#
#
# Indices 1 2 3 4 5 6 
#
# 1 0.012506 0.001321 0.001744 0.000000 0.011622 0.000000
# 2 0.001321 0.012005 0.002314 0.000000 0.012604 0.000000
# 3 0.001744 0.002314 0.028669 0.000000 0.020162 0.000000
# 4 0.000000 0.000000 0.000000 0.034129 0.000000 0.007293
# 5 0.011622 0.012604 0.020162 0.000000 0.056964 0.000000
# 6 0.000000 0.000000 0.000000 0.007293 0.000000 0.036291
#
#
# Mechanical properties :
#
#
# Convention : Reuss Voigt Hill
#
# Bulk Modulus (GPa) = 15.64033 39.33934 27.48984
# Shear Modulus (GPa) = 26.16154 34.60502 30.38328
#
# Velocity S-wave (km/s) = 3.36681 3.87219 3.62831
# Velocity P-wave (km/s) = 4.67874 6.08580 5.42805
#
# Compressibility (1/GPa) = 0.06393726
#
# Stress axis : x y z
#
# Youngs Moduli (GPa) = 79.96371 83.29540 34.88067
#
# Poissons Ratio (x) = -0.11001 -0.06083
# Poissons Ratio (y) = -0.10561 -0.08070
# Poissons Ratio (z) = -0.13946 -0.19272
#
# Static dielectric constant tensor:
#      x y z
#    x 1.893210 0.000000 0.003120 
#    y 0.000000 1.853010 0.000000 
#    z 0.003120 0.000000 1.905310 
# 
# From -- ./inp_files/151845.got.cif
#   From: 2010.05.17/outbox.cif.g08.bks.cpg/sg15_76_cif.got.tgz:151845.got - 2010.06.03 18:47:42.
