data_PCOD9290000
_publ_section_title
;
Structure prediction by ZEFSAII (Michael W. Deem and Ramdas Pophale) SiO2 
 PCOD9290000
Probable space group: C 2/C
;
_chemical_formula_sum "Si O2"
_cell_formula_units_Z 44
_cell_length_a 9.744477
_cell_length_b 13.079670
_cell_length_c 19.633231
_cell_angle_alpha 90.000000
_cell_angle_beta 124.781837
_cell_angle_gamma 90.000000
_cell_volume 2055.250820
_symmetry_space_group_name_H-M "C 2/C"
_symmetry_group_IT_number 15
_symmetry_cell_setting 'monoclinic'
loop_
_space_group_symop_operation_xyz
x,y,z
-x,y,1/2-z
-x,-y,-z
x,-y,1/2+z
1/2+x,1/2+y,z
1/2-x,1/2+y,1/2-z
1/2-x,1/2-y,-z
1/2+x,1/2-y,1/2+z
loop_
_atom_site_type_symbol
_atom_site_label
_atom_site_fract_x
_atom_site_fract_y
_atom_site_fract_z
Si Si1 0.214667 0.337504 0.627906
Si Si2 0.811577 0.063521 0.676597
Si Si3 0.173721 0.361059 0.994352
Si Si4 0.250000 0.250000 0.500000
Si Si5 0.308611 0.532522 0.936989
Si Si6 0.185946 0.358204 0.275217
O O1 0.285084 0.442675 0.674946
O O2 0.313557 0.302457 0.589212
O O3 0.219042 0.247576 0.683876
O O4 0.023879 0.350726 0.548121
O O5 0.763255 0.096421 0.587070
O O6 0.691310 0.114972 0.697841
O O7 0.000000 0.091238 0.750000
O O8 0.250000 0.250000 0.000000
O O9 0.201987 0.441725 0.941374
O O10 0.275563 0.360701 0.466243
O O11 0.269551 0.554933 0.846637
O O12 0.500000 0.500000 0.000000
O O13 0.000000 0.346931 0.250000
#
# Coordination Sequence:
#
# PCOD9290000 Si02
#       6
#     8   8   8   4   8   8
#     4  11  24  43  70  97 135 187 238 284 356 432
#     4  12  25  44  68 102 143 180 236 300 363 422
#     4  12  25  44  71 103 138 187 241 290 354 436
#     4  10  22  40  72  94 132 178 246 284 338 418
#     4  11  23  45  70 101 139 187 243 287 358 439
#     4  11  26  45  68 104 144 182 234 300 368 418
#
# _framework density 21.408579
#
# number of rings (size 3 to 8) (size 9 to 14) (size 15 to 20)
#    0.000    0.727    1.818    6.545    5.091    1.455 
#    0.000    3.636    0.000    0.000    0.000    0.000 
#    0.000    0.000    0.000    0.000    0.000    0.000 
#
# Total GULP energy -122602.750177 kJ/mol
# GULP energy per Si atom -5572.852281 kJ/mol
# Density = 2.135985 g / cm^3
# Si number density = 21.408579 Si / 1000 Ang^3
#
#
#
# Elastic Constant Matrix: (Units=GPa)
#
#
# Indices 1 2 3 4 5 6 
#
# 1 36.7625 12.6618 9.6734 0.0000 9.6078 0.0000
# 2 12.6618 102.5165 9.5976 0.0000 -12.7934 0.0000
# 3 9.6734 9.5976 39.6159 0.0000 8.0391 0.0000
# 4 0.0000 0.0000 0.0000 36.3441 0.0000 6.4252
# 5 9.6078 -12.7934 8.0391 0.0000 48.3924 0.0000
# 6 0.0000 0.0000 0.0000 6.4252 0.0000 8.9485
#
#
#
# Elastic Compliance Matrix: (Units=1/GPa)
#
#
# Indices 1 2 3 4 5 6 
#
# 1 0.031791 -0.004235 -0.005411 0.000000 -0.006533 0.000000
# 2 -0.004235 0.011031 -0.002484 0.000000 0.004170 0.000000
# 3 -0.005411 -0.002484 0.028026 0.000000 -0.004238 0.000000
# 4 0.000000 0.000000 0.000000 0.031515 0.000000 -0.022629
# 5 -0.006533 0.004170 -0.004238 0.000000 0.023768 0.000000
# 6 0.000000 0.000000 0.000000 -0.022629 0.000000 0.127999
#
#
# Mechanical properties :
#
#
# Convention : Reuss Voigt Hill
#
# Bulk Modulus (GPa) = 21.46557 26.97339 24.21948
# Shear Modulus (GPa) = 17.01146 28.53445 22.77295
#
# Velocity S-wave (km/s) = 2.82194 3.65478 3.26503
# Velocity P-wave (km/s) = 4.54601 5.51694 5.05484
#
# Compressibility (1/GPa) = 0.04658622
#
# Stress axis : x y z
#
# Youngs Moduli (GPa) = 31.45500 90.65732 35.68166
#
# Poissons Ratio (x) = 0.38395 0.19308
# Poissons Ratio (y) = 0.13322 0.08864
# Poissons Ratio (z) = 0.17021 0.22522
#
# Static dielectric constant tensor:
#      x y z
#    x 1.848410 0.000000 0.002230 
#    y 0.000000 1.754350 0.000000 
#    z 0.002230 0.000000 1.766520 
# 
# From -- ./inp_files/189328.got.cif
#   From: 2010.05.17/outbox.cif.g08.bks.cpg/sg15_95_cif.got.tgz:189328.got - 2010.06.03 18:47:42.
