data_PCOD9290150
_publ_section_title
;
Structure prediction by ZEFSAII (Michael W. Deem and Ramdas Pophale) SiO2 
 PCOD9290150
Probable space group: C 2/C
;
_chemical_formula_sum "Si O2"
_cell_formula_units_Z 64
_cell_length_a 14.611455
_cell_length_b 23.537441
_cell_length_c 12.599301
_cell_angle_alpha 90.000000
_cell_angle_beta 140.281727
_cell_angle_gamma 90.000000
_cell_volume 2768.910807
_symmetry_space_group_name_H-M "C 2/C"
_symmetry_group_IT_number 15
_symmetry_cell_setting 'monoclinic'
loop_
_space_group_symop_operation_xyz
x,y,z
-x,y,1/2-z
-x,-y,-z
x,-y,1/2+z
1/2+x,1/2+y,z
1/2-x,1/2+y,1/2-z
1/2-x,1/2-y,-z
1/2+x,1/2-y,1/2+z
loop_
_atom_site_type_symbol
_atom_site_label
_atom_site_fract_x
_atom_site_fract_y
_atom_site_fract_z
Si Si1 0.617384 0.217272 0.581508
Si Si2 0.169308 0.577619 0.875676
Si Si3 0.393297 0.458507 0.740350
Si Si4 0.876002 0.278197 0.706465
Si Si5 0.256124 0.403793 0.228085
Si Si6 0.563974 0.430587 0.486084
Si Si7 0.657770 0.209477 0.847140
Si Si8 0.662214 0.093417 0.412952
O O1 0.730162 0.246618 0.602994
O O2 0.459617 0.214722 0.392611
O O3 0.664899 0.153288 0.647997
O O4 0.638025 0.241248 0.716598
O O5 0.218528 0.559053 0.799256
O O6 0.214614 0.644366 0.908744
O O7 0.000000 0.573898 0.750000
O O8 0.250095 0.544674 0.042003
O O9 0.500000 0.430307 0.750000
O O10 0.479922 0.515167 0.858435
O O11 0.377218 0.431080 0.841282
O O12 0.850108 0.338301 0.623516
O O13 0.000000 0.246176 0.750000
O O14 0.425233 0.389341 0.370001
O O15 0.205961 0.426091 0.069498
O O16 0.702537 0.422081 0.538494
O O17 0.500000 0.203724 0.750000
O O18 0.750000 0.250000 0.000000
O O19 0.500000 0.071844 0.250000
#
# Coordination Sequence:
#
# PCOD9290150 Si02
#       8
#     8   8   8   8   8   8   8   8
#     4  11  23  38  64  93 137 179 235 283 345 415
#     4  10  24  44  75 100 143 186 230 298 349 412
#     4  11  23  48  71 105 136 174 234 280 361 419
#     4  11  23  40  60  96 135 183 225 291 341 410
#     4  11  22  44  65 103 134 184 233 281 352 420
#     4  11  26  43  76  99 138 183 223 297 346 433
#     4  10  22  41  62  96 137 180 232 280 334 409
#     4  11  24  43  67 100 140 179 235 285 356 415
#
# _framework density 23.113783000000002
#
# number of rings (size 3 to 8) (size 9 to 14) (size 15 to 20)
#    0.000    1.250    3.750    2.250    3.500    2.500 
#    0.000    3.125    0.000    0.000    0.000    0.000 
#    0.000    0.000    0.000    0.000    0.000    0.000 
#
# Total GULP energy -178274.595823 kJ/mol
# GULP energy per Si atom -5571.081119 kJ/mol
# Density = 2.306117 g / cm^3
# Si number density = 23.113783 Si / 1000 Ang^3
#
#
#
# Elastic Constant Matrix: (Units=GPa)
#
#
# Indices 1 2 3 4 5 6 
#
# 1 93.4480 -4.1829 83.6338 0.0000 -14.9347 0.0000
# 2 -4.1829 43.3152 39.7224 0.0000 -5.6685 0.0000
# 3 83.6338 39.7224 220.0731 0.0000 -13.6846 0.0000
# 4 0.0000 0.0000 0.0000 35.2689 0.0000 -4.4521
# 5 -14.9347 -5.6685 -13.6846 0.0000 53.0945 0.0000
# 6 0.0000 0.0000 0.0000 -4.4521 0.0000 20.1671
#
#
#
# Elastic Compliance Matrix: (Units=1/GPa)
#
#
# Indices 1 2 3 4 5 6 
#
# 1 0.020465 0.011314 -0.009539 0.000000 0.004506 0.000000
# 2 0.011314 0.034071 -0.010189 0.000000 0.004194 0.000000
# 3 -0.009539 -0.010189 0.009933 0.000000 -0.001211 0.000000
# 4 0.000000 0.000000 0.000000 0.029166 0.000000 0.006439
# 5 0.004506 0.004194 -0.001211 0.000000 0.020237 0.000000
# 6 0.000000 0.000000 0.000000 0.006439 0.000000 0.051007
#
#
# Mechanical properties :
#
#
# Convention : Reuss Voigt Hill
#
# Bulk Modulus (GPa) = 20.99009 66.13145 43.56077
# Shear Modulus (GPa) = 25.30510 37.55029 31.42769
#
# Velocity S-wave (km/s) = 3.31237 4.03499 3.69140
# Velocity P-wave (km/s) = 4.87135 7.09799 6.08734
#
# Compressibility (1/GPa) = 0.04764152
#
# Stress axis : x y z
#
# Youngs Moduli (GPa) = 48.86378 29.35009 100.67640
#
# Poissons Ratio (x) = -0.33206 0.96037
# Poissons Ratio (y) = -0.55284 1.02575
# Poissons Ratio (z) = 0.46612 0.29904
#
# Static dielectric constant tensor:
#      x y z
#    x 2.031450 0.000000 -0.081070 
#    y 0.000000 1.993870 0.000000 
#    z -0.081070 0.000000 1.917530 
# 
# From -- ./inp_files/101365.got.cif
#   From: 2010.05.17/outbox.cif.g08.bks.cpg/sg15_51_cif.got.tgz:101365.got - 2010.06.03 18:47:42.
