data_PCOD9290410
_publ_section_title
;
Structure prediction by ZEFSAII (Michael W. Deem and Ramdas Pophale) SiO2 
 PCOD9290410
Probable space group: C 2/C
;
_chemical_formula_sum "Si O2"
_cell_formula_units_Z 44
_cell_length_a 13.218585
_cell_length_b 19.962033
_cell_length_c 8.773182
_cell_angle_alpha 90.000000
_cell_angle_beta 107.201297
_cell_angle_gamma 90.000000
_cell_volume 2211.432936
_symmetry_space_group_name_H-M "C 2/C"
_symmetry_group_IT_number 15
_symmetry_cell_setting 'monoclinic'
loop_
_space_group_symop_operation_xyz
x,y,z
-x,y,1/2-z
-x,-y,-z
x,-y,1/2+z
1/2+x,1/2+y,z
1/2-x,1/2+y,1/2-z
1/2-x,1/2-y,-z
1/2+x,1/2-y,1/2+z
loop_
_atom_site_type_symbol
_atom_site_label
_atom_site_fract_x
_atom_site_fract_y
_atom_site_fract_z
Si Si1 0.162797 0.830643 0.105406
Si Si2 0.022540 0.073656 0.079583
Si Si3 0.307536 0.068227 0.843848
Si Si4 0.500000 0.874716 0.250000
Si Si5 0.733496 0.928618 0.826457
Si Si6 0.341786 0.820538 0.933054
O O1 0.231766 0.870736 0.259593
O O2 0.147268 0.752711 0.134492
O O3 0.232860 0.828645 0.981128
O O4 0.056880 0.872342 0.028456
O O5 0.144201 0.093638 0.105529
O O6 0.000000 0.070835 0.250000
O O7 0.000000 0.000000 0.000000
O O8 0.418442 0.081216 0.810345
O O9 0.261611 0.999608 0.756755
O O10 0.313939 0.063275 0.027215
O O11 0.566674 0.831731 0.401224
O O12 0.664549 0.877695 0.696303
#
# Coordination Sequence:
#
# PCOD9290410 Si02
#       6
#     8   8   8   4   8   8
#     4  10  22  41  65  96 135 170 218 265 331 395
#     4  12  23  38  67  99 129 174 210 266 328 394
#     4  11  24  42  66  95 128 170 220 279 326 394
#     4  10  24  44  68  90 124 176 226 270 334 392
#     4  12  24  41  66  97 131 166 220 276 331 392
#     4  10  23  42  65  95 130 176 220 269 327 395
#
# _framework density 19.896602999999999
#
# number of rings (size 3 to 8) (size 9 to 14) (size 15 to 20)
#    0.000    1.091    3.636    3.273    1.273    5.818 
#    0.000    1.818    0.000    0.000    0.000    0.000 
#    0.000    0.000    0.000    0.000    0.000    0.000 
#
# Total GULP energy -123017.140025 kJ/mol
# GULP energy per Si atom -5591.688183 kJ/mol
# Density = 1.985132 g / cm^3
# Si number density = 19.896603 Si / 1000 Ang^3
#
#
#
# Elastic Constant Matrix: (Units=GPa)
#
#
# Indices 1 2 3 4 5 6 
#
# 1 84.3706 20.5986 30.0202 0.0000 16.6222 0.0000
# 2 20.5986 101.1166 41.9665 0.0000 17.4710 0.0000
# 3 30.0202 41.9665 107.0140 0.0000 -4.6714 0.0000
# 4 0.0000 0.0000 0.0000 26.0994 0.0000 -0.1016
# 5 16.6222 17.4710 -4.6714 0.0000 34.1215 0.0000
# 6 0.0000 0.0000 0.0000 -0.1016 0.0000 24.1003
#
#
#
# Elastic Compliance Matrix: (Units=1/GPa)
#
#
# Indices 1 2 3 4 5 6 
#
# 1 0.015051 0.000282 -0.004687 0.000000 -0.008118 0.000000
# 2 0.000282 0.013579 -0.005748 0.000000 -0.007877 0.000000
# 3 -0.004687 -0.005748 0.013221 0.000000 0.007036 0.000000
# 4 0.000000 0.000000 0.000000 0.038316 0.000000 0.000162
# 5 -0.008118 -0.007877 0.007036 0.000000 0.038258 0.000000
# 6 0.000000 0.000000 0.000000 0.000162 0.000000 0.041494
#
#
# Mechanical properties :
#
#
# Convention : Reuss Voigt Hill
#
# Bulk Modulus (GPa) = 46.41683 53.07464 49.74574
# Shear Modulus (GPa) = 26.68017 30.19196 28.43607
#
# Velocity S-wave (km/s) = 3.66586 3.89966 3.78457
# Velocity P-wave (km/s) = 6.42633 6.85636 6.64482
#
# Compressibility (1/GPa) = 0.02154391
#
# Stress axis : x y z
#
# Youngs Moduli (GPa) = 66.44207 73.64498 75.63930
#
# Poissons Ratio (x) = -0.02076 0.35452
# Poissons Ratio (y) = -0.01873 0.43477
# Poissons Ratio (z) = 0.31142 0.42330
#
# Static dielectric constant tensor:
#      x y z
#    x 1.710090 0.000000 0.013520 
#    y 0.000000 1.677840 0.000000 
#    z 0.013520 0.000000 1.676900 
# 
# From -- ./inp_files/31020.got.cif
#   From: 2010.05.17/outbox.cif.g08.bks.cpg/sg15_16_cif.got.tgz:31020.got - 2010.06.03 18:47:42.
