data_PCOD9290247
_publ_section_title
;
Structure prediction by ZEFSAII (Michael W. Deem and Ramdas Pophale) SiO2 
 PCOD9290247
Probable space group: C 2/C
;
_chemical_formula_sum "Si O2"
_cell_formula_units_Z 48
_cell_length_a 7.311525
_cell_length_b 26.545553
_cell_length_c 13.216674
_cell_angle_alpha 90.000000
_cell_angle_beta 49.788330
_cell_angle_gamma 90.000000
_cell_volume 1958.955419
_symmetry_space_group_name_H-M "C 2/C"
_symmetry_group_IT_number 15
_symmetry_cell_setting 'monoclinic'
loop_
_space_group_symop_operation_xyz
x,y,z
-x,y,1/2-z
-x,-y,-z
x,-y,1/2+z
1/2+x,1/2+y,z
1/2-x,1/2+y,1/2-z
1/2-x,1/2-y,-z
1/2+x,1/2-y,1/2+z
loop_
_atom_site_type_symbol
_atom_site_label
_atom_site_fract_x
_atom_site_fract_y
_atom_site_fract_z
Si Si1 0.770819 0.274222 0.699531
Si Si2 0.960421 0.624330 0.449111
Si Si3 0.735006 0.069044 0.791664
Si Si4 0.967704 0.105434 0.515765
Si Si5 0.802063 0.043487 0.233768
Si Si6 0.055252 0.212056 0.020745
O O1 0.500000 0.278307 0.750000
O O2 0.899592 0.224317 0.613003
O O3 0.921182 0.321301 0.605439
O O4 0.705291 0.275403 0.841328
O O5 0.932864 0.598850 0.570019
O O6 0.698098 0.624985 0.494816
O O7 0.115031 0.587020 0.324398
O O8 0.000000 0.068344 0.750000
O O9 0.770586 0.093031 0.669151
O O10 0.676352 0.010552 0.791238
O O11 0.057487 0.057683 0.419060
O O12 0.897523 0.153565 0.473839
O O13 0.000000 0.046018 0.250000
O O14 0.250000 0.250000 0.000000
#
# Coordination Sequence:
#
# PCOD9290247 Si02
#       6
#     8   8   8   8   8   8
#     4  10  22  41  64  91 129 169 213 268 330 392
#     4  11  22  40  68  93 133 169 218 269 334 384
#     4   9  22  41  63  98 134 171 218 274 324 390
#     4  11  23  42  66  94 130 174 217 275 326 389
#     4  11  22  40  67  94 132 176 220 265 331 392
#     4  10  23  40  63  91 127 166 216 269 325 392
#
# _framework density 24.502856999999999
#
# number of rings (size 3 to 8) (size 9 to 14) (size 15 to 20)
#    0.000    1.667    1.667    2.000    4.667    0.667 
#    0.000    2.500    0.000    0.000    0.000    0.000 
#    0.000    0.000    0.000    0.000    0.000    0.000 
#
# Total GULP energy -134230.632917 kJ/mol
# GULP energy per Si atom -5592.943038 kJ/mol
# Density = 2.444709 g / cm^3
# Si number density = 24.502857 Si / 1000 Ang^3
#
#
#
# Elastic Constant Matrix: (Units=GPa)
#
#
# Indices 1 2 3 4 5 6 
#
# 1 57.1054 13.4409 19.8151 0.0000 -7.7894 0.0000
# 2 13.4409 95.2697 48.3223 0.0000 -13.8129 0.0000
# 3 19.8151 48.3223 153.1928 0.0000 16.5811 0.0000
# 4 0.0000 0.0000 0.0000 49.8445 0.0000 1.4654
# 5 -7.7894 -13.8129 16.5811 0.0000 33.5220 0.0000
# 6 0.0000 0.0000 0.0000 1.4654 0.0000 21.2655
#
#
#
# Elastic Compliance Matrix: (Units=1/GPa)
#
#
# Indices 1 2 3 4 5 6 
#
# 1 0.019451 -0.000348 -0.003043 0.000000 0.005881 0.000000
# 2 -0.000348 0.014584 -0.005491 0.000000 0.008645 0.000000
# 3 -0.003043 -0.005491 0.009482 0.000000 -0.007660 0.000000
# 4 0.000000 0.000000 0.000000 0.020103 0.000000 -0.001385
# 5 0.005881 0.008645 -0.007660 0.000000 0.038549 0.000000
# 6 0.000000 0.000000 0.000000 -0.001385 0.000000 0.047120
#
#
# Mechanical properties :
#
#
# Convention : Reuss Voigt Hill
#
# Bulk Modulus (GPa) = 38.82863 52.08050 45.45457
# Shear Modulus (GPa) = 28.46758 35.85903 32.16331
#
# Velocity S-wave (km/s) = 3.41223 3.82967 3.62696
# Velocity P-wave (km/s) = 5.60405 6.39189 6.01089
#
# Compressibility (1/GPa) = 0.02575419
#
# Stress axis : x y z
#
# Youngs Moduli (GPa) = 51.40997 68.56784 105.45835
#
# Poissons Ratio (x) = 0.02388 0.32088
# Poissons Ratio (y) = 0.01790 0.57907
# Poissons Ratio (z) = 0.15643 0.37650
#
# Static dielectric constant tensor:
#      x y z
#    x 2.215690 0.000000 0.101720 
#    y 0.000000 1.923850 0.000000 
#    z 0.101720 0.000000 1.979360 
# 
# From -- ./inp_files/138911.got.cif
#   From: 2010.05.17/outbox.cif.g08.bks.cpg/sg15_70_cif.got.tgz:138911.got - 2010.06.03 18:47:42.
