data_PCOD9290100
_publ_section_title
;
Structure prediction by ZEFSAII (Michael W. Deem and Ramdas Pophale) SiO2 
 PCOD9290100
Probable space group: C 2/C
;
_chemical_formula_sum "Si O2"
_cell_formula_units_Z 40
_cell_length_a 25.130427
_cell_length_b 14.839024
_cell_length_c 9.130704
_cell_angle_alpha 90.000000
_cell_angle_beta 149.500291
_cell_angle_gamma 90.000000
_cell_volume 1728.122796
_symmetry_space_group_name_H-M "C 2/C"
_symmetry_group_IT_number 15
_symmetry_cell_setting 'monoclinic'
loop_
_space_group_symop_operation_xyz
x,y,z
-x,y,1/2-z
-x,-y,-z
x,-y,1/2+z
1/2+x,1/2+y,z
1/2-x,1/2+y,1/2-z
1/2-x,1/2-y,-z
1/2+x,1/2-y,1/2+z
loop_
_atom_site_type_symbol
_atom_site_label
_atom_site_fract_x
_atom_site_fract_y
_atom_site_fract_z
Si Si1 0.658297 0.716694 0.897100
Si Si2 0.933847 0.454330 0.215796
Si Si3 0.612165 0.445517 0.088401
Si Si4 0.307137 0.122440 0.857846
Si Si5 0.267532 0.629238 0.122653
O O1 0.620797 0.813924 0.867962
O O2 0.684422 0.672330 0.116947
O O3 0.750000 0.750000 0.000000
O O4 0.599185 0.635858 0.674684
O O5 0.000000 0.402588 0.250000
O O6 0.000000 0.500000 0.500000
O O7 0.873855 0.533526 0.984237
O O8 0.845485 0.397472 0.082503
O O9 0.703762 0.408590 0.199660
O O10 0.661460 0.541463 0.252895
O O11 0.500000 0.461111 0.750000
O O12 0.262621 0.169520 0.607053
#
# Coordination Sequence:
#
# PCOD9290100 Si02
#       5
#     8   8   8   8   8
#     4  10  23  42  62  91 133 164 206 267 324 371
#     4  11  22  39  65  96 127 168 215 258 314 382
#     4  10  22  42  67  93 124 169 217 261 318 381
#     4  10  22  41  61  95 131 164 211 262 321 375
#     4  11  22  40  68  91 125 168 214 265 310 385
#
# _framework density 23.146505000000001
#
# number of rings (size 3 to 8) (size 9 to 14) (size 15 to 20)
#    0.000    1.600    2.000    3.000    5.600    3.200 
#    7.200    1.000    0.000    0.000    0.000    0.000 
#    0.000    0.000    0.000    0.000    0.000    0.000 
#
# Total GULP energy -111380.324859 kJ/mol
# GULP energy per Si atom -5569.016243 kJ/mol
# Density = 2.309382 g / cm^3
# Si number density = 23.146505 Si / 1000 Ang^3
#
#
#
# Elastic Constant Matrix: (Units=GPa)
#
#
# Indices 1 2 3 4 5 6 
#
# 1 41.0500 17.7797 19.0916 0.0000 -15.9866 0.0000
# 2 17.7797 18.6242 -1.2822 0.0000 -5.0257 0.0000
# 3 19.0916 -1.2822 79.7924 0.0000 -4.6347 0.0000
# 4 0.0000 0.0000 0.0000 19.2387 0.0000 -23.7817
# 5 -15.9866 -5.0257 -4.6347 0.0000 39.1786 0.0000
# 6 0.0000 0.0000 0.0000 -23.7817 0.0000 20.6313
#
#
#
# Elastic Compliance Matrix: (Units=1/GPa)
#
#
# Indices 1 2 3 4 5 6 
#
# 1 0.061442 -0.055280 -0.014646 0.000000 0.016247 0.000000
# 2 -0.055280 0.105492 0.014497 0.000000 -0.007309 0.000000
# 3 -0.014646 0.014497 0.016141 0.000000 -0.002207 0.000000
# 4 0.000000 0.000000 0.000000 -0.122331 0.000000 -0.141011
# 5 0.016247 -0.007309 -0.002207 0.000000 0.030955 0.000000
# 6 0.000000 0.000000 0.000000 -0.141011 0.000000 -0.114074
#
#
# Mechanical properties :
#
#
# Convention : Reuss Voigt Hill
#
# Bulk Modulus (GPa) = 13.84673 23.40499 18.62586
# Shear Modulus (GPa) = 44.42278 22.73489 33.57883
#
# Velocity S-wave (km/s) = 4.38562 3.13743 3.81295
# Velocity P-wave (km/s) = 5.62495 4.82268 5.23920
#
# Compressibility (1/GPa) = 0.07221922
#
# Stress axis : x y z
#
# Youngs Moduli (GPa) = 16.27545 9.47940 61.95215
#
# Poissons Ratio (x) = 0.52402 0.90733
# Poissons Ratio (y) = 0.89970 -0.89813
# Poissons Ratio (z) = 0.23836 -0.13742
#
# Static dielectric constant tensor:
#      x y z
#    x 1.951810 0.000000 -0.196450 
#    y 0.000000 2.220530 0.000000 
#    z -0.196450 0.000000 2.148990 
# 
# From -- ./inp_files/39418.got.cif
#   From: 2010.05.17/outbox.cif.g08.bks.cpg/sg15_20_cif.got.tgz:39418.got - 2010.06.03 18:47:42.
