data_PCOD9290177
_publ_section_title
;
Structure prediction by ZEFSAII (Michael W. Deem and Ramdas Pophale) SiO2 
 PCOD9290177
Probable space group: C 2/C
;
_chemical_formula_sum "Si O2"
_cell_formula_units_Z 56
_cell_length_a 11.727853
_cell_length_b 10.895392
_cell_length_c 17.503093
_cell_angle_alpha 90.000000
_cell_angle_beta 105.541358
_cell_angle_gamma 90.000000
_cell_volume 2154.763602
_symmetry_space_group_name_H-M "C 2/C"
_symmetry_group_IT_number 15
_symmetry_cell_setting 'monoclinic'
loop_
_space_group_symop_operation_xyz
x,y,z
-x,y,1/2-z
-x,-y,-z
x,-y,1/2+z
1/2+x,1/2+y,z
1/2-x,1/2+y,1/2-z
1/2-x,1/2-y,-z
1/2+x,1/2-y,1/2+z
loop_
_atom_site_type_symbol
_atom_site_label
_atom_site_fract_x
_atom_site_fract_y
_atom_site_fract_z
Si Si1 0.677776 0.937352 0.670329
Si Si2 0.036113 0.584310 0.903603
Si Si3 0.500000 0.203370 0.250000
Si Si4 0.069295 0.118030 0.883309
Si Si5 0.236804 0.030724 0.041118
Si Si6 0.000000 0.293968 0.250000
Si Si7 0.380030 0.582362 0.317952
Si Si8 0.369331 0.736196 0.953298
O O1 0.585423 0.876386 0.712961
O O2 0.789609 0.976505 0.740348
O O3 0.703366 0.834189 0.610852
O O4 0.599709 0.043851 0.618661
O O5 0.121648 0.469224 0.935945
O O6 0.067859 0.623962 0.823206
O O7 0.068008 0.692884 0.966559
O O8 0.416528 0.292224 0.185032
O O9 0.972175 0.184084 0.918563
O O10 0.001663 0.993613 0.846892
O O11 0.179580 0.090625 0.956604
O O12 0.201311 0.885271 0.034801
O O13 0.181046 0.083666 0.109581
O O14 0.085329 0.211394 0.213316
#
# Coordination Sequence:
#
# PCOD9290177 Si02
#       8
#     8   8   4   8   8   4   8   8
#     4  11  24  43  63  93 132 168 208 263 318 375
#     4  12  24  41  66  98 130 167 212 262 315 376
#     4  10  22  42  64  90 128 168 210 254 322 382
#     4  10  22  41  64  90 124 169 214 261 311 377
#     4  11  22  42  66  93 130 165 208 267 317 375
#     4  12  24  40  66  96 124 170 216 258 318 380
#     4  11  23  42  65  93 126 165 213 263 317 375
#     4  10  22  41  63  90 128 171 211 258 318 376
#
# _framework density 25.988928999999999
#
# number of rings (size 3 to 8) (size 9 to 14) (size 15 to 20)
#    0.000    1.143    0.000    7.714    0.000    4.571 
#    0.000   10.714    0.000    0.000    0.000    0.000 
#    0.000    0.000    0.000    0.000    0.000    0.000 
#
# Total GULP energy -157115.657825 kJ/mol
# GULP energy per Si atom -5611.273494 kJ/mol
# Density = 2.592978 g / cm^3
# Si number density = 25.988929 Si / 1000 Ang^3
#
#
#
# Elastic Constant Matrix: (Units=GPa)
#
#
# Indices 1 2 3 4 5 6 
#
# 1 71.9749 17.5159 36.2834 0.0000 3.8284 0.0000
# 2 17.5159 64.4343 41.2489 0.0000 -9.4493 0.0000
# 3 36.2834 41.2489 183.4290 0.0000 13.1520 0.0000
# 4 0.0000 0.0000 0.0000 52.8760 0.0000 -0.6498
# 5 3.8284 -9.4493 13.1520 0.0000 47.0638 0.0000
# 6 0.0000 0.0000 0.0000 -0.6498 0.0000 17.0710
#
#
#
# Elastic Compliance Matrix: (Units=1/GPa)
#
#
# Indices 1 2 3 4 5 6 
#
# 1 0.015884 -0.002969 -0.002387 0.000000 -0.001221 0.000000
# 2 -0.002969 0.019852 -0.004266 0.000000 0.005419 0.000000
# 3 -0.002387 -0.004266 0.007072 0.000000 -0.002639 0.000000
# 4 0.000000 0.000000 0.000000 0.018921 0.000000 0.000720
# 5 -0.001221 0.005419 -0.002639 0.000000 0.023173 0.000000
# 6 0.000000 0.000000 0.000000 0.000720 0.000000 0.058606
#
#
# Mechanical properties :
#
#
# Convention : Reuss Voigt Hill
#
# Bulk Modulus (GPa) = 42.43423 56.65940 49.54681
# Shear Modulus (GPa) = 29.30709 38.38816 33.84762
#
# Velocity S-wave (km/s) = 3.36173 3.84747 3.61277
# Velocity P-wave (km/s) = 5.60639 6.44873 6.04225
#
# Compressibility (1/GPa) = 0.02356588
#
# Stress axis : x y z
#
# Youngs Moduli (GPa) = 62.95448 50.37209 141.39812
#
# Poissons Ratio (x) = 0.14957 0.33749
# Poissons Ratio (y) = 0.18693 0.60314
# Poissons Ratio (z) = 0.15026 0.21486
#
# Static dielectric constant tensor:
#      x y z
#    x 2.034410 0.000000 -0.005770 
#    y 0.000000 2.038430 0.000000 
#    z -0.005770 0.000000 2.031710 
# 
# From -- ./inp_files/204562.got.cif
#   From: 2010.05.17/outbox.cif.g08.bks.cpg/sg15_103_cif.got.tgz:204562.got - 2010.06.03 18:47:42.
