data_PCOD9290750
_publ_section_title
;
Structure prediction by ZEFSAII (Michael W. Deem and Ramdas Pophale) SiO2 
 PCOD9290750
Probable space group: C 2/C
;
_chemical_formula_sum "Si O2"
_cell_formula_units_Z 36
_cell_length_a 13.707712
_cell_length_b 13.340679
_cell_length_c 9.384915
_cell_angle_alpha 90.000000
_cell_angle_beta 134.212500
_cell_angle_gamma 90.000000
_cell_volume 1230.116083
_symmetry_space_group_name_H-M "C 2/C"
_symmetry_group_IT_number 15
_symmetry_cell_setting 'monoclinic'
loop_
_space_group_symop_operation_xyz
x,y,z
-x,y,1/2-z
-x,-y,-z
x,-y,1/2+z
1/2+x,1/2+y,z
1/2-x,1/2+y,1/2-z
1/2-x,1/2-y,-z
1/2+x,1/2-y,1/2+z
loop_
_atom_site_type_symbol
_atom_site_label
_atom_site_fract_x
_atom_site_fract_y
_atom_site_fract_z
Si Si1 0.251050 0.312592 0.328306
Si Si2 0.364139 0.112128 0.335088
Si Si3 0.203439 0.925802 0.410190
Si Si4 0.500000 0.593127 0.250000
Si Si5 0.500000 0.108863 0.750000
Si Si6 0.500000 0.252506 0.250000
O O1 0.263662 0.195968 0.299884
O O2 0.238055 0.380182 0.174034
O O3 0.396478 0.346471 0.544385
O O4 0.122906 0.329978 0.300249
O O5 0.429101 0.059067 0.539182
O O6 0.466544 0.183046 0.349734
O O7 0.297564 0.046749 0.141324
O O8 0.123356 0.829315 0.390657
O O9 0.100841 0.015700 0.270861
#
# Coordination Sequence:
#
# PCOD9290750 Si02
#       6
#     8   8   8   4   4   4
#     4  11  24  43  68 102 141 183 228 282 345 412
#     4  11  21  40  66 100 139 183 229 283 339 406
#     4  10  22  41  69  97 132 184 235 277 335 416
#     4  11  25  46  72 102 135 179 232 289 343 404
#     4  12  25  38  62 102 141 178 226 290 345 396
#     4   9  18  36  64  96 130 177 234 283 332 402
#
# _framework density 29.265529999999998
#
# number of rings (size 3 to 8) (size 9 to 14) (size 15 to 20)
#    0.000    1.333    0.000    7.333    0.000    7.111 
#    0.000    5.556    0.000    0.000    0.000    0.000 
#    0.000    0.000    0.000    0.000    0.000    0.000 
#
# Total GULP energy -101022.733296 kJ/mol
# GULP energy per Si atom -5612.374072 kJ/mol
# Density = 2.919892 g / cm^3
# Si number density = 29.265530 Si / 1000 Ang^3
#
#
#
# Elastic Constant Matrix: (Units=GPa)
#
#
# Indices 1 2 3 4 5 6 
#
# 1 181.1744 56.7892 74.4580 0.0000 -14.0413 0.0000
# 2 56.7892 131.1342 62.4136 0.0000 4.5469 0.0000
# 3 74.4580 62.4136 250.0619 0.0000 -8.4360 0.0000
# 4 0.0000 0.0000 0.0000 53.1002 0.0000 -12.3999
# 5 -14.0413 4.5469 -8.4360 0.0000 54.9358 0.0000
# 6 0.0000 0.0000 0.0000 -12.3999 0.0000 59.0915
#
#
#
# Elastic Compliance Matrix: (Units=1/GPa)
#
#
# Indices 1 2 3 4 5 6 
#
# 1 0.006998 -0.002416 -0.001421 0.000000 0.001770 0.000000
# 2 -0.002416 0.009549 -0.001720 0.000000 -0.001672 0.000000
# 3 -0.001421 -0.001720 0.004869 0.000000 0.000527 0.000000
# 4 0.000000 0.000000 0.000000 0.019803 0.000000 0.004155
# 5 0.001770 -0.001672 0.000527 0.000000 0.018875 0.000000
# 6 0.000000 0.000000 0.000000 0.004155 0.000000 0.017795
#
#
# Mechanical properties :
#
#
# Convention : Reuss Voigt Hill
#
# Bulk Modulus (GPa) = 97.07016 105.52134 101.29575
# Shear Modulus (GPa) = 54.09125 58.00617 56.04871
#
# Velocity S-wave (km/s) = 4.30384 4.45687 4.38102
# Velocity P-wave (km/s) = 7.61171 7.91326 7.76395
#
# Compressibility (1/GPa) = 0.01030183
#
# Stress axis : x y z
#
# Youngs Moduli (GPa) = 142.89948 104.72652 205.36736
#
# Poissons Ratio (x) = 0.25297 0.29184
# Poissons Ratio (y) = 0.34518 0.35332
# Poissons Ratio (z) = 0.20307 0.18017
#
# Static dielectric constant tensor:
#      x y z
#    x 2.261970 0.000000 0.081660 
#    y 0.000000 2.224660 0.000000 
#    z 0.081660 0.000000 2.317900 
# 
# From -- ./inp_files/38909.got.cif
#   From: 2010.05.17/outbox.cif.g08.bks.cpg/sg15_20_cif.got.tgz:38909.got - 2010.06.03 18:47:42.
