data_PCOD9290060
_publ_section_title
;
Structure prediction by ZEFSAII (Michael W. Deem and Ramdas Pophale) SiO2 
 PCOD9290060
Probable space group: C 2/C
;
_chemical_formula_sum "Si O2"
_cell_formula_units_Z 40
_cell_length_a 8.492296
_cell_length_b 11.063724
_cell_length_c 18.133156
_cell_angle_alpha 90.000000
_cell_angle_beta 81.722088
_cell_angle_gamma 90.000000
_cell_volume 1685.975902
_symmetry_space_group_name_H-M "C 2/C"
_symmetry_group_IT_number 15
_symmetry_cell_setting 'monoclinic'
loop_
_space_group_symop_operation_xyz
x,y,z
-x,y,1/2-z
-x,-y,-z
x,-y,1/2+z
1/2+x,1/2+y,z
1/2-x,1/2+y,1/2-z
1/2-x,1/2-y,-z
1/2+x,1/2-y,1/2+z
loop_
_atom_site_type_symbol
_atom_site_label
_atom_site_fract_x
_atom_site_fract_y
_atom_site_fract_z
Si Si1 0.606028 0.270467 0.417334
Si Si2 0.570915 0.858331 0.164944
Si Si3 0.543347 0.400629 0.832876
Si Si4 0.351468 0.094611 0.402702
Si Si5 0.692930 0.452382 0.534079
O O1 0.742416 0.318762 0.352283
O O2 0.445314 0.219166 0.393728
O O3 0.594535 0.374411 0.479648
O O4 0.677247 0.148356 0.450413
O O5 0.500000 0.880572 0.250000
O O6 0.487058 0.738141 0.141524
O O7 0.540956 0.975749 0.118217
O O8 0.500000 0.411884 0.750000
O O9 0.723100 0.420160 0.845716
O O10 0.418338 0.477520 0.888782
O O11 0.267671 0.065291 0.486193
#
# Coordination Sequence:
#
# PCOD9290060 Si02
#       5
#     8   8   8   8   8
#     4   9  19  37  63  90 119 157 205 254 299 361
#     4   9  21  40  56  84 125 156 195 253 304 355
#     4  10  22  41  59  87 131 162 195 256 310 358
#     4  11  21  38  67  91 114 165 214 244 302 369
#     4   9  19  38  60  90 126 156 202 258 301 355
#
# _framework density 23.725128999999999
#
# number of rings (size 3 to 8) (size 9 to 14) (size 15 to 20)
#    0.000    2.400    0.000    2.400    0.000    5.600 
#    0.000   18.000    0.000    0.000    0.000    0.000 
#    0.000    0.000    0.000    0.000    0.000    0.000 
#
# Total GULP energy -111745.986362 kJ/mol
# GULP energy per Si atom -5587.299318 kJ/mol
# Density = 2.367113 g / cm^3
# Si number density = 23.725129 Si / 1000 Ang^3
#
#
#
# Elastic Constant Matrix: (Units=GPa)
#
#
# Indices 1 2 3 4 5 6 
#
# 1 55.0961 41.1433 41.3823 0.0000 2.9226 0.0000
# 2 41.1433 97.4414 30.3344 0.0000 -8.2812 0.0000
# 3 41.3823 30.3344 122.4773 0.0000 -22.0550 0.0000
# 4 0.0000 0.0000 0.0000 21.4632 0.0000 0.9072
# 5 2.9226 -8.2812 -22.0550 0.0000 34.9390 0.0000
# 6 0.0000 0.0000 0.0000 0.9072 0.0000 27.8354
#
#
#
# Elastic Compliance Matrix: (Units=1/GPa)
#
#
# Indices 1 2 3 4 5 6 
#
# 1 0.037974 -0.013483 -0.012003 0.000000 -0.013949 0.000000
# 2 -0.013483 0.015939 0.001682 0.000000 0.005968 0.000000
# 3 -0.012003 0.001682 0.013602 0.000000 0.009989 0.000000
# 4 0.000000 0.000000 0.000000 0.046656 0.000000 -0.001521
# 5 -0.013949 0.005968 0.009989 0.000000 0.037508 0.000000
# 6 0.000000 0.000000 0.000000 -0.001521 0.000000 0.035975
#
#
# Mechanical properties :
#
#
# Convention : Reuss Voigt Hill
#
# Bulk Modulus (GPa) = 50.22962 55.63721 52.93341
# Shear Modulus (GPa) = 20.67002 27.65785 24.16394
#
# Velocity S-wave (km/s) = 2.95486 3.41803 3.19485
# Velocity P-wave (km/s) = 5.73228 6.25131 5.99741
#
# Compressibility (1/GPa) = 0.01990857
#
# Stress axis : x y z
#
# Youngs Moduli (GPa) = 26.33405 62.73981 73.51636
#
# Poissons Ratio (x) = 0.84590 0.88242
# Poissons Ratio (y) = 0.35505 -0.12369
# Poissons Ratio (z) = 0.31609 -0.10556
#
# Static dielectric constant tensor:
#      x y z
#    x 2.001800 0.000000 -0.016470 
#    y 0.000000 1.895420 0.000000 
#    z -0.016470 0.000000 1.895680 
# 
# From -- ./inp_files/187807.got.cif
#   From: 2010.05.17/outbox.cif.g08.bks.cpg/sg15_94_cif.got.tgz:187807.got - 2010.06.03 18:47:42.
