data_PCOD9290146
_publ_section_title
;
Structure prediction by ZEFSAII (Michael W. Deem and Ramdas Pophale) SiO2 
 PCOD9290146
Probable space group: C 2/C
;
_chemical_formula_sum "Si O2"
_cell_formula_units_Z 60
_cell_length_a 25.885547
_cell_length_b 12.708805
_cell_length_c 9.283022
_cell_angle_alpha 90.000000
_cell_angle_beta 115.121358
_cell_angle_gamma 90.000000
_cell_volume 2765.012004
_symmetry_space_group_name_H-M "C 2/C"
_symmetry_group_IT_number 15
_symmetry_cell_setting 'monoclinic'
loop_
_space_group_symop_operation_xyz
x,y,z
-x,y,1/2-z
-x,-y,-z
x,-y,1/2+z
1/2+x,1/2+y,z
1/2-x,1/2+y,1/2-z
1/2-x,1/2-y,-z
1/2+x,1/2-y,1/2+z
loop_
_atom_site_type_symbol
_atom_site_label
_atom_site_fract_x
_atom_site_fract_y
_atom_site_fract_z
Si Si1 0.075288 0.078128 0.651091
Si Si2 0.438366 0.379323 0.690181
Si Si3 0.370658 0.733324 0.336574
Si Si4 0.317491 0.354934 0.048837
Si Si5 0.995955 0.280253 0.588238
Si Si6 0.865430 0.463042 0.403272
Si Si7 0.000000 0.500000 0.500000
Si Si8 0.811319 0.388448 0.625563
O O1 0.081025 0.077245 0.486479
O O2 0.134651 0.084018 0.806539
O O3 0.038401 0.182069 0.640717
O O4 0.047225 0.973651 0.682059
O O5 0.500000 0.321734 0.750000
O O6 0.388144 0.312432 0.703372
O O7 0.332909 0.662652 0.398494
O O8 0.432343 0.739725 0.488577
O O9 0.347575 0.852297 0.306369
O O10 0.318397 0.237146 0.118555
O O11 0.255313 0.405488 0.985776
O O12 0.011484 0.371992 0.497335
O O13 0.000000 0.335124 0.750000
O O14 0.850942 0.443077 0.552403
O O15 0.831134 0.560568 0.297655
O O16 0.932501 0.475963 0.456028
#
# Coordination Sequence:
#
# PCOD9290146 Si02
#       8
#     8   8   8   8   8   8   4   8
#     4  12  24  39  67  92 134 178 225 275 344 400
#     4  12  25  40  59  96 133 175 214 273 337 403
#     4  10  22  41  62  95 133 173 223 275 334 410
#     4  10  22  43  69  91 122 178 230 279 332 402
#     4  11  21  39  63  95 139 179 217 280 339 411
#     4  10  23  40  64  95 133 169 212 278 333 407
#     4  10  24  36  64 100 130 170 216 256 346 420
#     4  10  23  44  66  93 130 172 225 279 338 391
#
# _framework density 21.699725000000001
#
# number of rings (size 3 to 8) (size 9 to 14) (size 15 to 20)
#    0.000    1.333    2.667    2.400    3.733    4.267 
#    2.400    0.000    0.000    5.600    0.000    0.000 
#    0.000    0.000    0.000    0.000    0.000    0.000 
#
# Total GULP energy -167172.299999 kJ/mol
# GULP energy per Si atom -5572.410000 kJ/mol
# Density = 2.165034 g / cm^3
# Si number density = 21.699725 Si / 1000 Ang^3
#
#
#
# Elastic Constant Matrix: (Units=GPa)
#
#
# Indices 1 2 3 4 5 6 
#
# 1 72.9632 3.8944 10.8684 0.0000 6.9662 0.0000
# 2 3.8944 45.0773 -1.2240 0.0000 -6.8387 0.0000
# 3 10.8684 -1.2240 51.0734 0.0000 -8.5932 0.0000
# 4 0.0000 0.0000 0.0000 9.4850 0.0000 9.4823
# 5 6.9662 -6.8387 -8.5932 0.0000 31.5158 0.0000
# 6 0.0000 0.0000 0.0000 9.4823 0.0000 17.7447
#
#
#
# Elastic Compliance Matrix: (Units=1/GPa)
#
#
# Indices 1 2 3 4 5 6 
#
# 1 0.014884 -0.002132 -0.004035 0.000000 -0.004852 0.000000
# 2 -0.002132 0.023348 0.002038 0.000000 0.006093 0.000000
# 3 -0.004035 0.002038 0.021707 0.000000 0.007253 0.000000
# 4 0.000000 0.000000 0.000000 0.226355 0.000000 -0.120958
# 5 -0.004852 0.006093 0.007253 0.000000 0.036103 0.000000
# 6 0.000000 0.000000 0.000000 -0.120958 0.000000 0.120992
#
#
# Mechanical properties :
#
#
# Convention : Reuss Voigt Hill
#
# Bulk Modulus (GPa) = 19.34868 21.79904 20.57386
# Shear Modulus (GPa) = 10.66389 22.12077 16.39233
#
# Velocity S-wave (km/s) = 2.21923 3.19627 2.75147
# Velocity P-wave (km/s) = 3.93733 4.86715 4.42672
#
# Compressibility (1/GPa) = 0.05168311
#
# Stress axis : x y z
#
# Youngs Moduli (GPa) = 67.18797 42.83017 46.06719
#
# Poissons Ratio (x) = 0.09130 0.18587
# Poissons Ratio (y) = 0.14322 -0.09390
# Poissons Ratio (z) = 0.27109 -0.08730
#
# Static dielectric constant tensor:
#      x y z
#    x 1.809070 0.000000 -0.064460 
#    y 0.000000 1.821750 0.000000 
#    z -0.064460 0.000000 1.825260 
# 
# From -- ./inp_files/61967.got.cif
#   From: 2010.05.17/outbox.cif.g08.bks.cpg/sg15_31_cif.got.tgz:61967.got - 2010.06.03 18:47:42.
