data_PCOD9290622
_publ_section_title
;
Structure prediction by ZEFSAII (Michael W. Deem and Ramdas Pophale) SiO2 
 PCOD9290622
Probable space group: C 2/C
;
_chemical_formula_sum "Si O2"
_cell_formula_units_Z 44
_cell_length_a 12.986969
_cell_length_b 13.257194
_cell_length_c 12.907560
_cell_angle_alpha 90.000000
_cell_angle_beta 75.623813
_cell_angle_gamma 90.000000
_cell_volume 2152.716239
_symmetry_space_group_name_H-M "C 2/C"
_symmetry_group_IT_number 15
_symmetry_cell_setting 'monoclinic'
loop_
_space_group_symop_operation_xyz
x,y,z
-x,y,1/2-z
-x,-y,-z
x,-y,1/2+z
1/2+x,1/2+y,z
1/2-x,1/2+y,1/2-z
1/2-x,1/2-y,-z
1/2+x,1/2-y,1/2+z
loop_
_atom_site_type_symbol
_atom_site_label
_atom_site_fract_x
_atom_site_fract_y
_atom_site_fract_z
Si Si1 0.794154 0.897590 0.790697
Si Si2 0.482700 0.615917 0.977707
Si Si3 0.000000 0.951529 0.250000
Si Si4 0.367430 0.242018 0.924608
Si Si5 0.119095 0.473332 0.004585
Si Si6 0.756457 0.345399 0.920187
O O1 0.857957 0.801303 0.819983
O O2 0.704412 0.940891 0.893248
O O3 0.728383 0.854877 0.708030
O O4 0.891148 0.981283 0.760934
O O5 0.488167 0.619157 0.852915
O O6 0.500000 0.500000 0.000000
O O7 0.557772 0.693997 0.017498
O O8 0.366158 0.628275 0.047659
O O9 0.250000 0.250000 0.000000
O O10 0.392572 0.124254 0.918100
O O11 0.170000 0.569781 0.047347
O O12 0.000000 0.500000 0.000000
O O13 0.750000 0.250000 0.000000
#
# Coordination Sequence:
#
# PCOD9290622 Si02
#       6
#     8   8   4   8   8   8
#     4  11  23  42  70 103 134 183 234 288 359 417
#     4  12  21  40  67 100 132 176 236 292 334 418
#     4  12  22  38  76 100 132 176 234 294 352 400
#     4  10  22  41  67  99 138 182 230 288 355 418
#     4  11  25  47  68  98 144 188 231 292 358 440
#     4  12  26  43  69 103 141 181 242 297 352 428
#
# _framework density 20.439294
#
# number of rings (size 3 to 8) (size 9 to 14) (size 15 to 20)
#    0.000    0.727    5.455    2.182    0.000    5.091 
#    0.000    1.818    0.000    0.000    0.000    0.000 
#    0.000    0.000    0.000    0.000    0.000    0.000 
#
# Total GULP energy -122506.101625 kJ/mol
# GULP energy per Si atom -5568.459165 kJ/mol
# Density = 2.039277 g / cm^3
# Si number density = 20.439294 Si / 1000 Ang^3
#
#
#
# Elastic Constant Matrix: (Units=GPa)
#
#
# Indices 1 2 3 4 5 6 
#
# 1 116.7968 36.2321 -1.1342 0.0000 9.6485 0.0000
# 2 36.2321 119.7673 12.8990 0.0000 30.4044 0.0000
# 3 -1.1342 12.8990 88.7935 0.0000 33.1708 0.0000
# 4 0.0000 0.0000 0.0000 20.2246 0.0000 14.6259
# 5 9.6485 30.4044 33.1708 0.0000 41.5588 0.0000
# 6 0.0000 0.0000 0.0000 14.6259 0.0000 35.9787
#
#
#
# Elastic Compliance Matrix: (Units=1/GPa)
#
#
# Indices 1 2 3 4 5 6 
#
# 1 0.009493 -0.002741 0.000846 0.000000 -0.000874 0.000000
# 2 -0.002741 0.011268 0.001667 0.000000 -0.008938 0.000000
# 3 0.000846 0.001667 0.016471 0.000000 -0.014562 0.000000
# 4 0.000000 0.000000 0.000000 0.070033 0.000000 -0.028469
# 5 -0.000874 -0.008938 -0.014562 0.000000 0.042427 0.000000
# 6 0.000000 0.000000 0.000000 -0.028469 0.000000 0.039367
#
#
# Mechanical properties :
#
#
# Convention : Reuss Voigt Hill
#
# Bulk Modulus (GPa) = 27.19220 46.81684 37.00452
# Shear Modulus (GPa) = 24.78017 38.04314 31.41166
#
# Velocity S-wave (km/s) = 3.48570 4.31893 3.92449
# Velocity P-wave (km/s) = 5.43442 6.91563 6.21928
#
# Compressibility (1/GPa) = 0.03677526
#
# Stress axis : x y z
#
# Youngs Moduli (GPa) = 105.34563 88.74505 60.71344
#
# Poissons Ratio (x) = 0.24325 -0.05135
# Poissons Ratio (y) = 0.28875 -0.10121
# Poissons Ratio (z) = -0.08910 -0.14794
#
# Static dielectric constant tensor:
#      x y z
#    x 1.698510 0.000000 0.024730 
#    y 0.000000 1.735450 0.000000 
#    z 0.024730 0.000000 1.839300 
# 
# From -- ./inp_files/142218.got.cif
#   From: 2010.05.17/outbox.cif.g08.bks.cpg/sg15_72_cif.got.tgz:142218.got - 2010.06.03 18:47:42.
