data_PCOD9290105
_publ_section_title
;
Structure prediction by ZEFSAII (Michael W. Deem and Ramdas Pophale) SiO2 
 PCOD9290105
Probable space group: C 2/C
;
_chemical_formula_sum "Si O2"
_cell_formula_units_Z 44
_cell_length_a 21.759124
_cell_length_b 12.089202
_cell_length_c 7.189200
_cell_angle_alpha 90.000000
_cell_angle_beta 60.414497
_cell_angle_gamma 90.000000
_cell_volume 1644.557513
_symmetry_space_group_name_H-M "C 2/C"
_symmetry_group_IT_number 15
_symmetry_cell_setting 'monoclinic'
loop_
_space_group_symop_operation_xyz
x,y,z
-x,y,1/2-z
-x,-y,-z
x,-y,1/2+z
1/2+x,1/2+y,z
1/2-x,1/2+y,1/2-z
1/2-x,1/2-y,-z
1/2+x,1/2-y,1/2+z
loop_
_atom_site_type_symbol
_atom_site_label
_atom_site_fract_x
_atom_site_fract_y
_atom_site_fract_z
Si Si1 0.000000 0.923529 0.250000
Si Si2 0.893845 0.345637 0.422225
Si Si3 0.417863 0.629908 0.225089
Si Si4 0.259235 0.600355 0.455594
Si Si5 0.571978 0.915289 0.545894
Si Si6 0.775817 0.356745 0.067272
O O1 0.060794 0.009310 0.228694
O O2 0.968345 0.856706 0.470658
O O3 0.919010 0.218870 0.393989
O O4 0.809306 0.362595 0.558975
O O5 0.926507 0.450624 0.476874
O O6 0.915388 0.368847 0.176499
O O7 0.336859 0.634928 0.276918
O O8 0.257178 0.468042 0.466939
O O9 0.246281 0.643018 0.683438
O O10 0.500000 0.883219 0.750000
O O11 0.639783 0.874815 0.561499
O O12 0.750000 0.250000 0.000000
#
# Coordination Sequence:
#
# PCOD9290105 Si02
#       6
#     4   8   8   8   8   8
#     4  10  26  44  62  96 130 176 232 274 328 410
#     4  10  23  40  67  95 134 170 218 273 348 389
#     4  11  23  44  65  92 130 177 223 276 339 394
#     4  10  22  42  67  98 131 172 231 283 324 412
#     4  10  22  41  61  98 133 169 219 273 324 414
#     4  10  23  42  67 101 137 179 223 278 344 395
#
# _framework density 26.754916000000001
#
# number of rings (size 3 to 8) (size 9 to 14) (size 15 to 20)
#    0.000    1.818    0.000    2.182    2.545   11.636 
#    6.545    0.000    0.000    0.000    0.000    0.000 
#    0.000    0.000    0.000    0.000    0.000    0.000 
#
# Total GULP energy -123416.299473 kJ/mol
# GULP energy per Si atom -5609.831794 kJ/mol
# Density = 2.669402 g / cm^3
# Si number density = 26.754916 Si / 1000 Ang^3
#
#
#
# Elastic Constant Matrix: (Units=GPa)
#
#
# Indices 1 2 3 4 5 6 
#
# 1 97.5220 18.9178 43.7224 0.0000 -33.6508 0.0000
# 2 18.9178 148.5675 31.3168 0.0000 -17.9686 0.0000
# 3 43.7224 31.3168 119.4315 0.0000 -32.5209 0.0000
# 4 0.0000 0.0000 0.0000 40.3566 0.0000 8.6802
# 5 -33.6508 -17.9686 -32.5209 0.0000 46.5430 0.0000
# 6 0.0000 0.0000 0.0000 8.6802 0.0000 13.4569
#
#
#
# Elastic Compliance Matrix: (Units=1/GPa)
#
#
# Indices 1 2 3 4 5 6 
#
# 1 0.014505 -0.000211 -0.002990 0.000000 0.008317 0.000000
# 2 -0.000211 0.007250 -0.001362 0.000000 0.001695 0.000000
# 3 -0.002990 -0.001362 0.011230 0.000000 0.005158 0.000000
# 4 0.000000 0.000000 0.000000 0.028771 0.000000 -0.018558
# 5 0.008317 0.001695 0.005158 0.000000 0.031757 0.000000
# 6 0.000000 0.000000 0.000000 -0.018558 0.000000 0.086282
#
#
# Mechanical properties :
#
#
# Convention : Reuss Voigt Hill
#
# Bulk Modulus (GPa) = 41.91531 61.49277 51.70404
# Shear Modulus (GPa) = 25.39686 38.17557 31.78621
#
# Velocity S-wave (km/s) = 3.08432 3.78148 3.45055
# Velocity P-wave (km/s) = 5.32770 6.48843 5.93650
#
# Compressibility (1/GPa) = 0.02385763
#
# Stress axis : x y z
#
# Youngs Moduli (GPa) = 68.93991 137.93236 89.05031
#
# Poissons Ratio (x) = 0.02908 0.26629
# Poissons Ratio (y) = 0.01454 0.12133
# Poissons Ratio (z) = 0.20616 0.18792
#
# Static dielectric constant tensor:
#      x y z
#    x 2.107130 0.000000 0.029690 
#    y 0.000000 2.111880 0.000000 
#    z 0.029690 0.000000 2.042160 
# 
# From -- ./inp_files/65320.got.cif
#   From: 2010.05.17/outbox.cif.g08.bks.cpg/sg15_33_cif.got.tgz:65320.got - 2010.06.03 18:47:42.
