data_PCOD9290481
_publ_section_title
;
Structure prediction by ZEFSAII (Michael W. Deem and Ramdas Pophale) SiO2 
 PCOD9290481
Probable space group: C 2/C
;
_chemical_formula_sum "Si O2"
_cell_formula_units_Z 48
_cell_length_a 23.181480
_cell_length_b 9.311662
_cell_length_c 10.571070
_cell_angle_alpha 90.000000
_cell_angle_beta 75.950634
_cell_angle_gamma 90.000000
_cell_volume 2213.593972
_symmetry_space_group_name_H-M "C 2/C"
_symmetry_group_IT_number 15
_symmetry_cell_setting 'monoclinic'
loop_
_space_group_symop_operation_xyz
x,y,z
-x,y,1/2-z
-x,-y,-z
x,-y,1/2+z
1/2+x,1/2+y,z
1/2-x,1/2+y,1/2-z
1/2-x,1/2-y,-z
1/2+x,1/2-y,1/2+z
loop_
_atom_site_type_symbol
_atom_site_label
_atom_site_fract_x
_atom_site_fract_y
_atom_site_fract_z
Si Si1 0.554504 0.021389 0.121736
Si Si2 0.657194 0.119865 0.731130
Si Si3 0.343160 0.443510 0.792549
Si Si4 0.567463 0.683048 0.691660
Si Si5 0.616987 0.861566 0.904095
Si Si6 0.293446 0.612927 0.577801
O O1 0.500000 0.007804 0.250000
O O2 0.614760 0.959667 0.153816
O O3 0.564545 0.190327 0.088628
O O4 0.555778 0.914750 0.002519
O O5 0.635654 0.283448 0.752974
O O6 0.725810 0.133843 0.655825
O O7 0.650420 0.009848 0.851285
O O8 0.393260 0.541490 0.832828
O O9 0.320403 0.511205 0.673473
O O10 0.295096 0.440369 0.932096
O O11 0.500000 0.639216 0.750000
O O12 0.594864 0.772524 0.794356
O O13 0.663758 0.753018 0.943380
#
# Coordination Sequence:
#
# PCOD9290481 Si02
#       6
#     8   8   8   8   8   8
#     4  10  22  41  66  94 127 171 224 270 329 388
#     4  11  23  39  70  93 131 178 216 272 332 390
#     4  11  24  43  66 101 134 176 219 275 335 396
#     4   9  22  42  62  92 134 169 218 277 328 388
#     4  10  22  43  65  97 133 174 224 275 322 402
#     4  11  24  44  65 102 139 172 220 277 332 402
#
# _framework density 21.684194000000002
#
# number of rings (size 3 to 8) (size 9 to 14) (size 15 to 20)
#    0.000    1.667    1.667    1.500    4.667    6.667 
#    0.000    5.000    0.000    0.000    0.000    0.000 
#    0.000    0.000    0.000    0.000    0.000    0.000 
#
# Total GULP energy -133747.780964 kJ/mol
# GULP energy per Si atom -5572.824207 kJ/mol
# Density = 2.163484 g / cm^3
# Si number density = 21.684194 Si / 1000 Ang^3
#
#
#
# Elastic Constant Matrix: (Units=GPa)
#
#
# Indices 1 2 3 4 5 6 
#
# 1 77.2403 29.0736 -2.6889 0.0000 -19.8088 0.0000
# 2 29.0736 131.3328 29.9316 0.0000 -16.0617 0.0000
# 3 -2.6889 29.9316 75.7803 0.0000 -8.5766 0.0000
# 4 0.0000 0.0000 0.0000 25.2467 0.0000 0.7672
# 5 -19.8088 -16.0617 -8.5766 0.0000 34.5020 0.0000
# 6 0.0000 0.0000 0.0000 0.7672 0.0000 22.8163
#
#
#
# Elastic Compliance Matrix: (Units=1/GPa)
#
#
# Indices 1 2 3 4 5 6 
#
# 1 0.016487 -0.003238 0.002845 0.000000 0.008665 0.000000
# 2 -0.003238 0.009353 -0.003629 0.000000 0.001593 0.000000
# 3 0.002845 -0.003629 0.015150 0.000000 0.003710 0.000000
# 4 0.000000 0.000000 0.000000 0.039650 0.000000 -0.001333
# 5 0.008665 0.001593 0.003710 0.000000 0.035623 0.000000
# 6 0.000000 0.000000 0.000000 -0.001333 0.000000 0.043873
#
#
# Mechanical properties :
#
#
# Convention : Reuss Voigt Hill
#
# Bulk Modulus (GPa) = 30.35349 44.10955 37.23152
# Shear Modulus (GPa) = 27.90772 31.71548 29.81160
#
# Velocity S-wave (km/s) = 3.59138 3.82856 3.71186
# Velocity P-wave (km/s) = 5.58800 6.31900 5.96471
#
# Compressibility (1/GPa) = 0.03294514
#
# Stress axis : x y z
#
# Youngs Moduli (GPa) = 60.65448 106.91807 66.00572
#
# Poissons Ratio (x) = 0.34624 -0.18777
# Poissons Ratio (y) = 0.19642 0.23953
# Poissons Ratio (z) = -0.17255 0.38799
#
# Static dielectric constant tensor:
#      x y z
#    x 1.826820 0.000000 0.106140 
#    y 0.000000 1.820130 0.000000 
#    z 0.106140 0.000000 1.991840 
# 
# From -- ./inp_files/116714.got.cif
#   From: 2010.05.17/outbox.cif.g08.bks.cpg/sg15_59_cif.got.tgz:116714.got - 2010.06.03 18:47:42.
