data_PCOD9290846
_publ_section_title
;
Structure prediction by ZEFSAII (Michael W. Deem and Ramdas Pophale) SiO2 
 PCOD9290846
Probable space group: C 2/C
;
_chemical_formula_sum "Si O2"
_cell_formula_units_Z 48
_cell_length_a 20.228557
_cell_length_b 13.691424
_cell_length_c 19.093993
_cell_angle_alpha 90.000000
_cell_angle_beta 22.394842
_cell_angle_gamma 90.000000
_cell_volume 2014.747396
_symmetry_space_group_name_H-M "C 2/C"
_symmetry_group_IT_number 15
_symmetry_cell_setting 'monoclinic'
loop_
_space_group_symop_operation_xyz
x,y,z
-x,y,1/2-z
-x,-y,-z
x,-y,1/2+z
1/2+x,1/2+y,z
1/2-x,1/2+y,1/2-z
1/2-x,1/2-y,-z
1/2+x,1/2-y,1/2+z
loop_
_atom_site_type_symbol
_atom_site_label
_atom_site_fract_x
_atom_site_fract_y
_atom_site_fract_z
Si Si1 0.873625 0.864803 0.187678
Si Si2 0.754766 0.819193 0.893795
Si Si3 0.690515 0.552314 0.469740
Si Si4 0.497791 0.173937 0.386612
Si Si5 0.588411 0.372717 0.504759
Si Si6 0.500000 0.316196 0.250000
Si Si7 0.000000 0.683431 0.750000
O O1 0.691328 0.862632 0.406845
O O2 0.933907 0.751098 0.122704
O O3 0.858744 0.906066 0.124255
O O4 0.025903 0.916197 0.082565
O O5 0.649703 0.738399 0.953667
O O6 0.882302 0.879084 0.719554
O O7 0.881988 0.757017 0.819783
O O8 0.620003 0.873241 0.077069
O O9 0.864215 0.590572 0.264089
O O10 0.679275 0.436302 0.476665
O O11 0.655388 0.608998 0.577075
O O12 0.503575 0.243220 0.312025
#
# Coordination Sequence:
#
# PCOD9290846 Si02
#       7
#     8   8   8   8   8   4   4
#     4  11  22  41  65  92 133 174 215 263 341 407
#     4   9  19  36  64  80 124 168 214 268 324 391
#     4  11  25  40  65  98 132 171 218 288 321 396
#     4  11  22  41  69  97 130 182 213 278 343 398
#     4  11  23  42  60  98 126 176 222 267 336 393
#     4  10  22  41  71  98 132 168 224 266 347 399
#     4   8  16  35  57  84 104 160 212 256 307 375
#
# _framework density 23.824328000000001
#
# number of rings (size 3 to 8) (size 9 to 14) (size 15 to 20)
#    0.000    1.667    3.333    2.000    2.333    4.667 
#    6.000    0.833    0.000    0.000    0.000    0.000 
#    0.000    0.000    0.000    0.000    0.000    0.000 
#
# Total GULP energy -134037.118261 kJ/mol
# GULP energy per Si atom -5584.879928 kJ/mol
# Density = 2.377010 g / cm^3
# Si number density = 23.824328 Si / 1000 Ang^3
#
#
#
# Elastic Constant Matrix: (Units=GPa)
#
#
# Indices 1 2 3 4 5 6 
#
# 1 76.2335 6.0944 56.3223 -0.0001 20.6288 0.0006
# 2 6.0944 65.2048 36.3077 0.0006 10.9916 -0.0004
# 3 56.3223 36.3077 178.3275 0.0038 6.7093 -0.0026
# 4 -0.0001 0.0006 0.0038 16.4501 -0.0016 -5.6763
# 5 20.6288 10.9916 6.7093 -0.0016 27.2748 0.0003
# 6 0.0006 -0.0004 -0.0026 -5.6763 0.0003 19.7580
#
#
#
# Elastic Compliance Matrix: (Units=1/GPa)
#
#
# Indices 1 2 3 4 5 6 
#
# 1 0.023184 0.005101 -0.007695 -0.000001 -0.017698 -0.000002
# 2 0.005101 0.019510 -0.005191 -0.000001 -0.010444 -0.000001
# 3 -0.007695 -0.005191 0.008879 -0.000001 0.005728 0.000001
# 4 -0.000001 -0.000001 -0.000001 0.067479 0.000005 0.019386
# 5 -0.017698 -0.010444 0.005728 0.000005 0.052849 0.000002
# 6 -0.000002 -0.000001 0.000001 0.019386 0.000002 0.056182
#
#
# Mechanical properties :
#
#
# Convention : Reuss Voigt Hill
#
# Bulk Modulus (GPa) = 27.77406 57.46829 42.62117
# Shear Modulus (GPa) = 19.55762 27.43265 23.49513
#
# Velocity S-wave (km/s) = 2.86826 3.39699 3.14376
# Velocity P-wave (km/s) = 4.75945 6.28968 5.57730
#
# Compressibility (1/GPa) = 0.03600482
#
# Stress axis : x y z
#
# Youngs Moduli (GPa) = 43.13311 51.25503 112.62059
#
# Poissons Ratio (x) = -0.26146 0.86663
# Poissons Ratio (y) = -0.22003 0.58456
# Poissons Ratio (z) = 0.33192 0.26604
#
# Static dielectric constant tensor:
#      x y z
#    x 1.941430 0.000000 0.017510 
#    y 0.000000 1.942830 0.000000 
#    z 0.017510 0.000000 1.928080 
# 
# From -- ./inp_files/55458.got.cif
#   From: 2010.05.17/outbox.cif.g08.bks.cpg/sg15_28_cif.got.tgz:55458.got - 2010.06.03 18:47:42.
