data_PCOD9290893
_publ_section_title
;
Structure prediction by ZEFSAII (Michael W. Deem and Ramdas Pophale) SiO2 
 PCOD9290893
Probable space group: C 2/C
;
_chemical_formula_sum "Si O2"
_cell_formula_units_Z 64
_cell_length_a 5.672617
_cell_length_b 17.252643
_cell_length_c 26.278225
_cell_angle_alpha 90.000000
_cell_angle_beta 92.014920
_cell_angle_gamma 90.000000
_cell_volume 2570.197635
_symmetry_space_group_name_H-M "C 2/C"
_symmetry_group_IT_number 15
_symmetry_cell_setting 'monoclinic'
loop_
_space_group_symop_operation_xyz
x,y,z
-x,y,1/2-z
-x,-y,-z
x,-y,1/2+z
1/2+x,1/2+y,z
1/2-x,1/2+y,1/2-z
1/2-x,1/2-y,-z
1/2+x,1/2-y,1/2+z
loop_
_atom_site_type_symbol
_atom_site_label
_atom_site_fract_x
_atom_site_fract_y
_atom_site_fract_z
Si Si1 0.287768 0.050127 0.644951
Si Si2 0.743800 0.387033 0.678175
Si Si3 0.613552 0.630169 0.418936
Si Si4 0.012423 0.463032 0.945440
Si Si5 0.217580 0.869740 0.378462
Si Si6 0.424891 0.777079 0.865800
Si Si7 0.719065 0.341267 0.497162
Si Si8 0.757328 0.255365 0.240866
O O1 0.538226 0.099054 0.645435
O O2 0.033814 0.092966 0.641500
O O3 0.269172 0.979604 0.686003
O O4 0.313654 0.006755 0.590591
O O5 0.550496 0.373688 0.632471
O O6 0.727007 0.325693 0.725611
O O7 0.982664 0.360089 0.652341
O O8 0.760063 0.710188 0.412372
O O9 0.517507 0.634095 0.475494
O O10 0.761196 0.550598 0.418413
O O11 0.100294 0.378029 0.961348
O O12 0.000000 0.500000 0.000000
O O13 0.243090 0.873207 0.440260
O O14 0.150451 0.778733 0.369935
O O15 0.256430 0.753669 0.819039
O O16 0.750000 0.250000 0.500000
O O17 0.500000 0.290434 0.250000
O O18 0.000000 0.300106 0.250000
#
# Coordination Sequence:
#
# PCOD9290893 Si02
#       8
#     8   8   8   8   8   8   8   8
#     4  12  26  45  69 106 146 197 245 298 372 441
#     4  11  23  43  76 109 140 187 251 314 374 454
#     4  12  22  40  72 100 144 190 262 303 365 431
#     4  12  24  40  63  95 144 200 245 296 358 432
#     4  12  29  45  69 103 156 201 244 302 372 434
#     4  11  25  45  73 106 143 193 247 314 374 449
#     4  12  27  41  63 103 149 198 255 309 355 426
#     4  10  22  41  75 113 137 171 237 309 376 441
#
# _framework density 24.900811000000001
#
# number of rings (size 3 to 8) (size 9 to 14) (size 15 to 20)
#    0.000    0.500    5.000    3.000    3.500    2.000 
#    0.000    0.000    0.000   18.000    0.000    0.000 
#    0.000    0.000    0.000    0.000    0.000    0.000 
#
# Total GULP energy -178413.266756 kJ/mol
# GULP energy per Si atom -5575.414586 kJ/mol
# Density = 2.484414 g / cm^3
# Si number density = 24.900811 Si / 1000 Ang^3
#
#
#
# Elastic Constant Matrix: (Units=GPa)
#
#
# Indices 1 2 3 4 5 6 
#
# 1 139.9627 34.5435 8.0232 0.0000 10.1483 0.0000
# 2 34.5435 86.2319 8.2418 0.0000 0.3423 0.0000
# 3 8.0232 8.2418 81.6228 0.0000 1.9144 0.0000
# 4 0.0000 0.0000 0.0000 37.9850 0.0000 1.4290
# 5 10.1483 0.3423 1.9144 0.0000 35.8435 0.0000
# 6 0.0000 0.0000 0.0000 1.4290 0.0000 41.0524
#
#
#
# Elastic Compliance Matrix: (Units=1/GPa)
#
#
# Indices 1 2 3 4 5 6 
#
# 1 0.008123 -0.003205 -0.000422 0.000000 -0.002247 0.000000
# 2 -0.003205 0.012974 -0.001015 0.000000 0.000838 0.000000
# 3 -0.000422 -0.001015 0.012408 0.000000 -0.000534 0.000000
# 4 0.000000 0.000000 0.000000 0.026361 0.000000 -0.000918
# 5 -0.002247 0.000838 -0.000534 0.000000 0.028556 0.000000
# 6 0.000000 0.000000 0.000000 -0.000918 0.000000 0.024391
#
#
# Mechanical properties :
#
#
# Convention : Reuss Voigt Hill
#
# Bulk Modulus (GPa) = 41.28513 45.49274 43.38893
# Shear Modulus (GPa) = 38.41160 40.11011 39.26086
#
# Velocity S-wave (km/s) = 3.93184 4.01783 3.97506
# Velocity P-wave (km/s) = 6.10150 6.31135 6.20731
#
# Compressibility (1/GPa) = 0.02422180
#
# Stress axis : x y z
#
# Youngs Moduli (GPa) = 123.11064 77.07710 80.59355
#
# Poissons Ratio (x) = 0.24700 0.03402
# Poissons Ratio (y) = 0.39452 0.08178
# Poissons Ratio (z) = 0.05197 0.07821
#
# Static dielectric constant tensor:
#      x y z
#    x 2.204040 0.000000 -0.047070 
#    y 0.000000 2.154370 0.000000 
#    z -0.047070 0.000000 1.971170 
# 
# From -- ./inp_files/305804.got.cif
#   From: 2010.05.17/outbox.cif.g08.bks.cpg/sg15_153_cif.got.tgz:305804.got - 2010.06.03 18:47:42.
