data_PCOD9290975
_publ_section_title
;
Structure prediction by ZEFSAII (Michael W. Deem and Ramdas Pophale) SiO2 
 PCOD9290975
Probable space group: C 2/C
;
_chemical_formula_sum "Si O2"
_cell_formula_units_Z 48
_cell_length_a 15.506818
_cell_length_b 11.697011
_cell_length_c 12.389308
_cell_angle_alpha 90.000000
_cell_angle_beta 101.914936
_cell_angle_gamma 90.000000
_cell_volume 2198.799262
_symmetry_space_group_name_H-M "C 2/C"
_symmetry_group_IT_number 15
_symmetry_cell_setting 'monoclinic'
loop_
_space_group_symop_operation_xyz
x,y,z
-x,y,1/2-z
-x,-y,-z
x,-y,1/2+z
1/2+x,1/2+y,z
1/2-x,1/2+y,1/2-z
1/2-x,1/2-y,-z
1/2+x,1/2-y,1/2+z
loop_
_atom_site_type_symbol
_atom_site_label
_atom_site_fract_x
_atom_site_fract_y
_atom_site_fract_z
Si Si1 0.780864 0.526832 0.187533
Si Si2 0.389240 0.608800 0.468207
Si Si3 0.597355 0.926696 0.590449
Si Si4 0.057111 0.919314 0.865384
Si Si5 0.328990 0.201936 0.593392
Si Si6 0.909863 0.360050 0.547110
O O1 0.681953 0.565000 0.136428
O O2 0.818993 0.573252 0.309550
O O3 0.795032 0.390503 0.171873
O O4 0.841719 0.584958 0.112127
O O5 0.385461 0.518915 0.565932
O O6 0.485846 0.611485 0.439334
O O7 0.376288 0.735551 0.508351
O O8 0.613564 0.864648 0.481225
O O9 0.509934 0.869619 0.617593
O O10 0.583870 0.059610 0.557206
O O11 0.113701 0.807960 0.849461
O O12 0.000000 0.961054 0.750000
O O13 0.250000 0.250000 0.500000
#
# Coordination Sequence:
#
# PCOD9290975 Si02
#       6
#     8   8   8   8   8   8
#     4  11  24  38  70  97 130 172 224 266 339 385
#     4  11  24  46  60 101 133 167 221 278 321 403
#     4  10  23  40  65  98 128 178 217 273 326 392
#     4  11  26  43  71  92 131 180 216 268 341 392
#     4  11  23  44  65  96 133 169 226 277 314 402
#     4  10  22  42  62  91 138 165 219 272 325 391
#
# _framework density 21.830096999999999
#
# number of rings (size 3 to 8) (size 9 to 14) (size 15 to 20)
#    0.000    1.333    3.333    1.000    4.667    1.333 
#    0.000    0.000    0.000    0.000    0.000    0.000 
#    0.000    0.000    0.000    0.000    0.000    0.000 
#
# Total GULP energy -134114.645112 kJ/mol
# GULP energy per Si atom -5588.110213 kJ/mol
# Density = 2.178041 g / cm^3
# Si number density = 21.830097 Si / 1000 Ang^3
#
#
#
# Elastic Constant Matrix: (Units=GPa)
#
#
# Indices 1 2 3 4 5 6 
#
# 1 55.8898 26.5630 -2.4085 0.0000 18.6037 0.0000
# 2 26.5630 113.6713 14.5360 0.0000 9.9439 0.0000
# 3 -2.4085 14.5360 63.5948 0.0000 27.2741 0.0000
# 4 0.0000 0.0000 0.0000 14.3395 0.0000 12.0823
# 5 18.6037 9.9439 27.2741 0.0000 41.1668 0.0000
# 6 0.0000 0.0000 0.0000 12.0823 0.0000 25.7292
#
#
#
# Elastic Compliance Matrix: (Units=1/GPa)
#
#
# Indices 1 2 3 4 5 6 
#
# 1 0.026890 -0.006030 0.009756 0.000000 -0.017159 0.000000
# 2 -0.006030 0.010453 -0.003777 0.000000 0.002702 0.000000
# 3 0.009756 -0.003777 0.025783 0.000000 -0.020578 0.000000
# 4 0.000000 0.000000 0.000000 0.115398 0.000000 -0.054190
# 5 -0.017159 0.002702 -0.020578 0.000000 0.045026 0.000000
# 6 0.000000 0.000000 0.000000 -0.054190 0.000000 0.064314
#
#
# Mechanical properties :
#
#
# Convention : Reuss Voigt Hill
#
# Bulk Modulus (GPa) = 15.86707 34.50410 25.18558
# Shear Modulus (GPa) = 16.18259 29.21147 22.69703
#
# Velocity S-wave (km/s) = 2.72563 3.66201 3.22796
# Velocity P-wave (km/s) = 4.14604 5.80694 5.04530
#
# Compressibility (1/GPa) = 0.06302361
#
# Stress axis : x y z
#
# Youngs Moduli (GPa) = 37.18810 95.66615 38.78579
#
# Poissons Ratio (x) = 0.57689 -0.37838
# Poissons Ratio (y) = 0.22426 0.14648
# Poissons Ratio (z) = -0.36280 0.36129
#
# Static dielectric constant tensor:
#      x y z
#    x 1.831100 0.000000 0.012870 
#    y 0.000000 1.805590 0.000000 
#    z 0.012870 0.000000 1.782250 
# 
# From -- ./inp_files/104182.got.cif
#   From: 2010.05.17/outbox.cif.g08.bks.cpg/sg15_53_cif.got.tgz:104182.got - 2010.06.03 18:47:42.
