data_PCOD9290579
_publ_section_title
;
Structure prediction by ZEFSAII (Michael W. Deem and Ramdas Pophale) SiO2 
 PCOD9290579
Probable space group: C 2/C
;
_chemical_formula_sum "Si O2"
_cell_formula_units_Z 48
_cell_length_a 28.224537
_cell_length_b 16.841516
_cell_length_c 14.180042
_cell_angle_alpha 90.000000
_cell_angle_beta 20.787133
_cell_angle_gamma 90.000000
_cell_volume 2392.147068
_symmetry_space_group_name_H-M "C 2/C"
_symmetry_group_IT_number 15
_symmetry_cell_setting 'monoclinic'
loop_
_space_group_symop_operation_xyz
x,y,z
-x,y,1/2-z
-x,-y,-z
x,-y,1/2+z
1/2+x,1/2+y,z
1/2-x,1/2+y,1/2-z
1/2-x,1/2-y,-z
1/2+x,1/2-y,1/2+z
loop_
_atom_site_type_symbol
_atom_site_label
_atom_site_fract_x
_atom_site_fract_y
_atom_site_fract_z
Si Si1 0.803477 0.364428 0.995498
Si Si2 0.072109 0.567498 0.923393
Si Si3 0.500000 0.859836 0.250000
Si Si4 0.393106 0.698395 0.782920
Si Si5 0.500000 0.596307 0.750000
Si Si6 0.268360 0.005295 0.208570
Si Si7 0.397227 0.784198 0.249211
O O1 0.710940 0.361540 0.074352
O O2 0.757512 0.432885 0.153060
O O3 0.814628 0.268326 0.986643
O O4 0.956782 0.388521 0.695974
O O5 0.180870 0.535335 0.790744
O O6 0.123326 0.628101 0.752457
O O7 0.000000 0.500000 0.000000
O O8 0.375494 0.922733 0.491340
O O9 0.458351 0.802059 0.239766
O O10 0.475855 0.650969 0.704685
O O11 0.490636 0.737326 0.521944
O O12 0.626959 0.543696 0.489892
O O13 0.250000 0.750000 0.500000
#
# Coordination Sequence:
#
# PCOD9290579 Si02
#       7
#     8   8   4   8   4   8   8
#     4  10  22  41  67  95 128 188 234 276 341 417
#     4  11  20  39  66  95 130 178 232 276 344 411
#     4  12  24  43  71  98 134 186 248 288 344 423
#     4  10  25  43  67  98 143 186 228 290 346 428
#     4  12  28  41  69 108 144 178 230 294 362 399
#     4  12  24  42  70 104 136 184 232 292 340 432
#     4  11  25  42  66 103 141 183 232 298 348 413
#
# _framework density 20.065655
#
# number of rings (size 3 to 8) (size 9 to 14) (size 15 to 20)
#    0.000    1.000    3.333    2.000    9.333    3.333 
#    0.000    0.000    0.000    0.000    0.000    0.000 
#    0.000    0.000    0.000    0.000    0.000    0.000 
#
# Total GULP energy -133689.172203 kJ/mol
# GULP energy per Si atom -5570.382175 kJ/mol
# Density = 2.001998 g / cm^3
# Si number density = 20.065655 Si / 1000 Ang^3
#
#
#
# Elastic Constant Matrix: (Units=GPa)
#
#
# Indices 1 2 3 4 5 6 
#
# 1 180.4359 94.9120 51.5377 0.0003 -18.2248 -0.0002
# 2 94.9120 109.0539 49.6834 0.0001 -7.2985 0.0000
# 3 51.5377 49.6834 108.6097 0.0001 -20.0991 0.0000
# 4 0.0003 0.0001 0.0001 43.0026 -0.0002 -6.7663
# 5 -18.2248 -7.2985 -20.0991 -0.0002 28.0491 0.0001
# 6 -0.0002 0.0000 0.0000 -6.7663 0.0001 53.9013
#
#
#
# Elastic Compliance Matrix: (Units=1/GPa)
#
#
# Indices 1 2 3 4 5 6 
#
# 1 0.010787 -0.009014 -0.000152 0.000000 0.004554 0.000000
# 2 -0.009014 0.019136 -0.005348 0.000000 -0.004710 0.000000
# 3 -0.000152 -0.005348 0.013201 0.000000 0.007969 0.000000
# 4 0.000000 0.000000 0.000000 0.023723 0.000000 0.002978
# 5 0.004554 -0.004710 0.007969 0.000000 0.043095 0.000000
# 6 0.000000 0.000000 0.000000 0.002978 0.000000 0.018926
#
#
# Mechanical properties :
#
#
# Convention : Reuss Voigt Hill
#
# Bulk Modulus (GPa) = 70.94757 87.81842 79.38299
# Shear Modulus (GPa) = 30.75098 38.45504 34.60301
#
# Velocity S-wave (km/s) = 3.91899 4.38249 4.15720
# Velocity P-wave (km/s) = 7.47746 8.33480 7.91774
#
# Compressibility (1/GPa) = 0.01409492
#
# Stress axis : x y z
#
# Youngs Moduli (GPa) = 92.70208 52.25682 75.75327
#
# Poissons Ratio (x) = 0.47105 0.01155
# Poissons Ratio (y) = 0.83563 0.40513
# Poissons Ratio (z) = 0.01414 0.27947
#
# Static dielectric constant tensor:
#      x y z
#    x 1.658310 0.000000 0.081540 
#    y 0.000000 1.732380 0.000000 
#    z 0.081540 0.000000 1.674010 
# 
# From -- ./inp_files/143501.got.cif
#   From: 2010.05.17/outbox.cif.g08.bks.cpg/sg15_72_cif.got.tgz:143501.got - 2010.06.03 18:47:42.
