data_PCOD9290864
_publ_section_title
;
Structure prediction by ZEFSAII (Michael W. Deem and Ramdas Pophale) SiO2 
 PCOD9290864
Probable space group: C 2/C
;
_chemical_formula_sum "Si O2"
_cell_formula_units_Z 52
_cell_length_a 15.439651
_cell_length_b 10.814607
_cell_length_c 24.982841
_cell_angle_alpha 90.000000
_cell_angle_beta 147.552415
_cell_angle_gamma 90.000000
_cell_volume 2238.114520
_symmetry_space_group_name_H-M "C 2/C"
_symmetry_group_IT_number 15
_symmetry_cell_setting 'monoclinic'
loop_
_space_group_symop_operation_xyz
x,y,z
-x,y,1/2-z
-x,-y,-z
x,-y,1/2+z
1/2+x,1/2+y,z
1/2-x,1/2+y,1/2-z
1/2-x,1/2-y,-z
1/2+x,1/2-y,1/2+z
loop_
_atom_site_type_symbol
_atom_site_label
_atom_site_fract_x
_atom_site_fract_y
_atom_site_fract_z
Si Si1 0.937832 0.372404 0.114648
Si Si2 0.538150 0.756168 0.943244
Si Si3 0.100941 0.721131 0.591207
Si Si4 0.683477 0.557357 0.948951
Si Si5 0.646030 0.494748 0.269469
Si Si6 0.310466 0.093154 0.252738
Si Si7 0.000000 0.209468 0.250000
O O1 0.941177 0.288559 0.168845
O O2 0.009821 0.304998 0.099452
O O3 0.054797 0.490287 0.188946
O O4 0.764833 0.428788 0.008028
O O5 0.495795 0.764152 0.983224
O O6 0.675368 0.858193 0.001992
O O7 0.614045 0.627370 0.964578
O O8 0.393934 0.794061 0.828765
O O9 0.220453 0.604395 0.645056
O O10 0.212317 0.842854 0.654511
O O11 0.537363 0.552442 0.830750
O O12 0.689269 0.531913 0.231373
O O13 0.639559 0.618328 0.301004
#
# Coordination Sequence:
#
# PCOD9290864 Si02
#       7
#     8   8   8   8   8   8   4
#     4  10  25  42  64  93 143 168 224 266 343 382
#     4  10  22  41  72  96 135 165 229 278 330 382
#     4  11  22  45  69  99 125 185 219 273 325 406
#     4  10  22  44  63 106 128 173 218 287 323 394
#     4  11  23  41  69  93 139 171 224 261 337 396
#     4  10  22  45  65  97 131 175 222 272 321 409
#     4  12  24  42  60 102 130 184 204 288 324 398
#
# _framework density 23.233844000000001
#
# number of rings (size 3 to 8) (size 9 to 14) (size 15 to 20)
#    0.000    1.538    3.077    0.923    2.154    7.385 
#    2.769    0.769    0.000    0.000    0.000    0.000 
#    0.000    0.000    0.000    0.000    0.000    0.000 
#
# Total GULP energy -145477.548895 kJ/mol
# GULP energy per Si atom -5595.290342 kJ/mol
# Density = 2.318096 g / cm^3
# Si number density = 23.233844 Si / 1000 Ang^3
#
#
#
# Elastic Constant Matrix: (Units=GPa)
#
#
# Indices 1 2 3 4 5 6 
#
# 1 66.8379 30.6153 32.4969 0.0000 -18.9348 0.0000
# 2 30.6153 64.6235 8.0824 0.0000 -16.3723 0.0000
# 3 32.4969 8.0824 57.5424 0.0000 -13.3198 0.0000
# 4 0.0000 0.0000 0.0000 21.9562 0.0000 -0.4963
# 5 -18.9348 -16.3723 -13.3198 0.0000 36.8165 0.0000
# 6 0.0000 0.0000 0.0000 -0.4963 0.0000 39.0830
#
#
#
# Elastic Compliance Matrix: (Units=1/GPa)
#
#
# Indices 1 2 3 4 5 6 
#
# 1 0.027163 -0.010032 -0.012802 0.000000 0.004877 0.000000
# 2 -0.010032 0.021171 0.004013 0.000000 0.005707 0.000000
# 3 -0.012802 0.004013 0.025030 0.000000 0.004256 0.000000
# 4 0.000000 0.000000 0.000000 0.045558 0.000000 0.000579
# 5 0.004877 0.005707 0.004256 0.000000 0.033748 0.000000
# 6 0.000000 0.000000 0.000000 0.000579 0.000000 0.025594
#
#
# Mechanical properties :
#
#
# Convention : Reuss Voigt Hill
#
# Bulk Modulus (GPa) = 27.99427 36.82144 32.40786
# Shear Modulus (GPa) = 21.94792 27.42508 24.68650
#
# Velocity S-wave (km/s) = 3.07686 3.43941 3.26317
# Velocity P-wave (km/s) = 4.96969 5.62631 5.30816
#
# Compressibility (1/GPa) = 0.03572159
#
# Stress axis : x y z
#
# Youngs Moduli (GPa) = 36.81537 47.23504 39.95225
#
# Poissons Ratio (x) = 0.47384 0.51147
# Poissons Ratio (y) = 0.36931 -0.16032
# Poissons Ratio (z) = 0.47131 -0.18954
#
# Static dielectric constant tensor:
#      x y z
#    x 1.874480 0.000000 0.013960 
#    y 0.000000 1.887960 0.000000 
#    z 0.013960 0.000000 1.876100 
# 
# From -- ./inp_files/273885.got.cif
#   From: 2010.05.17/outbox.cif.g08.bks.cpg/sg15_137_cif.got.tgz:273885.got - 2010.06.03 18:47:42.
