data_PCOD9290599
_publ_section_title
;
Structure prediction by ZEFSAII (Michael W. Deem and Ramdas Pophale) SiO2 
 PCOD9290599
Probable space group: C 2/C
;
_chemical_formula_sum "Si O2"
_cell_formula_units_Z 40
_cell_length_a 15.394727
_cell_length_b 10.398607
_cell_length_c 20.096256
_cell_angle_alpha 90.000000
_cell_angle_beta 35.165484
_cell_angle_gamma 90.000000
_cell_volume 1852.846813
_symmetry_space_group_name_H-M "C 2/C"
_symmetry_group_IT_number 15
_symmetry_cell_setting 'monoclinic'
loop_
_space_group_symop_operation_xyz
x,y,z
-x,y,1/2-z
-x,-y,-z
x,-y,1/2+z
1/2+x,1/2+y,z
1/2-x,1/2+y,1/2-z
1/2-x,1/2-y,-z
1/2+x,1/2-y,1/2+z
loop_
_atom_site_type_symbol
_atom_site_label
_atom_site_fract_x
_atom_site_fract_y
_atom_site_fract_z
Si Si1 0.500000 0.523963 0.250000
Si Si2 0.789002 0.653396 0.536263
Si Si3 0.123182 0.560842 0.294098
Si Si4 0.335592 0.793202 0.158357
Si Si5 0.500000 0.030183 0.750000
Si Si6 0.572358 0.742316 0.106091
O O1 0.354584 0.438014 0.358322
O O2 0.494801 0.621752 0.191029
O O3 0.750000 0.750000 0.500000
O O4 0.824280 0.708517 0.586698
O O5 0.945577 0.583404 0.419578
O O6 0.215060 0.687526 0.258251
O O7 0.184043 0.435077 0.295788
O O8 0.126356 0.550588 0.210319
O O9 0.502113 0.751420 0.077501
O O10 0.468285 0.130305 0.828219
O O11 0.750000 0.750000 0.000000
#
# Coordination Sequence:
#
# PCOD9290599 Si02
#       6
#     4   8   8   8   4   8
#     4  11  22  43  68  96 132 176 222 276 342 406
#     4  12  25  42  66  97 135 177 222 277 337 402
#     4  11  23  43  65  97 133 175 222 278 332 398
#     4  11  24  41  66  95 131 174 222 274 334 400
#     4   9  20  39  64  90 128 168 214 270 330 396
#     4  10  22  41  67  97 129 170 221 280 337 397
#
# _framework density 21.588401999999999
#
# number of rings (size 3 to 8) (size 9 to 14) (size 15 to 20)
#    0.000    1.200    0.000    6.600    0.000    4.800 
#    0.000    3.000    0.000    0.000    0.000    0.000 
#    0.000    0.000    0.000    0.000    0.000    0.000 
#
# Total GULP energy -111421.543339 kJ/mol
# GULP energy per Si atom -5571.077167 kJ/mol
# Density = 2.153927 g / cm^3
# Si number density = 21.588402 Si / 1000 Ang^3
#
#
#
# Elastic Constant Matrix: (Units=GPa)
#
#
# Indices 1 2 3 4 5 6 
#
# 1 180.4615 97.9605 55.6566 0.0000 6.8508 0.0000
# 2 97.9605 149.1949 68.3280 0.0000 -11.0754 0.0000
# 3 55.6566 68.3280 75.6951 0.0001 -18.8115 0.0000
# 4 0.0000 0.0000 0.0001 -7.1200 0.0000 -2.5969
# 5 6.8508 -11.0754 -18.8115 0.0000 34.9528 0.0000
# 6 0.0000 0.0000 0.0000 -2.5969 0.0000 38.2872
#
#
#
# Elastic Compliance Matrix: (Units=1/GPa)
#
#
# Indices 1 2 3 4 5 6 
#
# 1 0.009679 -0.004896 -0.004103 0.000000 -0.005657 0.000000
# 2 -0.004896 0.014055 -0.008938 0.000000 0.000603 0.000000
# 3 -0.004103 -0.008938 0.027465 0.000000 0.012754 0.000000
# 4 0.000000 0.000000 0.000000 -0.137059 0.000000 -0.009296
# 5 -0.005657 0.000603 0.012754 0.000000 0.036774 0.000000
# 6 0.000000 0.000000 0.000000 -0.009296 0.000000 0.025488
#
#
# Mechanical properties :
#
#
# Convention : Reuss Voigt Hill
#
# Bulk Modulus (GPa) = 65.24810 94.36021 79.80415
# Shear Modulus (GPa) = 287.59598 25.45110 156.52354
#
# Velocity S-wave (km/s) = 11.55452 3.43727 8.52414
# Velocity P-wave (km/s) = 14.43256 7.71730 11.57271
#
# Compressibility (1/GPa) = 0.01532612
#
# Stress axis : x y z
#
# Youngs Moduli (GPa) = 103.31214 71.14690 36.40985
#
# Poissons Ratio (x) = 0.34835 0.14940
# Poissons Ratio (y) = 0.50584 0.32541
# Poissons Ratio (z) = 0.42391 0.63588
#
# Static dielectric constant tensor:
#      x y z
#    x 2.048420 0.000000 -0.099570 
#    y 0.000000 -2.145440 0.000000 
#    z -0.099570 0.000000 1.856480 
# 
# From -- ./inp_files/276741.got.cif
#   From: 2010.05.17/outbox.cif.g08.bks.cpg/sg15_139_cif.got.tgz:276741.got - 2010.06.03 18:47:42.
