data_PCOD9290611
_publ_section_title
;
Structure prediction by ZEFSAII (Michael W. Deem and Ramdas Pophale) SiO2 
 PCOD9290611
Probable space group: C 2/C
;
_chemical_formula_sum "Si O2"
_cell_formula_units_Z 60
_cell_length_a 8.787122
_cell_length_b 26.313387
_cell_length_c 19.903989
_cell_angle_alpha 90.000000
_cell_angle_beta 142.828853
_cell_angle_gamma 90.000000
_cell_volume 2780.627153
_symmetry_space_group_name_H-M "C 2/C"
_symmetry_group_IT_number 15
_symmetry_cell_setting 'monoclinic'
loop_
_space_group_symop_operation_xyz
x,y,z
-x,y,1/2-z
-x,-y,-z
x,-y,1/2+z
1/2+x,1/2+y,z
1/2-x,1/2+y,1/2-z
1/2-x,1/2-y,-z
1/2+x,1/2-y,1/2+z
loop_
_atom_site_type_symbol
_atom_site_label
_atom_site_fract_x
_atom_site_fract_y
_atom_site_fract_z
Si Si1 0.201048 0.868763 0.701733
Si Si2 0.759214 0.086565 0.536986
Si Si3 0.769404 0.533133 0.306588
Si Si4 0.904165 0.264179 0.986135
Si Si5 0.691052 0.932205 0.256301
Si Si6 0.772271 0.645914 0.844141
Si Si7 0.000000 0.804444 0.750000
Si Si8 0.259241 0.332071 0.923126
O O1 0.236587 0.927009 0.733820
O O2 0.033474 0.841826 0.698544
O O3 0.461962 0.837602 0.804058
O O4 0.116672 0.862828 0.595621
O O5 0.501503 0.057956 0.429137
O O6 0.756457 0.099666 0.614140
O O7 0.785242 0.138353 0.502304
O O8 0.022955 0.058822 0.617307
O O9 0.500000 0.530299 0.250000
O O10 0.855761 0.478936 0.309997
O O11 0.728282 0.270540 0.858464
O O12 0.750000 0.250000 0.000000
O O13 0.029835 0.316653 0.053252
O O14 0.116281 0.222870 0.040636
O O15 0.500000 0.931696 0.250000
O O16 0.675302 0.879103 0.209444
O O17 0.500000 0.672775 0.750000
#
# Coordination Sequence:
#
# PCOD9290611 Si02
#       8
#     8   8   8   8   8   8   4   8
#     4  10  22  41  67  98 137 173 231 293 346 415
#     4  10  24  47  69 100 137 185 228 292 352 418
#     4  11  23  43  73 100 137 185 233 285 354 430
#     4  12  26  41  68 104 136 185 236 290 352 418
#     4  11  27  45  70 105 140 182 233 291 356 422
#     4  10  25  48  70  94 140 185 235 285 354 425
#     4  12  24  42  62 102 138 178 236 282 360 416
#     4  10  23  42  66  95 137 177 231 287 343 408
#
# _framework density 21.577864999999999
#
# number of rings (size 3 to 8) (size 9 to 14) (size 15 to 20)
#    0.000    1.333    2.000    2.800    7.467    6.933 
#    0.000    0.000    0.000    0.000    0.000    0.000 
#    0.000    0.000    0.000    0.000    0.000    0.000 
#
# Total GULP energy -167437.656602 kJ/mol
# GULP energy per Si atom -5581.255220 kJ/mol
# Density = 2.152875 g / cm^3
# Si number density = 21.577865 Si / 1000 Ang^3
#
#
#
# Elastic Constant Matrix: (Units=GPa)
#
#
# Indices 1 2 3 4 5 6 
#
# 1 126.7717 26.8395 33.1463 0.0000 5.0732 0.0001
# 2 26.8395 65.6536 25.0082 -0.0002 8.9985 0.0001
# 3 33.1463 25.0082 87.5341 0.0008 5.0681 0.0000
# 4 0.0000 -0.0002 0.0008 17.8705 0.0003 11.0764
# 5 5.0732 8.9985 5.0681 0.0003 29.4426 -0.0001
# 6 0.0001 0.0001 0.0000 11.0764 -0.0001 18.1671
#
#
#
# Elastic Compliance Matrix: (Units=1/GPa)
#
#
# Indices 1 2 3 4 5 6 
#
# 1 0.009171 -0.002684 -0.002689 0.000000 -0.000297 0.000000
# 2 -0.002684 0.018468 -0.004000 0.000001 -0.004493 -0.000001
# 3 -0.002689 -0.004000 0.013623 -0.000001 -0.000659 0.000001
# 4 0.000000 0.000001 -0.000001 0.089950 -0.000001 -0.054842
# 5 -0.000297 -0.004493 -0.000659 -0.000001 0.035502 0.000001
# 6 0.000000 -0.000001 0.000001 -0.054842 0.000001 0.088482
#
#
# Mechanical properties :
#
#
# Convention : Reuss Voigt Hill
#
# Bulk Modulus (GPa) = 44.41071 49.99413 47.20242
# Shear Modulus (GPa) = 17.76523 26.09373 21.92948
#
# Velocity S-wave (km/s) = 2.87245 3.48125 3.19140
# Velocity P-wave (km/s) = 5.62384 6.27521 5.95843
#
# Compressibility (1/GPa) = 0.02251709
#
# Stress axis : x y z
#
# Youngs Moduli (GPa) = 109.03417 54.14704 73.40458
#
# Poissons Ratio (x) = 0.14535 0.19737
# Poissons Ratio (y) = 0.29269 0.29359
# Poissons Ratio (z) = 0.29317 0.21657
#
# Static dielectric constant tensor:
#      x y z
#    x 2.158890 0.000000 -0.102380 
#    y 0.000000 1.798840 0.000000 
#    z -0.102380 0.000000 1.884710 
# 
# From -- ./inp_files/234575.got.cif
#   From: 2010.05.17/outbox.cif.g08.bks.cpg/sg15_118_cif.got.tgz:234575.got - 2010.06.03 18:47:42.
