data_PCOD9290708
_publ_section_title
;
Structure prediction by ZEFSAII (Michael W. Deem and Ramdas Pophale) SiO2 
 PCOD9290708
Probable space group: C 2/C
;
_chemical_formula_sum "Si O2"
_cell_formula_units_Z 44
_cell_length_a 21.718699
_cell_length_b 8.212385
_cell_length_c 11.215328
_cell_angle_alpha 90.000000
_cell_angle_beta 72.680518
_cell_angle_gamma 90.000000
_cell_volume 1909.693388
_symmetry_space_group_name_H-M "C 2/C"
_symmetry_group_IT_number 15
_symmetry_cell_setting 'monoclinic'
loop_
_space_group_symop_operation_xyz
x,y,z
-x,y,1/2-z
-x,-y,-z
x,-y,1/2+z
1/2+x,1/2+y,z
1/2-x,1/2+y,1/2-z
1/2-x,1/2-y,-z
1/2+x,1/2-y,1/2+z
loop_
_atom_site_type_symbol
_atom_site_label
_atom_site_fract_x
_atom_site_fract_y
_atom_site_fract_z
Si Si1 0.748193 0.059151 0.094273
Si Si2 0.191688 0.344527 0.319033
Si Si3 0.414747 0.617915 0.196600
Si Si4 0.500000 0.889131 0.250000
Si Si5 0.118131 0.454263 0.035724
Si Si6 0.612712 0.566459 0.030802
O O1 0.763559 0.245903 0.115024
O O2 0.737690 0.967160 0.225646
O O3 0.682704 0.005308 0.068726
O O4 0.813466 0.990480 0.001631
O O5 0.155047 0.208582 0.262137
O O6 0.131878 0.443696 0.409730
O O7 0.466493 0.763455 0.176605
O O8 0.419396 0.527087 0.322052
O O9 0.416259 0.518659 0.071700
O O10 0.554827 0.990336 0.150278
O O11 0.113747 0.261626 0.014904
#
# Coordination Sequence:
#
# PCOD9290708 Si02
#       6
#     8   8   8   4   8   8
#     4  11  22  40  66 101 138 177 229 298 351 426
#     4  11  23  40  66 103 137 175 238 286 366 406
#     4  10  23  43  66 104 138 192 228 288 335 422
#     4  10  22  46  72  94 152 180 246 282 338 418
#     4  11  23  41  66 100 135 192 225 294 344 419
#     4  10  22  41  69 100 147 172 238 283 357 400
#
# _framework density 23.040347000000001
#
# number of rings (size 3 to 8) (size 9 to 14) (size 15 to 20)
#    0.000    1.455    3.636    2.182    5.091    3.636 
#    6.545    0.000    0.000   18.545    0.000    0.000 
#    0.000    0.000    0.000    0.000    0.000    0.000 
#
# Total GULP energy -122801.197032 kJ/mol
# GULP energy per Si atom -5581.872592 kJ/mol
# Density = 2.298791 g / cm^3
# Si number density = 23.040347 Si / 1000 Ang^3
#
#
#
# Elastic Constant Matrix: (Units=GPa)
#
#
# Indices 1 2 3 4 5 6 
#
# 1 91.1139 10.2807 22.3048 0.0000 3.7352 0.0000
# 2 10.2807 43.2292 15.6301 0.0000 6.5223 0.0000
# 3 22.3048 15.6301 106.8884 0.0000 5.0152 0.0000
# 4 0.0000 0.0000 0.0000 24.0999 0.0000 -36.5039
# 5 3.7352 6.5223 5.0152 0.0000 44.1150 0.0000
# 6 0.0000 0.0000 0.0000 -36.5039 0.0000 -110.5761
#
#
#
# Elastic Compliance Matrix: (Units=1/GPa)
#
#
# Indices 1 2 3 4 5 6 
#
# 1 0.011739 -0.001947 -0.002143 0.000000 -0.000462 0.000000
# 2 -0.001947 0.025211 -0.003130 0.000000 -0.003207 0.000000
# 3 -0.002143 -0.003130 0.010285 0.000000 -0.000525 0.000000
# 4 0.000000 0.000000 0.000000 0.027662 0.000000 -0.009132
# 5 -0.000462 -0.003207 -0.000525 0.000000 0.023241 0.000000
# 6 0.000000 0.000000 0.000000 -0.009132 0.000000 -0.006029
#
#
# Mechanical properties :
#
#
# Convention : Reuss Voigt Hill
#
# Bulk Modulus (GPa) = 30.49269 37.51808 34.00538
# Shear Modulus (GPa) = 42.56041 4.39550 23.47795
#
# Velocity S-wave (km/s) = 4.30258 1.38271 3.19563
# Velocity P-wave (km/s) = 6.16005 4.34375 5.32984
#
# Compressibility (1/GPa) = 0.03279475
#
# Stress axis : x y z
#
# Youngs Moduli (GPa) = 85.18938 39.66523 97.22834
#
# Poissons Ratio (x) = 0.07723 0.20837
# Poissons Ratio (y) = 0.16586 0.30431
# Poissons Ratio (z) = 0.18257 0.12414
#
# Static dielectric constant tensor:
#      x y z
#    x 2.139580 0.000000 0.279210 
#    y 0.000000 1.846570 0.000000 
#    z 0.279210 0.000000 2.130930 
# 
# From -- ./inp_files/109926.got.cif
#   From: 2010.05.17/outbox.cif.g08.bks.cpg/sg15_55_cif.got.tgz:109926.got - 2010.06.03 18:47:42.
