data_PCOD9290417
_publ_section_title
;
Structure prediction by ZEFSAII (Michael W. Deem and Ramdas Pophale) SiO2 
 PCOD9290417
Probable space group: C 2/C
;
_chemical_formula_sum "Si O2"
_cell_formula_units_Z 40
_cell_length_a 13.336287
_cell_length_b 14.668898
_cell_length_c 12.214831
_cell_angle_alpha 90.000000
_cell_angle_beta 39.298863
_cell_angle_gamma 90.000000
_cell_volume 1513.471679
_symmetry_space_group_name_H-M "C 2/C"
_symmetry_group_IT_number 15
_symmetry_cell_setting 'monoclinic'
loop_
_space_group_symop_operation_xyz
x,y,z
-x,y,1/2-z
-x,-y,-z
x,-y,1/2+z
1/2+x,1/2+y,z
1/2-x,1/2+y,1/2-z
1/2-x,1/2-y,-z
1/2+x,1/2-y,1/2+z
loop_
_atom_site_type_symbol
_atom_site_label
_atom_site_fract_x
_atom_site_fract_y
_atom_site_fract_z
Si Si1 0.263596 0.847977 0.841410
Si Si2 0.887918 0.847278 0.211118
Si Si3 0.500000 0.498014 0.250000
Si Si4 0.121737 0.645445 0.504714
Si Si5 0.000000 0.512193 0.250000
Si Si6 0.373407 0.344891 0.987384
O O1 0.332853 0.747491 0.808436
O O2 0.307943 0.862912 0.675865
O O3 0.358806 0.923014 0.829168
O O4 0.075225 0.848129 0.021302
O O5 0.869881 0.930139 0.309247
O O6 0.800310 0.857366 0.169233
O O7 0.531728 0.564679 0.121887
O O8 0.032520 0.556449 0.621426
O O9 0.255174 0.655395 0.485415
O O10 0.040503 0.746194 0.580070
#
# Coordination Sequence:
#
# PCOD9290417 Si02
#       6
#     8   8   4   8   4   8
#     4  11  26  46  68  98 137 180 227 277 338 402
#     4  11  26  45  68  99 136 180 225 279 338 402
#     4  12  22  38  66  96 132 170 222 278 328 392
#     4  10  23  43  69  98 136 178 222 277 337 405
#     4  12  24  42  70 102 136 178 226 278 338 398
#     4  10  22  41  65  97 133 172 220 272 335 399
#
# _framework density 26.429300999999999
#
# number of rings (size 3 to 8) (size 9 to 14) (size 15 to 20)
#    0.000    1.200    0.000    4.800    0.000   14.400 
#    0.000    2.000    0.000    0.000    0.000    0.000 
#    0.000    0.000    0.000    0.000    0.000    0.000 
#
# Total GULP energy -112005.935706 kJ/mol
# GULP energy per Si atom -5600.296785 kJ/mol
# Density = 2.636915 g / cm^3
# Si number density = 26.429301 Si / 1000 Ang^3
#
#
#
# Elastic Constant Matrix: (Units=GPa)
#
#
# Indices 1 2 3 4 5 6 
#
# 1 118.1658 62.9630 51.3676 0.0000 10.0128 -0.0001
# 2 62.9630 218.9176 74.6003 0.0000 2.1188 -0.0001
# 3 51.3676 74.6003 144.6852 0.0000 14.7027 -0.0002
# 4 0.0000 0.0000 0.0000 -17.4113 0.0000 1.7848
# 5 10.0128 2.1188 14.7027 0.0000 45.3766 0.0002
# 6 -0.0001 -0.0001 -0.0002 1.7848 0.0002 27.9671
#
#
#
# Elastic Compliance Matrix: (Units=1/GPa)
#
#
# Indices 1 2 3 4 5 6 
#
# 1 0.010898 -0.002247 -0.002561 0.000000 -0.001470 0.000000
# 2 -0.002247 0.006026 -0.002410 0.000000 0.000996 0.000000
# 3 -0.002561 -0.002410 0.009301 0.000000 -0.002336 0.000000
# 4 0.000000 0.000000 0.000000 -0.057061 0.000000 0.003641
# 5 -0.001470 0.000996 -0.002336 0.000000 0.023073 0.000000
# 6 0.000000 0.000000 0.000000 0.003641 0.000000 0.035524
#
#
# Mechanical properties :
#
#
# Convention : Reuss Voigt Hill
#
# Bulk Modulus (GPa) = 84.83508 95.51446 90.17477
# Shear Modulus (GPa) = 108.39559 30.70901 69.55230
#
# Velocity S-wave (km/s) = 6.41112 3.41241 5.13551
# Velocity P-wave (km/s) = 9.32587 7.19334 8.32814
#
# Compressibility (1/GPa) = 0.01178758
#
# Stress axis : x y z
#
# Youngs Moduli (GPa) = 91.75953 165.94641 107.51640
#
# Poissons Ratio (x) = 0.37296 0.27534
# Poissons Ratio (y) = 0.20623 0.25915
# Poissons Ratio (z) = 0.23499 0.39998
#
# Static dielectric constant tensor:
#      x y z
#    x 2.085220 0.000000 -0.046980 
#    y 0.000000 2.078340 0.000000 
#    z -0.046980 0.000000 2.112650 
# 
# From -- ./inp_files/96047.got.cif
#   From: 2010.05.17/outbox.cif.g08.bks.cpg/sg15_49_cif.got.tgz:96047.got - 2010.06.03 18:47:42.
