data_PCOD9290062
_publ_section_title
;
Structure prediction by ZEFSAII (Michael W. Deem and Ramdas Pophale) SiO2 
 PCOD9290062
Probable space group: C 2/C
;
_chemical_formula_sum "Si O2"
_cell_formula_units_Z 52
_cell_length_a 12.731735
_cell_length_b 31.795289
_cell_length_c 8.940326
_cell_angle_alpha 90.000000
_cell_angle_beta 46.774251
_cell_angle_gamma 90.000000
_cell_volume 2637.115780
_symmetry_space_group_name_H-M "C 2/C"
_symmetry_group_IT_number 15
_symmetry_cell_setting 'monoclinic'
loop_
_space_group_symop_operation_xyz
x,y,z
-x,y,1/2-z
-x,-y,-z
x,-y,1/2+z
1/2+x,1/2+y,z
1/2-x,1/2+y,1/2-z
1/2-x,1/2-y,-z
1/2+x,1/2-y,1/2+z
loop_
_atom_site_type_symbol
_atom_site_label
_atom_site_fract_x
_atom_site_fract_y
_atom_site_fract_z
Si Si1 0.302141 0.775548 0.303873
Si Si2 0.500000 0.983548 0.750000
Si Si3 0.255950 0.866266 0.439244
Si Si4 0.146997 0.448116 0.311609
Si Si5 0.988638 0.780449 0.091487
Si Si6 0.969874 0.956558 0.108846
Si Si7 0.063769 0.869106 0.905013
O O1 0.250000 0.750000 0.500000
O O2 0.333046 0.822748 0.326155
O O3 0.174366 0.780272 0.307625
O O4 0.428292 0.749860 0.103323
O O5 0.552070 0.956453 0.554648
O O6 0.385995 0.015350 0.779200
O O7 0.351049 0.904420 0.282534
O O8 0.203433 0.867593 0.662008
O O9 0.094087 0.866638 0.522256
O O10 0.305952 0.448316 0.225401
O O11 0.000000 0.765683 0.250000
O O12 0.057932 0.827325 0.011909
O O13 0.000000 0.964229 0.250000
O O14 0.061522 0.915332 0.977642
O O15 0.000000 0.000000 0.000000
#
# Coordination Sequence:
#
# PCOD9290062 Si02
#       7
#     8   4   8   8   8   8   8
#     4  11  21  40  64  90 120 163 205 246 302 369
#     4  10  22  42  64  78 118 172 198 244 294 358
#     4   9  19  37  61  86 119 152 199 250 292 361
#     4  10  22  41  60  85 118 159 206 239 300 363
#     4  11  22  39  63  90 125 161 201 253 307 359
#     4  11  23  35  60  94 120 147 194 257 307 352
#     4   9  19  36  60  87 118 156 193 243 312 356
#
# _framework density 19.718512
#
# number of rings (size 3 to 8) (size 9 to 14) (size 15 to 20)
#    0.000    1.846    1.538    2.308    6.462    0.000 
#    4.154    0.000    0.000    0.000    0.000    0.000 
#    0.000    0.000    0.000    0.000    0.000    0.000 
#
# Total GULP energy -144888.744805 kJ/mol
# GULP energy per Si atom -5572.644031 kJ/mol
# Density = 1.967363 g / cm^3
# Si number density = 19.718512 Si / 1000 Ang^3
#
#
#
# Elastic Constant Matrix: (Units=GPa)
#
#
# Indices 1 2 3 4 5 6 
#
# 1 55.9357 -9.0340 -3.9767 0.0000 9.7691 0.0000
# 2 -9.0340 117.1413 29.3245 0.0000 -10.6117 0.0000
# 3 -3.9767 29.3245 65.6925 0.0000 3.0007 0.0000
# 4 0.0000 0.0000 0.0000 35.2391 0.0000 3.7928
# 5 9.7691 -10.6117 3.0007 0.0000 23.4189 0.0000
# 6 0.0000 0.0000 0.0000 3.7928 0.0000 22.8940
#
#
#
# Elastic Compliance Matrix: (Units=1/GPa)
#
#
# Indices 1 2 3 4 5 6 
#
# 1 0.019457 0.000427 0.001357 0.000000 -0.008097 0.000000
# 2 0.000427 0.010222 -0.004769 0.000000 0.005065 0.000000
# 3 0.001357 -0.004769 0.017661 0.000000 -0.004990 0.000000
# 4 0.000000 0.000000 0.000000 0.028893 0.000000 -0.004787
# 5 -0.008097 0.005065 -0.004990 0.000000 0.049012 0.000000
# 6 0.000000 0.000000 0.000000 -0.004787 0.000000 0.044473
#
#
# Mechanical properties :
#
#
# Convention : Reuss Voigt Hill
#
# Bulk Modulus (GPa) = 24.17091 30.15523 27.16307
# Shear Modulus (GPa) = 26.38834 31.14076 28.76455
#
# Velocity S-wave (km/s) = 3.66218 3.97831 3.82351
# Velocity P-wave (km/s) = 5.49242 6.03561 5.77041
#
# Compressibility (1/GPa) = 0.04137205
#
# Stress axis : x y z
#
# Youngs Moduli (GPa) = 51.39472 97.82624 56.62148
#
# Poissons Ratio (x) = -0.04181 -0.07683
# Poissons Ratio (y) = -0.02197 0.27000
# Poissons Ratio (z) = -0.06974 0.46649
#
# Static dielectric constant tensor:
#      x y z
#    x 1.701170 0.000000 -0.011120 
#    y 0.000000 1.626760 0.000000 
#    z -0.011120 0.000000 1.695330 
# 
# From -- ./inp_files/44765.got.cif
#   From: 2010.05.17/outbox.cif.g08.bks.cpg/sg15_23_cif.got.tgz:44765.got - 2010.06.03 18:47:42.
