data_PCOD9290951
_publ_section_title
;
Structure prediction by ZEFSAII (Michael W. Deem and Ramdas Pophale) SiO2 
 PCOD9290951
Probable space group: C 2/C
;
_chemical_formula_sum "Si O2"
_cell_formula_units_Z 44
_cell_length_a 10.789793
_cell_length_b 8.641932
_cell_length_c 23.662706
_cell_angle_alpha 90.000000
_cell_angle_beta 110.185140
_cell_angle_gamma 90.000000
_cell_volume 2070.908160
_symmetry_space_group_name_H-M "C 2/C"
_symmetry_group_IT_number 15
_symmetry_cell_setting 'monoclinic'
loop_
_space_group_symop_operation_xyz
x,y,z
-x,y,1/2-z
-x,-y,-z
x,-y,1/2+z
1/2+x,1/2+y,z
1/2-x,1/2+y,1/2-z
1/2-x,1/2-y,-z
1/2+x,1/2-y,1/2+z
loop_
_atom_site_type_symbol
_atom_site_label
_atom_site_fract_x
_atom_site_fract_y
_atom_site_fract_z
Si Si1 0.758753 0.973748 0.771538
Si Si2 0.353035 0.744125 0.655527
Si Si3 0.149890 0.681845 0.529757
Si Si4 0.646750 0.816275 0.528441
Si Si5 0.862453 0.292949 0.842014
Si Si6 0.000000 0.015082 0.250000
O O1 0.680817 0.882989 0.807574
O O2 0.674509 0.942002 0.701607
O O3 0.902021 0.899303 0.777190
O O4 0.797109 0.144795 0.799602
O O5 0.221984 0.709061 0.600358
O O6 0.478557 0.780833 0.635468
O O7 0.405639 0.598227 0.699427
O O8 0.250000 0.750000 0.500000
O O9 0.141471 0.499471 0.517786
O O10 0.001709 0.747752 0.504200
O O11 0.750000 0.750000 0.500000
O O12 0.682511 0.793263 0.600174
#
# Coordination Sequence:
#
# PCOD9290951 Si02
#       6
#     8   8   8   8   8   4
#     4  11  22  41  69  98 132 180 224 288 355 400
#     4  11  21  43  70  94 138 181 227 283 351 416
#     4  11  25  45  71  98 139 189 228 286 355 409
#     4  11  27  46  70 108 141 181 242 292 340 429
#     4  11  24  44  69 100 141 179 237 289 348 423
#     4  10  22  42  62 100 134 176 218 292 346 410
#
# _framework density 21.246715999999999
#
# number of rings (size 3 to 8) (size 9 to 14) (size 15 to 20)
#    0.000    1.091    5.455    1.091    2.545    5.091 
#    3.273    1.818    0.000    0.000    0.000    0.000 
#    0.000    0.000    0.000    0.000    0.000    0.000 
#
# Total GULP energy -122799.877918 kJ/mol
# GULP energy per Si atom -5581.812633 kJ/mol
# Density = 2.119836 g / cm^3
# Si number density = 21.246716 Si / 1000 Ang^3
#
#
#
# Elastic Constant Matrix: (Units=GPa)
#
#
# Indices 1 2 3 4 5 6 
#
# 1 145.3524 43.8913 63.9912 0.0000 -18.3903 0.0000
# 2 43.8913 37.8365 28.1650 0.0000 -4.1742 0.0000
# 3 63.9912 28.1650 137.9129 0.0000 -2.0686 0.0000
# 4 0.0000 0.0000 0.0000 14.3024 0.0000 6.0771
# 5 -18.3903 -4.1742 -2.0686 0.0000 49.1803 0.0000
# 6 0.0000 0.0000 0.0000 6.0771 0.0000 29.6558
#
#
#
# Elastic Compliance Matrix: (Units=1/GPa)
#
#
# Indices 1 2 3 4 5 6 
#
# 1 0.012176 -0.011293 -0.003292 0.000000 0.003456 0.000000
# 2 -0.011293 0.041923 -0.003334 0.000000 -0.000805 0.000000
# 3 -0.003292 -0.003334 0.009442 0.000000 -0.001117 0.000000
# 4 0.000000 0.000000 0.000000 0.076587 0.000000 -0.015694
# 5 0.003456 -0.000805 -0.001117 0.000000 0.021510 0.000000
# 6 0.000000 0.000000 0.000000 -0.015694 0.000000 0.036936
#
#
# Mechanical properties :
#
#
# Convention : Reuss Voigt Hill
#
# Bulk Modulus (GPa) = 36.09547 65.91075 51.00311
# Shear Modulus (GPa) = 20.52146 30.96467 25.74307
#
# Velocity S-wave (km/s) = 3.11121 3.82171 3.48462
# Velocity P-wave (km/s) = 5.47099 7.11076 6.34408
#
# Compressibility (1/GPa) = 0.02770431
#
# Stress axis : x y z
#
# Youngs Moduli (GPa) = 82.12552 23.85336 105.90650
#
# Poissons Ratio (x) = 0.26939 0.34860
# Poissons Ratio (y) = 0.92748 0.35304
# Poissons Ratio (z) = 0.27033 0.07952
#
# Static dielectric constant tensor:
#      x y z
#    x 1.814870 0.000000 -0.006940 
#    y 0.000000 1.769310 0.000000 
#    z -0.006940 0.000000 1.810250 
# 
# From -- ./inp_files/236223.got.cif
#   From: 2010.05.17/outbox.cif.g08.bks.cpg/sg15_119_cif.got.tgz:236223.got - 2010.06.03 18:47:42.
