data_PCOD9290925
_publ_section_title
;
Structure prediction by ZEFSAII (Michael W. Deem and Ramdas Pophale) SiO2 
 PCOD9290925
Probable space group: C 2/C
;
_chemical_formula_sum "Si O2"
_cell_formula_units_Z 44
_cell_length_a 9.967197
_cell_length_b 10.229420
_cell_length_c 19.572189
_cell_angle_alpha 90.000000
_cell_angle_beta 65.805622
_cell_angle_gamma 90.000000
_cell_volume 1820.265074
_symmetry_space_group_name_H-M "C 2/C"
_symmetry_group_IT_number 15
_symmetry_cell_setting 'monoclinic'
loop_
_space_group_symop_operation_xyz
x,y,z
-x,y,1/2-z
-x,-y,-z
x,-y,1/2+z
1/2+x,1/2+y,z
1/2-x,1/2+y,1/2-z
1/2-x,1/2-y,-z
1/2+x,1/2-y,1/2+z
loop_
_atom_site_type_symbol
_atom_site_label
_atom_site_fract_x
_atom_site_fract_y
_atom_site_fract_z
Si Si1 0.500000 0.379380 0.250000
Si Si2 0.709860 0.174423 0.741535
Si Si3 0.320810 0.401162 0.859737
Si Si4 0.279095 0.506230 0.602935
Si Si5 0.040023 0.809708 0.529340
Si Si6 0.024371 0.449031 0.398937
O O1 0.635018 0.299193 0.253137
O O2 0.572381 0.476671 0.179122
O O3 0.666515 0.293177 0.702076
O O4 0.738165 0.047613 0.688013
O O5 0.587439 0.137115 0.822125
O O6 0.362721 0.343092 0.924122
O O7 0.156848 0.456442 0.889094
O O8 0.385858 0.384175 0.572057
O O9 0.373502 0.627437 0.551970
O O10 0.128625 0.488934 0.592677
O O11 0.007325 0.657087 0.536085
#
# Coordination Sequence:
#
# PCOD9290925 Si02
#       6
#     4   8   8   8   8   8
#     4  10  22  42  60  96 130 168 212 264 334 372
#     4  11  23  41  68  95 133 166 218 274 321 389
#     4  11  23  41  67  94 128 172 213 268 323 385
#     4  11  24  44  68  97 132 176 216 268 334 380
#     4  11  24  46  67  93 138 172 216 273 322 396
#     4  11  25  41  69  97 128 174 222 266 325 390
#
# _framework density 24.172302999999999
#
# number of rings (size 3 to 8) (size 9 to 14) (size 15 to 20)
#    0.000    1.091    3.636    2.182    2.545    3.636 
#    0.000    1.818    0.000    0.000    0.000    0.000 
#    0.000    0.000    0.000    0.000    0.000    0.000 
#
# Total GULP energy -123409.771574 kJ/mol
# GULP energy per Si atom -5609.535072 kJ/mol
# Density = 2.411729 g / cm^3
# Si number density = 24.172303 Si / 1000 Ang^3
#
#
#
# Elastic Constant Matrix: (Units=GPa)
#
#
# Indices 1 2 3 4 5 6 
#
# 1 160.4550 41.8190 -4.7775 0.0000 -32.1344 0.0000
# 2 41.8190 56.0104 21.1070 0.0000 -9.5071 0.0000
# 3 -4.7775 21.1070 95.9250 0.0000 -14.9482 0.0000
# 4 0.0000 0.0000 0.0000 23.9690 0.0000 -11.8408
# 5 -32.1344 -9.5071 -14.9482 0.0000 29.1007 0.0000
# 6 0.0000 0.0000 0.0000 -11.8408 0.0000 36.0056
#
#
#
# Elastic Compliance Matrix: (Units=1/GPa)
#
#
# Indices 1 2 3 4 5 6 
#
# 1 0.010530 -0.007432 0.003906 0.000000 0.011206 0.000000
# 2 -0.007432 0.025276 -0.006439 0.000000 -0.003256 0.000000
# 3 0.003906 -0.006439 0.013458 0.000000 0.009122 0.000000
# 4 0.000000 0.000000 0.000000 0.049813 0.000000 0.016382
# 5 0.011206 -0.003256 0.009122 0.000000 0.050359 0.000000
# 6 0.000000 0.000000 0.000000 0.016382 0.000000 0.033161
#
#
# Mechanical properties :
#
#
# Convention : Reuss Voigt Hill
#
# Bulk Modulus (GPa) = 34.09044 47.63193 40.86119
# Shear Modulus (GPa) = 23.55104 34.76450 29.15777
#
# Velocity S-wave (km/s) = 3.12476 3.79647 3.47687
# Velocity P-wave (km/s) = 5.21081 6.24224 5.74970
#
# Compressibility (1/GPa) = 0.02933373
#
# Stress axis : x y z
#
# Youngs Moduli (GPa) = 94.97005 39.56278 74.30663
#
# Poissons Ratio (x) = 0.29401 -0.29023
# Poissons Ratio (y) = 0.70578 0.47848
# Poissons Ratio (z) = -0.37094 0.25476
#
# Static dielectric constant tensor:
#      x y z
#    x 1.886680 0.000000 -0.000320 
#    y 0.000000 1.898920 0.000000 
#    z -0.000320 0.000000 1.927860 
# 
# From -- ./inp_files/230148.got.cif
#   From: 2010.05.17/outbox.cif.g08.bks.cpg/sg15_116_cif.got.tgz:230148.got - 2010.06.03 18:47:42.
