data_PCOD9290712
_publ_section_title
;
Structure prediction by ZEFSAII (Michael W. Deem and Ramdas Pophale) SiO2 
 PCOD9290712
Probable space group: C 2/C
;
_chemical_formula_sum "Si O2"
_cell_formula_units_Z 64
_cell_length_a 21.790000
_cell_length_b 5.765246
_cell_length_c 22.784193
_cell_angle_alpha 90.000000
_cell_angle_beta 72.760776
_cell_angle_gamma 90.000000
_cell_volume 2733.672725
_symmetry_space_group_name_H-M "C 2/C"
_symmetry_group_IT_number 15
_symmetry_cell_setting 'monoclinic'
loop_
_space_group_symop_operation_xyz
x,y,z
-x,y,1/2-z
-x,-y,-z
x,-y,1/2+z
1/2+x,1/2+y,z
1/2-x,1/2+y,1/2-z
1/2-x,1/2-y,-z
1/2+x,1/2-y,1/2+z
loop_
_atom_site_type_symbol
_atom_site_label
_atom_site_fract_x
_atom_site_fract_y
_atom_site_fract_z
Si Si1 0.639556 0.638208 0.405168
Si Si2 0.903430 0.232743 0.909320
Si Si3 0.275347 0.645571 0.553865
Si Si4 0.663748 0.605417 0.150517
Si Si5 0.967501 0.393434 0.321771
Si Si6 0.287352 0.455491 0.737101
Si Si7 0.002473 0.138052 0.425530
Si Si8 0.597451 0.931881 0.983583
O O1 0.698716 0.610479 0.435671
O O2 0.672294 0.586197 0.333651
O O3 0.569089 0.516032 0.422531
O O4 0.608484 0.890757 0.427303
O O5 0.948693 0.349759 0.847812
O O6 0.885589 0.429672 0.960716
O O7 0.845468 0.104787 0.893023
O O8 0.946152 0.049363 0.932218
O O9 0.250000 0.750000 0.500000
O O10 0.223580 0.736409 0.614771
O O11 0.345318 0.754633 0.542016
O O12 0.599247 0.754056 0.162607
O O13 0.671807 0.524621 0.214665
O O14 0.008103 0.271619 0.361747
O O15 0.000000 0.389558 0.250000
O O16 0.251478 0.708013 0.744190
O O17 0.970237 0.313953 0.481091
#
# Coordination Sequence:
#
# PCOD9290712 Si02
#       8
#     8   8   8   8   8   8   8   8
#     4  12  26  44  72 100 140 196 240 306 382 449
#     4  10  23  43  70 100 140 187 233 314 371 446
#     4  12  25  43  68 102 138 185 240 297 367 448
#     4  11  24  45  69 101 147 186 245 301 371 456
#     4  10  22  41  69 102 133 183 241 305 375 451
#     4  12  28  50  72 108 153 198 254 312 377 458
#     4  10  23  45  64 101 140 179 244 305 377 456
#     4  11  24  43  69 101 138 183 243 305 377 447
#
# _framework density 23.411729000000001
#
# number of rings (size 3 to 8) (size 9 to 14) (size 15 to 20)
#    0.000    1.000    1.250    5.625    1.750   11.000 
#    0.000    0.000    0.000    0.000    0.000    0.000 
#    0.000    0.000    0.000    0.000    0.000    0.000 
#
# Total GULP energy -178624.757641 kJ/mol
# GULP energy per Si atom -5582.023676 kJ/mol
# Density = 2.335844 g / cm^3
# Si number density = 23.411729 Si / 1000 Ang^3
#
#
#
# Elastic Constant Matrix: (Units=GPa)
#
#
# Indices 1 2 3 4 5 6 
#
# 1 145.1027 31.4136 44.8663 -0.0004 11.1247 -0.0005
# 2 31.4136 53.2315 9.4466 -0.0013 -1.4123 -0.0021
# 3 44.8663 9.4466 99.9667 -0.0010 -2.9786 -0.0010
# 4 -0.0004 -0.0013 -0.0010 34.6315 -0.0001 8.6705
# 5 11.1247 -1.4123 -2.9786 -0.0001 43.4731 -0.0003
# 6 -0.0005 -0.0021 -0.0010 8.6705 -0.0003 28.9801
#
#
#
# Elastic Compliance Matrix: (Units=1/GPa)
#
#
# Indices 1 2 3 4 5 6 
#
# 1 0.009352 -0.004916 -0.003817 0.000000 -0.002814 0.000000
# 2 -0.004916 0.021701 0.000215 0.000000 0.001978 0.000001
# 3 -0.003817 0.000215 0.011749 0.000000 0.001789 0.000000
# 4 0.000000 0.000000 0.000000 0.031214 0.000000 -0.009339
# 5 -0.002814 0.001978 0.001789 0.000000 0.023910 0.000000
# 6 0.000000 0.000001 0.000000 -0.009339 0.000000 0.037300
#
#
# Mechanical properties :
#
#
# Convention : Reuss Voigt Hill
#
# Bulk Modulus (GPa) = 38.81023 52.19488 45.50255
# Shear Modulus (GPa) = 31.08465 35.58857 33.33661
#
# Velocity S-wave (km/s) = 3.64777 3.90310 3.77759
# Velocity P-wave (km/s) = 5.86130 6.53108 6.20523
#
# Compressibility (1/GPa) = 0.02576641
#
# Stress axis : x y z
#
# Youngs Moduli (GPa) = 106.93089 46.07987 85.11195
#
# Poissons Ratio (x) = 0.22654 0.32483
# Poissons Ratio (y) = 0.52569 -0.01827
# Poissons Ratio (z) = 0.40810 -0.00989
#
# Static dielectric constant tensor:
#      x y z
#    x 2.619300 -0.000040 0.199350 
#    y -0.000040 4.243020 0.000000 
#    z 0.199350 0.000000 1.899480 
# 
# From -- ./inp_files/281183.got.cif
#   From: 2010.05.17/outbox.cif.g08.bks.cpg/sg15_141_cif.got.tgz:281183.got - 2010.06.03 18:47:42.
