data_PCOD9290707
_publ_section_title
;
Structure prediction by ZEFSAII (Michael W. Deem and Ramdas Pophale) SiO2 
 PCOD9290707
Probable space group: C 2/C
;
_chemical_formula_sum "Si O2"
_cell_formula_units_Z 44
_cell_length_a 8.762319
_cell_length_b 20.838057
_cell_length_c 13.024842
_cell_angle_alpha 90.000000
_cell_angle_beta 131.907303
_cell_angle_gamma 90.000000
_cell_volume 1769.920776
_symmetry_space_group_name_H-M "C 2/C"
_symmetry_group_IT_number 15
_symmetry_cell_setting 'monoclinic'
loop_
_space_group_symop_operation_xyz
x,y,z
-x,y,1/2-z
-x,-y,-z
x,-y,1/2+z
1/2+x,1/2+y,z
1/2-x,1/2+y,1/2-z
1/2-x,1/2-y,-z
1/2+x,1/2-y,1/2+z
loop_
_atom_site_type_symbol
_atom_site_label
_atom_site_fract_x
_atom_site_fract_y
_atom_site_fract_z
Si Si1 0.829623 0.107413 0.460091
Si Si2 0.250000 0.250000 0.000000
Si Si3 0.796525 0.631940 0.721830
Si Si4 0.752458 0.038556 0.617605
Si Si5 0.773925 0.902552 0.695323
Si Si6 0.161421 0.262190 0.573461
O O1 0.744072 0.171922 0.475544
O O2 0.742960 0.051399 0.492463
O O3 0.231106 0.101355 0.184442
O O4 0.078957 0.107672 0.577785
O O5 0.420641 0.245979 0.984046
O O6 0.817750 0.597360 0.840918
O O7 0.763400 0.709261 0.696244
O O8 0.000000 0.616380 0.750000
O O9 0.000000 0.039453 0.750000
O O10 0.672279 0.968854 0.614343
O O11 0.704008 0.834561 0.622154
O O12 0.000000 0.907404 0.750000
O O13 0.250000 0.250000 0.500000
#
# Coordination Sequence:
#
# PCOD9290707 Si02
#       6
#     8   4   8   8   8   8
#     4  10  23  43  71 102 136 189 233 296 360 419
#     4  10  24  44  70 100 146 176 240 302 348 426
#     4  10  22  41  69 100 141 184 237 287 359 430
#     4   9  22  42  68  97 141 187 231 286 364 426
#     4  11  23  43  72 106 144 182 241 298 353 434
#     4  11  25  44  73 105 139 193 237 298 361 424
#
# _framework density 24.859867000000001
#
# number of rings (size 3 to 8) (size 9 to 14) (size 15 to 20)
#    0.000    1.818    0.000    2.727    5.091    8.727 
#    3.273    0.909    0.000    3.273    0.000    0.000 
#    0.000    0.000    0.000    0.000    0.000    0.000 
#
# Total GULP energy -122588.240053 kJ/mol
# GULP energy per Si atom -5572.192730 kJ/mol
# Density = 2.480329 g / cm^3
# Si number density = 24.859867 Si / 1000 Ang^3
#
#
#
# Elastic Constant Matrix: (Units=GPa)
#
#
# Indices 1 2 3 4 5 6 
#
# 1 224.0165 86.4917 72.6055 0.0000 -15.1685 0.0000
# 2 86.4917 182.7425 65.4493 0.0000 -32.6696 0.0000
# 3 72.6055 65.4493 78.7029 0.0000 -26.9203 0.0000
# 4 0.0000 0.0000 0.0000 29.8499 0.0000 2.9344
# 5 -15.1685 -32.6696 -26.9203 0.0000 48.4310 0.0000
# 6 0.0000 0.0000 0.0000 2.9344 0.0000 49.0070
#
#
#
# Elastic Compliance Matrix: (Units=1/GPa)
#
#
# Indices 1 2 3 4 5 6 
#
# 1 0.006751 -0.001540 -0.005655 0.000000 -0.002067 0.000000
# 2 -0.001540 0.008312 -0.004617 0.000000 0.002558 0.000000
# 3 -0.005655 -0.004617 0.024808 0.000000 0.008904 0.000000
# 4 0.000000 0.000000 0.000000 0.033699 0.000000 -0.002018
# 5 -0.002067 0.002558 0.008904 0.000000 0.026676 0.000000
# 6 0.000000 0.000000 0.000000 -0.002018 0.000000 0.020526
#
#
# Mechanical properties :
#
#
# Convention : Reuss Voigt Hill
#
# Bulk Modulus (GPa) = 61.54518 103.83942 82.69230
# Shear Modulus (GPa) = 33.37564 42.85195 38.11379
#
# Velocity S-wave (km/s) = 3.66806 4.15630 3.91979
# Velocity P-wave (km/s) = 6.53836 8.05566 7.33634
#
# Compressibility (1/GPa) = 0.01624823
#
# Stress axis : x y z
#
# Youngs Moduli (GPa) = 148.12103 120.31277 40.31014
#
# Poissons Ratio (x) = 0.18523 0.22795
# Poissons Ratio (y) = 0.22805 0.18609
# Poissons Ratio (z) = 0.83763 0.55543
#
# Static dielectric constant tensor:
#      x y z
#    x 1.795350 0.000000 0.043870 
#    y 0.000000 2.008910 0.000000 
#    z 0.043870 0.000000 2.065310 
# 
# From -- ./inp_files/191818.got.cif
#   From: 2010.05.17/outbox.cif.g08.bks.cpg/sg15_96_cif.got.tgz:191818.got - 2010.06.03 18:47:42.
