data_PCOD9290807
_publ_section_title
;
Structure prediction by ZEFSAII (Michael W. Deem and Ramdas Pophale) SiO2 
 PCOD9290807
Probable space group: C 2/C
;
_chemical_formula_sum "Si O2"
_cell_formula_units_Z 64
_cell_length_a 22.395686
_cell_length_b 9.998783
_cell_length_c 13.201740
_cell_angle_alpha 90.000000
_cell_angle_beta 115.096938
_cell_angle_gamma 90.000000
_cell_volume 2677.164209
_symmetry_space_group_name_H-M "C 2/C"
_symmetry_group_IT_number 15
_symmetry_cell_setting 'monoclinic'
loop_
_space_group_symop_operation_xyz
x,y,z
-x,y,1/2-z
-x,-y,-z
x,-y,1/2+z
1/2+x,1/2+y,z
1/2-x,1/2+y,1/2-z
1/2-x,1/2-y,-z
1/2+x,1/2-y,1/2+z
loop_
_atom_site_type_symbol
_atom_site_label
_atom_site_fract_x
_atom_site_fract_y
_atom_site_fract_z
Si Si1 0.410768 0.090845 0.280972
Si Si2 0.173141 0.743462 0.823796
Si Si3 0.210463 0.438179 0.196297
Si Si4 0.082608 0.244573 0.530962
Si Si5 0.165992 0.990542 0.590193
Si Si6 0.566099 0.275963 0.599990
Si Si7 0.754500 0.472733 0.985486
Si Si8 0.563053 0.960001 0.931066
O O1 0.402850 0.751852 0.265759
O O2 0.412723 0.230253 0.344307
O O3 0.409440 0.088438 0.158312
O O4 0.482997 0.029827 0.359762
O O5 0.205371 0.710096 0.737521
O O6 0.152548 0.481407 0.713760
O O7 0.203832 0.874410 0.892297
O O8 0.198732 0.624515 0.914686
O O9 0.281262 0.487561 0.283749
O O10 0.207109 0.450288 0.074135
O O11 0.137671 0.137948 0.541564
O O12 0.086009 0.391604 0.481684
O O13 0.010724 0.192098 0.450598
O O14 0.210037 0.939734 0.528221
O O15 0.106593 0.898469 0.581860
O O16 0.573214 0.151623 0.526030
#
# Coordination Sequence:
#
# PCOD9290807 Si02
#       8
#     8   8   8   8   8   8   8   8
#     4  10  23  42  70  98 131 184 232 293 348 414
#     4  10  22  41  70  93 136 182 238 284 348 423
#     4  11  23  42  68  99 137 182 233 292 353 417
#     4  11  24  44  73  99 140 189 233 294 357 418
#     4  11  26  42  68 101 146 183 233 285 359 429
#     4  11  22  47  69 104 139 184 235 295 353 432
#     4  10  24  44  66  99 141 184 230 297 353 417
#     4  10  23  46  69 100 137 176 240 295 349 413
#
# _framework density 23.905892999999999
#
# number of rings (size 3 to 8) (size 9 to 14) (size 15 to 20)
#    0.000    1.500    1.250    3.375    7.000    4.000 
#    0.000    3.750    0.000    0.000    0.000    0.000 
#    0.000    0.000    0.000    0.000    0.000    0.000 
#
# Total GULP energy -178906.091172 kJ/mol
# GULP energy per Si atom -5590.815349 kJ/mol
# Density = 2.385148 g / cm^3
# Si number density = 23.905893 Si / 1000 Ang^3
#
#
#
# Elastic Constant Matrix: (Units=GPa)
#
#
# Indices 1 2 3 4 5 6 
#
# 1 116.7853 16.7097 43.8785 0.0000 3.8438 0.0000
# 2 16.7097 44.0219 12.6582 0.0000 10.4864 0.0000
# 3 43.8785 12.6582 149.5744 0.0000 8.0464 0.0000
# 4 0.0000 0.0000 0.0000 33.1096 0.0000 0.4261
# 5 3.8438 10.4864 8.0464 0.0000 51.9334 0.0000
# 6 0.0000 0.0000 0.0000 0.4261 0.0000 35.9996
#
#
#
# Elastic Compliance Matrix: (Units=1/GPa)
#
#
# Indices 1 2 3 4 5 6 
#
# 1 0.010006 -0.003097 -0.002690 0.000000 0.000301 0.000000
# 2 -0.003097 0.025299 -0.000978 0.000000 -0.004728 0.000000
# 3 -0.002690 -0.000978 0.007599 0.000000 -0.000781 0.000000
# 4 0.000000 0.000000 0.000000 0.030207 0.000000 -0.000358
# 5 0.000301 -0.004728 -0.000781 0.000000 0.020309 0.000000
# 6 0.000000 0.000000 0.000000 -0.000358 0.000000 0.027782
#
#
# Mechanical properties :
#
#
# Convention : Reuss Voigt Hill
#
# Bulk Modulus (GPa) = 34.04172 50.76382 42.40277
# Shear Modulus (GPa) = 34.59638 40.01754 37.30696
#
# Velocity S-wave (km/s) = 3.80832 4.09585 3.95470
# Velocity P-wave (km/s) = 5.79729 6.60673 6.21520
#
# Compressibility (1/GPa) = 0.02937572
#
# Stress axis : x y z
#
# Youngs Moduli (GPa) = 99.93611 39.52757 131.58880
#
# Poissons Ratio (x) = 0.12240 0.35392
# Poissons Ratio (y) = 0.30946 0.12873
# Poissons Ratio (z) = 0.26879 0.03867
#
# Static dielectric constant tensor:
#      x y z
#    x 1.975640 0.000000 0.004330 
#    y 0.000000 1.934720 0.000000 
#    z 0.004330 0.000000 1.979950 
# 
# From -- ./inp_files/180547.got.cif
#   From: 2010.05.17/outbox.cif.g08.bks.cpg/sg15_91_cif.got.tgz:180547.got - 2010.06.03 18:47:42.
