data_PCOD9290613
_publ_section_title
;
Structure prediction by ZEFSAII (Michael W. Deem and Ramdas Pophale) SiO2 
 PCOD9290613
Probable space group: C 2/C
;
_chemical_formula_sum "Si O2"
_cell_formula_units_Z 60
_cell_length_a 22.617569
_cell_length_b 12.890469
_cell_length_c 16.068789
_cell_angle_alpha 90.000000
_cell_angle_beta 37.767014
_cell_angle_gamma 90.000000
_cell_volume 2869.259858
_symmetry_space_group_name_H-M "C 2/C"
_symmetry_group_IT_number 15
_symmetry_cell_setting 'monoclinic'
loop_
_space_group_symop_operation_xyz
x,y,z
-x,y,1/2-z
-x,-y,-z
x,-y,1/2+z
1/2+x,1/2+y,z
1/2-x,1/2+y,1/2-z
1/2-x,1/2-y,-z
1/2+x,1/2-y,1/2+z
loop_
_atom_site_type_symbol
_atom_site_label
_atom_site_fract_x
_atom_site_fract_y
_atom_site_fract_z
Si Si1 0.144498 0.144832 0.725491
Si Si2 0.637863 0.896631 0.493315
Si Si3 0.000326 0.877271 0.972458
Si Si4 0.204974 0.199012 0.968984
Si Si5 0.393502 0.827540 0.151364
Si Si6 0.500000 0.750216 0.750000
Si Si7 0.559623 0.875638 0.098496
Si Si8 0.922455 0.051813 0.279820
O O1 0.258910 0.157778 0.602610
O O2 0.093037 0.162535 0.872198
O O3 0.079488 0.196940 0.724780
O O4 0.138130 0.023127 0.709977
O O5 0.620053 0.895152 0.414938
O O6 0.560648 0.823419 0.622246
O O7 0.616257 0.015212 0.544119
O O8 0.082142 0.791784 0.903944
O O9 0.017127 0.879855 0.853873
O O10 0.000000 0.000000 0.000000
O O11 0.293678 0.167746 0.812709
O O12 0.250000 0.250000 0.000000
O O13 0.137283 0.284373 0.001802
O O14 0.143006 0.108730 0.080439
O O15 0.481505 0.867717 0.111061
O O16 0.500000 0.857067 0.250000
O O17 0.000000 0.992387 0.250000
#
# Coordination Sequence:
#
# PCOD9290613 Si02
#       8
#     8   8   8   8   8   4   8   8
#     4  11  25  46  70 103 134 178 239 290 346 415
#     4  12  28  46  72 100 139 186 237 287 350 418
#     4  10  22  41  67  98 143 174 221 292 344 394
#     4  12  23  40  71 106 140 181 229 280 347 423
#     4  12  26  45  70 107 144 187 229 288 355 413
#     4  12  24  52  74  94 134 182 238 296 350 412
#     4  12  25  47  71 101 146 186 233 288 343 416
#     4  11  22  40  69 103 138 179 224 282 352 411
#
# _framework density 20.911314999999998
#
# number of rings (size 3 to 8) (size 9 to 14) (size 15 to 20)
#    0.000    0.533    5.333    2.800    5.600    0.000 
#    0.000    1.333    0.000    0.000    0.000    0.000 
#    0.000    0.000    0.000    0.000    0.000    0.000 
#
# Total GULP energy -167165.034058 kJ/mol
# GULP energy per Si atom -5572.167802 kJ/mol
# Density = 2.086372 g / cm^3
# Si number density = 20.911315 Si / 1000 Ang^3
#
#
#
# Elastic Constant Matrix: (Units=GPa)
#
#
# Indices 1 2 3 4 5 6 
#
# 1 85.9092 2.9719 47.0084 0.0000 -23.0490 0.0000
# 2 2.9719 56.8602 33.6207 0.0000 -11.2531 0.0000
# 3 47.0084 33.6207 164.8918 0.0000 -9.0696 0.0000
# 4 0.0000 0.0000 0.0000 29.3818 0.0000 -1.3942
# 5 -23.0490 -11.2531 -9.0696 0.0000 23.4535 0.0000
# 6 0.0000 0.0000 0.0000 -1.3942 0.0000 26.5523
#
#
#
# Elastic Compliance Matrix: (Units=1/GPa)
#
#
# Indices 1 2 3 4 5 6 
#
# 1 0.020246 0.006578 -0.005972 0.000000 0.020744 0.000000
# 2 0.006578 0.023805 -0.005870 0.000000 0.015617 0.000000
# 3 -0.005972 -0.005870 0.008671 0.000000 -0.005333 0.000000
# 4 0.000000 0.000000 0.000000 0.034120 0.000000 0.001792
# 5 0.020744 0.015617 -0.005333 0.000000 0.068454 0.000000
# 6 0.000000 0.000000 0.000000 0.001792 0.000000 0.037756
#
#
# Mechanical properties :
#
#
# Convention : Reuss Voigt Hill
#
# Bulk Modulus (GPa) = 23.70022 52.76259 38.23141
# Shear Modulus (GPa) = 22.97337 30.81487 26.89412
#
# Velocity S-wave (km/s) = 3.31812 3.84291 3.59012
# Velocity P-wave (km/s) = 5.10277 6.70649 5.95883
#
# Compressibility (1/GPa) = 0.04219370
#
# Stress axis : x y z
#
# Youngs Moduli (GPa) = 49.39259 42.00837 115.33016
#
# Poissons Ratio (x) = -0.27635 0.68877
# Poissons Ratio (y) = -0.32493 0.67701
# Poissons Ratio (z) = 0.29498 0.24660
#
# Static dielectric constant tensor:
#      x y z
#    x 1.771030 0.000000 -0.002610 
#    y 0.000000 1.803080 0.000000 
#    z -0.002610 0.000000 1.657580 
# 
# From -- ./inp_files/222545.got.cif
#   From: 2010.05.17/outbox.cif.g08.bks.cpg/sg15_112_cif.got.tgz:222545.got - 2010.06.03 18:47:42.
