data_PCOD9290302
_publ_section_title
;
Structure prediction by ZEFSAII (Michael W. Deem and Ramdas Pophale) SiO2 
 PCOD9290302
Probable space group: C 2/C
;
_chemical_formula_sum "Si O2"
_cell_formula_units_Z 48
_cell_length_a 18.545376
_cell_length_b 14.114208
_cell_length_c 17.450712
_cell_angle_alpha 90.000000
_cell_angle_beta 26.757662
_cell_angle_gamma 90.000000
_cell_volume 2056.496712
_symmetry_space_group_name_H-M "C 2/C"
_symmetry_group_IT_number 15
_symmetry_cell_setting 'monoclinic'
loop_
_space_group_symop_operation_xyz
x,y,z
-x,y,1/2-z
-x,-y,-z
x,-y,1/2+z
1/2+x,1/2+y,z
1/2-x,1/2+y,1/2-z
1/2-x,1/2-y,-z
1/2+x,1/2-y,1/2+z
loop_
_atom_site_type_symbol
_atom_site_label
_atom_site_fract_x
_atom_site_fract_y
_atom_site_fract_z
Si Si1 0.627492 0.060576 0.829879
Si Si2 0.768985 0.126394 0.127433
Si Si3 0.359570 0.686582 0.713374
Si Si4 0.882743 0.296452 0.288263
Si Si5 0.307236 0.397134 0.419040
Si Si6 0.678759 0.395915 0.602311
O O1 0.753033 0.123624 0.758452
O O2 0.555250 0.138550 0.838925
O O3 0.729543 0.979876 0.689792
O O4 0.500000 0.000000 0.000000
O O5 0.662282 0.201267 0.276080
O O6 0.731907 0.129226 0.071605
O O7 0.955906 0.153475 0.962846
O O8 0.281643 0.668931 0.871042
O O9 0.741126 0.352997 0.463442
O O10 0.826550 0.187948 0.329598
O O11 0.000000 0.290640 0.250000
O O12 0.500000 0.392543 0.250000
O O13 0.246781 0.502218 0.451454
O O14 0.500000 0.421076 0.750000
#
# Coordination Sequence:
#
# PCOD9290302 Si02
#       6
#     8   8   8   8   8   8
#     4  12  27  44  63  98 143 182 226 277 342 405
#     4  11  23  48  67  96 134 177 227 276 334 412
#     4  11  25  44  68 101 129 177 218 282 343 400
#     4  10  22  41  64  99 130 174 223 280 333 396
#     4   9  19  38  70  96 125 172 224 272 330 404
#     4   9  18  39  67  97 124 163 227 277 335 392
#
# _framework density 23.340664
#
# number of rings (size 3 to 8) (size 9 to 14) (size 15 to 20)
#    0.000    1.667    1.667    2.000    2.333    1.333 
#   15.000    2.500    0.000    0.000    0.000    0.000 
#    0.000    0.000    0.000    0.000    0.000    0.000 
#
# Total GULP energy -133953.957581 kJ/mol
# GULP energy per Si atom -5581.414899 kJ/mol
# Density = 2.328754 g / cm^3
# Si number density = 23.340664 Si / 1000 Ang^3
#
#
#
# Elastic Constant Matrix: (Units=GPa)
#
#
# Indices 1 2 3 4 5 6 
#
# 1 78.6272 40.9983 10.3607 -0.0006 3.3129 0.0003
# 2 40.9983 176.0015 4.9448 -0.0019 13.4809 0.0014
# 3 10.3607 4.9448 50.1894 -0.0017 4.6690 0.0006
# 4 -0.0006 -0.0019 -0.0017 38.0596 0.0007 1.2963
# 5 3.3129 13.4809 4.6690 0.0007 23.1477 -0.0005
# 6 0.0003 0.0014 0.0006 1.2963 -0.0005 17.7110
#
#
#
# Elastic Compliance Matrix: (Units=1/GPa)
#
#
# Indices 1 2 3 4 5 6 
#
# 1 0.014844 -0.003412 -0.002767 0.000000 0.000421 0.000000
# 2 -0.003412 0.006735 0.000367 0.000000 -0.003508 -0.000001
# 3 -0.002767 0.000367 0.020834 0.000001 -0.004020 -0.000001
# 4 0.000000 0.000000 0.000001 0.026340 -0.000001 -0.001928
# 5 0.000421 -0.003508 -0.004020 -0.000001 0.045995 0.000002
# 6 0.000000 -0.000001 -0.000001 -0.001928 0.000002 0.056603
#
#
# Mechanical properties :
#
#
# Convention : Reuss Voigt Hill
#
# Bulk Modulus (GPa) = 32.48016 46.38067 39.43041
# Shear Modulus (GPa) = 25.87473 32.35127 29.11300
#
# Velocity S-wave (km/s) = 3.33313 3.72700 3.53556
# Velocity P-wave (km/s) = 5.36273 6.19960 5.79629
#
# Compressibility (1/GPa) = 0.03078802
#
# Stress axis : x y z
#
# Youngs Moduli (GPa) = 67.36512 148.47692 47.99945
#
# Poissons Ratio (x) = 0.50666 0.13283
# Poissons Ratio (y) = 0.22988 -0.01763
# Poissons Ratio (z) = 0.18642 -0.05452
#
# Static dielectric constant tensor:
#      x y z
#    x 1.876950 0.000000 0.024940 
#    y 0.000000 1.897180 0.000000 
#    z 0.024940 0.000000 1.873050 
# 
# From -- ./inp_files/211294.got.cif
#   From: 2010.05.17/outbox.cif.g08.bks.cpg/sg15_106_cif.got.tgz:211294.got - 2010.06.03 18:47:42.
