data_PCOD9290976
_publ_section_title
;
Structure prediction by ZEFSAII (Michael W. Deem and Ramdas Pophale) SiO2 
 PCOD9290976
Probable space group: C 2/C
;
_chemical_formula_sum "Si O2"
_cell_formula_units_Z 48
_cell_length_a 24.014672
_cell_length_b 10.325461
_cell_length_c 28.069032
_cell_angle_alpha 90.000000
_cell_angle_beta 162.418976
_cell_angle_gamma 90.000000
_cell_volume 2102.317961
_symmetry_space_group_name_H-M "C 2/C"
_symmetry_group_IT_number 15
_symmetry_cell_setting 'monoclinic'
loop_
_space_group_symop_operation_xyz
x,y,z
-x,y,1/2-z
-x,-y,-z
x,-y,1/2+z
1/2+x,1/2+y,z
1/2-x,1/2+y,1/2-z
1/2-x,1/2-y,-z
1/2+x,1/2-y,1/2+z
loop_
_atom_site_type_symbol
_atom_site_label
_atom_site_fract_x
_atom_site_fract_y
_atom_site_fract_z
Si Si1 0.065593 0.537041 0.749761
Si Si2 0.879778 0.825782 0.983486
Si Si3 0.451303 0.312127 0.660248
Si Si4 0.343371 0.601501 0.355672
Si Si5 0.425108 0.040570 0.038946
Si Si6 0.876308 0.959311 0.779709
O O1 0.000000 0.510324 0.750000
O O2 0.095732 0.692145 0.772466
O O3 0.922895 0.519228 0.589713
O O4 0.223081 0.432938 0.865710
O O5 0.858413 0.688729 0.990662
O O6 0.875522 0.794460 0.923500
O O7 0.061848 0.900812 0.149569
O O8 0.500000 0.378146 0.750000
O O9 0.250000 0.250000 0.500000
O O10 0.470443 0.405344 0.631324
O O11 0.500000 0.500000 0.500000
O O12 0.363769 0.629708 0.316559
O O13 0.137310 0.546411 0.194399
O O14 0.302870 0.970869 0.899412
#
# Coordination Sequence:
#
# PCOD9290976 Si02
#       6
#     8   8   8   8   8   8
#     4  10  22  42  64  90 131 174 216 266 331 378
#     4  10  22  42  62  91 139 167 207 276 323 382
#     4  11  23  42  64  92 128 166 217 276 318 381
#     4   9  21  42  62  90 129 170 210 264 326 384
#     4  11  22  41  65  96 129 167 219 273 316 396
#     4  11  21  39  66  95 124 174 223 260 329 390
#
# _framework density 22.831939999999999
#
# number of rings (size 3 to 8) (size 9 to 14) (size 15 to 20)
#    0.000    1.667    0.000    5.500    0.000    0.667 
#   27.000    3.333    0.000    0.000    0.000    0.000 
#    0.000    0.000    0.000    0.000    0.000    0.000 
#
# Total GULP energy -133957.724404 kJ/mol
# GULP energy per Si atom -5581.571850 kJ/mol
# Density = 2.277997 g / cm^3
# Si number density = 22.831940 Si / 1000 Ang^3
#
#
#
# Elastic Constant Matrix: (Units=GPa)
#
#
# Indices 1 2 3 4 5 6 
#
# 1 159.2341 21.3898 43.0104 -0.0041 -55.4117 0.0004
# 2 21.3898 55.6540 6.6216 -0.0021 -8.6323 0.0031
# 3 43.0104 6.6216 130.3929 -0.0097 -22.0349 0.0035
# 4 -0.0041 -0.0021 -0.0097 32.7636 -0.0005 3.1516
# 5 -55.4117 -8.6323 -22.0349 -0.0005 50.8692 0.0025
# 6 0.0004 0.0031 0.0035 3.1516 0.0025 20.6479
#
#
#
# Elastic Compliance Matrix: (Units=1/GPa)
#
#
# Indices 1 2 3 4 5 6 
#
# 1 0.010704 -0.002281 -0.001629 0.000001 0.010567 -0.000001
# 2 -0.002281 0.018963 -0.000094 0.000001 0.000693 -0.000003
# 3 -0.001629 -0.000094 0.008533 0.000003 0.001906 -0.000002
# 4 0.000001 0.000001 0.000003 0.030977 0.000003 -0.004728
# 5 0.010567 0.000693 0.001906 0.000003 0.032112 -0.000005
# 6 -0.000001 -0.000003 -0.000002 -0.004728 -0.000005 0.049153
#
#
# Mechanical properties :
#
#
# Convention : Reuss Voigt Hill
#
# Bulk Modulus (GPa) = 33.12018 54.14717 43.63367
# Shear Modulus (GPa) = 29.67134 39.14007 34.40571
#
# Velocity S-wave (km/s) = 3.60884 4.14486 3.88611
# Velocity P-wave (km/s) = 5.64824 6.83180 6.26802
#
# Compressibility (1/GPa) = 0.03019307
#
# Stress axis : x y z
#
# Youngs Moduli (GPa) = 93.42668 52.73310 117.18762
#
# Poissons Ratio (x) = 0.12028 0.19091
# Poissons Ratio (y) = 0.21310 0.01096
# Poissons Ratio (z) = 0.15220 0.00493
#
# Static dielectric constant tensor:
#      x y z
#    x 1.860380 -0.000010 0.015720 
#    y -0.000010 1.817520 -0.000010 
#    z 0.015720 -0.000010 1.937920 
# 
# From -- ./inp_files/302233.got.cif
#   From: 2010.05.17/outbox.cif.g08.bks.cpg/sg15_152_cif.got.tgz:302233.got - 2010.06.03 18:47:42.
