data_PCOD9290334
_publ_section_title
;
Structure prediction by ZEFSAII (Michael W. Deem and Ramdas Pophale) SiO2 
 PCOD9290334
Probable space group: C 2/C
;
_chemical_formula_sum "Si O2"
_cell_formula_units_Z 56
_cell_length_a 31.787805
_cell_length_b 11.692984
_cell_length_c 15.311299
_cell_angle_alpha 90.000000
_cell_angle_beta 28.453239
_cell_angle_gamma 90.000000
_cell_volume 2711.486193
_symmetry_space_group_name_H-M "C 2/C"
_symmetry_group_IT_number 15
_symmetry_cell_setting 'monoclinic'
loop_
_space_group_symop_operation_xyz
x,y,z
-x,y,1/2-z
-x,-y,-z
x,-y,1/2+z
1/2+x,1/2+y,z
1/2-x,1/2+y,1/2-z
1/2-x,1/2-y,-z
1/2+x,1/2-y,1/2+z
loop_
_atom_site_type_symbol
_atom_site_label
_atom_site_fract_x
_atom_site_fract_y
_atom_site_fract_z
Si Si1 0.021840 0.818531 0.435019
Si Si2 0.383069 0.499889 0.131453
Si Si3 0.240874 0.887130 0.497087
Si Si4 0.282436 0.526052 0.138862
Si Si5 0.095698 0.757443 0.125669
Si Si6 0.930668 0.597500 0.611941
Si Si7 0.904866 0.468408 0.963652
O O1 0.081282 0.758154 0.254993
O O2 0.965019 0.911219 0.484020
O O3 0.960439 0.722010 0.588063
O O4 0.077916 0.882801 0.404117
O O5 0.319397 0.555221 0.320285
O O6 0.335362 0.484111 0.127184
O O7 0.250000 0.750000 0.500000
O O8 0.213450 0.935190 0.450010
O O9 0.340083 0.933025 0.323103
O O10 0.179850 0.545628 0.356096
O O11 0.334079 0.643114 0.022132
O O12 0.127459 0.632037 0.040688
O O13 0.000000 0.774108 0.250000
O O14 0.920712 0.599384 0.525566
O O15 0.000000 0.500000 0.500000
O O16 0.000000 0.511026 0.750000
#
# Coordination Sequence:
#
# PCOD9290334 Si02
#       7
#     8   8   8   8   8   8   8
#     4  11  21  41  67 100 131 172 227 272 339 395
#     4  11  23  40  70 100 130 174 227 287 322 398
#     4  11  24  43  66  96 136 181 219 272 343 403
#     4  11  24  40  65 104 129 171 230 274 333 399
#     4  11  19  40  71  92 128 175 223 274 326 401
#     4  11  23  41  63  93 131 173 212 267 337 405
#     4  10  22  41  65  90 124 176 217 265 334 401
#
# _framework density 20.65288
#
# number of rings (size 3 to 8) (size 9 to 14) (size 15 to 20)
#    0.000    1.143    7.143    0.000    4.000    0.000 
#    5.143    1.429    0.000    0.857    0.000    0.000 
#    0.000    0.000    0.000    0.000    0.000    0.000 
#
# Total GULP energy -156114.335197 kJ/mol
# GULP energy per Si atom -5575.511971 kJ/mol
# Density = 2.060587 g / cm^3
# Si number density = 20.652880 Si / 1000 Ang^3
#
#
#
# Elastic Constant Matrix: (Units=GPa)
#
#
# Indices 1 2 3 4 5 6 
#
# 1 70.9998 17.2379 5.3861 0.0000 2.6465 0.0000
# 2 17.2379 34.9062 4.0142 0.0000 -11.4778 0.0000
# 3 5.3861 4.0142 77.2867 0.0000 -2.0616 0.0000
# 4 0.0000 0.0000 0.0000 37.8160 0.0000 -4.3274
# 5 2.6465 -11.4778 -2.0616 0.0000 28.5110 0.0000
# 6 0.0000 0.0000 0.0000 -4.3274 0.0000 12.8758
#
#
#
# Elastic Compliance Matrix: (Units=1/GPa)
#
#
# Indices 1 2 3 4 5 6 
#
# 1 0.016801 -0.010070 -0.000799 0.000000 -0.005671 0.000000
# 2 -0.010070 0.039199 -0.000890 0.000000 0.016651 0.000000
# 3 -0.000799 -0.000890 0.013058 0.000000 0.000660 0.000000
# 4 0.000000 0.000000 0.000000 0.027502 0.000000 0.009243
# 5 -0.005671 0.016651 0.000660 0.000000 0.042352 0.000000
# 6 0.000000 0.000000 0.000000 0.009243 0.000000 0.080771
#
#
# Mechanical properties :
#
#
# Convention : Reuss Voigt Hill
#
# Bulk Modulus (GPa) = 21.95874 26.27436 24.11655
# Shear Modulus (GPa) = 19.35123 26.27751 22.81437
#
# Velocity S-wave (km/s) = 3.06433 3.57086 3.32725
# Velocity P-wave (km/s) = 4.81409 5.45444 5.14424
#
# Compressibility (1/GPa) = 0.04553995
#
# Stress axis : x y z
#
# Youngs Moduli (GPa) = 59.51864 25.51111 76.57921
#
# Poissons Ratio (x) = 0.25690 0.06120
# Poissons Ratio (y) = 0.59936 0.06816
# Poissons Ratio (z) = 0.04756 0.02271
#
# Static dielectric constant tensor:
#      x y z
#    x 1.737650 0.000000 -0.033380 
#    y 0.000000 1.755130 0.000000 
#    z -0.033380 0.000000 1.768930 
# 
# From -- ./inp_files/181909.got.cif
#   From: 2010.05.17/outbox.cif.g08.bks.cpg/sg15_91_cif.got.tgz:181909.got - 2010.06.03 18:47:42.
