data_PCOD9290124
_publ_section_title
;
Structure prediction by ZEFSAII (Michael W. Deem and Ramdas Pophale) SiO2 
 PCOD9290124
Probable space group: C 2/C
;
_chemical_formula_sum "Si O2"
_cell_formula_units_Z 32
_cell_length_a 10.440238
_cell_length_b 5.256030
_cell_length_c 23.464190
_cell_angle_alpha 90.000000
_cell_angle_beta 105.977087
_cell_angle_gamma 90.000000
_cell_volume 1237.841965
_symmetry_space_group_name_H-M "C 2/C"
_symmetry_group_IT_number 15
_symmetry_cell_setting 'monoclinic'
loop_
_space_group_symop_operation_xyz
x,y,z
-x,y,1/2-z
-x,-y,-z
x,-y,1/2+z
1/2+x,1/2+y,z
1/2-x,1/2+y,1/2-z
1/2-x,1/2-y,-z
1/2+x,1/2-y,1/2+z
loop_
_atom_site_type_symbol
_atom_site_label
_atom_site_fract_x
_atom_site_fract_y
_atom_site_fract_z
Si Si1 0.859727 0.712380 0.930348
Si Si2 0.652411 0.868097 0.673616
Si Si3 0.153265 0.438601 0.455720
Si Si4 0.405222 0.372265 0.786180
O O1 0.805529 0.487942 0.881706
O O2 0.015170 0.712386 0.929359
O O3 0.741777 0.923759 0.917812
O O4 0.879067 0.650790 0.999940
O O5 0.558983 0.088876 0.689129
O O6 0.768297 0.845077 0.734558
O O7 0.598208 0.582677 0.664730
O O8 0.250000 0.250000 0.500000
O O9 0.500000 0.480777 0.750000
#
# Coordination Sequence:
#
# PCOD9290124 Si02
#       4
#     8   8   8   8
#     4  10  23  39  62  95 124 170 218 270 334 402
#     4  10  23  39  62  94 121 166 212 261 329 391
#     4  10  22  41  62  90 131 162 221 271 327 402
#     4  10  22  41  62  89 129 157 215 266 320 394
#
# _framework density 25.851444000000001
#
# number of rings (size 3 to 8) (size 9 to 14) (size 15 to 20)
#    0.000    2.000    0.000    1.500    7.000    2.000 
#    0.000    0.000    0.000    0.000    0.000    0.000 
#    0.000    0.000    0.000    0.000    0.000    0.000 
#
# Total GULP energy -89105.419500 kJ/mol
# GULP energy per Si atom -5569.088719 kJ/mol
# Density = 2.579261 g / cm^3
# Si number density = 25.851444 Si / 1000 Ang^3
#
#
#
# Elastic Constant Matrix: (Units=GPa)
#
#
# Indices 1 2 3 4 5 6 
#
# 1 151.7913 68.0291 32.6721 0.0000 -9.1193 0.0000
# 2 68.0291 116.2347 26.8000 0.0000 12.2729 0.0000
# 3 32.6721 26.8000 82.8725 0.0000 -13.4634 0.0000
# 4 0.0000 0.0000 0.0000 45.6240 0.0000 -6.0213
# 5 -9.1193 12.2729 -13.4634 0.0000 36.6034 0.0000
# 6 0.0000 0.0000 0.0000 -6.0213 0.0000 30.9066
#
#
#
# Elastic Compliance Matrix: (Units=1/GPa)
#
#
# Indices 1 2 3 4 5 6 
#
# 1 0.009694 -0.005776 -0.001326 0.000000 0.003864 0.000000
# 2 -0.005776 0.013488 -0.003247 0.000000 -0.007156 0.000000
# 3 -0.001326 -0.003247 0.014638 0.000000 0.006142 0.000000
# 4 0.000000 0.000000 0.000000 0.022497 0.000000 0.004383
# 5 0.003864 -0.007156 0.006142 0.000000 0.032941 0.000000
# 6 0.000000 0.000000 0.000000 0.004383 0.000000 0.033209
#
#
# Mechanical properties :
#
#
# Convention : Reuss Voigt Hill
#
# Bulk Modulus (GPa) = 58.40818 67.32232 62.86525
# Shear Modulus (GPa) = 32.70681 37.51995 35.11338
#
# Velocity S-wave (km/s) = 3.56080 3.81382 3.68948
# Velocity P-wave (km/s) = 6.28876 6.74478 6.52076
#
# Compressibility (1/GPa) = 0.01712089
#
# Stress axis : x y z
#
# Youngs Moduli (GPa) = 103.15366 74.13934 68.31710
#
# Poissons Ratio (x) = 0.42823 0.09061
# Poissons Ratio (y) = 0.59582 0.22184
# Poissons Ratio (z) = 0.13681 0.24075
#
# Static dielectric constant tensor:
#      x y z
#    x 2.113410 0.000000 -0.017890 
#    y 0.000000 2.093800 0.000000 
#    z -0.017890 0.000000 2.111150 
# 
# From -- ./inp_files/266976.got.cif
#   From: 2010.05.17/outbox.cif.g08.bks.cpg/sg15_134_cif.got.tgz:266976.got - 2010.06.03 18:47:42.
