data_PCOD9290116
_publ_section_title
;
Structure prediction by ZEFSAII (Michael W. Deem and Ramdas Pophale) SiO2 
 PCOD9290116
Probable space group: C 2/C
;
_chemical_formula_sum "Si O2"
_cell_formula_units_Z 32
_cell_length_a 10.148647
_cell_length_b 15.893480
_cell_length_c 9.445301
_cell_angle_alpha 90.000000
_cell_angle_beta 56.502347
_cell_angle_gamma 90.000000
_cell_volume 1270.460928
_symmetry_space_group_name_H-M "C 2/C"
_symmetry_group_IT_number 15
_symmetry_cell_setting 'monoclinic'
loop_
_space_group_symop_operation_xyz
x,y,z
-x,y,1/2-z
-x,-y,-z
x,-y,1/2+z
1/2+x,1/2+y,z
1/2-x,1/2+y,1/2-z
1/2-x,1/2-y,-z
1/2+x,1/2-y,1/2+z
loop_
_atom_site_type_symbol
_atom_site_label
_atom_site_fract_x
_atom_site_fract_y
_atom_site_fract_z
Si Si1 0.264002 0.147860 0.400250
Si Si2 0.000000 0.669636 0.750000
Si Si3 0.788372 0.045321 0.631355
Si Si4 0.000000 0.005913 0.250000
Si Si5 0.492306 0.767335 0.556361
O O1 0.382256 0.163311 0.460135
O O2 0.088153 0.182132 0.531208
O O3 0.267420 0.051821 0.351612
O O4 0.336261 0.209909 0.236681
O O5 0.147503 0.609855 0.698685
O O6 0.961676 0.723839 0.910132
O O7 0.907753 0.056540 0.427319
O O8 0.873199 0.045902 0.733276
#
# Coordination Sequence:
#
# PCOD9290116 Si02
#       5
#     8   4   8   4   8
#     4  10  22  41  62  88 127 170 209 254 315 379
#     4  12  24  41  68  99 126 162 216 268 310 369
#     4  11  23  41  65  93 127 168 213 261 314 376
#     4  10  24  39  60  93 128 164 208 262 320 371
#     4  10  23  39  61  92 127 166 208 258 316 374
#
# _framework density 25.187708000000001
#
# number of rings (size 3 to 8) (size 9 to 14) (size 15 to 20)
#    0.000    1.500    0.000    4.500    0.000   13.000 
#    0.000    0.000    0.000    0.000    0.000    0.000 
#    0.000    0.000    0.000    0.000    0.000    0.000 
#
# Total GULP energy -89649.532996 kJ/mol
# GULP energy per Si atom -5603.095812 kJ/mol
# Density = 2.513038 g / cm^3
# Si number density = 25.187708 Si / 1000 Ang^3
#
#
#
# Elastic Constant Matrix: (Units=GPa)
#
#
# Indices 1 2 3 4 5 6 
#
# 1 109.9485 27.9979 24.5854 0.0000 34.6415 0.0000
# 2 27.9979 82.1208 0.9534 0.0000 -1.8379 0.0000
# 3 24.5854 0.9534 135.4021 0.0000 22.8761 0.0000
# 4 0.0000 0.0000 0.0000 23.0905 0.0000 -1.5910
# 5 34.6415 -1.8379 22.8761 0.0000 56.0825 0.0000
# 6 0.0000 0.0000 0.0000 -1.5910 0.0000 27.3528
#
#
#
# Elastic Compliance Matrix: (Units=1/GPa)
#
#
# Indices 1 2 3 4 5 6 
#
# 1 0.012914 -0.004564 -0.001009 0.000000 -0.007714 0.000000
# 2 -0.004564 0.013802 0.000192 0.000000 0.003193 0.000000
# 3 -0.001009 0.000192 0.008013 0.000000 -0.002639 0.000000
# 4 0.000000 0.000000 0.000000 0.043482 0.000000 0.002529
# 5 -0.007714 0.003193 -0.002639 0.000000 0.023777 0.000000
# 6 0.000000 0.000000 0.000000 0.002529 0.000000 0.036706
#
#
# Mechanical properties :
#
#
# Convention : Reuss Voigt Hill
#
# Bulk Modulus (GPa) = 41.72363 48.28276 45.00319
# Shear Modulus (GPa) = 31.75701 39.56746 35.66224
#
# Velocity S-wave (km/s) = 3.55465 3.96776 3.76687
# Velocity P-wave (km/s) = 5.78346 6.34048 6.06836
#
# Compressibility (1/GPa) = 0.02396723
#
# Stress axis : x y z
#
# Youngs Moduli (GPa) = 77.43807 72.45158 124.79494
#
# Poissons Ratio (x) = 0.33064 0.12595
# Poissons Ratio (y) = 0.35340 -0.02396
# Poissons Ratio (z) = 0.07816 -0.01391
#
# Static dielectric constant tensor:
#      x y z
#    x 1.969500 0.000000 -0.044280 
#    y 0.000000 1.942480 0.000000 
#    z -0.044280 0.000000 1.997030 
# 
# From -- ./inp_files/28651.got.cif
#   From: 2010.05.17/outbox.cif.g08.bks.cpg/sg15_15_cif.got.tgz:28651.got - 2010.06.03 18:47:42.
