data_PCOD9290066
_publ_section_title
;
Structure prediction by ZEFSAII (Michael W. Deem and Ramdas Pophale) SiO2 
 PCOD9290066
Probable space group: C 2/C
;
_chemical_formula_sum "Si O2"
_cell_formula_units_Z 48
_cell_length_a 12.919233
_cell_length_b 5.416083
_cell_length_c 30.103014
_cell_angle_alpha 90.000000
_cell_angle_beta 108.349687
_cell_angle_gamma 90.000000
_cell_volume 1999.254893
_symmetry_space_group_name_H-M "C 2/C"
_symmetry_group_IT_number 15
_symmetry_cell_setting 'monoclinic'
loop_
_space_group_symop_operation_xyz
x,y,z
-x,y,1/2-z
-x,-y,-z
x,-y,1/2+z
1/2+x,1/2+y,z
1/2-x,1/2+y,1/2-z
1/2-x,1/2-y,-z
1/2+x,1/2-y,1/2+z
loop_
_atom_site_type_symbol
_atom_site_label
_atom_site_fract_x
_atom_site_fract_y
_atom_site_fract_z
Si Si1 0.435735 0.107406 0.856358
Si Si2 0.916699 0.057880 0.269058
Si Si3 0.854578 0.565690 0.560742
Si Si4 0.057937 0.082429 0.962502
Si Si5 0.255659 0.287631 0.302973
Si Si6 0.335181 0.477217 0.900403
O O1 0.556169 0.031186 0.887747
O O2 0.345737 0.923975 0.824770
O O3 0.450639 0.319310 0.820257
O O4 0.378339 0.205861 0.894104
O O5 0.869681 0.243210 0.225635
O O6 0.000000 0.904136 0.250000
O O7 0.807527 0.916483 0.267280
O O8 0.736224 0.520814 0.565878
O O9 0.880176 0.343551 0.529812
O O10 0.873033 0.845303 0.545534
O O11 0.950161 0.119728 0.917219
O O12 0.000000 0.000000 0.000000
O O13 0.264052 0.447513 0.348530
#
# Coordination Sequence:
#
# PCOD9290066 Si02
#       6
#     8   8   8   8   8   8
#     4  10  22  41  60  89 127 162 216 263 309 375
#     4  11  23  37  58  86 120 164 210 263 320 366
#     4  11  24  43  70  95 128 175 208 254 328 379
#     4  11  25  44  67 101 132 160 211 265 313 388
#     4  11  21  40  58  87 123 160 214 267 310 372
#     4  10  24  41  66  90 127 169 210 263 317 381
#
# _framework density 24.008945000000001
#
# number of rings (size 3 to 8) (size 9 to 14) (size 15 to 20)
#    0.000    1.333    3.333    1.500    2.333    3.333 
#    0.000    0.000    0.000    0.000    0.000    0.000 
#    0.000    0.000    0.000    0.000    0.000    0.000 
#
# Total GULP energy -133824.918127 kJ/mol
# GULP energy per Si atom -5576.038255 kJ/mol
# Density = 2.395430 g / cm^3
# Si number density = 24.008945 Si / 1000 Ang^3
#
#
#
# Elastic Constant Matrix: (Units=GPa)
#
#
# Indices 1 2 3 4 5 6 
#
# 1 93.4273 27.7960 19.4119 0.0000 -28.5156 0.0000
# 2 27.7960 67.2719 -2.0133 0.0000 -11.6133 0.0000
# 3 19.4119 -2.0133 55.5132 0.0000 -2.3292 0.0000
# 4 0.0000 0.0000 0.0000 25.2553 0.0000 3.8137
# 5 -28.5156 -11.6133 -2.3292 0.0000 46.2011 0.0000
# 6 0.0000 0.0000 0.0000 3.8137 0.0000 15.9531
#
#
#
# Elastic Compliance Matrix: (Units=1/GPa)
#
#
# Indices 1 2 3 4 5 6 
#
# 1 0.015919 -0.005322 -0.005415 0.000000 0.008215 0.000000
# 2 -0.005322 0.017348 0.002541 0.000000 0.001204 0.000000
# 3 -0.005415 0.002541 0.019928 0.000000 -0.001699 0.000000
# 4 0.000000 0.000000 0.000000 0.041079 0.000000 -0.009820
# 5 0.008215 0.001204 -0.001699 0.000000 0.026932 0.000000
# 6 0.000000 0.000000 0.000000 -0.009820 0.000000 0.065031
#
#
# Mechanical properties :
#
#
# Convention : Reuss Voigt Hill
#
# Bulk Modulus (GPa) = 27.17165 34.06682 30.61924
# Shear Modulus (GPa) = 23.26704 28.88309 26.07506
#
# Velocity S-wave (km/s) = 3.11641 3.47221 3.29911
# Velocity P-wave (km/s) = 4.92861 5.50409 5.22428
#
# Compressibility (1/GPa) = 0.03680306
#
# Stress axis : x y z
#
# Youngs Moduli (GPa) = 62.81755 57.64433 50.18048
#
# Poissons Ratio (x) = 0.30676 0.27172
# Poissons Ratio (y) = 0.33429 -0.12748
# Poissons Ratio (z) = 0.34015 -0.14645
#
# Static dielectric constant tensor:
#      x y z
#    x 1.880970 0.000000 0.052860 
#    y 0.000000 2.086620 0.000000 
#    z 0.052860 0.000000 2.033610 
# 
# From -- ./inp_files/312037.got.cif
#   From: 2010.05.17/outbox.cif.g08.bks.cpg/sg15_157_cif.got.tgz:312037.got - 2010.06.03 18:47:42.
