data_PCOD9290632
_publ_section_title
;
Structure prediction by ZEFSAII (Michael W. Deem and Ramdas Pophale) SiO2 
 PCOD9290632
Probable space group: C 2/C
;
_chemical_formula_sum "Si O2"
_cell_formula_units_Z 48
_cell_length_a 5.887577
_cell_length_b 24.795456
_cell_length_c 19.727503
_cell_angle_alpha 90.000000
_cell_angle_beta 133.255419
_cell_angle_gamma 90.000000
_cell_volume 2097.465386
_symmetry_space_group_name_H-M "C 2/C"
_symmetry_group_IT_number 15
_symmetry_cell_setting 'monoclinic'
loop_
_space_group_symop_operation_xyz
x,y,z
-x,y,1/2-z
-x,-y,-z
x,-y,1/2+z
1/2+x,1/2+y,z
1/2-x,1/2+y,1/2-z
1/2-x,1/2-y,-z
1/2+x,1/2-y,1/2+z
loop_
_atom_site_type_symbol
_atom_site_label
_atom_site_fract_x
_atom_site_fract_y
_atom_site_fract_z
Si Si1 0.000000 0.187359 0.750000
Si Si2 0.288686 0.319200 0.586503
Si Si3 0.852215 0.361179 0.087151
Si Si4 0.649390 0.985860 0.454953
Si Si5 0.000000 0.342377 0.750000
Si Si6 0.145283 0.589171 0.155877
Si Si7 0.656712 0.719088 0.646092
O O1 0.307278 0.151294 0.812712
O O2 0.952329 0.221136 0.671592
O O3 0.235397 0.325007 0.495980
O O4 0.656346 0.315545 0.683284
O O5 0.141318 0.373560 0.588591
O O6 0.124816 0.268224 0.588091
O O7 0.861420 0.422756 0.065165
O O8 0.628826 0.337942 0.101128
O O9 0.500000 0.000000 0.500000
O O10 0.452372 0.027901 0.370660
O O11 0.000000 0.000000 0.500000
O O12 0.042049 0.379912 0.824487
O O13 0.500000 0.590337 0.250000
O O14 0.000000 0.723288 0.750000
#
# Coordination Sequence:
#
# PCOD9290632 Si02
#       7
#     4   8   8   8   4   8   8
#     4  10  26  47  66 102 146 188 237 294 362 450
#     4  11  22  42  71 104 139 185 239 306 364 435
#     4  11  25  44  71 103 144 187 245 295 370 439
#     4  12  27  48  74 103 147 190 249 308 365 439
#     4  10  22  41  68 102 142 182 241 304 362 434
#     4  10  23  41  67 104 141 187 242 297 371 430
#     4  10  23  44  68 104 140 187 239 293 365 437
#
# _framework density 22.884764000000001
#
# number of rings (size 3 to 8) (size 9 to 14) (size 15 to 20)
#    0.000    1.333    1.667    3.000    5.833    8.000 
#    4.500    0.000    0.000    3.000    0.000    0.000 
#    0.000    0.000    0.000    0.000    0.000    0.000 
#
# Total GULP energy -133872.488873 kJ/mol
# GULP energy per Si atom -5578.020370 kJ/mol
# Density = 2.283268 g / cm^3
# Si number density = 22.884764 Si / 1000 Ang^3
#
#
#
# Elastic Constant Matrix: (Units=GPa)
#
#
# Indices 1 2 3 4 5 6 
#
# 1 109.0805 61.0742 28.0165 0.0000 -26.8342 0.0000
# 2 61.0742 159.3168 32.0993 0.0000 -15.5764 0.0000
# 3 28.0165 32.0993 70.4660 0.0000 -14.7406 0.0000
# 4 0.0000 0.0000 0.0000 34.5060 0.0000 -5.5659
# 5 -26.8342 -15.5764 -14.7406 0.0000 41.6831 0.0000
# 6 0.0000 0.0000 0.0000 -5.5659 0.0000 33.0070
#
#
#
# Elastic Compliance Matrix: (Units=1/GPa)
#
#
# Indices 1 2 3 4 5 6 
#
# 1 0.013646 -0.004161 -0.002179 0.000000 0.006459 0.000000
# 2 -0.004161 0.008278 -0.002192 0.000000 -0.000360 0.000000
# 3 -0.002179 -0.002192 0.016837 0.000000 0.003732 0.000000
# 4 0.000000 0.000000 0.000000 0.029791 0.000000 0.005024
# 5 0.006459 -0.000360 0.003732 0.000000 0.029334 0.000000
# 6 0.000000 0.000000 0.000000 0.005024 0.000000 0.031144
#
#
# Mechanical properties :
#
#
# Convention : Reuss Voigt Hill
#
# Bulk Modulus (GPa) = 46.08798 64.58257 55.33528
# Shear Modulus (GPa) = 32.61044 36.35076 34.48060
#
# Velocity S-wave (km/s) = 3.77899 3.98983 3.88584
# Velocity P-wave (km/s) = 6.26290 7.03612 6.66074
#
# Compressibility (1/GPa) = 0.02169763
#
# Stress axis : x y z
#
# Youngs Moduli (GPa) = 73.28318 120.79915 59.39344
#
# Poissons Ratio (x) = 0.50259 0.12941
# Poissons Ratio (y) = 0.30490 0.13020
# Poissons Ratio (z) = 0.15968 0.26481
#
# Static dielectric constant tensor:
#      x y z
#    x 1.925120 0.000000 -0.113660 
#    y 0.000000 1.991740 0.000000 
#    z -0.113660 0.000000 1.763860 
# 
# From -- ./inp_files/228260.got.cif
#   From: 2010.05.17/outbox.cif.g08.bks.cpg/sg15_115_cif.got.tgz:228260.got - 2010.06.03 18:47:42.
