data_PCOD9290769
_publ_section_title
;
Structure prediction by ZEFSAII (Michael W. Deem and Ramdas Pophale) SiO2 
 PCOD9290769
Probable space group: C 2/C
;
_chemical_formula_sum "Si O2"
_cell_formula_units_Z 64
_cell_length_a 26.207317
_cell_length_b 6.019410
_cell_length_c 23.404576
_cell_angle_alpha 90.000000
_cell_angle_beta 136.452041
_cell_angle_gamma 90.000000
_cell_volume 2543.737082
_symmetry_space_group_name_H-M "C 2/C"
_symmetry_group_IT_number 15
_symmetry_cell_setting 'monoclinic'
loop_
_space_group_symop_operation_xyz
x,y,z
-x,y,1/2-z
-x,-y,-z
x,-y,1/2+z
1/2+x,1/2+y,z
1/2-x,1/2+y,1/2-z
1/2-x,1/2-y,-z
1/2+x,1/2-y,1/2+z
loop_
_atom_site_type_symbol
_atom_site_label
_atom_site_fract_x
_atom_site_fract_y
_atom_site_fract_z
Si Si1 0.406176 0.875876 0.134837
Si Si2 0.126407 0.741814 0.464675
Si Si3 0.341724 0.701203 0.723582
Si Si4 0.543493 0.694217 0.005663
Si Si5 0.708177 0.118220 0.110714
Si Si6 0.105859 0.553527 0.127743
Si Si7 0.264836 0.008535 0.571978
Si Si8 0.971805 0.912174 0.783482
O O1 0.452643 0.703131 0.133731
O O2 0.429937 0.797141 0.218079
O O3 0.422456 0.116660 0.121860
O O4 0.317604 0.876210 0.068603
O O5 0.083911 0.867982 0.480256
O O6 0.162992 0.539812 0.530674
O O7 0.191106 0.888172 0.490111
O O8 0.276127 0.533281 0.688166
O O9 0.356177 0.891145 0.781929
O O10 0.314569 0.818662 0.643416
O O11 0.415810 0.554494 0.774507
O O12 0.599167 0.806438 0.096517
O O13 0.500000 0.500000 0.000000
O O14 0.479022 0.867733 0.936055
O O15 0.652854 0.180993 0.117042
O O16 0.740156 0.322402 0.101223
O O17 0.000000 0.041010 0.750000
#
# Coordination Sequence:
#
# PCOD9290769 Si02
#       8
#     8   8   8   8   8   8   8   8
#     4   9  20  43  67  97 132 183 227 290 354 421
#     4  10  22  41  69  99 135 184 232 285 358 424
#     4  11  23  43  66  99 133 180 226 284 356 416
#     4  10  22  47  65  98 145 179 232 295 344 421
#     4  10  22  43  64 101 139 174 227 288 343 423
#     4  10  24  41  69  99 133 183 234 277 347 430
#     4  11  22  40  68 100 137 171 235 292 349 427
#     4   8  20  44  64  94 135 181 226 294 344 427
#
# _framework density 25.159834
#
# number of rings (size 3 to 8) (size 9 to 14) (size 15 to 20)
#    0.750    1.250    1.250    1.125    1.750    3.500 
#   15.750    0.000    0.000    0.000    0.000    0.000 
#    0.000    0.000    0.000    0.000    0.000    0.000 
#
# Total GULP energy -178792.793228 kJ/mol
# GULP energy per Si atom -5587.274788 kJ/mol
# Density = 2.510257 g / cm^3
# Si number density = 25.159834 Si / 1000 Ang^3
#
#
#
# Elastic Constant Matrix: (Units=GPa)
#
#
# Indices 1 2 3 4 5 6 
#
# 1 139.4118 44.3637 45.9435 0.0014 14.6115 0.0026
# 2 44.3637 88.2276 51.7610 0.0102 -6.4925 0.0284
# 3 45.9435 51.7610 93.2707 -0.0010 0.5860 0.0018
# 4 0.0014 0.0102 -0.0010 54.1764 -0.0009 4.6720
# 5 14.6115 -6.4925 0.5860 -0.0009 37.6023 0.0002
# 6 0.0026 0.0284 0.0018 4.6720 0.0002 37.1523
#
#
#
# Elastic Compliance Matrix: (Units=1/GPa)
#
#
# Indices 1 2 3 4 5 6 
#
# 1 0.009670 -0.003562 -0.002759 0.000000 -0.004329 0.000002
# 2 -0.003562 0.018475 -0.008528 -0.000002 0.004707 -0.000013
# 3 -0.002759 -0.008528 0.016817 0.000001 -0.000662 0.000006
# 4 0.000000 -0.000002 0.000001 0.018661 0.000000 -0.002347
# 5 -0.004329 0.004707 -0.000662 0.000000 0.029099 -0.000003
# 6 0.000002 -0.000013 0.000006 -0.002347 -0.000003 0.027211
#
#
# Mechanical properties :
#
#
# Convention : Reuss Voigt Hill
#
# Bulk Modulus (GPa) = 65.51379 67.22738 66.37059
# Shear Modulus (GPa) = 32.31678 37.70899 35.01288
#
# Velocity S-wave (km/s) = 3.58782 3.87560 3.73449
# Velocity P-wave (km/s) = 6.57715 6.84143 6.71059
#
# Compressibility (1/GPa) = 0.01526396
#
# Stress axis : x y z
#
# Youngs Moduli (GPa) = 103.41766 54.12779 59.46315
#
# Poissons Ratio (x) = 0.19281 0.16406
# Poissons Ratio (y) = 0.36838 0.50708
# Poissons Ratio (z) = 0.28533 0.46158
#
# Static dielectric constant tensor:
#      x y z
#    x 1.952310 -0.000010 0.012500 
#    y -0.000010 2.037800 0.000000 
#    z 0.012500 0.000000 2.072730 
# 
# From -- ./inp_files/319305.got.cif
#   From: 2010.05.17/outbox.cif.g08.bks.cpg/sg15_160_cif.got.tgz:319305.got - 2010.06.03 18:47:42.
