data_PCOD9290855
_publ_section_title
;
Structure prediction by ZEFSAII (Michael W. Deem and Ramdas Pophale) SiO2 
 PCOD9290855
Probable space group: C 2/C
;
_chemical_formula_sum "Si O2"
_cell_formula_units_Z 48
_cell_length_a 11.409995
_cell_length_b 13.281010
_cell_length_c 19.256254
_cell_angle_alpha 90.000000
_cell_angle_beta 47.815154
_cell_angle_gamma 90.000000
_cell_volume 2162.201467
_symmetry_space_group_name_H-M "C 2/C"
_symmetry_group_IT_number 15
_symmetry_cell_setting 'monoclinic'
loop_
_space_group_symop_operation_xyz
x,y,z
-x,y,1/2-z
-x,-y,-z
x,-y,1/2+z
1/2+x,1/2+y,z
1/2-x,1/2+y,1/2-z
1/2-x,1/2-y,-z
1/2+x,1/2-y,1/2+z
loop_
_atom_site_type_symbol
_atom_site_label
_atom_site_fract_x
_atom_site_fract_y
_atom_site_fract_z
Si Si1 0.000000 0.577292 0.250000
Si Si2 0.281231 0.778871 0.908353
Si Si3 0.777079 0.594435 0.787532
Si Si4 0.246355 0.876601 0.558130
Si Si5 0.680989 0.560266 0.670320
Si Si6 0.500000 0.742128 0.250000
Si Si7 0.066446 0.180117 0.992875
O O1 0.931706 0.648884 0.337412
O O2 0.857649 0.502926 0.288683
O O3 0.315466 0.673703 0.857663
O O4 0.250000 0.750000 0.000000
O O5 0.122352 0.826902 0.937691
O O6 0.741191 0.562461 0.724390
O O7 0.637449 0.638200 0.891871
O O8 0.904264 0.684455 0.737257
O O9 0.119004 0.822704 0.658282
O O10 0.164802 0.877548 0.514516
O O11 0.391165 0.797742 0.507092
O O12 0.271017 0.985959 0.581459
O O13 0.500000 0.526435 0.750000
#
# Coordination Sequence:
#
# PCOD9290855 Si02
#       7
#     4   8   8   8   8   4   8
#     4  11  28  47  70 100 146 187 226 287 356 416
#     4  12  28  47  69 100 151 186 229 284 358 419
#     4  10  24  44  72 100 136 182 235 283 347 415
#     4  10  22  41  72 104 133 178 237 292 338 410
#     4  12  25  42  69 102 136 181 233 278 343 418
#     4   9  18  43  68  96 136 179 228 281 346 406
#     4  10  24  45  72 102 138 182 233 296 349 412
#
# _framework density 22.199594999999999
#
# number of rings (size 3 to 8) (size 9 to 14) (size 15 to 20)
#    0.000    1.333    1.667    2.000    7.000    4.000 
#    0.000    0.000    0.000    0.000    0.000    0.000 
#    0.000    0.000    0.000    0.000    0.000    0.000 
#
# Total GULP energy -134152.700748 kJ/mol
# GULP energy per Si atom -5589.695864 kJ/mol
# Density = 2.214907 g / cm^3
# Si number density = 22.199595 Si / 1000 Ang^3
#
#
#
# Elastic Constant Matrix: (Units=GPa)
#
#
# Indices 1 2 3 4 5 6 
#
# 1 49.8750 8.5938 -0.1795 0.0000 8.7684 0.0000
# 2 8.5938 104.3149 17.3166 0.0000 1.5218 0.0000
# 3 -0.1795 17.3166 47.8626 0.0000 -1.2583 0.0000
# 4 0.0000 0.0000 0.0000 38.1340 0.0000 -2.0718
# 5 8.7684 1.5218 -1.2583 0.0000 38.7111 0.0000
# 6 0.0000 0.0000 0.0000 -2.0718 0.0000 6.1066
#
#
#
# Elastic Compliance Matrix: (Units=1/GPa)
#
#
# Indices 1 2 3 4 5 6 
#
# 1 0.021186 -0.001776 0.000598 0.000000 -0.004710 0.000000
# 2 -0.001776 0.010358 -0.003758 0.000000 -0.000127 0.000000
# 3 0.000598 -0.003758 0.022274 0.000000 0.000736 0.000000
# 4 0.000000 0.000000 0.000000 0.026716 0.000000 0.009064
# 5 -0.004710 -0.000127 0.000736 0.000000 0.026928 0.000000
# 6 0.000000 0.000000 0.000000 0.009064 0.000000 0.166832
#
#
# Mechanical properties :
#
#
# Convention : Reuss Voigt Hill
#
# Bulk Modulus (GPa) = 22.75418 28.16827 25.46122
# Shear Modulus (GPa) = 16.73275 28.34512 22.53893
#
# Velocity S-wave (km/s) = 2.74841 3.57715 3.18981
# Velocity P-wave (km/s) = 4.51041 5.45688 5.00606
#
# Compressibility (1/GPa) = 0.04394798
#
# Stress axis : x y z
#
# Youngs Moduli (GPa) = 47.20039 96.54098 44.89492
#
# Poissons Ratio (x) = 0.17146 -0.02686
# Poissons Ratio (y) = 0.08383 0.16870
# Poissons Ratio (z) = -0.02824 0.36276
#
# Static dielectric constant tensor:
#      x y z
#    x 1.746530 0.000000 -0.066990 
#    y 0.000000 1.838550 0.000000 
#    z -0.066990 0.000000 1.759870 
# 
# From -- ./inp_files/237457.got.cif
#   From: 2010.05.17/outbox.cif.g08.bks.cpg/sg15_119_cif.got.tgz:237457.got - 2010.06.03 18:47:42.
