data_PCOD9290049
_publ_section_title
;
Structure prediction by ZEFSAII (Michael W. Deem and Ramdas Pophale) SiO2 
 PCOD9290049
Probable space group: C 2/C
;
_chemical_formula_sum "Si O2"
_cell_formula_units_Z 40
_cell_length_a 11.233297
_cell_length_b 25.082946
_cell_length_c 14.407068
_cell_angle_alpha 90.000000
_cell_angle_beta 29.841873
_cell_angle_gamma 90.000000
_cell_volume 2019.987832
_symmetry_space_group_name_H-M "C 2/C"
_symmetry_group_IT_number 15
_symmetry_cell_setting 'monoclinic'
loop_
_space_group_symop_operation_xyz
x,y,z
-x,y,1/2-z
-x,-y,-z
x,-y,1/2+z
1/2+x,1/2+y,z
1/2-x,1/2+y,1/2-z
1/2-x,1/2-y,-z
1/2+x,1/2-y,1/2+z
loop_
_atom_site_type_symbol
_atom_site_label
_atom_site_fract_x
_atom_site_fract_y
_atom_site_fract_z
Si Si1 0.211767 0.812549 0.533910
Si Si2 0.067899 0.885703 0.904851
Si Si3 0.062019 0.600966 0.506536
Si Si4 0.756048 0.023290 0.526702
Si Si5 0.511240 0.410588 0.343025
O O1 0.250000 0.750000 0.500000
O O2 0.424291 0.847279 0.434916
O O3 0.000000 0.821839 0.750000
O O4 0.109852 0.839378 0.510319
O O5 0.304119 0.886900 0.680854
O O6 0.927441 0.940448 0.974977
O O7 0.104284 0.882117 0.989699
O O8 0.207803 0.556036 0.464675
O O9 0.792113 0.582968 0.674723
O O10 0.500000 0.017161 0.750000
O O11 0.876277 0.966897 0.427339
O O12 0.500000 0.383318 0.250000
#
# Coordination Sequence:
#
# PCOD9290049 Si02
#       5
#     8   8   8   8   8
#     4   9  20  37  68  98 112 143 190 254 322 348
#     4  10  22  41  57  88 125 151 198 259 292 353
#     4  10  23  42  57  88 127 148 206 258 285 358
#     4  11  22  37  59  86 119 163 204 249 300 344
#     4  12  26  37  58  84 119 179 199 236 297 354
#
# _framework density 19.802099999999999
#
# number of rings (size 3 to 8) (size 9 to 14) (size 15 to 20)
#    0.000    1.600    2.000    3.600    5.600    1.600 
#    0.000    0.000    0.000    1.200    0.000    0.000 
#    0.000    0.000    0.000    0.000    0.000    0.000 
#
# Total GULP energy -111759.105215 kJ/mol
# GULP energy per Si atom -5587.955261 kJ/mol
# Density = 1.975703 g / cm^3
# Si number density = 19.802100 Si / 1000 Ang^3
#
#
#
# Elastic Constant Matrix: (Units=GPa)
#
#
# Indices 1 2 3 4 5 6 
#
# 1 87.9364 29.3636 19.5721 0.0023 38.3081 -0.0011
# 2 29.3636 83.9726 26.5188 0.0002 10.7064 0.0001
# 3 19.5721 26.5188 97.8238 0.0035 17.0622 -0.0021
# 4 0.0023 0.0002 0.0035 22.0076 -0.0016 1.2526
# 5 38.3081 10.7064 17.0622 -0.0016 42.8400 0.0009
# 6 -0.0011 0.0001 -0.0021 1.2526 0.0009 5.7429
#
#
#
# Elastic Compliance Matrix: (Units=1/GPa)
#
#
# Indices 1 2 3 4 5 6 
#
# 1 0.020471 -0.005056 0.000266 -0.000004 -0.017148 0.000008
# 2 -0.005056 0.014432 -0.003289 0.000001 0.002224 -0.000003
# 3 0.000266 -0.003289 0.011777 -0.000003 -0.004106 0.000005
# 4 -0.000004 0.000001 -0.000003 0.046010 0.000006 -0.010035
# 5 -0.017148 0.002224 -0.004106 0.000006 0.039756 -0.000012
# 6 0.000008 -0.000003 0.000005 -0.010035 -0.000012 0.176316
#
#
# Mechanical properties :
#
#
# Convention : Reuss Voigt Hill
#
# Bulk Modulus (GPa) = 32.76317 46.73800 39.75059
# Shear Modulus (GPa) = 14.92119 27.07000 20.99559
#
# Velocity S-wave (km/s) = 2.74800 3.70134 3.25971
# Velocity P-wave (km/s) = 5.16235 6.47459 5.85535
#
# Compressibility (1/GPa) = 0.03052207
#
# Stress axis : x y z
#
# Youngs Moduli (GPa) = 48.84919 69.29246 84.91130
#
# Poissons Ratio (x) = 0.35034 -0.02256
# Poissons Ratio (y) = 0.24698 0.27924
# Poissons Ratio (z) = -0.01298 0.22787
#
# Static dielectric constant tensor:
#      x y z
#    x 1.740930 0.000000 0.041380 
#    y 0.000000 1.716190 0.000000 
#    z 0.041380 0.000000 1.738940 
# 
# From -- ./inp_files/91033.got.cif
#   From: 2010.05.17/outbox.cif.g08.bks.cpg/sg15_46_cif.got.tgz:91033.got - 2010.06.03 18:47:42.
