data_PCOD9290487
_publ_section_title
;
Structure prediction by ZEFSAII (Michael W. Deem and Ramdas Pophale) SiO2 
 PCOD9290487
Probable space group: C 2/C
;
_chemical_formula_sum "Si O2"
_cell_formula_units_Z 60
_cell_length_a 21.683585
_cell_length_b 19.035949
_cell_length_c 9.279466
_cell_angle_alpha 90.000000
_cell_angle_beta 139.653976
_cell_angle_gamma 90.000000
_cell_volume 2479.720742
_symmetry_space_group_name_H-M "C 2/C"
_symmetry_group_IT_number 15
_symmetry_cell_setting 'monoclinic'
loop_
_space_group_symop_operation_xyz
x,y,z
-x,y,1/2-z
-x,-y,-z
x,-y,1/2+z
1/2+x,1/2+y,z
1/2-x,1/2+y,1/2-z
1/2-x,1/2-y,-z
1/2+x,1/2-y,1/2+z
loop_
_atom_site_type_symbol
_atom_site_label
_atom_site_fract_x
_atom_site_fract_y
_atom_site_fract_z
Si Si1 0.356116 0.296150 0.006543
Si Si2 0.060747 0.462468 0.230027
Si Si3 0.206102 0.808865 0.160850
Si Si4 0.008942 0.720570 0.070309
Si Si5 0.647151 0.101781 0.381797
Si Si6 0.252554 0.417546 0.483753
Si Si7 0.500000 0.266896 0.750000
Si Si8 0.216143 0.057986 0.125430
O O1 0.252355 0.267580 0.774431
O O2 0.359985 0.379371 0.035008
O O3 0.427512 0.259201 0.018738
O O4 0.393531 0.264157 0.222821
O O5 0.119793 0.528004 0.404783
O O6 0.138477 0.417165 0.286982
O O7 0.000000 0.430160 0.250000
O O8 0.000000 0.500000 0.000000
O O9 0.271826 0.858057 0.381826
O O10 0.221056 0.841660 0.028700
O O11 0.092361 0.809912 0.963961
O O12 0.049961 0.645556 0.191272
O O13 0.976864 0.722236 0.849762
O O14 0.692830 0.084948 0.306530
O O15 0.295443 0.479401 0.457991
O O16 0.279187 0.437081 0.694123
#
# Coordination Sequence:
#
# PCOD9290487 Si02
#       8
#     8   8   8   8   8   8   4   8
#     4  10  23  44  70  95 135 184 225 281 354 415
#     4  11  22  37  61  95 133 174 216 260 325 423
#     4  11  24  44  70  97 137 184 232 289 346 405
#     4  10  23  40  65 102 133 175 225 282 347 422
#     4  10  22  41  66  94 140 182 217 272 354 417
#     4  11  24  41  64  97 137 182 223 281 344 410
#     4  12  24  40  64 100 130 168 244 292 328 392
#     4  11  22  42  65  95 134 184 225 273 340 412
#
# _framework density 24.196272
#
# number of rings (size 3 to 8) (size 9 to 14) (size 15 to 20)
#    0.000    1.333    0.000    6.400    5.600    5.333 
#    1.200    1.333    0.000   10.400    0.000    0.000 
#    0.000    0.000    0.000    0.000    0.000    0.000 
#
# Total GULP energy -167518.111546 kJ/mol
# GULP energy per Si atom -5583.937052 kJ/mol
# Density = 2.414120 g / cm^3
# Si number density = 24.196272 Si / 1000 Ang^3
#
#
#
# Elastic Constant Matrix: (Units=GPa)
#
#
# Indices 1 2 3 4 5 6 
#
# 1 113.5931 17.7813 29.9507 0.0000 -15.1442 0.0000
# 2 17.7813 77.5962 11.1738 0.0000 3.7771 0.0000
# 3 29.9507 11.1738 94.5667 0.0000 -12.2394 0.0000
# 4 0.0000 0.0000 0.0000 26.8356 0.0000 -0.8414
# 5 -15.1442 3.7771 -12.2394 0.0000 54.9577 0.0000
# 6 0.0000 0.0000 0.0000 -0.8414 0.0000 35.3612
#
#
#
# Elastic Compliance Matrix: (Units=1/GPa)
#
#
# Indices 1 2 3 4 5 6 
#
# 1 0.010140 -0.002054 -0.002666 0.000000 0.002342 0.000000
# 2 -0.002054 0.013615 -0.001187 0.000000 -0.001766 0.000000
# 3 -0.002666 -0.001187 0.011815 0.000000 0.001978 0.000000
# 4 0.000000 0.000000 0.000000 0.037292 0.000000 0.000887
# 5 0.002342 -0.001766 0.001978 0.000000 0.019403 0.000000
# 6 0.000000 0.000000 0.000000 0.000887 0.000000 0.028301
#
#
# Mechanical properties :
#
#
# Convention : Reuss Voigt Hill
#
# Bulk Modulus (GPa) = 42.09246 44.84084 43.46665
# Shear Modulus (GPa) = 35.63878 38.55425 37.09651
#
# Velocity S-wave (km/s) = 3.84201 3.99607 3.91979
# Velocity P-wave (km/s) = 6.09224 6.31378 6.20400
#
# Compressibility (1/GPa) = 0.02375723
#
# Stress axis : x y z
#
# Youngs Moduli (GPa) = 98.62062 73.45008 84.63746
#
# Poissons Ratio (x) = 0.15084 0.22562
# Poissons Ratio (y) = 0.20254 0.10045
# Poissons Ratio (z) = 0.26290 0.08717
#
# Static dielectric constant tensor:
#      x y z
#    x 1.969120 0.000000 0.005650 
#    y 0.000000 1.981940 0.000000 
#    z 0.005650 0.000000 1.994310 
# 
# From -- ./inp_files/58781.got.cif
#   From: 2010.05.17/outbox.cif.g08.bks.cpg/sg15_30_cif.got.tgz:58781.got - 2010.06.03 18:47:42.
