data_PCOD9290390
_publ_section_title
;
Structure prediction by ZEFSAII (Michael W. Deem and Ramdas Pophale) SiO2 
 PCOD9290390
Probable space group: C 2/C
;
_chemical_formula_sum "Si O2"
_cell_formula_units_Z 52
_cell_length_a 14.142627
_cell_length_b 24.842126
_cell_length_c 10.693835
_cell_angle_alpha 90.000000
_cell_angle_beta 135.712138
_cell_angle_gamma 90.000000
_cell_volume 2623.443780
_symmetry_space_group_name_H-M "C 2/C"
_symmetry_group_IT_number 15
_symmetry_cell_setting 'monoclinic'
loop_
_space_group_symop_operation_xyz
x,y,z
-x,y,1/2-z
-x,-y,-z
x,-y,1/2+z
1/2+x,1/2+y,z
1/2-x,1/2+y,1/2-z
1/2-x,1/2-y,-z
1/2+x,1/2-y,1/2+z
loop_
_atom_site_type_symbol
_atom_site_label
_atom_site_fract_x
_atom_site_fract_y
_atom_site_fract_z
Si Si1 0.750000 0.750000 0.500000
Si Si2 0.335331 0.539439 0.232971
Si Si3 0.285649 0.658021 0.826656
Si Si4 0.221754 0.656628 0.183857
Si Si5 0.662721 0.539615 0.543611
Si Si6 0.544480 0.177378 0.429863
Si Si7 0.453907 0.307015 0.069290
O O1 0.759984 0.704582 0.621974
O O2 0.748586 0.701072 0.393464
O O3 0.271443 0.598077 0.190336
O O4 0.498856 0.544134 0.395161
O O5 0.292333 0.499622 0.302900
O O6 0.302513 0.519265 0.062250
O O7 0.280916 0.599401 0.882917
O O8 0.438678 0.671379 0.929902
O O9 0.191444 0.659781 0.615229
O O10 0.064921 0.657986 0.072369
O O11 0.307036 0.673648 0.387582
O O12 0.500000 0.159189 0.250000
O O13 0.542122 0.242402 0.428143
O O14 0.500000 0.325579 0.250000
#
# Coordination Sequence:
#
# PCOD9290390 Si02
#       7
#     4   8   8   8   8   8   8
#     4  12  24  38  66  98 132 170 216 266 328 392
#     4  10  22  41  65  95 129 168 219 271 323 386
#     4  12  23  40  64  94 129 169 210 267 327 387
#     4  12  23  40  64  94 129 169 210 267 327 387
#     4  10  22  41  65  95 129 168 219 271 323 386
#     4  11  24  40  57  90 131 168 207 258 329 400
#     4  11  22  38  61  90 125 168 213 260 323 390
#
# _framework density 19.821273999999999
#
# number of rings (size 3 to 8) (size 9 to 14) (size 15 to 20)
#    0.000    0.923    6.154    0.923    0.000    7.385 
#    0.000    0.769    0.000    0.000    0.000    0.000 
#    0.000    0.000    0.000    0.000    0.000    0.000 
#
# Total GULP energy -144760.201993 kJ/mol
# GULP energy per Si atom -5567.700077 kJ/mol
# Density = 1.977616 g / cm^3
# Si number density = 19.821274 Si / 1000 Ang^3
#
#
#
# Elastic Constant Matrix: (Units=GPa)
#
#
# Indices 1 2 3 4 5 6 
#
# 1 26.0005 25.7923 19.8146 0.0000 -6.4276 0.0000
# 2 25.7923 122.4462 36.1356 0.0000 -27.0258 0.0000
# 3 19.8146 36.1356 60.8606 0.0000 -30.4418 0.0000
# 4 0.0000 0.0000 0.0000 27.1628 0.0000 6.1719
# 5 -6.4276 -27.0258 -30.4418 0.0000 35.4110 0.0000
# 6 0.0000 0.0000 0.0000 6.1719 0.0000 3.1946
#
#
#
# Elastic Compliance Matrix: (Units=1/GPa)
#
#
# Indices 1 2 3 4 5 6 
#
# 1 0.060795 -0.009758 -0.021412 0.000000 -0.014819 0.000000
# 2 -0.009758 0.011873 -0.000397 0.000000 0.006949 0.000000
# 3 -0.021412 -0.000397 0.037793 0.000000 0.028300 0.000000
# 4 0.000000 0.000000 0.000000 0.065623 0.000000 -0.126783
# 5 -0.014819 0.006949 0.028300 0.000000 0.055183 0.000000
# 6 0.000000 0.000000 0.000000 -0.126783 0.000000 0.557976
#
#
# Mechanical properties :
#
#
# Convention : Reuss Voigt Hill
#
# Bulk Modulus (GPa) = 21.12905 41.42136 31.27521
# Shear Modulus (GPa) = 5.75937 21.65799 13.70868
#
# Velocity S-wave (km/s) = 1.70645 3.30913 2.63271
# Velocity P-wave (km/s) = 3.81648 5.96182 5.00544
#
# Compressibility (1/GPa) = 0.04732820
#
# Stress axis : x y z
#
# Youngs Moduli (GPa) = 16.44885 84.22352 26.45981
#
# Poissons Ratio (x) = 0.82183 0.56655
# Poissons Ratio (y) = 0.16050 0.01050
# Poissons Ratio (z) = 0.35220 0.03342
#
# Static dielectric constant tensor:
#      x y z
#    x 1.692340 0.000000 -0.020490 
#    y 0.000000 1.651300 0.000000 
#    z -0.020490 0.000000 1.703120 
# 
# From -- ./inp_files/43656.got.cif
#   From: 2010.05.17/outbox.cif.g08.bks.cpg/sg15_22_cif.got.tgz:43656.got - 2010.06.03 18:47:42.
