data_PCOD9290695
_publ_section_title
;
Structure prediction by ZEFSAII (Michael W. Deem and Ramdas Pophale) SiO2 
 PCOD9290695
Probable space group: C 2/C
;
_chemical_formula_sum "Si O2"
_cell_formula_units_Z 48
_cell_length_a 16.182524
_cell_length_b 25.617098
_cell_length_c 5.675866
_cell_angle_alpha 90.000000
_cell_angle_beta 69.584465
_cell_angle_gamma 90.000000
_cell_volume 2205.132981
_symmetry_space_group_name_H-M "C 2/C"
_symmetry_group_IT_number 15
_symmetry_cell_setting 'monoclinic'
loop_
_space_group_symop_operation_xyz
x,y,z
-x,y,1/2-z
-x,-y,-z
x,-y,1/2+z
1/2+x,1/2+y,z
1/2-x,1/2+y,1/2-z
1/2-x,1/2-y,-z
1/2+x,1/2-y,1/2+z
loop_
_atom_site_type_symbol
_atom_site_label
_atom_site_fract_x
_atom_site_fract_y
_atom_site_fract_z
Si Si1 0.302901 0.525036 0.902218
Si Si2 0.000000 0.116854 0.250000
Si Si3 0.171740 0.819678 0.653544
Si Si4 0.000000 0.057595 0.750000
Si Si5 0.695934 0.119724 0.129921
Si Si6 0.808800 0.719033 0.628688
Si Si7 0.899352 0.521515 0.111501
O O1 0.282658 0.510449 0.195213
O O2 0.254555 0.580703 0.910083
O O3 0.408927 0.527916 0.799389
O O4 0.910703 0.149680 0.364322
O O5 0.011773 0.087930 0.489515
O O6 0.230981 0.854953 0.770099
O O7 0.136478 0.765955 0.809303
O O8 0.240746 0.802599 0.387742
O O9 0.622790 0.082500 0.324388
O O10 0.651933 0.167887 0.034516
O O11 0.750000 0.750000 0.500000
O O12 0.865687 0.494495 0.386659
O O13 0.000000 0.500000 0.000000
#
# Coordination Sequence:
#
# PCOD9290695 Si02
#       7
#     8   4   8   4   8   8   8
#     4  12  25  39  60  96 133 178 223 269 321 395
#     4  12  24  41  72  96 136 182 216 273 342 402
#     4  10  22  41  68  98 133 172 226 277 341 412
#     4  12  24  43  60  92 142 180 222 271 328 394
#     4  11  22  39  69  95 130 178 224 273 340 407
#     4   9  21  41  67  97 127 169 225 281 334 413
#     4  10  23  43  68  96 132 174 224 283 336 400
#
# _framework density 21.767395
#
# number of rings (size 3 to 8) (size 9 to 14) (size 15 to 20)
#    0.000    1.333    1.667    3.500    7.000    0.000 
#    0.000    0.000   22.000    0.000    0.000    0.000 
#    0.000    0.000    0.000    0.000    0.000    0.000 
#
# Total GULP energy -133805.474773 kJ/mol
# GULP energy per Si atom -5575.228116 kJ/mol
# Density = 2.171785 g / cm^3
# Si number density = 21.767395 Si / 1000 Ang^3
#
#
#
# Elastic Constant Matrix: (Units=GPa)
#
#
# Indices 1 2 3 4 5 6 
#
# 1 83.7829 27.5565 18.2606 0.0000 12.1713 0.0000
# 2 27.5565 136.7803 49.8687 0.0000 10.3280 0.0000
# 3 18.2606 49.8687 92.5591 0.0000 12.2072 0.0000
# 4 0.0000 0.0000 0.0000 40.1570 0.0000 -27.4406
# 5 12.1713 10.3280 12.2072 0.0000 32.4095 0.0000
# 6 0.0000 0.0000 0.0000 -27.4406 0.0000 -59.7491
#
#
#
# Elastic Compliance Matrix: (Units=1/GPa)
#
#
# Indices 1 2 3 4 5 6 
#
# 1 0.013407 -0.002025 -0.001026 0.000000 -0.004003 0.000000
# 2 -0.002025 0.009442 -0.004621 0.000000 -0.000508 0.000000
# 3 -0.001026 -0.004621 0.013943 0.000000 -0.003394 0.000000
# 4 0.000000 0.000000 0.000000 0.018954 0.000000 -0.008705
# 5 -0.004003 -0.000508 -0.003394 0.000000 0.033799 0.000000
# 6 0.000000 0.000000 0.000000 -0.008705 0.000000 -0.012739
#
#
# Mechanical properties :
#
#
# Convention : Reuss Voigt Hill
#
# Bulk Modulus (GPa) = 46.62170 56.05488 51.33829
# Shear Modulus (GPa) = 50.35325 17.05927 33.70626
#
# Velocity S-wave (km/s) = 4.81483 2.80251 3.93934
# Velocity P-wave (km/s) = 7.23704 6.02327 6.65787
#
# Compressibility (1/GPa) = 0.02144924
#
# Stress axis : x y z
#
# Youngs Moduli (GPa) = 74.58961 105.91114 71.71817
#
# Poissons Ratio (x) = 0.21442 0.07360
# Poissons Ratio (y) = 0.15101 0.33138
# Poissons Ratio (z) = 0.07654 0.48938
#
# Static dielectric constant tensor:
#      x y z
#    x 1.513340 0.000000 -0.107110 
#    y 0.000000 1.928390 0.000000 
#    z -0.107110 0.000000 1.939320 
# 
# From -- ./inp_files/10904.got.cif
#   From: 2010.05.17/outbox.cif.g08.bks.cpg/sg15_6_cif.got.tgz:10904.got - 2010.06.03 18:47:42.
