data_PCOD9290237
_publ_section_title
;
Structure prediction by ZEFSAII (Michael W. Deem and Ramdas Pophale) SiO2 
 PCOD9290237
Probable space group: C 2/C
;
_chemical_formula_sum "Si O2"
_cell_formula_units_Z 64
_cell_length_a 13.981781
_cell_length_b 18.887522
_cell_length_c 23.466308
_cell_angle_alpha 90.000000
_cell_angle_beta 32.646284
_cell_angle_gamma 90.000000
_cell_volume 3342.984537
_symmetry_space_group_name_H-M "C 2/C"
_symmetry_group_IT_number 15
_symmetry_cell_setting 'monoclinic'
loop_
_space_group_symop_operation_xyz
x,y,z
-x,y,1/2-z
-x,-y,-z
x,-y,1/2+z
1/2+x,1/2+y,z
1/2-x,1/2+y,1/2-z
1/2-x,1/2-y,-z
1/2+x,1/2-y,1/2+z
loop_
_atom_site_type_symbol
_atom_site_label
_atom_site_fract_x
_atom_site_fract_y
_atom_site_fract_z
Si Si1 0.185881 0.541772 0.398729
Si Si2 0.395857 0.943000 0.688198
Si Si3 0.207902 0.032727 0.545159
Si Si4 0.611419 0.312950 0.060686
Si Si5 0.706410 0.298786 0.662200
Si Si6 0.010757 0.191239 0.479178
Si Si7 0.799991 0.282665 0.746161
Si Si8 0.953236 0.963306 0.581607
O O1 0.206726 0.542220 0.320069
O O2 0.303606 0.501315 0.386310
O O3 0.205832 0.625987 0.400513
O O4 0.000000 0.500000 0.500000
O O5 0.592061 0.974025 0.581383
O O6 0.403018 0.858560 0.698559
O O7 0.257636 0.971905 0.803298
O O8 0.172238 0.116286 0.561257
O O9 0.066500 0.996332 0.575300
O O10 0.431295 0.282821 0.177083
O O11 0.750000 0.250000 0.000000
O O12 0.578656 0.324306 0.009431
O O13 0.500000 0.296734 0.750000
O O14 0.832483 0.237270 0.573699
O O15 0.712928 0.290275 0.727448
O O16 0.993961 0.118432 0.452930
O O17 0.164200 0.228808 0.365603
O O18 0.000000 0.000000 0.500000
#
# Coordination Sequence:
#
# PCOD9290237 Si02
#       8
#     8   8   8   8   8   8   8   8
#     4   9  21  40  62  91 124 160 206 261 316 370
#     4   9  20  41  64  85 124 168 201 257 321 367
#     4  11  22  40  65  94 125 164 206 259 317 377
#     4  11  21  40  66  92 124 156 209 256 310 376
#     4  10  22  41  64  90 124 169 211 255 309 370
#     4  10  23  43  62  87 128 164 209 254 306 373
#     4   9  20  40  64  88 124 162 201 258 309 365
#     4  11  23  42  60  91 127 167 211 256 309 378
#
# _framework density 19.144570000000002
#
# number of rings (size 3 to 8) (size 9 to 14) (size 15 to 20)
#    0.000    2.000    2.500    0.000    7.000    1.500 
#    6.750    1.250    0.000    0.000    0.000    0.000 
#    0.000    0.000    0.000    0.000    0.000    0.000 
#
# Total GULP energy -178323.758017 kJ/mol
# GULP energy per Si atom -5572.617438 kJ/mol
# Density = 1.910100 g / cm^3
# Si number density = 19.144570 Si / 1000 Ang^3
#
#
#
# Elastic Constant Matrix: (Units=GPa)
#
#
# Indices 1 2 3 4 5 6 
#
# 1 27.5379 15.3815 -5.7116 0.0010 -11.7331 -0.0004
# 2 15.3815 68.1350 15.4400 -0.0072 -2.7259 0.0004
# 3 -5.7116 15.4400 98.9487 -0.0129 3.5662 0.0001
# 4 0.0010 -0.0072 -0.0129 21.5682 -0.0005 1.1285
# 5 -11.7331 -2.7259 3.5662 -0.0005 26.1922 0.0015
# 6 -0.0004 0.0004 0.0001 1.1285 0.0015 31.6503
#
#
#
# Elastic Compliance Matrix: (Units=1/GPa)
#
#
# Indices 1 2 3 4 5 6 
#
# 1 0.053342 -0.012105 0.004173 -0.000004 0.022068 0.000000
# 2 -0.012105 0.018058 -0.003405 0.000004 -0.003079 0.000000
# 3 0.004173 -0.003405 0.010877 0.000005 0.000034 0.000000
# 4 -0.000004 0.000004 0.000005 0.046451 -0.000001 -0.001656
# 5 0.022068 -0.003079 0.000034 -0.000001 0.047740 -0.000002
# 6 0.000000 0.000000 0.000000 -0.001656 -0.000002 0.031654
#
#
# Mechanical properties :
#
#
# Convention : Reuss Voigt Hill
#
# Bulk Modulus (GPa) = 16.77787 27.20459 21.99123
# Shear Modulus (GPa) = 19.94689 27.18292 23.56491
#
# Velocity S-wave (km/s) = 3.23136 3.77221 3.51221
# Velocity P-wave (km/s) = 4.76498 5.76313 5.28766
#
# Compressibility (1/GPa) = 0.05960232
#
# Stress axis : x y z
#
# Youngs Moduli (GPa) = 18.74679 55.37741 91.93479
#
# Poissons Ratio (x) = 0.67033 -0.38360
# Poissons Ratio (y) = 0.22692 0.31308
# Poissons Ratio (z) = -0.07822 0.18859
#
# Static dielectric constant tensor:
#      x y z
#    x 1.674960 0.000000 -0.007480 
#    y 0.000000 1.658580 0.000000 
#    z -0.007480 0.000000 1.679810 
# 
# From -- ./inp_files/274824.got.cif
#   From: 2010.05.17/outbox.cif.g08.bks.cpg/sg15_138_cif.got.tgz:274824.got - 2010.06.03 18:47:42.
