data_PCOD9290055
_publ_section_title
;
Structure prediction by ZEFSAII (Michael W. Deem and Ramdas Pophale) SiO2 
 PCOD9290055
Probable space group: C 2/C
;
_chemical_formula_sum "Si O2"
_cell_formula_units_Z 64
_cell_length_a 21.156467
_cell_length_b 8.062512
_cell_length_c 24.712837
_cell_angle_alpha 90.000000
_cell_angle_beta 129.675743
_cell_angle_gamma 90.000000
_cell_volume 3244.446643
_symmetry_space_group_name_H-M "C 2/C"
_symmetry_group_IT_number 15
_symmetry_cell_setting 'monoclinic'
loop_
_space_group_symop_operation_xyz
x,y,z
-x,y,1/2-z
-x,-y,-z
x,-y,1/2+z
1/2+x,1/2+y,z
1/2-x,1/2+y,1/2-z
1/2-x,1/2-y,-z
1/2+x,1/2-y,1/2+z
loop_
_atom_site_type_symbol
_atom_site_label
_atom_site_fract_x
_atom_site_fract_y
_atom_site_fract_z
Si Si1 0.677589 0.199253 0.758776
Si Si2 0.827531 0.311373 0.368858
Si Si3 0.168054 0.634364 0.314567
Si Si4 0.500002 0.318664 0.525594
Si Si5 0.857212 0.698095 0.376134
Si Si6 0.963380 0.774177 0.326583
Si Si7 0.560015 0.976506 0.334941
Si Si8 0.494992 0.648198 0.342822
O O1 0.685214 0.249517 0.700022
O O2 0.768074 0.219250 0.833013
O O3 0.595785 0.301908 0.730440
O O4 0.660521 0.007590 0.763824
O O5 0.753034 0.230764 0.360362
O O6 0.913384 0.262152 0.442500
O O7 0.833238 0.506382 0.362696
O O8 0.097683 0.761931 0.258011
O O9 0.145414 0.542665 0.357731
O O10 0.500000 0.500000 0.500000
O O11 0.420105 0.229076 0.459146
O O12 0.503321 0.320652 0.591991
O O13 0.906802 0.762747 0.349899
O O14 0.022618 0.613078 0.355763
O O15 0.007910 0.951370 0.345044
O O16 0.500000 0.982084 0.250000
O O17 0.556048 0.787406 0.352543
#
# Coordination Sequence:
#
# PCOD9290055 Si02
#       8
#     8   8   8   8   8   8   8   8
#     4  11  20  35  61  90 128 156 204 262 323 374
#     4  11  21  36  61  90 126 163 203 260 333 372
#     4  11  21  39  60  94 129 162 207 275 309 382
#     4  11  23  38  60  92 128 166 206 264 327 386
#     4  12  22  37  60  99 126 160 211 261 326 397
#     4  11  20  36  63  88 127 162 209 259 311 383
#     4  10  22  41  58  92 129 164 217 264 309 371
#     4  11  22  40  65  91 126 175 208 263 326 377
#
# _framework density 19.726013999999999
#
# number of rings (size 3 to 8) (size 9 to 14) (size 15 to 20)
#    0.000    1.000    6.250    2.625    1.750    1.500 
#    2.250    0.000    0.000    6.000    0.000    0.000 
#    0.000    0.000    0.000    0.000    0.000    0.000 
#
# Total GULP energy -178366.548248 kJ/mol
# GULP energy per Si atom -5573.954633 kJ/mol
# Density = 1.968112 g / cm^3
# Si number density = 19.726014 Si / 1000 Ang^3
#
#
#
# Elastic Constant Matrix: (Units=GPa)
#
#
# Indices 1 2 3 4 5 6 
#
# 1 83.9172 38.7051 24.3622 0.0000 6.7646 0.0000
# 2 38.7051 107.0533 3.5973 0.0000 0.4051 0.0000
# 3 24.3622 3.5973 62.5321 0.0000 14.2510 0.0000
# 4 0.0000 0.0000 0.0000 24.2013 0.0000 0.8749
# 5 6.7646 0.4051 14.2510 0.0000 20.6008 0.0000
# 6 0.0000 0.0000 0.0000 0.8749 0.0000 37.9816
#
#
#
# Elastic Compliance Matrix: (Units=1/GPa)
#
#
# Indices 1 2 3 4 5 6 
#
# 1 0.016314 -0.005701 -0.005737 0.000000 -0.001276 0.000000
# 2 -0.005701 0.011352 0.001415 0.000000 0.000670 0.000000
# 3 -0.005737 0.001415 0.021040 0.000000 -0.012698 0.000000
# 4 0.000000 0.000000 0.000000 0.041355 0.000000 -0.000953
# 5 -0.001276 0.000670 -0.012698 0.000000 0.057732 0.000000
# 6 0.000000 0.000000 0.000000 -0.000953 0.000000 0.026350
#
#
# Mechanical properties :
#
#
# Convention : Reuss Voigt Hill
#
# Bulk Modulus (GPa) = 34.89106 42.98132 38.93619
# Shear Modulus (GPa) = 24.54083 29.01260 26.77671
#
# Velocity S-wave (km/s) = 3.53098 3.83923 3.68833
# Velocity P-wave (km/s) = 5.86089 6.44123 6.15790
#
# Compressibility (1/GPa) = 0.02866063
#
# Stress axis : x y z
#
# Youngs Moduli (GPa) = 61.29565 88.08873 47.52964
#
# Poissons Ratio (x) = 0.50218 0.27269
# Poissons Ratio (y) = 0.34944 -0.06727
# Poissons Ratio (z) = 0.35167 -0.12468
#
# Static dielectric constant tensor:
#      x y z
#    x 1.742450 0.000000 -0.073720 
#    y 0.000000 1.685520 0.000000 
#    z -0.073720 0.000000 1.494010 
# 
# From -- ./inp_files/279602.got.cif
#   From: 2010.05.17/outbox.cif.g08.bks.cpg/sg15_140_cif.got.tgz:279602.got - 2010.06.03 18:47:42.
