data_PCOD9290017
_publ_section_title
;
Structure prediction by ZEFSAII (Michael W. Deem and Ramdas Pophale) SiO2 
 PCOD9290017
Probable space group: C 2/C
;
_chemical_formula_sum "Si O2"
_cell_formula_units_Z 36
_cell_length_a 24.845171
_cell_length_b 10.743220
_cell_length_c 7.521300
_cell_angle_alpha 90.000000
_cell_angle_beta 41.118590
_cell_angle_gamma 90.000000
_cell_volume 1320.213570
_symmetry_space_group_name_H-M "C 2/C"
_symmetry_group_IT_number 15
_symmetry_cell_setting 'monoclinic'
loop_
_space_group_symop_operation_xyz
x,y,z
-x,y,1/2-z
-x,-y,-z
x,-y,1/2+z
1/2+x,1/2+y,z
1/2-x,1/2+y,1/2-z
1/2-x,1/2-y,-z
1/2+x,1/2-y,1/2+z
loop_
_atom_site_type_symbol
_atom_site_label
_atom_site_fract_x
_atom_site_fract_y
_atom_site_fract_z
Si Si1 0.000000 0.479356 0.750000
Si Si2 0.692291 0.329742 0.911509
Si Si3 0.988853 0.856384 0.066809
Si Si4 0.247583 0.589585 0.587372
Si Si5 0.091049 0.650783 0.731567
O O1 0.921826 0.565451 0.906867
O O2 0.015750 0.393403 0.544118
O O3 0.738098 0.448381 0.886552
O O4 0.682104 0.375149 0.730899
O O5 0.736841 0.194242 0.771466
O O6 0.605882 0.315555 0.224444
O O7 0.000000 0.839209 0.250000
O O8 0.060296 0.788711 0.775873
O O9 0.000000 0.000000 0.000000
O O10 0.169020 0.617182 0.655204
#
# Coordination Sequence:
#
# PCOD9290017 Si02
#       5
#     4   8   8   8   8
#     4  10  22  40  74 102 138 184 254 296 372 422
#     4  11  25  45  72 108 146 203 238 314 368 450
#     4  12  25  45  71 104 148 191 253 300 365 440
#     4  11  24  46  72 106 155 189 250 303 383 440
#     4  11  22  45  71 105 141 193 241 312 358 450
#
# _framework density 27.268315999999999
#
# number of rings (size 3 to 8) (size 9 to 14) (size 15 to 20)
#    0.000    0.889    3.333    2.667    4.667    2.667 
#    0.000    0.000    0.000    0.000    0.000    0.000 
#    0.000    0.000    0.000    0.000    0.000    0.000 
#
# Total GULP energy -100554.871275 kJ/mol
# GULP energy per Si atom -5586.381738 kJ/mol
# Density = 2.720625 g / cm^3
# Si number density = 27.268316 Si / 1000 Ang^3
#
#
#
# Elastic Constant Matrix: (Units=GPa)
#
#
# Indices 1 2 3 4 5 6 
#
# 1 97.8855 79.1329 25.5426 0.0000 -24.0084 0.0000
# 2 79.1329 127.1589 18.8776 0.0000 -11.3810 0.0000
# 3 25.5426 18.8776 111.2382 0.0000 -18.9593 0.0000
# 4 0.0000 0.0000 0.0000 35.7237 0.0000 8.7635
# 5 -24.0084 -11.3810 -18.9593 0.0000 45.4399 0.0000
# 6 0.0000 0.0000 0.0000 8.7635 0.0000 51.7969
#
#
#
# Elastic Compliance Matrix: (Units=1/GPa)
#
#
# Indices 1 2 3 4 5 6 
#
# 1 0.023993 -0.013920 -0.001702 0.000000 0.008480 0.000000
# 2 -0.013920 0.016247 -0.000130 0.000000 -0.003339 0.000000
# 3 -0.001702 -0.000130 0.009951 0.000000 0.003220 0.000000
# 4 0.000000 0.000000 0.000000 0.029205 0.000000 -0.004941
# 5 0.008480 -0.003339 0.003220 0.000000 0.026995 0.000000
# 6 0.000000 0.000000 0.000000 -0.004941 0.000000 0.020142
#
#
# Mechanical properties :
#
#
# Convention : Reuss Voigt Hill
#
# Bulk Modulus (GPa) = 53.50851 64.82100 59.16476
# Shear Modulus (GPa) = 30.43854 40.77407 35.60631
#
# Velocity S-wave (km/s) = 3.34467 3.87109 3.61747
# Velocity P-wave (km/s) = 5.88059 6.61843 6.26039
#
# Compressibility (1/GPa) = 0.01868862
#
# Stress axis : x y z
#
# Youngs Moduli (GPa) = 41.67897 61.55012 100.48809
#
# Poissons Ratio (x) = 0.85675 0.17100
# Poissons Ratio (y) = 0.58015 0.01308
# Poissons Ratio (z) = 0.07092 0.00801
#
# Static dielectric constant tensor:
#      x y z
#    x 2.160460 0.000000 -0.041090 
#    y 0.000000 2.526080 0.000000 
#    z -0.041090 0.000000 2.299410 
# 
# From -- ./inp_files/64988.got.cif
#   From: 2010.05.17/outbox.cif.g08.bks.cpg/sg15_33_cif.got.tgz:64988.got - 2010.06.03 18:47:42.
