data_PCOD9290316
_publ_section_title
;
Structure prediction by ZEFSAII (Michael W. Deem and Ramdas Pophale) SiO2 
 PCOD9290316
Probable space group: C 2/C
;
_chemical_formula_sum "Si O2"
_cell_formula_units_Z 52
_cell_length_a 25.878436
_cell_length_b 12.715902
_cell_length_c 21.333002
_cell_angle_alpha 90.000000
_cell_angle_beta 18.806910
_cell_angle_gamma 90.000000
_cell_volume 2263.106935
_symmetry_space_group_name_H-M "C 2/C"
_symmetry_group_IT_number 15
_symmetry_cell_setting 'monoclinic'
loop_
_space_group_symop_operation_xyz
x,y,z
-x,y,1/2-z
-x,-y,-z
x,-y,1/2+z
1/2+x,1/2+y,z
1/2-x,1/2+y,1/2-z
1/2-x,1/2-y,-z
1/2+x,1/2-y,1/2+z
loop_
_atom_site_type_symbol
_atom_site_label
_atom_site_fract_x
_atom_site_fract_y
_atom_site_fract_z
Si Si1 0.000000 0.564059 0.250000
Si Si2 0.817112 0.237785 0.277319
Si Si3 0.816416 0.185115 0.848758
Si Si4 0.459324 0.283097 0.729803
Si Si5 0.850908 0.105970 0.994640
Si Si6 0.040940 0.101877 0.493274
Si Si7 0.354567 0.075092 0.814979
O O1 0.840643 0.630732 0.444249
O O2 0.978045 0.497101 0.211134
O O3 0.628883 0.248201 0.504582
O O4 0.877850 0.161032 0.264373
O O5 0.877982 0.189941 0.143483
O O6 0.882066 0.356069 0.219765
O O7 0.773599 0.305949 0.885404
O O8 0.969142 0.154302 0.716713
O O9 0.874926 0.141588 0.714520
O O10 0.500000 0.329438 0.750000
O O11 0.353779 0.176878 0.861348
O O12 0.847017 0.084198 0.074302
O O13 0.797781 0.998644 0.022482
O O14 0.000000 0.000000 0.500000
#
# Coordination Sequence:
#
# PCOD9290316 Si02
#       7
#     4   8   8   8   8   8   8
#     4  12  24  50  76 106 150 190 246 310 374 446
#     4  10  24  42  69  97 149 184 238 299 360 428
#     4  10  26  45  72 101 146 182 249 302 369 436
#     4  10  22  41  65 103 138 187 231 296 360 428
#     4  10  24  46  67 111 134 194 247 302 368 434
#     4  10  26  44  70 102 145 194 246 294 365 435
#     4  10  24  41  71 106 139 194 239 295 377 425
#
# _framework density 22.977260999999999
#
# number of rings (size 3 to 8) (size 9 to 14) (size 15 to 20)
#    1.846    0.000    0.769    1.385    6.462    3.077 
#    2.769    1.538    0.000    0.000    0.000    0.000 
#    0.000    0.000    0.000    0.000    0.000    0.000 
#
# Total GULP energy -144737.691306 kJ/mol
# GULP energy per Si atom -5566.834281 kJ/mol
# Density = 2.292496 g / cm^3
# Si number density = 22.977261 Si / 1000 Ang^3
#
#
#
# Elastic Constant Matrix: (Units=GPa)
#
#
# Indices 1 2 3 4 5 6 
#
# 1 128.0356 60.2548 50.3647 -0.0002 -12.4573 0.0000
# 2 60.2548 120.1135 44.1285 0.0001 8.5924 0.0000
# 3 50.3647 44.1285 101.4959 -0.0001 11.8881 0.0000
# 4 -0.0002 0.0001 -0.0001 30.3876 0.0002 2.9901
# 5 -12.4573 8.5924 11.8881 0.0002 33.7449 0.0000
# 6 0.0000 0.0000 0.0000 2.9901 0.0000 43.4382
#
#
#
# Elastic Compliance Matrix: (Units=1/GPa)
#
#
# Indices 1 2 3 4 5 6 
#
# 1 0.013076 -0.005240 -0.005144 0.000000 0.007973 0.000000
# 2 -0.005240 0.012044 -0.002139 0.000000 -0.004248 0.000000
# 3 -0.005144 -0.002139 0.014075 0.000000 -0.006313 0.000000
# 4 0.000000 0.000000 0.000000 0.033133 0.000000 -0.002281
# 5 0.007973 -0.004248 -0.006313 0.000000 0.035883 0.000000
# 6 0.000000 0.000000 0.000000 -0.002281 0.000000 0.023178
#
#
# Mechanical properties :
#
#
# Convention : Reuss Voigt Hill
#
# Bulk Modulus (GPa) = 70.67954 73.23789 71.95871
# Shear Modulus (GPa) = 31.02721 34.50729 32.76725
#
# Velocity S-wave (km/s) = 3.67869 3.87951 3.78043
# Velocity P-wave (km/s) = 6.99079 7.21185 7.10218
#
# Compressibility (1/GPa) = 0.01414837
#
# Stress axis : x y z
#
# Youngs Moduli (GPa) = 76.47872 83.03176 71.05029
#
# Poissons Ratio (x) = 0.43507 0.36549
# Poissons Ratio (y) = 0.40073 0.15196
# Poissons Ratio (z) = 0.39342 0.17758
#
# Static dielectric constant tensor:
#      x y z
#    x 1.922470 0.000000 -0.018190 
#    y 0.000000 1.874290 0.000000 
#    z -0.018190 0.000000 1.909760 
# 
# From -- ./inp_files/257789.got.cif
#   From: 2010.05.17/outbox.cif.g08.bks.cpg/sg15_129_cif.got.tgz:257789.got - 2010.06.03 18:47:42.
