data_PCOD9290982
_publ_section_title
;
Structure prediction by ZEFSAII (Michael W. Deem and Ramdas Pophale) SiO2 
 PCOD9290982
Probable space group: C 2/C
;
_chemical_formula_sum "Si O2"
_cell_formula_units_Z 32
_cell_length_a 6.535780
_cell_length_b 12.181242
_cell_length_c 14.750833
_cell_angle_alpha 90.000000
_cell_angle_beta 91.949661
_cell_angle_gamma 90.000000
_cell_volume 1173.691767
_symmetry_space_group_name_H-M "C 2/C"
_symmetry_group_IT_number 15
_symmetry_cell_setting 'monoclinic'
loop_
_space_group_symop_operation_xyz
x,y,z
-x,y,1/2-z
-x,-y,-z
x,-y,1/2+z
1/2+x,1/2+y,z
1/2-x,1/2+y,1/2-z
1/2-x,1/2-y,-z
1/2+x,1/2-y,1/2+z
loop_
_atom_site_type_symbol
_atom_site_label
_atom_site_fract_x
_atom_site_fract_y
_atom_site_fract_z
Si Si1 0.399983 0.673320 0.838051
Si Si2 0.796967 0.556916 0.922042
Si Si3 0.004306 0.232660 0.357700
Si Si4 0.185723 0.531644 0.371313
O O1 0.500000 0.724044 0.750000
O O2 0.577880 0.607049 0.892011
O O3 0.248445 0.760638 0.881681
O O4 0.260855 0.568223 0.810614
O O5 0.921848 0.670919 0.919971
O O6 0.937125 0.474394 0.863578
O O7 0.782393 0.505923 0.021101
O O8 0.000000 0.256543 0.250000
O O9 0.842895 0.132680 0.362188
#
# Coordination Sequence:
#
# PCOD9290982 Si02
#       4
#     8   8   8   8
#     4  11  22  40  63  92 136 175 221 287 340 403
#     4  10  22  42  62  92 134 172 221 291 338 405
#     4  11  22  40  63  95 132 174 227 278 344 411
#     4  10  23  39  65  94 127 179 229 273 347 418
#
# _framework density 27.264398
#
# number of rings (size 3 to 8) (size 9 to 14) (size 15 to 20)
#    0.000    1.500    2.500    2.250    0.000    3.000 
#    0.000    0.000    0.000    0.000    0.000    0.000 
#    0.000    0.000    0.000    0.000    0.000    0.000 
#
# Total GULP energy -89164.448911 kJ/mol
# GULP energy per Si atom -5572.778057 kJ/mol
# Density = 2.720234 g / cm^3
# Si number density = 27.264398 Si / 1000 Ang^3
#
#
#
# Elastic Constant Matrix: (Units=GPa)
#
#
# Indices 1 2 3 4 5 6 
#
# 1 247.4199 96.6476 43.4130 0.0000 -18.2515 0.0000
# 2 96.6476 163.0117 -1.5042 0.0000 -17.8191 0.0000
# 3 43.4130 -1.5042 56.2657 0.0000 -7.1342 0.0000
# 4 0.0000 0.0000 0.0000 14.9669 0.0000 -8.4467
# 5 -18.2515 -17.8191 -7.1342 0.0000 45.5790 0.0000
# 6 0.0000 0.0000 0.0000 -8.4467 0.0000 79.7255
#
#
#
# Elastic Compliance Matrix: (Units=1/GPa)
#
#
# Indices 1 2 3 4 5 6 
#
# 1 0.006446 -0.003836 -0.005039 0.000000 0.000293 0.000000
# 2 -0.003836 0.008705 0.003499 0.000000 0.002415 0.000000
# 3 -0.005039 0.003499 0.022111 0.000000 0.002811 0.000000
# 4 0.000000 0.000000 0.000000 0.071063 0.000000 0.007529
# 5 0.000293 0.002415 0.002811 0.000000 0.023441 0.000000
# 6 0.000000 0.000000 0.000000 0.007529 0.000000 0.013341
#
#
# Mechanical properties :
#
#
# Convention : Reuss Voigt Hill
#
# Bulk Modulus (GPa) = 37.72279 82.64558 60.18418
# Shear Modulus (GPa) = 30.35898 49.93035 40.14467
#
# Velocity S-wave (km/s) = 3.34054 4.28406 3.84138
# Velocity P-wave (km/s) = 5.36143 7.40603 6.46507
#
# Compressibility (1/GPa) = 0.02650918
#
# Stress axis : x y z
#
# Youngs Moduli (GPa) = 155.13550 114.87336 45.22694
#
# Poissons Ratio (x) = 0.44068 0.22790
# Poissons Ratio (y) = 0.59514 -0.15824
# Poissons Ratio (z) = 0.78172 -0.40192
#
# Static dielectric constant tensor:
#      x y z
#    x 2.352260 0.000000 0.071610 
#    y 0.000000 2.101420 0.000000 
#    z 0.071610 0.000000 2.077340 
# 
# From -- ./inp_files/183821.got.cif
#   From: 2010.05.17/outbox.cif.g08.bks.cpg/sg15_92_cif.got.tgz:183821.got - 2010.06.03 18:47:42.
