data_PCOD9290093
_publ_section_title
;
Structure prediction by ZEFSAII (Michael W. Deem and Ramdas Pophale) SiO2 
 PCOD9290093
Probable space group: C 2/C
;
_chemical_formula_sum "Si O2"
_cell_formula_units_Z 56
_cell_length_a 12.591718
_cell_length_b 7.201537
_cell_length_c 27.132934
_cell_angle_alpha 90.000000
_cell_angle_beta 63.273190
_cell_angle_gamma 90.000000
_cell_volume 2197.539632
_symmetry_space_group_name_H-M "C 2/C"
_symmetry_group_IT_number 15
_symmetry_cell_setting 'monoclinic'
loop_
_space_group_symop_operation_xyz
x,y,z
-x,y,1/2-z
-x,-y,-z
x,-y,1/2+z
1/2+x,1/2+y,z
1/2-x,1/2+y,1/2-z
1/2-x,1/2-y,-z
1/2+x,1/2-y,1/2+z
loop_
_atom_site_type_symbol
_atom_site_label
_atom_site_fract_x
_atom_site_fract_y
_atom_site_fract_z
Si Si1 0.400409 0.759164 0.007723
Si Si2 0.774542 0.498880 0.185570
Si Si3 0.459177 0.544280 0.141495
Si Si4 0.739600 0.820650 0.626421
Si Si5 0.878979 0.163806 0.475166
Si Si6 0.615810 0.800462 0.251713
Si Si7 0.970139 0.620552 0.388992
O O1 0.378157 0.545911 0.996108
O O2 0.411195 0.870124 0.954959
O O3 0.295577 0.794483 0.068504
O O4 0.526889 0.766800 0.008964
O O5 0.705917 0.330363 0.174489
O O6 0.700204 0.685004 0.198022
O O7 0.805499 0.449077 0.235606
O O8 0.906258 0.512466 0.135190
O O9 0.346350 0.562987 0.128065
O O10 0.564294 0.649958 0.090862
O O11 0.429228 0.648820 0.198294
O O12 0.494129 0.329015 0.136231
O O13 0.630325 0.937998 0.628777
O O14 0.750000 0.250000 0.500000
O O15 0.500000 0.880133 0.250000
#
# Coordination Sequence:
#
# PCOD9290093 Si02
#       7
#     8   8   8   8   8   8   8
#     4   9  20  35  56  92 127 159 203 242 292 372
#     4  11  26  41  63  93 116 157 212 252 304 372
#     4   9  21  41  62  89 122 157 204 249 298 368
#     4  10  22  41  61  91 129 159 197 250 302 358
#     4   9  18  35  61  90 125 165 199 243 300 357
#     4  11  24  44  65  87 118 157 204 259 310 355
#     4  11  22  39  63  90 125 163 196 247 305 355
#
# _framework density 25.483042000000001
#
# number of rings (size 3 to 8) (size 9 to 14) (size 15 to 20)
#    0.000    2.000    0.000    3.000    0.000   10.857 
#    0.000    2.143    0.000    0.000    0.000    0.000 
#    0.000    0.000    0.000    0.000    0.000    0.000 
#
# Total GULP energy -156982.171954 kJ/mol
# GULP energy per Si atom -5606.506141 kJ/mol
# Density = 2.542504 g / cm^3
# Si number density = 25.483042 Si / 1000 Ang^3
#
#
#
# Elastic Constant Matrix: (Units=GPa)
#
#
# Indices 1 2 3 4 5 6 
#
# 1 139.1914 32.9554 19.0908 0.0000 -3.1507 0.0000
# 2 32.9554 53.9736 9.2140 0.0000 -3.2295 0.0000
# 3 19.0908 9.2140 70.8745 0.0000 -4.4031 0.0000
# 4 0.0000 0.0000 0.0000 38.7882 0.0000 -4.4709
# 5 -3.1507 -3.2295 -4.4031 0.0000 27.4692 0.0000
# 6 0.0000 0.0000 0.0000 -4.4709 0.0000 28.8580
#
#
#
# Elastic Compliance Matrix: (Units=1/GPa)
#
#
# Indices 1 2 3 4 5 6 
#
# 1 0.008588 -0.004952 -0.001661 0.000000 0.000137 0.000000
# 2 -0.004952 0.021897 -0.001402 0.000000 0.001782 0.000000
# 3 -0.001661 -0.001402 0.014865 0.000000 0.002027 0.000000
# 4 0.000000 0.000000 0.000000 0.026250 0.000000 0.004067
# 5 0.000137 0.001782 0.002027 0.000000 0.036955 0.000000
# 6 0.000000 0.000000 0.000000 0.004067 0.000000 0.035282
#
#
# Mechanical properties :
#
#
# Convention : Reuss Voigt Hill
#
# Bulk Modulus (GPa) = 34.10650 42.95112 38.52881
# Shear Modulus (GPa) = 29.47422 32.54168 31.00795
#
# Velocity S-wave (km/s) = 3.40460 3.57738 3.49206
# Velocity P-wave (km/s) = 5.37291 5.82708 5.60460
#
# Compressibility (1/GPa) = 0.02931992
#
# Stress axis : x y z
#
# Youngs Moduli (GPa) = 116.44638 45.66826 67.27172
#
# Poissons Ratio (x) = 0.22614 0.11173
# Poissons Ratio (y) = 0.57662 0.09433
# Poissons Ratio (z) = 0.19341 0.06404
#
# Static dielectric constant tensor:
#      x y z
#    x 1.945860 0.000000 0.011610 
#    y 0.000000 1.976490 0.000000 
#    z 0.011610 0.000000 2.029300 
# 
# From -- ./inp_files/291619.got.cif
#   From: 2010.05.17/outbox.cif.g08.bks.cpg/sg15_146_cif.got.tgz:291619.got - 2010.06.03 18:47:42.
