data_PCOD9290505
_publ_section_title
;
Structure prediction by ZEFSAII (Michael W. Deem and Ramdas Pophale) SiO2 
 PCOD9290505
Probable space group: C 2/C
;
_chemical_formula_sum "Si O2"
_cell_formula_units_Z 52
_cell_length_a 24.792799
_cell_length_b 14.396929
_cell_length_c 8.360344
_cell_angle_alpha 90.000000
_cell_angle_beta 52.661245
_cell_angle_gamma 90.000000
_cell_volume 2372.582569
_symmetry_space_group_name_H-M "C 2/C"
_symmetry_group_IT_number 15
_symmetry_cell_setting 'monoclinic'
loop_
_space_group_symop_operation_xyz
x,y,z
-x,y,1/2-z
-x,-y,-z
x,-y,1/2+z
1/2+x,1/2+y,z
1/2-x,1/2+y,1/2-z
1/2-x,1/2-y,-z
1/2+x,1/2-y,1/2+z
loop_
_atom_site_type_symbol
_atom_site_label
_atom_site_fract_x
_atom_site_fract_y
_atom_site_fract_z
Si Si1 0.460321 0.707320 0.472062
Si Si2 0.764946 0.466334 0.810553
Si Si3 0.084734 0.594334 0.391846
Si Si4 0.419652 0.383022 0.593395
Si Si5 0.881845 0.073501 0.800526
Si Si6 0.731451 0.641892 0.037759
Si Si7 0.500000 0.947889 0.750000
O O1 0.500000 0.667376 0.250000
O O2 0.435577 0.810670 0.484509
O O3 0.519093 0.688569 0.496176
O O4 0.395734 0.650737 0.644181
O O5 0.835837 0.428945 0.752522
O O6 0.755754 0.415672 0.654226
O O7 0.698037 0.441779 0.033854
O O8 0.760531 0.579178 0.838157
O O9 0.047646 0.511766 0.553146
O O10 0.050786 0.604178 0.278184
O O11 0.424649 0.485099 0.663494
O O12 0.406928 0.397600 0.429487
O O13 0.350016 0.352340 0.803522
O O14 0.750000 0.750000 0.000000
#
# Coordination Sequence:
#
# PCOD9290505 Si02
#       7
#     8   8   8   8   8   8   4
#     4  12  25  39  65  97 131 179 227 279 347 422
#     4  10  23  46  69 105 138 183 235 294 354 424
#     4  11  24  44  69  94 138 175 230 280 345 415
#     4  10  22  41  66  96 137 173 229 284 358 409
#     4  10  22  43  66  98 135 174 223 294 352 415
#     4  10  23  44  73 103 143 187 234 294 356 425
#     4  10  24  44  64  94 126 178 216 278 334 400
#
# _framework density 21.917045999999999
#
# number of rings (size 3 to 8) (size 9 to 14) (size 15 to 20)
#    0.000    1.538    0.769    2.769    4.308    4.308 
#    8.308    0.000    0.000    0.000    0.000    0.000 
#    0.000    0.000    0.000    0.000    0.000    0.000 
#
# Total GULP energy -145066.510701 kJ/mol
# GULP energy per Si atom -5579.481181 kJ/mol
# Density = 2.186716 g / cm^3
# Si number density = 21.917046 Si / 1000 Ang^3
#
#
#
# Elastic Constant Matrix: (Units=GPa)
#
#
# Indices 1 2 3 4 5 6 
#
# 1 88.3887 12.3370 36.1967 0.0000 -24.0140 0.0000
# 2 12.3370 80.4317 21.6931 0.0000 -7.0844 0.0000
# 3 36.1967 21.6931 85.8801 0.0000 -9.1337 0.0000
# 4 0.0000 0.0000 0.0000 25.2678 0.0000 -4.0844
# 5 -24.0140 -7.0844 -9.1337 0.0000 42.8597 0.0000
# 6 0.0000 0.0000 0.0000 -4.0844 0.0000 27.0864
#
#
#
# Elastic Compliance Matrix: (Units=1/GPa)
#
#
# Indices 1 2 3 4 5 6 
#
# 1 0.015769 -0.000189 -0.005793 0.000000 0.007569 0.000000
# 2 -0.000189 0.013442 -0.003162 0.000000 0.001442 0.000000
# 3 -0.005793 -0.003162 0.014820 0.000000 -0.000611 0.000000
# 4 0.000000 0.000000 0.000000 0.040565 0.000000 0.006117
# 5 0.007569 0.001442 -0.000611 0.000000 0.027681 0.000000
# 6 0.000000 0.000000 0.000000 0.006117 0.000000 0.037841
#
#
# Mechanical properties :
#
#
# Convention : Reuss Voigt Hill
#
# Bulk Modulus (GPa) = 38.84930 43.90604 41.37767
# Shear Modulus (GPa) = 28.25043 31.34102 29.79573
#
# Velocity S-wave (km/s) = 3.59412 3.78562 3.69111
# Velocity P-wave (km/s) = 5.91504 6.25973 6.08982
#
# Compressibility (1/GPa) = 0.02574049
#
# Stress axis : x y z
#
# Youngs Moduli (GPa) = 63.41507 74.39463 67.47734
#
# Poissons Ratio (x) = 0.01410 0.39093
# Poissons Ratio (y) = 0.01202 0.21337
# Poissons Ratio (z) = 0.36739 0.23525
#
# Static dielectric constant tensor:
#      x y z
#    x 1.899530 0.000000 0.037740 
#    y 0.000000 1.852030 0.000000 
#    z 0.037740 0.000000 1.820840 
# 
# From -- ./inp_files/66131.got.cif
#   From: 2010.05.17/outbox.cif.g08.bks.cpg/sg15_34_cif.got.tgz:66131.got - 2010.06.03 18:47:42.
