data_PCOD9290350
_publ_section_title
;
Structure prediction by ZEFSAII (Michael W. Deem and Ramdas Pophale) SiO2 
 PCOD9290350
Probable space group: C 2/C
;
_chemical_formula_sum "Si O2"
_cell_formula_units_Z 64
_cell_length_a 8.972035
_cell_length_b 13.499044
_cell_length_c 23.200288
_cell_angle_alpha 90.000000
_cell_angle_beta 108.718878
_cell_angle_gamma 90.000000
_cell_volume 2661.247640
_symmetry_space_group_name_H-M "C 2/C"
_symmetry_group_IT_number 15
_symmetry_cell_setting 'monoclinic'
loop_
_space_group_symop_operation_xyz
x,y,z
-x,y,1/2-z
-x,-y,-z
x,-y,1/2+z
1/2+x,1/2+y,z
1/2-x,1/2+y,1/2-z
1/2-x,1/2-y,-z
1/2+x,1/2-y,1/2+z
loop_
_atom_site_type_symbol
_atom_site_label
_atom_site_fract_x
_atom_site_fract_y
_atom_site_fract_z
Si Si1 0.815429 0.628879 0.220392
Si Si2 0.032317 0.413091 0.459388
Si Si3 0.115972 0.218286 0.049035
Si Si4 0.632346 0.669180 0.815887
Si Si5 0.295737 0.671171 0.076292
Si Si6 0.755324 0.483468 0.603464
Si Si7 0.051131 0.831052 0.085990
Si Si8 0.337736 0.546424 0.193520
O O1 0.767881 0.731898 0.183926
O O2 0.767487 0.538597 0.173057
O O3 0.758343 0.618970 0.277853
O O4 0.000000 0.625186 0.250000
O O5 0.884803 0.336980 0.438444
O O6 0.179526 0.359227 0.509781
O O7 0.097425 0.461957 0.408677
O O8 0.000000 0.500000 0.500000
O O9 0.962349 0.192192 0.068205
O O10 0.234431 0.126516 0.074177
O O11 0.070493 0.208068 0.976434
O O12 0.500000 0.670898 0.750000
O O13 0.534496 0.673284 0.863188
O O14 0.720444 0.566020 0.817646
O O15 0.205129 0.760764 0.097853
O O16 0.332348 0.588491 0.128725
O O17 0.608324 0.557795 0.577936
O O18 0.500000 0.543273 0.250000
#
# Coordination Sequence:
#
# PCOD9290350 Si02
#       8
#     8   8   8   8   8   8   8   8
#     4  11  26  46  65  98 134 175 225 283 354 405
#     4  11  26  41  63 102 141 174 222 282 350 411
#     4  11  23  43  66 102 132 179 230 272 341 417
#     4  10  22  41  65  92 128 176 225 270 334 405
#     4  11  21  42  68  97 135 174 219 284 338 405
#     4  12  24  43  70  96 136 179 229 283 341 419
#     4  11  21  41  69  98 135 177 222 283 338 410
#     4  11  24  44  71  98 129 177 236 281 331 417
#
# _framework density 24.048870000000001
#
# number of rings (size 3 to 8) (size 9 to 14) (size 15 to 20)
#    0.000    1.000    2.500    5.625    7.000    1.500 
#    0.000    1.250    0.000    0.000    0.000    0.000 
#    0.000    0.000    0.000    0.000    0.000    0.000 
#
# Total GULP energy -178902.522109 kJ/mol
# GULP energy per Si atom -5590.703816 kJ/mol
# Density = 2.399413 g / cm^3
# Si number density = 24.048870 Si / 1000 Ang^3
#
#
#
# Elastic Constant Matrix: (Units=GPa)
#
#
# Indices 1 2 3 4 5 6 
#
# 1 56.9855 18.7914 8.0471 0.0000 -10.1143 0.0000
# 2 18.7914 140.7540 27.7798 0.0000 -4.4060 0.0000
# 3 8.0471 27.7798 111.2134 0.0000 -20.4483 0.0000
# 4 0.0000 0.0000 0.0000 47.0704 0.0000 0.0065
# 5 -10.1143 -4.4060 -20.4483 0.0000 48.4680 0.0000
# 6 0.0000 0.0000 0.0000 0.0065 0.0000 37.6042
#
#
#
# Elastic Compliance Matrix: (Units=1/GPa)
#
#
# Indices 1 2 3 4 5 6 
#
# 1 0.019013 -0.002404 -0.000093 0.000000 0.003710 0.000000
# 2 -0.002404 0.007778 -0.001877 0.000000 -0.000586 0.000000
# 3 -0.000093 -0.001877 0.010225 0.000000 0.004124 0.000000
# 4 0.000000 0.000000 0.000000 0.021245 0.000000 -0.000004
# 5 0.003710 -0.000586 0.004124 0.000000 0.023093 0.000000
# 6 0.000000 0.000000 0.000000 -0.000004 0.000000 0.026593
#
#
# Mechanical properties :
#
#
# Convention : Reuss Voigt Hill
#
# Bulk Modulus (GPa) = 35.37507 46.46552 40.92029
# Shear Modulus (GPa) = 39.64603 43.58415 41.61509
#
# Velocity S-wave (km/s) = 4.06465 4.26175 4.16437
# Velocity P-wave (km/s) = 6.06384 6.60151 6.33838
#
# Compressibility (1/GPa) = 0.02826849
#
# Stress axis : x y z
#
# Youngs Moduli (GPa) = 52.59671 128.57551 97.79488
#
# Poissons Ratio (x) = 0.30907 0.00911
# Poissons Ratio (y) = 0.12643 0.18352
# Poissons Ratio (z) = 0.00490 0.24129
#
# Static dielectric constant tensor:
#      x y z
#    x 1.933810 0.000000 0.051580 
#    y 0.000000 2.025760 0.000000 
#    z 0.051580 0.000000 1.894690 
# 
# From -- ./inp_files/268896.got.cif
#   From: 2010.05.17/outbox.cif.g08.bks.cpg/sg15_135_cif.got.tgz:268896.got - 2010.06.03 18:47:42.
