data_PCOD9290506
_publ_section_title
;
Structure prediction by ZEFSAII (Michael W. Deem and Ramdas Pophale) SiO2 
 PCOD9290506
Probable space group: C 2/C
;
_chemical_formula_sum "Si O2"
_cell_formula_units_Z 48
_cell_length_a 23.868886
_cell_length_b 11.706032
_cell_length_c 17.899490
_cell_angle_alpha 90.000000
_cell_angle_beta 26.536787
_cell_angle_gamma 90.000000
_cell_volume 2234.440375
_symmetry_space_group_name_H-M "C 2/C"
_symmetry_group_IT_number 15
_symmetry_cell_setting 'monoclinic'
loop_
_space_group_symop_operation_xyz
x,y,z
-x,y,1/2-z
-x,-y,-z
x,-y,1/2+z
1/2+x,1/2+y,z
1/2-x,1/2+y,1/2-z
1/2-x,1/2-y,-z
1/2+x,1/2-y,1/2+z
loop_
_atom_site_type_symbol
_atom_site_label
_atom_site_fract_x
_atom_site_fract_y
_atom_site_fract_z
Si Si1 0.803244 0.992245 0.892000
Si Si2 0.857510 0.016218 0.496576
Si Si3 0.558054 0.949308 0.355868
Si Si4 0.951359 0.817169 0.646091
Si Si5 0.013654 0.844188 0.398975
Si Si6 0.569554 0.132658 0.235314
O O1 0.876158 0.064468 0.742735
O O2 0.819654 0.865477 0.837496
O O3 0.686251 0.069395 0.056725
O O4 0.061939 0.885604 0.557641
O O5 0.708312 0.033074 0.684235
O O6 0.872768 0.015605 0.389009
O O7 0.903753 0.896978 0.477995
O O8 0.536192 0.818249 0.362333
O O9 0.500000 0.000000 0.500000
O O10 0.503391 0.026061 0.354044
O O11 0.966076 0.838058 0.539927
O O12 0.073266 0.727539 0.295375
O O13 0.500000 0.190950 0.250000
#
# Coordination Sequence:
#
# PCOD9290506 Si02
#       6
#     8   8   8   8   8   8
#     4  10  22  41  66  97 129 170 231 277 332 404
#     4  10  23  41  69  92 130 180 222 285 338 400
#     4  11  25  45  60  98 139 173 226 284 334 407
#     4  11  23  42  68  95 133 178 228 274 347 405
#     4  11  21  41  65  97 130 174 223 279 337 406
#     4  11  24  40  65  95 134 178 219 277 336 398
#
# _framework density 21.481888999999999
#
# number of rings (size 3 to 8) (size 9 to 14) (size 15 to 20)
#    0.000    1.333    1.667    5.500    0.000   10.667 
#    0.000    0.000    0.000    0.000    0.000    0.000 
#    0.000    0.000    0.000    0.000    0.000    0.000 
#
# Total GULP energy -133658.511351 kJ/mol
# GULP energy per Si atom -5569.104640 kJ/mol
# Density = 2.143300 g / cm^3
# Si number density = 21.481889 Si / 1000 Ang^3
#
#
#
# Elastic Constant Matrix: (Units=GPa)
#
#
# Indices 1 2 3 4 5 6 
#
# 1 50.9988 9.7128 0.1855 0.0000 13.4248 0.0000
# 2 9.7128 127.2137 -0.1386 0.0000 5.9582 0.0000
# 3 0.1855 -0.1386 52.8527 0.0000 2.4184 0.0000
# 4 0.0000 0.0000 0.0000 27.4608 0.0000 22.2038
# 5 13.4248 5.9582 2.4184 0.0000 23.8931 0.0000
# 6 0.0000 0.0000 0.0000 22.2038 0.0000 27.0132
#
#
#
# Elastic Compliance Matrix: (Units=1/GPa)
#
#
# Indices 1 2 3 4 5 6 
#
# 1 0.023197 -0.001171 0.000501 0.000000 -0.012792 0.000000
# 2 -0.001171 0.008014 0.000087 0.000000 -0.001349 0.000000
# 3 0.000501 0.000087 0.019021 0.000000 -0.002228 0.000000
# 4 0.000000 0.000000 0.000000 0.108575 0.000000 -0.089244
# 5 -0.012792 -0.001349 -0.002228 0.000000 0.049603 0.000000
# 6 0.000000 0.000000 0.000000 -0.089244 0.000000 0.110374
#
#
# Mechanical properties :
#
#
# Convention : Reuss Voigt Hill
#
# Bulk Modulus (GPa) = 20.38153 27.84273 24.11213
# Shear Modulus (GPa) = 14.86747 30.42712 22.64729
#
# Velocity S-wave (km/s) = 2.63362 3.76760 3.25044
# Velocity P-wave (km/s) = 4.33086 5.64939 5.03348
#
# Compressibility (1/GPa) = 0.04906403
#
# Stress axis : x y z
#
# Youngs Moduli (GPa) = 43.10904 124.78939 52.57358
#
# Poissons Ratio (x) = 0.14618 -0.02633
# Poissons Ratio (y) = 0.05050 -0.00457
# Poissons Ratio (z) = -0.02159 -0.01084
#
# Static dielectric constant tensor:
#      x y z
#    x 1.793800 0.000000 -0.043800 
#    y 0.000000 1.831750 0.000000 
#    z -0.043800 0.000000 1.850880 
# 
# From -- ./inp_files/259215.got.cif
#   From: 2010.05.17/outbox.cif.g08.bks.cpg/sg15_130_cif.got.tgz:259215.got - 2010.06.03 18:47:42.
