data_PCOD9290566
_publ_section_title
;
Structure prediction by ZEFSAII (Michael W. Deem and Ramdas Pophale) SiO2 
 PCOD9290566
Probable space group: C 2/C
;
_chemical_formula_sum "Si O2"
_cell_formula_units_Z 36
_cell_length_a 5.981800
_cell_length_b 23.147800
_cell_length_c 11.715814
_cell_angle_alpha 90.000000
_cell_angle_beta 85.485704
_cell_angle_gamma 90.000000
_cell_volume 1617.203540
_symmetry_space_group_name_H-M "C 2/C"
_symmetry_group_IT_number 15
_symmetry_cell_setting 'monoclinic'
loop_
_space_group_symop_operation_xyz
x,y,z
-x,y,1/2-z
-x,-y,-z
x,-y,1/2+z
1/2+x,1/2+y,z
1/2-x,1/2+y,1/2-z
1/2-x,1/2-y,-z
1/2+x,1/2-y,1/2+z
loop_
_atom_site_type_symbol
_atom_site_label
_atom_site_fract_x
_atom_site_fract_y
_atom_site_fract_z
Si Si1 0.297827 0.529248 0.578376
Si Si2 0.703295 0.327783 0.656476
Si Si3 0.446238 0.078177 0.410018
Si Si4 0.545781 0.641393 0.559363
Si Si5 0.500000 0.271077 0.250000
O O1 0.500000 0.500000 0.500000
O O2 0.181402 0.475283 0.647551
O O3 0.408522 0.587748 0.622072
O O4 0.107279 0.551515 0.500637
O O5 0.500000 0.339925 0.750000
O O6 0.609884 0.329070 0.531308
O O7 0.822692 0.269439 0.692471
O O8 0.883671 0.378793 0.657635
O O9 0.255596 0.115297 0.482152
O O10 0.611841 0.687787 0.651100
#
# Coordination Sequence:
#
# PCOD9290566 Si02
#       5
#     8   8   8   8   4
#     4   8  16  35  68  92 123 166 211 270 327 392
#     4  11  24  40  63  96 131 173 226 271 330 395
#     4   9  18  38  68  90 128 168 215 274 326 391
#     4  10  22  41  67  93 131 171 223 272 332 398
#     4  12  26  42  64  92 138 174 224 278 332 392
#
# _framework density 22.260648
#
# number of rings (size 3 to 8) (size 9 to 14) (size 15 to 20)
#    0.000    2.222    0.000    2.000    0.000    7.111 
#    0.000    0.000  141.778    0.000    0.000    0.000 
#    0.000    0.000    0.000    0.000    0.000    0.000 
#
# Total GULP energy -100441.961787 kJ/mol
# GULP energy per Si atom -5580.108988 kJ/mol
# Density = 2.220998 g / cm^3
# Si number density = 22.260648 Si / 1000 Ang^3
#
#
#
# Elastic Constant Matrix: (Units=GPa)
#
#
# Indices 1 2 3 4 5 6 
#
# 1 111.2967 60.9079 18.7760 0.0000 -9.0511 0.0000
# 2 60.9079 165.2823 48.5531 0.0000 -9.6735 0.0000
# 3 18.7760 48.5531 60.8298 0.0000 4.4968 0.0000
# 4 0.0000 0.0000 0.0000 19.3904 0.0000 2.1986
# 5 -9.0511 -9.6735 4.4968 0.0000 38.0995 0.0000
# 6 0.0000 0.0000 0.0000 2.1986 0.0000 26.8846
#
#
#
# Elastic Compliance Matrix: (Units=1/GPa)
#
#
# Indices 1 2 3 4 5 6 
#
# 1 0.011368 -0.003942 -0.000493 0.000000 0.001758 0.000000
# 2 -0.003942 0.009572 -0.006592 0.000000 0.002272 0.000000
# 3 -0.000493 -0.006592 0.022179 0.000000 -0.004408 0.000000
# 4 0.000000 0.000000 0.000000 0.052055 0.000000 -0.004257
# 5 0.001758 0.002272 -0.004408 0.000000 0.027762 0.000000
# 6 0.000000 0.000000 0.000000 -0.004257 0.000000 0.037544
#
#
# Mechanical properties :
#
#
# Convention : Reuss Voigt Hill
#
# Bulk Modulus (GPa) = 47.46792 65.98699 56.72745
# Shear Modulus (GPa) = 26.37776 30.81968 28.59872
#
# Velocity S-wave (km/s) = 3.44605 3.72491 3.58819
# Velocity P-wave (km/s) = 6.09948 6.94314 6.53494
#
# Compressibility (1/GPa) = 0.02106686
#
# Stress axis : x y z
#
# Youngs Moduli (GPa) = 87.96487 104.47074 45.08865
#
# Poissons Ratio (x) = 0.41178 0.02222
# Poissons Ratio (y) = 0.34672 0.29720
# Poissons Ratio (z) = 0.04335 0.68862
#
# Static dielectric constant tensor:
#      x y z
#    x 1.788800 0.000000 0.006850 
#    y 0.000000 1.859100 0.000000 
#    z 0.006850 0.000000 1.898230 
# 
# From -- ./inp_files/72602.got.cif
#   From: 2010.05.17/outbox.cif.g08.bks.cpg/sg15_37_cif.got.tgz:72602.got - 2010.06.03 18:47:42.
