data_PCOD9290739
_publ_section_title
;
Structure prediction by ZEFSAII (Michael W. Deem and Ramdas Pophale) SiO2 
 PCOD9290739
Probable space group: C 2/C
;
_chemical_formula_sum "Si O2"
_cell_formula_units_Z 56
_cell_length_a 9.449437
_cell_length_b 21.282436
_cell_length_c 14.163657
_cell_angle_alpha 90.000000
_cell_angle_beta 116.894514
_cell_angle_gamma 90.000000
_cell_volume 2540.329372
_symmetry_space_group_name_H-M "C 2/C"
_symmetry_group_IT_number 15
_symmetry_cell_setting 'monoclinic'
loop_
_space_group_symop_operation_xyz
x,y,z
-x,y,1/2-z
-x,-y,-z
x,-y,1/2+z
1/2+x,1/2+y,z
1/2-x,1/2+y,1/2-z
1/2-x,1/2-y,-z
1/2+x,1/2-y,1/2+z
loop_
_atom_site_type_symbol
_atom_site_label
_atom_site_fract_x
_atom_site_fract_y
_atom_site_fract_z
Si Si1 0.791585 0.433408 0.578620
Si Si2 0.772875 0.340482 0.058783
Si Si3 0.126056 0.597402 0.095140
Si Si4 0.823344 0.311042 0.713782
Si Si5 0.488042 0.723171 0.145474
Si Si6 0.332536 0.524205 0.648777
Si Si7 0.314665 0.054997 0.710562
O O1 0.787976 0.365353 0.625687
O O2 0.672774 0.446648 0.456895
O O3 0.774201 0.486507 0.654009
O O4 0.966691 0.437071 0.583297
O O5 0.878975 0.283936 0.130682
O O6 0.731755 0.391681 0.124087
O O7 0.880594 0.370202 0.008343
O O8 0.613201 0.315124 0.961505
O O9 0.162764 0.650485 0.183846
O O10 0.262193 0.545769 0.124216
O O11 0.669666 0.266734 0.668607
O O12 0.000000 0.283717 0.750000
O O13 0.500000 0.688665 0.250000
O O14 0.500000 0.523684 0.750000
O O15 0.222532 0.559814 0.690948
O O16 0.500000 0.063881 0.750000
#
# Coordination Sequence:
#
# PCOD9290739 Si02
#       7
#     8   8   8   8   8   8   8
#     4  11  22  40  64  95 135 176 215 259 340 414
#     4  11  25  39  71  96 129 178 220 284 333 380
#     4  11  20  41  66  96 129 176 215 261 339 410
#     4  10  22  41  69  95 130 175 219 272 335 405
#     4  11  24  45  67  97 129 168 239 281 322 388
#     4  12  26  36  60 104 139 170 216 270 329 404
#     4  12  22  41  65  95 137 175 215 263 335 409
#
# _framework density 22.044384999999998
#
# number of rings (size 3 to 8) (size 9 to 14) (size 15 to 20)
#    0.000    0.857    5.714    2.143    4.000    0.571 
#    0.000    2.857    0.000    1.714    0.000    0.000 
#    0.000    0.000    0.000    0.000    0.000    0.000 
#
# Total GULP energy -156546.509413 kJ/mol
# GULP energy per Si atom -5590.946765 kJ/mol
# Density = 2.199421 g / cm^3
# Si number density = 22.044385 Si / 1000 Ang^3
#
#
#
# Elastic Constant Matrix: (Units=GPa)
#
#
# Indices 1 2 3 4 5 6 
#
# 1 60.6714 9.7575 7.9332 0.0000 22.2919 0.0000
# 2 9.7575 22.9968 6.4674 0.0000 8.5167 0.0000
# 3 7.9332 6.4674 102.5069 0.0000 7.6765 0.0000
# 4 0.0000 0.0000 0.0000 7.1437 0.0000 1.8987
# 5 22.2919 8.5167 7.6765 0.0000 43.2965 0.0000
# 6 0.0000 0.0000 0.0000 1.8987 0.0000 8.6993
#
#
#
# Elastic Compliance Matrix: (Units=1/GPa)
#
#
# Indices 1 2 3 4 5 6 
#
# 1 0.020936 -0.005142 -0.000572 0.000000 -0.009666 0.000000
# 2 -0.005142 0.048705 -0.002185 0.000000 -0.006546 0.000000
# 3 -0.000572 -0.002185 0.010016 0.000000 -0.001052 0.000000
# 4 0.000000 0.000000 0.000000 0.148605 0.000000 -0.032435
# 5 -0.009666 -0.006546 -0.001052 0.000000 0.029547 0.000000
# 6 0.000000 0.000000 0.000000 -0.032435 0.000000 0.122032
#
#
# Mechanical properties :
#
#
# Convention : Reuss Voigt Hill
#
# Bulk Modulus (GPa) = 15.65960 26.05460 20.85710
# Shear Modulus (GPa) = 11.99257 22.62902 17.31080
#
# Velocity S-wave (km/s) = 2.33495 3.20741 2.80531
# Velocity P-wave (km/s) = 3.79321 5.05583 4.46933
#
# Compressibility (1/GPa) = 0.06385861
#
# Stress axis : x y z
#
# Youngs Moduli (GPa) = 47.76565 20.53194 99.83729
#
# Poissons Ratio (x) = 0.10558 0.05710
# Poissons Ratio (y) = 0.24562 0.21812
# Poissons Ratio (z) = 0.02732 0.04486
#
# Static dielectric constant tensor:
#      x y z
#    x 1.836040 0.000000 0.017890 
#    y 0.000000 1.813030 0.000000 
#    z 0.017890 0.000000 1.808650 
# 
# From -- ./inp_files/137920.got.cif
#   From: 2010.05.17/outbox.cif.g08.bks.cpg/sg15_69_cif.got.tgz:137920.got - 2010.06.03 18:47:42.
