data_PCOD9290629
_publ_section_title
;
Structure prediction by ZEFSAII (Michael W. Deem and Ramdas Pophale) SiO2 
 PCOD9290629
Probable space group: C 2/C
;
_chemical_formula_sum "Si O2"
_cell_formula_units_Z 56
_cell_length_a 17.997719
_cell_length_b 17.365762
_cell_length_c 13.854477
_cell_angle_alpha 90.000000
_cell_angle_beta 148.899826
_cell_angle_gamma 90.000000
_cell_volume 2236.670363
_symmetry_space_group_name_H-M "C 2/C"
_symmetry_group_IT_number 15
_symmetry_cell_setting 'monoclinic'
loop_
_space_group_symop_operation_xyz
x,y,z
-x,y,1/2-z
-x,-y,-z
x,-y,1/2+z
1/2+x,1/2+y,z
1/2-x,1/2+y,1/2-z
1/2-x,1/2-y,-z
1/2+x,1/2-y,1/2+z
loop_
_atom_site_type_symbol
_atom_site_label
_atom_site_fract_x
_atom_site_fract_y
_atom_site_fract_z
Si Si1 0.307908 0.745181 0.407803
Si Si2 0.833191 0.984524 0.066626
Si Si3 0.367441 0.908672 0.810392
Si Si4 0.911508 0.657091 0.557453
Si Si5 0.616408 0.347783 0.808997
Si Si6 0.457388 0.701865 0.975723
Si Si7 0.120917 0.400528 0.958046
O O1 0.200392 0.673803 0.300404
O O2 0.449995 0.711574 0.517197
O O3 0.351043 0.809542 0.531794
O O4 0.210912 0.799414 0.229565
O O5 0.000000 0.959132 0.250000
O O6 0.833149 0.075698 0.081938
O O7 0.738051 0.965061 0.865899
O O8 0.761497 0.945158 0.080950
O O9 0.533415 0.911612 0.960117
O O10 0.369081 0.906447 0.928887
O O11 0.760635 0.690618 0.429874
O O12 0.000000 0.631786 0.750000
O O13 0.986144 0.722167 0.573947
O O14 0.500000 0.309002 0.750000
O O15 0.522891 0.366926 0.609970
O O16 0.000000 0.429255 0.750000
#
# Coordination Sequence:
#
# PCOD9290629 Si02
#       7
#     8   8   8   8   8   8   8
#     4  11  21  39  70 111 138 176 233 297 365 414
#     4  10  25  45  68  96 140 192 243 283 343 426
#     4  10  22  44  67 101 146 181 234 292 349 427
#     4  11  24  42  70 103 136 181 230 288 358 416
#     4  11  25  45  65  99 136 184 234 286 350 418
#     4  11  22  41  70  99 146 174 230 295 356 420
#     4  10  22  41  68 101 143 187 233 289 356 427
#
# _framework density 25.037216999999998
#
# number of rings (size 3 to 8) (size 9 to 14) (size 15 to 20)
#    0.000    1.429    5.714    0.429    4.000    5.714 
#    0.000    9.286    0.000    0.000    0.000    0.000 
#    0.000    0.000    0.000    0.000    0.000    0.000 
#
# Total GULP energy -156227.576920 kJ/mol
# GULP energy per Si atom -5579.556319 kJ/mol
# Density = 2.498023 g / cm^3
# Si number density = 25.037217 Si / 1000 Ang^3
#
#
#
# Elastic Constant Matrix: (Units=GPa)
#
#
# Indices 1 2 3 4 5 6 
#
# 1 132.2102 11.0952 44.7922 0.0000 21.2075 0.0000
# 2 11.0952 42.6526 18.5661 0.0000 -3.5354 0.0000
# 3 44.7922 18.5661 125.7026 0.0000 13.3733 0.0000
# 4 0.0000 0.0000 0.0000 31.0285 0.0000 -8.9837
# 5 21.2075 -3.5354 13.3733 0.0000 56.6349 0.0000
# 6 0.0000 0.0000 0.0000 -8.9837 0.0000 18.1194
#
#
#
# Elastic Compliance Matrix: (Units=1/GPa)
#
#
# Indices 1 2 3 4 5 6 
#
# 1 0.009058 -0.001408 -0.002718 0.000000 -0.002838 0.000000
# 2 -0.001408 0.025625 -0.003600 0.000000 0.002977 0.000000
# 3 -0.002718 -0.003600 0.009612 0.000000 -0.001477 0.000000
# 4 0.000000 0.000000 0.000000 0.037630 0.000000 0.018657
# 5 -0.002838 0.002977 -0.001477 0.000000 0.019254 0.000000
# 6 0.000000 0.000000 0.000000 0.018657 0.000000 0.064440
#
#
# Mechanical properties :
#
#
# Convention : Reuss Voigt Hill
#
# Bulk Modulus (GPa) = 34.66923 49.94135 42.30529
# Shear Modulus (GPa) = 26.22109 36.23069 31.22589
#
# Velocity S-wave (km/s) = 3.23969 3.80817 3.53537
# Velocity P-wave (km/s) = 5.27932 6.27107 5.79645
#
# Compressibility (1/GPa) = 0.02884402
#
# Stress axis : x y z
#
# Youngs Moduli (GPa) = 110.40100 39.02396 104.03149
#
# Poissons Ratio (x) = 0.05496 0.28272
# Poissons Ratio (y) = 0.15550 0.37448
# Poissons Ratio (z) = 0.30003 0.14047
#
# Static dielectric constant tensor:
#      x y z
#    x 2.080880 0.000000 -0.045100 
#    y 0.000000 2.058980 0.000000 
#    z -0.045100 0.000000 2.066560 
# 
# From -- ./inp_files/163805.got.cif
#   From: 2010.05.17/outbox.cif.g08.bks.cpg/sg15_82_cif.got.tgz:163805.got - 2010.06.03 18:47:42.
