data_PCOD9290048
_publ_section_title
;
Structure prediction by ZEFSAII (Michael W. Deem and Ramdas Pophale) SiO2 
 PCOD9290048
Probable space group: C 2/C
;
_chemical_formula_sum "Si O2"
_cell_formula_units_Z 64
_cell_length_a 5.361612
_cell_length_b 31.321147
_cell_length_c 25.252060
_cell_angle_alpha 90.000000
_cell_angle_beta 133.550351
_cell_angle_gamma 90.000000
_cell_volume 3073.474151
_symmetry_space_group_name_H-M "C 2/C"
_symmetry_group_IT_number 15
_symmetry_cell_setting 'monoclinic'
loop_
_space_group_symop_operation_xyz
x,y,z
-x,y,1/2-z
-x,-y,-z
x,-y,1/2+z
1/2+x,1/2+y,z
1/2-x,1/2+y,1/2-z
1/2-x,1/2-y,-z
1/2+x,1/2-y,1/2+z
loop_
_atom_site_type_symbol
_atom_site_label
_atom_site_fract_x
_atom_site_fract_y
_atom_site_fract_z
Si Si1 0.404230 0.447786 0.797676
Si Si2 0.414447 0.545311 0.799161
Si Si3 0.747896 0.327531 0.174195
Si Si4 0.579987 0.246814 0.322727
Si Si5 0.649709 0.376086 0.914089
Si Si6 0.835623 0.615923 0.923273
Si Si7 0.357388 0.179763 0.086297
Si Si8 0.315437 0.798427 0.073672
O O1 0.500000 0.440044 0.750000
O O2 0.514219 0.496314 0.827162
O O3 0.545002 0.411305 0.856355
O O4 0.000000 0.447263 0.750000
O O5 0.500000 0.551270 0.750000
O O6 0.671846 0.578081 0.865706
O O7 0.000000 0.550049 0.750000
O O8 0.583275 0.293214 0.189877
O O9 0.505058 0.359742 0.107273
O O10 0.878776 0.299637 0.145674
O O11 0.000000 0.352487 0.250000
O O12 0.500000 0.235029 0.250000
O O13 0.450778 0.211483 0.345120
O O14 0.965320 0.255454 0.403573
O O15 0.348090 0.353607 0.904845
O O16 0.869708 0.341353 0.913516
O O17 0.908974 0.397769 0.993859
O O18 0.022469 0.656509 0.922597
O O19 0.066930 0.201413 0.005719
#
# Coordination Sequence:
#
# PCOD9290048 Si02
#       8
#     8   8   8   8   8   8   8   8
#     4  10  22  44  67  92 125 163 204 251 311 363
#     4  10  23  39  64  98 129 162 202 247 299 369
#     4  11  21  36  61  85 126 163 201 254 312 366
#     4  11  24  38  57  88 117 161 213 262 307 364
#     4  11  24  43  65  91 123 162 208 257 307 364
#     4  10  23  37  61  94 126 160 205 247 305 374
#     4  11  25  42  63  90 122 162 211 260 307 363
#     4  10  22  41  57  87 125 165 199 253 317 365
#
# _framework density 20.823340000000002
#
# number of rings (size 3 to 8) (size 9 to 14) (size 15 to 20)
#    0.000    1.500    2.500    1.500    5.250    2.500 
#    0.000    0.000    0.000    6.750    0.000    0.000 
#    0.000    0.000    0.000    0.000    0.000    0.000 
#
# Total GULP energy -178194.119421 kJ/mol
# GULP energy per Si atom -5568.566232 kJ/mol
# Density = 2.077594 g / cm^3
# Si number density = 20.823340 Si / 1000 Ang^3
#
#
#
# Elastic Constant Matrix: (Units=GPa)
#
#
# Indices 1 2 3 4 5 6 
#
# 1 74.3506 1.8575 0.0875 0.0000 -9.9152 0.0000
# 2 1.8575 54.1620 34.7647 0.0000 -2.7821 0.0000
# 3 0.0875 34.7647 71.2025 0.0000 -12.5319 0.0000
# 4 0.0000 0.0000 0.0000 30.8139 0.0000 -3.6643
# 5 -9.9152 -2.7821 -12.5319 0.0000 22.2016 0.0000
# 6 0.0000 0.0000 0.0000 -3.6643 0.0000 -0.5814
#
#
#
# Elastic Compliance Matrix: (Units=1/GPa)
#
#
# Indices 1 2 3 4 5 6 
#
# 1 0.014467 -0.001369 0.001952 0.000000 0.007391 0.000000
# 2 -0.001369 0.027429 -0.014315 0.000000 -0.005255 0.000000
# 3 0.001952 -0.014315 0.023171 0.000000 0.012157 0.000000
# 4 0.000000 0.000000 0.000000 0.018551 0.000000 -0.116908
# 5 0.007391 -0.005255 0.012157 0.000000 0.054546 0.000000
# 6 0.000000 0.000000 0.000000 -0.116908 0.000000 -0.983109
#
#
# Mechanical properties :
#
#
# Convention : Reuss Voigt Hill
#
# Bulk Modulus (GPa) = 26.59470 30.34828 28.47149
# Shear Modulus (GPa) = -6.21160 21.35385 7.57112
#
# Velocity S-wave (km/s) = -1.72901 3.20578 1.90887
# Velocity P-wave (km/s) = 2.96873 5.32057 4.30824
#
# Compressibility (1/GPa) = 0.03760148
#
# Stress axis : x y z
#
# Youngs Moduli (GPa) = 69.12120 36.45833 43.15721
#
# Poissons Ratio (x) = 0.04992 -0.08422
# Poissons Ratio (y) = 0.09464 0.61780
# Poissons Ratio (z) = -0.13489 0.52191
#
# Static dielectric constant tensor:
#      x y z
#    x 1.867650 0.000000 0.081820 
#    y 0.000000 1.757460 0.000000 
#    z 0.081820 0.000000 1.771690 
# 
# From -- ./inp_files/286787.got.cif
#   From: 2010.05.17/outbox.cif.g08.bks.cpg/sg15_144_cif.got.tgz:286787.got - 2010.06.03 18:47:42.
