data_PCOD9290298
_publ_section_title
;
Structure prediction by ZEFSAII (Michael W. Deem and Ramdas Pophale) SiO2 
 PCOD9290298
Probable space group: C 2/C
;
_chemical_formula_sum "Si O2"
_cell_formula_units_Z 56
_cell_length_a 28.308145
_cell_length_b 8.544715
_cell_length_c 16.326371
_cell_angle_alpha 90.000000
_cell_angle_beta 42.007959
_cell_angle_gamma 90.000000
_cell_volume 2642.874506
_symmetry_space_group_name_H-M "C 2/C"
_symmetry_group_IT_number 15
_symmetry_cell_setting 'monoclinic'
loop_
_space_group_symop_operation_xyz
x,y,z
-x,y,1/2-z
-x,-y,-z
x,-y,1/2+z
1/2+x,1/2+y,z
1/2-x,1/2+y,1/2-z
1/2-x,1/2-y,-z
1/2+x,1/2-y,1/2+z
loop_
_atom_site_type_symbol
_atom_site_label
_atom_site_fract_x
_atom_site_fract_y
_atom_site_fract_z
Si Si1 0.192258 0.006310 0.433694
Si Si2 0.409883 0.721428 0.519651
Si Si3 0.076481 0.555143 0.659727
Si Si4 0.841988 0.509982 0.677554
Si Si5 0.428697 0.760963 0.162697
Si Si6 0.802110 0.894526 0.901985
Si Si7 0.299673 0.873289 0.056484
O O1 0.200224 0.191992 0.422989
O O2 0.140192 0.926632 0.434925
O O3 0.274423 0.954125 0.321037
O O4 0.163550 0.952048 0.558128
O O5 0.413456 0.823637 0.429575
O O6 0.491454 0.695514 0.441212
O O7 0.371473 0.833838 0.635099
O O8 0.078595 0.642477 0.743044
O O9 0.132292 0.418670 0.583622
O O10 0.000000 0.483548 0.750000
O O11 0.906971 0.622698 0.617226
O O12 0.809841 0.541431 0.629857
O O13 0.362773 0.645670 0.258634
O O14 0.760676 0.040267 0.916418
O O15 0.750000 0.750000 0.000000
#
# Coordination Sequence:
#
# PCOD9290298 Si02
#       7
#     8   8   8   8   8   8   8
#     4  12  23  40  65  94 131 171 224 274 336 399
#     4  10  22  41  64  98 128 175 218 274 338 399
#     4   9  18  38  62  88 124 166 216 269 328 393
#     4  11  23  40  66  91 130 178 219 272 332 408
#     4  11  21  39  71  94 128 171 227 277 339 396
#     4  12  21  40  67  93 125 169 226 275 328 390
#     4  11  24  38  61  96 129 168 221 272 330 401
#
# _framework density 21.189050000000002
#
# number of rings (size 3 to 8) (size 9 to 14) (size 15 to 20)
#    0.000    1.143    4.286    2.571    2.000    0.000 
#    2.571    0.714    3.143    0.000    0.000    0.000 
#    0.000    0.000    0.000    0.000    0.000    0.000 
#
# Total GULP energy -156140.939153 kJ/mol
# GULP energy per Si atom -5576.462113 kJ/mol
# Density = 2.114082 g / cm^3
# Si number density = 21.189050 Si / 1000 Ang^3
#
#
#
# Elastic Constant Matrix: (Units=GPa)
#
#
# Indices 1 2 3 4 5 6 
#
# 1 62.1684 27.2193 22.7219 -0.0005 -35.4592 0.0000
# 2 27.2193 83.3999 31.4160 0.0006 -36.3384 0.0009
# 3 22.7219 31.4160 66.5292 0.0004 -26.9331 0.0004
# 4 -0.0005 0.0006 0.0004 -2.2578 -0.0001 14.0638
# 5 -35.4592 -36.3384 -26.9331 -0.0001 40.6708 -0.0002
# 6 0.0000 0.0009 0.0004 14.0638 -0.0002 32.4839
#
#
#
# Elastic Compliance Matrix: (Units=1/GPa)
#
#
# Indices 1 2 3 4 5 6 
#
# 1 0.032403 0.002828 0.000079 -0.000002 0.030829 0.000001
# 2 0.002828 0.020318 -0.003024 0.000000 0.018617 -0.000001
# 3 0.000079 -0.003024 0.020994 0.000000 0.011270 0.000000
# 4 -0.000002 0.000000 0.000000 -0.119809 -0.000001 0.051871
# 5 0.030829 0.018617 0.011270 -0.000001 0.075563 0.000000
# 6 0.000001 -0.000001 0.000000 0.051871 0.000000 0.008327
#
#
# Mechanical properties :
#
#
# Convention : Reuss Voigt Hill
#
# Bulk Modulus (GPa) = 13.60901 41.64577 27.62739
# Shear Modulus (GPa) = 79.96873 22.89541 51.43207
#
# Velocity S-wave (km/s) = 6.15000 3.29071 4.93210
# Velocity P-wave (km/s) = 7.54100 5.84255 6.74544
#
# Compressibility (1/GPa) = 0.07348072
#
# Stress axis : x y z
#
# Youngs Moduli (GPa) = 30.86178 49.21731 47.63186
#
# Poissons Ratio (x) = -0.13917 -0.00375
# Poissons Ratio (y) = -0.08727 0.14402
# Poissons Ratio (z) = -0.00243 0.14881
#
# Static dielectric constant tensor:
#      x y z
#    x 1.760890 0.000000 -0.017500 
#    y 0.000000 1.815190 0.000000 
#    z -0.017500 0.000000 1.814300 
# 
# From -- ./inp_files/224401.got.cif
#   From: 2010.05.17/outbox.cif.g08.bks.cpg/sg15_113_cif.got.tgz:224401.got - 2010.06.03 18:47:42.
