data_PCOD9290890
_publ_section_title
;
Structure prediction by ZEFSAII (Michael W. Deem and Ramdas Pophale) SiO2 
 PCOD9290890
Probable space group: C 2/C
;
_chemical_formula_sum "Si O2"
_cell_formula_units_Z 52
_cell_length_a 14.177183
_cell_length_b 28.417278
_cell_length_c 8.663337
_cell_angle_alpha 90.000000
_cell_angle_beta 42.922694
_cell_angle_gamma 90.000000
_cell_volume 2376.904508
_symmetry_space_group_name_H-M "C 2/C"
_symmetry_group_IT_number 15
_symmetry_cell_setting 'monoclinic'
loop_
_space_group_symop_operation_xyz
x,y,z
-x,y,1/2-z
-x,-y,-z
x,-y,1/2+z
1/2+x,1/2+y,z
1/2-x,1/2+y,1/2-z
1/2-x,1/2-y,-z
1/2+x,1/2-y,1/2+z
loop_
_atom_site_type_symbol
_atom_site_label
_atom_site_fract_x
_atom_site_fract_y
_atom_site_fract_z
Si Si1 0.273146 0.214168 0.117762
Si Si2 0.540730 0.071504 0.870551
Si Si3 0.500000 0.393278 0.750000
Si Si4 0.760530 0.349016 0.354721
Si Si5 0.677417 0.971002 0.701154
Si Si6 0.042000 0.270120 0.520662
Si Si7 0.132559 0.982597 0.747737
O O1 0.132522 0.222810 0.382179
O O2 0.410170 0.223908 0.059482
O O3 0.250000 0.250000 0.000000
O O4 0.280500 0.166018 0.011611
O O5 0.500000 0.089956 0.750000
O O6 0.668686 0.102073 0.770255
O O7 0.591087 0.018495 0.779998
O O8 0.429531 0.071121 0.143590
O O9 0.597445 0.358953 0.533061
O O10 0.596755 0.431785 0.719264
O O11 0.844468 0.310664 0.155143
O O12 0.740146 0.974775 0.794542
O O13 0.810633 0.976463 0.432853
O O14 0.000000 0.272870 0.750000
O O15 0.000000 0.000000 0.000000
#
# Coordination Sequence:
#
# PCOD9290890 Si02
#       7
#     8   8   4   8   8   8   8
#     4  10  22  41  75 100 132 180 227 262 330 428
#     4  11  20  38  61  90 123 164 223 281 330 388
#     4  12  24  40  68  90 128 176 232 284 326 410
#     4  11  23  41  66  94 131 174 230 270 335 403
#     4  11  22  36  62  86 119 167 220 273 331 396
#     4  11  24  44  70 108 143 170 214 285 347 410
#     4  12  21  40  58  87 122 168 221 272 330 392
#
# _framework density 21.877192999999998
#
# number of rings (size 3 to 8) (size 9 to 14) (size 15 to 20)
#    0.000    0.923    4.615    3.231    4.308    0.000 
#    5.538    0.000    3.385    0.000    0.000    0.000 
#    0.000    0.000    0.000    0.000    0.000    0.000 
#
# Total GULP energy -144758.423818 kJ/mol
# GULP energy per Si atom -5567.631685 kJ/mol
# Density = 2.182740 g / cm^3
# Si number density = 21.877193 Si / 1000 Ang^3
#
#
#
# Elastic Constant Matrix: (Units=GPa)
#
#
# Indices 1 2 3 4 5 6 
#
# 1 93.9424 12.5647 29.7334 0.0000 -6.5098 0.0000
# 2 12.5647 50.2770 49.1654 0.0000 -7.2099 0.0000
# 3 29.7334 49.1654 206.6084 0.0000 -1.5719 0.0000
# 4 0.0000 0.0000 0.0000 46.9015 0.0000 -14.4406
# 5 -6.5098 -7.2099 -1.5719 0.0000 28.7716 0.0000
# 6 0.0000 0.0000 0.0000 -14.4406 0.0000 18.7650
#
#
#
# Elastic Compliance Matrix: (Units=1/GPa)
#
#
# Indices 1 2 3 4 5 6 
#
# 1 0.011382 -0.001231 -0.001328 0.000000 0.002194 0.000000
# 2 -0.001231 0.027195 -0.006247 0.000000 0.006195 0.000000
# 3 -0.001328 -0.006247 0.006506 0.000000 -0.001511 0.000000
# 4 0.000000 0.000000 0.000000 0.027942 0.000000 0.021503
# 5 0.002194 0.006195 -0.001511 0.000000 0.036723 0.000000
# 6 0.000000 0.000000 0.000000 0.021503 0.000000 0.069838
#
#
# Mechanical properties :
#
#
# Convention : Reuss Voigt Hill
#
# Bulk Modulus (GPa) = 36.40271 59.30609 47.85440
# Shear Modulus (GPa) = 24.23009 36.17858 30.20434
#
# Velocity S-wave (km/s) = 3.33160 4.07100 3.71972
# Velocity P-wave (km/s) = 5.61027 7.01889 6.35374
#
# Compressibility (1/GPa) = 0.02747048
#
# Stress axis : x y z
#
# Youngs Moduli (GPa) = 87.85845 36.77179 153.69594
#
# Poissons Ratio (x) = 0.04526 0.20418
# Poissons Ratio (y) = 0.10813 0.96016
# Poissons Ratio (z) = 0.11671 0.22972
#
# Static dielectric constant tensor:
#      x y z
#    x 1.829840 0.000000 -0.034110 
#    y 0.000000 1.874300 0.000000 
#    z -0.034110 0.000000 1.977650 
# 
# From -- ./inp_files/44756.got.cif
#   From: 2010.05.17/outbox.cif.g08.bks.cpg/sg15_23_cif.got.tgz:44756.got - 2010.06.03 18:47:42.
