data_PCOD9290559
_publ_section_title
;
Structure prediction by ZEFSAII (Michael W. Deem and Ramdas Pophale) SiO2 
 PCOD9290559
Probable space group: C 2/C
;
_chemical_formula_sum "Si O2"
_cell_formula_units_Z 32
_cell_length_a 10.252376
_cell_length_b 9.044109
_cell_length_c 17.607038
_cell_angle_alpha 90.000000
_cell_angle_beta 138.217180
_cell_angle_gamma 90.000000
_cell_volume 1087.807969
_symmetry_space_group_name_H-M "C 2/C"
_symmetry_group_IT_number 15
_symmetry_cell_setting 'monoclinic'
loop_
_space_group_symop_operation_xyz
x,y,z
-x,y,1/2-z
-x,-y,-z
x,-y,1/2+z
1/2+x,1/2+y,z
1/2-x,1/2+y,1/2-z
1/2-x,1/2-y,-z
1/2+x,1/2-y,1/2+z
loop_
_atom_site_type_symbol
_atom_site_label
_atom_site_fract_x
_atom_site_fract_y
_atom_site_fract_z
Si Si1 0.773510 0.493968 0.911538
Si Si2 0.818268 0.672912 0.166166
Si Si3 0.007690 0.024720 0.078497
Si Si4 0.838422 0.724412 0.741847
O O1 0.699177 0.656446 0.863580
O O2 0.678290 0.447066 0.949183
O O3 0.712413 0.369590 0.826856
O O4 0.000000 0.500000 0.000000
O O5 0.630991 0.573043 0.050039
O O6 0.014787 0.635745 0.195795
O O7 0.167148 0.898579 0.173815
O O8 0.119627 0.194524 0.156860
O O9 0.000000 0.662067 0.750000
#
# Coordination Sequence:
#
# PCOD9290559 Si02
#       4
#     8   8   8   8
#     4  11  23  42  66  94 137 170 220 281 325 395
#     4  10  22  41  67  92 129 181 221 262 348 380
#     4   9  21  39  62  97 128 164 224 268 324 395
#     4   8  19  42  59  90 133 168 220 268 323 394
#
# _framework density 29.416957
#
# number of rings (size 3 to 8) (size 9 to 14) (size 15 to 20)
#    1.500    1.000    0.000    2.250    3.500    2.000 
#    4.500    1.250    0.000    0.000    0.000    0.000 
#    0.000    0.000    0.000    0.000    0.000    0.000 
#
# Total GULP energy -89152.850031 kJ/mol
# GULP energy per Si atom -5572.053127 kJ/mol
# Density = 2.935000 g / cm^3
# Si number density = 29.416957 Si / 1000 Ang^3
#
#
#
# Elastic Constant Matrix: (Units=GPa)
#
#
# Indices 1 2 3 4 5 6 
#
# 1 210.3424 4.9846 38.6004 0.0000 17.2022 0.0000
# 2 4.9846 157.2587 56.3531 0.0000 20.1132 0.0000
# 3 38.6004 56.3531 192.6295 0.0000 72.6392 0.0000
# 4 0.0000 0.0000 0.0000 59.7727 0.0000 20.9947
# 5 17.2022 20.1132 72.6392 0.0000 80.6352 0.0000
# 6 0.0000 0.0000 0.0000 20.9947 0.0000 33.6814
#
#
#
# Elastic Compliance Matrix: (Units=1/GPa)
#
#
# Indices 1 2 3 4 5 6 
#
# 1 0.004946 0.000220 -0.000964 0.000000 -0.000241 0.000000
# 2 0.000220 0.007115 -0.002179 0.000000 0.000141 0.000000
# 3 -0.000964 -0.002179 0.008692 0.000000 -0.007081 0.000000
# 4 0.000000 0.000000 0.000000 0.021420 0.000000 -0.013352
# 5 -0.000241 0.000141 -0.007081 0.000000 0.018797 0.000000
# 6 0.000000 0.000000 0.000000 -0.013352 0.000000 0.038012
#
#
# Mechanical properties :
#
#
# Convention : Reuss Voigt Hill
#
# Bulk Modulus (GPa) = 67.08794 84.45630 75.77212
# Shear Modulus (GPa) = 45.53889 65.50402 55.52146
#
# Velocity S-wave (km/s) = 3.93879 4.72396 4.34913
# Velocity P-wave (km/s) = 6.59855 7.65028 7.14380
#
# Compressibility (1/GPa) = 0.01490581
#
# Stress axis : x y z
#
# Youngs Moduli (GPa) = 202.19825 140.55551 115.04694
#
# Poissons Ratio (x) = -0.03087 0.11095
# Poissons Ratio (y) = -0.04441 0.25064
# Poissons Ratio (z) = 0.19500 0.30621
#
# Static dielectric constant tensor:
#      x y z
#    x 2.464120 0.000000 0.050300 
#    y 0.000000 2.237190 0.000000 
#    z 0.050300 0.000000 2.534920 
# 
# From -- ./inp_files/286971.got.cif
#   From: 2010.05.17/outbox.cif.g08.bks.cpg/sg15_144_cif.got.tgz:286971.got - 2010.06.03 18:47:42.
