data_PCOD9290593
_publ_section_title
;
Structure prediction by ZEFSAII (Michael W. Deem and Ramdas Pophale) SiO2 
 PCOD9290593
Probable space group: C 2/C
;
_chemical_formula_sum "Si O2"
_cell_formula_units_Z 40
_cell_length_a 16.759371
_cell_length_b 13.835163
_cell_length_c 9.200770
_cell_angle_alpha 90.000000
_cell_angle_beta 132.558704
_cell_angle_gamma 90.000000
_cell_volume 1571.407768
_symmetry_space_group_name_H-M "C 2/C"
_symmetry_group_IT_number 15
_symmetry_cell_setting 'monoclinic'
loop_
_space_group_symop_operation_xyz
x,y,z
-x,y,1/2-z
-x,-y,-z
x,-y,1/2+z
1/2+x,1/2+y,z
1/2-x,1/2+y,1/2-z
1/2-x,1/2-y,-z
1/2+x,1/2-y,1/2+z
loop_
_atom_site_type_symbol
_atom_site_label
_atom_site_fract_x
_atom_site_fract_y
_atom_site_fract_z
Si Si1 0.885590 0.287065 0.521109
Si Si2 0.876196 0.476850 0.651862
Si Si3 0.625770 0.594817 0.360166
Si Si4 0.882213 0.304188 0.173553
Si Si5 0.785638 0.913871 0.854748
O O1 0.830568 0.388779 0.498727
O O2 0.902390 0.293939 0.369747
O O3 0.813061 0.191989 0.450021
O O4 0.000000 0.276233 0.750000
O O5 0.838097 0.587619 0.591496
O O6 0.842883 0.438249 0.773081
O O7 0.000000 0.477879 0.750000
O O8 0.500000 0.600307 0.250000
O O9 0.667840 0.703970 0.452424
O O10 0.664945 0.499994 0.490464
O O11 0.651443 0.582183 0.220841
O O12 0.000000 0.307880 0.250000
#
# Coordination Sequence:
#
# PCOD9290593 Si02
#       5
#     8   8   8   8   8
#     4  10  22  41  67  96 130 171 215 268 327 388
#     4  10  23  41  65  93 130 171 218 265 315 385
#     4  10  22  42  67  95 133 167 217 272 325 386
#     4   9  21  41  64  96 130 167 217 266 325 381
#     4  11  23  41  66  98 133 172 217 265 325 392
#
# _framework density 25.454884
#
# number of rings (size 3 to 8) (size 9 to 14) (size 15 to 20)
#    0.000    2.000    0.000    1.800    2.800   11.200 
#    0.000    0.000    0.000    0.000    0.000    0.000 
#    0.000    0.000    0.000    0.000    0.000    0.000 
#
# Total GULP energy -111599.591255 kJ/mol
# GULP energy per Si atom -5579.979563 kJ/mol
# Density = 2.539695 g / cm^3
# Si number density = 25.454884 Si / 1000 Ang^3
#
#
#
# Elastic Constant Matrix: (Units=GPa)
#
#
# Indices 1 2 3 4 5 6 
#
# 1 171.6632 99.8645 37.4698 0.0000 -33.5007 0.0000
# 2 99.8645 282.1839 53.9193 0.0000 -7.0762 0.0000
# 3 37.4698 53.9193 81.6820 0.0000 -23.7577 0.0000
# 4 0.0000 0.0000 0.0000 38.6672 0.0000 1.4663
# 5 -33.5007 -7.0762 -23.7577 0.0000 34.8382 0.0000
# 6 0.0000 0.0000 0.0000 1.4663 0.0000 57.5294
#
#
#
# Elastic Compliance Matrix: (Units=1/GPa)
#
#
# Indices 1 2 3 4 5 6 
#
# 1 0.009212 -0.003100 0.000267 0.000000 0.008411 0.000000
# 2 -0.003100 0.005143 -0.003163 0.000000 -0.004094 0.000000
# 3 0.000267 -0.003163 0.017584 0.000000 0.011605 0.000000
# 4 0.000000 0.000000 0.000000 0.025887 0.000000 -0.000660
# 5 0.008411 -0.004094 0.011605 0.000000 0.043875 0.000000
# 6 0.000000 0.000000 0.000000 -0.000660 0.000000 0.017399
#
#
# Mechanical properties :
#
#
# Convention : Reuss Voigt Hill
#
# Bulk Modulus (GPa) = 50.13693 102.00402 76.07048
# Shear Modulus (GPa) = 36.30008 49.15866 42.72937
#
# Velocity S-wave (km/s) = 3.78041 4.39932 4.10156
# Velocity P-wave (km/s) = 6.22852 8.12187 7.23738
#
# Compressibility (1/GPa) = 0.01994538
#
# Stress axis : x y z
#
# Youngs Moduli (GPa) = 108.55396 194.44891 56.87059
#
# Poissons Ratio (x) = 0.60283 -0.01518
# Poissons Ratio (y) = 0.33654 0.17990
# Poissons Ratio (z) = -0.02898 0.61511
#
# Static dielectric constant tensor:
#      x y z
#    x 2.149560 0.000000 0.043000 
#    y 0.000000 2.002630 0.000000 
#    z 0.043000 0.000000 2.059820 
# 
# From -- ./inp_files/47276.got.cif
#   From: 2010.05.17/outbox.cif.g08.bks.cpg/sg15_24_cif.got.tgz:47276.got - 2010.06.03 18:47:42.
