data_PCOD9290751
_publ_section_title
;
Structure prediction by ZEFSAII (Michael W. Deem and Ramdas Pophale) SiO2 
 PCOD9290751
Probable space group: C 2/C
;
_chemical_formula_sum "Si O2"
_cell_formula_units_Z 44
_cell_length_a 10.070986
_cell_length_b 27.056072
_cell_length_c 8.360627
_cell_angle_alpha 90.000000
_cell_angle_beta 118.165434
_cell_angle_gamma 90.000000
_cell_volume 2008.359442
_symmetry_space_group_name_H-M "C 2/C"
_symmetry_group_IT_number 15
_symmetry_cell_setting 'monoclinic'
loop_
_space_group_symop_operation_xyz
x,y,z
-x,y,1/2-z
-x,-y,-z
x,-y,1/2+z
1/2+x,1/2+y,z
1/2-x,1/2+y,1/2-z
1/2-x,1/2-y,-z
1/2+x,1/2-y,1/2+z
loop_
_atom_site_type_symbol
_atom_site_label
_atom_site_fract_x
_atom_site_fract_y
_atom_site_fract_z
Si Si1 0.746550 0.630784 0.043463
Si Si2 0.422152 0.247024 0.548091
Si Si3 0.500000 0.702179 0.750000
Si Si4 0.944177 0.362710 0.965290
Si Si5 0.658001 0.526859 0.101271
Si Si6 0.135705 0.531778 0.997590
O O1 0.640367 0.669668 0.893560
O O2 0.811666 0.644804 0.256467
O O3 0.659301 0.579188 0.012148
O O4 0.900104 0.623662 0.033242
O O5 0.500000 0.270697 0.750000
O O6 0.250000 0.250000 0.500000
O O7 0.453289 0.268468 0.386645
O O8 0.466587 0.189539 0.560829
O O9 0.906584 0.411025 0.046262
O O10 0.711034 0.534713 0.311231
O O11 0.500000 0.500000 0.000000
O O12 0.801256 0.496108 0.118748
O O13 0.000000 0.500000 0.000000
#
# Coordination Sequence:
#
# PCOD9290751 Si02
#       6
#     8   8   4   8   8   8
#     4  10  22  41  69  97 133 188 234 276 360 435
#     4  12  27  46  73 108 142 184 247 302 363 436
#     4  12  26  46  74 102 146 192 230 308 376 416
#     4  10  22  43  67  97 138 182 237 287 343 434
#     4  11  24  39  63  98 137 176 225 286 343 418
#     4  11  22  41  66  93 133 178 225 276 342 417
#
# _framework density 21.908428000000001
#
# number of rings (size 3 to 8) (size 9 to 14) (size 15 to 20)
#    0.000    1.091    1.818    4.364    2.545    5.091 
#    0.000    1.818    0.000    0.000    0.000    0.000 
#    0.000    0.000    0.000    0.000    0.000    0.000 
#
# Total GULP energy -122792.673859 kJ/mol
# GULP energy per Si atom -5581.485175 kJ/mol
# Density = 2.185856 g / cm^3
# Si number density = 21.908428 Si / 1000 Ang^3
#
#
#
# Elastic Constant Matrix: (Units=GPa)
#
#
# Indices 1 2 3 4 5 6 
#
# 1 112.9348 36.6382 55.5400 0.0000 4.9288 0.0000
# 2 36.6382 115.0826 49.4911 0.0000 -8.0947 0.0000
# 3 55.5400 49.4911 159.4799 0.0000 5.4842 0.0000
# 4 0.0000 0.0000 0.0000 23.9517 0.0000 5.4479
# 5 4.9288 -8.0947 5.4842 0.0000 40.1361 0.0000
# 6 0.0000 0.0000 0.0000 5.4479 0.0000 36.1855
#
#
#
# Elastic Compliance Matrix: (Units=1/GPa)
#
#
# Indices 1 2 3 4 5 6 
#
# 1 0.011211 -0.002320 -0.003136 0.000000 -0.001416 0.000000
# 2 -0.002320 0.010755 -0.002626 0.000000 0.002813 0.000000
# 3 -0.003136 -0.002626 0.008221 0.000000 -0.001268 0.000000
# 4 0.000000 0.000000 0.000000 0.043231 0.000000 -0.006509
# 5 -0.001416 0.002813 -0.001268 0.000000 0.025830 0.000000
# 6 0.000000 0.000000 0.000000 -0.006509 0.000000 0.028615
#
#
# Mechanical properties :
#
#
# Convention : Reuss Voigt Hill
#
# Bulk Modulus (GPa) = 71.31142 74.53732 72.92437
# Shear Modulus (GPa) = 33.62405 36.44320 35.03363
#
# Velocity S-wave (km/s) = 3.92184 4.08295 4.00321
# Velocity P-wave (km/s) = 7.28891 7.50489 7.39769
#
# Compressibility (1/GPa) = 0.01402300
#
# Stress axis : x y z
#
# Youngs Moduli (GPa) = 89.19543 92.97593 121.63942
#
# Poissons Ratio (x) = 0.21574 0.38142
# Poissons Ratio (y) = 0.20697 0.31947
# Poissons Ratio (z) = 0.27968 0.24419
#
# Static dielectric constant tensor:
#      x y z
#    x 2.036800 0.000000 -0.074480 
#    y 0.000000 1.638120 0.000000 
#    z -0.074480 0.000000 1.913610 
# 
# From -- ./inp_files/26265.got.cif
#   From: 2010.05.17/outbox.cif.g08.bks.cpg/sg15_14_cif.got.tgz:26265.got - 2010.06.03 18:47:42.
