data_PCOD9290035
_publ_section_title
;
Structure prediction by ZEFSAII (Michael W. Deem and Ramdas Pophale) SiO2 
 PCOD9290035
Probable space group: C 2/C
;
_chemical_formula_sum "Si O2"
_cell_formula_units_Z 44
_cell_length_a 31.406343
_cell_length_b 8.692028
_cell_length_c 8.458638
_cell_angle_alpha 90.000000
_cell_angle_beta 59.967321
_cell_angle_gamma 90.000000
_cell_volume 1999.062864
_symmetry_space_group_name_H-M "C 2/C"
_symmetry_group_IT_number 15
_symmetry_cell_setting 'monoclinic'
loop_
_space_group_symop_operation_xyz
x,y,z
-x,y,1/2-z
-x,-y,-z
x,-y,1/2+z
1/2+x,1/2+y,z
1/2-x,1/2+y,1/2-z
1/2-x,1/2-y,-z
1/2+x,1/2-y,1/2+z
loop_
_atom_site_type_symbol
_atom_site_label
_atom_site_fract_x
_atom_site_fract_y
_atom_site_fract_z
Si Si1 0.934727 0.148131 0.651026
Si Si2 0.781728 0.840293 0.133603
Si Si3 0.863224 0.338711 0.959100
Si Si4 0.341153 0.557715 0.231187
Si Si5 0.000000 0.071747 0.250000
Si Si6 0.307155 0.043957 0.267652
O O1 0.913474 0.300169 0.774467
O O2 0.970299 0.168768 0.435133
O O3 0.887732 0.050639 0.677809
O O4 0.963149 0.040379 0.723154
O O5 0.782222 0.671151 0.203151
O O6 0.798061 0.948797 0.247794
O O7 0.730915 0.902251 0.156055
O O8 0.823725 0.861702 0.923960
O O9 0.822027 0.378252 0.904232
O O10 0.852548 0.183741 0.077009
O O11 0.856714 0.478163 0.093896
#
# Coordination Sequence:
#
# PCOD9290035 Si02
#       6
#     8   8   8   8   4   8
#     4  11  21  42  71 111 130 171 220 293 355 411
#     4  12  24  41  65  98 140 191 241 282 324 390
#     4  12  25  45  66 101 139 186 228 283 345 409
#     4  12  22  41  70  99 140 180 231 289 338 406
#     4  10  22  40  76 112 130 158 226 302 352 426
#     4  12  27  44  65  99 145 194 240 280 328 399
#
# _framework density 22.010313
#
# number of rings (size 3 to 8) (size 9 to 14) (size 15 to 20)
#    0.000    0.364    5.455    3.273    0.000    4.364 
#    0.000    1.818    0.000    3.273    0.000    0.000 
#    0.000    0.000    0.000    0.000    0.000    0.000 
#
# Total GULP energy -123140.220249 kJ/mol
# GULP energy per Si atom -5597.282739 kJ/mol
# Density = 2.196022 g / cm^3
# Si number density = 22.010313 Si / 1000 Ang^3
#
#
#
# Elastic Constant Matrix: (Units=GPa)
#
#
# Indices 1 2 3 4 5 6 
#
# 1 66.2328 -3.4342 -4.4482 0.0000 4.7743 0.0000
# 2 -3.4342 58.1485 12.6305 0.0000 8.4030 0.0000
# 3 -4.4482 12.6305 108.3219 0.0000 -1.2910 0.0000
# 4 0.0000 0.0000 0.0000 38.9595 0.0000 -5.5170
# 5 4.7743 8.4030 -1.2910 0.0000 30.0869 0.0000
# 6 0.0000 0.0000 0.0000 -5.5170 0.0000 27.2430
#
#
#
# Elastic Compliance Matrix: (Units=1/GPa)
#
#
# Indices 1 2 3 4 5 6 
#
# 1 0.015391 0.001208 0.000458 0.000000 -0.002760 0.000000
# 2 0.001208 0.018531 -0.002176 0.000000 -0.005461 0.000000
# 3 0.000458 -0.002176 0.009516 0.000000 0.000943 0.000000
# 4 0.000000 0.000000 0.000000 0.026426 0.000000 0.005352
# 5 -0.002760 -0.005461 0.000943 0.000000 0.035241 0.000000
# 6 0.000000 0.000000 0.000000 0.005352 0.000000 0.037790
#
#
# Mechanical properties :
#
#
# Convention : Reuss Voigt Hill
#
# Bulk Modulus (GPa) = 23.57521 26.91104 25.24312
# Shear Modulus (GPa) = 31.63522 34.45488 33.04505
#
# Velocity S-wave (km/s) = 3.79527 3.96080 3.87892
# Velocity P-wave (km/s) = 5.47172 5.75937 5.61739
#
# Compressibility (1/GPa) = 0.04241744
#
# Stress axis : x y z
#
# Youngs Moduli (GPa) = 64.97454 53.96505 105.09114
#
# Poissons Ratio (x) = -0.06521 -0.04816
# Poissons Ratio (y) = -0.07851 0.22869
# Poissons Ratio (z) = -0.02977 0.11744
#
# Static dielectric constant tensor:
#      x y z
#    x 1.783630 0.000000 -0.005730 
#    y 0.000000 1.778350 0.000000 
#    z -0.005730 0.000000 1.874860 
# 
# From -- ./inp_files/68388.got.cif
#   From: 2010.05.17/outbox.cif.g08.bks.cpg/sg15_35_cif.got.tgz:68388.got - 2010.06.03 18:47:42.
