data_PCOD9290816
_publ_section_title
;
Structure prediction by ZEFSAII (Michael W. Deem and Ramdas Pophale) SiO2 
 PCOD9290816
Probable space group: C 2/C
;
_chemical_formula_sum "Si O2"
_cell_formula_units_Z 64
_cell_length_a 23.101082
_cell_length_b 21.790959
_cell_length_c 17.272125
_cell_angle_alpha 90.000000
_cell_angle_beta 161.350719
_cell_angle_gamma 90.000000
_cell_volume 2780.341266
_symmetry_space_group_name_H-M "C 2/C"
_symmetry_group_IT_number 15
_symmetry_cell_setting 'monoclinic'
loop_
_space_group_symop_operation_xyz
x,y,z
-x,y,1/2-z
-x,-y,-z
x,-y,1/2+z
1/2+x,1/2+y,z
1/2-x,1/2+y,1/2-z
1/2-x,1/2-y,-z
1/2+x,1/2-y,1/2+z
loop_
_atom_site_type_symbol
_atom_site_label
_atom_site_fract_x
_atom_site_fract_y
_atom_site_fract_z
Si Si1 0.015763 0.089902 0.178234
Si Si2 0.246349 0.888214 0.601650
Si Si3 0.589645 0.716681 0.077167
Si Si4 0.527887 0.163523 0.981459
Si Si5 0.620553 0.448528 0.298203
Si Si6 0.531518 0.799892 0.699470
Si Si7 0.322151 0.181106 0.575897
Si Si8 0.799951 0.116258 0.759073
O O1 0.166384 0.139114 0.342258
O O2 0.000000 0.102477 0.250000
O O3 0.077607 0.019955 0.247945
O O4 0.845308 0.095644 0.903889
O O5 0.389357 0.885587 0.853787
O O6 0.260853 0.933068 0.545483
O O7 0.279737 0.822700 0.599566
O O8 0.057270 0.908195 0.402580
O O9 0.791924 0.692427 0.329232
O O10 0.568579 0.779526 0.097830
O O11 0.526220 0.736207 0.911227
O O12 0.447437 0.668393 0.927695
O O13 0.390593 0.146315 0.740163
O O14 0.678636 0.431331 0.284807
O O15 0.500000 0.799252 0.750000
O O16 0.391561 0.851609 0.492875
O O17 0.500000 0.186903 0.750000
O O18 0.250000 0.250000 0.500000
#
# Coordination Sequence:
#
# PCOD9290816 Si02
#       8
#     8   8   8   8   8   8   8   8
#     4  12  28  48  71 106 136 188 250 287 357 434
#     4  10  22  41  70  98 138 180 232 290 352 422
#     4  11  23  38  66 100 140 177 231 278 351 429
#     4  11  22  40  66  99 139 180 233 289 357 414
#     4  11  23  49  73  97 137 192 234 293 355 432
#     4  11  24  40  66 108 142 180 229 291 356 428
#     4  12  27  47  73 102 141 185 238 302 359 416
#     4  12  24  45  71  96 144 188 232 294 355 419
#
# _framework density 23.018757999999998
#
# number of rings (size 3 to 8) (size 9 to 14) (size 15 to 20)
#    0.000    0.750    5.000    3.000    3.500    1.500 
#    2.250    1.250    0.000    0.000    0.000    0.000 
#    0.000    0.000    0.000    0.000    0.000    0.000 
#
# Total GULP energy -178802.560573 kJ/mol
# GULP energy per Si atom -5587.580018 kJ/mol
# Density = 2.296637 g / cm^3
# Si number density = 23.018758 Si / 1000 Ang^3
#
#
#
# Elastic Constant Matrix: (Units=GPa)
#
#
# Indices 1 2 3 4 5 6 
#
# 1 132.3852 26.1093 43.9424 0.0000 -9.5507 0.0000
# 2 26.1093 75.1804 44.0173 0.0000 -4.2492 0.0000
# 3 43.9424 44.0173 113.7528 0.0000 -23.7225 0.0000
# 4 0.0000 0.0000 0.0000 13.8698 0.0000 -0.8653
# 5 -9.5507 -4.2492 -23.7225 0.0000 54.0655 0.0000
# 6 0.0000 0.0000 0.0000 -0.8653 0.0000 21.4808
#
#
#
# Elastic Compliance Matrix: (Units=1/GPa)
#
#
# Indices 1 2 3 4 5 6 
#
# 1 0.008775 -0.001392 -0.002808 0.000000 0.000209 0.000000
# 2 -0.001392 0.017566 -0.006630 0.000000 -0.001774 0.000000
# 3 -0.002808 -0.006630 0.013461 0.000000 0.004889 0.000000
# 4 0.000000 0.000000 0.000000 0.072281 0.000000 0.002912
# 5 0.000209 -0.001774 0.004889 0.000000 0.020539 0.000000
# 6 0.000000 0.000000 0.000000 0.002912 0.000000 0.046671
#
#
# Mechanical properties :
#
#
# Convention : Reuss Voigt Hill
#
# Bulk Modulus (GPa) = 55.11625 61.05071 58.08348
# Shear Modulus (GPa) = 24.15482 31.69984 27.92733
#
# Velocity S-wave (km/s) = 3.24289 3.71500 3.48694
# Velocity P-wave (km/s) = 6.16586 6.70681 6.44202
#
# Compressibility (1/GPa) = 0.01814347
#
# Stress axis : x y z
#
# Youngs Moduli (GPa) = 113.95701 56.92814 74.29105
#
# Poissons Ratio (x) = 0.07924 0.20859
# Poissons Ratio (y) = 0.15861 0.49252
# Poissons Ratio (z) = 0.31996 0.37741
#
# Static dielectric constant tensor:
#      x y z
#    x 1.950570 0.000000 -0.028790 
#    y 0.000000 1.799960 0.000000 
#    z -0.028790 0.000000 1.912550 
# 
# From -- ./inp_files/220304.got.cif
#   From: 2010.05.17/outbox.cif.g08.bks.cpg/sg15_111_cif.got.tgz:220304.got - 2010.06.03 18:47:42.
