data_PCOD9290314
_publ_section_title
;
Structure prediction by ZEFSAII (Michael W. Deem and Ramdas Pophale) SiO2 
 PCOD9290314
Probable space group: C 2/C
;
_chemical_formula_sum "Si O2"
_cell_formula_units_Z 40
_cell_length_a 16.868999
_cell_length_b 18.999916
_cell_length_c 7.616215
_cell_angle_alpha 90.000000
_cell_angle_beta 138.216783
_cell_angle_gamma 90.000000
_cell_volume 1626.519139
_symmetry_space_group_name_H-M "C 2/C"
_symmetry_group_IT_number 15
_symmetry_cell_setting 'monoclinic'
loop_
_space_group_symop_operation_xyz
x,y,z
-x,y,1/2-z
-x,-y,-z
x,-y,1/2+z
1/2+x,1/2+y,z
1/2-x,1/2+y,1/2-z
1/2-x,1/2-y,-z
1/2+x,1/2-y,1/2+z
loop_
_atom_site_type_symbol
_atom_site_label
_atom_site_fract_x
_atom_site_fract_y
_atom_site_fract_z
Si Si1 0.901097 0.358910 0.932963
Si Si2 0.200953 0.929599 0.023570
Si Si3 0.000000 0.711140 0.250000
Si Si4 0.000000 0.043521 0.750000
Si Si5 0.850362 0.831284 0.824446
Si Si6 0.866116 0.502204 0.023279
O O1 0.777173 0.327383 0.794299
O O2 0.879874 0.443063 0.889853
O O3 0.935383 0.331313 0.798179
O O4 0.000000 0.347042 0.250000
O O5 0.162502 0.851717 0.902544
O O6 0.308942 0.950290 0.072502
O O7 0.097713 0.988387 0.837330
O O8 0.265308 0.940424 0.314949
O O9 0.081913 0.763002 0.501588
O O10 0.922604 0.098722 0.508273
O O11 0.000000 0.528939 0.250000
#
# Coordination Sequence:
#
# PCOD9290314 Si02
#       6
#     8   8   4   4   8   8
#     4  10  22  46  69  98 139 183 240 291 335 415
#     4  11  20  40  66  97 145 179 220 283 354 420
#     4  11  24  46  74  94 140 192 235 288 348 395
#     4  11  20  40  64 100 140 182 217 280 362 411
#     4  10  23  42  67 103 138 175 236 294 333 427
#     4  10  22  41  65 102 144 178 222 286 346 431
#
# _framework density 24.592395
#
# number of rings (size 3 to 8) (size 9 to 14) (size 15 to 20)
#    0.000    1.600    4.000    1.800    0.000    0.800 
#   14.400    0.000    0.000    0.000    0.000    0.000 
#    0.000    0.000    0.000    0.000    0.000    0.000 
#
# Total GULP energy -111646.337218 kJ/mol
# GULP energy per Si atom -5582.316861 kJ/mol
# Density = 2.453642 g / cm^3
# Si number density = 24.592395 Si / 1000 Ang^3
#
#
#
# Elastic Constant Matrix: (Units=GPa)
#
#
# Indices 1 2 3 4 5 6 
#
# 1 50.1076 19.8138 7.8022 0.0000 22.6003 0.0000
# 2 19.8138 94.4624 32.3697 0.0000 1.8986 0.0000
# 3 7.8022 32.3697 96.2273 0.0000 21.7881 0.0000
# 4 0.0000 0.0000 0.0000 20.7775 0.0000 -11.3720
# 5 22.6003 1.8986 21.7881 0.0000 42.2399 0.0000
# 6 0.0000 0.0000 0.0000 -11.3720 0.0000 33.0251
#
#
#
# Elastic Compliance Matrix: (Units=1/GPa)
#
#
# Indices 1 2 3 4 5 6 
#
# 1 0.030394 -0.007425 0.004121 0.000000 -0.018054 0.000000
# 2 -0.007425 0.013893 -0.005468 0.000000 0.006169 0.000000
# 3 0.004121 -0.005468 0.013973 0.000000 -0.009167 0.000000
# 4 0.000000 0.000000 0.000000 0.059306 0.000000 0.020422
# 5 -0.018054 0.006169 -0.009167 0.000000 0.037785 0.000000
# 6 0.000000 0.000000 0.000000 0.020422 0.000000 0.037312
#
#
# Mechanical properties :
#
#
# Convention : Reuss Voigt Hill
#
# Bulk Modulus (GPa) = 24.55972 40.08540 32.32256
# Shear Modulus (GPa) = 22.34332 31.26261 26.80297
#
# Velocity S-wave (km/s) = 3.01748 3.56930 3.30493
# Velocity P-wave (km/s) = 4.70623 5.77251 5.26643
#
# Compressibility (1/GPa) = 0.04071707
#
# Stress axis : x y z
#
# Youngs Moduli (GPa) = 32.90078 71.97644 71.56678
#
# Poissons Ratio (x) = 0.53440 -0.29493
# Poissons Ratio (y) = 0.24428 0.39135
# Poissons Ratio (z) = -0.13559 0.39359
#
# Static dielectric constant tensor:
#      x y z
#    x 1.996160 0.000000 -0.152400 
#    y 0.000000 1.945630 0.000000 
#    z -0.152400 0.000000 2.145970 
# 
# From -- ./inp_files/50480.got.cif
#   From: 2010.05.17/outbox.cif.g08.bks.cpg/sg15_26_cif.got.tgz:50480.got - 2010.06.03 18:47:42.
