data_PCOD9290269
_publ_section_title
;
Structure prediction by ZEFSAII (Michael W. Deem and Ramdas Pophale) SiO2 
 PCOD9290269
Probable space group: C 2/C
;
_chemical_formula_sum "Si O2"
_cell_formula_units_Z 32
_cell_length_a 7.866518
_cell_length_b 16.074763
_cell_length_c 19.006500
_cell_angle_alpha 90.000000
_cell_angle_beta 33.862932
_cell_angle_gamma 90.000000
_cell_volume 1339.203634
_symmetry_space_group_name_H-M "C 2/C"
_symmetry_group_IT_number 15
_symmetry_cell_setting 'monoclinic'
loop_
_space_group_symop_operation_xyz
x,y,z
-x,y,1/2-z
-x,-y,-z
x,-y,1/2+z
1/2+x,1/2+y,z
1/2-x,1/2+y,1/2-z
1/2-x,1/2-y,-z
1/2+x,1/2-y,1/2+z
loop_
_atom_site_type_symbol
_atom_site_label
_atom_site_fract_x
_atom_site_fract_y
_atom_site_fract_z
Si Si1 0.216418 0.419453 0.880286
Si Si2 0.113782 0.142350 0.971200
Si Si3 0.107926 0.025453 0.555894
Si Si4 0.648118 0.807728 0.383009
O O1 0.500000 0.371784 0.750000
O O2 0.961217 0.453319 0.915310
O O3 0.368220 0.495505 0.871609
O O4 0.024964 0.363784 0.999691
O O5 0.441354 0.176130 0.884770
O O6 0.023379 0.059638 0.046010
O O7 0.082949 0.105255 0.903149
O O8 0.887485 0.215236 0.072834
O O9 0.000000 0.826538 0.250000
#
# Coordination Sequence:
#
# PCOD9290269 Si02
#       4
#     8   8   8   8
#     4  10  22  41  64  94 134 172 211 267 330 394
#     4   9  20  40  64  92 124 167 221 272 324 390
#     4   9  20  39  63  90 124 170 219 267 323 386
#     4  10  22  42  66  94 132 172 214 270 332 397
#
# _framework density 23.894798000000002
#
# number of rings (size 3 to 8) (size 9 to 14) (size 15 to 20)
#    0.000    2.500    0.000    0.000    0.000   16.000 
#    0.000   17.500    0.000    0.000    0.000    0.000 
#    0.000    0.000    0.000    0.000    0.000    0.000 
#
# Total GULP energy -89259.908233 kJ/mol
# GULP energy per Si atom -5578.744265 kJ/mol
# Density = 2.384041 g / cm^3
# Si number density = 23.894798 Si / 1000 Ang^3
#
#
#
# Elastic Constant Matrix: (Units=GPa)
#
#
# Indices 1 2 3 4 5 6 
#
# 1 88.4405 52.8109 30.3646 -0.0114 -10.8087 -0.0013
# 2 52.8109 148.5678 47.2689 -0.0123 3.3626 0.0069
# 3 30.3646 47.2689 166.9414 -0.0603 -12.6732 -0.0308
# 4 -0.0114 -0.0123 -0.0603 15.4015 -0.0018 -5.3928
# 5 -10.8087 3.3626 -12.6732 -0.0018 14.2271 0.0110
# 6 -0.0013 0.0069 -0.0308 -5.3928 0.0110 23.9700
#
#
#
# Elastic Compliance Matrix: (Units=1/GPa)
#
#
# Indices 1 2 3 4 5 6 
#
# 1 0.016818 -0.006223 -0.000231 0.000007 0.014042 -0.000002
# 2 -0.006223 0.009905 -0.002369 -0.000008 -0.009179 -0.000004
# 3 -0.000231 -0.002369 0.007221 0.000032 0.006816 0.000014
# 4 0.000007 -0.000008 0.000032 0.070481 0.000033 0.015857
# 5 0.014042 -0.009179 0.006816 0.000033 0.089198 -0.000021
# 6 -0.000002 -0.000004 0.000014 0.015857 -0.000021 0.045286
#
#
# Mechanical properties :
#
#
# Convention : Reuss Voigt Hill
#
# Bulk Modulus (GPa) = 61.36117 73.87095 67.61606
# Shear Modulus (GPa) = 19.08485 28.95341 24.01913
#
# Velocity S-wave (km/s) = 2.82920 3.48473 3.17393
# Velocity P-wave (km/s) = 6.03390 6.86828 6.46457
#
# Compressibility (1/GPa) = 0.01629695
#
# Stress axis : x y z
#
# Youngs Moduli (GPa) = 59.45899 100.96420 138.49403
#
# Poissons Ratio (x) = 0.62826 0.03201
# Poissons Ratio (y) = 0.36999 0.32815
# Poissons Ratio (z) = 0.01374 0.23923
#
# Static dielectric constant tensor:
#      x y z
#    x 2.094400 -0.000010 0.004250 
#    y -0.000010 1.950470 -0.000020 
#    z 0.004250 -0.000020 1.958190 
# 
# From -- ./inp_files/265104.got.cif
#   From: 2010.05.17/outbox.cif.g08.bks.cpg/sg15_133_cif.got.tgz:265104.got - 2010.06.03 18:47:42.
