data_PCOD9290666
_publ_section_title
;
Structure prediction by ZEFSAII (Michael W. Deem and Ramdas Pophale) SiO2 
 PCOD9290666
Probable space group: C 2/C
;
_chemical_formula_sum "Si O2"
_cell_formula_units_Z 56
_cell_length_a 16.333635
_cell_length_b 9.248003
_cell_length_c 24.842276
_cell_angle_alpha 90.000000
_cell_angle_beta 44.273884
_cell_angle_gamma 90.000000
_cell_volume 2619.587933
_symmetry_space_group_name_H-M "C 2/C"
_symmetry_group_IT_number 15
_symmetry_cell_setting 'monoclinic'
loop_
_space_group_symop_operation_xyz
x,y,z
-x,y,1/2-z
-x,-y,-z
x,-y,1/2+z
1/2+x,1/2+y,z
1/2-x,1/2+y,1/2-z
1/2-x,1/2-y,-z
1/2+x,1/2-y,1/2+z
loop_
_atom_site_type_symbol
_atom_site_label
_atom_site_fract_x
_atom_site_fract_y
_atom_site_fract_z
Si Si1 0.069072 0.726473 0.500093
Si Si2 0.646473 0.921694 0.445981
Si Si3 0.357631 0.615579 0.635293
Si Si4 0.491698 0.613180 0.370773
Si Si5 0.999596 0.637081 0.376971
Si Si6 0.097580 0.860474 0.158447
Si Si7 0.580288 0.879499 0.265050
O O1 0.153237 0.595737 0.441715
O O2 0.081816 0.852665 0.450527
O O3 0.942693 0.647717 0.554690
O O4 0.083182 0.791024 0.552274
O O5 0.585748 0.887162 0.532015
O O6 0.773083 0.855848 0.379080
O O7 0.413829 0.477836 0.638758
O O8 0.396357 0.755302 0.652809
O O9 0.219272 0.604197 0.690921
O O10 0.414053 0.497253 0.375697
O O11 0.552957 0.719486 0.299847
O O12 0.928277 0.721001 0.364908
O O13 0.045565 0.491781 0.328363
O O14 0.000000 0.873202 0.250000
O O15 0.500000 0.905779 0.250000
#
# Coordination Sequence:
#
# PCOD9290666 Si02
#       7
#     8   8   8   8   8   8   8
#     4  10  22  41  68  95 124 175 221 264 329 387
#     4  10  22  42  69  95 130 169 222 271 318 396
#     4  10  24  42  67  92 131 171 219 274 325 395
#     4  11  24  42  61  95 129 169 217 266 332 386
#     4  10  22  46  65  96 126 180 222 258 334 392
#     4  11  25  41  66  97 134 171 215 271 331 382
#     4  12  25  40  63  97 134 170 221 273 329 381
#
# _framework density 21.377407000000002
#
# number of rings (size 3 to 8) (size 9 to 14) (size 15 to 20)
#    0.000    1.429    1.429    2.571    4.000    6.286 
#    0.000    0.000    0.000    0.000    0.000    0.000 
#    0.000    0.000    0.000    0.000    0.000    0.000 
#
# Total GULP energy -156577.264874 kJ/mol
# GULP energy per Si atom -5592.045174 kJ/mol
# Density = 2.132875 g / cm^3
# Si number density = 21.377407 Si / 1000 Ang^3
#
#
#
# Elastic Constant Matrix: (Units=GPa)
#
#
# Indices 1 2 3 4 5 6 
#
# 1 56.1001 -6.0371 23.8918 0.0000 -10.5873 0.0000
# 2 -6.0371 71.4687 13.1428 0.0000 2.0695 0.0001
# 3 23.8918 13.1428 62.4051 0.0000 -2.1972 0.0000
# 4 0.0000 0.0000 0.0000 19.3351 0.0000 14.8444
# 5 -10.5873 2.0695 -2.1972 0.0000 38.4328 0.0000
# 6 0.0000 0.0001 0.0000 14.8444 0.0000 22.0447
#
#
#
# Elastic Compliance Matrix: (Units=1/GPa)
#
#
# Indices 1 2 3 4 5 6 
#
# 1 0.023315 0.003547 -0.009473 0.000000 0.005690 0.000000
# 2 0.003547 0.015131 -0.004548 0.000000 -0.000098 0.000000
# 3 -0.009473 -0.004548 0.020567 0.000000 -0.001189 0.000000
# 4 0.000000 0.000000 0.000000 0.107075 0.000000 -0.072102
# 5 0.005690 -0.000098 -0.001189 0.000000 0.027524 0.000000
# 6 0.000000 0.000000 0.000000 -0.072102 0.000000 0.093914
#
#
# Mechanical properties :
#
#
# Convention : Reuss Voigt Hill
#
# Bulk Modulus (GPa) = 26.27094 27.99656 27.13375
# Shear Modulus (GPa) = 15.56842 26.56093 21.06468
#
# Velocity S-wave (km/s) = 2.70157 3.52870 3.14247
# Velocity P-wave (km/s) = 4.69543 5.45225 5.08793
#
# Compressibility (1/GPa) = 0.03806487
#
# Stress axis : x y z
#
# Youngs Moduli (GPa) = 42.89068 66.08990 48.62164
#
# Poissons Ratio (x) = -0.23440 0.46058
# Poissons Ratio (y) = -0.15212 0.22113
# Poissons Ratio (z) = 0.40630 0.30057
#
# Static dielectric constant tensor:
#      x y z
#    x 1.754080 0.000000 0.010670 
#    y 0.000000 1.783590 0.000000 
#    z 0.010670 0.000000 1.735370 
# 
# From -- ./inp_files/298491.got.cif
#   From: 2010.05.17/outbox.cif.g08.bks.cpg/sg15_150_cif.got.tgz:298491.got - 2010.06.03 18:47:42.
