data_PCOD9290250
_publ_section_title
;
Structure prediction by ZEFSAII (Michael W. Deem and Ramdas Pophale) SiO2 
 PCOD9290250
Probable space group: C 2/C
;
_chemical_formula_sum "Si O2"
_cell_formula_units_Z 40
_cell_length_a 21.226025
_cell_length_b 5.121124
_cell_length_c 15.182164
_cell_angle_alpha 90.000000
_cell_angle_beta 115.209603
_cell_angle_gamma 90.000000
_cell_volume 1493.134597
_symmetry_space_group_name_H-M "C 2/C"
_symmetry_group_IT_number 15
_symmetry_cell_setting 'monoclinic'
loop_
_space_group_symop_operation_xyz
x,y,z
-x,y,1/2-z
-x,-y,-z
x,-y,1/2+z
1/2+x,1/2+y,z
1/2-x,1/2+y,1/2-z
1/2-x,1/2-y,-z
1/2+x,1/2-y,1/2+z
loop_
_atom_site_type_symbol
_atom_site_label
_atom_site_fract_x
_atom_site_fract_y
_atom_site_fract_z
Si Si1 0.217690 0.543622 0.551393
Si Si2 0.598429 0.692473 0.731353
Si Si3 0.105021 0.682335 0.851523
Si Si4 0.964409 0.999661 0.073046
Si Si5 0.181479 0.971394 0.107246
O O1 0.250000 0.750000 0.500000
O O2 0.152683 0.440626 0.456152
O O3 0.212738 0.738555 0.631887
O O4 0.234106 0.252273 0.601280
O O5 0.617284 0.467166 0.814016
O O6 0.516452 0.679089 0.658851
O O7 0.643658 0.634993 0.671371
O O8 0.609683 0.973647 0.778067
O O9 0.035545 0.740218 0.867427
O O10 0.116814 0.035464 0.000430
O O11 0.000000 0.000000 0.000000
#
# Coordination Sequence:
#
# PCOD9290250 Si02
#       5
#     8   8   8   8   8
#     4  11  23  43  66  88 119 167 218 266 315 374
#     4  11  23  40  62  96 134 165 203 264 320 378
#     4  11  23  39  62  94 128 167 216 263 312 375
#     4   9  21  39  62  92 130 169 202 243 310 385
#     4  10  22  41  64  92 126 168 212 254 314 388
#
# _framework density 26.789276999999998
#
# number of rings (size 3 to 8) (size 9 to 14) (size 15 to 20)
#    0.000    1.600    0.000    4.800    0.000    8.000 
#    0.000   21.000    0.000    0.000    0.000    0.000 
#    0.000    0.000    0.000    0.000    0.000    0.000 
#
# Total GULP energy -111490.323688 kJ/mol
# GULP energy per Si atom -5574.516184 kJ/mol
# Density = 2.672830 g / cm^3
# Si number density = 26.789277 Si / 1000 Ang^3
#
#
#
# Elastic Constant Matrix: (Units=GPa)
#
#
# Indices 1 2 3 4 5 6 
#
# 1 76.7213 45.9600 16.2972 0.0000 -15.9225 0.0000
# 2 45.9600 187.8987 21.0868 -0.0005 -29.3093 0.0005
# 3 16.2972 21.0868 106.1446 0.0000 -28.9208 0.0000
# 4 0.0000 -0.0005 0.0000 38.1838 0.0000 -0.9404
# 5 -15.9225 -29.3093 -28.9208 0.0000 52.2901 0.0000
# 6 0.0000 0.0005 0.0000 -0.9404 0.0000 46.8132
#
#
#
# Elastic Compliance Matrix: (Units=1/GPa)
#
#
# Indices 1 2 3 4 5 6 
#
# 1 0.015770 -0.003374 -0.001128 0.000000 0.002287 0.000000
# 2 -0.003374 0.006563 -0.000075 0.000000 0.002610 0.000000
# 3 -0.001128 -0.000075 0.011191 0.000000 0.005804 0.000000
# 4 0.000000 0.000000 0.000000 0.026202 0.000000 0.000526
# 5 0.002287 0.002610 0.005804 0.000000 0.024493 0.000000
# 6 0.000000 0.000000 0.000000 0.000526 0.000000 0.021372
#
#
# Mechanical properties :
#
#
# Convention : Reuss Voigt Hill
#
# Bulk Modulus (GPa) = 41.03404 59.71696 50.37550
# Shear Modulus (GPa) = 40.69455 46.61877 43.65666
#
# Velocity S-wave (km/s) = 3.90174 4.17610 4.04125
# Velocity P-wave (km/s) = 5.97065 6.75225 6.37344
#
# Compressibility (1/GPa) = 0.02437001
#
# Stress axis : x y z
#
# Youngs Moduli (GPa) = 63.41333 152.37502 89.36147
#
# Poissons Ratio (x) = 0.51410 0.10078
# Poissons Ratio (y) = 0.21395 0.00667
# Poissons Ratio (z) = 0.07152 0.01137
#
# Static dielectric constant tensor:
#      x y z
#    x 2.238960 0.000000 0.002500 
#    y 0.000000 2.153230 0.000000 
#    z 0.002500 0.000000 2.156020 
# 
# From -- ./inp_files/179494.got.cif
#   From: 2010.05.17/outbox.cif.g08.bks.cpg/sg15_90_cif.got.tgz:179494.got - 2010.06.03 18:47:42.
