data_PCOD9290684
_publ_section_title
;
Structure prediction by ZEFSAII (Michael W. Deem and Ramdas Pophale) SiO2 
 PCOD9290684
Probable space group: C 2/C
;
_chemical_formula_sum "Si O2"
_cell_formula_units_Z 60
_cell_length_a 14.896623
_cell_length_b 11.278364
_cell_length_c 28.484424
_cell_angle_alpha 90.000000
_cell_angle_beta 152.115353
_cell_angle_gamma 90.000000
_cell_volume 2238.217206
_symmetry_space_group_name_H-M "C 2/C"
_symmetry_group_IT_number 15
_symmetry_cell_setting 'monoclinic'
loop_
_space_group_symop_operation_xyz
x,y,z
-x,y,1/2-z
-x,-y,-z
x,-y,1/2+z
1/2+x,1/2+y,z
1/2-x,1/2+y,1/2-z
1/2-x,1/2-y,-z
1/2+x,1/2-y,1/2+z
loop_
_atom_site_type_symbol
_atom_site_label
_atom_site_fract_x
_atom_site_fract_y
_atom_site_fract_z
Si Si1 0.626354 0.674519 0.862349
Si Si2 0.500000 0.108991 0.750000
Si Si3 0.424924 0.362371 0.462637
Si Si4 0.938575 0.426875 0.647715
Si Si5 0.937029 0.077027 0.569791
Si Si6 0.797070 0.880887 0.755170
Si Si7 0.777866 0.444540 0.350279
Si Si8 0.958119 0.276050 0.074230
O O1 0.639368 0.814320 0.858615
O O2 0.645738 0.652373 0.925914
O O3 0.406640 0.636313 0.749615
O O4 0.775182 0.589499 0.903583
O O5 0.302647 0.166484 0.643187
O O6 0.549778 0.019497 0.730796
O O7 0.500000 0.500000 0.500000
O O8 0.480068 0.340846 0.433374
O O9 0.495773 0.298114 0.542962
O O10 0.751570 0.485978 0.538870
O O11 0.087009 0.377490 0.679336
O O12 0.080935 0.982193 0.659799
O O13 0.902146 0.761859 0.818553
O O14 0.783310 0.925798 0.695478
O O15 0.964897 0.403098 0.408284
O O16 0.750000 0.250000 0.000000
#
# Coordination Sequence:
#
# PCOD9290684 Si02
#       8
#     8   4   8   8   8   8   8   8
#     4  10  22  41  68  97 134 179 245 290 344 426
#     4  12  22  34  66  94 134 184 224 292 364 410
#     4  12  23  41  67 103 141 182 241 292 364 431
#     4  12  21  37  68 101 132 179 235 299 351 407
#     4  11  23  39  68  97 138 174 237 302 349 417
#     4  11  24  43  67 104 141 183 242 287 367 429
#     4  10  23  43  72  98 138 192 235 289 357 436
#     4  12  26  45  71 109 152 192 234 302 374 434
#
# _framework density 26.80705
#
# number of rings (size 3 to 8) (size 9 to 14) (size 15 to 20)
#    0.000    0.800    5.333    2.000    3.733    0.000 
#    0.000    0.667   17.600    0.000    0.000    0.000 
#    0.000    0.000    0.000    0.000    0.000    0.000 
#
# Total GULP energy -167700.586026 kJ/mol
# GULP energy per Si atom -5590.019534 kJ/mol
# Density = 2.674604 g / cm^3
# Si number density = 26.807050 Si / 1000 Ang^3
#
#
#
# Elastic Constant Matrix: (Units=GPa)
#
#
# Indices 1 2 3 4 5 6 
#
# 1 169.0606 25.0243 21.0496 -0.0001 -0.8688 0.0000
# 2 25.0243 58.9909 13.7108 -0.0001 -20.9552 0.0000
# 3 21.0496 13.7108 69.6480 -0.0007 11.2573 0.0002
# 4 -0.0001 -0.0001 -0.0007 27.6799 0.0000 -7.6582
# 5 -0.8688 -20.9552 11.2573 0.0000 48.4003 0.0000
# 6 0.0000 0.0000 0.0002 -7.6582 0.0000 34.4310
#
#
#
# Elastic Compliance Matrix: (Units=1/GPa)
#
#
# Indices 1 2 3 4 5 6 
#
# 1 0.006475 -0.002713 -0.001301 0.000000 -0.000756 0.000000
# 2 -0.002713 0.023475 -0.005649 0.000000 0.011429 0.000000
# 3 -0.001301 -0.005649 0.016897 0.000000 -0.006399 0.000000
# 4 0.000000 0.000000 0.000000 0.038496 0.000000 0.008562
# 5 -0.000756 0.011429 -0.006399 0.000000 0.027084 0.000000
# 6 0.000000 0.000000 0.000000 0.008562 0.000000 0.030948
#
#
# Mechanical properties :
#
#
# Convention : Reuss Voigt Hill
#
# Bulk Modulus (GPa) = 36.33322 46.36321 41.34822
# Shear Modulus (GPa) = 29.09109 37.96324 33.52717
#
# Velocity S-wave (km/s) = 3.29782 3.76728 3.54034
# Velocity P-wave (km/s) = 5.29942 6.02129 5.67185
#
# Compressibility (1/GPa) = 0.02752302
#
# Stress axis : x y z
#
# Youngs Moduli (GPa) = 154.44878 42.59801 59.18113
#
# Poissons Ratio (x) = 0.11556 0.07697
# Poissons Ratio (y) = 0.41898 0.33430
# Poissons Ratio (z) = 0.20088 0.24062
#
# Static dielectric constant tensor:
#      x y z
#    x 2.203250 0.000000 -0.043950 
#    y 0.000000 2.172040 0.000000 
#    z -0.043950 0.000000 2.110200 
# 
# From -- ./inp_files/314006.got.cif
#   From: 2010.05.17/outbox.cif.g08.bks.cpg/sg15_158_cif.got.tgz:314006.got - 2010.06.03 18:47:42.
