data_PCOD9290113
_publ_section_title
;
Structure prediction by ZEFSAII (Michael W. Deem and Ramdas Pophale) SiO2 
 PCOD9290113
Probable space group: C 2/C
;
_chemical_formula_sum "Si O2"
_cell_formula_units_Z 32
_cell_length_a 22.503629
_cell_length_b 8.706155
_cell_length_c 18.460204
_cell_angle_alpha 90.000000
_cell_angle_beta 22.877688
_cell_angle_gamma 90.000000
_cell_volume 1406.056676
_symmetry_space_group_name_H-M "C 2/C"
_symmetry_group_IT_number 15
_symmetry_cell_setting 'monoclinic'
loop_
_space_group_symop_operation_xyz
x,y,z
-x,y,1/2-z
-x,-y,-z
x,-y,1/2+z
1/2+x,1/2+y,z
1/2-x,1/2+y,1/2-z
1/2-x,1/2-y,-z
1/2+x,1/2-y,1/2+z
loop_
_atom_site_type_symbol
_atom_site_label
_atom_site_fract_x
_atom_site_fract_y
_atom_site_fract_z
Si Si1 0.584369 0.406472 0.080888
Si Si2 0.936318 0.605605 0.985008
Si Si3 0.407936 0.787338 0.670209
Si Si4 0.235867 0.774770 0.431015
O O1 0.500000 0.359879 0.250000
O O2 0.485136 0.356587 0.122760
O O3 0.751586 0.329784 0.886730
O O4 0.617557 0.587679 0.047199
O O5 0.968134 0.426546 0.962943
O O6 0.102189 0.673818 0.781554
O O7 0.871909 0.702625 0.125208
O O8 0.826986 0.627285 0.039674
O O9 0.250000 0.750000 0.500000
#
# Coordination Sequence:
#
# PCOD9290113 Si02
#       4
#     8   8   8   8
#     4  11  23  39  60  90 122 156 199 245 297 354
#     4  10  22  41  62  87 121 156 197 246 296 354
#     4  10  23  40  61  89 119 156 198 246 298 349
#     4  11  23  40  62  89 121 158 198 243 298 355
#
# _framework density 22.758685
#
# number of rings (size 3 to 8) (size 9 to 14) (size 15 to 20)
#    0.000    1.500    0.000    4.500    0.000    9.000 
#    0.000    0.000    0.000    0.000    0.000    0.000 
#    0.000    0.000    0.000    0.000    0.000    0.000 
#
# Total GULP energy -89512.578762 kJ/mol
# GULP energy per Si atom -5594.536173 kJ/mol
# Density = 2.270688 g / cm^3
# Si number density = 22.758685 Si / 1000 Ang^3
#
#
#
# Elastic Constant Matrix: (Units=GPa)
#
#
# Indices 1 2 3 4 5 6 
#
# 1 129.0666 35.4693 13.8153 0.0000 18.5876 0.0000
# 2 35.4693 50.0307 21.1684 -0.0004 -4.9978 0.0001
# 3 13.8153 21.1684 95.7162 -0.0002 33.1496 0.0000
# 4 0.0000 -0.0004 -0.0002 19.9504 0.0001 -10.1278
# 5 18.5876 -4.9978 33.1496 0.0001 35.6068 0.0000
# 6 0.0000 0.0001 0.0000 -10.1278 0.0000 43.9024
#
#
#
# Elastic Compliance Matrix: (Units=1/GPa)
#
#
# Indices 1 2 3 4 5 6 
#
# 1 0.012613 -0.012748 0.005754 0.000000 -0.013731 0.000000
# 2 -0.012748 0.038494 -0.016012 0.000000 0.026965 0.000000
# 3 0.005754 -0.016012 0.022104 0.000000 -0.025830 0.000000
# 4 0.000000 0.000000 0.000000 0.056773 0.000000 0.013097
# 5 -0.013731 0.026965 -0.025830 0.000000 0.063084 0.000000
# 6 0.000000 0.000000 0.000000 0.013097 0.000000 0.025799
#
#
# Mechanical properties :
#
#
# Convention : Reuss Voigt Hill
#
# Bulk Modulus (GPa) = 36.76636 46.19104 41.47870
# Shear Modulus (GPa) = 18.25181 33.51595 25.88388
#
# Velocity S-wave (km/s) = 2.83498 3.84170 3.37607
# Velocity P-wave (km/s) = 5.18711 6.32600 5.78465
#
# Compressibility (1/GPa) = 0.02719878
#
# Stress axis : x y z
#
# Youngs Moduli (GPa) = 79.28444 25.97803 45.24093
#
# Poissons Ratio (x) = 0.33117 -0.26033
# Poissons Ratio (y) = 1.01073 0.72440
# Poissons Ratio (z) = -0.45622 0.41596
#
# Static dielectric constant tensor:
#      x y z
#    x 1.856800 0.000000 0.007990 
#    y 0.000000 1.874440 0.000000 
#    z 0.007990 0.000000 1.822870 
# 
# From -- ./inp_files/53459.got.cif
#   From: 2010.05.17/outbox.cif.g08.bks.cpg/sg15_27_cif.got.tgz:53459.got - 2010.06.03 18:47:42.
