data_PCOD9290674
_publ_section_title
;
Structure prediction by ZEFSAII (Michael W. Deem and Ramdas Pophale) SiO2 
 PCOD9290674
Probable space group: C 2/C
;
_chemical_formula_sum "Si O2"
_cell_formula_units_Z 48
_cell_length_a 10.832199
_cell_length_b 8.796079
_cell_length_c 23.447437
_cell_angle_alpha 90.000000
_cell_angle_beta 52.701652
_cell_angle_gamma 90.000000
_cell_volume 1777.200282
_symmetry_space_group_name_H-M "C 2/C"
_symmetry_group_IT_number 15
_symmetry_cell_setting 'monoclinic'
loop_
_space_group_symop_operation_xyz
x,y,z
-x,y,1/2-z
-x,-y,-z
x,-y,1/2+z
1/2+x,1/2+y,z
1/2-x,1/2+y,1/2-z
1/2-x,1/2-y,-z
1/2+x,1/2-y,1/2+z
loop_
_atom_site_type_symbol
_atom_site_label
_atom_site_fract_x
_atom_site_fract_y
_atom_site_fract_z
Si Si1 0.183247 0.820778 0.446159
Si Si2 0.500000 0.010942 0.750000
Si Si3 0.000000 0.023216 0.750000
Si Si4 0.327629 0.053728 0.122452
Si Si5 0.987232 0.999356 0.408112
Si Si6 0.530333 0.764505 0.656418
Si Si7 0.948128 0.698211 0.659099
O O1 0.141804 0.644092 0.444433
O O2 0.367369 0.832992 0.395540
O O3 0.114868 0.896787 0.521485
O O4 0.108898 0.913393 0.414395
O O5 0.592809 0.890704 0.682967
O O6 0.407868 0.118540 0.731126
O O7 0.854672 0.931230 0.813361
O O8 0.936766 0.144548 0.721234
O O9 0.425231 0.141250 0.143148
O O10 0.369913 0.881026 0.125825
O O11 0.068974 0.121048 0.343192
O O12 0.885910 0.864376 0.406082
#
# Coordination Sequence:
#
# PCOD9290674 Si02
#       7
#     8   4   4   8   8   8   8
#     4  10  23  44  64  95 133 167 214 266 316 380
#     4   9  22  41  60  93 130 161 210 261 312 377
#     4  11  22  37  62  89 124 167 212 261 318 381
#     4  10  24  41  62  93 127 168 214 264 321 378
#     4  10  22  41  68  96 128 171 215 261 319 379
#     4   9  21  41  62  89 127 166 206 260 318 378
#     4  11  23  41  68  97 128 170 215 264 319 383
#
# _framework density 27.008775
#
# number of rings (size 3 to 8) (size 9 to 14) (size 15 to 20)
#    0.000    2.000    0.000    1.500    0.000   16.000 
#    0.000   13.333    0.000    4.000    0.000    0.000 
#    0.000    0.000    0.000    0.000    0.000    0.000 
#
# Total GULP energy -134038.167190 kJ/mol
# GULP energy per Si atom -5584.923633 kJ/mol
# Density = 2.694730 g / cm^3
# Si number density = 27.008775 Si / 1000 Ang^3
#
#
#
# Elastic Constant Matrix: (Units=GPa)
#
#
# Indices 1 2 3 4 5 6 
#
# 1 92.4075 20.8933 14.3373 0.0000 15.6654 0.0000
# 2 20.8933 165.2679 26.1089 0.0000 24.8381 0.0000
# 3 14.3373 26.1089 39.6710 0.0000 22.0842 0.0000
# 4 0.0000 0.0000 0.0000 30.3356 0.0000 10.3855
# 5 15.6654 24.8381 22.0842 0.0000 36.0607 0.0000
# 6 0.0000 0.0000 0.0000 10.3855 0.0000 44.7499
#
#
#
# Elastic Compliance Matrix: (Units=1/GPa)
#
#
# Indices 1 2 3 4 5 6 
#
# 1 0.011865 -0.000671 -0.001873 0.000000 -0.003545 0.000000
# 2 -0.000671 0.007001 -0.002796 0.000000 -0.002818 0.000000
# 3 -0.001873 -0.002796 0.039752 0.000000 -0.021605 0.000000
# 4 0.000000 0.000000 0.000000 0.035810 0.000000 -0.008311
# 5 -0.003545 -0.002818 -0.021605 0.000000 0.044444 0.000000
# 6 0.000000 0.000000 0.000000 -0.008311 0.000000 0.024275
#
#
# Mechanical properties :
#
#
# Convention : Reuss Voigt Hill
#
# Bulk Modulus (GPa) = 20.86071 46.66949 33.76510
# Shear Modulus (GPa) = 26.34274 37.96301 32.15288
#
# Velocity S-wave (km/s) = 3.12643 3.75317 3.45405
# Velocity P-wave (km/s) = 4.55776 6.00822 5.33254
#
# Compressibility (1/GPa) = 0.04793700
#
# Stress axis : x y z
#
# Youngs Moduli (GPa) = 84.28184 142.83845 25.15619
#
# Poissons Ratio (x) = 0.09589 0.04711
# Poissons Ratio (y) = 0.05658 0.07034
# Poissons Ratio (z) = 0.15784 0.39939
#
# Static dielectric constant tensor:
#      x y z
#    x 2.130940 0.000000 0.094400 
#    y 0.000000 2.148310 0.000000 
#    z 0.094400 0.000000 2.225050 
# 
# From -- ./inp_files/291078.got.cif
#   From: 2010.05.17/outbox.cif.g08.bks.cpg/sg15_146_cif.got.tgz:291078.got - 2010.06.03 18:47:42.
