data_PCOD9290069
_publ_section_title
;
Structure prediction by ZEFSAII (Michael W. Deem and Ramdas Pophale) SiO2 
 PCOD9290069
Probable space group: C 2/C
;
_chemical_formula_sum "Si O2"
_cell_formula_units_Z 44
_cell_length_a 7.724607
_cell_length_b 28.899449
_cell_length_c 14.988551
_cell_angle_alpha 90.000000
_cell_angle_beta 141.761430
_cell_angle_gamma 90.000000
_cell_volume 2070.962539
_symmetry_space_group_name_H-M "C 2/C"
_symmetry_group_IT_number 15
_symmetry_cell_setting 'monoclinic'
loop_
_space_group_symop_operation_xyz
x,y,z
-x,y,1/2-z
-x,-y,-z
x,-y,1/2+z
1/2+x,1/2+y,z
1/2-x,1/2+y,1/2-z
1/2-x,1/2-y,-z
1/2+x,1/2-y,1/2+z
loop_
_atom_site_type_symbol
_atom_site_label
_atom_site_fract_x
_atom_site_fract_y
_atom_site_fract_z
Si Si1 0.323965 0.374559 0.407706
Si Si2 0.828934 0.027204 0.855792
Si Si3 0.743919 0.383176 0.911904
Si Si4 0.500000 0.527272 0.250000
Si Si5 0.372595 0.721126 0.842114
Si Si6 0.424903 0.794322 0.452777
O O1 0.433374 0.419640 0.400519
O O2 0.349732 0.382626 0.523301
O O3 0.433072 0.325009 0.423381
O O4 0.000000 0.372516 0.250000
O O5 0.500000 0.026554 0.750000
O O6 0.886553 0.003168 0.784952
O O7 0.000000 0.000000 0.000000
O O8 0.500000 0.363336 0.750000
O O9 0.744598 0.436930 0.881963
O O10 0.005773 0.348805 0.010050
O O11 0.115116 0.715769 0.668652
O O12 0.641418 0.721741 0.886282
O O13 0.355073 0.763846 0.902482
#
# Coordination Sequence:
#
# PCOD9290069 Si02
#       6
#     8   8   8   4   8   8
#     4  11  22  42  63  92 129 166 219 271 324 392
#     4  11  24  45  68 100 138 175 229 286 338 411
#     4  10  22  41  62  91 129 164 215 264 327 400
#     4  10  24  44  68 100 134 182 224 278 350 400
#     4  10  23  39  63  90 125 168 213 268 326 390
#     4  10  22  41  60  92 127 165 216 263 327 396
#
# _framework density 21.24616
#
# number of rings (size 3 to 8) (size 9 to 14) (size 15 to 20)
#    0.545    1.091    3.636    0.000    2.545    5.091 
#    0.000    0.000    0.000    0.000    0.000    0.000 
#    0.000    0.000    0.000    0.000    0.000    0.000 
#
# Total GULP energy -122646.353300 kJ/mol
# GULP energy per Si atom -5574.834241 kJ/mol
# Density = 2.119780 g / cm^3
# Si number density = 21.246160 Si / 1000 Ang^3
#
#
#
# Elastic Constant Matrix: (Units=GPa)
#
#
# Indices 1 2 3 4 5 6 
#
# 1 75.2753 47.1076 33.6384 0.0000 -29.0102 0.0000
# 2 47.1076 135.5709 20.3281 0.0000 -36.2819 0.0000
# 3 33.6384 20.3281 102.2291 0.0000 -38.5194 0.0000
# 4 0.0000 0.0000 0.0000 14.4466 0.0000 -30.2098
# 5 -29.0102 -36.2819 -38.5194 0.0000 42.6361 0.0000
# 6 0.0000 0.0000 0.0000 -30.2098 0.0000 20.1443
#
#
#
# Elastic Compliance Matrix: (Units=1/GPa)
#
#
# Indices 1 2 3 4 5 6 
#
# 1 0.020330 -0.004724 -0.003112 0.000000 0.007001 0.000000
# 2 -0.004724 0.010863 0.002526 0.000000 0.008313 0.000000
# 3 -0.003112 0.002526 0.015640 0.000000 0.014162 0.000000
# 4 0.000000 0.000000 0.000000 -0.032406 0.000000 -0.048599
# 5 0.007001 0.008313 0.014162 0.000000 0.048087 0.000000
# 6 0.000000 0.000000 0.000000 -0.048599 0.000000 -0.023240
#
#
# Mechanical properties :
#
#
# Convention : Reuss Voigt Hill
#
# Bulk Modulus (GPa) = 27.61369 57.24707 42.43038
# Shear Modulus (GPa) = 80.69309 29.57880 55.13594
#
# Velocity S-wave (km/s) = 6.16948 3.73526 5.09974
# Velocity P-wave (km/s) = 7.98594 6.75323 7.39531
#
# Compressibility (1/GPa) = 0.03621392
#
# Stress axis : x y z
#
# Youngs Moduli (GPa) = 49.18944 92.05162 63.93942
#
# Poissons Ratio (x) = 0.43483 0.19899
# Poissons Ratio (y) = 0.23236 -0.16153
# Poissons Ratio (z) = 0.15308 -0.23256
#
# Static dielectric constant tensor:
#      x y z
#    x 1.745550 0.000000 0.035710 
#    y 0.000000 1.793220 0.000000 
#    z 0.035710 0.000000 1.818010 
# 
# From -- ./inp_files/138823.got.cif
#   From: 2010.05.17/outbox.cif.g08.bks.cpg/sg15_70_cif.got.tgz:138823.got - 2010.06.03 18:47:42.
