data_PCOD9290030
_publ_section_title
;
Structure prediction by ZEFSAII (Michael W. Deem and Ramdas Pophale) SiO2 
 PCOD9290030
Probable space group: C 2/C
;
_chemical_formula_sum "Si O2"
_cell_formula_units_Z 32
_cell_length_a 5.549480
_cell_length_b 17.803864
_cell_length_c 14.110746
_cell_angle_alpha 90.000000
_cell_angle_beta 109.470360
_cell_angle_gamma 90.000000
_cell_volume 1314.445483
_symmetry_space_group_name_H-M "C 2/C"
_symmetry_group_IT_number 15
_symmetry_cell_setting 'monoclinic'
loop_
_space_group_symop_operation_xyz
x,y,z
-x,y,1/2-z
-x,-y,-z
x,-y,1/2+z
1/2+x,1/2+y,z
1/2-x,1/2+y,1/2-z
1/2-x,1/2-y,-z
1/2+x,1/2-y,1/2+z
loop_
_atom_site_type_symbol
_atom_site_label
_atom_site_fract_x
_atom_site_fract_y
_atom_site_fract_z
Si Si1 0.506175 0.296351 0.005341
Si Si2 0.107218 0.451710 0.159790
Si Si3 0.725548 0.296849 0.231462
Si Si4 0.650693 0.556250 0.452787
O O1 0.613305 0.325994 0.118786
O O2 0.250000 0.250000 0.000000
O O3 0.488965 0.366753 0.932442
O O4 0.750000 0.250000 0.000000
O O5 0.222966 0.370150 0.198615
O O6 0.286637 0.515522 0.137705
O O7 0.000000 0.475572 0.250000
O O8 0.912721 0.433882 0.047359
O O9 0.500000 0.249655 0.250000
O O10 0.000000 0.259905 0.250000
O O11 0.500000 0.500000 0.500000
#
# Coordination Sequence:
#
# PCOD9290030 Si02
#       4
#     8   8   8   8
#     4  12  27  46  74 112 159 200 257 325 401 476
#     4  10  22  40  75 111 147 201 270 325 388 473
#     4  11  21  42  74 105 136 204 256 299 387 477
#     4  11  24  43  77 114 148 201 274 327 386 480
#
# _framework density 24.344867000000001
#
# number of rings (size 3 to 8) (size 9 to 14) (size 15 to 20)
#    0.000    1.000    5.000    3.000    7.000    0.000 
#    0.000    1.250   11.000    0.000    0.000    0.000 
#    0.000    0.000    0.000    0.000    0.000    0.000 
#
# Total GULP energy -89288.578472 kJ/mol
# GULP energy per Si atom -5580.536154 kJ/mol
# Density = 2.428946 g / cm^3
# Si number density = 24.344867 Si / 1000 Ang^3
#
#
#
# Elastic Constant Matrix: (Units=GPa)
#
#
# Indices 1 2 3 4 5 6 
#
# 1 209.8799 66.8103 25.9124 0.0000 -30.8326 0.0000
# 2 66.8103 102.9197 7.4889 0.0000 -12.6426 0.0000
# 3 25.9124 7.4889 107.0644 0.0000 -8.4237 0.0000
# 4 0.0000 0.0000 0.0000 38.4292 0.0000 -6.7467
# 5 -30.8326 -12.6426 -8.4237 0.0000 56.3333 0.0000
# 6 0.0000 0.0000 0.0000 -6.7467 0.0000 46.6902
#
#
#
# Elastic Compliance Matrix: (Units=1/GPa)
#
#
# Indices 1 2 3 4 5 6 
#
# 1 0.006489 -0.003821 -0.001104 0.000000 0.002529 0.000000
# 2 -0.003821 0.012272 0.000120 0.000000 0.000681 0.000000
# 3 -0.001104 0.000120 0.009667 0.000000 0.000868 0.000000
# 4 0.000000 0.000000 0.000000 0.026699 0.000000 0.003858
# 5 0.002529 0.000681 0.000868 0.000000 0.019418 0.000000
# 6 0.000000 0.000000 0.000000 0.003858 0.000000 0.021975
#
#
# Mechanical properties :
#
#
# Convention : Reuss Voigt Hill
#
# Bulk Modulus (GPa) = 53.14343 68.92080 61.03211
# Shear Modulus (GPa) = 44.48250 49.60072 47.04161
#
# Velocity S-wave (km/s) = 4.27919 4.51868 4.40056
# Velocity P-wave (km/s) = 6.80383 7.45629 7.13752
#
# Compressibility (1/GPa) = 0.01881700
#
# Stress axis : x y z
#
# Youngs Moduli (GPa) = 154.11016 81.48803 103.44112
#
# Poissons Ratio (x) = 0.31139 0.11422
# Poissons Ratio (y) = 0.58889 -0.01241
# Poissons Ratio (z) = 0.17017 -0.00978
#
# Static dielectric constant tensor:
#      x y z
#    x 2.158890 0.000000 0.069980 
#    y 0.000000 1.926420 0.000000 
#    z 0.069980 0.000000 2.021630 
# 
# From -- ./inp_files/128394.got.cif
#   From: 2010.05.17/outbox.cif.g08.bks.cpg/sg15_65_cif.got.tgz:128394.got - 2010.06.03 18:47:42.
