data_PCOD9290400
_publ_section_title
;
Structure prediction by ZEFSAII (Michael W. Deem and Ramdas Pophale) SiO2 
 PCOD9290400
Probable space group: C 2/C
;
_chemical_formula_sum "Si O2"
_cell_formula_units_Z 40
_cell_length_a 25.277987
_cell_length_b 5.404238
_cell_length_c 14.986415
_cell_angle_alpha 90.000000
_cell_angle_beta 56.509705
_cell_angle_gamma 90.000000
_cell_volume 1707.379170
_symmetry_space_group_name_H-M "C 2/C"
_symmetry_group_IT_number 15
_symmetry_cell_setting 'monoclinic'
loop_
_space_group_symop_operation_xyz
x,y,z
-x,y,1/2-z
-x,-y,-z
x,-y,1/2+z
1/2+x,1/2+y,z
1/2-x,1/2+y,1/2-z
1/2-x,1/2-y,-z
1/2+x,1/2-y,1/2+z
loop_
_atom_site_type_symbol
_atom_site_label
_atom_site_fract_x
_atom_site_fract_y
_atom_site_fract_z
Si Si1 0.057542 0.696354 0.942803
Si Si2 0.996646 0.071506 0.653155
Si Si3 0.375835 0.880926 0.750567
Si Si4 0.743014 0.613318 0.706265
Si Si5 0.211891 0.503154 0.514641
O O1 0.116491 0.556182 0.842927
O O2 0.035395 0.890640 0.888668
O O3 0.000000 0.500000 0.000000
O O4 0.057743 0.824186 0.040899
O O5 0.945259 0.288516 0.711086
O O6 0.000000 0.963881 0.750000
O O7 0.327240 0.660704 0.769982
O O8 0.347288 0.008051 0.864516
O O9 0.738412 0.390268 0.780699
O O10 0.792659 0.513497 0.586910
O O11 0.250000 0.250000 0.500000
O O12 0.250000 0.750000 0.500000
#
# Coordination Sequence:
#
# PCOD9290400 Si02
#       5
#     8   8   8   8   8
#     4   9  21  42  65  94 132 169 222 282 338 408
#     4  10  22  42  67  97 131 169 227 281 341 407
#     4  10  23  41  69  88 135 180 216 280 345 406
#     4  11  24  42  66 101 139 175 227 281 333 403
#     4  10  22  41  65  95 134 176 223 276 331 405
#
# _framework density 23.427720999999998
#
# number of rings (size 3 to 8) (size 9 to 14) (size 15 to 20)
#    0.000    2.000    0.000    2.400    8.400    4.800 
#    7.200    0.000    0.000    0.000    0.000    0.000 
#    0.000    0.000    0.000    0.000    0.000    0.000 
#
# Total GULP energy -111578.505193 kJ/mol
# GULP energy per Si atom -5578.925260 kJ/mol
# Density = 2.337440 g / cm^3
# Si number density = 23.427721 Si / 1000 Ang^3
#
#
#
# Elastic Constant Matrix: (Units=GPa)
#
#
# Indices 1 2 3 4 5 6 
#
# 1 29.3648 0.2656 31.0934 -0.0006 8.3289 0.0017
# 2 0.2656 95.1423 47.8544 -0.0021 -5.0661 0.0116
# 3 31.0934 47.8544 223.0570 -0.0014 5.0411 0.0021
# 4 -0.0006 -0.0021 -0.0014 25.0720 -0.0010 8.5983
# 5 8.3289 -5.0661 5.0411 -0.0010 35.6169 0.0003
# 6 0.0017 0.0116 0.0021 8.5983 0.0003 26.0336
#
#
#
# Elastic Compliance Matrix: (Units=1/GPa)
#
#
# Indices 1 2 3 4 5 6 
#
# 1 0.043320 0.002628 -0.006403 0.000002 -0.008850 -0.000004
# 2 0.002628 0.012091 -0.002995 0.000003 0.001529 -0.000006
# 3 -0.006403 -0.002995 0.006013 -0.000001 0.000220 0.000001
# 4 0.000002 0.000003 -0.000001 0.044980 0.000001 -0.014856
# 5 -0.008850 0.001529 0.000220 0.000001 0.030332 -0.000001
# 6 -0.000004 -0.000006 0.000001 -0.014856 -0.000001 0.043319
#
#
# Mechanical properties :
#
#
# Convention : Reuss Voigt Hill
#
# Bulk Modulus (GPa) = 20.88294 56.22119 38.55206
# Shear Modulus (GPa) = 23.85997 35.23455 29.54726
#
# Velocity S-wave (km/s) = 3.19478 3.88231 3.55520
# Velocity P-wave (km/s) = 4.74784 6.64427 5.77444
#
# Compressibility (1/GPa) = 0.04788597
#
# Stress axis : x y z
#
# Youngs Moduli (GPa) = 23.08386 82.70596 166.30090
#
# Poissons Ratio (x) = -0.21736 1.06474
# Poissons Ratio (y) = -0.06067 0.49806
# Poissons Ratio (z) = 0.14779 0.24770
#
# Static dielectric constant tensor:
#      x y z
#    x 1.958830 -0.000010 0.033720 
#    y -0.000010 1.908830 0.000000 
#    z 0.033720 0.000000 2.028460 
# 
# From -- ./inp_files/175549.got.cif
#   From: 2010.05.17/outbox.cif.g08.bks.cpg/sg15_88_cif.got.tgz:175549.got - 2010.06.03 18:47:42.
