data_PCOD9290158
_publ_section_title
;
Structure prediction by ZEFSAII (Michael W. Deem and Ramdas Pophale) SiO2 
 PCOD9290158
Probable space group: C 2/C
;
_chemical_formula_sum "Si O2"
_cell_formula_units_Z 48
_cell_length_a 18.913229
_cell_length_b 13.936059
_cell_length_c 12.585380
_cell_angle_alpha 90.000000
_cell_angle_beta 38.084054
_cell_angle_gamma 90.000000
_cell_volume 2046.106391
_symmetry_space_group_name_H-M "C 2/C"
_symmetry_group_IT_number 15
_symmetry_cell_setting 'monoclinic'
loop_
_space_group_symop_operation_xyz
x,y,z
-x,y,1/2-z
-x,-y,-z
x,-y,1/2+z
1/2+x,1/2+y,z
1/2-x,1/2+y,1/2-z
1/2-x,1/2-y,-z
1/2+x,1/2-y,1/2+z
loop_
_atom_site_type_symbol
_atom_site_label
_atom_site_fract_x
_atom_site_fract_y
_atom_site_fract_z
Si Si1 0.597576 0.489920 0.078584
Si Si2 0.647133 0.939375 0.769406
Si Si3 0.020758 0.271211 0.451909
Si Si4 0.818093 0.386101 0.119964
Si Si5 0.500000 0.069308 0.250000
Si Si6 0.000000 0.816593 0.750000
Si Si7 0.060858 0.071516 0.876412
O O1 0.600904 0.605271 0.104385
O O2 0.554193 0.457835 0.255854
O O3 0.720209 0.435860 0.924630
O O4 0.569967 0.503548 0.976918
O O5 0.578059 0.844579 0.889470
O O6 0.572681 0.981145 0.757857
O O7 0.650851 0.011450 0.864336
O O8 0.013579 0.247641 0.336701
O O9 0.008940 0.169498 0.522934
O O10 0.145322 0.312200 0.333406
O O11 0.691373 0.388777 0.229566
O O12 0.904655 0.367891 0.921301
#
# Coordination Sequence:
#
# PCOD9290158 Si02
#       7
#     8   8   8   8   4   4   8
#     4  10  22  45  75 103 140 195 251 296 372 428
#     4  11  23  45  70 104 149 193 240 308 373 444
#     4  11  25  42  72 110 145 189 252 306 380 433
#     4  11  25  44  70 104 149 197 246 302 377 449
#     4  10  22  41  63 100 140 186 240 291 365 436
#     4  10  22  47  73 114 140 194 258 303 367 444
#     4  12  22  45  72  99 146 196 242 305 368 440
#
# _framework density 23.459191000000001
#
# number of rings (size 3 to 8) (size 9 to 14) (size 15 to 20)
#    0.500    0.667    3.333    3.000    2.333    2.667 
#    6.000    9.167    0.000    0.000    0.000    0.000 
#    0.000    0.000    0.000    0.000    0.000    0.000 
#
# Total GULP energy -133696.381676 kJ/mol
# GULP energy per Si atom -5570.682570 kJ/mol
# Density = 2.340580 g / cm^3
# Si number density = 23.459191 Si / 1000 Ang^3
#
#
#
# Elastic Constant Matrix: (Units=GPa)
#
#
# Indices 1 2 3 4 5 6 
#
# 1 176.0697 50.8186 85.4214 0.0000 -13.1779 0.0000
# 2 50.8186 115.8972 46.8100 0.0000 -2.8885 0.0000
# 3 85.4214 46.8100 151.5480 0.0000 -0.6974 0.0000
# 4 0.0000 0.0000 0.0000 -15.0328 0.0000 8.4750
# 5 -13.1779 -2.8885 -0.6974 0.0000 37.6386 0.0000
# 6 0.0000 0.0000 0.0000 8.4750 0.0000 24.0478
#
#
#
# Elastic Compliance Matrix: (Units=1/GPa)
#
#
# Indices 1 2 3 4 5 6 
#
# 1 0.008467 -0.001967 -0.004152 0.000000 0.002736 0.000000
# 2 -0.001967 0.010334 -0.002083 0.000000 0.000066 0.000000
# 3 -0.004152 -0.002083 0.009576 0.000000 -0.001436 0.000000
# 4 0.000000 0.000000 0.000000 -0.055495 0.000000 0.019558
# 5 0.002736 0.000066 -0.001436 0.000000 0.027505 0.000000
# 6 0.000000 0.000000 0.000000 0.019558 0.000000 0.034691
#
#
# Mechanical properties :
#
#
# Convention : Reuss Voigt Hill
#
# Bulk Modulus (GPa) = 83.52869 89.95723 86.74296
# Shear Modulus (GPa) = 90.13609 26.69504 58.41556
#
# Velocity S-wave (km/s) = 6.20531 3.37699 4.99550
# Velocity P-wave (km/s) = 9.32869 7.32359 8.38628
#
# Compressibility (1/GPa) = 0.01197193
#
# Stress axis : x y z
#
# Youngs Moduli (GPa) = 118.11189 96.77011 104.43221
#
# Poissons Ratio (x) = 0.19037 0.43360
# Poissons Ratio (y) = 0.23236 0.21750
# Poissons Ratio (z) = 0.49040 0.20155
#
# Static dielectric constant tensor:
#      x y z
#    x 2.037150 0.000000 0.060550 
#    y 0.000000 1.831850 0.000000 
#    z 0.060550 0.000000 1.992160 
# 
# From -- ./inp_files/112948.got.cif
#   From: 2010.05.17/outbox.cif.g08.bks.cpg/sg15_57_cif.got.tgz:112948.got - 2010.06.03 18:47:42.
