data_PCOD9290328
_publ_section_title
;
Structure prediction by ZEFSAII (Michael W. Deem and Ramdas Pophale) SiO2 
 PCOD9290328
Probable space group: C 2/C
;
_chemical_formula_sum "Si O2"
_cell_formula_units_Z 40
_cell_length_a 12.660061
_cell_length_b 11.711899
_cell_length_c 18.454099
_cell_angle_alpha 90.000000
_cell_angle_beta 35.986414
_cell_angle_gamma 90.000000
_cell_volume 1607.803141
_symmetry_space_group_name_H-M "C 2/C"
_symmetry_group_IT_number 15
_symmetry_cell_setting 'monoclinic'
loop_
_space_group_symop_operation_xyz
x,y,z
-x,y,1/2-z
-x,-y,-z
x,-y,1/2+z
1/2+x,1/2+y,z
1/2-x,1/2+y,1/2-z
1/2-x,1/2-y,-z
1/2+x,1/2-y,1/2+z
loop_
_atom_site_type_symbol
_atom_site_label
_atom_site_fract_x
_atom_site_fract_y
_atom_site_fract_z
Si Si1 0.125190 0.312961 0.277294
Si Si2 0.304941 0.487097 0.073687
Si Si3 0.107143 0.705177 0.255611
Si Si4 0.478792 0.440492 0.680315
Si Si5 0.056624 0.525667 0.387823
O O1 0.225025 0.369717 0.152544
O O2 0.255332 0.281583 0.273881
O O3 0.020992 0.197327 0.320642
O O4 0.002655 0.416736 0.371034
O O5 0.195717 0.597318 0.162794
O O6 0.500000 0.500000 0.000000
O O7 0.363221 0.485976 0.957859
O O8 0.996709 0.641876 0.381697
O O9 0.000000 0.764968 0.250000
O O10 0.500000 0.479255 0.750000
O O11 0.275925 0.468088 0.766017
O O12 0.000000 0.500000 0.500000
#
# Coordination Sequence:
#
# PCOD9290328 Si02
#       5
#     8   8   8   8   8
#     4  10  22  41  65  89 127 165 211 253 317 368
#     4  11  21  46  65  85 136 167 202 263 317 373
#     4  10  23  40  65  96 122 166 209 258 317 368
#     4  11  25  41  65  97 121 169 213 256 315 370
#     4  10  23  42  63  89 130 165 206 258 314 370
#
# _framework density 24.878665000000002
#
# number of rings (size 3 to 8) (size 9 to 14) (size 15 to 20)
#    0.000    1.600    6.000    0.000    8.400    4.800 
#    0.000    2.000    0.000    0.000    0.000    0.000 
#    0.000    0.000    0.000    0.000    0.000    0.000 
#
# Total GULP energy -111736.298751 kJ/mol
# GULP energy per Si atom -5586.814938 kJ/mol
# Density = 2.482204 g / cm^3
# Si number density = 24.878665 Si / 1000 Ang^3
#
#
#
# Elastic Constant Matrix: (Units=GPa)
#
#
# Indices 1 2 3 4 5 6 
#
# 1 123.8852 -12.4029 25.1246 -0.0001 22.7394 0.0000
# 2 -12.4029 91.8897 2.4962 -0.0001 0.7047 0.0000
# 3 25.1246 2.4962 150.3034 -0.0004 35.8657 0.0002
# 4 -0.0001 -0.0001 -0.0004 15.9022 0.0002 3.6736
# 5 22.7394 0.7047 35.8657 0.0002 50.5974 -0.0001
# 6 0.0000 0.0000 0.0002 3.6736 -0.0001 16.1727
#
#
#
# Elastic Compliance Matrix: (Units=1/GPa)
#
#
# Indices 1 2 3 4 5 6 
#
# 1 0.008992 0.001259 -0.000669 0.000000 -0.003585 0.000000
# 2 0.001259 0.011064 -0.000268 0.000000 -0.000530 0.000000
# 3 -0.000669 -0.000268 0.008060 0.000000 -0.005409 0.000000
# 4 0.000000 0.000000 0.000000 0.066367 0.000000 -0.015075
# 5 -0.003585 -0.000530 -0.005409 0.000000 0.025217 0.000000
# 6 0.000000 0.000000 0.000000 -0.015075 0.000000 0.065257
#
#
# Mechanical properties :
#
#
# Convention : Reuss Voigt Hill
#
# Bulk Modulus (GPa) = 34.76839 44.05712 39.41275
# Shear Modulus (GPa) = 25.78682 39.92515 32.85598
#
# Velocity S-wave (km/s) = 3.22297 4.01033 3.63802
# Velocity P-wave (km/s) = 5.27784 6.26027 5.78993
#
# Compressibility (1/GPa) = 0.02876176
#
# Stress axis : x y z
#
# Youngs Moduli (GPa) = 111.21467 90.38378 124.06675
#
# Poissons Ratio (x) = -0.11382 0.08295
# Poissons Ratio (y) = -0.14005 0.03321
# Poissons Ratio (z) = 0.07436 0.02420
#
# Static dielectric constant tensor:
#      x y z
#    x 2.141390 0.000000 0.036140 
#    y 0.000000 1.983350 0.000000 
#    z 0.036140 0.000000 1.970560 
# 
# From -- ./inp_files/122757.got.cif
#   From: 2010.05.17/outbox.cif.g08.bks.cpg/sg15_62_cif.got.tgz:122757.got - 2010.06.03 18:47:42.
