data_PCOD9290176
_publ_section_title
;
Structure prediction by ZEFSAII (Michael W. Deem and Ramdas Pophale) SiO2 
 PCOD9290176
Probable space group: C 2/C
;
_chemical_formula_sum "Si O2"
_cell_formula_units_Z 60
_cell_length_a 22.293153
_cell_length_b 9.911314
_cell_length_c 26.459808
_cell_angle_alpha 90.000000
_cell_angle_beta 155.699876
_cell_angle_gamma 90.000000
_cell_volume 2405.894034
_symmetry_space_group_name_H-M "C 2/C"
_symmetry_group_IT_number 15
_symmetry_cell_setting 'monoclinic'
loop_
_space_group_symop_operation_xyz
x,y,z
-x,y,1/2-z
-x,-y,-z
x,-y,1/2+z
1/2+x,1/2+y,z
1/2-x,1/2+y,1/2-z
1/2-x,1/2-y,-z
1/2+x,1/2-y,1/2+z
loop_
_atom_site_type_symbol
_atom_site_label
_atom_site_fract_x
_atom_site_fract_y
_atom_site_fract_z
Si Si1 0.138046 0.060542 0.424935
Si Si2 0.314030 0.895920 0.347694
Si Si3 0.358839 0.605112 0.953781
Si Si4 0.693319 0.596156 0.170916
Si Si5 0.968834 0.519020 0.641527
Si Si6 0.000000 0.292551 0.250000
Si Si7 0.384126 0.106711 0.468138
Si Si8 0.426278 0.737718 0.639710
O O1 0.128536 0.089964 0.476786
O O2 0.304792 0.033655 0.537794
O O3 0.090704 0.186270 0.353737
O O4 0.048415 0.921400 0.349146
O O5 0.248887 0.748677 0.289128
O O6 0.486907 0.876416 0.473263
O O7 0.264728 0.002536 0.268021
O O8 0.294716 0.972556 0.385953
O O9 0.524647 0.605095 0.058896
O O10 0.296023 0.755341 0.896178
O O11 0.289592 0.483517 0.868769
O O12 0.960496 0.589046 0.580802
O O13 0.988996 0.357903 0.652958
O O14 0.059568 0.602243 0.753131
O O15 0.500000 0.770946 0.750000
O O16 0.250000 0.750000 0.500000
#
# Coordination Sequence:
#
# PCOD9290176 Si02
#       8
#     8   8   8   8   8   4   8   8
#     4  11  24  42  63  94 132 174 216 270 331 399
#     4  10  22  42  64  91 120 163 213 265 329 384
#     4  10  22  41  63  90 126 161 209 269 316 388
#     4  10  22  42  64  91 120 163 213 265 329 384
#     4  11  24  42  63  94 132 174 216 270 331 399
#     4  12  22  38  64  92 128 168 226 256 336 394
#     4  10  22  41  63  90 126 161 209 269 316 388
#     4  10  22  44  64  89 134 177 220 270 323 396
#
# _framework density 24.938753999999999
#
# number of rings (size 3 to 8) (size 9 to 14) (size 15 to 20)
#    0.000    1.600    2.667    1.200    1.867    3.200 
#    0.000    0.000    0.000    0.000    0.000    0.000 
#    0.000    0.000    0.000    0.000    0.000    0.000 
#
# Total GULP energy -167637.972982 kJ/mol
# GULP energy per Si atom -5587.932433 kJ/mol
# Density = 2.488199 g / cm^3
# Si number density = 24.938754 Si / 1000 Ang^3
#
#
#
# Elastic Constant Matrix: (Units=GPa)
#
#
# Indices 1 2 3 4 5 6 
#
# 1 88.5069 28.0337 20.4372 0.0000 -15.7561 0.0001
# 2 28.0337 212.4609 45.9261 0.0002 -17.9204 -0.0003
# 3 20.4372 45.9261 87.7606 -0.0060 -20.9659 -0.0021
# 4 0.0000 0.0002 -0.0060 34.5936 -0.0019 -26.1769
# 5 -15.7561 -17.9204 -20.9659 -0.0019 38.5919 -0.0008
# 6 0.0001 -0.0003 -0.0021 -26.1769 -0.0008 17.7190
#
#
#
# Elastic Compliance Matrix: (Units=1/GPa)
#
#
# Indices 1 2 3 4 5 6 
#
# 1 0.012657 -0.001021 -0.001484 0.000001 0.003887 0.000001
# 2 -0.001021 0.005430 -0.002414 0.000005 0.000793 0.000007
# 3 -0.001484 -0.002414 0.014469 -0.000037 0.006133 -0.000052
# 4 0.000001 0.000005 -0.000037 -0.245198 -0.000037 -0.362239
# 5 0.003887 0.000793 0.006133 -0.000037 0.031199 -0.000052
# 6 0.000001 0.000007 -0.000052 -0.362239 -0.000052 -0.478711
#
#
# Mechanical properties :
#
#
# Convention : Reuss Voigt Hill
#
# Bulk Modulus (GPa) = 44.02246 64.16918 54.09582
# Shear Modulus (GPa) = -7.77918 37.80298 15.01190
#
# Velocity S-wave (km/s) = -1.76807 3.89759 2.45613
# Velocity P-wave (km/s) = 3.67729 6.78539 5.45729
#
# Compressibility (1/GPa) = 0.02271568
#
# Stress axis : x y z
#
# Youngs Moduli (GPa) = 79.00929 184.15160 69.11281
#
# Poissons Ratio (x) = 0.18808 0.10259
# Poissons Ratio (y) = 0.08069 0.16687
# Poissons Ratio (z) = 0.11728 0.44463
#
# Static dielectric constant tensor:
#      x y z
#    x 1.967580 0.000000 0.073760 
#    y 0.000000 2.040830 0.000000 
#    z 0.073760 0.000000 2.003220 
# 
# From -- ./inp_files/302078.got.cif
#   From: 2010.05.17/outbox.cif.g08.bks.cpg/sg15_152_cif.got.tgz:302078.got - 2010.06.03 18:47:42.
