data_PCOD9290562
_publ_section_title
;
Structure prediction by ZEFSAII (Michael W. Deem and Ramdas Pophale) SiO2 
 PCOD9290562
Probable space group: C 2/C
;
_chemical_formula_sum "Si O2"
_cell_formula_units_Z 48
_cell_length_a 5.743772
_cell_length_b 14.044153
_cell_length_c 27.754924
_cell_angle_alpha 90.000000
_cell_angle_beta 62.478843
_cell_angle_gamma 90.000000
_cell_volume 1985.537945
_symmetry_space_group_name_H-M "C 2/C"
_symmetry_group_IT_number 15
_symmetry_cell_setting 'monoclinic'
loop_
_space_group_symop_operation_xyz
x,y,z
-x,y,1/2-z
-x,-y,-z
x,-y,1/2+z
1/2+x,1/2+y,z
1/2-x,1/2+y,1/2-z
1/2-x,1/2-y,-z
1/2+x,1/2-y,1/2+z
loop_
_atom_site_type_symbol
_atom_site_label
_atom_site_fract_x
_atom_site_fract_y
_atom_site_fract_z
Si Si1 0.284077 0.700770 0.361448
Si Si2 0.807506 0.669100 0.721689
Si Si3 0.109498 0.556137 0.942717
Si Si4 0.044675 0.930277 0.907973
Si Si5 0.218466 0.239848 0.446817
Si Si6 0.410556 0.025567 0.164019
O O1 0.525158 0.770831 0.332627
O O2 0.331558 0.639201 0.404590
O O3 0.269474 0.618674 0.322164
O O4 0.997993 0.747051 0.392496
O O5 0.500000 0.699278 0.750000
O O6 0.809892 0.558833 0.706172
O O7 0.000000 0.678901 0.750000
O O8 0.418567 0.533808 0.922264
O O9 0.049339 0.668104 0.948038
O O10 0.051016 0.515598 0.894723
O O11 0.000000 0.500000 0.000000
O O12 0.122987 0.867767 0.946207
O O13 0.299124 0.939554 0.850066
O O14 0.250000 0.250000 0.500000
#
# Coordination Sequence:
#
# PCOD9290562 Si02
#       6
#     8   8   8   8   8   8
#     4  10  24  45  71 100 141 188 234 311 370 442
#     4  12  30  49  76 110 144 197 256 312 388 449
#     4  11  23  39  67 102 140 187 238 291 368 446
#     4  10  22  41  67  92 138 181 230 292 370 426
#     4  11  23  39  67 102 140 187 238 291 368 446
#     4  10  24  45  71 100 141 188 234 311 370 442
#
# _framework density 24.174806
#
# number of rings (size 3 to 8) (size 9 to 14) (size 15 to 20)
#    0.000    1.333    0.000    5.000   11.667    7.333 
#    0.000    0.000    0.000    0.000    0.000    0.000 
#    0.000    0.000    0.000    0.000    0.000    0.000 
#
# Total GULP energy -133925.371420 kJ/mol
# GULP energy per Si atom -5580.223809 kJ/mol
# Density = 2.411978 g / cm^3
# Si number density = 24.174806 Si / 1000 Ang^3
#
#
#
# Elastic Constant Matrix: (Units=GPa)
#
#
# Indices 1 2 3 4 5 6 
#
# 1 73.3804 1.2777 15.4308 0.0000 -6.9895 0.0000
# 2 1.2777 92.1913 2.2905 0.0000 1.9878 0.0000
# 3 15.4308 2.2905 41.5345 0.0000 0.0327 -0.0001
# 4 0.0000 0.0000 0.0000 38.7593 0.0000 -0.8661
# 5 -6.9895 1.9878 0.0327 0.0000 23.7647 0.0001
# 6 0.0000 0.0000 -0.0001 -0.8661 0.0001 39.9366
#
#
#
# Elastic Compliance Matrix: (Units=1/GPa)
#
#
# Indices 1 2 3 4 5 6 
#
# 1 0.015250 -0.000168 -0.005660 0.000000 0.004507 0.000000
# 2 -0.000168 0.010883 -0.000537 0.000000 -0.000959 0.000000
# 3 -0.005660 -0.000537 0.026210 0.000000 -0.001656 0.000000
# 4 0.000000 0.000000 0.000000 0.025813 0.000000 0.000560
# 5 0.004507 -0.000959 -0.001656 0.000000 0.043487 0.000000
# 6 0.000000 0.000000 0.000000 0.000560 0.000000 0.025052
#
#
# Mechanical properties :
#
#
# Convention : Reuss Voigt Hill
#
# Bulk Modulus (GPa) = 25.24384 27.23382 26.23883
# Shear Modulus (GPa) = 28.96374 33.03261 30.99817
#
# Velocity S-wave (km/s) = 3.46511 3.70050 3.58474
# Velocity P-wave (km/s) = 5.14531 5.43582 5.29256
#
# Compressibility (1/GPa) = 0.03961362
#
# Stress axis : x y z
#
# Youngs Moduli (GPa) = 65.57362 91.88341 38.15331
#
# Poissons Ratio (x) = 0.01543 0.21595
# Poissons Ratio (y) = 0.01101 0.02049
# Poissons Ratio (z) = 0.37114 0.04935
#
# Static dielectric constant tensor:
#      x y z
#    x 2.049690 0.000000 0.008060 
#    y 0.000000 1.998500 0.000000 
#    z 0.008060 0.000000 1.977280 
# 
# From -- ./inp_files/305289.got.cif
#   From: 2010.05.17/outbox.cif.g08.bks.cpg/sg15_153_cif.got.tgz:305289.got - 2010.06.03 18:47:42.
