data_PCOD9290240
_publ_section_title
;
Structure prediction by ZEFSAII (Michael W. Deem and Ramdas Pophale) SiO2 
 PCOD9290240
Probable space group: C 2/C
;
_chemical_formula_sum "Si O2"
_cell_formula_units_Z 44
_cell_length_a 12.057477
_cell_length_b 10.409893
_cell_length_c 16.025277
_cell_angle_alpha 90.000000
_cell_angle_beta 100.881123
_cell_angle_gamma 90.000000
_cell_volume 1975.281563
_symmetry_space_group_name_H-M "C 2/C"
_symmetry_group_IT_number 15
_symmetry_cell_setting 'monoclinic'
loop_
_space_group_symop_operation_xyz
x,y,z
-x,y,1/2-z
-x,-y,-z
x,-y,1/2+z
1/2+x,1/2+y,z
1/2-x,1/2+y,1/2-z
1/2-x,1/2-y,-z
1/2+x,1/2-y,1/2+z
loop_
_atom_site_type_symbol
_atom_site_label
_atom_site_fract_x
_atom_site_fract_y
_atom_site_fract_z
Si Si1 0.415044 0.648388 0.667766
Si Si2 0.207317 0.130482 0.545541
Si Si3 0.997805 0.105949 0.404026
Si Si4 0.273154 0.930214 0.233864
Si Si5 0.500000 0.786524 0.250000
Si Si6 0.735837 0.871122 0.897768
O O1 0.500000 0.704581 0.750000
O O2 0.484280 0.535535 0.632630
O O3 0.310744 0.581317 0.701665
O O4 0.350578 0.755151 0.602567
O O5 0.250000 0.250000 0.500000
O O6 0.219503 0.145892 0.646575
O O7 0.224054 0.504479 0.456421
O O8 0.128719 0.853437 0.587536
O O9 0.917702 0.887035 0.507034
O O10 0.033614 0.199429 0.333450
O O11 0.395167 0.871131 0.264971
O O12 0.286540 0.073066 0.198827
#
# Coordination Sequence:
#
# PCOD9290240 Si02
#       6
#     8   8   8   8   4   8
#     4  12  23  40  67 100 133 169 220 277 326 387
#     4  10  22  41  64  90 128 174 214 268 330 389
#     4  12  21  41  67  90 127 174 214 266 335 389
#     4  10  23  40  64  95 130 169 214 270 324 381
#     4  12  20  38  70  90 126 172 216 256 336 384
#     4  10  23  39  62  96 127 169 218 269 321 393
#
# _framework density 22.275306
#
# number of rings (size 3 to 8) (size 9 to 14) (size 15 to 20)
#    1.091    0.000    6.364    0.545    1.273    0.727 
#    0.000    0.000    0.000    6.545    0.000    0.000 
#    0.000    0.000    0.000    0.000    0.000    0.000 
#
# Total GULP energy -122720.398038 kJ/mol
# GULP energy per Si atom -5578.199911 kJ/mol
# Density = 2.222461 g / cm^3
# Si number density = 22.275306 Si / 1000 Ang^3
#
#
#
# Elastic Constant Matrix: (Units=GPa)
#
#
# Indices 1 2 3 4 5 6 
#
# 1 119.9377 45.0412 20.2612 0.0000 17.9929 0.0000
# 2 45.0412 54.6194 3.1667 0.0000 8.3990 0.0000
# 3 20.2612 3.1667 59.0161 0.0000 3.9156 0.0000
# 4 0.0000 0.0000 0.0000 35.9159 0.0000 9.4923
# 5 17.9929 8.3990 3.9156 0.0000 37.9353 0.0000
# 6 0.0000 0.0000 0.0000 9.4923 0.0000 35.0684
#
#
#
# Elastic Compliance Matrix: (Units=1/GPa)
#
#
# Indices 1 2 3 4 5 6 
#
# 1 0.013381 -0.010247 -0.003799 0.000000 -0.003686 0.000000
# 2 -0.010247 0.026834 0.002165 0.000000 -0.001304 0.000000
# 3 -0.003799 0.002165 0.018169 0.000000 -0.000553 0.000000
# 4 0.000000 0.000000 0.000000 0.029988 0.000000 -0.008117
# 5 -0.003686 -0.001304 -0.000553 0.000000 0.028455 0.000000
# 6 0.000000 0.000000 0.000000 -0.008117 0.000000 0.030713
#
#
# Mechanical properties :
#
#
# Convention : Reuss Voigt Hill
#
# Bulk Modulus (GPa) = 28.88498 41.16796 35.02647
# Shear Modulus (GPa) = 27.34585 32.79084 30.06835
#
# Velocity S-wave (km/s) = 3.50756 3.84092 3.67802
# Velocity P-wave (km/s) = 5.42212 6.17995 5.81340
#
# Compressibility (1/GPa) = 0.03462007
#
# Stress axis : x y z
#
# Youngs Moduli (GPa) = 74.73514 37.26654 55.03750
#
# Poissons Ratio (x) = 0.38187 0.20911
# Poissons Ratio (y) = 0.76582 -0.11914
# Poissons Ratio (z) = 0.28395 -0.08067
#
# Static dielectric constant tensor:
#      x y z
#    x 1.819830 0.000000 0.008950 
#    y 0.000000 1.901180 0.000000 
#    z 0.008950 0.000000 1.862450 
# 
# From -- ./inp_files/195648.got.cif
#   From: 2010.05.17/outbox.cif.g08.bks.cpg/sg15_98_cif.got.tgz:195648.got - 2010.06.03 18:47:42.
