data_PCOD9290251
_publ_section_title
;
Structure prediction by ZEFSAII (Michael W. Deem and Ramdas Pophale) SiO2 
 PCOD9290251
Probable space group: C 2/C
;
_chemical_formula_sum "Si O2"
_cell_formula_units_Z 24
_cell_length_a 8.799858
_cell_length_b 11.471073
_cell_length_c 13.631494
_cell_angle_alpha 90.000000
_cell_angle_beta 43.216367
_cell_angle_gamma 90.000000
_cell_volume 942.233575
_symmetry_space_group_name_H-M "C 2/C"
_symmetry_group_IT_number 15
_symmetry_cell_setting 'monoclinic'
loop_
_space_group_symop_operation_xyz
x,y,z
-x,y,1/2-z
-x,-y,-z
x,-y,1/2+z
1/2+x,1/2+y,z
1/2-x,1/2+y,1/2-z
1/2-x,1/2-y,-z
1/2+x,1/2-y,1/2+z
loop_
_atom_site_type_symbol
_atom_site_label
_atom_site_fract_x
_atom_site_fract_y
_atom_site_fract_z
Si Si1 0.500000 0.008275 0.250000
Si Si2 0.755093 0.898375 0.452539
Si Si3 0.237690 0.183787 0.763386
Si Si4 0.000000 0.883106 0.750000
O O1 0.688705 0.922581 0.201760
O O2 0.411012 0.084239 0.380811
O O3 0.674344 0.845433 0.387447
O O4 0.527416 0.673991 0.618351
O O5 0.845090 0.028536 0.383638
O O6 0.351523 0.299293 0.751763
#
# Coordination Sequence:
#
# PCOD9290251 Si02
#       4
#     4   8   8   4
#     4  11  20  38  66  93 128 165 204 262 326 373
#     4  10  22  41  64  92 127 165 207 264 317 372
#     4   9  20  38  64  91 121 169 213 252 314 377
#     4   9  20  42  66  91 124 163 216 260 308 381
#
# _framework density 25.471388999999999
#
# number of rings (size 3 to 8) (size 9 to 14) (size 15 to 20)
#    0.000    2.667    0.000    2.000    0.000    5.333 
#    0.000   30.000    0.000   32.000    0.000    0.000 
#    0.000    0.000    0.000    0.000    0.000    0.000 
#
# Total GULP energy -67366.788485 kJ/mol
# GULP energy per Si atom -5613.899040 kJ/mol
# Density = 2.541341 g / cm^3
# Si number density = 25.471389 Si / 1000 Ang^3
#
#
#
# Elastic Constant Matrix: (Units=GPa)
#
#
# Indices 1 2 3 4 5 6 
#
# 1 148.8823 83.0607 15.8704 -0.0001 15.4279 0.0007
# 2 83.0607 219.0625 51.2012 -0.0001 10.8872 0.0005
# 3 15.8704 51.2012 126.7027 -0.0003 17.7458 0.0003
# 4 -0.0001 -0.0001 -0.0003 21.9373 0.0002 33.5436
# 5 15.4279 10.8872 17.7458 0.0002 27.3952 -0.0005
# 6 0.0007 0.0005 0.0003 33.5436 -0.0005 138.6949
#
#
#
# Elastic Compliance Matrix: (Units=1/GPa)
#
#
# Indices 1 2 3 4 5 6 
#
# 1 0.008952 -0.003380 0.000838 0.000000 -0.004242 0.000000
# 2 -0.003380 0.006331 -0.002254 0.000000 0.000847 0.000000
# 3 0.000838 -0.002254 0.009501 0.000000 -0.005731 0.000000
# 4 0.000000 0.000000 0.000000 0.072334 -0.000001 -0.017494
# 5 -0.004242 0.000847 -0.005731 -0.000001 0.042267 0.000000
# 6 0.000000 0.000000 0.000000 -0.017494 0.000000 0.011441
#
#
# Mechanical properties :
#
#
# Convention : Reuss Voigt Hill
#
# Bulk Modulus (GPa) = 65.81336 88.32357 77.06846
# Shear Modulus (GPa) = 30.21496 60.57319 45.39408
#
# Velocity S-wave (km/s) = 3.44791 4.88185 4.22614
# Velocity P-wave (km/s) = 6.46104 8.15644 7.35774
#
# Compressibility (1/GPa) = 0.01519448
#
# Stress axis : x y z
#
# Youngs Moduli (GPa) = 111.70293 157.95366 105.25354
#
# Poissons Ratio (x) = 0.53381 -0.08825
# Poissons Ratio (y) = 0.37751 0.23721
# Poissons Ratio (z) = -0.09366 0.35598
#
# Static dielectric constant tensor:
#      x y z
#    x 1.978520 0.000000 -0.026700 
#    y 0.000000 2.019370 0.000000 
#    z -0.026700 0.000000 1.985200 
# 
# From -- ./inp_files/141135.got.cif
#   From: 2010.05.17/outbox.cif.g08.bks.cpg/sg15_71_cif.got.tgz:141135.got - 2010.06.03 18:47:42.
