data_PCOD9290446
_publ_section_title
;
Structure prediction by ZEFSAII (Michael W. Deem and Ramdas Pophale) SiO2 
 PCOD9290446
Probable space group: C 2/C
;
_chemical_formula_sum "Si O2"
_cell_formula_units_Z 32
_cell_length_a 15.589444
_cell_length_b 11.675307
_cell_length_c 8.509036
_cell_angle_alpha 90.000000
_cell_angle_beta 71.376793
_cell_angle_gamma 90.000000
_cell_volume 1467.649284
_symmetry_space_group_name_H-M "C 2/C"
_symmetry_group_IT_number 15
_symmetry_cell_setting 'monoclinic'
loop_
_space_group_symop_operation_xyz
x,y,z
-x,y,1/2-z
-x,-y,-z
x,-y,1/2+z
1/2+x,1/2+y,z
1/2-x,1/2+y,1/2-z
1/2-x,1/2-y,-z
1/2+x,1/2-y,1/2+z
loop_
_atom_site_type_symbol
_atom_site_label
_atom_site_fract_x
_atom_site_fract_y
_atom_site_fract_z
Si Si1 0.500000 0.205017 0.250000
Si Si2 0.000000 0.070740 0.250000
Si Si3 0.399109 0.386145 0.098302
Si Si4 0.100467 0.448355 0.457810
Si Si5 0.793246 0.631037 0.903340
O O1 0.439824 0.281182 0.169351
O O2 0.421572 0.137582 0.387661
O O3 0.934278 0.136778 0.401894
O O4 0.058017 0.993069 0.334256
O O5 0.294637 0.413028 0.139673
O O6 0.168653 0.547723 0.481049
O O7 0.132052 0.380985 0.281658
O O8 0.000000 0.500000 0.500000
O O9 0.750000 0.750000 0.000000
#
# Coordination Sequence:
#
# PCOD9290446 Si02
#       5
#     4   4   8   8   8
#     4  11  24  44  75 102 146 198 241 303 376 454
#     4   9  20  42  67  90 148 186 241 291 372 446
#     4  10  22  41  66 103 135 196 239 305 363 436
#     4  12  25  50  73 104 152 197 246 302 376 444
#     4  12  27  44  74 108 144 188 251 309 364 436
#
# _framework density 21.803573
#
# number of rings (size 3 to 8) (size 9 to 14) (size 15 to 20)
#    0.000    1.000    2.500    3.000    3.500    1.000 
#    4.500    0.000    0.000    0.000    0.000    0.000 
#    0.000    0.000    0.000    0.000    0.000    0.000 
#
# Total GULP energy -89104.663687 kJ/mol
# GULP energy per Si atom -5569.041480 kJ/mol
# Density = 2.175395 g / cm^3
# Si number density = 21.803573 Si / 1000 Ang^3
#
#
#
# Elastic Constant Matrix: (Units=GPa)
#
#
# Indices 1 2 3 4 5 6 
#
# 1 145.9718 37.0993 26.3488 0.0000 -1.8550 0.0000
# 2 37.0993 90.3164 63.8772 0.0000 2.2202 0.0000
# 3 26.3488 63.8772 180.5203 0.0000 -12.3677 0.0000
# 4 0.0000 0.0000 0.0000 146.6784 0.0000 59.6329
# 5 -1.8550 2.2202 -12.3677 0.0000 32.9729 0.0000
# 6 0.0000 0.0000 0.0000 59.6329 0.0000 51.6345
#
#
#
# Elastic Compliance Matrix: (Units=1/GPa)
#
#
# Indices 1 2 3 4 5 6 
#
# 1 0.007663 -0.003209 0.000063 0.000000 0.000671 0.000000
# 2 -0.003209 0.016413 -0.005571 0.000000 -0.003375 0.000000
# 3 0.000063 -0.005571 0.007726 0.000000 0.003277 0.000000
# 4 0.000000 0.000000 0.000000 0.012852 0.000000 -0.014843
# 5 0.000671 -0.003375 0.003277 0.000000 0.031822 0.000000
# 6 0.000000 0.000000 0.000000 -0.014843 0.000000 0.036509
#
#
# Mechanical properties :
#
#
# Convention : Reuss Voigt Hill
#
# Bulk Modulus (GPa) = 69.59304 74.60658 72.09981
# Shear Modulus (GPa) = 36.97983 65.55604 51.26793
#
# Velocity S-wave (km/s) = 4.12277 5.48925 4.85434
# Velocity P-wave (km/s) = 7.39260 8.62947 8.03487
#
# Compressibility (1/GPa) = 0.01436925
#
# Stress axis : x y z
#
# Youngs Moduli (GPa) = 130.49121 60.92674 129.43245
#
# Poissons Ratio (x) = 0.19550 -0.00813
# Poissons Ratio (y) = 0.41872 0.72103
# Poissons Ratio (z) = -0.00820 0.33940
#
# Static dielectric constant tensor:
#      x y z
#    x 1.783920 0.000000 0.070620 
#    y 0.000000 1.918470 0.000000 
#    z 0.070620 0.000000 1.805460 
# 
# From -- ./inp_files/36774.got.cif
#   From: 2010.05.17/outbox.cif.g08.bks.cpg/sg15_19_cif.got.tgz:36774.got - 2010.06.03 18:47:42.
