data_PCOD9290615
_publ_section_title
;
Structure prediction by ZEFSAII (Michael W. Deem and Ramdas Pophale) SiO2 
 PCOD9290615
Probable space group: C 2/C
;
_chemical_formula_sum "Si O2"
_cell_formula_units_Z 40
_cell_length_a 12.062747
_cell_length_b 25.613898
_cell_length_c 4.881052
_cell_angle_alpha 90.000000
_cell_angle_beta 99.976514
_cell_angle_gamma 90.000000
_cell_volume 1485.313542
_symmetry_space_group_name_H-M "C 2/C"
_symmetry_group_IT_number 15
_symmetry_cell_setting 'monoclinic'
loop_
_space_group_symop_operation_xyz
x,y,z
-x,y,1/2-z
-x,-y,-z
x,-y,1/2+z
1/2+x,1/2+y,z
1/2-x,1/2+y,1/2-z
1/2-x,1/2-y,-z
1/2+x,1/2-y,1/2+z
loop_
_atom_site_type_symbol
_atom_site_label
_atom_site_fract_x
_atom_site_fract_y
_atom_site_fract_z
Si Si1 0.719143 0.334093 0.450889
Si Si2 0.750000 0.750000 0.500000
Si Si3 0.907065 0.306202 0.917010
Si Si4 0.150440 0.034255 0.455387
Si Si5 0.879565 0.412304 0.193231
Si Si6 0.500000 0.610439 0.750000
O O1 0.697448 0.296196 0.189926
O O2 0.778485 0.302565 0.729824
O O3 0.813042 0.378762 0.404271
O O4 0.598740 0.359287 0.456421
O O5 0.879781 0.730350 0.654521
O O6 0.000000 0.291170 0.750000
O O7 0.916929 0.365389 0.008158
O O8 0.279871 0.052118 0.537733
O O9 0.073171 0.077778 0.560435
O O10 0.131609 0.016698 0.137616
O O11 0.000000 0.441885 0.250000
#
# Coordination Sequence:
#
# PCOD9290615 Si02
#       6
#     8   4   8   8   8   4
#     4  10  22  44  64  98 132 185 228 284 350 414
#     4  10  24  40  60 106 132 176 238 286 346 416
#     4  11  22  41  71  91 140 183 228 297 350 424
#     4  11  26  46  72 105 142 184 239 301 360 428
#     4  10  22  41  67  99 133 178 231 282 362 421
#     4  10  24  46  70  96 142 188 236 288 358 434
#
# _framework density 26.930342
#
# number of rings (size 3 to 8) (size 9 to 14) (size 15 to 20)
#    0.000    1.600    2.000    1.200    7.000    0.800 
#   10.800    0.000    0.000    0.000    0.000    0.000 
#    0.000    0.000    0.000    0.000    0.000    0.000 
#
# Total GULP energy -111518.547428 kJ/mol
# GULP energy per Si atom -5575.927371 kJ/mol
# Density = 2.686905 g / cm^3
# Si number density = 26.930342 Si / 1000 Ang^3
#
#
#
# Elastic Constant Matrix: (Units=GPa)
#
#
# Indices 1 2 3 4 5 6 
#
# 1 252.5398 42.3044 17.5819 0.0000 4.7394 0.0000
# 2 42.3044 50.6683 13.2000 0.0000 2.0599 0.0000
# 3 17.5819 13.2000 86.5764 0.0000 4.1186 0.0000
# 4 0.0000 0.0000 0.0000 84.3429 0.0000 246.8163
# 5 4.7394 2.0599 4.1186 0.0000 43.1675 0.0000
# 6 0.0000 0.0000 0.0000 246.8163 0.0000 1170.0627
#
#
#
# Elastic Compliance Matrix: (Units=1/GPa)
#
#
# Indices 1 2 3 4 5 6 
#
# 1 0.004618 -0.003752 -0.000352 0.000000 -0.000294 0.000000
# 2 -0.003752 0.023622 -0.002818 0.000000 -0.000446 0.000000
# 3 -0.000352 -0.002818 0.012098 0.000000 -0.000981 0.000000
# 4 0.000000 0.000000 0.000000 0.030980 0.000000 -0.006535
# 5 -0.000294 -0.000446 -0.000981 0.000000 0.023313 0.000000
# 6 0.000000 0.000000 0.000000 -0.006535 0.000000 0.002233
#
#
# Mechanical properties :
#
#
# Convention : Reuss Voigt Hill
#
# Bulk Modulus (GPa) = 37.74522 59.55079 48.64801
# Shear Modulus (GPa) = 41.82692 280.62782 161.22737
#
# Velocity S-wave (km/s) = 3.94528 10.21916 7.74585
# Velocity P-wave (km/s) = 5.89915 12.70443 9.90461
#
# Compressibility (1/GPa) = 0.02649342
#
# Stress axis : x y z
#
# Youngs Moduli (GPa) = 216.52635 42.33422 82.65631
#
# Poissons Ratio (x) = 0.15886 0.02908
# Poissons Ratio (y) = 0.81249 0.23294
# Poissons Ratio (z) = 0.07617 0.11931
#
# Static dielectric constant tensor:
#      x y z
#    x 2.377660 0.000000 -0.080560 
#    y 0.000000 2.273710 0.000000 
#    z -0.080560 0.000000 2.384520 
# 
# From -- ./inp_files/5600.got.cif
#   From: 2010.05.17/outbox.cif.g08.bks.cpg/sg15_3_cif.got.tgz:5600.got - 2010.06.03 18:47:42.
