data_PCOD9290672
_publ_section_title
;
Structure prediction by ZEFSAII (Michael W. Deem and Ramdas Pophale) SiO2 
 PCOD9290672
Probable space group: C 2/C
;
_chemical_formula_sum "Si O2"
_cell_formula_units_Z 56
_cell_length_a 15.591800
_cell_length_b 15.468541
_cell_length_c 11.258637
_cell_angle_alpha 90.000000
_cell_angle_beta 65.395225
_cell_angle_gamma 90.000000
_cell_volume 2468.831939
_symmetry_space_group_name_H-M "C 2/C"
_symmetry_group_IT_number 15
_symmetry_cell_setting 'monoclinic'
loop_
_space_group_symop_operation_xyz
x,y,z
-x,y,1/2-z
-x,-y,-z
x,-y,1/2+z
1/2+x,1/2+y,z
1/2-x,1/2+y,1/2-z
1/2-x,1/2-y,-z
1/2+x,1/2-y,1/2+z
loop_
_atom_site_type_symbol
_atom_site_label
_atom_site_fract_x
_atom_site_fract_y
_atom_site_fract_z
Si Si1 0.848460 0.771460 0.663778
Si Si2 0.969787 0.798351 0.071855
Si Si3 0.142714 0.638464 0.277220
Si Si4 0.796694 0.344329 0.009774
Si Si5 0.740563 0.520265 0.141096
Si Si6 0.950348 0.980713 0.155647
Si Si7 0.163359 0.186778 0.075083
O O1 0.743519 0.810910 0.733244
O O2 0.840188 0.676348 0.613836
O O3 0.884985 0.782211 0.775113
O O4 0.921738 0.810732 0.527597
O O5 0.939042 0.704186 0.135906
O O6 0.942981 0.876912 0.171821
O O7 0.908814 0.811680 0.989395
O O8 0.137675 0.628134 0.138152
O O9 0.164958 0.554220 0.345451
O O10 0.750000 0.250000 0.000000
O O11 0.738285 0.429829 0.073001
O O12 0.655312 0.517422 0.285111
O O13 0.709251 0.593416 0.066759
O O14 0.000000 0.012982 0.250000
O O15 0.000000 0.000000 0.000000
O O16 0.250000 0.250000 0.000000
#
# Coordination Sequence:
#
# PCOD9290672 Si02
#       7
#     8   8   8   8   8   8   8
#     4  10  22  41  68  95 135 180 222 283 342 411
#     4  12  24  42  72  98 138 180 233 281 354 420
#     4  10  23  42  64 104 133 181 229 280 342 416
#     4  10  23  42  68  95 136 180 231 279 344 413
#     4  11  24  41  68  97 137 181 229 284 348 418
#     4  12  27  41  66 106 144 180 232 295 369 427
#     4  11  22  43  67  99 138 180 227 279 351 414
#
# _framework density 22.682791000000002
#
# number of rings (size 3 to 8) (size 9 to 14) (size 15 to 20)
#    0.000    1.143    2.857    4.714   10.000    0.000 
#    0.000    0.714    0.000    0.000    0.000    0.000 
#    0.000    0.000    0.000    0.000    0.000    0.000 
#
# Total GULP energy -156156.826812 kJ/mol
# GULP energy per Si atom -5577.029529 kJ/mol
# Density = 2.263116 g / cm^3
# Si number density = 22.682791 Si / 1000 Ang^3
#
#
#
# Elastic Constant Matrix: (Units=GPa)
#
#
# Indices 1 2 3 4 5 6 
#
# 1 56.4536 22.8584 15.6819 0.0000 12.9298 0.0000
# 2 22.8584 123.4089 50.1520 0.0000 -5.5015 0.0000
# 3 15.6819 50.1520 98.3666 0.0000 10.1499 0.0000
# 4 0.0000 0.0000 0.0000 31.7323 0.0000 6.3549
# 5 12.9298 -5.5015 10.1499 0.0000 44.1525 0.0000
# 6 0.0000 0.0000 0.0000 6.3549 0.0000 32.2681
#
#
#
# Elastic Compliance Matrix: (Units=1/GPa)
#
#
# Indices 1 2 3 4 5 6 
#
# 1 0.020961 -0.003890 -0.000692 0.000000 -0.006464 0.000000
# 2 -0.003890 0.011227 -0.005496 0.000000 0.003801 0.000000
# 3 -0.000692 -0.005496 0.013447 0.000000 -0.003574 0.000000
# 4 0.000000 0.000000 0.000000 0.032808 0.000000 -0.006461
# 5 -0.006464 0.003801 -0.003574 0.000000 0.025837 0.000000
# 6 0.000000 0.000000 0.000000 -0.006461 0.000000 0.032263
#
#
# Mechanical properties :
#
#
# Convention : Reuss Voigt Hill
#
# Bulk Modulus (GPa) = 39.24568 50.62374 44.93471
# Shear Modulus (GPa) = 30.26815 34.26637 32.26726
#
# Velocity S-wave (km/s) = 3.65692 3.89096 3.77575
# Velocity P-wave (km/s) = 5.93045 6.52324 6.23390
#
# Compressibility (1/GPa) = 0.02548051
#
# Stress axis : x y z
#
# Youngs Moduli (GPa) = 47.70721 89.07434 74.36509
#
# Poissons Ratio (x) = 0.34647 0.05143
# Poissons Ratio (y) = 0.18556 0.40871
# Poissons Ratio (z) = 0.03299 0.48955
#
# Static dielectric constant tensor:
#      x y z
#    x 1.948090 0.000000 0.030180 
#    y 0.000000 1.966370 0.000000 
#    z 0.030180 0.000000 1.903700 
# 
# From -- ./inp_files/105642.got.cif
#   From: 2010.05.17/outbox.cif.g08.bks.cpg/sg15_53_cif.got.tgz:105642.got - 2010.06.03 18:47:42.
