data_PCOD9290399
_publ_section_title
;
Structure prediction by ZEFSAII (Michael W. Deem and Ramdas Pophale) SiO2 
 PCOD9290399
Probable space group: C 2/C
;
_chemical_formula_sum "Si O2"
_cell_formula_units_Z 40
_cell_length_a 9.017120
_cell_length_b 5.653151
_cell_length_c 32.763542
_cell_angle_alpha 90.000000
_cell_angle_beta 115.605091
_cell_angle_gamma 90.000000
_cell_volume 1506.109978
_symmetry_space_group_name_H-M "C 2/C"
_symmetry_group_IT_number 15
_symmetry_cell_setting 'monoclinic'
loop_
_space_group_symop_operation_xyz
x,y,z
-x,y,1/2-z
-x,-y,-z
x,-y,1/2+z
1/2+x,1/2+y,z
1/2-x,1/2+y,1/2-z
1/2-x,1/2-y,-z
1/2+x,1/2-y,1/2+z
loop_
_atom_site_type_symbol
_atom_site_label
_atom_site_fract_x
_atom_site_fract_y
_atom_site_fract_z
Si Si1 0.370193 0.943181 0.801184
Si Si2 0.433844 0.794628 0.462560
Si Si3 0.433510 0.556162 0.287539
Si Si4 0.594036 0.544736 0.930275
Si Si5 0.195826 0.614734 0.116724
O O1 0.467782 0.695816 0.812463
O O2 0.265093 0.943144 0.746437
O O3 0.270122 0.935675 0.831910
O O4 0.466000 0.190316 0.811720
O O5 0.258440 0.737936 0.548766
O O6 0.562478 0.587173 0.469321
O O7 0.500000 0.000000 0.500000
O O8 0.416520 0.904617 0.414914
O O9 0.500000 0.554114 0.250000
O O10 0.664291 0.389329 0.901196
O O11 0.417993 0.655635 0.899327
#
# Coordination Sequence:
#
# PCOD9290399 Si02
#       5
#     8   8   8   8   8
#     4  10  23  41  63  99 131 182 229 295 351 436
#     4  10  24  45  69 101 140 185 234 291 357 425
#     4  10  22  41  65  95 132 177 233 284 363 420
#     4  10  25  43  67 103 134 182 232 292 352 423
#     4  10  26  41  68 100 138 183 232 293 358 420
#
# _framework density 26.558482999999999
#
# number of rings (size 3 to 8) (size 9 to 14) (size 15 to 20)
#    1.200    0.800    0.000    1.200    8.400    1.600 
#    0.000    0.000    0.000    0.000    0.000    0.000 
#    0.000    0.000    0.000    0.000    0.000    0.000 
#
# Total GULP energy -111581.424450 kJ/mol
# GULP energy per Si atom -5579.071222 kJ/mol
# Density = 2.649803 g / cm^3
# Si number density = 26.558483 Si / 1000 Ang^3
#
#
#
# Elastic Constant Matrix: (Units=GPa)
#
#
# Indices 1 2 3 4 5 6 
#
# 1 112.1251 66.9537 51.4202 0.0000 -38.4710 0.0000
# 2 66.9537 165.1571 46.1947 0.0000 -37.3400 0.0000
# 3 51.4202 46.1947 135.6647 0.0000 -26.4837 0.0000
# 4 0.0000 0.0000 0.0000 36.1527 0.0000 -17.2952
# 5 -38.4710 -37.3400 -26.4837 0.0000 57.4868 0.0000
# 6 0.0000 0.0000 0.0000 -17.2952 0.0000 53.4060
#
#
#
# Elastic Compliance Matrix: (Units=1/GPa)
#
#
# Indices 1 2 3 4 5 6 
#
# 1 0.014591 -0.003705 -0.003112 0.000000 0.005924 0.000000
# 2 -0.003705 0.008398 -0.000961 0.000000 0.002533 0.000000
# 3 -0.003112 -0.000961 0.009175 0.000000 0.001520 0.000000
# 4 0.000000 0.000000 0.000000 0.032731 0.000000 0.010600
# 5 0.005924 0.002533 0.001520 0.000000 0.023705 0.000000
# 6 0.000000 0.000000 0.000000 0.010600 0.000000 0.022157
#
#
# Mechanical properties :
#
#
# Convention : Reuss Voigt Hill
#
# Bulk Modulus (GPa) = 60.21483 82.45379 71.33431
# Shear Modulus (GPa) = 37.92192 45.96764 41.94478
#
# Velocity S-wave (km/s) = 3.78281 4.16481 3.97840
# Velocity P-wave (km/s) = 6.46539 7.36485 6.92973
#
# Compressibility (1/GPa) = 0.01660721
#
# Stress axis : x y z
#
# Youngs Moduli (GPa) = 68.53553 119.07141 108.99675
#
# Poissons Ratio (x) = 0.44119 0.33922
# Poissons Ratio (y) = 0.25394 0.10473
# Poissons Ratio (z) = 0.21330 0.11441
#
# Static dielectric constant tensor:
#      x y z
#    x 2.194000 0.000000 0.100350 
#    y 0.000000 2.237770 0.000000 
#    z 0.100350 0.000000 2.041420 
# 
# From -- ./inp_files/309318.got.cif
#   From: 2010.05.17/outbox.cif.g08.bks.cpg/sg15_155_cif.got.tgz:309318.got - 2010.06.03 18:47:42.
