data_PCOD9290952
_publ_section_title
;
Structure prediction by ZEFSAII (Michael W. Deem and Ramdas Pophale) SiO2 
 PCOD9290952
Probable space group: C 2/C
;
_chemical_formula_sum "Si O2"
_cell_formula_units_Z 44
_cell_length_a 12.470563
_cell_length_b 9.799661
_cell_length_c 15.541098
_cell_angle_alpha 90.000000
_cell_angle_beta 105.424500
_cell_angle_gamma 90.000000
_cell_volume 1830.828355
_symmetry_space_group_name_H-M "C 2/C"
_symmetry_group_IT_number 15
_symmetry_cell_setting 'monoclinic'
loop_
_space_group_symop_operation_xyz
x,y,z
-x,y,1/2-z
-x,-y,-z
x,-y,1/2+z
1/2+x,1/2+y,z
1/2-x,1/2+y,1/2-z
1/2-x,1/2-y,-z
1/2+x,1/2-y,1/2+z
loop_
_atom_site_type_symbol
_atom_site_label
_atom_site_fract_x
_atom_site_fract_y
_atom_site_fract_z
Si Si1 0.226053 0.042812 0.757805
Si Si2 0.904970 0.980770 0.050134
Si Si3 0.675931 0.937576 0.540635
Si Si4 0.103925 0.240344 0.208186
Si Si5 0.000000 0.071723 0.750000
Si Si6 0.454426 0.198052 0.002143
O O1 0.279823 0.998069 0.859872
O O2 0.176628 0.899295 0.713820
O O3 0.317627 0.139612 0.736382
O O4 0.115315 0.137531 0.745144
O O5 0.956180 0.005313 0.155125
O O6 0.792695 0.067335 0.014357
O O7 0.891741 0.817177 0.040586
O O8 0.000000 0.000000 0.000000
O O9 0.588089 0.817372 0.539906
O O10 0.600828 0.055673 0.482020
O O11 0.065750 0.277100 0.103556
O O12 0.000000 0.235086 0.250000
#
# Coordination Sequence:
#
# PCOD9290952 Si02
#       6
#     8   8   8   8   4   8
#     4  10  22  43  67  94 138 180 218 284 339 396
#     4  11  23  38  66  98 129 178 218 270 342 397
#     4   9  22  43  64  91 131 173 221 275 327 406
#     4  11  24  43  67 100 137 175 227 282 334 406
#     4  10  22  42  62 100 140 170 228 286 330 410
#     4  10  22  42  67  92 129 174 220 272 336 398
#
# _framework density 24.032838999999999
#
# number of rings (size 3 to 8) (size 9 to 14) (size 15 to 20)
#    0.000    1.818    0.909    1.636    5.091    3.636 
#    1.636    3.636    0.000    0.000    0.000    0.000 
#    0.000    0.000    0.000    0.000    0.000    0.000 
#
# Total GULP energy -122570.167252 kJ/mol
# GULP energy per Si atom -5571.371239 kJ/mol
# Density = 2.397814 g / cm^3
# Si number density = 24.032839 Si / 1000 Ang^3
#
#
#
# Elastic Constant Matrix: (Units=GPa)
#
#
# Indices 1 2 3 4 5 6 
#
# 1 183.5740 38.0765 52.1935 0.0000 18.0563 0.0000
# 2 38.0765 61.3995 6.3574 0.0000 4.9286 0.0000
# 3 52.1935 6.3574 65.7901 0.0000 3.5733 0.0000
# 4 0.0000 0.0000 0.0000 23.7997 0.0000 9.4216
# 5 18.0563 4.9286 3.5733 0.0000 31.9946 0.0000
# 6 0.0000 0.0000 0.0000 9.4216 0.0000 29.1525
#
#
#
# Elastic Compliance Matrix: (Units=1/GPa)
#
#
# Indices 1 2 3 4 5 6 
#
# 1 0.008399 -0.004308 -0.006062 0.000000 -0.003399 0.000000
# 2 -0.004308 0.018842 0.001632 0.000000 -0.000654 0.000000
# 3 -0.006062 0.001632 0.019799 0.000000 0.000958 0.000000
# 4 0.000000 0.000000 0.000000 0.048182 0.000000 -0.015571
# 5 -0.003399 -0.000654 0.000958 0.000000 0.033167 0.000000
# 6 0.000000 0.000000 0.000000 -0.015571 0.000000 0.039335
#
#
# Mechanical properties :
#
#
# Convention : Reuss Voigt Hill
#
# Bulk Modulus (GPa) = 33.82424 56.00205 44.91314
# Shear Modulus (GPa) = 25.63391 31.26511 28.44951
#
# Velocity S-wave (km/s) = 3.26946 3.61076 3.44434
# Velocity P-wave (km/s) = 5.32515 6.38250 5.87765
#
# Compressibility (1/GPa) = 0.02956460
#
# Stress axis : x y z
#
# Youngs Moduli (GPa) = 119.06326 53.07358 50.50654
#
# Poissons Ratio (x) = 0.22864 0.30618
# Poissons Ratio (y) = 0.51292 -0.08245
# Poissons Ratio (z) = 0.72179 -0.08664
#
# Static dielectric constant tensor:
#      x y z
#    x 2.014680 0.000000 -0.014340 
#    y 0.000000 2.088790 0.000000 
#    z -0.014340 0.000000 1.905420 
# 
# From -- ./inp_files/142328.got.cif
#   From: 2010.05.17/outbox.cif.g08.bks.cpg/sg15_72_cif.got.tgz:142328.got - 2010.06.03 18:47:42.
