data_PCOD9290967
_publ_section_title
;
Structure prediction by ZEFSAII (Michael W. Deem and Ramdas Pophale) SiO2 
 PCOD9290967
Probable space group: C 2/C
;
_chemical_formula_sum "Si O2"
_cell_formula_units_Z 28
_cell_length_a 15.135768
_cell_length_b 8.095367
_cell_length_c 12.673406
_cell_angle_alpha 90.000000
_cell_angle_beta 60.577738
_cell_angle_gamma 90.000000
_cell_volume 1352.583169
_symmetry_space_group_name_H-M "C 2/C"
_symmetry_group_IT_number 15
_symmetry_cell_setting 'monoclinic'
loop_
_space_group_symop_operation_xyz
x,y,z
-x,y,1/2-z
-x,-y,-z
x,-y,1/2+z
1/2+x,1/2+y,z
1/2-x,1/2+y,1/2-z
1/2-x,1/2-y,-z
1/2+x,1/2-y,1/2+z
loop_
_atom_site_type_symbol
_atom_site_label
_atom_site_fract_x
_atom_site_fract_y
_atom_site_fract_z
Si Si1 0.000000 0.600642 0.750000
Si Si2 0.360915 0.329517 0.424642
Si Si3 0.074922 0.698239 0.326899
Si Si4 0.856257 0.795597 0.988925
O O1 0.922458 0.478856 0.732865
O O2 0.942562 0.711199 0.867871
O O3 0.250000 0.250000 0.500000
O O4 0.454625 0.225700 0.418135
O O5 0.387773 0.328158 0.283819
O O6 0.365571 0.507419 0.475555
O O7 0.134385 0.724959 0.398856
O O8 0.750000 0.750000 0.000000
#
# Coordination Sequence:
#
# PCOD9290967 Si02
#       4
#     4   8   8   8
#     4  10  22  42  62  90 126 162 208 258 304 364
#     4  10  22  42  63  88 122 164 207 255 309 365
#     4  10  23  42  61  88 125 162 203 258 306 364
#     4  12  24  38  63  94 121 163 207 251 312 369
#
# _framework density 20.701129999999999
#
# number of rings (size 3 to 8) (size 9 to 14) (size 15 to 20)
#    0.000    1.714    0.000    6.857    0.000    6.857 
#    0.000    0.000    0.000    0.000    0.000    0.000 
#    0.000    0.000    0.000    0.000    0.000    0.000 
#
# Total GULP energy -78212.453314 kJ/mol
# GULP energy per Si atom -5586.603808 kJ/mol
# Density = 2.065401 g / cm^3
# Si number density = 20.701130 Si / 1000 Ang^3
#
#
#
# Elastic Constant Matrix: (Units=GPa)
#
#
# Indices 1 2 3 4 5 6 
#
# 1 122.1327 1.5480 41.0508 0.0000 27.4154 0.0000
# 2 1.5480 79.9664 6.0109 0.0000 8.1854 0.0000
# 3 41.0508 6.0109 75.9721 0.0000 19.8905 0.0000
# 4 0.0000 0.0000 0.0000 35.5768 0.0000 -8.1175
# 5 27.4154 8.1854 19.8905 0.0000 42.9446 0.0000
# 6 0.0000 0.0000 0.0000 -8.1175 0.0000 16.0382
#
#
#
# Elastic Compliance Matrix: (Units=1/GPa)
#
#
# Indices 1 2 3 4 5 6 
#
# 1 0.010832 0.000639 -0.004622 0.000000 -0.004896 0.000000
# 2 0.000639 0.012804 -0.000697 0.000000 -0.002525 0.000000
# 3 -0.004622 -0.000697 0.016965 0.000000 -0.004774 0.000000
# 4 0.000000 0.000000 0.000000 0.031778 0.000000 0.016084
# 5 -0.004896 -0.002525 -0.004774 0.000000 0.029104 0.000000
# 6 0.000000 0.000000 0.000000 0.016084 0.000000 0.070492
#
#
# Mechanical properties :
#
#
# Convention : Reuss Voigt Hill
#
# Bulk Modulus (GPa) = 32.00874 41.69894 36.85384
# Shear Modulus (GPa) = 26.07579 34.20936 30.14257
#
# Velocity S-wave (km/s) = 3.55298 4.06955 3.82001
# Velocity P-wave (km/s) = 5.68572 6.50144 6.10721
#
# Compressibility (1/GPa) = 0.03124147
#
# Stress axis : x y z
#
# Youngs Moduli (GPa) = 92.31691 78.10184 58.94428
#
# Poissons Ratio (x) = -0.04990 0.27242
# Poissons Ratio (y) = -0.05898 0.04109
# Poissons Ratio (z) = 0.42666 0.05444
#
# Static dielectric constant tensor:
#      x y z
#    x 1.731550 0.000000 -0.012580 
#    y 0.000000 1.808880 0.000000 
#    z -0.012580 0.000000 1.748680 
# 
# From -- ./inp_files/93130.got.cif
#   From: 2010.05.17/outbox.cif.g08.bks.cpg/sg15_47_cif.got.tgz:93130.got - 2010.06.03 18:47:42.
