data_PCOD9290286
_publ_section_title
;
Structure prediction by ZEFSAII (Michael W. Deem and Ramdas Pophale) SiO2 
 PCOD9290286
Probable space group: C 2/C
;
_chemical_formula_sum "Si O2"
_cell_formula_units_Z 64
_cell_length_a 13.359241
_cell_length_b 15.047042
_cell_length_c 14.882266
_cell_angle_alpha 90.000000
_cell_angle_beta 58.321595
_cell_angle_gamma 90.000000
_cell_volume 2545.869776
_symmetry_space_group_name_H-M "C 2/C"
_symmetry_group_IT_number 15
_symmetry_cell_setting 'monoclinic'
loop_
_space_group_symop_operation_xyz
x,y,z
-x,y,1/2-z
-x,-y,-z
x,-y,1/2+z
1/2+x,1/2+y,z
1/2-x,1/2+y,1/2-z
1/2-x,1/2-y,-z
1/2+x,1/2-y,1/2+z
loop_
_atom_site_type_symbol
_atom_site_label
_atom_site_fract_x
_atom_site_fract_y
_atom_site_fract_z
Si Si1 0.527641 0.847717 0.984671
Si Si2 0.012800 0.853479 0.430594
Si Si3 0.605125 0.776220 0.137954
Si Si4 0.744608 0.071926 0.677057
Si Si5 0.793316 0.883101 0.661370
Si Si6 0.384457 0.271532 0.283590
Si Si7 0.728473 0.911806 0.401892
Si Si8 0.785341 0.098194 0.363620
O O1 0.544313 0.822737 0.081613
O O2 0.408095 0.895960 0.011877
O O3 0.532593 0.750613 0.940621
O O4 0.646197 0.898957 0.905498
O O5 0.894657 0.874416 0.539514
O O6 0.119301 0.914196 0.415116
O O7 0.049542 0.846374 0.308639
O O8 0.500000 0.744766 0.250000
O O9 0.674818 0.852916 0.157275
O O10 0.682574 0.685497 0.093639
O O11 0.728242 0.087119 0.792069
O O12 0.716156 0.969324 0.672873
O O13 0.715461 0.794345 0.706311
O O14 0.845775 0.899744 0.736916
O O15 0.500000 0.213455 0.250000
O O16 0.307487 0.327190 0.391563
O O17 0.792284 0.001435 0.404679
#
# Coordination Sequence:
#
# PCOD9290286 Si02
#       8
#     8   8   8   8   8   8   8   8
#     4  12  21  40  70  94 134 177 213 276 337 400
#     4  11  22  42  70  91 125 173 222 260 342 392
#     4  12  23  39  65 101 140 171 221 278 334 391
#     4  10  22  41  64  96 132 172 216 271 324 402
#     4  11  22  43  68  92 131 177 218 266 334 390
#     4  11  24  44  66  92 127 166 220 278 315 394
#     4  10  22  43  66  91 132 174 217 268 338 393
#     4  11  23  41  64  99 131 176 218 267 330 403
#
# _framework density 25.138757999999999
#
# number of rings (size 3 to 8) (size 9 to 14) (size 15 to 20)
#    0.000    1.000    5.000    2.625    0.000    1.500 
#    2.250    1.250    0.000    0.000    0.000    0.000 
#    0.000    0.000    0.000    0.000    0.000    0.000 
#
# Total GULP energy -178588.671092 kJ/mol
# GULP energy per Si atom -5580.895972 kJ/mol
# Density = 2.508154 g / cm^3
# Si number density = 25.138758 Si / 1000 Ang^3
#
#
#
# Elastic Constant Matrix: (Units=GPa)
#
#
# Indices 1 2 3 4 5 6 
#
# 1 49.6929 11.9886 26.0775 0.0000 -9.6089 0.0000
# 2 11.9886 135.4478 4.2960 0.0000 -1.7013 0.0000
# 3 26.0775 4.2960 101.0474 0.0000 -13.4758 0.0000
# 4 0.0000 0.0000 0.0000 31.1001 0.0000 -4.2734
# 5 -9.6089 -1.7013 -13.4758 0.0000 41.6337 0.0000
# 6 0.0000 0.0000 0.0000 -4.2734 0.0000 11.5694
#
#
#
# Elastic Compliance Matrix: (Units=1/GPa)
#
#
# Indices 1 2 3 4 5 6 
#
# 1 0.024288 -0.001923 -0.005695 0.000000 0.003684 0.000000
# 2 -0.001923 0.007547 0.000164 0.000000 -0.000082 0.000000
# 3 -0.005695 0.000164 0.011689 0.000000 0.002476 0.000000
# 4 0.000000 0.000000 0.000000 0.033873 0.000000 0.012512
# 5 0.003684 -0.000082 0.002476 0.000000 0.025667 0.000000
# 6 0.000000 0.000000 0.000000 0.012512 0.000000 0.091056
#
#
# Mechanical properties :
#
#
# Convention : Reuss Voigt Hill
#
# Bulk Modulus (GPa) = 34.94378 41.21248 38.07813
# Shear Modulus (GPa) = 22.87617 33.11571 27.99594
#
# Velocity S-wave (km/s) = 3.01989 3.63342 3.34077
# Velocity P-wave (km/s) = 5.10785 5.83369 5.48280
#
# Compressibility (1/GPa) = 0.02861739
#
# Stress axis : x y z
#
# Youngs Moduli (GPa) = 41.17183 132.50529 85.54832
#
# Poissons Ratio (x) = 0.25479 0.48721
# Poissons Ratio (y) = 0.07917 -0.01407
# Poissons Ratio (z) = 0.23448 -0.02179
#
# Static dielectric constant tensor:
#      x y z
#    x 2.159350 0.000000 0.077350 
#    y 0.000000 2.007510 0.000000 
#    z 0.077350 0.000000 2.075980 
# 
# From -- ./inp_files/205713.got.cif
#   From: 2010.05.17/outbox.cif.g08.bks.cpg/sg15_103_cif.got.tgz:205713.got - 2010.06.03 18:47:42.
