data_PCOD9290914
_publ_section_title
;
Structure prediction by ZEFSAII (Michael W. Deem and Ramdas Pophale) SiO2 
 PCOD9290914
Probable space group: C 2/C
;
_chemical_formula_sum "Si O2"
_cell_formula_units_Z 36
_cell_length_a 13.852368
_cell_length_b 14.561351
_cell_length_c 11.323283
_cell_angle_alpha 90.000000
_cell_angle_beta 146.429290
_cell_angle_gamma 90.000000
_cell_volume 1262.979297
_symmetry_space_group_name_H-M "C 2/C"
_symmetry_group_IT_number 15
_symmetry_cell_setting 'monoclinic'
loop_
_space_group_symop_operation_xyz
x,y,z
-x,y,1/2-z
-x,-y,-z
x,-y,1/2+z
1/2+x,1/2+y,z
1/2-x,1/2+y,1/2-z
1/2-x,1/2-y,-z
1/2+x,1/2-y,1/2+z
loop_
_atom_site_type_symbol
_atom_site_label
_atom_site_fract_x
_atom_site_fract_y
_atom_site_fract_z
Si Si1 0.797696 0.564262 0.649490
Si Si2 0.500000 0.500000 0.000000
Si Si3 0.259810 0.327218 0.189382
Si Si4 0.000000 0.597196 0.250000
Si Si5 0.000000 0.716875 0.750000
Si Si6 0.626159 0.342870 0.666478
O O1 0.603025 0.532691 0.478605
O O2 0.846223 0.621165 0.816217
O O3 0.909164 0.474739 0.743796
O O4 0.838486 0.644186 0.591303
O O5 0.680542 0.552733 0.234350
O O6 0.456427 0.369647 0.403409
O O7 0.152836 0.342285 0.962885
O O8 0.255358 0.221888 0.226355
O O9 0.031387 0.783470 0.670985
#
# Coordination Sequence:
#
# PCOD9290914 Si02
#       6
#     8   4   8   4   4   8
#     4   9  21  43  68 103 124 178 227 287 333 402
#     4  10  22  42  60 102 144 158 216 300 336 378
#     4  10  23  42  66  96 134 176 225 275 337 404
#     4  11  22  42  71  90 134 182 223 268 340 423
#     4   9  20  46  79  94 130 186 241 264 346 405
#     4  10  23  44  65 104 134 176 225 286 336 404
#
# _framework density 28.504031000000001
#
# number of rings (size 3 to 8) (size 9 to 14) (size 15 to 20)
#    0.000    2.222    0.000    0.667    3.111    8.889 
#   24.000    0.000    0.000    0.000    0.000    0.000 
#    0.000    0.000    0.000    0.000    0.000    0.000 
#
# Total GULP energy -100236.443109 kJ/mol
# GULP energy per Si atom -5568.691284 kJ/mol
# Density = 2.843915 g / cm^3
# Si number density = 28.504031 Si / 1000 Ang^3
#
#
#
# Elastic Constant Matrix: (Units=GPa)
#
#
# Indices 1 2 3 4 5 6 
#
# 1 110.2050 52.8472 7.7465 0.0000 21.2554 0.0000
# 2 52.8472 185.6129 12.3927 0.0000 -1.7535 0.0000
# 3 7.7465 12.3927 94.2660 0.0000 3.7583 0.0000
# 4 0.0000 0.0000 0.0000 45.4069 0.0000 14.8736
# 5 21.2554 -1.7535 3.7583 0.0000 28.6590 0.0000
# 6 0.0000 0.0000 0.0000 14.8736 0.0000 50.4350
#
#
#
# Elastic Compliance Matrix: (Units=1/GPa)
#
#
# Indices 1 2 3 4 5 6 
#
# 1 0.012720 -0.003701 -0.000174 0.000000 -0.009637 0.000000
# 2 -0.003701 0.006517 -0.000682 0.000000 0.003233 0.000000
# 3 -0.000174 -0.000682 0.010765 0.000000 -0.001324 0.000000
# 4 0.000000 0.000000 0.000000 0.024378 0.000000 -0.007189
# 5 -0.009637 0.003233 -0.001324 0.000000 0.042412 0.000000
# 6 0.000000 0.000000 0.000000 -0.007189 0.000000 0.021948
#
#
# Mechanical properties :
#
#
# Convention : Reuss Voigt Hill
#
# Bulk Modulus (GPa) = 47.87415 59.56186 53.71801
# Shear Modulus (GPa) = 37.08742 46.04002 41.56372
#
# Velocity S-wave (km/s) = 3.61103 4.02333 3.82274
# Velocity P-wave (km/s) = 5.84962 6.52106 6.19444
#
# Compressibility (1/GPa) = 0.02088810
#
# Stress axis : x y z
#
# Youngs Moduli (GPa) = 78.61780 153.43715 92.89360
#
# Poissons Ratio (x) = 0.56786 0.01621
# Poissons Ratio (y) = 0.29096 0.06331
# Poissons Ratio (z) = 0.01372 0.10458
#
# Static dielectric constant tensor:
#      x y z
#    x 2.401330 0.000000 -0.112100 
#    y 0.000000 9.390150 0.000000 
#    z -0.112100 0.000000 2.481640 
# 
# From -- ./inp_files/47858.got.cif
#   From: 2010.05.17/outbox.cif.g08.bks.cpg/sg15_24_cif.got.tgz:47858.got - 2010.06.03 18:47:42.
