data_PCOD9290204
_publ_section_title
;
Structure prediction by ZEFSAII (Michael W. Deem and Ramdas Pophale) SiO2 
 PCOD9290204
Probable space group: C 2/C
;
_chemical_formula_sum "Si O2"
_cell_formula_units_Z 56
_cell_length_a 11.481135
_cell_length_b 13.661748
_cell_length_c 30.364475
_cell_angle_alpha 90.000000
_cell_angle_beta 29.539276
_cell_angle_gamma 90.000000
_cell_volume 2348.126386
_symmetry_space_group_name_H-M "C 2/C"
_symmetry_group_IT_number 15
_symmetry_cell_setting 'monoclinic'
loop_
_space_group_symop_operation_xyz
x,y,z
-x,y,1/2-z
-x,-y,-z
x,-y,1/2+z
1/2+x,1/2+y,z
1/2-x,1/2+y,1/2-z
1/2-x,1/2-y,-z
1/2+x,1/2-y,1/2+z
loop_
_atom_site_type_symbol
_atom_site_label
_atom_site_fract_x
_atom_site_fract_y
_atom_site_fract_z
Si Si1 0.055931 0.054350 0.626914
Si Si2 0.426576 0.779421 0.013878
Si Si3 0.455984 0.837323 0.680510
Si Si4 0.715386 0.501947 0.705898
Si Si5 0.419414 0.852620 0.443756
Si Si6 0.722606 0.690971 0.835381
Si Si7 0.466791 0.349648 0.626342
O O1 0.921057 0.077124 0.716883
O O2 0.892525 0.087010 0.639911
O O3 0.288003 0.120417 0.545716
O O4 0.060565 0.936152 0.628144
O O5 0.560560 0.807038 0.014076
O O6 0.223346 0.700061 0.093239
O O7 0.587765 0.739064 0.921364
O O8 0.329972 0.758155 0.689925
O O9 0.313323 0.851162 0.772941
O O10 0.395250 0.936276 0.674513
O O11 0.500000 0.451590 0.750000
O O12 0.892017 0.562050 0.617522
O O13 0.491448 0.767432 0.386510
O O14 0.144378 0.879933 0.527977
O O15 0.000000 0.683148 0.750000
#
# Coordination Sequence:
#
# PCOD9290204 Si02
#       7
#     8   8   8   8   8   8   8
#     4  10  22  43  63  95 127 171 213 265 317 383
#     4  11  23  40  70  95 125 174 211 268 317 384
#     4  10  22  41  63  95 129 165 213 265 325 378
#     4  11  22  39  66  97 128 167 214 270 318 374
#     4  11  23  40  66  95 128 171 214 269 318 380
#     4  11  23  41  65  91 133 168 214 262 325 382
#     4  10  24  41  63  92 134 168 215 266 323 379
#
# _framework density 23.848803
#
# number of rings (size 3 to 8) (size 9 to 14) (size 15 to 20)
#    0.000    1.429    1.429    4.714    4.000    2.857 
#    5.143    0.714    0.000    0.000    0.000    0.000 
#    0.000    0.000    0.000    0.000    0.000    0.000 
#
# Total GULP energy -155923.527065 kJ/mol
# GULP energy per Si atom -5568.697395 kJ/mol
# Density = 2.379452 g / cm^3
# Si number density = 23.848803 Si / 1000 Ang^3
#
#
#
# Elastic Constant Matrix: (Units=GPa)
#
#
# Indices 1 2 3 4 5 6 
#
# 1 76.6203 26.9788 49.8192 0.0003 -13.9915 0.0003
# 2 26.9788 49.2601 45.4626 -0.0011 -8.0236 -0.0016
# 3 49.8192 45.4626 156.1403 -0.0383 -6.2331 0.0030
# 4 0.0003 -0.0011 -0.0383 29.0564 0.0004 3.0221
# 5 -13.9915 -8.0236 -6.2331 0.0004 34.9820 0.0022
# 6 0.0003 -0.0016 0.0030 3.0221 0.0022 23.0628
#
#
#
# Elastic Compliance Matrix: (Units=1/GPa)
#
#
# Indices 1 2 3 4 5 6 
#
# 1 0.018684 -0.005527 -0.004134 -0.000006 0.005469 0.000000
# 2 -0.005527 0.030277 -0.006912 -0.000008 0.003502 0.000004
# 3 -0.004134 -0.006912 0.009676 0.000013 -0.001515 -0.000003
# 4 -0.000006 -0.000008 0.000013 0.034891 -0.000002 -0.004572
# 5 0.005469 0.003502 -0.001515 -0.000002 0.031307 -0.000002
# 6 0.000000 0.000004 -0.000003 -0.004572 -0.000002 0.043959
#
#
# Mechanical properties :
#
#
# Convention : Reuss Voigt Hill
#
# Bulk Modulus (GPa) = 39.23018 58.50466 48.86742
# Shear Modulus (GPa) = 23.76001 28.07090 25.91545
#
# Velocity S-wave (km/s) = 3.15981 3.43452 3.30002
# Velocity P-wave (km/s) = 5.45873 6.34922 5.92074
#
# Compressibility (1/GPa) = 0.02549058
#
# Stress axis : x y z
#
# Youngs Moduli (GPa) = 53.52185 33.02795 103.35183
#
# Poissons Ratio (x) = 0.18254 0.42725
# Poissons Ratio (y) = 0.29581 0.71442
# Poissons Ratio (z) = 0.22125 0.22830
#
# Static dielectric constant tensor:
#      x y z
#    x 2.005920 0.000000 0.014730 
#    y 0.000000 2.014640 0.000010 
#    z 0.014730 0.000010 2.002110 
# 
# From -- ./inp_files/311306.got.cif
#   From: 2010.05.17/outbox.cif.g08.bks.cpg/sg15_156_cif.got.tgz:311306.got - 2010.06.03 18:47:42.
