data_PCOD9290344
_publ_section_title
;
Structure prediction by ZEFSAII (Michael W. Deem and Ramdas Pophale) SiO2 
 PCOD9290344
Probable space group: C 2/C
;
_chemical_formula_sum "Si O2"
_cell_formula_units_Z 40
_cell_length_a 22.350657
_cell_length_b 14.613052
_cell_length_c 15.134804
_cell_angle_alpha 90.000000
_cell_angle_beta 160.262039
_cell_angle_gamma 90.000000
_cell_volume 1669.411710
_symmetry_space_group_name_H-M "C 2/C"
_symmetry_group_IT_number 15
_symmetry_cell_setting 'monoclinic'
loop_
_space_group_symop_operation_xyz
x,y,z
-x,y,1/2-z
-x,-y,-z
x,-y,1/2+z
1/2+x,1/2+y,z
1/2-x,1/2+y,1/2-z
1/2-x,1/2-y,-z
1/2+x,1/2-y,1/2+z
loop_
_atom_site_type_symbol
_atom_site_label
_atom_site_fract_x
_atom_site_fract_y
_atom_site_fract_z
Si Si1 0.295522 0.456225 0.990169
Si Si2 0.924017 0.095795 0.857359
Si Si3 0.133921 0.361689 0.298073
Si Si4 0.708542 0.742235 0.045827
Si Si5 0.237233 0.693442 0.130673
O O1 0.500000 0.482638 0.250000
O O2 0.315286 0.431995 0.120417
O O3 0.241403 0.363335 0.864780
O O4 0.156397 0.537663 0.789986
O O5 0.796855 0.174616 0.723761
O O6 0.098343 0.157069 0.084792
O O7 0.000000 0.000000 0.000000
O O8 0.238027 0.360214 0.537159
O O9 0.224421 0.294684 0.352636
O O10 0.944103 0.325049 0.069083
O O11 0.500000 0.749964 0.750000
O O12 0.750000 0.750000 0.000000
#
# Coordination Sequence:
#
# PCOD9290344 Si02
#       5
#     8   8   8   8   8
#     4  10  22  42  65  91 130 175 210 265 334 385
#     4  11  22  40  66  97 126 166 224 266 312 394
#     4  10  22  41  65  91 133 169 212 265 337 383
#     4   9  21  40  62  91 128 167 208 262 326 381
#     4  10  23  39  64  97 126 167 217 270 322 385
#
# _framework density 23.960536000000001
#
# number of rings (size 3 to 8) (size 9 to 14) (size 15 to 20)
#    0.000    2.000    2.000    0.000    5.600    8.000 
#    0.000    4.000    0.000    0.000    0.000    0.000 
#    0.000    0.000    0.000    0.000    0.000    0.000 
#
# Total GULP energy -111468.581359 kJ/mol
# GULP energy per Si atom -5573.429068 kJ/mol
# Density = 2.390600 g / cm^3
# Si number density = 23.960536 Si / 1000 Ang^3
#
#
#
# Elastic Constant Matrix: (Units=GPa)
#
#
# Indices 1 2 3 4 5 6 
#
# 1 79.5783 57.6093 16.7869 0.0000 13.7771 0.0000
# 2 57.6093 228.9133 92.5619 0.0000 17.8131 0.0000
# 3 16.7869 92.5619 64.6011 0.0000 20.2918 0.0000
# 4 0.0000 0.0000 0.0000 45.3532 0.0000 -2.2336
# 5 13.7771 17.8131 20.2918 0.0000 48.9650 0.0000
# 6 0.0000 0.0000 0.0000 -2.2336 0.0000 15.7390
#
#
#
# Elastic Compliance Matrix: (Units=1/GPa)
#
#
# Indices 1 2 3 4 5 6 
#
# 1 0.016728 -0.006419 0.006433 0.000000 -0.005037 0.000000
# 2 -0.006419 0.013180 -0.018714 0.000000 0.004767 0.000000
# 3 0.006433 -0.018714 0.044896 0.000000 -0.013607 0.000000
# 4 0.000000 0.000000 0.000000 0.022204 0.000000 0.003151
# 5 -0.005037 0.004767 -0.013607 0.000000 0.025745 0.000000
# 6 0.000000 0.000000 0.000000 0.003151 0.000000 0.063984
#
#
# Mechanical properties :
#
#
# Convention : Reuss Voigt Hill
#
# Bulk Modulus (GPa) = 26.73526 78.55653 52.64589
# Shear Modulus (GPa) = 21.13225 35.75376 28.44300
#
# Velocity S-wave (km/s) = 2.97300 3.86708 3.44914
# Velocity P-wave (km/s) = 4.79242 7.26609 6.15481
#
# Compressibility (1/GPa) = 0.03740379
#
# Stress axis : x y z
#
# Youngs Moduli (GPa) = 59.77895 75.87282 22.27382
#
# Poissons Ratio (x) = 0.48703 -0.14328
# Poissons Ratio (y) = 0.38372 0.41683
# Poissons Ratio (z) = -0.38453 1.41986
#
# Static dielectric constant tensor:
#      x y z
#    x 1.945050 0.000000 -0.017270 
#    y 0.000000 2.167400 0.000000 
#    z -0.017270 0.000000 1.889920 
# 
# From -- ./inp_files/169223.got.cif
#   From: 2010.05.17/outbox.cif.g08.bks.cpg/sg15_85_cif.got.tgz:169223.got - 2010.06.03 18:47:42.
