data_PCOD9290729
_publ_section_title
;
Structure prediction by ZEFSAII (Michael W. Deem and Ramdas Pophale) SiO2 
 PCOD9290729
Probable space group: C 2/C
;
_chemical_formula_sum "Si O2"
_cell_formula_units_Z 36
_cell_length_a 11.085507
_cell_length_b 24.088173
_cell_length_c 16.863198
_cell_angle_alpha 90.000000
_cell_angle_beta 158.352573
_cell_angle_gamma 90.000000
_cell_volume 1661.120044
_symmetry_space_group_name_H-M "C 2/C"
_symmetry_group_IT_number 15
_symmetry_cell_setting 'monoclinic'
loop_
_space_group_symop_operation_xyz
x,y,z
-x,y,1/2-z
-x,-y,-z
x,-y,1/2+z
1/2+x,1/2+y,z
1/2-x,1/2+y,1/2-z
1/2-x,1/2-y,-z
1/2+x,1/2-y,1/2+z
loop_
_atom_site_type_symbol
_atom_site_label
_atom_site_fract_x
_atom_site_fract_y
_atom_site_fract_z
Si Si1 0.290259 0.990332 0.241245
Si Si2 0.023747 0.188793 0.090320
Si Si3 0.000000 0.214919 0.250000
Si Si4 0.500000 0.904301 0.250000
Si Si5 0.653696 0.578211 0.922425
Si Si6 0.500000 0.840529 0.750000
O O1 0.510890 0.943569 0.333357
O O2 0.115247 0.965531 0.210744
O O3 0.510396 0.044459 0.387855
O O4 0.000000 0.000000 0.000000
O O5 0.080202 0.182024 0.218792
O O6 0.323781 0.192244 0.213188
O O7 0.808103 0.244284 0.950794
O O8 0.808466 0.136108 0.933227
O O9 0.500000 0.604697 0.750000
O O10 0.739862 0.620674 0.044986
#
# Coordination Sequence:
#
# PCOD9290729 Si02
#       6
#     8   8   4   4   8   4
#     4  12  20  40  63  84 132 177 212 258 310 366
#     4  10  22  41  69  92 124 162 205 267 326 394
#     4   9  22  46  65  92 124 160 207 254 340 409
#     4  11  19  36  64  86 118 170 208 248 319 369
#     4  12  25  40  61  95 133 174 219 261 314 371
#     4  12  23  42  67  98 132 162 213 274 317 368
#
# _framework density 21.672124
#
# number of rings (size 3 to 8) (size 9 to 14) (size 15 to 20)
#    0.000    0.889    6.667    0.667    0.000    2.667 
#    6.000    0.000    0.000    0.000    0.000    0.000 
#    0.000    0.000    0.000    0.000    0.000    0.000 
#
# Total GULP energy -100571.077465 kJ/mol
# GULP energy per Si atom -5587.282081 kJ/mol
# Density = 2.162280 g / cm^3
# Si number density = 21.672124 Si / 1000 Ang^3
#
#
#
# Elastic Constant Matrix: (Units=GPa)
#
#
# Indices 1 2 3 4 5 6 
#
# 1 158.4305 20.0469 51.7475 0.0071 2.9242 0.0001
# 2 20.0469 31.0280 7.7545 0.0060 0.2190 0.0037
# 3 51.7475 7.7545 59.8622 -0.0720 -7.6926 -0.0305
# 4 0.0071 0.0060 -0.0720 -31.3044 -0.0010 -10.6724
# 5 2.9242 0.2190 -7.6926 -0.0010 47.9990 0.0005
# 6 0.0001 0.0037 -0.0305 -10.6724 0.0005 24.4133
#
#
#
# Elastic Compliance Matrix: (Units=1/GPa)
#
#
# Indices 1 2 3 4 5 6 
#
# 1 0.009431 -0.004118 -0.007852 0.000020 -0.001814 -0.000001
# 2 -0.004118 0.035140 -0.001001 0.000009 -0.000070 -0.000003
# 3 -0.007852 -0.001001 0.024183 -0.000059 0.004359 0.000004
# 4 0.000020 0.000009 -0.000059 -0.027801 -0.000011 -0.012153
# 5 -0.001814 -0.000070 0.004359 -0.000011 0.021643 0.000000
# 6 -0.000001 -0.000003 0.000004 -0.012153 0.000000 0.035648
#
#
# Mechanical properties :
#
#
# Convention : Reuss Voigt Hill
#
# Bulk Modulus (GPa) = 23.35852 45.37985 34.36918
# Shear Modulus (GPa) = 36.11179 19.53970 27.82574
#
# Velocity S-wave (km/s) = 4.08644 3.00593 3.58710
# Velocity P-wave (km/s) = 5.75037 5.74737 5.74887
#
# Compressibility (1/GPa) = 0.04281094
#
# Stress axis : x y z
#
# Youngs Moduli (GPa) = 106.02962 28.45730 41.35176
#
# Poissons Ratio (x) = 0.11719 0.32471
# Poissons Ratio (y) = 0.43665 0.04140
# Poissons Ratio (z) = 0.83260 0.02849
#
# Static dielectric constant tensor:
#      x y z
#    x 1.828630 0.000010 -0.000780 
#    y 0.000010 1.774910 -0.000020 
#    z -0.000780 -0.000020 1.818750 
# 
# From -- ./inp_files/31297.got.cif
#   From: 2010.05.17/outbox.cif.g08.bks.cpg/sg15_16_cif.got.tgz:31297.got - 2010.06.03 18:47:42.
