data_PCOD9290241
_publ_section_title
;
Structure prediction by ZEFSAII (Michael W. Deem and Ramdas Pophale) SiO2 
 PCOD9290241
Probable space group: C 2/C
;
_chemical_formula_sum "Si O2"
_cell_formula_units_Z 20
_cell_length_a 21.717154
_cell_length_b 4.270043
_cell_length_c 7.768606
_cell_angle_alpha 90.000000
_cell_angle_beta 112.551099
_cell_angle_gamma 90.000000
_cell_volume 665.323654
_symmetry_space_group_name_H-M "C 2/C"
_symmetry_group_IT_number 15
_symmetry_cell_setting 'monoclinic'
loop_
_space_group_symop_operation_xyz
x,y,z
-x,y,1/2-z
-x,-y,-z
x,-y,1/2+z
1/2+x,1/2+y,z
1/2-x,1/2+y,1/2-z
1/2-x,1/2-y,-z
1/2+x,1/2-y,1/2+z
loop_
_atom_site_type_symbol
_atom_site_label
_atom_site_fract_x
_atom_site_fract_y
_atom_site_fract_z
Si Si1 0.598530 0.765134 0.087151
Si Si2 0.199757 0.761408 0.196402
Si Si3 0.000000 0.673763 0.750000
O O1 0.646599 0.502663 0.057253
O O2 0.547745 0.633775 0.174573
O O3 0.649112 0.016788 0.229376
O O4 0.550511 0.958850 0.911841
O O5 0.249921 0.510616 0.158919
#
# Coordination Sequence:
#
# PCOD9290241 Si02
#       3
#     8   8   4
#     4  10  22  41  64  91 122 158 202 250 302 358
#     4   9  20  42  64  90 122 161 204 250 300 357
#     4  10  24  40  64  92 124 160 200 250 304 360
#
# _framework density 30.060558
#
# number of rings (size 3 to 8) (size 9 to 14) (size 15 to 20)
#    0.000    2.400    0.000    0.000    0.000   12.800 
#    0.000   40.000    0.000    0.000    0.000    0.000 
#    0.000    0.000    0.000    0.000    0.000    0.000 
#
# Total GULP energy -55817.270731 kJ/mol
# GULP energy per Si atom -5581.727073 kJ/mol
# Density = 2.999214 g / cm^3
# Si number density = 30.060558 Si / 1000 Ang^3
#
#
#
# Elastic Constant Matrix: (Units=GPa)
#
#
# Indices 1 2 3 4 5 6 
#
# 1 245.1220 107.0504 76.1528 0.0000 29.6938 0.0000
# 2 107.0504 198.8517 52.4306 0.0000 32.7890 0.0000
# 3 76.1528 52.4306 99.1252 0.0000 44.4822 0.0000
# 4 0.0000 0.0000 0.0000 64.9589 0.0000 53.6726
# 5 29.6938 32.7890 44.4822 0.0000 39.4242 0.0000
# 6 0.0000 0.0000 0.0000 53.6726 0.0000 88.9014
#
#
#
# Elastic Compliance Matrix: (Units=1/GPa)
#
#
# Indices 1 2 3 4 5 6 
#
# 1 0.006365 -0.002631 -0.004718 0.000000 0.002717 0.000000
# 2 -0.002631 0.007086 0.000058 0.000000 -0.003977 0.000000
# 3 -0.004718 0.000058 0.024528 0.000000 -0.024170 0.000000
# 4 0.000000 0.000000 0.000000 0.030717 0.000000 -0.018545
# 5 0.002717 -0.003977 -0.024170 0.000000 0.053897 0.000000
# 6 0.000000 0.000000 0.000000 -0.018545 0.000000 0.022445
#
#
# Mechanical properties :
#
#
# Convention : Reuss Voigt Hill
#
# Bulk Modulus (GPa) = 42.73894 112.70739 77.72316
# Shear Modulus (GPa) = 29.86543 59.15457 44.51000
#
# Velocity S-wave (km/s) = 3.15542 4.44085 3.85213
# Velocity P-wave (km/s) = 5.24633 7.99186 6.75995
#
# Compressibility (1/GPa) = 0.02339787
#
# Stress axis : x y z
#
# Youngs Moduli (GPa) = 157.10963 141.13178 40.76971
#
# Poissons Ratio (x) = 0.37127 0.19233
# Poissons Ratio (y) = 0.41330 -0.00236
# Poissons Ratio (z) = 0.74117 -0.00816
#
# Static dielectric constant tensor:
#      x y z
#    x 2.224740 0.000000 -0.021250 
#    y 0.000000 2.269390 0.000000 
#    z -0.021250 0.000000 2.333300 
# 
# From -- ./inp_files/3810.got.cif
#   From: 2010.05.17/outbox.cif.g08.bks.cpg/sg15_2_cif.got.tgz:3810.got - 2010.06.03 18:47:42.
