data_PCOD9290490
_publ_section_title
;
Structure prediction by ZEFSAII (Michael W. Deem and Ramdas Pophale) SiO2 
 PCOD9290490
Probable space group: C 2/C
;
_chemical_formula_sum "Si O2"
_cell_formula_units_Z 64
_cell_length_a 30.905543
_cell_length_b 11.334520
_cell_length_c 22.822783
_cell_angle_alpha 90.000000
_cell_angle_beta 25.150346
_cell_angle_gamma 90.000000
_cell_volume 3397.753889
_symmetry_space_group_name_H-M "C 2/C"
_symmetry_group_IT_number 15
_symmetry_cell_setting 'monoclinic'
loop_
_space_group_symop_operation_xyz
x,y,z
-x,y,1/2-z
-x,-y,-z
x,-y,1/2+z
1/2+x,1/2+y,z
1/2-x,1/2+y,1/2-z
1/2-x,1/2-y,-z
1/2+x,1/2-y,1/2+z
loop_
_atom_site_type_symbol
_atom_site_label
_atom_site_fract_x
_atom_site_fract_y
_atom_site_fract_z
Si Si1 0.893213 0.960066 0.195070
Si Si2 0.117484 0.028694 0.924222
Si Si3 0.712469 0.111548 0.212979
Si Si4 0.109298 0.417405 0.264683
Si Si5 0.253995 0.796377 0.061542
Si Si6 0.117211 0.478425 0.122470
Si Si7 0.262295 0.317636 0.873808
Si Si8 0.890156 0.294131 0.546134
O O1 0.849254 0.945544 0.183373
O O2 0.848076 0.865952 0.295007
O O3 0.854677 0.089463 0.260009
O O4 0.014311 0.953872 0.045041
O O5 0.091706 0.154899 0.983547
O O6 0.199587 0.960347 0.861458
O O7 0.759623 0.193660 0.103659
O O8 0.652549 0.182559 0.336524
O O9 0.634857 0.017031 0.280617
O O10 0.125852 0.477740 0.181612
O O11 0.189489 0.310204 0.174787
O O12 0.994682 0.366011 0.408861
O O13 0.250000 0.750000 0.000000
O O14 0.339178 0.900065 0.958611
O O15 0.000000 0.462989 0.250000
O O16 0.183556 0.368364 0.017965
O O17 0.198210 0.324969 0.892078
#
# Coordination Sequence:
#
# PCOD9290490 Si02
#       8
#     8   8   8   8   8   8   8   8
#     4  10  22  41  66  95 126 176 216 258 332 390
#     4  11  22  40  66  95 133 169 214 270 327 393
#     4  12  25  42  65 102 131 170 220 275 328 391
#     4  12  24  43  67  96 133 171 221 274 325 395
#     4  11  24  44  66  91 135 176 220 273 324 397
#     4  11  24  43  67  92 129 177 221 267 333 398
#     4  11  22  40  68  94 128 171 215 270 328 392
#     4  12  23  41  64 101 135 163 216 272 335 388
#
# _framework density 18.835972999999999
#
# number of rings (size 3 to 8) (size 9 to 14) (size 15 to 20)
#    0.000    0.750    7.500    0.750    0.000    1.000 
#    0.000    0.000    2.750    0.000    0.000    0.000 
#    0.000    0.000    0.000    0.000    0.000    0.000 
#
# Total GULP energy -178615.481963 kJ/mol
# GULP energy per Si atom -5581.733811 kJ/mol
# Density = 1.879310 g / cm^3
# Si number density = 18.835973 Si / 1000 Ang^3
#
#
#
# Elastic Constant Matrix: (Units=GPa)
#
#
# Indices 1 2 3 4 5 6 
#
# 1 94.4255 30.5106 33.3123 0.0002 5.1859 -0.0001
# 2 30.5106 91.6841 29.9109 -0.0003 -1.8922 0.0001
# 3 33.3123 29.9109 83.8201 -0.0003 3.6935 0.0001
# 4 0.0002 -0.0003 -0.0003 18.1970 0.0000 16.1604
# 5 5.1859 -1.8922 3.6935 0.0000 31.8350 0.0000
# 6 -0.0001 0.0001 0.0001 16.1604 0.0000 20.2403
#
#
#
# Elastic Compliance Matrix: (Units=1/GPa)
#
#
# Indices 1 2 3 4 5 6 
#
# 1 0.013110 -0.003087 -0.004027 -0.000001 -0.001852 0.000001
# 2 -0.003087 0.013121 -0.003530 0.000001 0.001692 -0.000001
# 3 -0.004027 -0.003530 0.014847 0.000001 -0.001276 -0.000001
# 4 -0.000001 0.000001 0.000001 0.188894 0.000000 -0.150818
# 5 -0.001852 0.001692 -0.001276 0.000000 0.031962 0.000000
# 6 0.000001 -0.000001 -0.000001 -0.150818 0.000000 0.169824
#
#
# Mechanical properties :
#
#
# Convention : Reuss Voigt Hill
#
# Bulk Modulus (GPa) = 50.53167 50.82191 50.67679
# Shear Modulus (GPa) = 10.87802 25.80084 18.33943
#
# Velocity S-wave (km/s) = 2.40576 3.70505 3.12370
# Velocity P-wave (km/s) = 5.88238 6.73372 6.32240
#
# Compressibility (1/GPa) = 0.01978957
#
# Stress axis : x y z
#
# Youngs Moduli (GPa) = 76.27562 76.21444 67.35549
#
# Poissons Ratio (x) = 0.23530 0.27125
# Poissons Ratio (y) = 0.23548 0.23775
# Poissons Ratio (z) = 0.30717 0.26902
#
# Static dielectric constant tensor:
#      x y z
#    x 1.644620 0.000000 0.016400 
#    y 0.000000 1.662550 0.000000 
#    z 0.016400 0.000000 1.638340 
# 
# From -- ./inp_files/257502.got.cif
#   From: 2010.05.17/outbox.cif.g08.bks.cpg/sg15_129_cif.got.tgz:257502.got - 2010.06.03 18:47:42.
