data_PCOD9290544
_publ_section_title
;
Structure prediction by ZEFSAII (Michael W. Deem and Ramdas Pophale) SiO2 
 PCOD9290544
Probable space group: C 2/C
;
_chemical_formula_sum "Si O2"
_cell_formula_units_Z 48
_cell_length_a 21.388084
_cell_length_b 11.614925
_cell_length_c 13.303635
_cell_angle_alpha 90.000000
_cell_angle_beta 136.600282
_cell_angle_gamma 90.000000
_cell_volume 2270.745206
_symmetry_space_group_name_H-M "C 2/C"
_symmetry_group_IT_number 15
_symmetry_cell_setting 'monoclinic'
loop_
_space_group_symop_operation_xyz
x,y,z
-x,y,1/2-z
-x,-y,-z
x,-y,1/2+z
1/2+x,1/2+y,z
1/2-x,1/2+y,1/2-z
1/2-x,1/2-y,-z
1/2+x,1/2-y,1/2+z
loop_
_atom_site_type_symbol
_atom_site_label
_atom_site_fract_x
_atom_site_fract_y
_atom_site_fract_z
Si Si1 0.882778 0.996886 0.767000
Si Si2 0.575943 0.905530 0.569153
Si Si3 0.032472 0.813374 0.900251
Si Si4 0.279194 0.363082 0.473516
Si Si5 0.189234 0.234041 0.830236
Si Si6 0.229742 0.555916 0.718163
O O1 0.818847 0.949167 0.602586
O O2 0.973485 0.921092 0.870499
O O3 0.887747 0.133147 0.750879
O O4 0.823458 0.988425 0.799645
O O5 0.525748 0.797667 0.460302
O O6 0.637775 0.845915 0.728558
O O7 0.500000 0.000000 0.500000
O O8 0.649965 0.972397 0.587289
O O9 0.000000 0.787675 0.750000
O O10 0.138474 0.836821 0.007400
O O11 0.250000 0.250000 0.500000
O O12 0.210040 0.416223 0.312051
O O13 0.257327 0.174438 0.828235
O O14 0.250000 0.250000 0.000000
#
# Coordination Sequence:
#
# PCOD9290544 Si02
#       6
#     8   8   8   8   8   8
#     4   9  22  40  71  98 134 181 234 292 353 431
#     4  12  26  41  66 107 141 185 234 303 364 429
#     4  10  22  41  67 106 139 176 235 300 353 438
#     4  11  21  39  69  99 135 183 237 282 351 433
#     4  10  23  46  71  99 140 185 243 290 363 434
#     4  10  24  41  68  96 136 192 232 285 360 431
#
# _framework density 21.138435000000001
#
# number of rings (size 3 to 8) (size 9 to 14) (size 15 to 20)
#    1.000    0.667    1.667    2.000    4.667    4.000 
#    0.000    5.000    0.000    0.000    0.000    0.000 
#    0.000    0.000    0.000    0.000    0.000    0.000 
#
# Total GULP energy -133662.044168 kJ/mol
# GULP energy per Si atom -5569.251840 kJ/mol
# Density = 2.109032 g / cm^3
# Si number density = 21.138435 Si / 1000 Ang^3
#
#
#
# Elastic Constant Matrix: (Units=GPa)
#
#
# Indices 1 2 3 4 5 6 
#
# 1 89.3794 61.6788 35.0079 0.0000 6.7616 0.0000
# 2 61.6788 156.7525 65.1735 0.0000 0.0579 0.0000
# 3 35.0079 65.1735 74.4745 0.0000 3.4150 0.0000
# 4 0.0000 0.0000 0.0000 40.8861 0.0000 5.4757
# 5 6.7616 0.0579 3.4150 0.0000 33.2479 0.0000
# 6 0.0000 0.0000 0.0000 5.4757 0.0000 39.3269
#
#
#
# Elastic Compliance Matrix: (Units=1/GPa)
#
#
# Indices 1 2 3 4 5 6 
#
# 1 0.016092 -0.005096 -0.002969 0.000000 -0.002959 0.000000
# 2 -0.005096 0.011668 -0.007899 0.000000 0.001828 0.000000
# 3 -0.002969 -0.007899 0.021810 0.000000 -0.001623 0.000000
# 4 0.000000 0.000000 0.000000 0.024923 0.000000 -0.003470
# 5 -0.002959 0.001828 -0.001623 0.000000 0.030842 0.000000
# 6 0.000000 0.000000 0.000000 -0.003470 0.000000 0.025911
#
#
# Mechanical properties :
#
#
# Convention : Reuss Voigt Hill
#
# Bulk Modulus (GPa) = 56.68426 71.59189 64.13807
# Shear Modulus (GPa) = 29.57601 33.27525 31.42563
#
# Velocity S-wave (km/s) = 3.74459 3.97187 3.85990
# Velocity P-wave (km/s) = 6.75055 7.41458 7.09034
#
# Compressibility (1/GPa) = 0.01764158
#
# Stress axis : x y z
#
# Youngs Moduli (GPa) = 62.14359 85.70088 45.85037
#
# Poissons Ratio (x) = 0.43677 0.13611
# Poissons Ratio (y) = 0.31671 0.36219
# Poissons Ratio (z) = 0.18448 0.67698
#
# Static dielectric constant tensor:
#      x y z
#    x 1.790750 0.000000 0.019450 
#    y 0.000000 1.866300 0.000000 
#    z 0.019450 0.000000 1.962990 
# 
# From -- ./inp_files/167893.got.cif
#   From: 2010.05.17/outbox.cif.g08.bks.cpg/sg15_84_cif.got.tgz:167893.got - 2010.06.03 18:47:42.
