data_PCOD9290261
_publ_section_title
;
Structure prediction by ZEFSAII (Michael W. Deem and Ramdas Pophale) SiO2 
 PCOD9290261
Probable space group: C 2/C
;
_chemical_formula_sum "Si O2"
_cell_formula_units_Z 48
_cell_length_a 9.410259
_cell_length_b 10.880310
_cell_length_c 22.154955
_cell_angle_alpha 90.000000
_cell_angle_beta 86.571424
_cell_angle_gamma 90.000000
_cell_volume 2264.308981
_symmetry_space_group_name_H-M "C 2/C"
_symmetry_group_IT_number 15
_symmetry_cell_setting 'monoclinic'
loop_
_space_group_symop_operation_xyz
x,y,z
-x,y,1/2-z
-x,-y,-z
x,-y,1/2+z
1/2+x,1/2+y,z
1/2-x,1/2+y,1/2-z
1/2-x,1/2-y,-z
1/2+x,1/2-y,1/2+z
loop_
_atom_site_type_symbol
_atom_site_label
_atom_site_fract_x
_atom_site_fract_y
_atom_site_fract_z
Si Si1 0.448001 0.514481 0.932460
Si Si2 0.168652 0.384642 0.238608
Si Si3 0.148630 0.351477 0.782796
Si Si4 0.521681 0.798517 0.595959
Si Si5 0.690875 0.114731 0.488471
Si Si6 0.752926 0.984697 0.614066
O O1 0.445933 0.657621 0.917622
O O2 0.294815 0.451866 0.937728
O O3 0.577890 0.460866 0.889892
O O4 0.500000 0.500000 0.000000
O O5 0.206573 0.508031 0.276665
O O6 0.252280 0.257027 0.245997
O O7 0.205415 0.429516 0.170002
O O8 0.000000 0.363881 0.250000
O O9 0.000000 0.353407 0.750000
O O10 0.102091 0.314501 0.851420
O O11 0.463280 0.864781 0.536992
O O12 0.661767 0.861848 0.617970
O O13 0.750000 0.250000 0.500000
O O14 0.707798 0.046853 0.551816
#
# Coordination Sequence:
#
# PCOD9290261 Si02
#       6
#     8   8   8   8   8   8
#     4  10  22  41  64  93 133 167 208 267 318 385
#     4  11  23  47  67  97 132 175 223 281 328 385
#     4  11  24  45  69  94 136 171 228 277 331 389
#     4  12  22  44  67  94 134 175 212 272 327 392
#     4  11  22  42  65  97 135 168 212 265 325 394
#     4  11  22  44  67  94 133 171 213 273 325 389
#
# _framework density 21.198519000000001
#
# number of rings (size 3 to 8) (size 9 to 14) (size 15 to 20)
#    0.000    1.000    8.333    0.500    0.000    4.667 
#    9.000    0.000    0.000    0.000    0.000    0.000 
#    0.000    0.000    0.000    0.000    0.000    0.000 
#
# Total GULP energy -133996.987890 kJ/mol
# GULP energy per Si atom -5583.207829 kJ/mol
# Density = 2.115027 g / cm^3
# Si number density = 21.198519 Si / 1000 Ang^3
#
#
#
# Elastic Constant Matrix: (Units=GPa)
#
#
# Indices 1 2 3 4 5 6 
#
# 1 37.4141 25.5840 -2.9645 0.0000 -15.4877 0.0000
# 2 25.5840 136.9859 12.7449 0.0000 -16.9213 0.0000
# 3 -2.9645 12.7449 76.5307 0.0000 -17.6335 0.0000
# 4 0.0000 0.0000 0.0000 36.8323 0.0000 -9.8257
# 5 -15.4877 -16.9213 -17.6335 0.0000 33.5115 0.0000
# 6 0.0000 0.0000 0.0000 -9.8257 0.0000 35.6833
#
#
#
# Elastic Compliance Matrix: (Units=1/GPa)
#
#
# Indices 1 2 3 4 5 6 
#
# 1 0.038790 -0.005566 0.006728 0.000000 0.018657 0.000000
# 2 -0.005566 0.008598 -0.001411 0.000000 0.001027 0.000000
# 3 0.006728 -0.001411 0.016062 0.000000 0.010849 0.000000
# 4 0.000000 0.000000 0.000000 0.029303 0.000000 0.008069
# 5 0.018657 0.001027 0.010849 0.000000 0.044690 0.000000
# 6 0.000000 0.000000 0.000000 0.008069 0.000000 0.030246
#
#
# Mechanical properties :
#
#
# Convention : Reuss Voigt Hill
#
# Bulk Modulus (GPa) = 15.88491 35.73996 25.81243
# Shear Modulus (GPa) = 26.43129 35.57653 31.00391
#
# Velocity S-wave (km/s) = 3.53490 4.10110 3.82848
# Velocity P-wave (km/s) = 4.91634 6.27069 5.63436
#
# Compressibility (1/GPa) = 0.06295282
#
# Stress axis : x y z
#
# Youngs Moduli (GPa) = 25.77965 116.31147 62.25903
#
# Poissons Ratio (x) = 0.64739 -0.41890
# Poissons Ratio (y) = 0.14349 0.08784
# Poissons Ratio (z) = -0.17345 0.16410
#
# Static dielectric constant tensor:
#      x y z
#    x 1.796860 0.000000 -0.015910 
#    y 0.000000 1.750750 0.000000 
#    z -0.015910 0.000000 1.790330 
# 
# From -- ./inp_files/263489.got.cif
#   From: 2010.05.17/outbox.cif.g08.bks.cpg/sg15_132_cif.got.tgz:263489.got - 2010.06.03 18:47:42.
