data_PCOD9290160
_publ_section_title
;
Structure prediction by ZEFSAII (Michael W. Deem and Ramdas Pophale) SiO2 
 PCOD9290160
Probable space group: C 2/C
;
_chemical_formula_sum "Si O2"
_cell_formula_units_Z 40
_cell_length_a 22.448991
_cell_length_b 5.189799
_cell_length_c 27.976199
_cell_angle_alpha 90.000000
_cell_angle_beta 148.611543
_cell_angle_gamma 90.000000
_cell_volume 1697.612065
_symmetry_space_group_name_H-M "C 2/C"
_symmetry_group_IT_number 15
_symmetry_cell_setting 'monoclinic'
loop_
_space_group_symop_operation_xyz
x,y,z
-x,y,1/2-z
-x,-y,-z
x,-y,1/2+z
1/2+x,1/2+y,z
1/2-x,1/2+y,1/2-z
1/2-x,1/2-y,-z
1/2+x,1/2-y,1/2+z
loop_
_atom_site_type_symbol
_atom_site_label
_atom_site_fract_x
_atom_site_fract_y
_atom_site_fract_z
Si Si1 0.271121 0.667226 0.958785
Si Si2 0.693431 0.096454 0.231534
Si Si3 0.494983 0.576535 0.615498
Si Si4 0.869025 0.717956 0.723516
Si Si5 0.071691 0.332988 0.838086
O O1 0.205957 0.819578 0.871916
O O2 0.194085 0.409285 0.902715
O O3 0.250000 0.750000 0.000000
O O4 0.402113 0.625580 0.033158
O O5 0.776793 0.337123 0.277561
O O6 0.566370 0.215153 0.134660
O O7 0.694936 0.995535 0.287397
O O8 0.591629 0.434458 0.712690
O O9 0.418850 0.713570 0.603793
O O10 0.987095 0.577656 0.788695
O O11 0.000000 0.172753 0.750000
#
# Coordination Sequence:
#
# PCOD9290160 Si02
#       5
#     8   8   8   8   8
#     4  11  22  38  64 103 147 184 219 271 336 422
#     4  11  23  47  76  92 126 185 235 299 351 384
#     4  11  22  39  66  97 135 178 231 275 340 415
#     4  10  22  41  63 101 135 179 230 275 335 414
#     4   9  20  35  57  91 138 184 216 264 332 404
#
# _framework density 23.562508999999999
#
# number of rings (size 3 to 8) (size 9 to 14) (size 15 to 20)
#    0.000    1.600    4.000    0.600    2.800    0.000 
#    3.600    2.000    0.000    0.000    0.000    0.000 
#    0.000    0.000    0.000    0.000    0.000    0.000 
#
# Total GULP energy -111445.609017 kJ/mol
# GULP energy per Si atom -5572.280451 kJ/mol
# Density = 2.350888 g / cm^3
# Si number density = 23.562509 Si / 1000 Ang^3
#
#
#
# Elastic Constant Matrix: (Units=GPa)
#
#
# Indices 1 2 3 4 5 6 
#
# 1 98.4435 34.9890 21.8448 -0.0013 8.8587 0.0028
# 2 34.9890 92.0613 21.4305 -0.0072 -0.0653 0.0600
# 3 21.8448 21.4305 129.9063 -0.0018 -1.5325 0.0035
# 4 -0.0013 -0.0072 -0.0018 23.3232 -0.0018 3.7835
# 5 8.8587 -0.0653 -1.5325 -0.0018 14.7165 0.0027
# 6 0.0028 0.0600 0.0035 3.7835 0.0027 34.1124
#
#
#
# Elastic Compliance Matrix: (Units=1/GPa)
#
#
# Indices 1 2 3 4 5 6 
#
# 1 0.012809 -0.004524 -0.001501 -0.000003 -0.007887 0.000008
# 2 -0.004524 0.012895 -0.001335 0.000008 0.002642 -0.000023
# 3 -0.001501 -0.001335 0.008191 0.000000 0.001750 0.000001
# 4 -0.000003 0.000008 0.000000 0.043661 0.000008 -0.004843
# 5 -0.007887 0.002642 0.001750 0.000008 0.072892 -0.000011
# 6 0.000008 -0.000023 0.000001 -0.004843 -0.000011 0.029852
#
#
# Mechanical properties :
#
#
# Convention : Reuss Voigt Hill
#
# Bulk Modulus (GPa) = 52.15364 52.99330 52.57347
# Shear Modulus (GPa) = 24.82468 30.57352 27.69910
#
# Velocity S-wave (km/s) = 3.24939 3.60606 3.43236
# Velocity P-wave (km/s) = 6.02165 6.31487 6.17000
#
# Compressibility (1/GPa) = 0.01917412
#
# Stress axis : x y z
#
# Youngs Moduli (GPa) = 78.07075 77.55175 122.08359
#
# Poissons Ratio (x) = 0.35088 0.18319
# Poissons Ratio (y) = 0.35323 0.16301
# Poissons Ratio (z) = 0.11715 0.10355
#
# Static dielectric constant tensor:
#      x y z
#    x 1.978670 -0.000020 -0.035370 
#    y -0.000020 2.014270 0.000000 
#    z -0.035370 0.000000 1.994630 
# 
# From -- ./inp_files/170469.got.cif
#   From: 2010.05.17/outbox.cif.g08.bks.cpg/sg15_86_cif.got.tgz:170469.got - 2010.06.03 18:47:42.
