data_PCOD9290944
_publ_section_title
;
Structure prediction by ZEFSAII (Michael W. Deem and Ramdas Pophale) SiO2 
 PCOD9290944
Probable space group: C 2/C
;
_chemical_formula_sum "Si O2"
_cell_formula_units_Z 52
_cell_length_a 14.952525
_cell_length_b 15.225571
_cell_length_c 12.055625
_cell_angle_alpha 90.000000
_cell_angle_beta 69.102591
_cell_angle_gamma 90.000000
_cell_volume 2564.054774
_symmetry_space_group_name_H-M "C 2/C"
_symmetry_group_IT_number 15
_symmetry_cell_setting 'monoclinic'
loop_
_space_group_symop_operation_xyz
x,y,z
-x,y,1/2-z
-x,-y,-z
x,-y,1/2+z
1/2+x,1/2+y,z
1/2-x,1/2+y,1/2-z
1/2-x,1/2-y,-z
1/2+x,1/2-y,1/2+z
loop_
_atom_site_type_symbol
_atom_site_label
_atom_site_fract_x
_atom_site_fract_y
_atom_site_fract_z
Si Si1 0.379918 0.281424 0.697041
Si Si2 0.516707 0.601912 0.977829
Si Si3 0.854345 0.787808 0.962459
Si Si4 0.009466 0.367918 0.067139
Si Si5 0.699017 0.203063 0.127710
Si Si6 0.000000 0.193385 0.750000
Si Si7 0.075431 0.448811 0.619505
O O1 0.443284 0.343972 0.589532
O O2 0.385800 0.307278 0.822483
O O3 0.424660 0.182974 0.669657
O O4 0.272732 0.286557 0.696463
O O5 0.622524 0.628634 0.973361
O O6 0.500000 0.500000 0.000000
O O7 0.504110 0.634807 0.858562
O O8 0.916232 0.709396 0.988216
O O9 0.750000 0.750000 0.000000
O O10 0.066562 0.447018 0.100654
O O11 0.962473 0.403965 0.976140
O O12 0.597107 0.249245 0.197161
O O13 0.672548 0.101702 0.110027
O O14 0.750000 0.250000 0.000000
O O15 0.000000 0.432151 0.750000
#
# Coordination Sequence:
#
# PCOD9290944 Si02
#       7
#     8   8   8   8   8   4   8
#     4  11  23  43  70  92 138 179 226 277 345 411
#     4  11  25  43  68  99 133 182 231 287 340 409
#     4  11  24  43  66  93 134 179 228 274 344 412
#     4  10  22  42  61  96 129 175 216 279 340 390
#     4  12  22  42  67 104 132 180 224 275 347 406
#     4  12  24  44  72  94 144 176 226 282 350 416
#     4  11  22  37  68  94 133 166 222 277 329 402
#
# _framework density 20.280379
#
# number of rings (size 3 to 8) (size 9 to 14) (size 15 to 20)
#    0.000    0.923    3.846    4.615    4.308    1.231 
#    0.000    1.538    0.000    0.000    0.000    0.000 
#    0.000    0.000    0.000    0.000    0.000    0.000 
#
# Total GULP energy -145213.944180 kJ/mol
# GULP energy per Si atom -5585.151699 kJ/mol
# Density = 2.023422 g / cm^3
# Si number density = 20.280379 Si / 1000 Ang^3
#
#
#
# Elastic Constant Matrix: (Units=GPa)
#
#
# Indices 1 2 3 4 5 6 
#
# 1 112.1756 54.2707 2.1544 0.0000 -1.1596 0.0000
# 2 54.2707 147.4911 30.3013 0.0000 8.2791 0.0000
# 3 2.1544 30.3013 91.6214 0.0000 10.0978 0.0000
# 4 0.0000 0.0000 0.0000 7.2759 0.0000 4.6142
# 5 -1.1596 8.2791 10.0978 0.0000 36.7242 0.0000
# 6 0.0000 0.0000 0.0000 4.6142 0.0000 36.2060
#
#
#
# Elastic Compliance Matrix: (Units=1/GPa)
#
#
# Indices 1 2 3 4 5 6 
#
# 1 0.010995 -0.004321 0.001057 0.000000 0.001031 0.000000
# 2 -0.004321 0.009009 -0.002721 0.000000 -0.001419 0.000000
# 3 0.001057 -0.002721 0.012085 0.000000 -0.002676 0.000000
# 4 0.000000 0.000000 0.000000 0.149525 0.000000 -0.019056
# 5 0.001031 -0.001419 -0.002676 0.000000 0.028318 0.000000
# 6 0.000000 0.000000 0.000000 -0.019056 0.000000 0.030048
#
#
# Mechanical properties :
#
#
# Convention : Reuss Voigt Hill
#
# Bulk Modulus (GPa) = 49.70688 58.30455 54.00571
# Shear Modulus (GPa) = 19.33065 33.67868 26.50466
#
# Velocity S-wave (km/s) = 3.09069 4.07953 3.61905
# Velocity P-wave (km/s) = 6.10734 7.14155 6.64460
#
# Compressibility (1/GPa) = 0.02011794
#
# Stress axis : x y z
#
# Youngs Moduli (GPa) = 90.94735 111.00369 82.75012
#
# Poissons Ratio (x) = 0.47963 -0.08745
# Poissons Ratio (y) = 0.39297 0.22519
# Poissons Ratio (z) = -0.09612 0.30208
#
# Static dielectric constant tensor:
#      x y z
#    x 1.754620 0.000000 -0.011780 
#    y 0.000000 1.739970 0.000000 
#    z -0.011780 0.000000 1.739800 
# 
# From -- ./inp_files/96934.got.cif
#   From: 2010.05.17/outbox.cif.g08.bks.cpg/sg15_49_cif.got.tgz:96934.got - 2010.06.03 18:47:42.
