data_PCOD9290958
_publ_section_title
;
Structure prediction by ZEFSAII (Michael W. Deem and Ramdas Pophale) SiO2 
 PCOD9290958
Probable space group: C 2/C
;
_chemical_formula_sum "Si O2"
_cell_formula_units_Z 56
_cell_length_a 10.562769
_cell_length_b 31.773888
_cell_length_c 11.864423
_cell_angle_alpha 90.000000
_cell_angle_beta 40.759794
_cell_angle_gamma 90.000000
_cell_volume 2599.766094
_symmetry_space_group_name_H-M "C 2/C"
_symmetry_group_IT_number 15
_symmetry_cell_setting 'monoclinic'
loop_
_space_group_symop_operation_xyz
x,y,z
-x,y,1/2-z
-x,-y,-z
x,-y,1/2+z
1/2+x,1/2+y,z
1/2-x,1/2+y,1/2-z
1/2-x,1/2-y,-z
1/2+x,1/2-y,1/2+z
loop_
_atom_site_type_symbol
_atom_site_label
_atom_site_fract_x
_atom_site_fract_y
_atom_site_fract_z
Si Si1 0.024587 0.437168 0.367076
Si Si2 0.944497 0.950914 0.037228
Si Si3 0.554626 0.702871 0.846845
Si Si4 0.610105 0.858260 0.430107
Si Si5 0.798525 0.012207 0.425884
Si Si6 0.848015 0.703123 0.249754
Si Si7 0.291954 0.920297 0.939095
O O1 0.247138 0.448077 0.241013
O O2 0.007071 0.389299 0.412423
O O3 0.000000 0.446000 0.250000
O O4 0.862590 0.464514 0.539398
O O5 0.879363 0.949152 0.950819
O O6 0.110672 0.921033 0.974242
O O7 0.000000 0.000000 0.000000
O O8 0.500000 0.701418 0.750000
O O9 0.727346 0.669560 0.740735
O O10 0.636504 0.749916 0.811720
O O11 0.364172 0.695380 0.052364
O O12 0.443967 0.830274 0.600645
O O13 0.721310 0.887887 0.447918
O O14 0.000000 0.993412 0.250000
O O15 0.695480 0.970250 0.541467
O O16 0.000000 0.703182 0.250000
O O17 0.500000 0.908342 0.750000
#
# Coordination Sequence:
#
# PCOD9290958 Si02
#       7
#     8   8   8   8   8   8   8
#     4  10  24  45  62  86 126 172 219 270 325 377
#     4   9  20  39  62  82 119 170 213 258 316 372
#     4  11  21  38  64  89 134 169 202 246 327 407
#     4  12  26  37  66  99 129 161 215 275 323 379
#     4  10  22  42  62  81 122 183 223 254 320 379
#     4  11  20  40  61  92 129 171 202 246 326 411
#     4  11  25  38  59  95 132 161 213 274 320 376
#
# _framework density 21.540400999999999
#
# number of rings (size 3 to 8) (size 9 to 14) (size 15 to 20)
#    0.000    1.429    2.857    3.429    8.000    0.571 
#    2.571    0.000    0.000    0.857    0.000    0.000 
#    0.000    0.000    0.000    0.000    0.000    0.000 
#
# Total GULP energy -156068.538933 kJ/mol
# GULP energy per Si atom -5573.876390 kJ/mol
# Density = 2.149137 g / cm^3
# Si number density = 21.540401 Si / 1000 Ang^3
#
#
#
# Elastic Constant Matrix: (Units=GPa)
#
#
# Indices 1 2 3 4 5 6 
#
# 1 42.0210 17.5171 26.4888 0.0000 -14.8550 0.0000
# 2 17.5171 118.9084 59.3562 0.0000 -8.3506 0.0000
# 3 26.4888 59.3562 169.4503 0.0000 -23.3052 0.0000
# 4 0.0000 0.0000 0.0000 14.7771 0.0000 -0.1826
# 5 -14.8550 -8.3506 -23.3052 0.0000 21.6505 0.0000
# 6 0.0000 0.0000 0.0000 -0.1826 0.0000 31.4043
#
#
#
# Elastic Compliance Matrix: (Units=1/GPa)
#
#
# Indices 1 2 3 4 5 6 
#
# 1 0.032903 -0.002725 -0.001442 0.000000 0.019972 0.000000
# 2 -0.002725 0.010418 -0.003437 0.000000 -0.001550 0.000000
# 3 -0.001442 -0.003437 0.008231 0.000000 0.006545 0.000000
# 4 0.000000 0.000000 0.000000 0.067677 0.000000 0.000394
# 5 0.019972 -0.001550 0.006545 0.000000 0.066339 0.000000
# 6 0.000000 0.000000 0.000000 0.000394 0.000000 0.031845
#
#
# Mechanical properties :
#
#
# Convention : Reuss Voigt Hill
#
# Bulk Modulus (GPa) = 27.51415 59.67821 43.59618
# Shear Modulus (GPa) = 20.43032 28.70089 24.56561
#
# Velocity S-wave (km/s) = 3.08306 3.65419 3.38071
# Velocity P-wave (km/s) = 5.04724 6.75052 5.96004
#
# Compressibility (1/GPa) = 0.03634493
#
# Stress axis : x y z
#
# Youngs Moduli (GPa) = 30.39231 95.98984 121.49503
#
# Poissons Ratio (x) = 0.26154 0.17522
# Poissons Ratio (y) = 0.08281 0.41752
# Poissons Ratio (z) = 0.04383 0.32987
#
# Static dielectric constant tensor:
#      x y z
#    x 1.930960 0.000000 0.046720 
#    y 0.000000 1.785490 0.000000 
#    z 0.046720 0.000000 1.908140 
# 
# From -- ./inp_files/149248.got.cif
#   From: 2010.05.17/outbox.cif.g08.bks.cpg/sg15_75_cif.got.tgz:149248.got - 2010.06.03 18:47:42.
