data_PCOD9290522
_publ_section_title
;
Structure prediction by ZEFSAII (Michael W. Deem and Ramdas Pophale) SiO2 
 PCOD9290522
Probable space group: C 2/C
;
_chemical_formula_sum "Si O2"
_cell_formula_units_Z 32
_cell_length_a 21.484039
_cell_length_b 7.713928
_cell_length_c 14.281720
_cell_angle_alpha 90.000000
_cell_angle_beta 144.346977
_cell_angle_gamma 90.000000
_cell_volume 1379.582237
_symmetry_space_group_name_H-M "C 2/C"
_symmetry_group_IT_number 15
_symmetry_cell_setting 'monoclinic'
loop_
_space_group_symop_operation_xyz
x,y,z
-x,y,1/2-z
-x,-y,-z
x,-y,1/2+z
1/2+x,1/2+y,z
1/2-x,1/2+y,1/2-z
1/2-x,1/2-y,-z
1/2+x,1/2-y,1/2+z
loop_
_atom_site_type_symbol
_atom_site_label
_atom_site_fract_x
_atom_site_fract_y
_atom_site_fract_z
Si Si1 0.282557 0.821065 0.197235
Si Si2 0.615677 0.483776 0.597571
Si Si3 0.066130 0.355300 0.956920
Si Si4 0.831376 0.411118 0.606619
O O1 0.315063 0.620348 0.240519
O O2 0.378705 0.905501 0.378068
O O3 0.176925 0.854027 0.130099
O O4 0.282172 0.924365 0.100382
O O5 0.500000 0.500000 0.500000
O O6 0.603593 0.346066 0.497962
O O7 0.118925 0.451698 0.934368
O O8 0.939151 0.358105 0.794920
O O9 0.750000 0.250000 0.500000
#
# Coordination Sequence:
#
# PCOD9290522 Si02
#       4
#     8   8   8   8
#     4  10  22  41  66  98 137 187 230 290 355 415
#     4  10  23  39  67 101 139 185 234 287 353 427
#     4   9  23  35  66  95 136 180 235 279 358 400
#     4  11  19  39  64  99 130 185 237 283 345 426
#
# _framework density 23.195426999999999
#
# number of rings (size 3 to 8) (size 9 to 14) (size 15 to 20)
#    1.500    0.500    2.500    0.750    7.000    0.000 
#    0.000    1.250    0.000    3.000    0.000    0.000 
#    0.000    0.000    0.000    0.000    0.000    0.000 
#
# Total GULP energy -89169.854639 kJ/mol
# GULP energy per Si atom -5573.115915 kJ/mol
# Density = 2.314263 g / cm^3
# Si number density = 23.195427 Si / 1000 Ang^3
#
#
#
# Elastic Constant Matrix: (Units=GPa)
#
#
# Indices 1 2 3 4 5 6 
#
# 1 79.5075 28.3273 38.0935 0.0000 18.1621 0.0000
# 2 28.3273 55.5899 13.9753 0.0000 18.6923 0.0000
# 3 38.0935 13.9753 107.3905 0.0000 25.7276 0.0000
# 4 0.0000 0.0000 0.0000 36.2260 0.0000 7.4612
# 5 18.1621 18.6923 25.7276 0.0000 44.9202 0.0000
# 6 0.0000 0.0000 0.0000 7.4612 0.0000 18.8137
#
#
#
# Elastic Compliance Matrix: (Units=1/GPa)
#
#
# Indices 1 2 3 4 5 6 
#
# 1 0.017961 -0.007453 -0.005105 0.000000 -0.001237 0.000000
# 2 -0.007453 0.024059 0.001379 0.000000 -0.007787 0.000000
# 3 -0.005105 0.001379 0.012270 0.000000 -0.005537 0.000000
# 4 0.000000 0.000000 0.000000 0.030060 0.000000 -0.011921
# 5 -0.001237 -0.007787 -0.005537 0.000000 0.029174 0.000000
# 6 0.000000 0.000000 0.000000 -0.011921 0.000000 0.057880
#
#
# Mechanical properties :
#
#
# Convention : Reuss Voigt Hill
#
# Bulk Modulus (GPa) = 31.31810 44.80890 38.06350
# Shear Modulus (GPa) = 24.46101 30.79811 27.62956
#
# Velocity S-wave (km/s) = 3.25092 3.64781 3.45507
# Velocity P-wave (km/s) = 5.25571 6.09113 5.68878
#
# Compressibility (1/GPa) = 0.03193041
#
# Stress axis : x y z
#
# Youngs Moduli (GPa) = 55.67506 41.56462 81.50125
#
# Poissons Ratio (x) = 0.30980 0.41606
# Poissons Ratio (y) = 0.41497 -0.11236
# Poissons Ratio (z) = 0.28422 -0.05730
#
# Static dielectric constant tensor:
#      x y z
#    x 1.859410 0.000000 -0.026840 
#    y 0.000000 1.978010 0.000000 
#    z -0.026840 0.000000 1.915380 
# 
# From -- ./inp_files/165521.got.cif
#   From: 2010.05.17/outbox.cif.g08.bks.cpg/sg15_83_cif.got.tgz:165521.got - 2010.06.03 18:47:42.
