data_PCOD9290761
_publ_section_title
;
Structure prediction by ZEFSAII (Michael W. Deem and Ramdas Pophale) SiO2 
 PCOD9290761
Probable space group: C 2/C
;
_chemical_formula_sum "Si O2"
_cell_formula_units_Z 60
_cell_length_a 20.252277
_cell_length_b 23.432577
_cell_length_c 8.854228
_cell_angle_alpha 90.000000
_cell_angle_beta 40.939821
_cell_angle_gamma 90.000000
_cell_volume 2753.355146
_symmetry_space_group_name_H-M "C 2/C"
_symmetry_group_IT_number 15
_symmetry_cell_setting 'monoclinic'
loop_
_space_group_symop_operation_xyz
x,y,z
-x,y,1/2-z
-x,-y,-z
x,-y,1/2+z
1/2+x,1/2+y,z
1/2-x,1/2+y,1/2-z
1/2-x,1/2-y,-z
1/2+x,1/2-y,1/2+z
loop_
_atom_site_type_symbol
_atom_site_label
_atom_site_fract_x
_atom_site_fract_y
_atom_site_fract_z
Si Si1 0.304538 0.642596 0.557291
Si Si2 0.704466 0.745462 0.741678
Si Si3 0.099581 0.360439 0.269072
Si Si4 0.173425 0.075795 0.557663
Si Si5 0.380389 0.731357 0.180300
Si Si6 0.123304 0.367364 0.882065
Si Si7 0.500000 0.338160 0.250000
Si Si8 0.889870 0.028534 0.502437
O O1 0.329095 0.681449 0.660544
O O2 0.187415 0.626310 0.737002
O O3 0.336461 0.684238 0.367657
O O4 0.366100 0.585176 0.449232
O O5 0.750000 0.750000 0.500000
O O6 0.794068 0.756908 0.706105
O O7 0.629583 0.798428 0.877202
O O8 0.097392 0.291022 0.277391
O O9 0.986570 0.382029 0.493420
O O10 0.129049 0.382173 0.050895
O O11 0.283028 0.105936 0.370117
O O12 0.093997 0.122026 0.631268
O O13 0.132015 0.048367 0.786948
O O14 0.178939 0.024278 0.427400
O O15 0.473461 0.703279 0.934188
O O16 0.000000 0.010772 0.250000
#
# Coordination Sequence:
#
# PCOD9290761 Si02
#       8
#     8   8   8   8   8   8   4   8
#     4  11  22  43  65  96 136 177 228 274 343 408
#     4  11  21  36  60  94 136 170 216 279 330 403
#     4  10  22  41  69  98 134 194 217 274 341 411
#     4  12  27  47  69 103 133 180 226 296 345 402
#     4  11  22  40  64  99 136 183 221 272 345 412
#     4  11  22  41  67  98 139 174 238 274 337 405
#     4  12  24  40  68  98 142 172 230 278 348 406
#     4  12  28  46  74 100 131 175 229 288 353 415
#
# _framework density 21.791596999999999
#
# number of rings (size 3 to 8) (size 9 to 14) (size 15 to 20)
#    0.000    0.800    4.667    2.800    5.600    1.067 
#    0.000    0.667    0.000    0.000    0.000    0.000 
#    0.000    0.000    0.000    0.000    0.000    0.000 
#
# Total GULP energy -167658.952115 kJ/mol
# GULP energy per Si atom -5588.631737 kJ/mol
# Density = 2.174200 g / cm^3
# Si number density = 21.791597 Si / 1000 Ang^3
#
#
#
# Elastic Constant Matrix: (Units=GPa)
#
#
# Indices 1 2 3 4 5 6 
#
# 1 51.5298 0.4152 28.0066 0.0000 3.2814 0.0000
# 2 0.4152 60.4514 6.4707 0.0000 4.0318 0.0000
# 3 28.0066 6.4707 104.6369 0.0000 3.4772 0.0000
# 4 0.0000 0.0000 0.0000 29.7930 0.0000 -4.8360
# 5 3.2814 4.0318 3.4772 0.0000 33.5493 0.0000
# 6 0.0000 0.0000 0.0000 -4.8360 0.0000 14.4996
#
#
#
# Elastic Compliance Matrix: (Units=1/GPa)
#
#
# Indices 1 2 3 4 5 6 
#
# 1 0.022817 0.000607 -0.006089 0.000000 -0.001674 0.000000
# 2 0.000607 0.016790 -0.001136 0.000000 -0.001959 0.000000
# 3 -0.006089 -0.001136 0.011271 0.000000 -0.000436 0.000000
# 4 0.000000 0.000000 0.000000 0.035486 0.000000 0.011835
# 5 -0.001674 -0.001959 -0.000436 0.000000 0.030251 0.000000
# 6 0.000000 0.000000 0.000000 0.011835 0.000000 0.072915
#
#
# Mechanical properties :
#
#
# Convention : Reuss Voigt Hill
#
# Bulk Modulus (GPa) = 26.56532 31.82254 29.19393
# Shear Modulus (GPa) = 23.22179 27.68341 25.45260
#
# Velocity S-wave (km/s) = 3.26794 3.56809 3.42131
# Velocity P-wave (km/s) = 5.14357 5.62227 5.38824
#
# Compressibility (1/GPa) = 0.03764307
#
# Stress axis : x y z
#
# Youngs Moduli (GPa) = 43.82628 59.55821 88.72048
#
# Poissons Ratio (x) = -0.03613 0.54023
# Poissons Ratio (y) = -0.02659 0.10075
# Poissons Ratio (z) = 0.26686 0.06763
#
# Static dielectric constant tensor:
#      x y z
#    x 1.821500 0.000000 0.003870 
#    y 0.000000 1.859570 0.000000 
#    z 0.003870 0.000000 1.827900 
# 
# From -- ./inp_files/58727.got.cif
#   From: 2010.05.17/outbox.cif.g08.bks.cpg/sg15_30_cif.got.tgz:58727.got - 2010.06.03 18:47:42.
