data_PCOD9290783
_publ_section_title
;
Structure prediction by ZEFSAII (Michael W. Deem and Ramdas Pophale) SiO2 
 PCOD9290783
Probable space group: C 2/C
;
_chemical_formula_sum "Si O2"
_cell_formula_units_Z 36
_cell_length_a 21.367992
_cell_length_b 12.831983
_cell_length_c 8.249553
_cell_angle_alpha 90.000000
_cell_angle_beta 35.298336
_cell_angle_gamma 90.000000
_cell_volume 1307.046199
_symmetry_space_group_name_H-M "C 2/C"
_symmetry_group_IT_number 15
_symmetry_cell_setting 'monoclinic'
loop_
_space_group_symop_operation_xyz
x,y,z
-x,y,1/2-z
-x,-y,-z
x,-y,1/2+z
1/2+x,1/2+y,z
1/2-x,1/2+y,1/2-z
1/2-x,1/2-y,-z
1/2+x,1/2-y,1/2+z
loop_
_atom_site_type_symbol
_atom_site_label
_atom_site_fract_x
_atom_site_fract_y
_atom_site_fract_z
Si Si1 0.831197 0.132386 0.216817
Si Si2 0.241791 0.087860 0.628100
Si Si3 0.096866 0.471404 0.442939
Si Si4 0.500000 0.220359 0.250000
Si Si5 0.122196 0.746667 0.550811
O O1 0.868855 0.176223 0.311208
O O2 0.705196 0.155538 0.436610
O O3 0.842087 0.008615 0.193373
O O4 0.900939 0.199904 0.942781
O O5 0.310559 0.079901 0.646516
O O6 0.180006 0.195236 0.776224
O O7 0.334855 0.053303 0.304423
O O8 0.030506 0.363053 0.541909
O O9 0.000000 0.523609 0.750000
O O10 0.000000 0.733442 0.750000
#
# Coordination Sequence:
#
# PCOD9290783 Si02
#       5
#     8   8   8   4   8
#     4  11  24  47  71 105 150 196 241 308 365 436
#     4  12  22  45  74 106 146 192 246 302 366 440
#     4  10  22  41  70 103 145 185 248 299 360 429
#     4  10  22  46  74  98 144 200 240 300 368 426
#     4  11  25  48  72 107 151 195 249 296 369 448
#
# _framework density 27.543021
#
# number of rings (size 3 to 8) (size 9 to 14) (size 15 to 20)
#    0.667    0.444    4.444    2.000    1.556    3.556 
#    4.000    2.222    0.000    0.000    0.000    0.000 
#    0.000    0.000    0.000    0.000    0.000    0.000 
#
# Total GULP energy -100396.272504 kJ/mol
# GULP energy per Si atom -5577.570695 kJ/mol
# Density = 2.748033 g / cm^3
# Si number density = 27.543021 Si / 1000 Ang^3
#
#
#
# Elastic Constant Matrix: (Units=GPa)
#
#
# Indices 1 2 3 4 5 6 
#
# 1 129.4794 -2.5286 33.9163 0.0000 -27.3254 0.0000
# 2 -2.5286 97.9248 57.1340 0.0000 -0.5755 0.0000
# 3 33.9163 57.1340 173.6028 0.0000 -23.1878 0.0000
# 4 0.0000 0.0000 0.0000 28.0308 0.0000 7.4478
# 5 -27.3254 -0.5755 -23.1878 0.0000 42.6463 0.0000
# 6 0.0000 0.0000 0.0000 7.4478 0.0000 20.5276
#
#
#
# Elastic Compliance Matrix: (Units=1/GPa)
#
#
# Indices 1 2 3 4 5 6 
#
# 1 0.009214 0.001139 -0.001493 0.000000 0.005108 0.000000
# 2 0.001139 0.012984 -0.004717 0.000000 -0.001660 0.000000
# 3 -0.001493 -0.004717 0.008053 0.000000 0.003358 0.000000
# 4 0.000000 0.000000 0.000000 0.039481 0.000000 -0.014324
# 5 0.005108 -0.001660 0.003358 0.000000 0.028525 0.000000
# 6 0.000000 0.000000 0.000000 -0.014324 0.000000 0.053912
#
#
# Mechanical properties :
#
#
# Convention : Reuss Voigt Hill
#
# Bulk Modulus (GPa) = 49.72905 64.22781 56.97843
# Shear Modulus (GPa) = 29.58316 39.07329 34.32822
#
# Velocity S-wave (km/s) = 3.28086 3.77055 3.53420
# Velocity P-wave (km/s) = 5.69616 6.50583 6.11441
#
# Compressibility (1/GPa) = 0.02010897
#
# Stress axis : x y z
#
# Youngs Moduli (GPa) = 108.52513 77.01854 124.17721
#
# Poissons Ratio (x) = -0.08772 0.18537
# Poissons Ratio (y) = -0.12360 0.58578
# Poissons Ratio (z) = 0.16201 0.36332
#
# Static dielectric constant tensor:
#      x y z
#    x 2.191690 0.000000 0.150500 
#    y 0.000000 2.153770 0.000000 
#    z 0.150500 0.000000 2.349710 
# 
# From -- ./inp_files/55568.got.cif
#   From: 2010.05.17/outbox.cif.g08.bks.cpg/sg15_28_cif.got.tgz:55568.got - 2010.06.03 18:47:42.
