data_PCOD9290578
_publ_section_title
;
Structure prediction by ZEFSAII (Michael W. Deem and Ramdas Pophale) SiO2 
 PCOD9290578
Probable space group: C 2/C
;
_chemical_formula_sum "Si O2"
_cell_formula_units_Z 56
_cell_length_a 18.247174
_cell_length_b 17.405910
_cell_length_c 24.240544
_cell_angle_alpha 90.000000
_cell_angle_beta 159.054979
_cell_angle_gamma 90.000000
_cell_volume 2752.179041
_symmetry_space_group_name_H-M "C 2/C"
_symmetry_group_IT_number 15
_symmetry_cell_setting 'monoclinic'
loop_
_space_group_symop_operation_xyz
x,y,z
-x,y,1/2-z
-x,-y,-z
x,-y,1/2+z
1/2+x,1/2+y,z
1/2-x,1/2+y,1/2-z
1/2-x,1/2-y,-z
1/2+x,1/2-y,1/2+z
loop_
_atom_site_type_symbol
_atom_site_label
_atom_site_fract_x
_atom_site_fract_y
_atom_site_fract_z
Si Si1 0.611038 0.821013 0.270158
Si Si2 0.533030 0.599543 0.932145
Si Si3 0.082924 0.342236 0.121733
Si Si4 0.866777 0.675259 0.100641
Si Si5 0.976737 0.075615 0.065477
Si Si6 0.623732 0.635953 0.281778
Si Si7 0.779055 0.824677 0.830373
O O1 0.500000 0.841716 0.250000
O O2 0.541271 0.839889 0.158815
O O3 0.618549 0.728891 0.275107
O O4 0.818579 0.867995 0.424206
O O5 0.290321 0.611327 0.753028
O O6 0.571052 0.512607 0.977708
O O7 0.686704 0.615076 0.989044
O O8 0.600450 0.658731 0.027636
O O9 0.141216 0.255825 0.140206
O O10 0.868962 0.377522 0.949646
O O11 0.000000 0.683735 0.250000
O O12 0.040142 0.668308 0.176383
O O13 0.750000 0.750000 0.000000
O O14 0.998922 0.097068 0.144722
O O15 0.184518 0.103958 0.184225
O O16 0.500000 0.614332 0.250000
#
# Coordination Sequence:
#
# PCOD9290578 Si02
#       7
#     8   8   8   8   8   8   8
#     4  11  22  38  66  98 126 177 222 263 321 403
#     4  11  25  43  65 100 130 169 226 277 335 383
#     4  12  21  40  70  93 130 172 228 271 318 403
#     4  10  22  41  67  95 127 168 224 276 321 394
#     4  12  24  42  66  96 137 169 217 282 334 396
#     4  11  23  41  63  95 133 174 219 266 334 401
#     4  11  22  40  69  97 127 173 221 273 325 396
#
# _framework density 20.347512999999999
#
# number of rings (size 3 to 8) (size 9 to 14) (size 15 to 20)
#    0.000    0.857    5.714    1.286    0.000    4.571 
#    2.571    0.714    0.000    0.000    0.000    0.000 
#    0.000    0.000    0.000    0.000    0.000    0.000 
#
# Total GULP energy -155991.330461 kJ/mol
# GULP energy per Si atom -5571.118945 kJ/mol
# Density = 2.030120 g / cm^3
# Si number density = 20.347513 Si / 1000 Ang^3
#
#
#
# Elastic Constant Matrix: (Units=GPa)
#
#
# Indices 1 2 3 4 5 6 
#
# 1 73.6421 21.6433 1.6039 -0.0466 19.7972 -0.0003
# 2 21.6433 40.4072 3.4654 0.0665 3.0918 0.0031
# 3 1.6039 3.4654 41.8459 0.0236 8.9500 0.0045
# 4 -0.0466 0.0665 0.0236 -2.8089 0.0001 -5.2639
# 5 19.7972 3.0918 8.9500 0.0001 39.4721 -0.0090
# 6 -0.0003 0.0031 0.0045 -5.2639 -0.0090 12.1999
#
#
#
# Elastic Compliance Matrix: (Units=1/GPa)
#
#
# Indices 1 2 3 4 5 6 
#
# 1 0.018796 -0.009542 0.002025 -0.000283 -0.009139 -0.000127
# 2 -0.009542 0.029860 -0.002765 0.000471 0.003074 0.000198
# 3 0.002025 -0.002765 0.025454 0.000077 -0.006570 0.000020
# 4 -0.000283 0.000471 0.000077 -0.196838 0.000069 -0.084930
# 5 -0.009139 0.003074 -0.006570 0.000069 0.031167 0.000054
# 6 -0.000127 0.000198 0.000020 -0.084930 0.000054 0.045323
#
#
# Mechanical properties :
#
#
# Convention : Reuss Voigt Hill
#
# Bulk Modulus (GPa) = 18.67552 23.25783 20.96668
# Shear Modulus (GPa) = -638.87954 18.38480 -310.24737
#
# Velocity S-wave (km/s) = -17.73882 3.00916 -12.36145
# Velocity P-wave (km/s) = 20.25725 4.85062 13.90733
#
# Compressibility (1/GPa) = 0.05354602
#
# Stress axis : x y z
#
# Youngs Moduli (GPa) = 53.20299 33.48967 39.28696
#
# Poissons Ratio (x) = 0.31954 -0.07954
# Poissons Ratio (y) = 0.50764 0.10862
# Poissons Ratio (z) = -0.10771 0.09259
#
# Static dielectric constant tensor:
#      x y z
#    x 1.711230 0.000020 -0.026680 
#    y 0.000020 1.689520 -0.000020 
#    z -0.026680 -0.000020 1.737310 
# 
# From -- ./inp_files/278046.got.cif
#   From: 2010.05.17/outbox.cif.g08.bks.cpg/sg15_140_cif.got.tgz:278046.got - 2010.06.03 18:47:42.
