data_PCOD9290268
_publ_section_title
;
Structure prediction by ZEFSAII (Michael W. Deem and Ramdas Pophale) SiO2 
 PCOD9290268
Probable space group: C 2/C
;
_chemical_formula_sum "Si O2"
_cell_formula_units_Z 56
_cell_length_a 8.792674
_cell_length_b 17.122452
_cell_length_c 26.775049
_cell_angle_alpha 90.000000
_cell_angle_beta 44.031548
_cell_angle_gamma 90.000000
_cell_volume 2801.792485
_symmetry_space_group_name_H-M "C 2/C"
_symmetry_group_IT_number 15
_symmetry_cell_setting 'monoclinic'
loop_
_space_group_symop_operation_xyz
x,y,z
-x,y,1/2-z
-x,-y,-z
x,-y,1/2+z
1/2+x,1/2+y,z
1/2-x,1/2+y,1/2-z
1/2-x,1/2-y,-z
1/2+x,1/2-y,1/2+z
loop_
_atom_site_type_symbol
_atom_site_label
_atom_site_fract_x
_atom_site_fract_y
_atom_site_fract_z
Si Si1 0.940205 0.958819 0.128419
Si Si2 0.127868 0.931784 0.941139
Si Si3 0.455691 0.019202 0.097014
Si Si4 0.391870 0.267728 0.015692
Si Si5 0.698395 0.421939 0.229519
Si Si6 0.434324 0.103577 0.521068
Si Si7 0.604911 0.174760 0.671828
O O1 0.873799 0.958420 0.201459
O O2 0.779530 0.893472 0.143150
O O3 0.191738 0.929710 0.066292
O O4 0.894097 0.039555 0.110730
O O5 0.367589 0.941775 0.908278
O O6 0.018998 0.849175 0.978453
O O7 0.000000 0.000000 0.000000
O O8 0.518698 0.939058 0.051585
O O9 0.261306 0.990785 0.177172
O O10 0.414664 0.076507 0.060589
O O11 0.236371 0.271202 0.101624
O O12 0.250000 0.250000 0.000000
O O13 0.561003 0.195997 0.978358
O O14 0.500000 0.376750 0.250000
O O15 0.904837 0.366680 0.190293
O O16 0.500000 0.203398 0.750000
#
# Coordination Sequence:
#
# PCOD9290268 Si02
#       7
#     8   8   8   8   8   8   8
#     4  11  22  38  69  97 130 169 223 265 329 393
#     4  12  21  40  66  94 130 167 211 268 322 380
#     4  11  22  40  68  93 130 167 220 268 327 385
#     4  12  26  41  68 100 135 172 223 272 331 390
#     4  11  21  37  66  98 124 172 227 265 322 394
#     4  11  24  40  67 101 128 168 220 273 325 392
#     4  10  22  41  64  94 130 176 214 268 331 399
#
# _framework density 19.987206
#
# number of rings (size 3 to 8) (size 9 to 14) (size 15 to 20)
#    0.000    0.857    5.714    1.714    2.000    2.286 
#    0.000    2.143    0.000    6.857    0.000    0.000 
#    0.000    0.000    0.000    0.000    0.000    0.000 
#
# Total GULP energy -156234.556581 kJ/mol
# GULP energy per Si atom -5579.805592 kJ/mol
# Density = 1.994171 g / cm^3
# Si number density = 19.987206 Si / 1000 Ang^3
#
#
#
# Elastic Constant Matrix: (Units=GPa)
#
#
# Indices 1 2 3 4 5 6 
#
# 1 121.7998 38.5204 47.3891 -0.0007 -3.3457 0.0005
# 2 38.5204 120.5936 35.1340 -0.0003 3.5510 -0.0002
# 3 47.3891 35.1340 86.2875 0.0031 16.4327 -0.0030
# 4 -0.0007 -0.0003 0.0031 20.6133 -0.0005 3.4346
# 5 -3.3457 3.5510 16.4327 -0.0005 41.3131 -0.0008
# 6 0.0005 -0.0002 -0.0030 3.4346 -0.0008 17.8066
#
#
#
# Elastic Compliance Matrix: (Units=1/GPa)
#
#
# Indices 1 2 3 4 5 6 
#
# 1 0.011282 -0.001937 -0.006073 0.000002 0.003496 -0.000001
# 2 -0.001937 0.009764 -0.002945 0.000001 0.000175 0.000000
# 3 -0.006073 -0.002945 0.017494 -0.000004 -0.007197 0.000003
# 4 0.000002 0.000001 -0.000004 0.050123 0.000002 -0.009668
# 5 0.003496 0.000175 -0.007197 0.000002 0.027336 0.000000
# 6 -0.000001 0.000000 0.000003 -0.009668 0.000000 0.058024
#
#
# Mechanical properties :
#
#
# Convention : Reuss Voigt Hill
#
# Bulk Modulus (GPa) = 60.13417 63.41865 61.77641
# Shear Modulus (GPa) = 24.81681 29.78910 27.30296
#
# Velocity S-wave (km/s) = 3.52751 3.86477 3.69998
# Velocity P-wave (km/s) = 6.83686 7.19123 7.01628
#
# Compressibility (1/GPa) = 0.01662948
#
# Stress axis : x y z
#
# Youngs Moduli (GPa) = 88.63938 102.41716 57.16212
#
# Poissons Ratio (x) = 0.19841 0.34713
# Poissons Ratio (y) = 0.17172 0.16835
# Poissons Ratio (z) = 0.53829 0.30162
#
# Static dielectric constant tensor:
#      x y z
#    x 1.798710 0.000000 0.001740 
#    y 0.000000 1.697120 0.000000 
#    z 0.001740 0.000000 1.746590 
# 
# From -- ./inp_files/308601.got.cif
#   From: 2010.05.17/outbox.cif.g08.bks.cpg/sg15_155_cif.got.tgz:308601.got - 2010.06.03 18:47:42.
