data_PCOD9290032
_publ_section_title
;
Structure prediction by ZEFSAII (Michael W. Deem and Ramdas Pophale) SiO2 
 PCOD9290032
Probable space group: C 2/C
;
_chemical_formula_sum "Si O2"
_cell_formula_units_Z 52
_cell_length_a 12.597494
_cell_length_b 7.445661
_cell_length_c 24.084304
_cell_angle_alpha 90.000000
_cell_angle_beta 117.823113
_cell_angle_gamma 90.000000
_cell_volume 1997.867582
_symmetry_space_group_name_H-M "C 2/C"
_symmetry_group_IT_number 15
_symmetry_cell_setting 'monoclinic'
loop_
_space_group_symop_operation_xyz
x,y,z
-x,y,1/2-z
-x,-y,-z
x,-y,1/2+z
1/2+x,1/2+y,z
1/2-x,1/2+y,1/2-z
1/2-x,1/2-y,-z
1/2+x,1/2-y,1/2+z
loop_
_atom_site_type_symbol
_atom_site_label
_atom_site_fract_x
_atom_site_fract_y
_atom_site_fract_z
Si Si1 0.132201 0.397138 0.400911
Si Si2 0.569617 0.877414 0.063850
Si Si3 0.524912 0.705396 0.871982
Si Si4 0.500000 0.363017 0.250000
Si Si5 0.626091 0.560241 0.004441
Si Si6 0.768075 0.249050 0.305872
Si Si7 0.758108 0.164552 0.824531
O O1 0.076792 0.595188 0.373485
O O2 0.262578 0.431879 0.459127
O O3 0.165342 0.301767 0.351319
O O4 0.041309 0.313795 0.423531
O O5 0.642992 0.743987 0.042231
O O6 0.670288 0.892352 0.138126
O O7 0.500000 0.000000 0.000000
O O8 0.515272 0.573397 0.816723
O O9 0.392166 0.741488 0.864562
O O10 0.605729 0.610161 0.936566
O O11 0.624700 0.260801 0.272485
O O12 0.500000 0.500000 0.000000
O O13 0.791531 0.047305 0.330738
O O14 0.797859 0.281190 0.248439
#
# Coordination Sequence:
#
# PCOD9290032 Si02
#       7
#     8   8   8   4   8   8   8
#     4  12  25  45  78 103 150 200 241 308 388 426
#     4  12  27  43  72 116 146 192 257 308 365 469
#     4  11  22  42  74 104 143 196 240 301 375 439
#     4  10  22  40  76 102 136 200 238 300 374 434
#     4  12  24  48  72 106 152 193 252 309 364 454
#     4  11  25  46  72 112 149 188 260 304 374 459
#     4  11  25  47  75 110 146 196 248 316 367 455
#
# _framework density 26.027753000000001
#
# number of rings (size 3 to 8) (size 9 to 14) (size 15 to 20)
#    0.000    0.615    6.154    0.462    6.462    1.231 
#    0.000    9.231    3.385    0.000    0.000    0.000 
#    0.000    0.000    0.000    0.000    0.000    0.000 
#
# Total GULP energy -145190.279152 kJ/mol
# GULP energy per Si atom -5584.241506 kJ/mol
# Density = 2.596851 g / cm^3
# Si number density = 26.027753 Si / 1000 Ang^3
#
#
#
# Elastic Constant Matrix: (Units=GPa)
#
#
# Indices 1 2 3 4 5 6 
#
# 1 164.5357 23.3098 60.4244 0.0000 -9.6767 0.0000
# 2 23.3098 52.8966 8.3305 0.0000 9.1503 0.0000
# 3 60.4244 8.3305 170.5619 0.0000 -16.3353 0.0000
# 4 0.0000 0.0000 0.0000 10.1410 0.0000 -3.4947
# 5 -9.6767 9.1503 -16.3353 0.0000 55.1226 0.0000
# 6 0.0000 0.0000 0.0000 -3.4947 0.0000 38.1746
#
#
#
# Elastic Compliance Matrix: (Units=1/GPa)
#
#
# Indices 1 2 3 4 5 6 
#
# 1 0.007459 -0.003105 -0.002384 0.000000 0.001118 0.000000
# 2 -0.003105 0.021039 -0.000323 0.000000 -0.004133 0.000000
# 3 -0.002384 -0.000323 0.006884 0.000000 0.001675 0.000000
# 4 0.000000 0.000000 0.000000 0.101822 0.000000 0.009321
# 5 0.001118 -0.004133 0.001675 0.000000 0.019520 0.000000
# 6 0.000000 0.000000 0.000000 0.009321 0.000000 0.027049
#
#
# Mechanical properties :
#
#
# Convention : Reuss Voigt Hill
#
# Bulk Modulus (GPa) = 42.09219 63.56928 52.83073
# Shear Modulus (GPa) = 24.59238 40.41628 32.50433
#
# Velocity S-wave (km/s) = 3.07718 3.94485 3.53772
# Velocity P-wave (km/s) = 5.36959 6.72501 6.08516
#
# Compressibility (1/GPa) = 0.02375738
#
# Stress axis : x y z
#
# Youngs Moduli (GPa) = 134.07131 47.53079 145.27181
#
# Poissons Ratio (x) = 0.14758 0.34627
# Poissons Ratio (y) = 0.41628 0.04699
# Poissons Ratio (z) = 0.31957 0.01538
#
# Static dielectric constant tensor:
#      x y z
#    x 2.053300 0.000000 -0.061750 
#    y 0.000000 2.140850 0.000000 
#    z -0.061750 0.000000 2.131120 
# 
# From -- ./inp_files/291689.got.cif
#   From: 2010.05.17/outbox.cif.g08.bks.cpg/sg15_146_cif.got.tgz:291689.got - 2010.06.03 18:47:42.
