data_PCOD9290641
_publ_section_title
;
Structure prediction by ZEFSAII (Michael W. Deem and Ramdas Pophale) SiO2 
 PCOD9290641
Probable space group: C 2/C
;
_chemical_formula_sum "Si O2"
_cell_formula_units_Z 56
_cell_length_a 11.619940
_cell_length_b 15.899761
_cell_length_c 11.949110
_cell_angle_alpha 90.000000
_cell_angle_beta 89.307105
_cell_angle_gamma 90.000000
_cell_volume 2207.487651
_symmetry_space_group_name_H-M "C 2/C"
_symmetry_group_IT_number 15
_symmetry_cell_setting 'monoclinic'
loop_
_space_group_symop_operation_xyz
x,y,z
-x,y,1/2-z
-x,-y,-z
x,-y,1/2+z
1/2+x,1/2+y,z
1/2-x,1/2+y,1/2-z
1/2-x,1/2-y,-z
1/2+x,1/2-y,1/2+z
loop_
_atom_site_type_symbol
_atom_site_label
_atom_site_fract_x
_atom_site_fract_y
_atom_site_fract_z
Si Si1 0.106145 0.999790 0.909919
Si Si2 0.179991 0.405582 0.501169
Si Si3 0.308734 0.621048 0.380445
Si Si4 0.160801 0.073025 0.681542
Si Si5 0.349593 0.683681 0.149227
Si Si6 0.005741 0.196092 0.959832
Si Si7 0.040092 0.374188 0.872838
O O1 0.123839 0.068690 0.811492
O O2 0.118699 0.152913 0.013865
O O3 0.086556 0.907046 0.857763
O O4 0.000000 0.000000 0.000000
O O5 0.265408 0.481074 0.542485
O O6 0.215159 0.398014 0.369994
O O7 0.231959 0.331149 0.581046
O O8 0.049308 0.413234 0.537707
O O9 0.345602 0.527148 0.342398
O O10 0.326464 0.690116 0.280380
O O11 0.172637 0.609785 0.395306
O O12 0.079638 0.133928 0.607821
O O13 0.434583 0.734465 0.068121
O O14 0.033383 0.273417 0.881271
O O15 0.000000 0.402224 0.750000
#
# Coordination Sequence:
#
# PCOD9290641 Si02
#       7
#     8   8   8   8   8   8   8
#     4   9  19  37  64 104 140 165 220 296 360 405
#     4   9  21  41  65  99 131 191 223 286 352 439
#     4  11  22  44  69  99 137 190 235 292 367 441
#     4  10  22  41  68 104 137 175 231 303 361 414
#     4   8  19  38  62  93 131 177 222 285 364 417
#     4  11  24  39  67 105 138 178 241 311 351 411
#     4  12  24  46  68  95 143 199 240 277 362 455
#
# _framework density 25.368205
#
# number of rings (size 3 to 8) (size 9 to 14) (size 15 to 20)
#    0.857    1.143    1.429    1.286    2.000    4.571 
#    0.000    0.000    0.000    0.000    0.000    0.000 
#    0.000    0.000    0.000    0.000    0.000    0.000 
#
# Total GULP energy -155931.290544 kJ/mol
# GULP energy per Si atom -5568.974662 kJ/mol
# Density = 2.531047 g / cm^3
# Si number density = 25.368205 Si / 1000 Ang^3
#
#
#
# Elastic Constant Matrix: (Units=GPa)
#
#
# Indices 1 2 3 4 5 6 
#
# 1 176.3386 33.0174 78.1685 0.0000 -22.4141 0.0000
# 2 33.0174 61.7586 17.4022 0.0000 3.1491 0.0000
# 3 78.1685 17.4022 176.6283 0.0000 -18.1542 0.0000
# 4 0.0000 0.0000 0.0000 35.2237 0.0000 3.1788
# 5 -22.4141 3.1491 -18.1542 0.0000 31.8188 0.0000
# 6 0.0000 0.0000 0.0000 3.1788 0.0000 21.6411
#
#
#
# Elastic Compliance Matrix: (Units=1/GPa)
#
#
# Indices 1 2 3 4 5 6 
#
# 1 0.008203 -0.003835 -0.002783 0.000000 0.004570 0.000000
# 2 -0.003835 0.018676 -0.000649 0.000000 -0.004920 0.000000
# 3 -0.002783 -0.000649 0.007183 0.000000 0.002202 0.000000
# 4 0.000000 0.000000 0.000000 0.028771 0.000000 -0.004226
# 5 0.004570 -0.004920 0.002202 0.000000 0.036391 0.000000
# 6 0.000000 0.000000 0.000000 -0.004226 0.000000 0.046829
#
#
# Mechanical properties :
#
#
# Convention : Reuss Voigt Hill
#
# Bulk Modulus (GPa) = 51.20239 74.65573 62.92906
# Shear Modulus (GPa) = 29.92280 36.81256 33.36768
#
# Velocity S-wave (km/s) = 3.43817 3.81350 3.63069
# Velocity P-wave (km/s) = 5.99907 6.99165 6.51429
#
# Compressibility (1/GPa) = 0.01953034
#
# Stress axis : x y z
#
# Youngs Moduli (GPa) = 121.89933 53.54534 139.20793
#
# Poissons Ratio (x) = 0.20533 0.38741
# Poissons Ratio (y) = 0.46744 0.09029
# Poissons Ratio (z) = 0.33924 0.03473
#
# Static dielectric constant tensor:
#      x y z
#    x 2.038810 0.000000 0.017770 
#    y 0.000000 2.231290 0.000000 
#    z 0.017770 0.000000 2.209910 
# 
# From -- ./inp_files/154490.got.cif
#   From: 2010.05.17/outbox.cif.g08.bks.cpg/sg15_78_cif.got.tgz:154490.got - 2010.06.03 18:47:42.
