data_PCOD9290058
_publ_section_title
;
Structure prediction by ZEFSAII (Michael W. Deem and Ramdas Pophale) SiO2 
 PCOD9290058
Probable space group: C 2/C
;
_chemical_formula_sum "Si O2"
_cell_formula_units_Z 48
_cell_length_a 13.445274
_cell_length_b 14.422820
_cell_length_c 32.419921
_cell_angle_alpha 90.000000
_cell_angle_beta 24.965950
_cell_angle_gamma 90.000000
_cell_volume 2653.543045
_symmetry_space_group_name_H-M "C 2/C"
_symmetry_group_IT_number 15
_symmetry_cell_setting 'monoclinic'
loop_
_space_group_symop_operation_xyz
x,y,z
-x,y,1/2-z
-x,-y,-z
x,-y,1/2+z
1/2+x,1/2+y,z
1/2-x,1/2+y,1/2-z
1/2-x,1/2-y,-z
1/2+x,1/2-y,1/2+z
loop_
_atom_site_type_symbol
_atom_site_label
_atom_site_fract_x
_atom_site_fract_y
_atom_site_fract_z
Si Si1 0.449481 0.839838 0.220367
Si Si2 0.666545 0.305114 0.491839
Si Si3 0.051500 0.013065 0.545880
Si Si4 0.379885 0.961178 0.846495
Si Si5 0.856914 0.744124 0.341334
Si Si6 0.080763 0.185642 0.591777
O O1 0.500000 0.828918 0.250000
O O2 0.653307 0.799771 0.114300
O O3 0.198073 0.793044 0.306803
O O4 0.455103 0.950611 0.206738
O O5 0.750000 0.250000 0.500000
O O6 0.650549 0.410835 0.513315
O O7 0.409122 0.275331 0.573034
O O8 0.785582 0.997182 0.628981
O O9 0.196656 0.054310 0.452769
O O10 0.088172 0.082116 0.569816
O O11 0.477188 0.858213 0.802922
O O12 0.856115 0.799836 0.384240
O O13 0.000000 0.789720 0.250000
O O14 0.250000 0.250000 0.500000
#
# Coordination Sequence:
#
# PCOD9290058 Si02
#       6
#     8   8   8   8   8   8
#     4  11  20  34  59  86 118 151 196 253 305 359
#     4  10  22  41  59  83 117 162 211 247 298 366
#     4   9  18  34  59  85 115 151 195 252 298 354
#     4   9  17  34  57  87 113 148 201 254 300 347
#     4  11  22  35  59  89 123 158 203 256 313 361
#     4  12  22  36  56  94 127 156 193 255 321 364
#
# _framework density 18.089022
#
# number of rings (size 3 to 8) (size 9 to 14) (size 15 to 20)
#    0.000    1.667    3.333    3.500    2.333    0.000 
#    0.000    0.833    0.000    1.000    0.000    0.000 
#    0.000    0.000    0.000    0.000    0.000    0.000 
#
# Total GULP energy -133792.525927 kJ/mol
# GULP energy per Si atom -5574.688580 kJ/mol
# Density = 1.804785 g / cm^3
# Si number density = 18.089022 Si / 1000 Ang^3
#
#
#
# Elastic Constant Matrix: (Units=GPa)
#
#
# Indices 1 2 3 4 5 6 
#
# 1 128.5965 57.3473 53.4479 0.0007 23.2803 0.0005
# 2 57.3473 61.9926 28.4188 0.0036 6.5868 0.0023
# 3 53.4479 28.4188 130.5478 0.0121 14.9880 0.0019
# 4 0.0007 0.0036 0.0121 24.1430 -0.0041 4.9605
# 5 23.2803 6.5868 14.9880 -0.0041 37.2908 0.0033
# 6 0.0005 0.0023 0.0019 4.9605 0.0033 36.8781
#
#
#
# Elastic Compliance Matrix: (Units=1/GPa)
#
#
# Indices 1 2 3 4 5 6 
#
# 1 0.015775 -0.012539 -0.002991 0.000002 -0.006432 0.000001
# 2 -0.012539 0.027986 -0.001352 -0.000002 0.003428 -0.000001
# 3 -0.002991 -0.001352 0.009369 -0.000005 -0.001660 0.000000
# 4 0.000002 -0.000002 -0.000005 0.042597 0.000007 -0.005730
# 5 -0.006432 0.003428 -0.001660 0.000007 0.030893 -0.000004
# 6 0.000001 -0.000001 0.000000 -0.005730 -0.000004 0.027887
#
#
# Mechanical properties :
#
#
# Convention : Reuss Voigt Hill
#
# Bulk Modulus (GPa) = 51.63394 66.61833 59.12614
# Shear Modulus (GPa) = 25.67701 31.79057 28.73379
#
# Velocity S-wave (km/s) = 3.77169 4.19674 3.98988
# Velocity P-wave (km/s) = 6.89738 7.77120 7.34729
#
# Compressibility (1/GPa) = 0.01936710
#
# Stress axis : x y z
#
# Youngs Moduli (GPa) = 63.39063 35.73236 106.73083
#
# Poissons Ratio (x) = 0.44804 0.31919
# Poissons Ratio (y) = 0.79484 0.14433
# Poissons Ratio (z) = 0.18958 0.04832
#
# Static dielectric constant tensor:
#      x y z
#    x 1.616040 0.000020 0.017280 
#    y 0.000020 1.645260 0.000020 
#    z 0.017280 0.000020 1.700990 
# 
# From -- ./inp_files/311142.got.cif
#   From: 2010.05.17/outbox.cif.g08.bks.cpg/sg15_156_cif.got.tgz:311142.got - 2010.06.03 18:47:42.
