data_PCOD9290384
_publ_section_title
;
Structure prediction by ZEFSAII (Michael W. Deem and Ramdas Pophale) SiO2 
 PCOD9290384
Probable space group: C 2/C
;
_chemical_formula_sum "Si O2"
_cell_formula_units_Z 56
_cell_length_a 24.058833
_cell_length_b 17.502553
_cell_length_c 5.350655
_cell_angle_alpha 90.000000
_cell_angle_beta 103.290910
_cell_angle_gamma 90.000000
_cell_volume 2192.763847
_symmetry_space_group_name_H-M "C 2/C"
_symmetry_group_IT_number 15
_symmetry_cell_setting 'monoclinic'
loop_
_space_group_symop_operation_xyz
x,y,z
-x,y,1/2-z
-x,-y,-z
x,-y,1/2+z
1/2+x,1/2+y,z
1/2-x,1/2+y,1/2-z
1/2-x,1/2-y,-z
1/2+x,1/2-y,1/2+z
loop_
_atom_site_type_symbol
_atom_site_label
_atom_site_fract_x
_atom_site_fract_y
_atom_site_fract_z
Si Si1 0.868147 0.815640 0.878299
Si Si2 0.987469 0.308312 0.985921
Si Si3 0.863807 0.712125 0.371576
Si Si4 0.294112 0.951673 0.323125
Si Si5 0.426804 0.049437 0.940020
Si Si6 0.934347 0.966054 0.938941
Si Si7 0.749820 0.661166 0.431770
O O1 0.871315 0.762925 0.631674
O O2 0.919717 0.876496 0.944539
O O3 0.807362 0.858334 0.774723
O O4 0.862604 0.764811 0.123200
O O5 0.922403 0.334559 0.916114
O O6 0.969089 0.378840 0.473424
O O7 0.000000 0.261893 0.750000
O O8 0.000000 0.263430 0.250000
O O9 0.809264 0.657434 0.340628
O O10 0.360415 0.926240 0.376355
O O11 0.254905 0.881824 0.199759
O O12 0.284503 0.008149 0.076042
O O13 0.435733 0.000213 0.199498
O O14 0.907813 0.994505 0.653515
O O15 0.000000 0.000000 0.000000
O O16 0.750000 0.750000 0.500000
#
# Coordination Sequence:
#
# PCOD9290384 Si02
#       7
#     8   8   8   8   8   8   8
#     4  11  24  45  72 101 134 186 231 289 365 430
#     4  12  25  42  62  94 135 182 223 283 333 407
#     4  11  25  46  65 102 141 181 237 288 349 428
#     4  10  23  42  69 104 139 182 237 295 349 423
#     4  10  22  41  65  94 132 181 226 273 338 403
#     4  10  22  44  70 101 134 176 224 294 357 433
#     4  10  24  46  75 102 143 188 240 302 368 435
#
# _framework density 25.538547999999999
#
# number of rings (size 3 to 8) (size 9 to 14) (size 15 to 20)
#    0.000    1.429    0.000    3.857    0.000   10.857 
#   15.429    1.429    0.000    0.000    0.000    0.000 
#    0.000    0.000    0.000    0.000    0.000    0.000 
#
# Total GULP energy -156798.144628 kJ/mol
# GULP energy per Si atom -5599.933737 kJ/mol
# Density = 2.548042 g / cm^3
# Si number density = 25.538548 Si / 1000 Ang^3
#
#
#
# Elastic Constant Matrix: (Units=GPa)
#
#
# Indices 1 2 3 4 5 6 
#
# 1 91.8351 17.5712 34.2912 0.0000 11.9185 0.0000
# 2 17.5712 84.7147 41.8303 0.0000 -4.7561 0.0000
# 3 34.2912 41.8303 191.6965 0.0000 -37.9666 0.0000
# 4 0.0000 0.0000 0.0000 53.5920 0.0000 7.7092
# 5 11.9185 -4.7561 -37.9666 0.0000 41.3877 0.0000
# 6 0.0000 0.0000 0.0000 7.7092 0.0000 44.7777
#
#
#
# Elastic Compliance Matrix: (Units=1/GPa)
#
#
# Indices 1 2 3 4 5 6 
#
# 1 0.013426 -0.001453 -0.003524 0.000000 -0.007266 0.000000
# 2 -0.001453 0.013452 -0.002794 0.000000 -0.000599 0.000000
# 3 -0.003524 -0.002794 0.008058 0.000000 0.008086 0.000000
# 4 0.000000 0.000000 0.000000 0.019133 0.000000 -0.003294
# 5 -0.007266 -0.000599 0.008086 0.000000 0.033602 0.000000
# 6 0.000000 0.000000 0.000000 -0.003294 0.000000 0.022900
#
#
# Mechanical properties :
#
#
# Convention : Reuss Voigt Hill
#
# Bulk Modulus (GPa) = 51.56091 61.73686 56.64889
# Shear Modulus (GPa) = 37.71410 46.25504 41.98457
#
# Velocity S-wave (km/s) = 3.84702 4.26042 4.05899
# Velocity P-wave (km/s) = 6.32187 6.95902 6.64809
#
# Compressibility (1/GPa) = 0.01939454
#
# Stress axis : x y z
#
# Youngs Moduli (GPa) = 74.48415 74.34025 124.10073
#
# Poissons Ratio (x) = 0.10800 0.43728
# Poissons Ratio (y) = 0.10821 0.34675
# Poissons Ratio (z) = 0.26245 0.20771
#
# Static dielectric constant tensor:
#      x y z
#    x 2.154210 0.000000 -0.048190 
#    y 0.000000 2.015610 0.000000 
#    z -0.048190 0.000000 2.090260 
# 
# From -- ./inp_files/17168.got.cif
#   From: 2010.05.17/outbox.cif.g08.bks.cpg/sg15_9_cif.got.tgz:17168.got - 2010.06.03 18:47:42.
