data_PCOD9290223
_publ_section_title
;
Structure prediction by ZEFSAII (Michael W. Deem and Ramdas Pophale) SiO2 
 PCOD9290223
Probable space group: C 2/C
;
_chemical_formula_sum "Si O2"
_cell_formula_units_Z 40
_cell_length_a 12.920039
_cell_length_b 31.170187
_cell_length_c 5.133461
_cell_angle_alpha 90.000000
_cell_angle_beta 82.328282
_cell_angle_gamma 90.000000
_cell_volume 2048.843196
_symmetry_space_group_name_H-M "C 2/C"
_symmetry_group_IT_number 15
_symmetry_cell_setting 'monoclinic'
loop_
_space_group_symop_operation_xyz
x,y,z
-x,y,1/2-z
-x,-y,-z
x,-y,1/2+z
1/2+x,1/2+y,z
1/2-x,1/2+y,1/2-z
1/2-x,1/2-y,-z
1/2+x,1/2-y,1/2+z
loop_
_atom_site_type_symbol
_atom_site_label
_atom_site_fract_x
_atom_site_fract_y
_atom_site_fract_z
Si Si1 0.500000 0.220848 0.750000
Si Si2 0.000000 0.826552 0.250000
Si Si3 0.500000 0.161397 0.250000
Si Si4 0.000000 0.969770 0.250000
Si Si5 0.156789 0.104781 0.822922
Si Si6 0.273086 0.866916 0.762939
Si Si7 0.172085 0.221778 0.351816
O O1 0.480450 0.191629 0.505513
O O2 0.395490 0.249373 0.822832
O O3 0.932933 0.859325 0.095772
O O4 0.918934 0.798297 0.436737
O O5 0.602752 0.133840 0.269673
O O6 0.098680 0.938099 0.252424
O O7 0.000000 0.000000 0.500000
O O8 0.225900 0.121641 0.559714
O O9 0.224961 0.102563 0.059459
O O10 0.235287 0.818173 0.713368
O O11 0.250000 0.250000 0.500000
#
# Coordination Sequence:
#
# PCOD9290223 Si02
#       7
#     4   4   4   4   8   8   8
#     4  12  24  38  51  78 109 151 210 288 320 345
#     4   9  21  38  52  82 111 164 200 245 308 376
#     4  12  25  38  57  80 112 153 222 263 294 343
#     4  11  22  40  72 112 132 146 182 238 294 380
#     4  10  22  41  64  86 129 158 190 229 313 382
#     4  11  23  40  57  84 115 170 208 254 302 364
#     4  11  22  36  55  78 112 162 214 276 322 344
#
# _framework density 19.523211
#
# number of rings (size 3 to 8) (size 9 to 14) (size 15 to 20)
#    0.000    1.200    2.000    4.200    2.800    8.000 
#    0.000    0.000    0.000    0.000    0.000   14.000 
#    0.000    0.000    0.000    0.000    0.000    0.000 
#
# Total GULP energy -111900.918192 kJ/mol
# GULP energy per Si atom -5595.045910 kJ/mol
# Density = 1.947878 g / cm^3
# Si number density = 19.523211 Si / 1000 Ang^3
#
#
#
# Elastic Constant Matrix: (Units=GPa)
#
#
# Indices 1 2 3 4 5 6 
#
# 1 148.7858 37.9307 24.6389 0.0000 13.2872 0.0000
# 2 37.9307 67.5852 14.8882 0.0000 -0.8069 0.0000
# 3 24.6389 14.8882 79.1856 0.0000 9.7103 0.0000
# 4 0.0000 0.0000 0.0000 -10.7936 0.0000 8.1957
# 5 13.2872 -0.8069 9.7103 0.0000 32.2779 0.0000
# 6 0.0000 0.0000 0.0000 8.1957 0.0000 16.4936
#
#
#
# Elastic Compliance Matrix: (Units=1/GPa)
#
#
# Indices 1 2 3 4 5 6 
#
# 1 0.008358 -0.004423 -0.001385 0.000000 -0.003135 0.000000
# 2 -0.004423 0.017829 -0.002340 0.000000 0.002970 0.000000
# 3 -0.001385 -0.002340 0.013951 0.000000 -0.003686 0.000000
# 4 0.000000 0.000000 0.000000 -0.067267 0.000000 0.033425
# 5 -0.003135 0.002970 -0.003686 0.000000 0.033454 0.000000
# 6 0.000000 0.000000 0.000000 0.033425 0.000000 0.044021
#
#
# Mechanical properties :
#
#
# Convention : Reuss Voigt Hill
#
# Bulk Modulus (GPa) = 41.94127 50.05246 45.99686
# Shear Modulus (GPa) = 67.03345 22.13549 44.58447
#
# Velocity S-wave (km/s) = 5.86599 3.37085 4.78395
# Velocity P-wave (km/s) = 8.21031 6.39087 7.35705
#
# Compressibility (1/GPa) = 0.02384287
#
# Stress axis : x y z
#
# Youngs Moduli (GPa) = 119.64741 56.08685 71.67770
#
# Poissons Ratio (x) = 0.24808 0.09924
# Poissons Ratio (y) = 0.52921 0.16774
# Poissons Ratio (z) = 0.16566 0.13126
#
# Static dielectric constant tensor:
#      x y z
#    x 1.700680 0.000000 0.009700 
#    y 0.000000 1.697790 0.000000 
#    z 0.009700 0.000000 1.708180 
# 
# From -- ./inp_files/5057.got.cif
#   From: 2010.05.17/outbox.cif.g08.bks.cpg/sg15_3_cif.got.tgz:5057.got - 2010.06.03 18:47:42.
