data_PCOD9290184
_publ_section_title
;
Structure prediction by ZEFSAII (Michael W. Deem and Ramdas Pophale) SiO2 
 PCOD9290184
Probable space group: C 2/C
;
_chemical_formula_sum "Si O2"
_cell_formula_units_Z 40
_cell_length_a 7.948808
_cell_length_b 22.879960
_cell_length_c 12.695728
_cell_angle_alpha 90.000000
_cell_angle_beta 45.974743
_cell_angle_gamma 90.000000
_cell_volume 1660.213762
_symmetry_space_group_name_H-M "C 2/C"
_symmetry_group_IT_number 15
_symmetry_cell_setting 'monoclinic'
loop_
_space_group_symop_operation_xyz
x,y,z
-x,y,1/2-z
-x,-y,-z
x,-y,1/2+z
1/2+x,1/2+y,z
1/2-x,1/2+y,1/2-z
1/2-x,1/2-y,-z
1/2+x,1/2-y,1/2+z
loop_
_atom_site_type_symbol
_atom_site_label
_atom_site_fract_x
_atom_site_fract_y
_atom_site_fract_z
Si Si1 0.433048 0.954327 0.153606
Si Si2 0.635651 0.230836 0.291783
Si Si3 0.505748 0.820510 0.421550
Si Si4 0.490894 0.650249 0.374787
Si Si5 0.557824 0.512331 0.095050
O O1 0.500000 0.946229 0.250000
O O2 0.431311 0.889549 0.102548
O O3 0.657871 0.993391 0.017888
O O4 0.171017 0.981027 0.253346
O O5 0.500000 0.254814 0.250000
O O6 0.512786 0.208314 0.452281
O O7 0.824411 0.282049 0.222769
O O8 0.774355 0.175381 0.180668
O O9 0.247799 0.822266 0.482391
O O10 0.500000 0.670029 0.250000
O O11 0.479247 0.581390 0.376713
O O12 0.500000 0.500000 0.000000
#
# Coordination Sequence:
#
# PCOD9290184 Si02
#       5
#     8   8   8   8   8
#     4   9  19  37  62  95 129 167 217 268 321 384
#     4  11  23  40  62  91 125 163 211 270 326 383
#     4  10  22  41  63  91 126 167 213 262 325 398
#     4   9  20  39  60  85 120 165 211 256 315 388
#     4   9  18  35  59  88 124 164 209 260 318 379
#
# _framework density 24.093284000000001
#
# number of rings (size 3 to 8) (size 9 to 14) (size 15 to 20)
#    0.000    2.400    0.000    1.200    0.000    9.600 
#    0.000   16.000    0.000    0.000    0.000    0.000 
#    0.000    0.000    0.000    0.000    0.000    0.000 
#
# Total GULP energy -111435.965957 kJ/mol
# GULP energy per Si atom -5571.798298 kJ/mol
# Density = 2.403845 g / cm^3
# Si number density = 24.093284 Si / 1000 Ang^3
#
#
#
# Elastic Constant Matrix: (Units=GPa)
#
#
# Indices 1 2 3 4 5 6 
#
# 1 94.9345 41.6001 76.1637 0.0000 -16.7044 0.0000
# 2 41.6001 102.9444 74.0704 0.0000 -16.3866 0.0000
# 3 76.1637 74.0704 188.9150 0.0000 -5.6976 0.0000
# 4 0.0000 0.0000 0.0000 53.2294 0.0000 -5.1773
# 5 -16.7044 -16.3866 -5.6976 0.0000 45.3158 0.0000
# 6 0.0000 0.0000 0.0000 -5.1773 0.0000 26.9066
#
#
#
# Elastic Compliance Matrix: (Units=1/GPa)
#
#
# Indices 1 2 3 4 5 6 
#
# 1 0.016984 -0.001765 -0.006008 0.000000 0.004867 0.000000
# 2 -0.001765 0.014579 -0.004884 0.000000 0.004007 0.000000
# 3 -0.006008 -0.004884 0.009547 0.000000 -0.002780 0.000000
# 4 0.000000 0.000000 0.000000 0.019145 0.000000 0.003684
# 5 0.004867 0.004007 -0.002780 0.000000 0.024961 0.000000
# 6 0.000000 0.000000 0.000000 0.003684 0.000000 0.037874
#
#
# Mechanical properties :
#
#
# Convention : Reuss Voigt Hill
#
# Bulk Modulus (GPa) = 63.31157 85.60693 74.45925
# Shear Modulus (GPa) = 32.53739 38.08767 35.31253
#
# Velocity S-wave (km/s) = 3.67887 3.98029 3.83255
# Velocity P-wave (km/s) = 6.66184 7.53208 7.11029
#
# Compressibility (1/GPa) = 0.01579490
#
# Stress axis : x y z
#
# Youngs Moduli (GPa) = 58.87943 68.59137 104.74893
#
# Poissons Ratio (x) = 0.12109 0.62936
# Poissons Ratio (y) = 0.10395 0.51155
# Poissons Ratio (z) = 0.35377 0.33497
#
# Static dielectric constant tensor:
#      x y z
#    x 2.076860 0.000000 -0.081070 
#    y 0.000000 1.849140 0.000000 
#    z -0.081070 0.000000 2.067310 
# 
# From -- ./inp_files/137109.got.cif
#   From: 2010.05.17/outbox.cif.g08.bks.cpg/sg15_69_cif.got.tgz:137109.got - 2010.06.03 18:47:42.
