data_PCOD9290020
_publ_section_title
;
Structure prediction by ZEFSAII (Michael W. Deem and Ramdas Pophale) SiO2 
 PCOD9290020
Probable space group: C 2/C
;
_chemical_formula_sum "Si O2"
_cell_formula_units_Z 60
_cell_length_a 5.500045
_cell_length_b 16.832918
_cell_length_c 27.995859
_cell_angle_alpha 90.000000
_cell_angle_beta 87.859765
_cell_angle_gamma 90.000000
_cell_volume 2590.099125
_symmetry_space_group_name_H-M "C 2/C"
_symmetry_group_IT_number 15
_symmetry_cell_setting 'monoclinic'
loop_
_space_group_symop_operation_xyz
x,y,z
-x,y,1/2-z
-x,-y,-z
x,-y,1/2+z
1/2+x,1/2+y,z
1/2-x,1/2+y,1/2-z
1/2-x,1/2-y,-z
1/2+x,1/2-y,1/2+z
loop_
_atom_site_type_symbol
_atom_site_label
_atom_site_fract_x
_atom_site_fract_y
_atom_site_fract_z
Si Si1 0.255886 0.517547 0.120508
Si Si2 0.064498 0.702038 0.068127
Si Si3 0.433616 0.339134 0.878692
Si Si4 0.336674 0.059959 0.666487
Si Si5 0.033834 0.887892 0.078421
Si Si6 0.623682 0.787930 0.201626
Si Si7 0.187838 0.568220 0.012066
Si Si8 0.500000 0.601631 0.750000
O O1 0.475633 0.572754 0.137474
O O2 0.305535 0.425876 0.106910
O O3 0.228543 0.552503 0.067565
O O4 0.028516 0.511248 0.157153
O O5 0.320738 0.695386 0.096637
O O6 0.009328 0.795304 0.069969
O O7 0.099928 0.660257 0.016167
O O8 0.815416 0.659391 0.088850
O O9 0.358985 0.280960 0.836679
O O10 0.235288 0.083007 0.614901
O O11 0.454857 0.142020 0.683429
O O12 0.151624 0.047764 0.711934
O O13 0.095174 0.929479 0.027564
O O14 0.500000 0.754065 0.250000
O O15 0.858510 0.837357 0.216229
O O16 0.000000 0.500000 0.000000
#
# Coordination Sequence:
#
# PCOD9290020 Si02
#       8
#     8   8   8   8   8   8   8   4
#     4  11  25  41  70 101 145 195 234 299 365 433
#     4  11  25  43  70 102 142 193 245 299 350 430
#     4  11  24  45  70 105 142 185 234 294 367 430
#     4  11  21  41  69 105 135 184 236 298 362 435
#     4  12  23  42  69 102 144 193 245 298 358 431
#     4  10  22  42  73 104 132 179 237 302 365 440
#     4  11  23  44  65 104 145 194 246 298 366 433
#     4  10  22  40  74 110 134 174 246 310 368 440
#
# _framework density 23.165133999999998
#
# number of rings (size 3 to 8) (size 9 to 14) (size 15 to 20)
#    0.000    1.067    2.667    4.000    3.733    1.067 
#    0.000    4.000   11.733    0.000    0.000    0.000 
#    0.000    0.000    0.000    0.000    0.000    0.000 
#
# Total GULP energy -167251.390178 kJ/mol
# GULP energy per Si atom -5575.046339 kJ/mol
# Density = 2.311241 g / cm^3
# Si number density = 23.165134 Si / 1000 Ang^3
#
#
#
# Elastic Constant Matrix: (Units=GPa)
#
#
# Indices 1 2 3 4 5 6 
#
# 1 98.9393 25.6263 50.6445 0.0000 -30.3348 0.0000
# 2 25.6263 97.1437 28.1165 0.0000 -10.9797 0.0000
# 3 50.6445 28.1165 110.3487 0.0000 -21.6584 0.0000
# 4 0.0000 0.0000 0.0000 -82.3676 0.0000 127.7320
# 5 -30.3348 -10.9797 -21.6584 0.0000 42.6213 0.0000
# 6 0.0000 0.0000 0.0000 127.7320 0.0000 -101.3760
#
#
#
# Elastic Compliance Matrix: (Units=1/GPa)
#
#
# Indices 1 2 3 4 5 6 
#
# 1 0.015680 -0.001726 -0.005169 0.000000 0.008089 0.000000
# 2 -0.001726 0.011400 -0.001974 0.000000 0.000705 0.000000
# 3 -0.005169 -0.001974 0.012347 0.000000 0.002087 0.000000
# 4 0.000000 0.000000 0.000000 0.012727 0.000000 0.016036
# 5 0.008089 0.000705 0.002087 0.000000 0.030461 0.000000
# 6 0.000000 0.000000 0.000000 0.016036 0.000000 0.010341
#
#
# Mechanical properties :
#
#
# Convention : Reuss Voigt Hill
#
# Bulk Modulus (GPa) = 46.10612 57.24514 51.67563
# Shear Modulus (GPa) = 42.39970 -14.75484 13.82243
#
# Velocity S-wave (km/s) = 4.28287 -2.52651 2.44538
# Velocity P-wave (km/s) = 6.66361 4.03168 5.50718
#
# Compressibility (1/GPa) = 0.02168909
#
# Stress axis : x y z
#
# Youngs Moduli (GPa) = 63.77489 87.71569 80.99066
#
# Poissons Ratio (x) = 0.15141 0.41864
# Poissons Ratio (y) = 0.11008 0.15989
# Poissons Ratio (z) = 0.32965 0.17317
#
# Static dielectric constant tensor:
#      x y z
#    x 1.959330 0.000000 0.024740 
#    y 0.000000 1.992700 0.000000 
#    z 0.024740 0.000000 1.858260 
# 
# From -- ./inp_files/305649.got.cif
#   From: 2010.05.17/outbox.cif.g08.bks.cpg/sg15_153_cif.got.tgz:305649.got - 2010.06.03 18:47:42.
