data_PCOD9290256
_publ_section_title
;
Structure prediction by ZEFSAII (Michael W. Deem and Ramdas Pophale) SiO2 
 PCOD9290256
Probable space group: C 2/C
;
_chemical_formula_sum "Si O2"
_cell_formula_units_Z 60
_cell_length_a 11.705534
_cell_length_b 28.830482
_cell_length_c 8.935125
_cell_angle_alpha 90.000000
_cell_angle_beta 75.192714
_cell_angle_gamma 90.000000
_cell_volume 2915.253457
_symmetry_space_group_name_H-M "C 2/C"
_symmetry_group_IT_number 15
_symmetry_cell_setting 'monoclinic'
loop_
_space_group_symop_operation_xyz
x,y,z
-x,y,1/2-z
-x,-y,-z
x,-y,1/2+z
1/2+x,1/2+y,z
1/2-x,1/2+y,1/2-z
1/2-x,1/2-y,-z
1/2+x,1/2-y,1/2+z
loop_
_atom_site_type_symbol
_atom_site_label
_atom_site_fract_x
_atom_site_fract_y
_atom_site_fract_z
Si Si1 0.308833 0.643228 0.246432
Si Si2 0.500000 0.599119 0.750000
Si Si3 0.890322 0.396367 0.883110
Si Si4 0.850762 0.165262 0.584706
Si Si5 0.601923 0.828150 0.343259
Si Si6 0.460769 0.727665 0.090706
Si Si7 0.701979 0.531289 0.559525
Si Si8 0.123149 0.962133 0.782406
O O1 0.183366 0.635178 0.210411
O O2 0.317833 0.652899 0.422174
O O3 0.373044 0.683841 0.131848
O O4 0.368847 0.592937 0.205263
O O5 0.442186 0.630275 0.636768
O O6 0.610272 0.567377 0.664015
O O7 0.000000 0.413032 0.750000
O O8 0.915712 0.366212 0.022223
O O9 0.812362 0.439403 0.966125
O O10 0.730410 0.167931 0.720508
O O11 0.925773 0.212983 0.544691
O O12 0.500000 0.832550 0.250000
O O13 0.593018 0.777560 0.424813
O O14 0.500000 0.732245 0.250000
O O15 0.724828 0.486201 0.650522
O O16 0.635531 0.513610 0.435582
O O17 0.000000 0.973252 0.750000
#
# Coordination Sequence:
#
# PCOD9290256 Si02
#       8
#     8   4   8   8   8   8   8   8
#     4  10  22  41  64  92 130 173 203 260 332 377
#     4  12  22  40  64  98 134 156 208 270 322 372
#     4  11  24  45  62  90 131 170 218 265 311 376
#     4  11  22  40  66  91 129 168 210 261 320 380
#     4  11  24  41  66  95 122 169 221 262 314 377
#     4   9  21  40  62  94 131 164 207 263 323 380
#     4  11  24  38  62  96 127 162 205 264 319 379
#     4  11  21  36  62  96 127 160 205 255 324 385
#
# _framework density 20.581399000000001
#
# number of rings (size 3 to 8) (size 9 to 14) (size 15 to 20)
#    0.000    1.333    2.000    4.800    1.867    6.400 
#    1.200    2.667    0.000    1.600    0.000    0.000 
#    0.000    0.000    0.000    0.000    0.000    0.000 
#
# Total GULP energy -167335.595960 kJ/mol
# GULP energy per Si atom -5577.853199 kJ/mol
# Density = 2.053456 g / cm^3
# Si number density = 20.581399 Si / 1000 Ang^3
#
#
#
# Elastic Constant Matrix: (Units=GPa)
#
#
# Indices 1 2 3 4 5 6 
#
# 1 78.6772 22.8698 26.5379 0.0000 -14.5537 0.0000
# 2 22.8698 57.4267 13.4411 0.0000 -1.3765 0.0000
# 3 26.5379 13.4411 80.5457 0.0000 -6.8905 0.0000
# 4 0.0000 0.0000 0.0000 18.6790 0.0000 1.7293
# 5 -14.5537 -1.3765 -6.8905 0.0000 45.9024 0.0000
# 6 0.0000 0.0000 0.0000 1.7293 0.0000 10.4486
#
#
#
# Elastic Compliance Matrix: (Units=1/GPa)
#
#
# Indices 1 2 3 4 5 6 
#
# 1 0.016534 -0.005507 -0.004147 0.000000 0.004454 0.000000
# 2 -0.005507 0.019956 -0.001635 0.000000 -0.001393 0.000000
# 3 -0.004147 -0.001635 0.014119 0.000000 0.000755 0.000000
# 4 0.000000 0.000000 0.000000 0.054369 0.000000 -0.008998
# 5 0.004454 -0.001393 0.000755 0.000000 0.023269 0.000000
# 6 0.000000 0.000000 0.000000 -0.008998 0.000000 0.097196
#
#
# Mechanical properties :
#
#
# Convention : Reuss Voigt Hill
#
# Bulk Modulus (GPa) = 35.67565 38.03856 36.85710
# Shear Modulus (GPa) = 19.42765 25.25940 22.34353
#
# Velocity S-wave (km/s) = 3.07570 3.50707 3.29845
# Velocity P-wave (km/s) = 5.47584 5.90945 5.69677
#
# Compressibility (1/GPa) = 0.02803033
#
# Stress axis : x y z
#
# Youngs Moduli (GPa) = 60.48204 50.11055 70.82527
#
# Poissons Ratio (x) = 0.27596 0.29375
# Poissons Ratio (y) = 0.33307 0.11579
# Poissons Ratio (z) = 0.25085 0.08193
#
# Static dielectric constant tensor:
#      x y z
#    x 1.761660 0.000000 -0.003960 
#    y 0.000000 1.742230 0.000000 
#    z -0.003960 0.000000 1.766010 
# 
# From -- ./inp_files/35215.got.cif
#   From: 2010.05.17/outbox.cif.g08.bks.cpg/sg15_18_cif.got.tgz:35215.got - 2010.06.03 18:47:42.
