data_PCOD9290871
_publ_section_title
;
Structure prediction by ZEFSAII (Michael W. Deem and Ramdas Pophale) SiO2 
 PCOD9290871
Probable space group: C 2/C
;
_chemical_formula_sum "Si O2"
_cell_formula_units_Z 56
_cell_length_a 28.677480
_cell_length_b 15.688427
_cell_length_c 5.169151
_cell_angle_alpha 90.000000
_cell_angle_beta 81.181058
_cell_angle_gamma 90.000000
_cell_volume 2298.130448
_symmetry_space_group_name_H-M "C 2/C"
_symmetry_group_IT_number 15
_symmetry_cell_setting 'monoclinic'
loop_
_space_group_symop_operation_xyz
x,y,z
-x,y,1/2-z
-x,-y,-z
x,-y,1/2+z
1/2+x,1/2+y,z
1/2-x,1/2+y,1/2-z
1/2-x,1/2-y,-z
1/2+x,1/2-y,1/2+z
loop_
_atom_site_type_symbol
_atom_site_label
_atom_site_fract_x
_atom_site_fract_y
_atom_site_fract_z
Si Si1 0.313692 0.051189 0.800640
Si Si2 0.948371 0.384162 0.898177
Si Si3 0.603064 0.727910 0.684269
Si Si4 0.632302 0.554011 0.402989
Si Si5 0.772753 0.113460 0.415111
Si Si6 0.902224 0.638392 0.929120
Si Si7 0.793705 0.733452 0.276300
O O1 0.256124 0.061040 0.845006
O O2 0.351673 0.124742 0.840957
O O3 0.324864 0.018877 0.506772
O O4 0.936359 0.282242 0.928828
O O5 0.912148 0.405835 0.697606
O O6 0.000000 0.400593 0.750000
O O7 0.938158 0.406579 0.200805
O O8 0.606916 0.634229 0.560571
O O9 0.656958 0.762581 0.621581
O O10 0.592574 0.761251 0.989355
O O11 0.622781 0.478061 0.617684
O O12 0.687669 0.579106 0.312601
O O13 0.794476 0.194441 0.551423
O O14 0.724991 0.144551 0.316092
O O15 0.750000 0.750000 0.500000
#
# Coordination Sequence:
#
# PCOD9290871 Si02
#       7
#     8   8   8   8   8   8   8
#     4  12  26  41  64  93 138 182 223 270 324 388
#     4  10  22  41  73 100 122 156 216 285 333 396
#     4  10  24  39  69  93 127 170 221 269 328 388
#     4  12  26  40  58  89 136 177 215 262 322 383
#     4  11  24  37  58  89 130 177 229 262 318 371
#     4  10  23  40  69  96 127 159 222 267 333 387
#     4  11  22  36  64  91 128 168 222 281 313 368
#
# _framework density 24.367633999999999
#
# number of rings (size 3 to 8) (size 9 to 14) (size 15 to 20)
#    0.857    0.286    2.857    3.000    8.000    0.000 
#    0.000    0.000    0.000    9.429    0.000    0.000 
#    0.000    0.000    0.000    0.000    0.000    0.000 
#
# Total GULP energy -155884.836946 kJ/mol
# GULP energy per Si atom -5567.315605 kJ/mol
# Density = 2.431217 g / cm^3
# Si number density = 24.367634 Si / 1000 Ang^3
#
#
#
# Elastic Constant Matrix: (Units=GPa)
#
#
# Indices 1 2 3 4 5 6 
#
# 1 34.6116 8.5016 17.8383 0.0000 -3.2399 0.0000
# 2 8.5016 58.0369 28.7666 0.0000 4.6149 0.0000
# 3 17.8383 28.7666 169.3805 0.0000 -5.5497 0.0000
# 4 0.0000 0.0000 0.0000 29.2262 0.0000 7.8675
# 5 -3.2399 4.6149 -5.5497 0.0000 36.4940 0.0000
# 6 0.0000 0.0000 0.0000 7.8675 0.0000 21.6604
#
#
#
# Elastic Compliance Matrix: (Units=1/GPa)
#
#
# Indices 1 2 3 4 5 6 
#
# 1 0.031370 -0.003526 -0.002612 0.000000 0.002834 0.000000
# 2 -0.003526 0.019516 -0.003050 0.000000 -0.003245 0.000000
# 3 -0.002612 -0.003050 0.006735 0.000000 0.001178 0.000000
# 4 0.000000 0.000000 0.000000 0.037924 0.000000 -0.013775
# 5 0.002834 -0.003245 0.001178 0.000000 0.028243 0.000000
# 6 0.000000 0.000000 0.000000 -0.013775 0.000000 0.051170
#
#
# Mechanical properties :
#
#
# Convention : Reuss Voigt Hill
#
# Bulk Modulus (GPa) = 25.47993 41.36024 33.42008
# Shear Modulus (GPa) = 24.22297 31.27095 27.74696
#
# Velocity S-wave (km/s) = 3.15630 3.58620 3.37810
# Velocity P-wave (km/s) = 4.87464 5.84449 5.38146
#
# Compressibility (1/GPa) = 0.03924657
#
# Stress axis : x y z
#
# Youngs Moduli (GPa) = 31.87807 51.23878 148.46771
#
# Poissons Ratio (x) = 0.18066 0.38780
# Poissons Ratio (y) = 0.11240 0.45276
# Poissons Ratio (z) = 0.08327 0.15626
#
# Static dielectric constant tensor:
#      x y z
#    x 2.393240 0.000000 -1.368190 
#    y 0.000000 3.055250 0.000000 
#    z -1.368190 0.000000 6.018320 
# 
# From -- ./inp_files/18347.got.cif
#   From: 2010.05.17/outbox.cif.g08.bks.cpg/sg15_10_cif.got.tgz:18347.got - 2010.06.03 18:47:42.
