data_PCOD9290041
_publ_section_title
;
Structure prediction by ZEFSAII (Michael W. Deem and Ramdas Pophale) SiO2 
 PCOD9290041
Probable space group: C 2/C
;
_chemical_formula_sum "Si O2"
_cell_formula_units_Z 40
_cell_length_a 19.430625
_cell_length_b 12.869686
_cell_length_c 10.017694
_cell_angle_alpha 90.000000
_cell_angle_beta 132.582817
_cell_angle_gamma 90.000000
_cell_volume 1844.494278
_symmetry_space_group_name_H-M "C 2/C"
_symmetry_group_IT_number 15
_symmetry_cell_setting 'monoclinic'
loop_
_space_group_symop_operation_xyz
x,y,z
-x,y,1/2-z
-x,-y,-z
x,-y,1/2+z
1/2+x,1/2+y,z
1/2-x,1/2+y,1/2-z
1/2-x,1/2-y,-z
1/2+x,1/2-y,1/2+z
loop_
_atom_site_type_symbol
_atom_site_label
_atom_site_fract_x
_atom_site_fract_y
_atom_site_fract_z
Si Si1 0.599852 0.568412 0.938159
Si Si2 0.000000 0.227347 0.250000
Si Si3 0.913980 0.548596 0.305181
Si Si4 0.000000 0.269455 0.750000
Si Si5 0.653077 0.108658 0.014966
Si Si6 0.853630 0.084272 0.208091
O O1 0.500000 0.532209 0.750000
O O2 0.582474 0.692554 0.910599
O O3 0.665458 0.509273 0.920689
O O4 0.616723 0.536687 0.111139
O O5 0.924124 0.301207 0.079652
O O6 0.935204 0.159862 0.263468
O O7 0.952049 0.656107 0.294614
O O8 0.838995 0.564239 0.324607
O O9 0.883511 0.475256 0.142132
O O10 0.000000 0.500000 0.500000
O O11 0.755846 0.142621 0.104069
#
# Coordination Sequence:
#
# PCOD9290041 Si02
#       6
#     8   4   8   4   8   8
#     4  10  24  43  72  95 140 181 227 289 342 404
#     4  12  24  44  70  94 142 180 230 290 348 406
#     4  12  21  45  68  99 141 176 225 282 348 411
#     4  10  22  40  78  98 126 194 224 270 362 400
#     4  12  26  41  72 100 135 186 227 288 343 416
#     4  12  25  46  67 104 135 183 238 280 349 411
#
# _framework density 21.686160999999998
#
# number of rings (size 3 to 8) (size 9 to 14) (size 15 to 20)
#    0.600    0.000    5.000    3.600    0.000    0.000 
#    0.000    6.000    0.000    0.000    0.000    0.000 
#    0.000    0.000    0.000    0.000    0.000    0.000 
#
# Total GULP energy -111566.271595 kJ/mol
# GULP energy per Si atom -5578.313580 kJ/mol
# Density = 2.163680 g / cm^3
# Si number density = 21.686161 Si / 1000 Ang^3
#
#
#
# Elastic Constant Matrix: (Units=GPa)
#
#
# Indices 1 2 3 4 5 6 
#
# 1 162.8726 58.1715 63.3671 0.0000 -9.3215 0.0000
# 2 58.1715 96.5804 45.8486 0.0000 -16.2994 0.0000
# 3 63.3671 45.8486 130.7928 0.0000 -32.9679 0.0000
# 4 0.0000 0.0000 0.0000 9.6869 0.0000 -1.1885
# 5 -9.3215 -16.2994 -32.9679 0.0000 51.6153 0.0000
# 6 0.0000 0.0000 0.0000 -1.1885 0.0000 27.8771
#
#
#
# Elastic Compliance Matrix: (Units=1/GPa)
#
#
# Indices 1 2 3 4 5 6 
#
# 1 0.008747 -0.004012 -0.003281 0.000000 -0.001783 0.000000
# 2 -0.004012 0.014342 -0.002533 0.000000 0.002187 0.000000
# 3 -0.003281 -0.002533 0.011647 0.000000 0.006047 0.000000
# 4 0.000000 0.000000 0.000000 0.103775 0.000000 0.004424
# 5 -0.001783 0.002187 0.006047 0.000000 0.023605 0.000000
# 6 0.000000 0.000000 0.000000 0.004424 0.000000 0.036060
#
#
# Mechanical properties :
#
#
# Convention : Reuss Voigt Hill
#
# Bulk Modulus (GPa) = 66.28841 80.55778 73.42310
# Shear Modulus (GPa) = 22.43605 32.69310 27.56457
#
# Velocity S-wave (km/s) = 3.21998 3.88694 3.56907
# Velocity P-wave (km/s) = 6.66767 7.57444 7.13547
#
# Compressibility (1/GPa) = 0.01508559
#
# Stress axis : x y z
#
# Youngs Moduli (GPa) = 114.32422 69.72656 85.85743
#
# Poissons Ratio (x) = 0.27973 0.28169
# Poissons Ratio (y) = 0.45865 0.21743
# Poissons Ratio (z) = 0.37508 0.17658
#
# Static dielectric constant tensor:
#      x y z
#    x 1.882540 0.000000 -0.027440 
#    y 0.000000 1.842800 0.000000 
#    z -0.027440 0.000000 1.827100 
# 
# From -- ./inp_files/47288.got.cif
#   From: 2010.05.17/outbox.cif.g08.bks.cpg/sg15_24_cif.got.tgz:47288.got - 2010.06.03 18:47:42.
