data_PCOD9290330
_publ_section_title
;
Structure prediction by ZEFSAII (Michael W. Deem and Ramdas Pophale) SiO2 
 PCOD9290330
Probable space group: C 2/C
;
_chemical_formula_sum "Si O2"
_cell_formula_units_Z 48
_cell_length_a 5.138296
_cell_length_b 30.629552
_cell_length_c 15.496355
_cell_angle_alpha 90.000000
_cell_angle_beta 99.857625
_cell_angle_gamma 90.000000
_cell_volume 2402.866743
_symmetry_space_group_name_H-M "C 2/C"
_symmetry_group_IT_number 15
_symmetry_cell_setting 'monoclinic'
loop_
_space_group_symop_operation_xyz
x,y,z
-x,y,1/2-z
-x,-y,-z
x,-y,1/2+z
1/2+x,1/2+y,z
1/2-x,1/2+y,1/2-z
1/2-x,1/2-y,-z
1/2+x,1/2-y,1/2+z
loop_
_atom_site_type_symbol
_atom_site_label
_atom_site_fract_x
_atom_site_fract_y
_atom_site_fract_z
Si Si1 0.494814 0.594226 0.655120
Si Si2 0.497005 0.153568 0.847464
Si Si3 0.486947 0.219156 0.489829
Si Si4 0.720105 0.490292 0.442586
Si Si5 0.223234 0.566477 0.190432
Si Si6 0.789488 0.663501 0.314589
O O1 0.500000 0.572111 0.750000
O O2 0.774001 0.615489 0.641621
O O3 0.351877 0.558841 0.587813
O O4 0.290661 0.632992 0.657811
O O5 0.500000 0.173374 0.750000
O O6 0.513695 0.185161 0.930157
O O7 0.250000 0.250000 0.500000
O O8 0.393653 0.195568 0.395715
O O9 0.750000 0.250000 0.500000
O O10 0.500000 0.500000 0.500000
O O11 0.727004 0.524589 0.365121
O O12 0.000000 0.500000 0.500000
O O13 0.500000 0.574502 0.250000
O O14 0.177640 0.614012 0.144811
O O15 0.000000 0.558603 0.250000
O O16 0.500000 0.670495 0.250000
O O17 0.000000 0.666146 0.250000
#
# Coordination Sequence:
#
# PCOD9290330 Si02
#       6
#     8   8   8   8   8   8
#     4  10  22  41  65  89 129 176 214 264 323 389
#     4  10  23  44  68  96 128 174 219 268 334 399
#     4  12  26  43  69 102 130 169 216 283 346 404
#     4  12  25  37  60 102 131 169 221 276 324 376
#     4  10  22  42  63  88 129 180 221 266 324 391
#     4  10  23  43  67  95 132 178 221 269 334 405
#
# _framework density 19.976140999999998
#
# number of rings (size 3 to 8) (size 9 to 14) (size 15 to 20)
#    0.000    1.333    0.000    4.500    4.667    4.000 
#    0.000    0.000    0.000    0.000    0.000    0.000 
#    0.000    0.000    0.000    0.000    0.000    0.000 
#
# Total GULP energy -133653.229030 kJ/mol
# GULP energy per Si atom -5568.884543 kJ/mol
# Density = 1.993067 g / cm^3
# Si number density = 19.976141 Si / 1000 Ang^3
#
#
#
# Elastic Constant Matrix: (Units=GPa)
#
#
# Indices 1 2 3 4 5 6 
#
# 1 145.0309 18.2020 22.3192 0.0000 -9.7087 0.0000
# 2 18.2020 64.4643 44.2637 0.0000 -2.6143 0.0000
# 3 22.3192 44.2637 79.8645 0.0000 1.5058 0.0000
# 4 0.0000 0.0000 0.0000 57.0314 0.0000 7.4294
# 5 -9.7087 -2.6143 1.5058 0.0000 29.4369 0.0000
# 6 0.0000 0.0000 0.0000 7.4294 0.0000 27.9160
#
#
#
# Elastic Compliance Matrix: (Units=1/GPa)
#
#
# Indices 1 2 3 4 5 6 
#
# 1 0.007421 -0.000872 -0.001637 0.000000 0.002454 0.000000
# 2 -0.000872 0.025401 -0.013885 0.000000 0.002679 0.000000
# 3 -0.001637 -0.013885 0.020728 0.000000 -0.002833 0.000000
# 4 0.000000 0.000000 0.000000 0.018164 0.000000 -0.004834
# 5 0.002454 0.002679 -0.002833 0.000000 0.035163 0.000000
# 6 0.000000 0.000000 0.000000 -0.004834 0.000000 0.037108
#
#
# Mechanical properties :
#
#
# Convention : Reuss Voigt Hill
#
# Bulk Modulus (GPa) = 48.16497 50.99219 49.57858
# Shear Modulus (GPa) = 27.21925 36.51517 31.86721
#
# Velocity S-wave (km/s) = 3.69533 4.28008 3.99841
# Velocity P-wave (km/s) = 6.50929 7.07159 6.79626
#
# Compressibility (1/GPa) = 0.02076198
#
# Stress axis : x y z
#
# Youngs Moduli (GPa) = 134.75887 39.36795 48.24456
#
# Poissons Ratio (x) = 0.03432 0.07897
# Poissons Ratio (y) = 0.11749 0.66988
# Poissons Ratio (z) = 0.22058 0.54663
#
# Static dielectric constant tensor:
#      x y z
#    x 1.715650 0.000000 0.297310 
#    y 0.000000 1.835110 0.000000 
#    z 0.297310 0.000000 3.146890 
# 
# From -- ./inp_files/130063.got.cif
#   From: 2010.05.17/outbox.cif.g08.bks.cpg/sg15_66_cif.got.tgz:130063.got - 2010.06.03 18:47:42.
