data_PCOD9290698
_publ_section_title
;
Structure prediction by ZEFSAII (Michael W. Deem and Ramdas Pophale) SiO2 
 PCOD9290698
Probable space group: C 2/C
;
_chemical_formula_sum "Si O2"
_cell_formula_units_Z 64
_cell_length_a 16.534639
_cell_length_b 10.170516
_cell_length_c 14.845396
_cell_angle_alpha 90.000000
_cell_angle_beta 89.826709
_cell_angle_gamma 90.000000
_cell_volume 2496.476632
_symmetry_space_group_name_H-M "C 2/C"
_symmetry_group_IT_number 15
_symmetry_cell_setting 'monoclinic'
loop_
_space_group_symop_operation_xyz
x,y,z
-x,y,1/2-z
-x,-y,-z
x,-y,1/2+z
1/2+x,1/2+y,z
1/2-x,1/2+y,1/2-z
1/2-x,1/2-y,-z
1/2+x,1/2-y,1/2+z
loop_
_atom_site_type_symbol
_atom_site_label
_atom_site_fract_x
_atom_site_fract_y
_atom_site_fract_z
Si Si1 0.159492 0.531842 0.079651
Si Si2 0.159444 0.999713 0.235089
Si Si3 0.503248 0.812774 0.655977
Si Si4 0.398814 0.955785 0.121066
Si Si5 0.575413 0.532562 0.066839
Si Si6 0.306197 0.808780 0.279080
Si Si7 0.838830 0.081975 0.076274
Si Si8 0.987947 0.253777 0.038318
O O1 0.087521 0.617034 0.125302
O O2 0.168974 0.393313 0.132344
O O3 0.245219 0.607916 0.092899
O O4 0.150055 0.516011 0.971048
O O5 0.101220 0.956475 0.154805
O O6 0.195604 0.148723 0.211486
O O7 0.121758 0.028729 0.332477
O O8 0.223017 0.882801 0.250791
O O9 0.500000 0.737949 0.750000
O O10 0.479686 0.745435 0.562378
O O11 0.430438 0.917062 0.671492
O O12 0.363054 0.854749 0.194613
O O13 0.480751 0.896595 0.077672
O O14 0.545662 0.671881 0.101746
O O15 0.500000 0.500000 0.000000
O O16 0.652058 0.526448 0.001473
O O17 0.895550 0.199069 0.040205
#
# Coordination Sequence:
#
# PCOD9290698 Si02
#       8
#     8   8   8   8   8   8   8   8
#     4  10  22  41  68  98 142 185 243 309 367 441
#     4  11  25  48  76 108 151 196 248 315 374 450
#     4  11  23  40  60 101 146 183 245 304 373 440
#     4  11  22  41  67 101 141 191 245 307 375 443
#     4  10  24  46  68 105 147 192 251 301 369 446
#     4  11  24  47  73 112 144 198 250 309 380 449
#     4  10  22  47  68 103 138 192 249 295 373 443
#     4  10  22  41  68  98 134 195 240 299 368 441
#
# _framework density 25.636130000000001
#
# number of rings (size 3 to 8) (size 9 to 14) (size 15 to 20)
#    0.000    1.500    2.500    2.250    3.500    4.000 
#   27.000    3.125    0.000    0.000    0.000    0.000 
#    0.000    0.000    0.000    0.000    0.000    0.000 
#
# Total GULP energy -178492.001187 kJ/mol
# GULP energy per Si atom -5577.875037 kJ/mol
# Density = 2.557778 g / cm^3
# Si number density = 25.636130 Si / 1000 Ang^3
#
#
#
# Elastic Constant Matrix: (Units=GPa)
#
#
# Indices 1 2 3 4 5 6 
#
# 1 80.2554 14.1159 21.0512 0.0000 11.0629 0.0000
# 2 14.1159 70.8975 -0.5955 0.0000 -7.7862 0.0000
# 3 21.0512 -0.5955 124.4397 0.0000 -3.5592 0.0000
# 4 0.0000 0.0000 0.0000 33.4973 0.0000 -3.9349
# 5 11.0629 -7.7862 -3.5592 0.0000 39.1984 0.0000
# 6 0.0000 0.0000 0.0000 -3.9349 0.0000 34.8216
#
#
#
# Elastic Compliance Matrix: (Units=1/GPa)
#
#
# Indices 1 2 3 4 5 6 
#
# 1 0.014437 -0.003445 -0.002602 0.000000 -0.004995 0.000000
# 2 -0.003445 0.015244 0.000772 0.000000 0.004070 0.000000
# 3 -0.002602 0.000772 0.008527 0.000000 0.001662 0.000000
# 4 0.000000 0.000000 0.000000 0.030255 0.000000 0.003419
# 5 -0.004995 0.004070 0.001662 0.000000 0.027880 0.000000
# 6 0.000000 0.000000 0.000000 0.003419 0.000000 0.029104
#
#
# Mechanical properties :
#
#
# Convention : Reuss Voigt Hill
#
# Bulk Modulus (GPa) = 36.15339 38.30398 37.22868
# Shear Modulus (GPa) = 34.43126 37.57153 36.00139
#
# Velocity S-wave (km/s) = 3.66878 3.83243 3.75149
# Velocity P-wave (km/s) = 5.66389 5.87854 5.77221
#
# Compressibility (1/GPa) = 0.02765992
#
# Stress axis : x y z
#
# Youngs Moduli (GPa) = 69.26589 65.59843 117.26946
#
# Poissons Ratio (x) = 0.22598 0.30509
# Poissons Ratio (y) = 0.23861 -0.09055
# Poissons Ratio (z) = 0.18021 -0.05065
#
# Static dielectric constant tensor:
#      x y z
#    x 2.054870 0.000000 0.043120 
#    y 0.000000 2.318800 0.000000 
#    z 0.043120 0.000000 2.028300 
# 
# From -- ./inp_files/161354.got.cif
#   From: 2010.05.17/outbox.cif.g08.bks.cpg/sg15_81_cif.got.tgz:161354.got - 2010.06.03 18:47:42.
