data_PCOD9290477
_publ_section_title
;
Structure prediction by ZEFSAII (Michael W. Deem and Ramdas Pophale) SiO2 
 PCOD9290477
Probable space group: C 2/C
;
_chemical_formula_sum "Si O2"
_cell_formula_units_Z 32
_cell_length_a 12.199675
_cell_length_b 10.928553
_cell_length_c 21.253378
_cell_angle_alpha 90.000000
_cell_angle_beta 148.379981
_cell_angle_gamma 90.000000
_cell_volume 1485.610812
_symmetry_space_group_name_H-M "C 2/C"
_symmetry_group_IT_number 15
_symmetry_cell_setting 'monoclinic'
loop_
_space_group_symop_operation_xyz
x,y,z
-x,y,1/2-z
-x,-y,-z
x,-y,1/2+z
1/2+x,1/2+y,z
1/2-x,1/2+y,1/2-z
1/2-x,1/2-y,-z
1/2+x,1/2-y,1/2+z
loop_
_atom_site_type_symbol
_atom_site_label
_atom_site_fract_x
_atom_site_fract_y
_atom_site_fract_z
Si Si1 0.500000 0.173462 0.250000
Si Si2 0.000000 0.079701 0.250000
Si Si3 0.681073 0.381314 0.252963
Si Si4 0.565983 0.818448 0.351447
Si Si5 0.139706 0.022064 0.007301
O O1 0.632377 0.260334 0.268633
O O2 0.660376 0.100653 0.372930
O O3 0.168204 0.992828 0.297271
O O4 0.085918 0.175694 0.343434
O O5 0.889271 0.356844 0.314729
O O6 0.495941 0.412878 0.112925
O O7 0.500000 0.868812 0.250000
O O8 0.775987 0.888700 0.470167
O O9 0.000000 0.000000 0.000000
#
# Coordination Sequence:
#
# PCOD9290477 Si02
#       5
#     4   4   8   8   8
#     4  11  25  44  64  98 131 171 222 282 326 401
#     4   9  23  44  62  98 135 167 224 272 328 385
#     4  11  24  44  67  95 136 175 220 278 329 399
#     4  10  22  41  66  93 132 173 214 279 319 393
#     4  12  22  42  67  96 128 178 221 266 344 388
#
# _framework density 21.539961000000002
#
# number of rings (size 3 to 8) (size 9 to 14) (size 15 to 20)
#    0.750    0.500    3.750    0.750    7.000    1.000 
#    9.000    2.500    0.000    0.000    0.000    0.000 
#    0.000    0.000    0.000    0.000    0.000    0.000 
#
# Total GULP energy -89270.339763 kJ/mol
# GULP energy per Si atom -5579.396235 kJ/mol
# Density = 2.149094 g / cm^3
# Si number density = 21.539961 Si / 1000 Ang^3
#
#
#
# Elastic Constant Matrix: (Units=GPa)
#
#
# Indices 1 2 3 4 5 6 
#
# 1 184.0935 51.4679 18.7153 0.0001 -7.8539 0.0001
# 2 51.4679 112.5002 21.9468 0.0002 -6.3768 0.0001
# 3 18.7153 21.9468 80.4472 0.0016 -17.7494 0.0000
# 4 0.0001 0.0002 0.0016 449.3083 0.0007 -56.9311
# 5 -7.8539 -6.3768 -17.7494 0.0007 27.7110 0.0000
# 6 0.0001 0.0001 0.0000 -56.9311 0.0000 13.6814
#
#
#
# Elastic Compliance Matrix: (Units=1/GPa)
#
#
# Indices 1 2 3 4 5 6 
#
# 1 0.006283 -0.002723 -0.000541 0.000000 0.000808 0.000000
# 2 -0.002723 0.010577 -0.002196 0.000000 0.000256 0.000000
# 3 -0.000541 -0.002196 0.015151 0.000000 0.009046 0.000000
# 4 0.000000 0.000000 0.000000 0.004708 0.000000 0.019591
# 5 0.000808 0.000256 0.009046 0.000000 0.042169 -0.000001
# 6 0.000000 0.000000 0.000000 0.019591 -0.000001 0.154613
#
#
# Mechanical properties :
#
#
# Convention : Reuss Voigt Hill
#
# Bulk Modulus (GPa) = 47.40944 62.36677 54.88811
# Shear Modulus (GPa) = 19.88462 117.13422 68.50942
#
# Velocity S-wave (km/s) = 3.04163 7.38228 5.64578
# Velocity P-wave (km/s) = 5.86457 10.08369 8.24846
#
# Compressibility (1/GPa) = 0.02109284
#
# Stress axis : x y z
#
# Youngs Moduli (GPa) = 159.16639 94.54036 66.00169
#
# Poissons Ratio (x) = 0.25744 0.03567
# Poissons Ratio (y) = 0.43342 0.14492
# Poissons Ratio (z) = 0.08603 0.20758
#
# Static dielectric constant tensor:
#      x y z
#    x 1.727570 0.000000 -0.052000 
#    y 0.000000 1.830980 0.000000 
#    z -0.052000 0.000000 1.865920 
# 
# From -- ./inp_files/197042.got.cif
#   From: 2010.05.17/outbox.cif.g08.bks.cpg/sg15_99_cif.got.tgz:197042.got - 2010.06.03 18:47:42.
