data_PCOD9290198
_publ_section_title
;
Structure prediction by ZEFSAII (Michael W. Deem and Ramdas Pophale) SiO2 
 PCOD9290198
Probable space group: C 2/C
;
_chemical_formula_sum "Si O2"
_cell_formula_units_Z 48
_cell_length_a 8.475593
_cell_length_b 28.705825
_cell_length_c 13.898961
_cell_angle_alpha 90.000000
_cell_angle_beta 137.134502
_cell_angle_gamma 90.000000
_cell_volume 2300.434797
_symmetry_space_group_name_H-M "C 2/C"
_symmetry_group_IT_number 15
_symmetry_cell_setting 'monoclinic'
loop_
_space_group_symop_operation_xyz
x,y,z
-x,y,1/2-z
-x,-y,-z
x,-y,1/2+z
1/2+x,1/2+y,z
1/2-x,1/2+y,1/2-z
1/2-x,1/2-y,-z
1/2+x,1/2-y,1/2+z
loop_
_atom_site_type_symbol
_atom_site_label
_atom_site_fract_x
_atom_site_fract_y
_atom_site_fract_z
Si Si1 0.169416 0.429288 0.556939
Si Si2 0.271540 0.423740 0.388739
Si Si3 0.256685 0.739497 0.890051
Si Si4 0.623962 0.341877 0.530045
Si Si5 0.213963 0.018841 0.781406
Si Si6 0.384645 0.837012 0.849450
O O1 0.307713 0.431189 0.518387
O O2 0.245984 0.465196 0.673597
O O3 0.163562 0.377643 0.595551
O O4 0.923553 0.449873 0.414223
O O5 0.454977 0.385443 0.435724
O O6 0.306399 0.469626 0.339712
O O7 0.000000 0.409212 0.250000
O O8 0.306951 0.787436 0.856548
O O9 0.000000 0.721309 0.750000
O O10 0.250000 0.750000 0.000000
O O11 0.458139 0.703086 0.955434
O O12 0.738684 0.346123 0.687188
O O13 0.842527 0.337705 0.556199
O O14 0.000000 0.034078 0.750000
#
# Coordination Sequence:
#
# PCOD9290198 Si02
#       6
#     8   8   8   8   8   8
#     4  10  23  42  64  96 131 173 221 275 328 398
#     4  10  22  42  66  95 130 173 227 272 331 394
#     4  12  24  44  71 101 133 173 222 274 331 401
#     4  11  24  44  67  99 134 177 220 273 331 400
#     4  10  22  41  63  94 129 171 225 272 333 383
#     4  11  25  44  66  98 138 174 220 270 339 397
#
# _framework density 20.86562
#
# number of rings (size 3 to 8) (size 9 to 14) (size 15 to 20)
#    0.000    1.333    1.667    3.000    2.333    2.000 
#   15.000    3.333    0.000    0.000    0.000    0.000 
#    0.000    0.000    0.000    0.000    0.000    0.000 
#
# Total GULP energy -134161.069665 kJ/mol
# GULP energy per Si atom -5590.044569 kJ/mol
# Density = 2.081813 g / cm^3
# Si number density = 20.865620 Si / 1000 Ang^3
#
#
#
# Elastic Constant Matrix: (Units=GPa)
#
#
# Indices 1 2 3 4 5 6 
#
# 1 118.8799 39.6237 42.7562 0.0000 -1.7321 0.0000
# 2 39.6237 102.7372 31.6058 0.0000 -4.3107 0.0000
# 3 42.7562 31.6058 92.0345 0.0000 9.0635 0.0000
# 4 0.0000 0.0000 0.0000 69.3822 0.0000 19.6728
# 5 -1.7321 -4.3107 9.0635 0.0000 41.3456 0.0000
# 6 0.0000 0.0000 0.0000 19.6728 0.0000 38.5243
#
#
#
# Elastic Compliance Matrix: (Units=1/GPa)
#
#
# Indices 1 2 3 4 5 6 
#
# 1 0.010886 -0.002868 -0.004178 0.000000 0.001073 0.000000
# 2 -0.002868 0.011803 -0.002893 0.000000 0.001744 0.000000
# 3 -0.004178 -0.002893 0.014152 0.000000 -0.003579 0.000000
# 4 0.000000 0.000000 0.000000 0.016853 0.000000 -0.008606
# 5 0.001073 0.001744 -0.003579 0.000000 0.025198 0.000000
# 6 0.000000 0.000000 0.000000 -0.008606 0.000000 0.030352
#
#
# Mechanical properties :
#
#
# Convention : Reuss Voigt Hill
#
# Bulk Modulus (GPa) = 58.94962 60.18032 59.56497
# Shear Modulus (GPa) = 37.09838 43.16147 40.12992
#
# Velocity S-wave (km/s) = 4.22117 4.55306 4.39025
# Velocity P-wave (km/s) = 7.21603 7.51964 7.36940
#
# Compressibility (1/GPa) = 0.01696364
#
# Stress axis : x y z
#
# Youngs Moduli (GPa) = 91.85983 84.72526 70.66019
#
# Poissons Ratio (x) = 0.24301 0.29522
# Poissons Ratio (y) = 0.26348 0.20439
# Poissons Ratio (z) = 0.38379 0.24507
#
# Static dielectric constant tensor:
#      x y z
#    x 1.734850 0.000000 -0.001640 
#    y 0.000000 1.708400 0.000000 
#    z -0.001640 0.000000 1.736170 
# 
# From -- ./inp_files/139035.got.cif
#   From: 2010.05.17/outbox.cif.g08.bks.cpg/sg15_70_cif.got.tgz:139035.got - 2010.06.03 18:47:42.
