data_PCOD9290749
_publ_section_title
;
Structure prediction by ZEFSAII (Michael W. Deem and Ramdas Pophale) SiO2 
 PCOD9290749
Probable space group: C 2/C
;
_chemical_formula_sum "Si O2"
_cell_formula_units_Z 56
_cell_length_a 13.354339
_cell_length_b 27.399431
_cell_length_c 9.760754
_cell_angle_alpha 90.000000
_cell_angle_beta 128.948755
_cell_angle_gamma 90.000000
_cell_volume 2777.564544
_symmetry_space_group_name_H-M "C 2/C"
_symmetry_group_IT_number 15
_symmetry_cell_setting 'monoclinic'
loop_
_space_group_symop_operation_xyz
x,y,z
-x,y,1/2-z
-x,-y,-z
x,-y,1/2+z
1/2+x,1/2+y,z
1/2-x,1/2+y,1/2-z
1/2-x,1/2-y,-z
1/2+x,1/2-y,1/2+z
loop_
_atom_site_type_symbol
_atom_site_label
_atom_site_fract_x
_atom_site_fract_y
_atom_site_fract_z
Si Si1 0.637521 0.944365 0.431810
Si Si2 0.267054 0.896454 0.740835
Si Si3 0.864390 0.807586 0.205389
Si Si4 0.632938 0.196492 0.287307
Si Si5 0.143927 0.445360 0.939567
Si Si6 0.008139 0.950562 0.594308
Si Si7 0.742050 0.606625 0.705494
O O1 0.500000 0.951813 0.250000
O O2 0.635531 0.928955 0.586813
O O3 0.696882 0.900534 0.392713
O O4 0.695887 0.998959 0.476914
O O5 0.320134 0.841497 0.787481
O O6 0.270642 0.912548 0.586957
O O7 0.130924 0.914829 0.680451
O O8 0.889053 0.752200 0.278328
O O9 0.802955 0.842193 0.268749
O O10 0.000000 0.824164 0.250000
O O11 0.752308 0.803792 0.995368
O O12 0.500000 0.180650 0.250000
O O13 0.000000 0.442933 0.750000
O O14 0.166287 0.422324 0.108299
O O15 0.000000 0.960275 0.750000
O O16 0.889020 0.921921 0.429726
O O17 0.000000 0.000000 0.500000
#
# Coordination Sequence:
#
# PCOD9290749 Si02
#       7
#     8   8   8   8   8   8   8
#     4  11  24  39  58  89 134 167 203 258 319 387
#     4  12  23  40  65  92 129 164 217 263 321 376
#     4  10  22  42  66  96 123 162 214 276 327 386
#     4  10  22  41  69  97 123 159 219 276 326 381
#     4  11  23  40  63  92 124 171 216 256 311 384
#     4  12  27  43  64  92 133 180 221 262 314 390
#     4  12  24  40  64  91 128 166 217 262 324 383
#
# _framework density 20.161548
#
# number of rings (size 3 to 8) (size 9 to 14) (size 15 to 20)
#    0.000    0.857    2.857    4.714    4.000    2.286 
#    0.000    0.714    0.000    0.000    0.000    0.000 
#    0.000    0.000    0.000    0.000    0.000    0.000 
#
# Total GULP energy -156089.100023 kJ/mol
# GULP energy per Si atom -5574.610715 kJ/mol
# Density = 2.011566 g / cm^3
# Si number density = 20.161548 Si / 1000 Ang^3
#
#
#
# Elastic Constant Matrix: (Units=GPa)
#
#
# Indices 1 2 3 4 5 6 
#
# 1 94.5715 36.0499 16.3795 0.0000 6.5268 0.0000
# 2 36.0499 122.9585 11.6134 0.0000 -9.4598 0.0000
# 3 16.3795 11.6134 81.7870 0.0000 9.3548 0.0000
# 4 0.0000 0.0000 0.0000 12.9368 0.0000 4.6319
# 5 6.5268 -9.4598 9.3548 0.0000 36.3842 0.0000
# 6 0.0000 0.0000 0.0000 4.6319 0.0000 28.4360
#
#
#
# Elastic Compliance Matrix: (Units=1/GPa)
#
#
# Indices 1 2 3 4 5 6 
#
# 1 0.012467 -0.003713 -0.001652 0.000000 -0.002777 0.000000
# 2 -0.003713 0.009579 -0.001007 0.000000 0.003416 0.000000
# 3 -0.001652 -0.001007 0.013082 0.000000 -0.003329 0.000000
# 4 0.000000 0.000000 0.000000 0.082086 0.000000 -0.013371
# 5 -0.002777 0.003416 -0.003329 0.000000 0.029727 0.000000
# 6 0.000000 0.000000 0.000000 -0.013371 0.000000 0.037345
#
#
# Mechanical properties :
#
#
# Convention : Reuss Voigt Hill
#
# Bulk Modulus (GPa) = 44.67533 47.48917 46.08225
# Shear Modulus (GPa) = 24.45099 31.23635 27.84367
#
# Velocity S-wave (km/s) = 3.48624 3.94039 3.72025
# Velocity P-wave (km/s) = 6.19774 6.65640 6.43116
#
# Compressibility (1/GPa) = 0.02238372
#
# Stress axis : x y z
#
# Youngs Moduli (GPa) = 80.21130 104.39178 76.44367
#
# Poissons Ratio (x) = 0.38759 0.12628
# Poissons Ratio (y) = 0.29781 0.07700
# Poissons Ratio (z) = 0.13251 0.10516
#
# Static dielectric constant tensor:
#      x y z
#    x 1.889240 0.000000 0.046870 
#    y 0.000000 1.809660 0.000000 
#    z 0.046870 0.000000 1.672830 
# 
# From -- ./inp_files/35782.got.cif
#   From: 2010.05.17/outbox.cif.g08.bks.cpg/sg15_18_cif.got.tgz:35782.got - 2010.06.03 18:47:42.
