data_PCOD9290118
_publ_section_title
;
Structure prediction by ZEFSAII (Michael W. Deem and Ramdas Pophale) SiO2 
 PCOD9290118
Probable space group: C 2/C
;
_chemical_formula_sum "Si O2"
_cell_formula_units_Z 64
_cell_length_a 8.738002
_cell_length_b 27.246165
_cell_length_c 13.078080
_cell_angle_alpha 90.000000
_cell_angle_beta 81.003198
_cell_angle_gamma 90.000000
_cell_volume 3075.284345
_symmetry_space_group_name_H-M "C 2/C"
_symmetry_group_IT_number 15
_symmetry_cell_setting 'monoclinic'
loop_
_space_group_symop_operation_xyz
x,y,z
-x,y,1/2-z
-x,-y,-z
x,-y,1/2+z
1/2+x,1/2+y,z
1/2-x,1/2+y,1/2-z
1/2-x,1/2-y,-z
1/2+x,1/2-y,1/2+z
loop_
_atom_site_type_symbol
_atom_site_label
_atom_site_fract_x
_atom_site_fract_y
_atom_site_fract_z
Si Si1 0.871499 0.481000 0.092224
Si Si2 0.841312 0.310872 0.447678
Si Si3 0.666325 0.447011 0.739449
Si Si4 0.918427 0.378335 0.155986
Si Si5 0.931691 0.768550 0.642779
Si Si6 0.578088 0.364141 0.587111
Si Si7 0.403575 0.550484 0.021436
Si Si8 0.183108 0.195396 0.739446
O O1 0.800901 0.523556 0.169757
O O2 0.933153 0.436004 0.151189
O O3 0.730535 0.455111 0.046416
O O4 0.000000 0.500000 0.000000
O O5 0.718185 0.328410 0.543285
O O6 0.742586 0.306055 0.351598
O O7 0.970114 0.354020 0.438135
O O8 0.949861 0.262710 0.440783
O O9 0.500000 0.475232 0.750000
O O10 0.633047 0.397711 0.676998
O O11 0.681044 0.442355 0.859388
O O12 0.749825 0.354205 0.179381
O O13 0.000000 0.359019 0.250000
O O14 0.770089 0.739764 0.670525
O O15 0.000000 0.765303 0.750000
O O16 0.936796 0.825990 0.616810
O O17 0.524582 0.404154 0.508127
O O18 0.500000 0.500000 0.000000
O O19 0.000000 0.198921 0.750000
#
# Coordination Sequence:
#
# PCOD9290118 Si02
#       8
#     8   8   8   8   8   8   8   8
#     4  12  25  39  62  90 126 166 205 269 313 366
#     4   9  19  36  60  92 115 157 204 248 302 375
#     4  10  22  41  62  89 120 163 210 258 303 369
#     4   9  21  37  57  87 119 160 205 251 311 368
#     4   9  18  36  62  88 119 158 201 246 305 372
#     4  11  20  37  66  89 121 159 208 254 306 373
#     4  11  24  41  62  90 121 166 215 256 306 375
#     4   9  19  36  60  87 126 153 197 258 308 366
#
# _framework density 20.811083
#
# number of rings (size 3 to 8) (size 9 to 14) (size 15 to 20)
#    0.000    2.000    2.500    3.750    3.500    1.500 
#    0.000    0.625   16.500    0.000    0.000    0.000 
#    0.000    0.000    0.000    0.000    0.000    0.000 
#
# Total GULP energy -178204.646887 kJ/mol
# GULP energy per Si atom -5568.895215 kJ/mol
# Density = 2.076372 g / cm^3
# Si number density = 20.811083 Si / 1000 Ang^3
#
#
#
# Elastic Constant Matrix: (Units=GPa)
#
#
# Indices 1 2 3 4 5 6 
#
# 1 80.4221 36.5781 14.1396 0.0000 -22.9818 0.0000
# 2 36.5781 140.2230 29.8430 0.0000 -27.2710 0.0000
# 3 14.1396 29.8430 55.8683 0.0000 -18.5498 0.0000
# 4 0.0000 0.0000 0.0000 29.3159 0.0000 1.9550
# 5 -22.9818 -27.2710 -18.5498 0.0000 39.1950 0.0000
# 6 0.0000 0.0000 0.0000 1.9550 0.0000 6.0616
#
#
#
# Elastic Compliance Matrix: (Units=1/GPa)
#
#
# Indices 1 2 3 4 5 6 
#
# 1 0.015761 -0.002657 -0.000136 0.000000 0.007328 0.000000
# 2 -0.002657 0.009132 -0.003100 0.000000 0.003328 0.000000
# 3 -0.000136 -0.003100 0.022361 0.000000 0.008346 0.000000
# 4 0.000000 0.000000 0.000000 0.034861 0.000000 -0.011244
# 5 0.007328 0.003328 0.008346 0.000000 0.036076 0.000000
# 6 0.000000 0.000000 0.000000 -0.011244 0.000000 0.168599
#
#
# Mechanical properties :
#
#
# Convention : Reuss Voigt Hill
#
# Bulk Modulus (GPa) = 28.19612 48.62610 38.41111
# Shear Modulus (GPa) = 16.10829 27.97800 22.04315
#
# Velocity S-wave (km/s) = 2.78515 3.67056 3.25807
# Velocity P-wave (km/s) = 4.89088 6.43274 5.71406
#
# Compressibility (1/GPa) = 0.03546587
#
# Stress axis : x y z
#
# Youngs Moduli (GPa) = 63.44765 109.50775 44.72107
#
# Poissons Ratio (x) = 0.29098 0.00610
# Poissons Ratio (y) = 0.16859 0.13865
# Poissons Ratio (z) = 0.00866 0.33950
#
# Static dielectric constant tensor:
#      x y z
#    x 1.805330 0.000000 0.011180 
#    y 0.000000 1.783180 0.000000 
#    z 0.011180 0.000000 1.771280 
# 
# From -- ./inp_files/138574.got.cif
#   From: 2010.05.17/outbox.cif.g08.bks.cpg/sg15_70_cif.got.tgz:138574.got - 2010.06.03 18:47:42.
