data_PCOD9290573
_publ_section_title
;
Structure prediction by ZEFSAII (Michael W. Deem and Ramdas Pophale) SiO2 
 PCOD9290573
Probable space group: C 2/C
;
_chemical_formula_sum "Si O2"
_cell_formula_units_Z 32
_cell_length_a 17.814558
_cell_length_b 18.494119
_cell_length_c 10.095510
_cell_angle_alpha 90.000000
_cell_angle_beta 28.718579
_cell_angle_gamma 90.000000
_cell_volume 1598.223435
_symmetry_space_group_name_H-M "C 2/C"
_symmetry_group_IT_number 15
_symmetry_cell_setting 'monoclinic'
loop_
_space_group_symop_operation_xyz
x,y,z
-x,y,1/2-z
-x,-y,-z
x,-y,1/2+z
1/2+x,1/2+y,z
1/2-x,1/2+y,1/2-z
1/2-x,1/2-y,-z
1/2+x,1/2-y,1/2+z
loop_
_atom_site_type_symbol
_atom_site_label
_atom_site_fract_x
_atom_site_fract_y
_atom_site_fract_z
Si Si1 0.329763 0.073851 0.173200
Si Si2 0.200841 0.550208 0.578941
Si Si3 0.314879 0.728819 0.042774
Si Si4 0.680000 0.697207 0.996903
O O1 0.266743 0.154556 0.285638
O O2 0.272934 0.022810 0.380000
O O3 0.518604 0.072469 0.881925
O O4 0.277250 0.042965 0.112116
O O5 0.301688 0.615827 0.479989
O O6 0.500000 0.719032 0.750000
O O7 0.250000 0.750000 0.000000
O O8 0.272486 0.788825 0.217847
O O9 0.500000 0.715395 0.250000
O O10 0.750000 0.750000 0.000000
#
# Coordination Sequence:
#
# PCOD9290573 Si02
#       4
#     8   8   8   8
#     4  10  22  42  65  94 130 169 214 263 321 387
#     4  10  22  41  67  94 127 171 214 262 323 386
#     4  12  26  42  65  99 133 167 214 272 322 378
#     4  12  24  44  69  95 128 175 218 264 323 387
#
# _framework density 20.022231999999999
#
# number of rings (size 3 to 8) (size 9 to 14) (size 15 to 20)
#    0.000    1.000    2.500    4.500    3.500    1.000 
#    0.000    2.500    0.000    0.000    0.000    0.000 
#    0.000    0.000    0.000    0.000    0.000    0.000 
#
# Total GULP energy -89528.668330 kJ/mol
# GULP energy per Si atom -5595.541771 kJ/mol
# Density = 1.997666 g / cm^3
# Si number density = 20.022232 Si / 1000 Ang^3
#
#
#
# Elastic Constant Matrix: (Units=GPa)
#
#
# Indices 1 2 3 4 5 6 
#
# 1 137.8399 24.8728 31.4609 0.0000 16.2925 0.0003
# 2 24.8728 37.7305 -4.0109 -0.0001 -1.0005 0.0010
# 3 31.4609 -4.0109 42.5055 0.0003 12.9279 0.0010
# 4 0.0000 -0.0001 0.0003 33.3885 0.0003 9.1858
# 5 16.2925 -1.0005 12.9279 0.0003 40.4885 -0.0007
# 6 0.0003 0.0010 0.0010 9.1858 -0.0007 29.2586
#
#
#
# Elastic Compliance Matrix: (Units=1/GPa)
#
#
# Indices 1 2 3 4 5 6 
#
# 1 0.010796 -0.008036 -0.008160 0.000000 -0.001938 0.000000
# 2 -0.008036 0.032755 0.008649 0.000000 0.001281 -0.000001
# 3 -0.008160 0.008649 0.032472 0.000000 -0.006871 -0.000002
# 4 0.000000 0.000000 0.000000 0.032782 0.000000 -0.010292
# 5 -0.001938 0.001281 -0.006871 0.000000 0.027704 0.000001
# 6 0.000000 -0.000001 -0.000002 -0.010292 0.000001 0.037409
#
#
# Mechanical properties :
#
#
# Convention : Reuss Voigt Hill
#
# Bulk Modulus (GPa) = 16.41254 35.85793 26.13524
# Shear Modulus (GPa) = 23.88670 31.67733 27.78201
#
# Velocity S-wave (km/s) = 3.45774 3.98189 3.72904
# Velocity P-wave (km/s) = 4.91490 6.25208 5.62338
#
# Compressibility (1/GPa) = 0.06092901
#
# Stress axis : x y z
#
# Youngs Moduli (GPa) = 92.62391 30.52993 30.79576
#
# Poissons Ratio (x) = 0.24534 0.25129
# Poissons Ratio (y) = 0.74433 -0.26635
# Poissons Ratio (z) = 0.75581 -0.26405
#
# Static dielectric constant tensor:
#      x y z
#    x 1.684640 0.000000 -0.001690 
#    y 0.000000 1.689580 0.000000 
#    z -0.001690 0.000000 1.697950 
# 
# From -- ./inp_files/22109.got.cif
#   From: 2010.05.17/outbox.cif.g08.bks.cpg/sg15_12_cif.got.tgz:22109.got - 2010.06.03 18:47:42.
