data_PCOD9290097
_publ_section_title
;
Structure prediction by ZEFSAII (Michael W. Deem and Ramdas Pophale) SiO2 
 PCOD9290097
Probable space group: C 2/C
;
_chemical_formula_sum "Si O2"
_cell_formula_units_Z 56
_cell_length_a 23.917465
_cell_length_b 9.457899
_cell_length_c 23.878893
_cell_angle_alpha 90.000000
_cell_angle_beta 155.616522
_cell_angle_gamma 90.000000
_cell_volume 2230.014447
_symmetry_space_group_name_H-M "C 2/C"
_symmetry_group_IT_number 15
_symmetry_cell_setting 'monoclinic'
loop_
_space_group_symop_operation_xyz
x,y,z
-x,y,1/2-z
-x,-y,-z
x,-y,1/2+z
1/2+x,1/2+y,z
1/2-x,1/2+y,1/2-z
1/2-x,1/2-y,-z
1/2+x,1/2-y,1/2+z
loop_
_atom_site_type_symbol
_atom_site_label
_atom_site_fract_x
_atom_site_fract_y
_atom_site_fract_z
Si Si1 0.000000 0.602278 0.250000
Si Si2 0.937936 0.130405 0.412671
Si Si3 0.065073 0.303106 0.928476
Si Si4 0.128813 0.348400 0.643338
Si Si5 0.383718 0.732809 0.251851
Si Si6 0.216557 0.103640 0.003559
Si Si7 0.889569 0.411444 0.986949
Si Si8 0.000000 0.100371 0.250000
O O1 0.000168 0.692609 0.307475
O O2 0.140404 0.522065 0.368790
O O3 0.788430 0.173881 0.297187
O O4 0.924325 0.111413 0.334050
O O5 0.049199 0.246563 0.528171
O O6 0.000000 0.000000 0.500000
O O7 0.158310 0.163535 0.009489
O O8 0.952129 0.321936 0.873488
O O9 0.148829 0.448699 0.012072
O O10 0.126299 0.471124 0.592460
O O11 0.221717 0.711361 0.102030
O O12 0.460535 0.865960 0.351724
O O13 0.442874 0.698271 0.246573
O O14 0.250000 0.250000 0.000000
O O15 0.110693 0.002879 0.877799
#
# Coordination Sequence:
#
# PCOD9290097 Si02
#       8
#     4   8   8   8   8   8   8   4
#     4  10  23  39  58 100 134 169 211 268 320 406
#     4  10  24  45  66 100 134 180 228 285 341 401
#     4  11  23  39  68  95 136 169 219 278 336 400
#     4  10  24  42  68  98 131 177 231 279 338 402
#     4  10  24  43  68  92 133 172 224 277 324 405
#     4  10  22  41  61  94 133 166 216 263 335 395
#     4  10  23  45  64  96 128 175 225 275 333 394
#     4  12  25  43  66  96 132 179 217 270 338 398
#
# _framework density 25.111946
#
# number of rings (size 3 to 8) (size 9 to 14) (size 15 to 20)
#    0.000    1.714    0.000    3.857    4.000    9.143 
#    0.000    0.000    0.000    0.000    0.000    0.000 
#    0.000    0.000    0.000    0.000    0.000    0.000 
#
# Total GULP energy -155958.372158 kJ/mol
# GULP energy per Si atom -5569.941863 kJ/mol
# Density = 2.505479 g / cm^3
# Si number density = 25.111946 Si / 1000 Ang^3
#
#
#
# Elastic Constant Matrix: (Units=GPa)
#
#
# Indices 1 2 3 4 5 6 
#
# 1 215.7108 11.7947 58.2426 0.0000 17.6336 0.0000
# 2 11.7947 27.1172 30.3831 0.0001 12.9806 0.0000
# 3 58.2426 30.3831 151.1293 0.0001 41.4160 0.0001
# 4 0.0000 0.0001 0.0001 22.6549 0.0000 -7.0712
# 5 17.6336 12.9806 41.4160 0.0000 39.0869 0.0000
# 6 0.0000 0.0000 0.0001 -7.0712 0.0000 19.9589
#
#
#
# Elastic Compliance Matrix: (Units=1/GPa)
#
#
# Indices 1 2 3 4 5 6 
#
# 1 0.005177 0.000050 -0.001917 0.000000 -0.000321 0.000000
# 2 0.000050 0.049437 -0.007684 0.000000 -0.008299 0.000000
# 3 -0.001917 -0.007684 0.011223 0.000000 -0.008475 0.000000
# 4 0.000000 0.000000 0.000000 0.049629 0.000000 0.017583
# 5 -0.000321 -0.008299 -0.008475 0.000000 0.037465 0.000000
# 6 0.000000 0.000000 0.000000 0.017583 0.000000 0.056332
#
#
# Mechanical properties :
#
#
# Convention : Reuss Voigt Hill
#
# Bulk Modulus (GPa) = 21.39753 66.08868 43.74310
# Shear Modulus (GPa) = 20.49660 35.90928 28.20294
#
# Velocity S-wave (km/s) = 2.86004 3.78559 3.35489
# Velocity P-wave (km/s) = 4.40974 6.74406 5.69773
#
# Compressibility (1/GPa) = 0.04673436
#
# Stress axis : x y z
#
# Youngs Moduli (GPa) = 193.16234 20.22783 89.10244
#
# Poissons Ratio (x) = -0.00101 0.17084
# Poissons Ratio (y) = -0.00964 0.68465
# Poissons Ratio (z) = 0.37035 0.15543
#
# Static dielectric constant tensor:
#      x y z
#    x 1.777960 0.000000 0.021240 
#    y 0.000000 1.912280 0.000000 
#    z 0.021240 0.000000 2.099420 
# 
# From -- ./inp_files/303309.got.cif
#   From: 2010.05.17/outbox.cif.g08.bks.cpg/sg15_152_cif.got.tgz:303309.got - 2010.06.03 18:47:42.
