data_PCOD9290354
_publ_section_title
;
Structure prediction by ZEFSAII (Michael W. Deem and Ramdas Pophale) SiO2 
 PCOD9290354
Probable space group: C 2/C
;
_chemical_formula_sum "Si O2"
_cell_formula_units_Z 44
_cell_length_a 25.967178
_cell_length_b 5.854656
_cell_length_c 15.363186
_cell_angle_alpha 90.000000
_cell_angle_beta 131.158301
_cell_angle_gamma 90.000000
_cell_volume 1758.495722
_symmetry_space_group_name_H-M "C 2/C"
_symmetry_group_IT_number 15
_symmetry_cell_setting 'monoclinic'
loop_
_space_group_symop_operation_xyz
x,y,z
-x,y,1/2-z
-x,-y,-z
x,-y,1/2+z
1/2+x,1/2+y,z
1/2-x,1/2+y,1/2-z
1/2-x,1/2-y,-z
1/2+x,1/2-y,1/2+z
loop_
_atom_site_type_symbol
_atom_site_label
_atom_site_fract_x
_atom_site_fract_y
_atom_site_fract_z
Si Si1 0.586928 0.468812 0.908899
Si Si2 0.212627 0.496978 0.466184
Si Si3 0.454290 0.693899 0.815425
Si Si4 0.190165 0.727606 0.613006
Si Si5 0.341276 0.905696 0.777605
Si Si6 0.500000 0.919668 0.250000
O O1 0.520181 0.532169 0.892420
O O2 0.585454 0.614506 0.816925
O O3 0.566609 0.226111 0.848201
O O4 0.653495 0.546819 0.034081
O O5 0.250000 0.250000 0.500000
O O6 0.187060 0.531271 0.535784
O O7 0.166256 0.503383 0.329160
O O8 0.250000 0.750000 0.500000
O O9 0.403957 0.729724 0.839586
O O10 0.486086 0.932223 0.819732
O O11 0.269188 0.785086 0.720776
O O12 0.151318 0.619854 0.651161
#
# Coordination Sequence:
#
# PCOD9290354 Si02
#       6
#     8   8   8   8   8   4
#     4   9  19  40  64  95 126 164 224 269 337 406
#     4  10  22  41  65  92 131 182 223 275 348 396
#     4   9  19  39  64  95 123 168 217 271 338 405
#     4  11  23  42  62  98 134 177 223 281 333 408
#     4  11  23  41  62  96 135 171 226 276 336 407
#     4   8  18  38  66  94 120 166 226 278 324 428
#
# _framework density 25.021384000000001
#
# number of rings (size 3 to 8) (size 9 to 14) (size 15 to 20)
#    0.000    2.545    1.818    1.091    0.000    3.636 
#   16.364    0.909    0.000    0.000    0.000    0.000 
#    0.000    0.000    0.000    0.000    0.000    0.000 
#
# Total GULP energy -122833.190300 kJ/mol
# GULP energy per Si atom -5583.326832 kJ/mol
# Density = 2.496443 g / cm^3
# Si number density = 25.021384 Si / 1000 Ang^3
#
#
#
# Elastic Constant Matrix: (Units=GPa)
#
#
# Indices 1 2 3 4 5 6 
#
# 1 80.1546 12.2014 18.0887 0.0000 10.8967 0.0000
# 2 12.2014 93.2246 27.8014 0.0000 -5.1527 0.0001
# 3 18.0887 27.8014 58.2422 0.0000 -8.4075 0.0000
# 4 0.0000 0.0000 0.0000 33.5198 0.0000 8.0255
# 5 10.8967 -5.1527 -8.4075 0.0000 29.7062 0.0000
# 6 0.0000 0.0001 0.0000 8.0255 0.0000 31.4781
#
#
#
# Elastic Compliance Matrix: (Units=1/GPa)
#
#
# Indices 1 2 3 4 5 6 
#
# 1 0.014723 -0.000757 -0.005223 0.000000 -0.007010 0.000000
# 2 -0.000757 0.012553 -0.005633 0.000000 0.000861 0.000000
# 3 -0.005223 -0.005633 0.022537 0.000000 0.007317 0.000000
# 4 0.000000 0.000000 0.000000 0.031773 0.000000 -0.008101
# 5 -0.007010 0.000861 0.007317 0.000000 0.038455 0.000000
# 6 0.000000 0.000000 0.000000 -0.008101 0.000000 0.033833
#
#
# Mechanical properties :
#
#
# Convention : Reuss Voigt Hill
#
# Bulk Modulus (GPa) = 37.61199 38.64492 38.12846
# Shear Modulus (GPa) = 26.88719 30.50948 28.69834
#
# Velocity S-wave (km/s) = 3.28162 3.49569 3.39034
# Velocity P-wave (km/s) = 5.42432 5.63661 5.53149
#
# Compressibility (1/GPa) = 0.02658727
#
# Stress axis : x y z
#
# Youngs Moduli (GPa) = 67.92170 79.66070 44.37136
#
# Poissons Ratio (x) = 0.06028 0.23176
# Poissons Ratio (y) = 0.05140 0.24994
# Poissons Ratio (z) = 0.35478 0.44872
#
# Static dielectric constant tensor:
#      x y z
#    x 2.060170 0.000000 0.050680 
#    y 0.000000 2.053020 0.000000 
#    z 0.050680 0.000000 1.974910 
# 
# From -- ./inp_files/223718.got.cif
#   From: 2010.05.17/outbox.cif.g08.bks.cpg/sg15_112_cif.got.tgz:223718.got - 2010.06.03 18:47:42.
