data_PCOD9290368
_publ_section_title
;
Structure prediction by ZEFSAII (Michael W. Deem and Ramdas Pophale) SiO2 
 PCOD9290368
Probable space group: C 2/C
;
_chemical_formula_sum "Si O2"
_cell_formula_units_Z 40
_cell_length_a 15.214137
_cell_length_b 9.512455
_cell_length_c 14.595696
_cell_angle_alpha 90.000000
_cell_angle_beta 54.526946
_cell_angle_gamma 90.000000
_cell_volume 1720.269130
_symmetry_space_group_name_H-M "C 2/C"
_symmetry_group_IT_number 15
_symmetry_cell_setting 'monoclinic'
loop_
_space_group_symop_operation_xyz
x,y,z
-x,y,1/2-z
-x,-y,-z
x,-y,1/2+z
1/2+x,1/2+y,z
1/2-x,1/2+y,1/2-z
1/2-x,1/2-y,-z
1/2+x,1/2-y,1/2+z
loop_
_atom_site_type_symbol
_atom_site_label
_atom_site_fract_x
_atom_site_fract_y
_atom_site_fract_z
Si Si1 0.764805 0.850658 0.118692
Si Si2 0.502784 0.324838 0.942760
Si Si3 0.430034 0.940989 0.381218
Si Si4 0.660790 0.218945 0.976987
Si Si5 0.775986 0.886334 0.730652
O O1 0.673480 0.861375 0.098219
O O2 0.773644 0.693350 0.153654
O O3 0.733586 0.971041 0.212320
O O4 0.884480 0.888393 0.013021
O O5 0.496215 0.171565 0.900067
O O6 0.595637 0.406235 0.831277
O O7 0.551106 0.305226 0.016324
O O8 0.500000 0.988893 0.250000
O O9 0.385696 0.067316 0.469430
O O10 0.750000 0.250000 0.000000
O O11 0.726194 0.264751 0.846320
#
# Coordination Sequence:
#
# PCOD9290368 Si02
#       5
#     8   8   8   8   8
#     4  12  24  43  70  91 138 175 218 273 340 383
#     4  10  24  41  67  95 132 175 219 277 326 395
#     4  12  22  41  67 100 132 175 220 275 330 397
#     4  10  22  41  65  93 137 169 219 269 327 396
#     4  10  25  42  65  98 131 171 225 268 324 401
#
# _framework density 23.252175000000001
#
# number of rings (size 3 to 8) (size 9 to 14) (size 15 to 20)
#    1.200    0.000    4.000    1.800    5.600    0.000 
#    0.000    0.000    4.400    0.000    0.000    0.000 
#    0.000    0.000    0.000    0.000    0.000    0.000 
#
# Total GULP energy -111422.983451 kJ/mol
# GULP energy per Si atom -5571.149173 kJ/mol
# Density = 2.319925 g / cm^3
# Si number density = 23.252175 Si / 1000 Ang^3
#
#
#
# Elastic Constant Matrix: (Units=GPa)
#
#
# Indices 1 2 3 4 5 6 
#
# 1 131.7512 5.9661 17.9234 0.0000 -14.3205 0.0000
# 2 5.9661 96.0073 24.8090 0.0000 8.6201 0.0000
# 3 17.9234 24.8090 45.4916 0.0000 0.8767 0.0000
# 4 0.0000 0.0000 0.0000 39.9413 0.0000 -1.6731
# 5 -14.3205 8.6201 0.8767 0.0000 22.6831 0.0000
# 6 0.0000 0.0000 0.0000 -1.6731 0.0000 32.0915
#
#
#
# Elastic Compliance Matrix: (Units=1/GPa)
#
#
# Indices 1 2 3 4 5 6 
#
# 1 0.008683 -0.000159 -0.003443 0.000000 0.005675 0.000000
# 2 -0.000159 0.012573 -0.006705 0.000000 -0.004619 0.000000
# 3 -0.003443 -0.006705 0.027008 0.000000 -0.000670 0.000000
# 4 0.000000 0.000000 0.000000 0.025092 0.000000 0.001308
# 5 0.005675 -0.004619 -0.000670 0.000000 0.049450 0.000000
# 6 0.000000 0.000000 0.000000 0.001308 0.000000 0.031229
#
#
# Mechanical properties :
#
#
# Convention : Reuss Voigt Hill
#
# Bulk Modulus (GPa) = 36.16822 41.18302 38.67562
# Shear Modulus (GPa) = 27.19369 33.91329 30.55349
#
# Velocity S-wave (km/s) = 3.42352 3.82317 3.62885
# Velocity P-wave (km/s) = 5.58712 6.10236 5.85041
#
# Compressibility (1/GPa) = 0.02764858
#
# Stress axis : x y z
#
# Youngs Moduli (GPa) = 115.17335 79.53448 37.02574
#
# Poissons Ratio (x) = 0.01267 0.12749
# Poissons Ratio (y) = 0.01835 0.24826
# Poissons Ratio (z) = 0.39658 0.53328
#
# Static dielectric constant tensor:
#      x y z
#    x 1.879000 0.000000 -0.013590 
#    y 0.000000 1.880520 0.000000 
#    z -0.013590 0.000000 1.935340 
# 
# From -- ./inp_files/202477.got.cif
#   From: 2010.05.17/outbox.cif.g08.bks.cpg/sg15_102_cif.got.tgz:202477.got - 2010.06.03 18:47:42.
