data_PCOD9290442
_publ_section_title
;
Structure prediction by ZEFSAII (Michael W. Deem and Ramdas Pophale) SiO2 
 PCOD9290442
Probable space group: C 2/C
;
_chemical_formula_sum "Si O2"
_cell_formula_units_Z 48
_cell_length_a 15.658353
_cell_length_b 5.296551
_cell_length_c 24.306292
_cell_angle_alpha 90.000000
_cell_angle_beta 60.751468
_cell_angle_gamma 90.000000
_cell_volume 1758.845242
_symmetry_space_group_name_H-M "C 2/C"
_symmetry_group_IT_number 15
_symmetry_cell_setting 'monoclinic'
loop_
_space_group_symop_operation_xyz
x,y,z
-x,y,1/2-z
-x,-y,-z
x,-y,1/2+z
1/2+x,1/2+y,z
1/2-x,1/2+y,1/2-z
1/2-x,1/2-y,-z
1/2+x,1/2-y,1/2+z
loop_
_atom_site_type_symbol
_atom_site_label
_atom_site_fract_x
_atom_site_fract_y
_atom_site_fract_z
Si Si1 0.189688 0.581644 0.819417
Si Si2 0.082130 0.337357 0.579492
Si Si3 0.100990 0.925723 0.398089
Si Si4 0.809768 0.328205 0.534569
Si Si5 0.476275 0.173092 0.699871
Si Si6 0.148146 0.946790 0.156669
O O1 0.154940 0.296769 0.844878
O O2 0.304447 0.616264 0.799256
O O3 0.139586 0.661561 0.777183
O O4 0.142585 0.798022 0.873671
O O5 0.131229 0.436046 0.508784
O O6 0.019725 0.548312 0.631222
O O7 0.152920 0.261418 0.607218
O O8 0.010182 0.110650 0.586291
O O9 0.114985 0.847816 0.456869
O O10 0.750000 0.250000 0.500000
O O11 0.725888 0.360376 0.606432
O O12 0.500000 0.029592 0.750000
O O13 0.541801 0.425181 0.687935
#
# Coordination Sequence:
#
# PCOD9290442 Si02
#       6
#     8   8   8   8   8   8
#     4  10  23  45  68 101 138 179 234 285 349 421
#     4  11  22  42  67  99 142 184 233 292 356 428
#     4  10  22  41  66 101 140 182 225 281 352 424
#     4  11  21  38  66 103 140 182 230 286 359 437
#     4  11  25  48  68 100 137 188 240 299 354 418
#     4  11  23  43  70  99 139 183 230 293 356 432
#
# _framework density 27.290635000000002
#
# number of rings (size 3 to 8) (size 9 to 14) (size 15 to 20)
#    0.000    1.333    3.333    2.000    2.333    2.000 
#    3.000    5.833    0.000    0.000    0.000    0.000 
#    0.000    0.000    0.000    0.000    0.000    0.000 
#
# Total GULP energy -133993.009009 kJ/mol
# GULP energy per Si atom -5583.042042 kJ/mol
# Density = 2.722852 g / cm^3
# Si number density = 27.290635 Si / 1000 Ang^3
#
#
#
# Elastic Constant Matrix: (Units=GPa)
#
#
# Indices 1 2 3 4 5 6 
#
# 1 170.0687 13.6344 45.3769 -0.0002 68.2001 0.0036
# 2 13.6344 64.1229 31.9406 0.0085 -0.3880 0.0042
# 3 45.3769 31.9406 109.5950 0.0033 15.8123 -0.0004
# 4 -0.0002 0.0085 0.0033 45.6612 -0.0010 -4.8461
# 5 68.2001 -0.3880 15.8123 -0.0010 34.1456 -0.0006
# 6 0.0036 0.0042 -0.0004 -4.8461 -0.0006 21.5719
#
#
#
# Elastic Compliance Matrix: (Units=1/GPa)
#
#
# Indices 1 2 3 4 5 6 
#
# 1 0.033211 -0.006194 -0.002534 -0.000001 -0.065231 -0.000006
# 2 -0.006194 0.019663 -0.005340 -0.000003 0.015068 -0.000003
# 3 -0.002534 -0.005340 0.011797 0.000000 -0.000462 0.000002
# 4 -0.000001 -0.000003 0.000000 0.022435 0.000002 0.005040
# 5 -0.065231 0.015068 -0.000462 0.000002 0.159959 0.000012
# 6 -0.000006 -0.000003 0.000002 0.005040 0.000012 0.047489
#
#
# Mechanical properties :
#
#
# Convention : Reuss Voigt Hill
#
# Bulk Modulus (GPa) = 27.37139 58.41005 42.89072
# Shear Modulus (GPa) = 14.93122 37.13137 26.03130
#
# Velocity S-wave (km/s) = 2.34159 3.69262 3.09180
# Velocity P-wave (km/s) = 4.16679 6.29524 5.33817
#
# Compressibility (1/GPa) = 0.03653450
#
# Stress axis : x y z
#
# Youngs Moduli (GPa) = 30.11038 50.85622 84.76913
#
# Poissons Ratio (x) = 0.31501 0.21482
# Poissons Ratio (y) = 0.18651 0.45268
# Poissons Ratio (z) = 0.07630 0.27158
#
# Static dielectric constant tensor:
#      x y z
#    x 2.328730 0.000000 -0.038540 
#    y 0.000000 2.201880 -0.000010 
#    z -0.038540 -0.000010 2.217660 
# 
# From -- ./inp_files/275841.got.cif
#   From: 2010.05.17/outbox.cif.g08.bks.cpg/sg15_138_cif.got.tgz:275841.got - 2010.06.03 18:47:42.
