data_PCOD9290108
_publ_section_title
;
Structure prediction by ZEFSAII (Michael W. Deem and Ramdas Pophale) SiO2 
 PCOD9290108
Probable space group: C 2/C
;
_chemical_formula_sum "Si O2"
_cell_formula_units_Z 44
_cell_length_a 18.479155
_cell_length_b 18.704060
_cell_length_c 5.375146
_cell_angle_alpha 90.000000
_cell_angle_beta 84.013044
_cell_angle_gamma 90.000000
_cell_volume 1847.706513
_symmetry_space_group_name_H-M "C 2/C"
_symmetry_group_IT_number 15
_symmetry_cell_setting 'monoclinic'
loop_
_space_group_symop_operation_xyz
x,y,z
-x,y,1/2-z
-x,-y,-z
x,-y,1/2+z
1/2+x,1/2+y,z
1/2-x,1/2+y,1/2-z
1/2-x,1/2-y,-z
1/2+x,1/2-y,1/2+z
loop_
_atom_site_type_symbol
_atom_site_label
_atom_site_fract_x
_atom_site_fract_y
_atom_site_fract_z
Si Si1 0.585019 0.046986 0.689813
Si Si2 0.421072 0.784551 0.810677
Si Si3 0.308846 0.829668 0.207889
Si Si4 0.431809 0.643705 0.096936
Si Si5 0.830623 0.813331 0.990177
Si Si6 0.500000 0.545085 0.750000
O O1 0.500000 0.069320 0.750000
O O2 0.637736 0.116023 0.665706
O O3 0.597090 0.001162 0.433913
O O4 0.500000 0.821784 0.750000
O O5 0.393000 0.734023 0.600612
O O6 0.350329 0.827990 0.928345
O O7 0.435998 0.726647 0.021566
O O8 0.225129 0.847930 0.293944
O O9 0.301935 0.747570 0.307236
O O10 0.500000 0.629583 0.250000
O O11 0.363256 0.628379 0.293053
O O12 0.435181 0.599434 0.841263
O O13 0.500000 0.500000 0.500000
#
# Coordination Sequence:
#
# PCOD9290108 Si02
#       6
#     8   8   8   8   8   4
#     4  10  24  45  70  98 133 180 232 284 332 411
#     4  11  21  34  67  98 134 180 224 287 349 422
#     4  10  24  39  65  98 138 179 223 292 361 423
#     4  11  20  40  61  91 129 174 226 284 338 410
#     4  10  22  41  62 100 138 174 223 293 361 419
#     4  12  24  38  64  92 128 174 228 284 330 392
#
# _framework density 23.813303000000001
#
# number of rings (size 3 to 8) (size 9 to 14) (size 15 to 20)
#    0.000    1.455    3.636    0.545    5.091    0.727 
#    0.000    1.818    0.000    0.000    0.000    0.000 
#    0.000    0.000    0.000    0.000    0.000    0.000 
#
# Total GULP energy -122515.087392 kJ/mol
# GULP energy per Si atom -5568.867609 kJ/mol
# Density = 2.375910 g / cm^3
# Si number density = 23.813303 Si / 1000 Ang^3
#
#
#
# Elastic Constant Matrix: (Units=GPa)
#
#
# Indices 1 2 3 4 5 6 
#
# 1 96.0646 16.4765 44.7383 0.0000 -47.0057 0.0000
# 2 16.4765 58.2750 29.2800 0.0000 -13.4736 0.0000
# 3 44.7383 29.2800 160.3510 0.0000 -37.7759 0.0000
# 4 0.0000 0.0000 0.0000 -64.2246 0.0000 -62.3462
# 5 -47.0057 -13.4736 -37.7759 0.0000 46.9740 0.0000
# 6 0.0000 0.0000 0.0000 -62.3462 0.0000 -25.4755
#
#
#
# Elastic Compliance Matrix: (Units=1/GPa)
#
#
# Indices 1 2 3 4 5 6 
#
# 1 0.020585 -0.000799 -0.000985 0.000000 0.019577 0.000000
# 2 -0.000799 0.019339 -0.002702 0.000000 0.002575 0.000000
# 3 -0.000985 -0.002702 0.008130 0.000000 0.004777 0.000000
# 4 0.000000 0.000000 0.000000 0.011318 0.000000 -0.027698
# 5 0.019577 0.002575 0.004777 0.000000 0.045459 0.000000
# 6 0.000000 0.000000 0.000000 -0.027698 0.000000 0.028533
#
#
# Mechanical properties :
#
#
# Convention : Reuss Voigt Hill
#
# Bulk Modulus (GPa) = 25.58708 55.07558 40.33133
# Shear Modulus (GPa) = 32.18276 6.40117 19.29196
#
# Velocity S-wave (km/s) = 3.68021 1.64131 2.84937
# Velocity P-wave (km/s) = 5.36906 5.17399 5.27243
#
# Compressibility (1/GPa) = 0.03908223
#
# Stress axis : x y z
#
# Youngs Moduli (GPa) = 48.57902 51.70984 123.00169
#
# Poissons Ratio (x) = 0.04130 0.12120
# Poissons Ratio (y) = 0.03880 0.33232
# Poissons Ratio (z) = 0.04787 0.13971
#
# Static dielectric constant tensor:
#      x y z
#    x 2.065520 0.000000 -0.074700 
#    y 0.000000 2.040070 0.000000 
#    z -0.074700 0.000000 2.007310 
# 
# From -- ./inp_files/10346.got.cif
#   From: 2010.05.17/outbox.cif.g08.bks.cpg/sg15_6_cif.got.tgz:10346.got - 2010.06.03 18:47:42.
