data_PCOD9290138
_publ_section_title
;
Structure prediction by ZEFSAII (Michael W. Deem and Ramdas Pophale) SiO2 
 PCOD9290138
Probable space group: C 2/C
;
_chemical_formula_sum "Si O2"
_cell_formula_units_Z 64
_cell_length_a 27.079287
_cell_length_b 5.853625
_cell_length_c 29.864026
_cell_angle_alpha 90.000000
_cell_angle_beta 140.249697
_cell_angle_gamma 90.000000
_cell_volume 3026.999579
_symmetry_space_group_name_H-M "C 2/C"
_symmetry_group_IT_number 15
_symmetry_cell_setting 'monoclinic'
loop_
_space_group_symop_operation_xyz
x,y,z
-x,y,1/2-z
-x,-y,-z
x,-y,1/2+z
1/2+x,1/2+y,z
1/2-x,1/2+y,1/2-z
1/2-x,1/2-y,-z
1/2+x,1/2-y,1/2+z
loop_
_atom_site_type_symbol
_atom_site_label
_atom_site_fract_x
_atom_site_fract_y
_atom_site_fract_z
Si Si1 0.958416 0.718317 0.765144
Si Si2 0.143253 0.704557 0.985504
Si Si3 0.211458 0.655611 0.864431
Si Si4 0.337845 0.021490 0.838526
Si Si5 0.788109 0.020044 0.827945
Si Si6 0.053883 0.911086 0.381817
Si Si7 0.181110 0.398428 0.932097
Si Si8 0.019268 0.532964 0.126145
O O1 0.869982 0.785532 0.694582
O O2 0.958055 0.561641 0.809016
O O3 0.000000 0.619152 0.750000
O O4 0.011390 0.924894 0.818067
O O5 0.171752 0.618664 0.957033
O O6 0.066242 0.564799 0.944839
O O7 0.113936 0.958987 0.955745
O O8 0.215274 0.695871 0.068691
O O9 0.233610 0.541284 0.833223
O O10 0.197388 0.468358 0.893126
O O11 0.265453 0.018891 0.753628
O O12 0.330193 0.269705 0.858210
O O13 0.333578 0.766968 0.858570
O O14 0.416820 0.026444 0.865239
O O15 0.102062 0.734173 0.386068
O O16 0.992151 0.799418 0.372159
O O17 0.250000 0.250000 0.000000
#
# Coordination Sequence:
#
# PCOD9290138 Si02
#       8
#     8   8   8   8   8   8   8   8
#     4  11  24  39  61 102 137 166 229 290 338 409
#     4  10  23  41  64  97 134 179 227 265 345 429
#     4  12  23  43  67 100 137 173 236 286 340 405
#     4  10  22  46  69  98 138 181 233 288 375 416
#     4  10  24  42  70 104 134 177 237 300 349 424
#     4  10  22  41  62  94 129 186 219 266 348 418
#     4  11  23  40  65  94 136 189 221 268 341 430
#     4  10  22  43  68  90 133 187 223 273 363 417
#
# _framework density 21.143049000000001
#
# number of rings (size 3 to 8) (size 9 to 14) (size 15 to 20)
#    0.000    1.500    2.500    2.625    5.250    3.500 
#    0.000    1.250    0.000    0.000    0.000    0.000 
#    0.000    0.000    0.000    0.000    0.000    0.000 
#
# Total GULP energy -178513.859370 kJ/mol
# GULP energy per Si atom -5578.558105 kJ/mol
# Density = 2.109493 g / cm^3
# Si number density = 21.143049 Si / 1000 Ang^3
#
#
#
# Elastic Constant Matrix: (Units=GPa)
#
#
# Indices 1 2 3 4 5 6 
#
# 1 110.4772 29.7203 -3.2156 -0.0026 18.4449 -0.0578
# 2 29.7203 68.8166 -1.5387 -0.0064 7.8161 -0.1589
# 3 -3.2156 -1.5387 72.7625 0.0046 27.8852 -0.0232
# 4 -0.0026 -0.0064 0.0046 5.9339 0.0127 1.4024
# 5 18.4449 7.8161 27.8852 0.0127 28.2078 0.0255
# 6 -0.0578 -0.1589 -0.0232 1.4024 0.0255 12.4184
#
#
#
# Elastic Compliance Matrix: (Units=1/GPa)
#
#
# Indices 1 2 3 4 5 6 
#
# 1 0.012206 -0.003810 0.005012 0.000013 -0.011880 0.000040
# 2 -0.003810 0.016634 0.001602 -0.000026 -0.003702 0.000209
# 3 0.005012 0.001602 0.024833 0.000010 -0.028270 0.000147
# 4 0.000013 -0.000026 0.000010 0.173145 -0.000072 -0.019553
# 5 -0.011880 -0.003702 -0.028270 -0.000072 0.072192 -0.000295
# 6 0.000040 0.000209 0.000147 -0.019553 -0.000295 0.082737
#
#
# Mechanical properties :
#
#
# Convention : Reuss Voigt Hill
#
# Bulk Modulus (GPa) = 16.86913 33.55425 25.21169
# Shear Modulus (GPa) = 12.62948 24.45136 18.54042
#
# Velocity S-wave (km/s) = 2.44669 3.40438 2.96447
# Velocity P-wave (km/s) = 3.99720 5.59979 4.86494
#
# Compressibility (1/GPa) = 0.05927987
#
# Stress axis : x y z
#
# Youngs Moduli (GPa) = 81.92712 60.11947 40.26932
#
# Poissons Ratio (x) = 0.22905 -0.20182
# Poissons Ratio (y) = 0.31214 -0.06451
# Poissons Ratio (z) = -0.41060 -0.09631
#
# Static dielectric constant tensor:
#      x y z
#    x 1.759100 -0.000050 -0.017520 
#    y -0.000050 1.843490 0.000080 
#    z -0.017520 0.000080 1.856900 
# 
# From -- ./inp_files/319313.got.cif
#   From: 2010.05.17/outbox.cif.g08.bks.cpg/sg15_160_cif.got.tgz:319313.got - 2010.06.03 18:47:42.
