data_PCOD9290789
_publ_section_title
;
Structure prediction by ZEFSAII (Michael W. Deem and Ramdas Pophale) SiO2 
 PCOD9290789
Probable space group: C 2/C
;
_chemical_formula_sum "Si O2"
_cell_formula_units_Z 44
_cell_length_a 18.623553
_cell_length_b 16.750646
_cell_length_c 6.961735
_cell_angle_alpha 90.000000
_cell_angle_beta 130.602304
_cell_angle_gamma 90.000000
_cell_volume 1648.897300
_symmetry_space_group_name_H-M "C 2/C"
_symmetry_group_IT_number 15
_symmetry_cell_setting 'monoclinic'
loop_
_space_group_symop_operation_xyz
x,y,z
-x,y,1/2-z
-x,-y,-z
x,-y,1/2+z
1/2+x,1/2+y,z
1/2-x,1/2+y,1/2-z
1/2-x,1/2-y,-z
1/2+x,1/2-y,1/2+z
loop_
_atom_site_type_symbol
_atom_site_label
_atom_site_fract_x
_atom_site_fract_y
_atom_site_fract_z
Si Si1 0.182665 0.152915 0.189350
Si Si2 0.276276 0.899484 0.510874
Si Si3 0.015592 0.759531 0.501043
Si Si4 0.000000 0.625956 0.750000
Si Si5 0.929850 0.926123 0.338517
Si Si6 0.333022 0.067520 0.713923
O O1 0.103097 0.097393 0.939781
O O2 0.247858 0.168721 0.114347
O O3 0.244953 0.106623 0.450171
O O4 0.174903 0.932465 0.252749
O O5 0.316365 0.973195 0.704015
O O6 0.340139 0.891421 0.434809
O O7 0.128760 0.775485 0.703182
O O8 0.000000 0.747397 0.250000
O O9 0.966503 0.689477 0.531604
O O10 0.972077 0.843632 0.489305
O O11 0.923822 0.578298 0.737799
O O12 0.000000 0.000000 0.500000
#
# Coordination Sequence:
#
# PCOD9290789 Si02
#       6
#     8   8   8   4   8   8
#     4   9  22  40  71 101 143 174 220 296 356 416
#     4  10  22  41  70 106 137 171 238 297 352 406
#     4  10  23  48  64 103 144 180 232 275 359 432
#     4  12  32  46  68  96 144 204 238 282 336 438
#     4   9  19  40  73 108 140 171 218 297 359 415
#     4  12  24  47  68 104 139 185 244 291 357 407
#
# _framework density 26.684501000000001
#
# number of rings (size 3 to 8) (size 9 to 14) (size 15 to 20)
#    1.091    0.727    1.818    1.091    2.545    2.909 
#    4.909    3.636    0.000    0.000    0.000    0.000 
#    0.000    0.000    0.000    0.000    0.000    0.000 
#
# Total GULP energy -122842.945195 kJ/mol
# GULP energy per Si atom -5583.770236 kJ/mol
# Density = 2.662377 g / cm^3
# Si number density = 26.684501 Si / 1000 Ang^3
#
#
#
# Elastic Constant Matrix: (Units=GPa)
#
#
# Indices 1 2 3 4 5 6 
#
# 1 151.4212 18.6326 3.2203 0.0000 -17.0013 0.0000
# 2 18.6326 68.4521 -12.9967 0.0000 9.1667 0.0000
# 3 3.2203 -12.9967 60.7915 0.0000 -15.6916 0.0000
# 4 0.0000 0.0000 0.0000 -7.6321 0.0000 11.8285
# 5 -17.0013 9.1667 -15.6916 0.0000 48.4575 0.0000
# 6 0.0000 0.0000 0.0000 11.8285 0.0000 33.2607
#
#
#
# Elastic Compliance Matrix: (Units=1/GPa)
#
#
# Indices 1 2 3 4 5 6 
#
# 1 0.007232 -0.002388 -0.000133 0.000000 0.002946 0.000000
# 2 -0.002388 0.016194 0.002817 0.000000 -0.002989 0.000000
# 3 -0.000133 0.002817 0.018452 0.000000 0.005395 0.000000
# 4 0.000000 0.000000 0.000000 -0.084469 0.000000 0.030040
# 5 0.002946 -0.002989 0.005395 0.000000 0.023983 0.000000
# 6 0.000000 0.000000 0.000000 0.030040 0.000000 0.019383
#
#
# Mechanical properties :
#
#
# Convention : Reuss Voigt Hill
#
# Bulk Modulus (GPa) = 23.54691 33.15302 28.34996
# Shear Modulus (GPa) = 348.70773 32.93780 190.82276
#
# Velocity S-wave (km/s) = 11.44385 3.51713 8.46557
# Velocity P-wave (km/s) = 13.54470 5.38002 10.30543
#
# Compressibility (1/GPa) = 0.04246841
#
# Stress axis : x y z
#
# Youngs Moduli (GPa) = 138.28291 61.75134 54.19568
#
# Poissons Ratio (x) = 0.14748 0.00722
# Poissons Ratio (y) = 0.33025 -0.15267
# Poissons Ratio (z) = 0.01843 -0.17396
#
# Static dielectric constant tensor:
#      x y z
#    x 2.229600 0.000000 0.057270 
#    y 0.000000 2.055090 0.000000 
#    z 0.057270 0.000000 2.140930 
# 
# From -- ./inp_files/55905.got.cif
#   From: 2010.05.17/outbox.cif.g08.bks.cpg/sg15_28_cif.got.tgz:55905.got - 2010.06.03 18:47:42.
