data_PCOD9290705
_publ_section_title
;
Structure prediction by ZEFSAII (Michael W. Deem and Ramdas Pophale) SiO2 
 PCOD9290705
Probable space group: C 2/C
;
_chemical_formula_sum "Si O2"
_cell_formula_units_Z 48
_cell_length_a 8.410483
_cell_length_b 18.548902
_cell_length_c 17.038768
_cell_angle_alpha 90.000000
_cell_angle_beta 48.985301
_cell_angle_gamma 90.000000
_cell_volume 2005.673879
_symmetry_space_group_name_H-M "C 2/C"
_symmetry_group_IT_number 15
_symmetry_cell_setting 'monoclinic'
loop_
_space_group_symop_operation_xyz
x,y,z
-x,y,1/2-z
-x,-y,-z
x,-y,1/2+z
1/2+x,1/2+y,z
1/2-x,1/2+y,1/2-z
1/2-x,1/2-y,-z
1/2+x,1/2-y,1/2+z
loop_
_atom_site_type_symbol
_atom_site_label
_atom_site_fract_x
_atom_site_fract_y
_atom_site_fract_z
Si Si1 0.598217 0.941163 0.028230
Si Si2 0.139449 0.801384 0.599862
Si Si3 0.580492 0.742763 0.862294
Si Si4 0.732265 0.019381 0.138493
Si Si5 0.324981 0.590256 0.745095
Si Si6 0.705531 0.682526 0.402969
O O1 0.396977 0.906275 0.137479
O O2 0.717731 0.980095 0.060186
O O3 0.751688 0.880714 0.942533
O O4 0.500000 0.000000 0.000000
O O5 0.250000 0.750000 0.500000
O O6 0.216801 0.773944 0.658795
O O7 0.898487 0.797060 0.647094
O O8 0.625168 0.669355 0.802243
O O9 0.441224 0.795648 0.852834
O O10 0.432527 0.719081 0.983996
O O11 0.500000 0.033357 0.250000
O O12 0.823969 0.097024 0.089931
O O13 0.827154 0.966326 0.172991
O O14 0.500000 0.566776 0.750000
#
# Coordination Sequence:
#
# PCOD9290705 Si02
#       6
#     8   8   8   8   8   8
#     4  11  25  45  75 105 145 188 244 304 364 443
#     4  10  22  41  69 100 137 181 231 289 357 435
#     4  10  23  44  68 101 141 182 237 297 355 442
#     4  10  23  45  67 100 142 184 239 302 358 426
#     4  11  27  44  71 105 139 189 245 297 362 428
#     4  10  22  41  74 101 137 188 234 291 374 429
#
# _framework density 23.932107999999999
#
# number of rings (size 3 to 8) (size 9 to 14) (size 15 to 20)
#    0.000    1.667    0.000    3.000   11.667    2.000 
#    0.000    0.000   11.000    0.000    0.000    0.000 
#    0.000    0.000    0.000    0.000    0.000    0.000 
#
# Total GULP energy -134290.371948 kJ/mol
# GULP energy per Si atom -5595.432165 kJ/mol
# Density = 2.387764 g / cm^3
# Si number density = 23.932108 Si / 1000 Ang^3
#
#
#
# Elastic Constant Matrix: (Units=GPa)
#
#
# Indices 1 2 3 4 5 6 
#
# 1 233.3403 74.2075 52.3223 0.0000 26.5112 0.0000
# 2 74.2075 86.7524 7.0133 0.0000 20.5853 0.0000
# 3 52.3223 7.0133 75.5284 0.0000 23.8660 0.0000
# 4 0.0000 0.0000 0.0000 224.7863 0.0000 75.4365
# 5 26.5112 20.5853 23.8660 0.0000 49.0499 0.0000
# 6 0.0000 0.0000 0.0000 75.4365 0.0000 59.1732
#
#
#
# Elastic Compliance Matrix: (Units=1/GPa)
#
#
# Indices 1 2 3 4 5 6 
#
# 1 0.007111 -0.005922 -0.004664 0.000000 0.000911 0.000000
# 2 -0.005922 0.017757 0.004487 0.000000 -0.006435 0.000000
# 3 -0.004664 0.004487 0.018733 0.000000 -0.008477 0.000000
# 4 0.000000 0.000000 0.000000 0.007775 0.000000 -0.009912
# 5 0.000911 -0.006435 -0.008477 0.000000 0.026720 0.000000
# 6 0.000000 0.000000 0.000000 -0.009912 0.000000 0.029536
#
#
# Mechanical properties :
#
#
# Convention : Reuss Voigt Hill
#
# Bulk Modulus (GPa) = 31.84474 73.63414 52.73944
# Shear Modulus (GPa) = 38.37328 84.07376 61.22352
#
# Velocity S-wave (km/s) = 4.00862 5.93350 5.06337
# Velocity P-wave (km/s) = 5.89581 8.81910 7.50124
#
# Compressibility (1/GPa) = 0.03140236
#
# Stress axis : x y z
#
# Youngs Moduli (GPa) = 140.62050 56.31601 53.38077
#
# Poissons Ratio (x) = 0.33351 0.24899
# Poissons Ratio (y) = 0.83278 -0.23952
# Poissons Ratio (z) = 0.65592 -0.25269
#
# Static dielectric constant tensor:
#      x y z
#    x 1.972530 0.000000 -0.056340 
#    y 0.000000 1.856040 0.000000 
#    z -0.056340 0.000000 1.921860 
# 
# From -- ./inp_files/190256.got.cif
#   From: 2010.05.17/outbox.cif.g08.bks.cpg/sg15_96_cif.got.tgz:190256.got - 2010.06.03 18:47:42.
