data_PCOD9290957
_publ_section_title
;
Structure prediction by ZEFSAII (Michael W. Deem and Ramdas Pophale) SiO2 
 PCOD9290957
Probable space group: C 2/C
;
_chemical_formula_sum "Si O2"
_cell_formula_units_Z 52
_cell_length_a 17.138968
_cell_length_b 13.789927
_cell_length_c 11.362343
_cell_angle_alpha 90.000000
_cell_angle_beta 58.845331
_cell_angle_gamma 90.000000
_cell_volume 2298.124423
_symmetry_space_group_name_H-M "C 2/C"
_symmetry_group_IT_number 15
_symmetry_cell_setting 'monoclinic'
loop_
_space_group_symop_operation_xyz
x,y,z
-x,y,1/2-z
-x,-y,-z
x,-y,1/2+z
1/2+x,1/2+y,z
1/2-x,1/2+y,1/2-z
1/2-x,1/2-y,-z
1/2+x,1/2-y,1/2+z
loop_
_atom_site_type_symbol
_atom_site_label
_atom_site_fract_x
_atom_site_fract_y
_atom_site_fract_z
Si Si1 0.589494 0.751643 0.917793
Si Si2 0.789217 0.811718 0.820551
Si Si3 0.631807 0.189525 0.117269
Si Si4 0.587092 0.581536 0.094402
Si Si5 0.329604 0.623552 0.035322
Si Si6 0.000000 0.526704 0.250000
Si Si7 0.558333 0.842091 0.316117
O O1 0.682471 0.790791 0.906009
O O2 0.607660 0.765828 0.765045
O O3 0.571195 0.644890 0.987811
O O4 0.507010 0.817471 0.026023
O O5 0.830923 0.866251 0.899013
O O6 0.810083 0.875732 0.688999
O O7 0.845619 0.711607 0.757932
O O8 0.733633 0.145434 0.044632
O O9 0.570173 0.098284 0.134874
O O10 0.618083 0.278330 0.039953
O O11 0.500000 0.581178 0.250000
O O12 0.618797 0.472887 0.041561
O O13 0.942540 0.456063 0.209967
O O14 0.500000 0.800911 0.250000
#
# Coordination Sequence:
#
# PCOD9290957 Si02
#       7
#     8   8   8   8   8   4   8
#     4  11  23  42  69  97 134 175 218 282 325 393
#     4  11  23  44  67  95 136 176 214 283 329 385
#     4  10  25  48  60  96 134 175 220 269 336 387
#     4  12  24  40  70 102 127 174 226 270 335 399
#     4  10  27  44  64  94 136 176 217 269 332 406
#     4  10  24  40  68  92 126 176 212 270 326 382
#     4  10  22  42  62 104 127 163 231 270 326 392
#
# _framework density 22.627148999999999
#
# number of rings (size 3 to 8) (size 9 to 14) (size 15 to 20)
#    0.462    0.923    3.077    0.462    9.692    1.231 
#    0.000    0.000    0.000    0.000    0.000    0.000 
#    0.000    0.000    0.000    0.000    0.000    0.000 
#
# Total GULP energy -145355.951073 kJ/mol
# GULP energy per Si atom -5590.613503 kJ/mol
# Density = 2.257565 g / cm^3
# Si number density = 22.627149 Si / 1000 Ang^3
#
#
#
# Elastic Constant Matrix: (Units=GPa)
#
#
# Indices 1 2 3 4 5 6 
#
# 1 70.1088 32.7775 20.4755 0.0000 -3.5148 0.0000
# 2 32.7775 168.2767 43.5507 0.0000 -12.1853 0.0000
# 3 20.4755 43.5507 82.6969 0.0000 -4.0591 0.0000
# 4 0.0000 0.0000 0.0000 32.2908 0.0000 -3.9084
# 5 -3.5148 -12.1853 -4.0591 0.0000 31.6780 0.0000
# 6 0.0000 0.0000 0.0000 -3.9084 0.0000 12.5075
#
#
#
# Elastic Compliance Matrix: (Units=1/GPa)
#
#
# Indices 1 2 3 4 5 6 
#
# 1 0.016213 -0.002417 -0.002716 0.000000 0.000521 0.000000
# 2 -0.002417 0.007396 -0.003190 0.000000 0.002168 0.000000
# 3 -0.002716 -0.003190 0.014461 0.000000 0.000325 0.000000
# 4 0.000000 0.000000 0.000000 0.032186 0.000000 0.010058
# 5 0.000521 0.002168 0.000325 0.000000 0.032501 0.000000
# 6 0.000000 0.000000 0.000000 0.010058 0.000000 0.083095
#
#
# Mechanical properties :
#
#
# Convention : Reuss Voigt Hill
#
# Bulk Modulus (GPa) = 46.67773 57.18774 51.93274
# Shear Modulus (GPa) = 23.85057 30.24718 27.04887
#
# Velocity S-wave (km/s) = 3.25016 3.66015 3.46123
# Velocity P-wave (km/s) = 5.89564 6.57199 6.24298
#
# Compressibility (1/GPa) = 0.02142349
#
# Stress axis : x y z
#
# Youngs Moduli (GPa) = 61.67893 135.20711 69.15337
#
# Poissons Ratio (x) = 0.32686 0.18779
# Poissons Ratio (y) = 0.14911 0.22060
# Poissons Ratio (z) = 0.16749 0.43131
#
# Static dielectric constant tensor:
#      x y z
#    x 1.917060 0.000000 0.017330 
#    y 0.000000 1.811780 0.000000 
#    z 0.017330 0.000000 1.858930 
# 
# From -- ./inp_files/105233.got.cif
#   From: 2010.05.17/outbox.cif.g08.bks.cpg/sg15_53_cif.got.tgz:105233.got - 2010.06.03 18:47:42.
