data_PCOD9290758
_publ_section_title
;
Structure prediction by ZEFSAII (Michael W. Deem and Ramdas Pophale) SiO2 
 PCOD9290758
Probable space group: C 2/C
;
_chemical_formula_sum "Si O2"
_cell_formula_units_Z 52
_cell_length_a 23.061128
_cell_length_b 9.415488
_cell_length_c 10.761234
_cell_angle_alpha 90.000000
_cell_angle_beta 73.235061
_cell_angle_gamma 90.000000
_cell_volume 2237.291168
_symmetry_space_group_name_H-M "C 2/C"
_symmetry_group_IT_number 15
_symmetry_cell_setting 'monoclinic'
loop_
_space_group_symop_operation_xyz
x,y,z
-x,y,1/2-z
-x,-y,-z
x,-y,1/2+z
1/2+x,1/2+y,z
1/2-x,1/2+y,1/2-z
1/2-x,1/2-y,-z
1/2+x,1/2-y,1/2+z
loop_
_atom_site_type_symbol
_atom_site_label
_atom_site_fract_x
_atom_site_fract_y
_atom_site_fract_z
Si Si1 0.448267 0.064437 0.438941
Si Si2 0.500000 0.835303 0.250000
Si Si3 0.247298 0.156970 0.882190
Si Si4 0.636658 0.731507 0.778183
Si Si5 0.507797 0.669808 0.984527
Si Si6 0.331506 0.030788 0.674114
Si Si7 0.723937 0.401212 0.056892
O O1 0.466809 0.230542 0.417354
O O2 0.500000 0.000000 0.500000
O O3 0.450095 0.953297 0.323737
O O4 0.384275 0.058837 0.545053
O O5 0.505064 0.736005 0.369221
O O6 0.193573 0.210502 0.832427
O O7 0.312480 0.156990 0.776991
O O8 0.250000 0.250000 0.000000
O O9 0.228435 0.999659 0.935026
O O10 0.575190 0.697708 0.888373
O O11 0.645129 0.900127 0.755908
O O12 0.656829 0.631317 0.651573
O O13 0.500000 0.500000 0.000000
O O14 0.268776 0.025703 0.631651
O O15 0.750000 0.250000 0.000000
#
# Coordination Sequence:
#
# PCOD9290758 Si02
#       7
#     8   4   8   8   8   8   8
#     4  10  22  41  69  98 126 177 225 269 325 411
#     4  10  22  42  70  94 128 180 234 256 332 420
#     4  11  24  40  67  96 129 173 215 267 337 382
#     4  11  23  43  64  96 133 167 220 270 323 404
#     4  11  26  45  67 102 140 170 222 294 342 388
#     4  11  22  41  68  94 130 168 223 268 314 408
#     4  11  24  39  63  96 126 167 214 268 327 386
#
# _framework density 23.242391999999999
#
# number of rings (size 3 to 8) (size 9 to 14) (size 15 to 20)
#    0.000    1.231    6.154    0.000    0.000   10.462 
#    0.000    0.000    0.000    0.000    0.000    0.000 
#    0.000    0.000    0.000    0.000    0.000    0.000 
#
# Total GULP energy -144978.867633 kJ/mol
# GULP energy per Si atom -5576.110294 kJ/mol
# Density = 2.318949 g / cm^3
# Si number density = 23.242392 Si / 1000 Ang^3
#
#
#
# Elastic Constant Matrix: (Units=GPa)
#
#
# Indices 1 2 3 4 5 6 
#
# 1 66.0158 21.7835 35.5403 0.0000 -33.6104 0.0000
# 2 21.7835 125.5315 30.2589 0.0000 -2.9715 0.0000
# 3 35.5403 30.2589 149.1069 0.0000 -44.2869 0.0000
# 4 0.0000 0.0000 0.0000 52.3040 0.0000 3.0261
# 5 -33.6104 -2.9715 -44.2869 0.0000 46.0399 0.0000
# 6 0.0000 0.0000 0.0000 3.0261 0.0000 32.4302
#
#
#
# Elastic Compliance Matrix: (Units=1/GPa)
#
#
# Indices 1 2 3 4 5 6 
#
# 1 0.026043 -0.004136 0.000279 0.000000 0.019014 0.000000
# 2 -0.004136 0.009111 -0.002219 0.000000 -0.004566 0.000000
# 3 0.000279 -0.002219 0.009952 0.000000 0.009633 0.000000
# 4 0.000000 0.000000 0.000000 0.019223 0.000000 -0.001794
# 5 0.019014 -0.004566 0.009633 0.000000 0.044573 0.000000
# 6 0.000000 0.000000 0.000000 -0.001794 0.000000 0.031003
#
#
# Mechanical properties :
#
#
# Convention : Reuss Voigt Hill
#
# Bulk Modulus (GPa) = 30.34672 57.31329 43.83001
# Shear Modulus (GPa) = 30.66726 43.02626 36.84676
#
# Velocity S-wave (km/s) = 3.63637 4.30722 3.98593
# Velocity P-wave (km/s) = 5.54219 7.03198 6.33106
#
# Compressibility (1/GPa) = 0.03295249
#
# Stress axis : x y z
#
# Youngs Moduli (GPa) = 38.39836 109.76015 100.48596
#
# Poissons Ratio (x) = 0.45402 -0.02807
# Poissons Ratio (y) = 0.15883 0.22300
# Poissons Ratio (z) = -0.01073 0.24358
#
# Static dielectric constant tensor:
#      x y z
#    x 1.898470 0.000000 0.057220 
#    y 0.000000 2.003650 0.000000 
#    z 0.057220 0.000000 1.975100 
# 
# From -- ./inp_files/121449.got.cif
#   From: 2010.05.17/outbox.cif.g08.bks.cpg/sg15_61_cif.got.tgz:121449.got - 2010.06.03 18:47:42.
