data_PCOD9290043
_publ_section_title
;
Structure prediction by ZEFSAII (Michael W. Deem and Ramdas Pophale) SiO2 
 PCOD9290043
Probable space group: C 2/C
;
_chemical_formula_sum "Si O2"
_cell_formula_units_Z 36
_cell_length_a 8.774123
_cell_length_b 24.400986
_cell_length_c 13.803422
_cell_angle_alpha 90.000000
_cell_angle_beta 30.342187
_cell_angle_gamma 90.000000
_cell_volume 1492.896057
_symmetry_space_group_name_H-M "C 2/C"
_symmetry_group_IT_number 15
_symmetry_cell_setting 'monoclinic'
loop_
_space_group_symop_operation_xyz
x,y,z
-x,y,1/2-z
-x,-y,-z
x,-y,1/2+z
1/2+x,1/2+y,z
1/2-x,1/2+y,1/2-z
1/2-x,1/2-y,-z
1/2+x,1/2-y,1/2+z
loop_
_atom_site_type_symbol
_atom_site_label
_atom_site_fract_x
_atom_site_fract_y
_atom_site_fract_z
Si Si1 0.718818 0.474289 0.961121
Si Si2 0.768317 0.588115 0.023551
Si Si3 0.507396 0.678141 0.047865
Si Si4 0.569676 0.634570 0.814282
Si Si5 0.000000 0.771201 0.750000
O O1 0.000000 0.449396 0.750000
O O2 0.500000 0.500000 0.000000
O O3 0.834545 0.525044 0.962392
O O4 0.570363 0.426213 0.103189
O O5 0.500000 0.587440 0.250000
O O6 0.646426 0.618331 0.994354
O O7 0.069239 0.623464 0.879623
O O8 0.378018 0.693072 0.225637
O O9 0.417601 0.668735 0.985567
O O10 0.733531 0.728956 0.917216
O O11 0.500000 0.661385 0.750000
#
# Coordination Sequence:
#
# PCOD9290043 Si02
#       5
#     8   8   8   8   4
#     4  12  24  43  70 100 142 190 238 285 342 420
#     4  12  24  43  70  99 139 189 239 283 341 424
#     4  11  21  44  70 104 132 180 246 290 353 418
#     4  12  27  44  67 106 151 185 227 295 357 424
#     4  10  22  40  80  98 128 184 250 296 340 422
#
# _framework density 24.114204000000001
#
# number of rings (size 3 to 8) (size 9 to 14) (size 15 to 20)
#    0.000    0.444    7.778    0.667    3.111    1.778 
#    0.000    1.111    0.000    0.000    0.000    0.000 
#    0.000    0.000    0.000    0.000    0.000    0.000 
#
# Total GULP energy -100355.133838 kJ/mol
# GULP energy per Si atom -5575.285213 kJ/mol
# Density = 2.405932 g / cm^3
# Si number density = 24.114204 Si / 1000 Ang^3
#
#
#
# Elastic Constant Matrix: (Units=GPa)
#
#
# Indices 1 2 3 4 5 6 
#
# 1 106.1732 9.5174 15.5527 0.0000 41.8204 0.0000
# 2 9.5174 90.3182 -0.8625 0.0000 26.8889 0.0000
# 3 15.5527 -0.8625 96.6553 0.0000 24.5121 0.0000
# 4 0.0000 0.0000 0.0000 16.9650 0.0000 17.6500
# 5 41.8204 26.8889 24.5121 0.0000 37.2579 0.0000
# 6 0.0000 0.0000 0.0000 17.6500 0.0000 25.0064
#
#
#
# Elastic Compliance Matrix: (Units=1/GPa)
#
#
# Indices 1 2 3 4 5 6 
#
# 1 0.020315 0.007140 0.004662 0.000000 -0.031023 0.000000
# 2 0.007140 0.017516 0.005096 0.000000 -0.024008 0.000000
# 3 0.004662 0.005096 0.014284 0.000000 -0.018309 0.000000
# 4 0.000000 0.000000 0.000000 0.221864 0.000000 -0.156596
# 5 -0.031023 -0.024008 -0.018309 0.000000 0.091034 0.000000
# 6 0.000000 0.000000 0.000000 -0.156596 0.000000 0.150518
#
#
# Mechanical properties :
#
#
# Convention : Reuss Voigt Hill
#
# Bulk Modulus (GPa) = 11.63991 37.95133 24.79562
# Shear Modulus (GPa) = 9.79678 33.77514 21.78596
#
# Velocity S-wave (km/s) = 2.01779 3.74656 3.00900
# Velocity P-wave (km/s) = 3.20408 5.87265 4.73044
#
# Compressibility (1/GPa) = 0.08591135
#
# Stress axis : x y z
#
# Youngs Moduli (GPa) = 49.22413 57.09173 70.00615
#
# Poissons Ratio (x) = -0.40762 -0.32639
# Poissons Ratio (y) = -0.35145 -0.35674
# Poissons Ratio (z) = -0.22950 -0.29093
#
# Static dielectric constant tensor:
#      x y z
#    x 2.223680 0.000000 0.091360 
#    y 0.000000 1.896240 0.000000 
#    z 0.091360 0.000000 2.019830 
# 
# From -- ./inp_files/24685.got.cif
#   From: 2010.05.17/outbox.cif.g08.bks.cpg/sg15_13_cif.got.tgz:24685.got - 2010.06.03 18:47:42.
