data_PCOD9290504
_publ_section_title
;
Structure prediction by ZEFSAII (Michael W. Deem and Ramdas Pophale) SiO2 
 PCOD9290504
Probable space group: C 2/C
;
_chemical_formula_sum "Si O2"
_cell_formula_units_Z 24
_cell_length_a 8.045836
_cell_length_b 27.807831
_cell_length_c 7.890638
_cell_angle_alpha 90.000000
_cell_angle_beta 36.063466
_cell_angle_gamma 90.000000
_cell_volume 1039.274936
_symmetry_space_group_name_H-M "C 2/C"
_symmetry_group_IT_number 15
_symmetry_cell_setting 'monoclinic'
loop_
_space_group_symop_operation_xyz
x,y,z
-x,y,1/2-z
-x,-y,-z
x,-y,1/2+z
1/2+x,1/2+y,z
1/2-x,1/2+y,1/2-z
1/2-x,1/2-y,-z
1/2+x,1/2-y,1/2+z
loop_
_atom_site_type_symbol
_atom_site_label
_atom_site_fract_x
_atom_site_fract_y
_atom_site_fract_z
Si Si1 0.699386 0.461990 0.932306
Si Si2 0.313775 0.117621 0.058276
Si Si3 0.897637 0.280734 0.639877
O O1 0.788695 0.419545 0.732626
O O2 0.000000 0.482558 0.750000
O O3 0.500000 0.444117 0.250000
O O4 0.500000 0.500000 0.000000
O O5 0.434992 0.168523 0.019464
O O6 0.000000 0.125713 0.250000
O O7 0.500000 0.098530 0.750000
O O8 0.000000 0.286008 0.750000
O O9 0.080102 0.238320 0.406932
#
# Coordination Sequence:
#
# PCOD9290504 Si02
#       3
#     8   8   8
#     4  12  27  49  75 102 138 182 234 289 350 416
#     4  12  26  44  69 103 141 179 227 283 345 410
#     4  10  22  41  66  96 134 180 227 276 337 406
#
# _framework density 23.093021
#
# number of rings (size 3 to 8) (size 9 to 14) (size 15 to 20)
#    0.000    0.667    0.000    7.000    0.000   10.667 
#    0.000    0.000    0.000    0.000    0.000    0.000 
#    0.000    0.000    0.000    0.000    0.000    0.000 
#
# Total GULP energy -67265.659661 kJ/mol
# GULP energy per Si atom -5605.471638 kJ/mol
# Density = 2.304046 g / cm^3
# Si number density = 23.093021 Si / 1000 Ang^3
#
#
#
# Elastic Constant Matrix: (Units=GPa)
#
#
# Indices 1 2 3 4 5 6 
#
# 1 92.0323 49.1245 48.8018 0.0000 -0.4006 0.0000
# 2 49.1245 128.5257 36.6571 0.0000 25.2461 0.0000
# 3 48.8018 36.6571 170.5343 0.0000 25.3468 0.0000
# 4 0.0000 0.0000 0.0000 27.3092 0.0000 -2.7586
# 5 -0.4006 25.2461 25.3468 0.0000 57.1407 0.0000
# 6 0.0000 0.0000 0.0000 -2.7586 0.0000 37.3239
#
#
#
# Elastic Compliance Matrix: (Units=1/GPa)
#
#
# Indices 1 2 3 4 5 6 
#
# 1 0.016184 -0.005924 -0.004030 0.000000 0.004518 0.000000
# 2 -0.005924 0.010994 0.000064 0.000000 -0.004928 0.000000
# 3 -0.004030 0.000064 0.007507 0.000000 -0.003387 0.000000
# 4 0.000000 0.000000 0.000000 0.036893 0.000000 0.002727
# 5 0.004518 -0.004928 -0.003387 0.000000 0.021212 0.000000
# 6 0.000000 0.000000 0.000000 0.002727 0.000000 0.026994
#
#
# Mechanical properties :
#
#
# Convention : Reuss Voigt Hill
#
# Bulk Modulus (GPa) = 67.08414 73.36211 70.22312
# Shear Modulus (GPa) = 34.59447 41.45537 38.02492
#
# Velocity S-wave (km/s) = 3.87466 4.24151 4.06223
# Velocity P-wave (km/s) = 7.00928 7.47157 7.24411
#
# Compressibility (1/GPa) = 0.01490665
#
# Stress axis : x y z
#
# Youngs Moduli (GPa) = 61.78809 90.95531 133.21649
#
# Poissons Ratio (x) = 0.53883 0.53681
# Poissons Ratio (y) = 0.36604 -0.00858
# Poissons Ratio (z) = 0.24898 -0.00586
#
# Static dielectric constant tensor:
#      x y z
#    x 1.883490 0.000000 0.024700 
#    y 0.000000 1.802040 0.000000 
#    z 0.024700 0.000000 1.828330 
# 
# From -- ./inp_files/25227.got.cif
#   From: 2010.05.17/outbox.cif.g08.bks.cpg/sg15_13_cif.got.tgz:25227.got - 2010.06.03 18:47:42.
