data_PCOD9290616
_publ_section_title
;
Structure prediction by ZEFSAII (Michael W. Deem and Ramdas Pophale) SiO2 
 PCOD9290616
Probable space group: C 2/C
;
_chemical_formula_sum "Si O2"
_cell_formula_units_Z 56
_cell_length_a 16.688041
_cell_length_b 23.294606
_cell_length_c 13.403296
_cell_angle_alpha 90.000000
_cell_angle_beta 147.222894
_cell_angle_gamma 90.000000
_cell_volume 2820.774471
_symmetry_space_group_name_H-M "C 2/C"
_symmetry_group_IT_number 15
_symmetry_cell_setting 'monoclinic'
loop_
_space_group_symop_operation_xyz
x,y,z
-x,y,1/2-z
-x,-y,-z
x,-y,1/2+z
1/2+x,1/2+y,z
1/2-x,1/2+y,1/2-z
1/2-x,1/2-y,-z
1/2+x,1/2-y,1/2+z
loop_
_atom_site_type_symbol
_atom_site_label
_atom_site_fract_x
_atom_site_fract_y
_atom_site_fract_z
Si Si1 0.368946 0.071603 0.963566
Si Si2 0.839198 0.495334 0.233892
Si Si3 0.779686 0.680997 0.425189
Si Si4 0.247516 0.192371 0.162808
Si Si5 0.500000 0.272632 0.750000
Si Si6 0.829523 0.919212 0.047657
Si Si7 0.440212 0.197310 0.076124
Si Si8 0.500000 0.089550 0.750000
O O1 0.311634 0.034843 0.810630
O O2 0.272738 0.065810 0.963306
O O3 0.371646 0.140373 0.955339
O O4 0.537282 0.046780 0.142076
O O5 0.910765 0.448812 0.235434
O O6 0.691166 0.525450 0.043051
O O7 0.723688 0.677209 0.253093
O O8 0.629638 0.691856 0.331064
O O9 0.899568 0.732329 0.571573
O O10 0.876879 0.626884 0.562920
O O11 0.416707 0.211264 0.337385
O O12 0.222686 0.138009 0.064934
O O13 0.159130 0.246730 0.028993
O O14 0.000000 0.910027 0.250000
O O15 0.500000 0.183668 0.250000
#
# Coordination Sequence:
#
# PCOD9290616 Si02
#       8
#     8   8   8   8   4   8   8   4
#     4  11  23  44  72  97 131 174 228 280 331 399
#     4  11  23  45  74  95 124 180 233 277 335 401
#     4  10  22  41  67  99 135 175 229 271 342 397
#     4  12  25  40  67 101 135 181 219 270 336 410
#     4   9  20  44  66  92 144 178 215 296 328 388
#     4  12  26  45  65  99 143 174 219 283 335 401
#     4  12  23  41  65  98 138 174 219 271 330 399
#     4  11  22  42  70  98 126 172 229 280 334 402
#
# _framework density 19.852703999999999
#
# number of rings (size 3 to 8) (size 9 to 14) (size 15 to 20)
#    0.000    0.857    4.286    2.571    4.000    2.857 
#    3.857    0.000    0.000    0.000    0.000    0.000 
#    0.000    0.000    0.000    0.000    0.000    0.000 
#
# Total GULP energy -156195.336833 kJ/mol
# GULP energy per Si atom -5578.404887 kJ/mol
# Density = 1.980752 g / cm^3
# Si number density = 19.852704 Si / 1000 Ang^3
#
#
#
# Elastic Constant Matrix: (Units=GPa)
#
#
# Indices 1 2 3 4 5 6 
#
# 1 94.3045 49.8214 31.7996 0.0000 -14.6908 0.0000
# 2 49.8214 127.4335 45.0186 0.0000 -7.0939 0.0000
# 3 31.7996 45.0186 71.6493 0.0000 -2.0375 0.0000
# 4 0.0000 0.0000 0.0000 104.6193 0.0000 123.5425
# 5 -14.6908 -7.0939 -2.0375 0.0000 23.1479 0.0000
# 6 0.0000 0.0000 0.0000 123.5425 0.0000 187.4513
#
#
#
# Elastic Compliance Matrix: (Units=1/GPa)
#
#
# Indices 1 2 3 4 5 6 
#
# 1 0.015422 -0.004163 -0.003997 0.000000 0.008160 0.000000
# 2 -0.004163 0.011361 -0.005280 0.000000 0.000375 0.000000
# 3 -0.003997 -0.005280 0.018978 0.000000 -0.002484 0.000000
# 4 0.000000 0.000000 0.000000 0.043110 0.000000 -0.028412
# 5 0.008160 0.000375 -0.002484 0.000000 0.048276 0.000000
# 6 0.000000 0.000000 0.000000 -0.028412 0.000000 0.024060
#
#
# Mechanical properties :
#
#
# Convention : Reuss Voigt Hill
#
# Bulk Modulus (GPa) = 52.96381 60.74072 56.85226
# Shear Modulus (GPa) = 25.72283 74.16020 49.94152
#
# Velocity S-wave (km/s) = 3.60347 6.11852 5.02102
# Velocity P-wave (km/s) = 6.63699 8.97648 7.89388
#
# Compressibility (1/GPa) = 0.01888082
#
# Stress axis : x y z
#
# Youngs Moduli (GPa) = 64.84081 88.02040 52.69376
#
# Poissons Ratio (x) = 0.36646 0.21061
# Poissons Ratio (y) = 0.26995 0.27822
# Poissons Ratio (z) = 0.25916 0.46474
#
# Static dielectric constant tensor:
#      x y z
#    x 1.718940 0.000000 -0.027130 
#    y 0.000000 1.704340 0.000000 
#    z -0.027130 0.000000 1.709520 
# 
# From -- ./inp_files/51602.got.cif
#   From: 2010.05.17/outbox.cif.g08.bks.cpg/sg15_26_cif.got.tgz:51602.got - 2010.06.03 18:47:42.
