data_PCOD9290200
_publ_section_title
;
Structure prediction by ZEFSAII (Michael W. Deem and Ramdas Pophale) SiO2 
 PCOD9290200
Probable space group: C 2/C
;
_chemical_formula_sum "Si O2"
_cell_formula_units_Z 56
_cell_length_a 18.904642
_cell_length_b 5.343304
_cell_length_c 23.610225
_cell_angle_alpha 90.000000
_cell_angle_beta 117.837071
_cell_angle_gamma 90.000000
_cell_volume 2108.957337
_symmetry_space_group_name_H-M "C 2/C"
_symmetry_group_IT_number 15
_symmetry_cell_setting 'monoclinic'
loop_
_space_group_symop_operation_xyz
x,y,z
-x,y,1/2-z
-x,-y,-z
x,-y,1/2+z
1/2+x,1/2+y,z
1/2-x,1/2+y,1/2-z
1/2-x,1/2-y,-z
1/2+x,1/2-y,1/2+z
loop_
_atom_site_type_symbol
_atom_site_label
_atom_site_fract_x
_atom_site_fract_y
_atom_site_fract_z
Si Si1 0.202985 0.758200 0.403522
Si Si2 0.414140 0.645079 0.092031
Si Si3 0.512830 0.311109 0.056247
Si Si4 0.851839 0.515946 0.998327
Si Si5 0.923177 0.542310 0.697907
Si Si6 0.346572 0.635091 0.257655
Si Si7 0.162305 0.634920 0.173165
O O1 0.187956 0.603324 0.456239
O O2 0.293081 0.853369 0.432083
O O3 0.160221 0.605918 0.337980
O O4 0.149375 0.000732 0.394010
O O5 0.486526 0.471966 0.101264
O O6 0.364973 0.724894 0.017114
O O7 0.442804 0.872923 0.141284
O O8 0.441896 0.110305 0.024836
O O9 0.599759 0.194767 0.099438
O O10 0.500000 0.500000 0.000000
O O11 0.909200 0.777782 0.733688
O O12 0.000000 0.397487 0.750000
O O13 0.352034 0.859598 0.306128
O O14 0.257113 0.650014 0.197311
O O15 0.353264 0.361562 0.287804
#
# Coordination Sequence:
#
# PCOD9290200 Si02
#       7
#     8   8   8   8   8   8   8
#     4   9  20  38  62  90 133 161 218 275 345 408
#     4  10  22  41  63  94 131 175 222 290 341 422
#     4  11  25  41  67  95 135 179 227 284 347 415
#     4   9  20  40  61  91 125 173 214 278 338 408
#     4  11  24  37  66  98 128 171 223 284 349 407
#     4  10  24  46  72  96 137 184 227 285 344 414
#     4  10  24  47  69  98 138 181 232 282 338 416
#
# _framework density 26.553407
#
# number of rings (size 3 to 8) (size 9 to 14) (size 15 to 20)
#    0.000    2.000    0.000    1.286   12.000    2.286 
#    0.000    0.000    0.000    0.000    0.000    0.000 
#    0.000    0.000    0.000    0.000    0.000    0.000 
#
# Total GULP energy -156685.621744 kJ/mol
# GULP energy per Si atom -5595.915062 kJ/mol
# Density = 2.649297 g / cm^3
# Si number density = 26.553407 Si / 1000 Ang^3
#
#
#
# Elastic Constant Matrix: (Units=GPa)
#
#
# Indices 1 2 3 4 5 6 
#
# 1 92.1242 0.6518 30.5090 -0.0001 19.6882 0.0005
# 2 0.6518 76.0390 14.5507 0.0002 -6.1416 0.0005
# 3 30.5090 14.5507 108.2541 -0.0001 22.5594 0.0000
# 4 -0.0001 0.0002 -0.0001 28.5139 -0.0003 -13.5645
# 5 19.6882 -6.1416 22.5594 -0.0003 43.0508 0.0001
# 6 0.0005 0.0005 0.0000 -13.5645 0.0001 40.1800
#
#
#
# Elastic Compliance Matrix: (Units=1/GPa)
#
#
# Indices 1 2 3 4 5 6 
#
# 1 0.012676 0.000046 -0.002663 0.000000 -0.004395 0.000000
# 2 0.000046 0.013911 -0.002573 0.000000 0.003312 0.000000
# 3 -0.002663 -0.002573 0.011402 0.000000 -0.005124 0.000000
# 4 0.000000 0.000000 0.000000 0.041780 0.000000 0.014105
# 5 -0.004395 0.003312 -0.005124 0.000000 0.028396 0.000000
# 6 0.000000 0.000000 0.000000 0.014105 0.000000 0.029650
#
#
# Mechanical properties :
#
#
# Convention : Reuss Voigt Hill
#
# Bulk Modulus (GPa) = 36.22052 40.87114 38.54583
# Shear Modulus (GPa) = 31.76706 37.72932 34.74819
#
# Velocity S-wave (km/s) = 3.46258 3.77355 3.62140
# Velocity P-wave (km/s) = 5.44575 5.86615 5.65985
#
# Compressibility (1/GPa) = 0.02760866
#
# Stress axis : x y z
#
# Youngs Moduli (GPa) = 78.89132 71.88783 87.70744
#
# Poissons Ratio (x) = -0.00330 0.23353
# Poissons Ratio (y) = -0.00362 0.22565
# Poissons Ratio (z) = 0.21006 0.18495
#
# Static dielectric constant tensor:
#      x y z
#    x 2.038530 0.000000 -0.024880 
#    y 0.000000 2.155550 0.000000 
#    z -0.024880 0.000000 2.185070 
# 
# From -- ./inp_files/299981.got.cif
#   From: 2010.05.17/outbox.cif.g08.bks.cpg/sg15_150_cif.got.tgz:299981.got - 2010.06.03 18:47:42.
