data_PCOD9290590
_publ_section_title
;
Structure prediction by ZEFSAII (Michael W. Deem and Ramdas Pophale) SiO2 
 PCOD9290590
Probable space group: C 2/C
;
_chemical_formula_sum "Si O2"
_cell_formula_units_Z 52
_cell_length_a 8.788432
_cell_length_b 17.696420
_cell_length_c 18.429417
_cell_angle_alpha 90.000000
_cell_angle_beta 58.536763
_cell_angle_gamma 90.000000
_cell_volume 2444.808443
_symmetry_space_group_name_H-M "C 2/C"
_symmetry_group_IT_number 15
_symmetry_cell_setting 'monoclinic'
loop_
_space_group_symop_operation_xyz
x,y,z
-x,y,1/2-z
-x,-y,-z
x,-y,1/2+z
1/2+x,1/2+y,z
1/2-x,1/2+y,1/2-z
1/2-x,1/2-y,-z
1/2+x,1/2-y,1/2+z
loop_
_atom_site_type_symbol
_atom_site_label
_atom_site_fract_x
_atom_site_fract_y
_atom_site_fract_z
Si Si1 0.212307 0.816790 0.564196
Si Si2 0.507376 0.092935 0.063868
Si Si3 0.251442 0.467342 0.382016
Si Si4 0.500000 0.758520 0.250000
Si Si5 0.281352 0.690523 0.796129
Si Si6 0.509626 0.460847 0.918371
Si Si7 0.820353 0.350692 0.840571
O O1 0.250000 0.750000 0.500000
O O2 0.401769 0.848505 0.541596
O O3 0.100399 0.790596 0.662985
O O4 0.117802 0.887527 0.549425
O O5 0.617009 0.140540 0.093449
O O6 0.353231 0.035794 0.131060
O O7 0.645919 0.044043 0.983829
O O8 0.237060 0.389352 0.343373
O O9 0.445356 0.489845 0.364907
O O10 0.336963 0.802772 0.248861
O O11 0.500000 0.692132 0.750000
O O12 0.230301 0.769608 0.848435
O O13 0.699455 0.423193 0.855570
O O14 0.500000 0.500000 0.000000
O O15 0.000000 0.354151 0.750000
#
# Coordination Sequence:
#
# PCOD9290590 Si02
#       7
#     8   8   8   4   8   8   8
#     4  11  24  43  72  99 138 189 238 295 360 430
#     4  10  22  41  67  95 136 176 228 286 355 422
#     4  10  23  44  65  98 141 176 227 295 353 426
#     4  12  24  48  72 102 144 188 248 296 370 438
#     4  11  25  45  69 102 137 182 242 294 353 431
#     4  11  23  43  69 102 140 183 235 288 366 440
#     4  11  23  43  67  97 132 182 233 286 352 426
#
# _framework density 21.269559000000001
#
# number of rings (size 3 to 8) (size 9 to 14) (size 15 to 20)
#    0.000    1.231    3.077    2.769    0.000    4.308 
#    6.923    0.000    0.000    0.000    0.000    0.000 
#    0.000    0.000    0.000    0.000    0.000    0.000 
#
# Total GULP energy -144971.755046 kJ/mol
# GULP energy per Si atom -5575.836733 kJ/mol
# Density = 2.122115 g / cm^3
# Si number density = 21.269559 Si / 1000 Ang^3
#
#
#
# Elastic Constant Matrix: (Units=GPa)
#
#
# Indices 1 2 3 4 5 6 
#
# 1 143.3774 60.7893 15.2987 0.0000 15.4986 0.0000
# 2 60.7893 135.5764 44.2584 0.0000 23.8504 0.0000
# 3 15.2987 44.2584 39.5510 0.0000 9.4938 0.0000
# 4 0.0000 0.0000 0.0000 32.0189 0.0000 -4.3875
# 5 15.4986 23.8504 9.4938 0.0000 25.1190 0.0000
# 6 0.0000 0.0000 0.0000 -4.3875 0.0000 1.6624
#
#
#
# Elastic Compliance Matrix: (Units=1/GPa)
#
#
# Indices 1 2 3 4 5 6 
#
# 1 0.008769 -0.004119 0.001735 0.000000 -0.002155 0.000000
# 2 -0.004119 0.014691 -0.013316 0.000000 -0.006375 0.000000
# 3 0.001735 -0.013316 0.040402 0.000000 -0.003696 0.000000
# 4 0.000000 0.000000 0.000000 0.048926 0.000000 0.129132
# 5 -0.002155 -0.006375 -0.003696 0.000000 0.048590 0.000000
# 6 0.000000 0.000000 0.000000 0.129132 0.000000 0.942366
#
#
# Mechanical properties :
#
#
# Convention : Reuss Voigt Hill
#
# Bulk Modulus (GPa) = 30.80703 62.13308 46.47005
# Shear Modulus (GPa) = 4.36313 24.97061 14.66687
#
# Velocity S-wave (km/s) = 1.43381 3.43010 2.62882
# Velocity P-wave (km/s) = 4.15411 6.70545 5.57762
#
# Compressibility (1/GPa) = 0.03246012
#
# Stress axis : x y z
#
# Youngs Moduli (GPa) = 114.04086 68.06761 24.75155
#
# Poissons Ratio (x) = 0.28036 -0.04293
# Poissons Ratio (y) = 0.46971 0.32960
# Poissons Ratio (z) = -0.19780 0.90642
#
# Static dielectric constant tensor:
#      x y z
#    x 1.860620 0.000000 0.001510 
#    y 0.000000 1.774160 0.000000 
#    z 0.001510 0.000000 1.831200 
# 
# From -- ./inp_files/190836.got.cif
#   From: 2010.05.17/outbox.cif.g08.bks.cpg/sg15_96_cif.got.tgz:190836.got - 2010.06.03 18:47:42.
