data_PCOD9290342
_publ_section_title
;
Structure prediction by ZEFSAII (Michael W. Deem and Ramdas Pophale) SiO2 
 PCOD9290342
Probable space group: C 2/C
;
_chemical_formula_sum "Si O2"
_cell_formula_units_Z 52
_cell_length_a 25.161807
_cell_length_b 21.556995
_cell_length_c 9.555027
_cell_angle_alpha 90.000000
_cell_angle_beta 150.571928
_cell_angle_gamma 90.000000
_cell_volume 2546.453385
_symmetry_space_group_name_H-M "C 2/C"
_symmetry_group_IT_number 15
_symmetry_cell_setting 'monoclinic'
loop_
_space_group_symop_operation_xyz
x,y,z
-x,y,1/2-z
-x,-y,-z
x,-y,1/2+z
1/2+x,1/2+y,z
1/2-x,1/2+y,1/2-z
1/2-x,1/2-y,-z
1/2+x,1/2-y,1/2+z
loop_
_atom_site_type_symbol
_atom_site_label
_atom_site_fract_x
_atom_site_fract_y
_atom_site_fract_z
Si Si1 0.000000 0.162416 0.750000
Si Si2 0.267257 0.702855 0.165517
Si Si3 0.974562 0.088943 0.404276
Si Si4 0.500000 0.678936 0.250000
Si Si5 0.000000 0.614515 0.750000
Si Si6 0.850078 0.724107 0.318372
Si Si7 0.814447 0.022062 0.600822
Si Si8 0.697710 0.064262 0.049809
O O1 0.891414 0.202379 0.499848
O O2 0.992400 0.118773 0.596674
O O3 0.191834 0.723764 0.119125
O O4 0.237346 0.629922 0.074248
O O5 0.250000 0.750000 0.000000
O O6 0.892579 0.032664 0.226033
O O7 0.928925 0.137394 0.189020
O O8 0.094848 0.068589 0.629472
O O9 0.562100 0.722862 0.498091
O O10 0.916928 0.658918 0.469704
O O11 0.926396 0.574529 0.687294
O O12 0.750000 0.750000 0.000000
O O13 0.732246 0.991043 0.523580
O O14 0.758581 0.052596 0.337648
#
# Coordination Sequence:
#
# PCOD9290342 Si02
#       8
#     4   8   8   4   4   8   8   8
#     4  12  20  39  66  94 130 175 206 272 338 388
#     4  11  23  40  62  93 132 169 216 270 340 397
#     4  11  21  36  62 101 130 162 214 268 327 403
#     4  11  22  35  62  94 124 165 211 268 320 398
#     4   9  24  44  64  92 134 172 233 264 332 406
#     4  10  22  41  65  91 125 171 218 275 330 386
#     4  11  22  39  65  97 135 170 214 269 338 386
#     4  11  23  43  65  93 133 178 215 279 321 397
#
# _framework density 20.420556999999999
#
# number of rings (size 3 to 8) (size 9 to 14) (size 15 to 20)
#    0.000    1.231    3.077    2.769    2.154    5.538 
#    0.000    0.000    0.000    4.615    0.000    0.000 
#    0.000    0.000    0.000    0.000    0.000    0.000 
#
# Total GULP energy -144958.242191 kJ/mol
# GULP energy per Si atom -5575.317007 kJ/mol
# Density = 2.037408 g / cm^3
# Si number density = 20.420557 Si / 1000 Ang^3
#
#
#
# Elastic Constant Matrix: (Units=GPa)
#
#
# Indices 1 2 3 4 5 6 
#
# 1 99.1407 38.9817 22.6126 0.0000 15.4891 0.0000
# 2 38.9817 70.7220 26.3179 0.0000 -4.3994 0.0000
# 3 22.6126 26.3179 78.9206 0.0000 12.3798 0.0000
# 4 0.0000 0.0000 0.0000 33.5982 0.0000 2.9125
# 5 15.4891 -4.3994 12.3798 0.0000 32.2866 0.0000
# 6 0.0000 0.0000 0.0000 2.9125 0.0000 33.5244
#
#
#
# Elastic Compliance Matrix: (Units=1/GPa)
#
#
# Indices 1 2 3 4 5 6 
#
# 1 0.014787 -0.008640 -0.000062 0.000000 -0.008247 0.000000
# 2 -0.008640 0.021842 -0.006304 0.000000 0.009539 0.000000
# 3 -0.000062 -0.006304 0.015876 0.000000 -0.006917 0.000000
# 4 0.000000 0.000000 0.000000 0.029989 0.000000 -0.002605
# 5 -0.008247 0.009539 -0.006917 0.000000 0.038881 0.000000
# 6 0.000000 0.000000 0.000000 -0.002605 0.000000 0.030055
#
#
# Mechanical properties :
#
#
# Convention : Reuss Voigt Hill
#
# Bulk Modulus (GPa) = 44.46075 47.17862 45.81968
# Shear Modulus (GPa) = 26.46341 30.60657 28.53499
#
# Velocity S-wave (km/s) = 3.60379 3.87565 3.74219
# Velocity P-wave (km/s) = 6.25590 6.57124 6.41551
#
# Compressibility (1/GPa) = 0.02249175
#
# Stress axis : x y z
#
# Youngs Moduli (GPa) = 67.62861 45.78376 62.98845
#
# Poissons Ratio (x) = 0.39559 0.00388
# Poissons Ratio (y) = 0.58434 0.39709
# Poissons Ratio (z) = 0.00417 0.28863
#
# Static dielectric constant tensor:
#      x y z
#    x 2.092870 0.000000 -0.041400 
#    y 0.000000 1.764490 0.000000 
#    z -0.041400 0.000000 1.734140 
# 
# From -- ./inp_files/67711.got.cif
#   From: 2010.05.17/outbox.cif.g08.bks.cpg/sg15_34_cif.got.tgz:67711.got - 2010.06.03 18:47:42.
