data_PCOD9290429
_publ_section_title
;
Structure prediction by ZEFSAII (Michael W. Deem and Ramdas Pophale) SiO2 
 PCOD9290429
Probable space group: C 2/C
;
_chemical_formula_sum "Si O2"
_cell_formula_units_Z 32
_cell_length_a 18.841357
_cell_length_b 5.322084
_cell_length_c 11.288097
_cell_angle_alpha 90.000000
_cell_angle_beta 99.832656
_cell_angle_gamma 90.000000
_cell_volume 1115.290099
_symmetry_space_group_name_H-M "C 2/C"
_symmetry_group_IT_number 15
_symmetry_cell_setting 'monoclinic'
loop_
_space_group_symop_operation_xyz
x,y,z
-x,y,1/2-z
-x,-y,-z
x,-y,1/2+z
1/2+x,1/2+y,z
1/2-x,1/2+y,1/2-z
1/2-x,1/2-y,-z
1/2+x,1/2-y,1/2+z
loop_
_atom_site_type_symbol
_atom_site_label
_atom_site_fract_x
_atom_site_fract_y
_atom_site_fract_z
Si Si1 0.472792 0.586630 0.618963
Si Si2 0.100144 0.599871 0.157584
Si Si3 0.276000 0.446205 0.322216
Si Si4 0.154870 0.613828 0.426739
O O1 0.500000 0.464534 0.750000
O O2 0.500000 0.500000 0.500000
O O3 0.515393 0.855127 0.633117
O O4 0.386868 0.619827 0.597173
O O5 0.140664 0.871691 0.155763
O O6 0.124158 0.497514 0.292978
O O7 0.128427 0.466514 0.048174
O O8 0.257433 0.682256 0.233321
O O9 0.238149 0.535586 0.432685
#
# Coordination Sequence:
#
# PCOD9290429 Si02
#       4
#     8   8   8   8
#     4  10  23  41  64  99 140 188 239 295 359 429
#     4  10  22  41  65  99 137 187 238 295 357 426
#     4  10  23  44  71 106 144 188 240 298 358 426
#     4  10  22  42  65  96 138 183 234 292 354 421
#
# _framework density 28.692084999999999
#
# number of rings (size 3 to 8) (size 9 to 14) (size 15 to 20)
#    0.000    2.000    0.000    1.500    0.000   12.000 
#    0.000   22.500    0.000    0.000    0.000    0.000 
#    0.000    0.000    0.000    0.000    0.000    0.000 
#
# Total GULP energy -89231.557845 kJ/mol
# GULP energy per Si atom -5576.972365 kJ/mol
# Density = 2.862678 g / cm^3
# Si number density = 28.692085 Si / 1000 Ang^3
#
#
#
# Elastic Constant Matrix: (Units=GPa)
#
#
# Indices 1 2 3 4 5 6 
#
# 1 145.4171 19.2123 26.0351 0.0000 -13.0108 0.0000
# 2 19.2123 99.2819 43.5157 0.0000 1.8615 0.0000
# 3 26.0351 43.5157 259.9986 0.0000 -31.2213 0.0000
# 4 0.0000 0.0000 0.0000 68.6594 0.0000 -4.1280
# 5 -13.0108 1.8615 -31.2213 0.0000 55.1004 0.0000
# 6 0.0000 0.0000 0.0000 -4.1280 0.0000 50.9417
#
#
#
# Elastic Compliance Matrix: (Units=1/GPa)
#
#
# Indices 1 2 3 4 5 6 
#
# 1 0.007245 -0.001291 -0.000321 0.000000 0.001573 0.000000
# 2 -0.001291 0.011217 -0.001964 0.000000 -0.001797 0.000000
# 3 -0.000321 -0.001964 0.004513 0.000000 0.002548 0.000000
# 4 0.000000 0.000000 0.000000 0.014636 0.000000 0.001186
# 5 0.001573 -0.001797 0.002548 0.000000 0.020024 0.000000
# 6 0.000000 0.000000 0.000000 0.001186 0.000000 0.019726
#
#
# Mechanical properties :
#
#
# Convention : Reuss Voigt Hill
#
# Bulk Modulus (GPa) = 63.19464 75.80266 69.49865
# Shear Modulus (GPa) = 55.68721 62.66925 59.17823
#
# Velocity S-wave (km/s) = 4.41029 4.67861 4.54643
# Velocity P-wave (km/s) = 6.92872 7.46074 7.19965
#
# Compressibility (1/GPa) = 0.01582413
#
# Stress axis : x y z
#
# Youngs Moduli (GPa) = 138.01739 89.15376 221.58747
#
# Poissons Ratio (x) = 0.11510 0.07104
# Poissons Ratio (y) = 0.17819 0.43514
# Poissons Ratio (z) = 0.04424 0.17508
#
# Static dielectric constant tensor:
#      x y z
#    x 2.400880 0.000000 0.067190 
#    y 0.000000 2.237740 0.000000 
#    z 0.067190 0.000000 2.253370 
# 
# From -- ./inp_files/115416.got.cif
#   From: 2010.05.17/outbox.cif.g08.bks.cpg/sg15_58_cif.got.tgz:115416.got - 2010.06.03 18:47:42.
