data_PCOD9290398
_publ_section_title
;
Structure prediction by ZEFSAII (Michael W. Deem and Ramdas Pophale) SiO2 
 PCOD9290398
Probable space group: C 2/C
;
_chemical_formula_sum "Si O2"
_cell_formula_units_Z 32
_cell_length_a 9.202898
_cell_length_b 11.369427
_cell_length_c 30.144396
_cell_angle_alpha 90.000000
_cell_angle_beta 150.076542
_cell_angle_gamma 90.000000
_cell_volume 1573.378915
_symmetry_space_group_name_H-M "C 2/C"
_symmetry_group_IT_number 15
_symmetry_cell_setting 'monoclinic'
loop_
_space_group_symop_operation_xyz
x,y,z
-x,y,1/2-z
-x,-y,-z
x,-y,1/2+z
1/2+x,1/2+y,z
1/2-x,1/2+y,1/2-z
1/2-x,1/2-y,-z
1/2+x,1/2-y,1/2+z
loop_
_atom_site_type_symbol
_atom_site_label
_atom_site_fract_x
_atom_site_fract_y
_atom_site_fract_z
Si Si1 0.454138 0.852389 0.605135
Si Si2 0.821160 0.812378 0.406854
Si Si3 0.232322 0.449884 0.595653
Si Si4 0.614681 0.982143 0.731586
O O1 0.563365 0.731060 0.611260
O O2 0.595122 0.947824 0.608715
O O3 0.106835 0.856213 0.508280
O O4 0.564733 0.877471 0.683185
O O5 0.719509 0.689435 0.401280
O O6 0.577423 0.909253 0.336889
O O7 0.543841 0.509985 0.676618
O O8 0.000000 0.500000 0.500000
O O9 0.500000 0.952242 0.750000
#
# Coordination Sequence:
#
# PCOD9290398 Si02
#       4
#     8   8   8   8
#     4   9  21  45  67  93 125 180 220 269 341 391
#     4   9  22  41  74  86 134 178 217 275 346 378
#     4  10  22  41  65  95 131 176 221 272 330 404
#     4  12  24  37  67 100 132 170 229 274 328 403
#
# _framework density 20.338394999999998
#
# number of rings (size 3 to 8) (size 9 to 14) (size 15 to 20)
#    1.500    0.500    0.000    3.000    3.500    0.000 
#    0.000    7.500    0.000    0.000    0.000    0.000 
#    0.000    0.000    0.000    0.000    0.000    0.000 
#
# Total GULP energy -89257.000528 kJ/mol
# GULP energy per Si atom -5578.562533 kJ/mol
# Density = 2.029210 g / cm^3
# Si number density = 20.338395 Si / 1000 Ang^3
#
#
#
# Elastic Constant Matrix: (Units=GPa)
#
#
# Indices 1 2 3 4 5 6 
#
# 1 39.5809 3.1491 36.0145 0.0000 -0.0774 0.0000
# 2 3.1491 27.8833 27.6493 0.0000 5.3461 -0.0001
# 3 36.0145 27.6493 146.1000 0.0002 25.1229 -0.0005
# 4 0.0000 0.0000 0.0002 19.6701 0.0000 -5.4994
# 5 -0.0774 5.3461 25.1229 0.0000 45.2073 0.0000
# 6 0.0000 -0.0001 -0.0005 -5.4994 0.0000 18.5794
#
#
#
# Elastic Compliance Matrix: (Units=1/GPa)
#
#
# Indices 1 2 3 4 5 6 
#
# 1 0.034274 0.005413 -0.010363 0.000000 0.005178 0.000000
# 2 0.005413 0.045020 -0.009885 0.000000 0.000179 0.000000
# 3 -0.010363 -0.009885 0.012242 0.000000 -0.005652 0.000000
# 4 0.000000 0.000000 0.000000 0.055425 0.000000 0.016406
# 5 0.005178 0.000179 -0.005652 0.000000 0.025249 0.000000
# 6 0.000000 0.000000 0.000000 0.016406 0.000000 0.058679
#
#
# Mechanical properties :
#
#
# Convention : Reuss Voigt Hill
#
# Bulk Modulus (GPa) = 16.16432 38.57670 27.37051
# Shear Modulus (GPa) = 17.78206 26.47478 22.12842
#
# Velocity S-wave (km/s) = 2.96008 3.61184 3.30208
# Velocity P-wave (km/s) = 4.43257 6.03345 5.29387
#
# Compressibility (1/GPa) = 0.06186467
#
# Stress axis : x y z
#
# Youngs Moduli (GPa) = 29.17676 22.21223 81.68658
#
# Poissons Ratio (x) = -0.12023 0.84656
# Poissons Ratio (y) = -0.15793 0.80748
# Poissons Ratio (z) = 0.30237 0.21957
#
# Static dielectric constant tensor:
#      x y z
#    x 1.733320 0.000000 -0.002140 
#    y 0.000000 1.738220 0.000000 
#    z -0.002140 0.000000 1.703490 
# 
# From -- ./inp_files/188277.got.cif
#   From: 2010.05.17/outbox.cif.g08.bks.cpg/sg15_95_cif.got.tgz:188277.got - 2010.06.03 18:47:42.
