data_PCOD9290013
_publ_section_title
;
Structure prediction by ZEFSAII (Michael W. Deem and Ramdas Pophale) SiO2 
 PCOD9290013
Probable space group: C 2/C
;
_chemical_formula_sum "Si O2"
_cell_formula_units_Z 40
_cell_length_a 18.081286
_cell_length_b 11.197988
_cell_length_c 14.274388
_cell_angle_alpha 90.000000
_cell_angle_beta 32.355812
_cell_angle_gamma 90.000000
_cell_volume 1546.760270
_symmetry_space_group_name_H-M "C 2/C"
_symmetry_group_IT_number 15
_symmetry_cell_setting 'monoclinic'
loop_
_space_group_symop_operation_xyz
x,y,z
-x,y,1/2-z
-x,-y,-z
x,-y,1/2+z
1/2+x,1/2+y,z
1/2-x,1/2+y,1/2-z
1/2-x,1/2-y,-z
1/2+x,1/2-y,1/2+z
loop_
_atom_site_type_symbol
_atom_site_label
_atom_site_fract_x
_atom_site_fract_y
_atom_site_fract_z
Si Si1 0.320084 0.516530 0.020985
Si Si2 0.529680 0.109362 0.402924
Si Si3 0.166991 0.361132 0.043492
Si Si4 0.359647 0.286211 0.105110
Si Si5 0.332614 0.763408 0.008964
O O1 0.261734 0.467089 0.984512
O O2 0.368770 0.404931 0.032529
O O3 0.412719 0.634558 0.926581
O O4 0.184602 0.578183 0.209202
O O5 0.505762 0.228743 0.490854
O O6 0.443119 0.131004 0.402867
O O7 0.500000 0.000000 0.500000
O O8 0.000000 0.364013 0.250000
O O9 0.250000 0.250000 0.000000
O O10 0.179477 0.324744 0.921619
O O11 0.263492 0.300214 0.298744
O O12 0.250000 0.750000 0.000000
#
# Coordination Sequence:
#
# PCOD9290013 Si02
#       5
#     8   8   8   8   8
#     4  10  23  42  69 104 144 189 245 315 368 449
#     4  11  22  42  73  97 143 195 239 299 378 451
#     4  10  22  40  73 109 145 188 253 312 377 440
#     4  10  23  42  70 107 136 194 253 303 364 454
#     4  11  26  41  67 108 146 190 247 301 381 449
#
# _framework density 25.860505
#
# number of rings (size 3 to 8) (size 9 to 14) (size 15 to 20)
#    0.000    1.600    2.000    1.200    8.400    3.200 
#    0.000    0.000   35.200    0.000    0.000    0.000 
#    0.000    0.000    0.000    0.000    0.000    0.000 
#
# Total GULP energy -111351.716719 kJ/mol
# GULP energy per Si atom -5567.585836 kJ/mol
# Density = 2.580164 g / cm^3
# Si number density = 25.860505 Si / 1000 Ang^3
#
#
#
# Elastic Constant Matrix: (Units=GPa)
#
#
# Indices 1 2 3 4 5 6 
#
# 1 174.7886 67.1808 20.8342 0.0000 21.2114 0.0000
# 2 67.1808 150.8616 5.9663 0.0000 3.6050 0.0000
# 3 20.8342 5.9663 83.2278 0.0000 22.6249 0.0000
# 4 0.0000 0.0000 0.0000 21.0078 0.0000 3.3363
# 5 21.2114 3.6050 22.6249 0.0000 40.9588 0.0000
# 6 0.0000 0.0000 0.0000 3.3363 0.0000 75.9649
#
#
#
# Elastic Compliance Matrix: (Units=1/GPa)
#
#
# Indices 1 2 3 4 5 6 
#
# 1 0.007424 -0.003201 -0.000777 0.000000 -0.003134 0.000000
# 2 -0.003201 0.008032 -0.000039 0.000000 0.000972 0.000000
# 3 -0.000777 -0.000039 0.014241 0.000000 -0.007460 0.000000
# 4 0.000000 0.000000 0.000000 0.047936 0.000000 -0.002105
# 5 -0.003134 0.000972 -0.007460 0.000000 0.030073 0.000000
# 6 0.000000 0.000000 0.000000 -0.002105 0.000000 0.013256
#
#
# Mechanical properties :
#
#
# Convention : Reuss Voigt Hill
#
# Bulk Modulus (GPa) = 46.15953 66.31561 56.23757
# Shear Modulus (GPa) = 36.70623 48.57939 42.64281
#
# Velocity S-wave (km/s) = 3.77157 4.33889 4.06514
# Velocity P-wave (km/s) = 6.07079 7.12745 6.62024
#
# Compressibility (1/GPa) = 0.02166400
#
# Stress axis : x y z
#
# Youngs Moduli (GPa) = 134.69343 124.49993 70.22177
#
# Poissons Ratio (x) = 0.39846 0.05457
# Poissons Ratio (y) = 0.43109 0.00273
# Poissons Ratio (z) = 0.10468 0.00484
#
# Static dielectric constant tensor:
#      x y z
#    x 2.198630 0.000000 -0.166220 
#    y 0.000000 2.621640 0.000000 
#    z -0.166220 0.000000 3.211820 
# 
# From -- ./inp_files/160679.got.cif
#   From: 2010.05.17/outbox.cif.g08.bks.cpg/sg15_81_cif.got.tgz:160679.got - 2010.06.03 18:47:42.
