data_PCOD9290455
_publ_section_title
;
Structure prediction by ZEFSAII (Michael W. Deem and Ramdas Pophale) SiO2 
 PCOD9290455
Probable space group: C 2/C
;
_chemical_formula_sum "Si O2"
_cell_formula_units_Z 32
_cell_length_a 4.970023
_cell_length_b 13.571259
_cell_length_c 20.719983
_cell_angle_alpha 90.000000
_cell_angle_beta 66.532477
_cell_angle_gamma 90.000000
_cell_volume 1281.954685
_symmetry_space_group_name_H-M "C 2/C"
_symmetry_group_IT_number 15
_symmetry_cell_setting 'monoclinic'
loop_
_space_group_symop_operation_xyz
x,y,z
-x,y,1/2-z
-x,-y,-z
x,-y,1/2+z
1/2+x,1/2+y,z
1/2-x,1/2+y,1/2-z
1/2-x,1/2-y,-z
1/2+x,1/2-y,1/2+z
loop_
_atom_site_type_symbol
_atom_site_label
_atom_site_fract_x
_atom_site_fract_y
_atom_site_fract_z
Si Si1 0.500000 0.380983 0.250000
Si Si2 0.791394 0.044483 0.097429
Si Si3 0.050988 0.830186 0.102089
Si Si4 0.000000 0.523900 0.250000
Si Si5 0.603739 0.857728 0.963701
O O1 0.538637 0.321793 0.180331
O O2 0.776411 0.453244 0.233198
O O3 0.674367 0.081075 0.178056
O O4 0.893085 0.933081 0.099706
O O5 0.545281 0.058341 0.066969
O O6 0.072464 0.108007 0.049822
O O7 0.900416 0.738850 0.080840
O O8 0.381210 0.836816 0.043085
#
# Coordination Sequence:
#
# PCOD9290455 Si02
#       5
#     4   8   8   4   8
#     4  10  22  41  66  89 130 176 206 265 330 377
#     4  11  23  43  66  94 132 171 211 269 324 374
#     4  10  24  44  65  97 133 168 217 266 321 387
#     4  10  22  41  66  95 128 172 220 259 318 391
#     4  11  25  40  69  99 126 170 219 265 321 386
#
# _framework density 24.961879
#
# number of rings (size 3 to 8) (size 9 to 14) (size 15 to 20)
#    0.000    1.500    0.000    4.500    0.000   15.000 
#    0.000    5.000    0.000    0.000    0.000    0.000 
#    0.000    0.000    0.000    0.000    0.000    0.000 
#
# Total GULP energy -89816.063744 kJ/mol
# GULP energy per Si atom -5613.503984 kJ/mol
# Density = 2.490506 g / cm^3
# Si number density = 24.961879 Si / 1000 Ang^3
#
#
#
# Elastic Constant Matrix: (Units=GPa)
#
#
# Indices 1 2 3 4 5 6 
#
# 1 103.1412 22.5517 9.7404 0.0000 1.8813 0.0000
# 2 22.5517 115.3523 22.8142 0.0000 10.8798 0.0000
# 3 9.7404 22.8142 189.3863 0.0000 19.7491 0.0000
# 4 0.0000 0.0000 0.0000 80.1000 0.0000 21.4206
# 5 1.8813 10.8798 19.7491 0.0000 33.2704 0.0000
# 6 0.0000 0.0000 0.0000 21.4206 0.0000 27.5605
#
#
#
# Elastic Compliance Matrix: (Units=1/GPa)
#
#
# Indices 1 2 3 4 5 6 
#
# 1 0.010146 -0.001945 -0.000313 0.000000 0.000248 0.000000
# 2 -0.001945 0.009440 -0.000775 0.000000 -0.002517 0.000000
# 3 -0.000313 -0.000775 0.005715 0.000000 -0.003121 0.000000
# 4 0.000000 0.000000 0.000000 0.015760 0.000000 -0.012249
# 5 0.000248 -0.002517 -0.003121 0.000000 0.032719 0.000000
# 6 0.000000 0.000000 0.000000 -0.012249 0.000000 0.045804
#
#
# Mechanical properties :
#
#
# Convention : Reuss Voigt Hill
#
# Bulk Modulus (GPa) = 51.98904 57.56583 54.77743
# Shear Modulus (GPa) = 37.86117 51.70442 44.78280
#
# Velocity S-wave (km/s) = 3.89878 4.55613 4.24021
# Velocity P-wave (km/s) = 6.41404 7.12666 6.77972
#
# Compressibility (1/GPa) = 0.01923482
#
# Stress axis : x y z
#
# Youngs Moduli (GPa) = 98.56316 105.93262 174.97350
#
# Poissons Ratio (x) = 0.20604 0.05484
# Poissons Ratio (y) = 0.19170 0.13554
# Poissons Ratio (z) = 0.03089 0.08206
#
# Static dielectric constant tensor:
#      x y z
#    x 1.857050 0.000000 -0.018620 
#    y 0.000000 1.970400 0.000000 
#    z -0.018620 0.000000 1.988020 
# 
# From -- ./inp_files/226354.got.cif
#   From: 2010.05.17/outbox.cif.g08.bks.cpg/sg15_114_cif.got.tgz:226354.got - 2010.06.03 18:47:42.
