data_PCOD9290214
_publ_section_title
;
Structure prediction by ZEFSAII (Michael W. Deem and Ramdas Pophale) SiO2 
 PCOD9290214
Probable space group: C 2/C
;
_chemical_formula_sum "Si O2"
_cell_formula_units_Z 32
_cell_length_a 29.693025
_cell_length_b 4.730765
_cell_length_c 8.078383
_cell_angle_alpha 90.000000
_cell_angle_beta 99.277194
_cell_angle_gamma 90.000000
_cell_volume 1119.933388
_symmetry_space_group_name_H-M "C 2/C"
_symmetry_group_IT_number 15
_symmetry_cell_setting 'monoclinic'
loop_
_space_group_symop_operation_xyz
x,y,z
-x,y,1/2-z
-x,-y,-z
x,-y,1/2+z
1/2+x,1/2+y,z
1/2-x,1/2+y,1/2-z
1/2-x,1/2-y,-z
1/2+x,1/2-y,1/2+z
loop_
_atom_site_type_symbol
_atom_site_label
_atom_site_fract_x
_atom_site_fract_y
_atom_site_fract_z
Si Si1 0.466982 0.312768 0.094407
Si Si2 0.216970 0.216133 0.732772
Si Si3 0.093821 0.250248 0.226186
Si Si4 0.656342 0.135898 0.486998
O O1 0.500000 0.172171 0.250000
O O2 0.431887 0.516823 0.177310
O O3 0.500000 0.500000 0.000000
O O4 0.441520 0.139748 0.935025
O O5 0.259060 0.426460 0.799611
O O6 0.187456 0.387229 0.581035
O O7 0.185598 0.190345 0.874696
O O8 0.116769 0.481636 0.356329
O O9 0.135080 0.177944 0.122815
#
# Coordination Sequence:
#
# PCOD9290214 Si02
#       4
#     8   8   8   8
#     4   9  20  41  67  95 130 183 235 290 359 437
#     4  11  24  44  69 104 146 196 249 305 371 444
#     4  10  22  41  63  97 135 172 235 295 361 435
#     4  10  24  40  64 102 140 187 241 308 371 434
#
# _framework density 28.573125999999998
#
# number of rings (size 3 to 8) (size 9 to 14) (size 15 to 20)
#    0.000    2.000    0.000    1.500    0.000   16.000 
#    0.000   16.250    0.000    0.000    0.000    0.000 
#    0.000    0.000    0.000    0.000    0.000    0.000 
#
# Total GULP energy -89662.408548 kJ/mol
# GULP energy per Si atom -5603.900534 kJ/mol
# Density = 2.850809 g / cm^3
# Si number density = 28.573126 Si / 1000 Ang^3
#
#
#
# Elastic Constant Matrix: (Units=GPa)
#
#
# Indices 1 2 3 4 5 6 
#
# 1 153.3332 70.3972 110.0199 0.0000 -34.4452 0.0000
# 2 70.3972 99.1629 71.2723 0.0000 -6.7564 0.0000
# 3 110.0199 71.2723 228.1265 0.0000 4.2754 0.0000
# 4 0.0000 0.0000 0.0000 -83.1216 0.0000 -1.7072
# 5 -34.4452 -6.7564 4.2754 0.0000 116.3045 0.0000
# 6 0.0000 0.0000 0.0000 -1.7072 0.0000 40.9457
#
#
#
# Elastic Compliance Matrix: (Units=1/GPa)
#
#
# Indices 1 2 3 4 5 6 
#
# 1 0.013492 -0.005918 -0.004730 0.000000 0.003826 0.000000
# 2 -0.005918 0.015697 -0.002035 0.000000 -0.000766 0.000000
# 3 -0.004730 -0.002035 0.007334 0.000000 -0.001789 0.000000
# 4 0.000000 0.000000 0.000000 -0.012020 0.000000 -0.000501
# 5 0.003826 -0.000766 -0.001789 0.000000 0.009752 0.000000
# 6 0.000000 0.000000 0.000000 -0.000501 0.000000 0.024402
#
#
# Mechanical properties :
#
#
# Convention : Reuss Voigt Hill
#
# Bulk Modulus (GPa) = 89.63697 109.33347 99.48522
# Shear Modulus (GPa) = 56.98599 30.08794 43.53697
#
# Velocity S-wave (km/s) = 4.47071 3.24854 3.90770
# Velocity P-wave (km/s) = 7.62160 7.24004 7.43327
#
# Compressibility (1/GPa) = 0.01115611
#
# Stress axis : x y z
#
# Youngs Moduli (GPa) = 74.11927 63.70837 136.35276
#
# Poissons Ratio (x) = 0.37703 0.64488
# Poissons Ratio (y) = 0.43864 0.27754
# Poissons Ratio (z) = 0.35055 0.12968
#
# Static dielectric constant tensor:
#      x y z
#    x 2.390350 0.000000 0.050860 
#    y 0.000000 2.156780 0.000000 
#    z 0.050860 0.000000 2.124970 
# 
# From -- ./inp_files/67877.got.cif
#   From: 2010.05.17/outbox.cif.g08.bks.cpg/sg15_34_cif.got.tgz:67877.got - 2010.06.03 18:47:42.
