data_PCOD9290776
_publ_section_title
;
Structure prediction by ZEFSAII (Michael W. Deem and Ramdas Pophale) SiO2 
 PCOD9290776
Probable space group: C 2/C
;
_chemical_formula_sum "Si O2"
_cell_formula_units_Z 44
_cell_length_a 10.590198
_cell_length_b 10.221136
_cell_length_c 28.869631
_cell_angle_alpha 90.000000
_cell_angle_beta 139.097272
_cell_angle_gamma 90.000000
_cell_volume 2046.151393
_symmetry_space_group_name_H-M "C 2/C"
_symmetry_group_IT_number 15
_symmetry_cell_setting 'monoclinic'
loop_
_space_group_symop_operation_xyz
x,y,z
-x,y,1/2-z
-x,-y,-z
x,-y,1/2+z
1/2+x,1/2+y,z
1/2-x,1/2+y,1/2-z
1/2-x,1/2-y,-z
1/2+x,1/2-y,1/2+z
loop_
_atom_site_type_symbol
_atom_site_label
_atom_site_fract_x
_atom_site_fract_y
_atom_site_fract_z
Si Si1 0.806554 0.064863 0.335183
Si Si2 0.500000 0.856071 0.250000
Si Si3 0.886672 0.177441 0.674663
Si Si4 0.282888 0.177314 0.285243
Si Si5 0.106427 0.445358 0.586280
Si Si6 0.752294 0.382187 0.970016
O O1 0.724889 0.196984 0.335833
O O2 0.753382 0.075128 0.265915
O O3 0.034071 0.065138 0.405279
O O4 0.675623 0.945695 0.316622
O O5 0.590662 0.763380 0.236344
O O6 0.740150 0.072399 0.615249
O O7 0.000000 0.117874 0.750000
O O8 0.042162 0.229677 0.681688
O O9 0.333371 0.117204 0.348621
O O10 0.154841 0.356406 0.555231
O O11 0.891405 0.504106 0.528618
O O12 0.750000 0.250000 0.000000
#
# Coordination Sequence:
#
# PCOD9290776 Si02
#       6
#     8   4   8   8   8   8
#     4  11  23  44  69 101 136 182 222 291 337 406
#     4  12  24  40  66 102 134 170 228 282 342 396
#     4  10  22  41  70 100 138 173 226 287 341 389
#     4  11  25  41  69 103 132 173 236 285 336 402
#     4  11  25  44  70 101 135 186 226 281 342 407
#     4  11  24  45  71  98 144 185 226 275 352 415
#
# _framework density 21.503784
#
# number of rings (size 3 to 8) (size 9 to 14) (size 15 to 20)
#    0.000    1.091    4.545    2.182    8.909    1.455 
#    0.000   10.909    0.000    0.000    0.000    0.000 
#    0.000    0.000    0.000    0.000    0.000    0.000 
#
# Total GULP energy -123060.055342 kJ/mol
# GULP energy per Si atom -5593.638879 kJ/mol
# Density = 2.145484 g / cm^3
# Si number density = 21.503784 Si / 1000 Ang^3
#
#
#
# Elastic Constant Matrix: (Units=GPa)
#
#
# Indices 1 2 3 4 5 6 
#
# 1 141.1294 56.9445 71.5418 0.0000 6.5022 0.0000
# 2 56.9445 57.9952 45.0883 0.0000 -15.5534 0.0000
# 3 71.5418 45.0883 119.8659 0.0000 14.2251 0.0000
# 4 0.0000 0.0000 0.0000 27.6897 0.0000 0.1110
# 5 6.5022 -15.5534 14.2251 0.0000 41.6567 0.0000
# 6 0.0000 0.0000 0.0000 0.1110 0.0000 31.7003
#
#
#
# Elastic Compliance Matrix: (Units=1/GPa)
#
#
# Indices 1 2 3 4 5 6 
#
# 1 0.014204 -0.013681 -0.002566 0.000000 -0.006449 0.000000
# 2 -0.013681 0.046398 -0.012087 0.000000 0.023587 0.000000
# 3 -0.002566 -0.012087 0.015538 0.000000 -0.009418 0.000000
# 4 0.000000 0.000000 0.000000 0.036115 0.000000 -0.000126
# 5 -0.006449 0.023587 -0.009418 0.000000 0.037035 0.000000
# 6 0.000000 0.000000 0.000000 -0.000126 0.000000 0.031546
#
#
# Mechanical properties :
#
#
# Convention : Reuss Voigt Hill
#
# Bulk Modulus (GPa) = 51.35283 74.01552 62.68418
# Shear Modulus (GPa) = 20.49224 29.90374 25.19799
#
# Velocity S-wave (km/s) = 3.09035 3.73316 3.42686
# Velocity P-wave (km/s) = 6.05528 7.28536 6.69861
#
# Compressibility (1/GPa) = 0.01947312
#
# Stress axis : x y z
#
# Youngs Moduli (GPa) = 70.40400 21.55250 64.35692
#
# Poissons Ratio (x) = 0.29486 0.16514
# Poissons Ratio (y) = 0.96320 0.77786
# Poissons Ratio (z) = 0.18065 0.26050
#
# Static dielectric constant tensor:
#      x y z
#    x 1.791080 0.000000 0.003250 
#    y 0.000000 1.781990 0.000000 
#    z 0.003250 0.000000 1.786260 
# 
# From -- ./inp_files/288146.got.cif
#   From: 2010.05.17/outbox.cif.g08.bks.cpg/sg15_145_cif.got.tgz:288146.got - 2010.06.03 18:47:42.
