data_PCOD9290151
_publ_section_title
;
Structure prediction by ZEFSAII (Michael W. Deem and Ramdas Pophale) SiO2 
 PCOD9290151
Probable space group: C 2/C
;
_chemical_formula_sum "Si O2"
_cell_formula_units_Z 64
_cell_length_a 17.483088
_cell_length_b 20.532045
_cell_length_c 22.992323
_cell_angle_alpha 90.000000
_cell_angle_beta 20.587203
_cell_angle_gamma 90.000000
_cell_volume 2902.166327
_symmetry_space_group_name_H-M "C 2/C"
_symmetry_group_IT_number 15
_symmetry_cell_setting 'monoclinic'
loop_
_space_group_symop_operation_xyz
x,y,z
-x,y,1/2-z
-x,-y,-z
x,-y,1/2+z
1/2+x,1/2+y,z
1/2-x,1/2+y,1/2-z
1/2-x,1/2-y,-z
1/2+x,1/2-y,1/2+z
loop_
_atom_site_type_symbol
_atom_site_label
_atom_site_fract_x
_atom_site_fract_y
_atom_site_fract_z
Si Si1 0.733192 0.949963 0.337424
Si Si2 0.113530 0.825185 0.230062
Si Si3 0.036658 0.184959 0.991546
Si Si4 0.934626 0.727874 0.138626
Si Si5 0.686916 0.463174 0.402126
Si Si6 0.574612 0.017015 0.547046
Si Si7 0.744160 0.196584 0.554104
Si Si8 0.588957 0.443269 0.598445
O O1 0.894021 0.889858 0.225111
O O2 0.567501 0.945327 0.401855
O O3 0.615640 0.950269 0.483734
O O4 0.856685 0.019955 0.256320
O O5 0.012442 0.766792 0.339730
O O6 0.000000 0.836388 0.250000
O O7 0.362685 0.807893 0.035829
O O8 0.779262 0.186878 0.190451
O O9 0.108664 0.217261 0.879996
O O10 0.135844 0.112867 0.926646
O O11 0.143126 0.224880 0.968685
O O12 0.500000 0.500000 0.500000
O O13 0.907847 0.487112 0.217733
O O14 0.698411 0.473070 0.462657
O O15 0.788574 0.042358 0.428213
O O16 0.500000 0.177756 0.750000
O O17 0.750000 0.250000 0.500000
O O18 0.881973 0.133991 0.433336
#
# Coordination Sequence:
#
# PCOD9290151 Si02
#       8
#     8   8   8   8   8   8   8   8
#     4  11  25  41  65  95 128 174 213 276 327 400
#     4  11  23  43  65  92 128 165 220 269 335 389
#     4  10  22  41  62  97 130 167 223 266 327 393
#     4  10  23  40  67  91 126 168 216 272 324 397
#     4  11  22  39  65  92 134 171 215 269 329 386
#     4  11  23  41  64  92 130 169 219 261 339 379
#     4  11  24  41  66  95 133 173 218 271 333 390
#     4  11  23  43  64  97 132 171 221 275 321 405
#
# _framework density 22.052491
#
# number of rings (size 3 to 8) (size 9 to 14) (size 15 to 20)
#    0.000    1.250    1.250    4.875    1.750    4.000 
#    0.000    0.000    0.000    0.000    0.000    0.000 
#    0.000    0.000    0.000    0.000    0.000    0.000 
#
# Total GULP energy -178292.472232 kJ/mol
# GULP energy per Si atom -5571.639757 kJ/mol
# Density = 2.200230 g / cm^3
# Si number density = 22.052491 Si / 1000 Ang^3
#
#
#
# Elastic Constant Matrix: (Units=GPa)
#
#
# Indices 1 2 3 4 5 6 
#
# 1 145.5205 17.1533 9.1258 -0.0373 -1.6111 -0.0164
# 2 17.1533 61.8684 11.2343 -0.0932 1.6788 -0.0357
# 3 9.1258 11.2343 81.9129 0.0311 2.9526 -0.0630
# 4 -0.0373 -0.0932 0.0311 13.5936 -0.0206 3.6283
# 5 -1.6111 1.6788 2.9526 -0.0206 37.7472 0.0006
# 6 -0.0164 -0.0357 -0.0630 3.6283 0.0006 18.3707
#
#
#
# Elastic Compliance Matrix: (Units=1/GPa)
#
#
# Indices 1 2 3 4 5 6 
#
# 1 0.007134 -0.001890 -0.000551 0.000009 0.000432 -0.000001
# 2 -0.001890 0.017089 -0.002109 0.000115 -0.000676 0.000002
# 3 -0.000551 -0.002109 0.012592 -0.000060 -0.000915 0.000050
# 4 0.000009 0.000115 -0.000060 0.077659 0.000043 -0.015338
# 5 0.000432 -0.000676 -0.000915 0.000043 0.026612 -0.000013
# 6 -0.000001 0.000002 0.000050 -0.015338 -0.000013 0.057464
#
#
# Mechanical properties :
#
#
# Convention : Reuss Voigt Hill
#
# Bulk Modulus (GPa) = 36.08133 40.48095 38.28114
# Shear Modulus (GPa) = 23.05350 30.72821 26.89085
#
# Velocity S-wave (km/s) = 3.23676 3.73689 3.49578
# Velocity P-wave (km/s) = 5.51053 6.08405 5.80438
#
# Compressibility (1/GPa) = 0.02771517
#
# Stress axis : x y z
#
# Youngs Moduli (GPa) = 140.17459 58.51828 79.41700
#
# Poissons Ratio (x) = 0.11057 0.04377
# Poissons Ratio (y) = 0.26486 0.16748
# Poissons Ratio (z) = 0.07726 0.12341
#
# Static dielectric constant tensor:
#      x y z
#    x 1.861170 0.000390 -0.028420 
#    y 0.000390 1.834120 -0.000330 
#    z -0.028420 -0.000330 1.952590 
# 
# From -- ./inp_files/278094.got.cif
#   From: 2010.05.17/outbox.cif.g08.bks.cpg/sg15_140_cif.got.tgz:278094.got - 2010.06.03 18:47:42.
