data_PCOD9290101
_publ_section_title
;
Structure prediction by ZEFSAII (Michael W. Deem and Ramdas Pophale) SiO2 
 PCOD9290101
Probable space group: C 2/C
;
_chemical_formula_sum "Si O2"
_cell_formula_units_Z 52
_cell_length_a 27.462135
_cell_length_b 4.955636
_cell_length_c 16.634828
_cell_angle_alpha 90.000000
_cell_angle_beta 111.494026
_cell_angle_gamma 90.000000
_cell_volume 2106.433476
_symmetry_space_group_name_H-M "C 2/C"
_symmetry_group_IT_number 15
_symmetry_cell_setting 'monoclinic'
loop_
_space_group_symop_operation_xyz
x,y,z
-x,y,1/2-z
-x,-y,-z
x,-y,1/2+z
1/2+x,1/2+y,z
1/2-x,1/2+y,1/2-z
1/2-x,1/2-y,-z
1/2+x,1/2-y,1/2+z
loop_
_atom_site_type_symbol
_atom_site_label
_atom_site_fract_x
_atom_site_fract_y
_atom_site_fract_z
Si Si1 0.255692 0.010725 0.201014
Si Si2 0.332057 0.480756 0.477304
Si Si3 0.572715 0.735418 0.552514
Si Si4 0.160179 0.796803 0.851161
Si Si5 0.500000 0.489554 0.250000
Si Si6 0.028755 0.711236 0.610358
Si Si7 0.602684 0.787447 0.859588
O O1 0.268914 0.285797 0.254635
O O2 0.304014 0.849784 0.191194
O O3 0.214249 0.082050 0.106348
O O4 0.369727 0.286023 0.448818
O O5 0.371052 0.704285 0.539429
O O6 0.310713 0.341059 0.545624
O O7 0.555852 0.440950 0.572622
O O8 0.530232 0.825486 0.459553
O O9 0.562489 0.942850 0.618684
O O10 0.135318 0.088470 0.818903
O O11 0.113795 0.593005 0.846142
O O12 0.475630 0.674655 0.303875
O O13 0.456602 0.303378 0.181718
#
# Coordination Sequence:
#
# PCOD9290101 Si02
#       7
#     8   8   8   8   4   8   8
#     4  12  28  45  73 107 139 173 232 299 355 408
#     4  10  25  46  74  95 142 184 233 280 347 428
#     4  10  22  41  61  96 127 184 213 279 338 397
#     4  10  24  47  70 102 135 193 225 283 350 423
#     4  12  24  46  66 110 132 194 232 288 324 418
#     4  10  23  38  64  90 139 169 231 268 333 396
#     4  10  25  40  75  96 142 179 240 274 336 414
#
# _framework density 24.686274999999998
#
# number of rings (size 3 to 8) (size 9 to 14) (size 15 to 20)
#    0.923    0.615    1.538    1.385    4.308    9.231 
#    0.000    0.000    0.000    0.000    0.000    0.000 
#    0.000    0.000    0.000    0.000    0.000    0.000 
#
# Total GULP energy -145577.003467 kJ/mol
# GULP energy per Si atom -5599.115518 kJ/mol
# Density = 2.463009 g / cm^3
# Si number density = 24.686275 Si / 1000 Ang^3
#
#
#
# Elastic Constant Matrix: (Units=GPa)
#
#
# Indices 1 2 3 4 5 6 
#
# 1 32.1939 -5.7296 0.2295 0.0000 -8.0935 0.0000
# 2 -5.7296 80.7939 14.3748 0.0000 1.8305 0.0000
# 3 0.2295 14.3748 90.8905 0.0000 10.8196 0.0000
# 4 0.0000 0.0000 0.0000 71.1319 0.0000 -83.1865
# 5 -8.0935 1.8305 10.8196 0.0000 32.1094 0.0000
# 6 0.0000 0.0000 0.0000 -83.1865 0.0000 126.9628
#
#
#
# Elastic Compliance Matrix: (Units=1/GPa)
#
#
# Indices 1 2 3 4 5 6 
#
# 1 0.033744 0.002464 -0.001532 0.000000 0.008881 0.000000
# 2 0.002464 0.012916 -0.002120 0.000000 0.000599 0.000000
# 3 -0.001532 -0.002120 0.011848 0.000000 -0.004258 0.000000
# 4 0.000000 0.000000 0.000000 0.060140 0.000000 0.039404
# 5 0.008881 0.000599 -0.004258 0.000000 0.034783 0.000000
# 6 0.000000 0.000000 0.000000 0.039404 0.000000 0.033694
#
#
# Mechanical properties :
#
#
# Convention : Reuss Voigt Hill
#
# Bulk Modulus (GPa) = 17.81518 24.62530 21.22024
# Shear Modulus (GPa) = 24.01401 59.04107 41.52754
#
# Velocity S-wave (km/s) = 3.12231 4.89576 4.10593
# Velocity P-wave (km/s) = 4.49785 6.47726 5.57609
#
# Compressibility (1/GPa) = 0.05613190
#
# Stress axis : x y z
#
# Youngs Moduli (GPa) = 29.63483 77.42582 84.40041
#
# Poissons Ratio (x) = -0.19081 0.12932
# Poissons Ratio (y) = -0.07303 0.17895
# Poissons Ratio (z) = 0.04541 0.16416
#
# Static dielectric constant tensor:
#      x y z
#    x 1.957830 0.000000 -0.004840 
#    y 0.000000 1.909780 0.000000 
#    z -0.004840 0.000000 1.985790 
# 
# From -- ./inp_files/223704.got.cif
#   From: 2010.05.17/outbox.cif.g08.bks.cpg/sg15_112_cif.got.tgz:223704.got - 2010.06.03 18:47:42.
