data_PCOD9290510
_publ_section_title
;
Structure prediction by ZEFSAII (Michael W. Deem and Ramdas Pophale) SiO2 
 PCOD9290510
Probable space group: C 2/C
;
_chemical_formula_sum "Si O2"
_cell_formula_units_Z 40
_cell_length_a 6.844535
_cell_length_b 23.731210
_cell_length_c 14.892703
_cell_angle_alpha 90.000000
_cell_angle_beta 145.248625
_cell_angle_gamma 90.000000
_cell_volume 1378.874601
_symmetry_space_group_name_H-M "C 2/C"
_symmetry_group_IT_number 15
_symmetry_cell_setting 'monoclinic'
loop_
_space_group_symop_operation_xyz
x,y,z
-x,y,1/2-z
-x,-y,-z
x,-y,1/2+z
1/2+x,1/2+y,z
1/2-x,1/2+y,1/2-z
1/2-x,1/2-y,-z
1/2+x,1/2-y,1/2+z
loop_
_atom_site_type_symbol
_atom_site_label
_atom_site_fract_x
_atom_site_fract_y
_atom_site_fract_z
Si Si1 0.235425 0.815061 0.095312
Si Si2 0.364051 0.583927 0.802267
Si Si3 0.503747 0.018773 0.398810
Si Si4 0.299056 0.624608 0.290113
Si Si5 0.559730 0.239877 0.165569
O O1 0.221460 0.860315 0.175325
O O2 0.456752 0.772043 0.315055
O O3 0.121887 0.851224 0.966393
O O4 0.934394 0.774438 0.025724
O O5 0.500000 0.594461 0.750000
O O6 0.059162 0.539089 0.676215
O O7 0.646215 0.553081 0.970608
O O8 0.213531 0.063347 0.258414
O O9 0.500000 0.000000 0.500000
O O10 0.163306 0.675369 0.177315
O O11 0.000000 0.619885 0.250000
O O12 0.500000 0.246359 0.250000
#
# Coordination Sequence:
#
# PCOD9290510 Si02
#       5
#     8   8   8   8   8
#     4  12  26  42  66 107 137 179 231 289 346 401
#     4  10  22  42  66  94 134 178 228 279 338 411
#     4  10  22  41  66  97 131 177 228 275 337 408
#     4  11  22  43  68  95 139 183 225 277 346 412
#     4  11  21  44  75  98 134 189 231 278 346 414
#
# _framework density 29.009167000000001
#
# number of rings (size 3 to 8) (size 9 to 14) (size 15 to 20)
#    0.000    1.200    6.000    0.600    2.800    4.000 
#    0.000    3.000    0.000    0.000    0.000    0.000 
#    0.000    0.000    0.000    0.000    0.000    0.000 
#
# Total GULP energy -111616.592825 kJ/mol
# GULP energy per Si atom -5580.829641 kJ/mol
# Density = 2.894314 g / cm^3
# Si number density = 29.009167 Si / 1000 Ang^3
#
#
#
# Elastic Constant Matrix: (Units=GPa)
#
#
# Indices 1 2 3 4 5 6 
#
# 1 180.4543 55.7506 31.4276 0.0000 -16.2952 0.0000
# 2 55.7506 221.4243 49.1874 0.0000 -29.3666 0.0000
# 3 31.4276 49.1874 200.8495 -0.0001 -29.6643 -0.0001
# 4 0.0000 0.0000 -0.0001 56.4473 -0.0001 -24.2393
# 5 -16.2952 -29.3666 -29.6643 -0.0001 38.5866 0.0000
# 6 0.0000 0.0000 -0.0001 -24.2393 0.0000 -5.4573
#
#
#
# Elastic Compliance Matrix: (Units=1/GPa)
#
#
# Indices 1 2 3 4 5 6 
#
# 1 0.006129 -0.001273 -0.000460 0.000000 0.001266 0.000000
# 2 -0.001273 0.005390 -0.000670 0.000000 0.003049 0.000000
# 3 -0.000460 -0.000670 0.005766 0.000000 0.003728 0.000000
# 4 0.000000 0.000000 0.000000 0.006093 0.000000 -0.027065
# 5 0.001266 0.003049 0.003728 0.000000 0.031637 0.000000
# 6 0.000000 0.000000 0.000000 -0.027065 0.000000 -0.063028
#
#
# Mechanical properties :
#
#
# Convention : Reuss Voigt Hill
#
# Bulk Modulus (GPa) = 80.14666 97.27328 88.70997
# Shear Modulus (GPa) = 5239.26025 49.00616 2644.13320
#
# Velocity S-wave (km/s) = 42.54399 4.11461 30.22351
# Velocity P-wave (km/s) = 49.40658 7.49520 35.33545
#
# Compressibility (1/GPa) = 0.01247713
#
# Stress axis : x y z
#
# Youngs Moduli (GPa) = 163.14913 185.52537 173.44074
#
# Poissons Ratio (x) = 0.23620 0.07985
# Poissons Ratio (y) = 0.20771 0.11629
# Poissons Ratio (z) = 0.07511 0.12439
#
# Static dielectric constant tensor:
#      x y z
#    x 2.416880 0.000000 -0.071230 
#    y 0.000000 2.478650 0.000000 
#    z -0.071230 0.000000 1.820100 
# 
# From -- ./inp_files/240150.got.cif
#   From: 2010.05.17/outbox.cif.g08.bks.cpg/sg15_121_cif.got.tgz:240150.got - 2010.06.03 18:47:42.
