data_PCOD9290527
_publ_section_title
;
Structure prediction by ZEFSAII (Michael W. Deem and Ramdas Pophale) SiO2 
 PCOD9290527
Probable space group: C 2/C
;
_chemical_formula_sum "Si O2"
_cell_formula_units_Z 32
_cell_length_a 12.556751
_cell_length_b 5.009814
_cell_length_c 19.261015
_cell_angle_alpha 90.000000
_cell_angle_beta 104.278822
_cell_angle_gamma 90.000000
_cell_volume 1174.220796
_symmetry_space_group_name_H-M "C 2/C"
_symmetry_group_IT_number 15
_symmetry_cell_setting 'monoclinic'
loop_
_space_group_symop_operation_xyz
x,y,z
-x,y,1/2-z
-x,-y,-z
x,-y,1/2+z
1/2+x,1/2+y,z
1/2-x,1/2+y,1/2-z
1/2-x,1/2-y,-z
1/2+x,1/2-y,1/2+z
loop_
_atom_site_type_symbol
_atom_site_label
_atom_site_fract_x
_atom_site_fract_y
_atom_site_fract_z
Si Si1 0.091073 0.474441 0.074577
Si Si2 0.834082 0.041337 0.978626
Si Si3 0.676679 0.523114 0.754492
Si Si4 0.034837 0.083435 0.360946
O O1 0.176230 0.250295 0.057950
O O2 0.024785 0.364591 0.129747
O O3 0.137036 0.770119 0.082109
O O4 0.000000 0.500000 0.000000
O O5 0.920425 0.997769 0.055905
O O6 0.750000 0.250000 0.000000
O O7 0.747523 0.792467 0.766762
O O8 0.563050 0.562802 0.695098
O O9 0.635861 0.421855 0.823729
#
# Coordination Sequence:
#
# PCOD9290527 Si02
#       4
#     8   8   8   8
#     4  10  22  41  66  99 137 174 218 281 345 405
#     4  11  24  40  70 106 134 179 221 279 356 412
#     4  11  28  46  70  99 131 187 231 278 333 396
#     4  10  25  46  71  98 142 173 229 284 332 407
#
# _framework density 27.252113000000001
#
# number of rings (size 3 to 8) (size 9 to 14) (size 15 to 20)
#    0.000    1.500    0.000    3.750    7.000   14.000 
#    0.000    0.000    0.000    0.000    0.000    0.000 
#    0.000    0.000    0.000    0.000    0.000    0.000 
#
# Total GULP energy -89347.699574 kJ/mol
# GULP energy per Si atom -5584.231223 kJ/mol
# Density = 2.719009 g / cm^3
# Si number density = 27.252113 Si / 1000 Ang^3
#
#
#
# Elastic Constant Matrix: (Units=GPa)
#
#
# Indices 1 2 3 4 5 6 
#
# 1 126.6092 44.8542 54.6010 0.0000 -2.7519 0.0000
# 2 44.8542 154.4520 38.6828 0.0000 -6.0668 0.0000
# 3 54.6010 38.6828 144.5866 0.0000 -17.1090 0.0000
# 4 0.0000 0.0000 0.0000 35.7894 0.0000 -2.3465
# 5 -2.7519 -6.0668 -17.1090 0.0000 70.6861 0.0000
# 6 0.0000 0.0000 0.0000 -2.3465 0.0000 33.2154
#
#
#
# Elastic Compliance Matrix: (Units=1/GPa)
#
#
# Indices 1 2 3 4 5 6 
#
# 1 0.010060 -0.002118 -0.003302 0.000000 -0.000589 0.000000
# 2 -0.002118 0.007387 -0.001144 0.000000 0.000275 0.000000
# 3 -0.003302 -0.001144 0.008691 0.000000 0.001877 0.000000
# 4 0.000000 0.000000 0.000000 0.028071 0.000000 0.001983
# 5 -0.000589 0.000275 0.001877 0.000000 0.014602 0.000000
# 6 0.000000 0.000000 0.000000 0.001983 0.000000 0.030247
#
#
# Mechanical properties :
#
#
# Convention : Reuss Voigt Hill
#
# Bulk Modulus (GPa) = 76.86143 77.99155 77.42649
# Shear Modulus (GPa) = 42.91025 47.10550 45.00787
#
# Velocity S-wave (km/s) = 3.97238 4.16204 4.06832
# Velocity P-wave (km/s) = 7.02174 7.19566 7.10923
#
# Compressibility (1/GPa) = 0.01301043
#
# Stress axis : x y z
#
# Youngs Moduli (GPa) = 99.40586 135.37674 115.05546
#
# Poissons Ratio (x) = 0.28667 0.37993
# Poissons Ratio (y) = 0.21050 0.13163
# Poissons Ratio (z) = 0.32825 0.15488
#
# Static dielectric constant tensor:
#      x y z
#    x 2.330280 0.000000 -0.065660 
#    y 0.000000 2.214120 0.000000 
#    z -0.065660 0.000000 2.143270 
# 
# From -- ./inp_files/266886.got.cif
#   From: 2010.05.17/outbox.cif.g08.bks.cpg/sg15_134_cif.got.tgz:266886.got - 2010.06.03 18:47:42.
