data_PCOD9290187
_publ_section_title
;
Structure prediction by ZEFSAII (Michael W. Deem and Ramdas Pophale) SiO2 
 PCOD9290187
Probable space group: C 2/C
;
_chemical_formula_sum "Si O2"
_cell_formula_units_Z 48
_cell_length_a 13.869044
_cell_length_b 19.440991
_cell_length_c 8.134368
_cell_angle_alpha 90.000000
_cell_angle_beta 84.222297
_cell_angle_gamma 90.000000
_cell_volume 2182.111233
_symmetry_space_group_name_H-M "C 2/C"
_symmetry_group_IT_number 15
_symmetry_cell_setting 'monoclinic'
loop_
_space_group_symop_operation_xyz
x,y,z
-x,y,1/2-z
-x,-y,-z
x,-y,1/2+z
1/2+x,1/2+y,z
1/2-x,1/2+y,1/2-z
1/2-x,1/2-y,-z
1/2+x,1/2-y,1/2+z
loop_
_atom_site_type_symbol
_atom_site_label
_atom_site_fract_x
_atom_site_fract_y
_atom_site_fract_z
Si Si1 0.922332 0.476350 0.884346
Si Si2 0.718186 0.951248 0.316368
Si Si3 0.893511 0.285555 0.699373
Si Si4 0.136751 0.846227 0.083907
Si Si5 0.946649 0.822260 0.934104
Si Si6 0.223322 0.889893 0.716267
O O1 0.863776 0.540056 0.810656
O O2 0.000000 0.441747 0.750000
O O3 0.842167 0.437116 0.005310
O O4 0.000000 0.500000 0.000000
O O5 0.807298 0.898579 0.303834
O O6 0.759506 0.028924 0.304348
O O7 0.850635 0.229274 0.837629
O O8 0.907327 0.246610 0.524155
O O9 0.823796 0.349466 0.682574
O O10 0.000000 0.300121 0.750000
O O11 0.181684 0.862908 0.897502
O O12 0.022460 0.852414 0.055855
O O13 0.855858 0.869471 0.905631
O O14 0.000000 0.809745 0.750000
#
# Coordination Sequence:
#
# PCOD9290187 Si02
#       6
#     8   8   8   8   8   8
#     4   9  20  38  58  82 130 169 208 259 313 383
#     4  11  21  38  63  94 125 169 211 265 326 378
#     4  10  22  41  66  92 126 172 214 265 323 388
#     4  10  22  41  63  91 128 168 214 262 322 386
#     4   9  21  41  63  90 129 165 213 269 316 380
#     4  11  22  39  65  92 129 167 217 265 321 381
#
# _framework density 21.997046000000001
#
# number of rings (size 3 to 8) (size 9 to 14) (size 15 to 20)
#    0.000    2.000    1.667    1.000    2.333    2.667 
#    0.000    6.667    0.000    0.000    0.000    0.000 
#    0.000    0.000    0.000    0.000    0.000    0.000 
#
# Total GULP energy -133710.581541 kJ/mol
# GULP energy per Si atom -5571.274231 kJ/mol
# Density = 2.194698 g / cm^3
# Si number density = 21.997046 Si / 1000 Ang^3
#
#
#
# Elastic Constant Matrix: (Units=GPa)
#
#
# Indices 1 2 3 4 5 6 
#
# 1 96.4855 33.8137 12.4413 0.0000 19.1941 0.0000
# 2 33.8137 89.7761 6.3887 0.0000 5.5285 0.0000
# 3 12.4413 6.3887 89.4321 0.0000 4.6773 0.0000
# 4 0.0000 0.0000 0.0000 13.5240 0.0000 -3.1774
# 5 19.1941 5.5285 4.6773 0.0000 42.9346 0.0000
# 6 0.0000 0.0000 0.0000 -3.1774 0.0000 27.5594
#
#
#
# Elastic Compliance Matrix: (Units=1/GPa)
#
#
# Indices 1 2 3 4 5 6 
#
# 1 0.013142 -0.004544 -0.001234 0.000000 -0.005155 0.000000
# 2 -0.004544 0.012847 -0.000307 0.000000 0.000411 0.000000
# 3 -0.001234 -0.000307 0.011409 0.000000 -0.000652 0.000000
# 4 0.000000 0.000000 0.000000 0.076002 0.000000 0.008763
# 5 -0.005155 0.000411 -0.000652 0.000000 0.025614 0.000000
# 6 0.000000 0.000000 0.000000 0.008763 0.000000 0.037296
#
#
# Mechanical properties :
#
#
# Convention : Reuss Voigt Hill
#
# Bulk Modulus (GPa) = 39.63981 42.33123 40.98552
# Shear Modulus (GPa) = 25.39504 31.67359 28.53432
#
# Velocity S-wave (km/s) = 3.40144 3.79872 3.60556
# Velocity P-wave (km/s) = 5.78671 6.20695 6.00051
#
# Compressibility (1/GPa) = 0.02522716
#
# Stress axis : x y z
#
# Youngs Moduli (GPa) = 76.09464 77.83914 87.64748
#
# Poissons Ratio (x) = 0.35373 0.10815
# Poissons Ratio (y) = 0.34581 0.02691
# Poissons Ratio (z) = 0.09389 0.02390
#
# Static dielectric constant tensor:
#      x y z
#    x 1.819020 0.000000 -0.004470 
#    y 0.000000 1.766270 0.000000 
#    z -0.004470 0.000000 1.867350 
# 
# From -- ./inp_files/40256.got.cif
#   From: 2010.05.17/outbox.cif.g08.bks.cpg/sg15_21_cif.got.tgz:40256.got - 2010.06.03 18:47:42.
