data_PCOD9290719
_publ_section_title
;
Structure prediction by ZEFSAII (Michael W. Deem and Ramdas Pophale) SiO2 
 PCOD9290719
Probable space group: C 2/C
;
_chemical_formula_sum "Si O2"
_cell_formula_units_Z 60
_cell_length_a 27.051685
_cell_length_b 12.798281
_cell_length_c 16.491688
_cell_angle_alpha 90.000000
_cell_angle_beta 26.649197
_cell_angle_gamma 90.000000
_cell_volume 2560.939756
_symmetry_space_group_name_H-M "C 2/C"
_symmetry_group_IT_number 15
_symmetry_cell_setting 'monoclinic'
loop_
_space_group_symop_operation_xyz
x,y,z
-x,y,1/2-z
-x,-y,-z
x,-y,1/2+z
1/2+x,1/2+y,z
1/2-x,1/2+y,1/2-z
1/2-x,1/2-y,-z
1/2+x,1/2-y,1/2+z
loop_
_atom_site_type_symbol
_atom_site_label
_atom_site_fract_x
_atom_site_fract_y
_atom_site_fract_z
Si Si1 0.588559 0.350557 0.231125
Si Si2 0.868298 0.483350 0.204211
Si Si3 0.114526 0.037371 0.289354
Si Si4 0.000000 0.352738 0.250000
Si Si5 0.372432 0.256348 0.502817
Si Si6 0.083254 0.273028 0.290463
Si Si7 0.151907 0.294018 0.776699
Si Si8 0.831464 0.481834 0.072409
O O1 0.607527 0.472354 0.215629
O O2 0.461240 0.312238 0.429142
O O3 0.614675 0.306471 0.104859
O O4 0.656252 0.294264 0.202417
O O5 0.849822 0.375805 0.278196
O O6 0.834540 0.595263 0.289267
O O7 0.815600 0.482121 0.192431
O O8 0.000000 0.500000 0.000000
O O9 0.124966 0.159878 0.255833
O O10 0.217908 0.999833 0.191422
O O11 0.000000 0.000000 0.500000
O O12 0.936447 0.285086 0.276290
O O13 0.916525 0.429260 0.420104
O O14 0.245263 0.278167 0.707659
O O15 0.385316 0.132246 0.478348
O O16 0.964798 0.285335 0.508262
#
# Coordination Sequence:
#
# PCOD9290719 Si02
#       8
#     8   8   8   4   8   8   8   8
#     4  11  24  42  68 104 137 176 225 292 355 404
#     4  10  22  41  69 105 129 178 236 286 346 411
#     4  12  27  47  70 102 149 187 232 288 353 434
#     4  12  26  44  72 104 146 194 238 290 348 436
#     4  11  24  40  73 104 133 176 233 295 348 416
#     4  11  25  47  70 102 147 185 236 289 352 427
#     4  11  21  43  68 100 135 174 230 288 348 411
#     4  12  25  43  74 105 138 184 238 294 359 405
#
# _framework density 23.428898
#
# number of rings (size 3 to 8) (size 9 to 14) (size 15 to 20)
#    0.000    0.800    5.333    2.800    3.733    1.600 
#    2.400    0.000    0.000    0.000    0.000    0.000 
#    0.000    0.000    0.000    0.000    0.000    0.000 
#
# Total GULP energy -167810.449180 kJ/mol
# GULP energy per Si atom -5593.681639 kJ/mol
# Density = 2.337557 g / cm^3
# Si number density = 23.428898 Si / 1000 Ang^3
#
#
#
# Elastic Constant Matrix: (Units=GPa)
#
#
# Indices 1 2 3 4 5 6 
#
# 1 125.7514 55.7400 3.8118 0.0000 -12.4035 0.0000
# 2 55.7400 179.6663 -2.6459 0.0000 -6.7971 0.0000
# 3 3.8118 -2.6459 32.1158 0.0000 -17.2663 0.0000
# 4 0.0000 0.0000 0.0000 16.5926 0.0000 -2.6527
# 5 -12.4035 -6.7971 -17.2663 0.0000 47.5644 0.0000
# 6 0.0000 0.0000 0.0000 -2.6527 0.0000 37.5286
#
#
#
# Elastic Compliance Matrix: (Units=1/GPa)
#
#
# Indices 1 2 3 4 5 6 
#
# 1 0.009417 -0.002853 -0.000313 0.000000 0.001935 0.000000
# 2 -0.002853 0.006492 0.001208 0.000000 0.000622 0.000000
# 3 -0.000313 0.001208 0.038918 0.000000 0.014219 0.000000
# 4 0.000000 0.000000 0.000000 0.060957 0.000000 0.004309
# 5 0.001935 0.000622 0.014219 0.000000 0.026779 0.000000
# 6 0.000000 0.000000 0.000000 0.004309 0.000000 0.026951
#
#
# Mechanical properties :
#
#
# Convention : Reuss Voigt Hill
#
# Bulk Modulus (GPa) = 19.64150 50.14948 34.89549
# Shear Modulus (GPa) = 26.26041 39.04563 32.65302
#
# Velocity S-wave (km/s) = 3.35155 4.08678 3.73729
# Velocity P-wave (km/s) = 4.83517 6.61214 5.79221
#
# Compressibility (1/GPa) = 0.05091261
#
# Stress axis : x y z
#
# Youngs Moduli (GPa) = 106.18985 154.02793 25.69476
#
# Poissons Ratio (x) = 0.43944 0.00803
# Poissons Ratio (y) = 0.30296 -0.03104
# Poissons Ratio (z) = 0.03321 -0.18608
#
# Static dielectric constant tensor:
#      x y z
#    x 1.885650 0.000000 -0.087410 
#    y 0.000000 1.904480 0.000000 
#    z -0.087410 0.000000 2.137060 
# 
# From -- ./inp_files/222528.got.cif
#   From: 2010.05.17/outbox.cif.g08.bks.cpg/sg15_112_cif.got.tgz:222528.got - 2010.06.03 18:47:42.
