data_PCOD9290653
_publ_section_title
;
Structure prediction by ZEFSAII (Michael W. Deem and Ramdas Pophale) SiO2 
 PCOD9290653
Probable space group: C 2/C
;
_chemical_formula_sum "Si O2"
_cell_formula_units_Z 32
_cell_length_a 5.042127
_cell_length_b 35.063677
_cell_length_c 7.209851
_cell_angle_alpha 90.000000
_cell_angle_beta 71.328709
_cell_angle_gamma 90.000000
_cell_volume 1207.584486
_symmetry_space_group_name_H-M "C 2/C"
_symmetry_group_IT_number 15
_symmetry_cell_setting 'monoclinic'
loop_
_space_group_symop_operation_xyz
x,y,z
-x,y,1/2-z
-x,-y,-z
x,-y,1/2+z
1/2+x,1/2+y,z
1/2-x,1/2+y,1/2-z
1/2-x,1/2-y,-z
1/2+x,1/2-y,1/2+z
loop_
_atom_site_type_symbol
_atom_site_label
_atom_site_fract_x
_atom_site_fract_y
_atom_site_fract_z
Si Si1 0.771738 0.946758 0.932823
Si Si2 0.000000 0.397553 0.250000
Si Si3 0.403603 0.209455 0.479139
Si Si4 0.595492 0.335301 0.510547
Si Si5 0.500000 0.518773 0.750000
O O1 0.749049 0.870468 0.121102
O O2 0.750004 0.987910 0.839513
O O3 0.000000 0.925867 0.750000
O O4 0.497769 0.924772 0.065804
O O5 0.572149 0.456920 0.411413
O O6 0.500000 0.203735 0.250000
O O7 0.250000 0.250000 0.500000
O O8 0.678262 0.200041 0.537672
O O9 0.170975 0.177041 0.548973
O O10 0.500000 0.340542 0.750000
#
# Coordination Sequence:
#
# PCOD9290653 Si02
#       5
#     8   4   8   8   4
#     4   9  19  39  61  94 131 176 233 285 346 408
#     4  12  24  36  66  90 137 184 222 280 353 422
#     4  10  22  41  68  92 127 167 222 281 343 401
#     4  10  24  42  60  96 134 171 220 279 341 417
#     4   8  18  40  64  90 135 174 234 296 337 404
#
# _framework density 26.499179000000002
#
# number of rings (size 3 to 8) (size 9 to 14) (size 15 to 20)
#    0.750    1.500    0.000    1.500    3.500    3.000 
#    0.000    2.500    0.000    0.000    0.000    0.000 
#    0.000    0.000    0.000    0.000    0.000    0.000 
#
# Total GULP energy -89223.957531 kJ/mol
# GULP energy per Si atom -5576.497346 kJ/mol
# Density = 2.643887 g / cm^3
# Si number density = 26.499179 Si / 1000 Ang^3
#
#
#
# Elastic Constant Matrix: (Units=GPa)
#
#
# Indices 1 2 3 4 5 6 
#
# 1 107.1782 32.7550 26.7665 0.0000 -9.7002 0.0000
# 2 32.7550 119.2259 44.1147 0.0000 -24.5119 0.0000
# 3 26.7665 44.1147 210.6443 0.0000 -52.0216 0.0000
# 4 0.0000 0.0000 0.0000 50.4327 0.0000 -20.5394
# 5 -9.7002 -24.5119 -52.0216 0.0000 53.5230 0.0000
# 6 0.0000 0.0000 0.0000 -20.5394 0.0000 -0.3115
#
#
#
# Elastic Compliance Matrix: (Units=1/GPa)
#
#
# Indices 1 2 3 4 5 6 
#
# 1 0.010301 -0.002552 -0.000792 0.000000 -0.000072 0.000000
# 2 -0.002552 0.010117 -0.001006 0.000000 0.003193 0.000000
# 3 -0.000792 -0.001006 0.006460 0.000000 0.005675 0.000000
# 4 0.000000 0.000000 0.000000 0.000712 0.000000 -0.046939
# 5 -0.000072 0.003193 0.005675 0.000000 0.025648 0.000000
# 6 0.000000 0.000000 0.000000 -0.046939 0.000000 -0.115254
#
#
# Mechanical properties :
#
#
# Convention : Reuss Voigt Hill
#
# Bulk Modulus (GPa) = 55.00925 71.59120 63.30023
# Shear Modulus (GPa) = -105.80761 42.95631 -31.42565
#
# Velocity S-wave (km/s) = -6.32577 4.03059 -3.44744
# Velocity P-wave (km/s) = 5.70525 6.98111 2.84482
#
# Compressibility (1/GPa) = 0.01817876
#
# Stress axis : x y z
#
# Youngs Moduli (GPa) = 97.07359 98.84174 154.79594
#
# Poissons Ratio (x) = 0.25221 0.12265
# Poissons Ratio (y) = 0.24770 0.15572
# Poissons Ratio (z) = 0.07691 0.09943
#
# Static dielectric constant tensor:
#      x y z
#    x 2.197190 0.000000 -0.197460 
#    y 0.000000 1.889520 0.000000 
#    z -0.197460 0.000000 2.145180 
# 
# From -- ./inp_files/20198.got.cif
#   From: 2010.05.17/outbox.cif.g08.bks.cpg/sg15_11_cif.got.tgz:20198.got - 2010.06.03 18:47:42.
