data_PCOD9290594
_publ_section_title
;
Structure prediction by ZEFSAII (Michael W. Deem and Ramdas Pophale) SiO2 
 PCOD9290594
Probable space group: C 2/C
;
_chemical_formula_sum "Si O2"
_cell_formula_units_Z 44
_cell_length_a 13.020378
_cell_length_b 17.956096
_cell_length_c 14.420916
_cell_angle_alpha 90.000000
_cell_angle_beta 147.839115
_cell_angle_gamma 90.000000
_cell_volume 1794.665750
_symmetry_space_group_name_H-M "C 2/C"
_symmetry_group_IT_number 15
_symmetry_cell_setting 'monoclinic'
loop_
_space_group_symop_operation_xyz
x,y,z
-x,y,1/2-z
-x,-y,-z
x,-y,1/2+z
1/2+x,1/2+y,z
1/2-x,1/2+y,1/2-z
1/2-x,1/2-y,-z
1/2+x,1/2-y,1/2+z
loop_
_atom_site_type_symbol
_atom_site_label
_atom_site_fract_x
_atom_site_fract_y
_atom_site_fract_z
Si Si1 0.288742 0.221561 0.820328
Si Si2 0.983948 0.977776 0.880201
Si Si3 0.500000 0.135273 0.750000
Si Si4 0.397679 0.316390 0.495217
Si Si5 0.337447 0.996892 0.012260
Si Si6 0.008329 0.347110 0.649099
O O1 0.148686 0.172672 0.650338
O O2 0.195711 0.303358 0.758140
O O3 0.485245 0.240102 0.915750
O O4 0.336624 0.186377 0.955163
O O5 0.170107 0.007257 0.963802
O O6 0.999583 0.888189 0.885629
O O7 0.785602 0.997244 0.676377
O O8 0.000000 0.000000 0.000000
O O9 0.309972 0.183448 0.617190
O O10 0.452424 0.077643 0.628826
O O11 0.487186 0.064792 0.124806
O O12 0.000000 0.327465 0.750000
#
# Coordination Sequence:
#
# PCOD9290594 Si02
#       6
#     8   8   4   8   8   8
#     4  10  24  42  64  98 129 179 219 266 328 404
#     4  10  22  41  67  96 133 174 223 284 333 389
#     4  10  22  44  66  94 130 174 222 282 330 384
#     4  10  23  42  64  94 132 168 228 268 329 396
#     4  10  22  41  67  99 131 173 226 276 343 393
#     4  11  22  42  64  94 136 171 216 266 331 402
#
# _framework density 24.517101
#
# number of rings (size 3 to 8) (size 9 to 14) (size 15 to 20)
#    0.000    1.818    0.909    1.636    2.545    3.636 
#    6.545    5.455    0.000    0.000    0.000    0.000 
#    0.000    0.000    0.000    0.000    0.000    0.000 
#
# Total GULP energy -123003.953089 kJ/mol
# GULP energy per Si atom -5591.088777 kJ/mol
# Density = 2.446130 g / cm^3
# Si number density = 24.517101 Si / 1000 Ang^3
#
#
#
# Elastic Constant Matrix: (Units=GPa)
#
#
# Indices 1 2 3 4 5 6 
#
# 1 67.9357 26.1768 15.1209 -0.0006 -12.3010 -0.0003
# 2 26.1768 78.4169 38.1296 -0.0005 -2.2516 -0.0004
# 3 15.1209 38.1296 113.4663 -0.0015 -24.5105 -0.0008
# 4 -0.0006 -0.0005 -0.0015 32.9672 -0.0011 -2.9491
# 5 -12.3010 -2.2516 -24.5105 -0.0011 33.7345 -0.0005
# 6 -0.0003 -0.0004 -0.0008 -2.9491 -0.0005 30.0584
#
#
#
# Elastic Compliance Matrix: (Units=1/GPa)
#
#
# Indices 1 2 3 4 5 6 
#
# 1 0.018238 -0.006518 0.001308 0.000001 0.007165 0.000000
# 2 -0.006518 0.017871 -0.006397 0.000000 -0.005831 0.000000
# 3 0.001308 -0.006397 0.012810 0.000001 0.009357 0.000001
# 4 0.000001 0.000000 0.000001 0.030602 0.000002 0.003002
# 5 0.007165 -0.005831 0.009357 0.000002 0.038665 0.000001
# 6 0.000000 0.000000 0.000001 0.003002 0.000001 0.033563
#
#
# Mechanical properties :
#
#
# Convention : Reuss Voigt Hill
#
# Bulk Modulus (GPa) = 38.90347 46.51928 42.71138
# Shear Modulus (GPa) = 27.24339 31.37813 29.31076
#
# Velocity S-wave (km/s) = 3.33708 3.58138 3.46138
# Velocity P-wave (km/s) = 5.54531 6.00975 5.78220
#
# Compressibility (1/GPa) = 0.02570465
#
# Stress axis : x y z
#
# Youngs Moduli (GPa) = 54.83143 55.95643 78.06595
#
# Poissons Ratio (x) = 0.36474 -0.10210
# Poissons Ratio (y) = 0.35740 0.49935
# Poissons Ratio (z) = -0.07171 0.35793
#
# Static dielectric constant tensor:
#      x y z
#    x 2.033950 0.000000 0.013990 
#    y 0.000000 1.896610 0.000000 
#    z 0.013990 0.000000 1.955470 
# 
# From -- ./inp_files/156276.got.cif
#   From: 2010.05.17/outbox.cif.g08.bks.cpg/sg15_79_cif.got.tgz:156276.got - 2010.06.03 18:47:42.
