data_PCOD9290689
_publ_section_title
;
Structure prediction by ZEFSAII (Michael W. Deem and Ramdas Pophale) SiO2 
 PCOD9290689
Probable space group: C 2/C
;
_chemical_formula_sum "Si O2"
_cell_formula_units_Z 64
_cell_length_a 19.569037
_cell_length_b 27.169296
_cell_length_c 11.288648
_cell_angle_alpha 90.000000
_cell_angle_beta 149.480632
_cell_angle_gamma 90.000000
_cell_volume 3047.949575
_symmetry_space_group_name_H-M "C 2/C"
_symmetry_group_IT_number 15
_symmetry_cell_setting 'monoclinic'
loop_
_space_group_symop_operation_xyz
x,y,z
-x,y,1/2-z
-x,-y,-z
x,-y,1/2+z
1/2+x,1/2+y,z
1/2-x,1/2+y,1/2-z
1/2-x,1/2-y,-z
1/2+x,1/2-y,1/2+z
loop_
_atom_site_type_symbol
_atom_site_label
_atom_site_fract_x
_atom_site_fract_y
_atom_site_fract_z
Si Si1 0.673482 0.702897 0.941374
Si Si2 0.129775 0.166659 0.625827
Si Si3 0.436630 0.154034 0.857378
Si Si4 0.837380 0.257590 0.336483
Si Si5 0.078986 0.516909 0.995629
Si Si6 0.706287 0.121146 0.215863
Si Si7 0.625745 0.909796 0.025859
Si Si8 0.836464 0.837999 0.691126
O O1 0.622399 0.727567 0.986726
O O2 0.748979 0.653455 0.103403
O O3 0.750000 0.750000 0.000000
O O4 0.597950 0.683016 0.713009
O O5 0.201773 0.212131 0.665833
O O6 0.244435 0.124565 0.801238
O O7 0.983732 0.153161 0.358561
O O8 0.443362 0.201778 0.951726
O O9 0.434657 0.107091 0.939147
O O10 0.291697 0.153155 0.581726
O O11 0.567453 0.149163 0.972921
O O12 0.822384 0.218430 0.210988
O O13 0.000000 0.528773 0.750000
O O14 0.169182 0.563834 0.165593
O O15 0.158712 0.467322 0.078513
O O16 0.000000 0.500000 0.000000
O O17 0.814085 0.129129 0.274203
O O18 0.500000 0.901654 0.750000
#
# Coordination Sequence:
#
# PCOD9290689 Si02
#       8
#     8   8   8   8   8   8   8   8
#     4   9  20  40  60  89 129 173 222 279 336 418
#     4  10  22  42  61  89 132 173 223 279 348 428
#     4  11  21  39  62  89 129 167 226 279 343 418
#     4   9  22  36  57  87 120 175 219 273 336 412
#     4  11  23  42  72 107 142 178 240 308 372 423
#     4  11  23  40  65  99 130 176 229 292 347 411
#     4  10  22  41  68  98 122 171 222 288 349 422
#     4  11  24  39  59  89 131 179 217 281 349 419
#
# _framework density 20.997722
#
# number of rings (size 3 to 8) (size 9 to 14) (size 15 to 20)
#    0.000    1.750    1.250    2.250    7.000    4.000 
#   11.250    0.625    0.000    1.500    0.000    0.000 
#    0.000    0.000    0.000    0.000    0.000    0.000 
#
# Total GULP energy -178322.386672 kJ/mol
# GULP energy per Si atom -5572.574584 kJ/mol
# Density = 2.094993 g / cm^3
# Si number density = 20.997722 Si / 1000 Ang^3
#
#
#
# Elastic Constant Matrix: (Units=GPa)
#
#
# Indices 1 2 3 4 5 6 
#
# 1 89.0901 24.3222 33.9893 0.0000 9.6367 0.0000
# 2 24.3222 139.4290 28.5819 0.0000 8.8305 0.0000
# 3 33.9893 28.5819 96.1169 0.0000 8.5161 0.0000
# 4 0.0000 0.0000 0.0000 36.3184 0.0000 -23.7149
# 5 9.6367 8.8305 8.5161 0.0000 39.2189 0.0000
# 6 0.0000 0.0000 0.0000 -23.7149 0.0000 60.3713
#
#
#
# Elastic Compliance Matrix: (Units=1/GPa)
#
#
# Indices 1 2 3 4 5 6 
#
# 1 0.013404 -0.001355 -0.004152 0.000000 -0.002087 0.000000
# 2 -0.001355 0.007835 -0.001758 0.000000 -0.001050 0.000000
# 3 -0.004152 -0.001758 0.012510 0.000000 -0.001300 0.000000
# 4 0.000000 0.000000 0.000000 0.037033 0.000000 0.014547
# 5 -0.002087 -0.001050 -0.001300 0.000000 0.026529 0.000000
# 6 0.000000 0.000000 0.000000 0.014547 0.000000 0.022279
#
#
# Mechanical properties :
#
#
# Convention : Reuss Voigt Hill
#
# Bulk Modulus (GPa) = 52.02948 55.38032 53.70490
# Shear Modulus (GPa) = 35.58011 43.03123 39.30567
#
# Velocity S-wave (km/s) = 4.12087 4.53186 4.33124
# Velocity P-wave (km/s) = 6.89017 7.33590 7.11653
#
# Compressibility (1/GPa) = 0.01921987
#
# Stress axis : x y z
#
# Youngs Moduli (GPa) = 74.60231 127.62799 79.93414
#
# Poissons Ratio (x) = 0.17292 0.33191
# Poissons Ratio (y) = 0.10108 0.14051
# Poissons Ratio (z) = 0.30977 0.22435
#
# Static dielectric constant tensor:
#      x y z
#    x 1.818920 0.000000 -0.012880 
#    y 0.000000 1.760950 0.000000 
#    z -0.012880 0.000000 1.827540 
# 
# From -- ./inp_files/115025.got.cif
#   From: 2010.05.17/outbox.cif.g08.bks.cpg/sg15_58_cif.got.tgz:115025.got - 2010.06.03 18:47:42.
