data_PCOD9290401
_publ_section_title
;
Structure prediction by ZEFSAII (Michael W. Deem and Ramdas Pophale) SiO2 
 PCOD9290401
Probable space group: C 2/C
;
_chemical_formula_sum "Si O2"
_cell_formula_units_Z 44
_cell_length_a 9.253425
_cell_length_b 11.645375
_cell_length_c 22.188936
_cell_angle_alpha 90.000000
_cell_angle_beta 42.918465
_cell_angle_gamma 90.000000
_cell_volume 1628.216302
_symmetry_space_group_name_H-M "C 2/C"
_symmetry_group_IT_number 15
_symmetry_cell_setting 'monoclinic'
loop_
_space_group_symop_operation_xyz
x,y,z
-x,y,1/2-z
-x,-y,-z
x,-y,1/2+z
1/2+x,1/2+y,z
1/2-x,1/2+y,1/2-z
1/2-x,1/2-y,-z
1/2+x,1/2-y,1/2+z
loop_
_atom_site_type_symbol
_atom_site_label
_atom_site_fract_x
_atom_site_fract_y
_atom_site_fract_z
Si Si1 0.726638 0.602574 0.270659
Si Si2 0.210192 0.354619 0.080331
Si Si3 0.950592 0.322383 0.999848
Si Si4 0.260360 0.900998 0.899714
Si Si5 0.500000 0.775178 0.250000
Si Si6 0.173020 0.531069 0.863104
O O1 0.671200 0.603559 0.358107
O O2 0.605827 0.701101 0.270390
O O3 0.984109 0.608155 0.188148
O O4 0.679121 0.496353 0.239197
O O5 0.297542 0.483065 0.046927
O O6 0.170231 0.352232 0.164810
O O7 0.989345 0.375729 0.114782
O O8 0.341832 0.238802 0.031625
O O9 0.818952 0.204282 0.035099
O O10 0.788394 0.405042 0.085847
O O11 0.065007 0.410103 0.918287
#
# Coordination Sequence:
#
# PCOD9290401 Si02
#       6
#     8   8   8   8   4   8
#     4  10  22  43  66  96 130 183 219 284 332 404
#     4  11  22  40  68  97 135 184 219 284 345 411
#     4  11  22  42  67 100 134 176 222 290 341 404
#     4  10  23  43  67  98 137 170 232 278 343 405
#     4  12  22  42  70  94 138 180 234 270 346 410
#     4  10  22  41  65  95 140 167 233 273 343 405
#
# _framework density 27.023434999999999
#
# number of rings (size 3 to 8) (size 9 to 14) (size 15 to 20)
#    0.000    1.455    1.818    4.364    0.000    2.909 
#    3.273    5.455    0.000    0.000    0.000    0.000 
#    0.000    0.000    0.000    0.000    0.000    0.000 
#
# Total GULP energy -122473.605405 kJ/mol
# GULP energy per Si atom -5566.982064 kJ/mol
# Density = 2.696193 g / cm^3
# Si number density = 27.023435 Si / 1000 Ang^3
#
#
#
# Elastic Constant Matrix: (Units=GPa)
#
#
# Indices 1 2 3 4 5 6 
#
# 1 73.2076 17.5266 4.2282 0.0000 21.9080 0.0000
# 2 17.5266 158.1360 37.7841 0.0000 32.1020 0.0000
# 3 4.2282 37.7841 71.0676 0.0000 22.1888 0.0000
# 4 0.0000 0.0000 0.0000 50.1356 0.0000 3.0959
# 5 21.9080 32.1020 22.1888 0.0000 47.3286 0.0000
# 6 0.0000 0.0000 0.0000 3.0959 0.0000 28.1255
#
#
#
# Elastic Compliance Matrix: (Units=1/GPa)
#
#
# Indices 1 2 3 4 5 6 
#
# 1 0.016058 -0.000619 0.001832 0.000000 -0.007872 0.000000
# 2 -0.000619 0.007846 -0.003002 0.000000 -0.003628 0.000000
# 3 0.001832 -0.003002 0.017791 0.000000 -0.007153 0.000000
# 4 0.000000 0.000000 0.000000 0.020082 0.000000 -0.002211
# 5 -0.007872 -0.003628 -0.007153 0.000000 0.030586 0.000000
# 6 0.000000 0.000000 0.000000 -0.002211 0.000000 0.035798
#
#
# Mechanical properties :
#
#
# Convention : Reuss Voigt Hill
#
# Bulk Modulus (GPa) = 26.23579 46.83210 36.53395
# Shear Modulus (GPa) = 34.61470 41.30943 37.96206
#
# Velocity S-wave (km/s) = 3.58287 3.91404 3.75211
# Velocity P-wave (km/s) = 5.18127 6.14769 5.68505
#
# Compressibility (1/GPa) = 0.03811587
#
# Stress axis : x y z
#
# Youngs Moduli (GPa) = 62.27451 127.45313 56.20692
#
# Poissons Ratio (x) = 0.07895 -0.10295
# Poissons Ratio (y) = 0.03857 0.16873
# Poissons Ratio (z) = -0.11406 0.38261
#
# Static dielectric constant tensor:
#      x y z
#    x 2.387140 0.000000 -0.036010 
#    y 0.000000 2.101690 0.000000 
#    z -0.036010 0.000000 2.284720 
# 
# From -- ./inp_files/230220.got.cif
#   From: 2010.05.17/outbox.cif.g08.bks.cpg/sg15_116_cif.got.tgz:230220.got - 2010.06.03 18:47:42.
