data_PCOD9290052
_publ_section_title
;
Structure prediction by ZEFSAII (Michael W. Deem and Ramdas Pophale) SiO2 
 PCOD9290052
Probable space group: C 2/C
;
_chemical_formula_sum "Si O2"
_cell_formula_units_Z 40
_cell_length_a 14.116203
_cell_length_b 23.437156
_cell_length_c 11.009097
_cell_angle_alpha 90.000000
_cell_angle_beta 32.340984
_cell_angle_gamma 90.000000
_cell_volume 1948.467847
_symmetry_space_group_name_H-M "C 2/C"
_symmetry_group_IT_number 15
_symmetry_cell_setting 'monoclinic'
loop_
_space_group_symop_operation_xyz
x,y,z
-x,y,1/2-z
-x,-y,-z
x,-y,1/2+z
1/2+x,1/2+y,z
1/2-x,1/2+y,1/2-z
1/2-x,1/2-y,-z
1/2+x,1/2-y,1/2+z
loop_
_atom_site_type_symbol
_atom_site_label
_atom_site_fract_x
_atom_site_fract_y
_atom_site_fract_z
Si Si1 0.745827 0.402510 0.800950
Si Si2 0.207124 0.316415 0.551967
Si Si3 0.582927 0.900664 0.270622
Si Si4 0.152077 0.899715 0.305471
Si Si5 0.297139 0.506606 0.939876
O O1 0.755641 0.341117 0.854966
O O2 0.915911 0.413772 0.536507
O O3 0.555841 0.407134 0.942228
O O4 0.748813 0.446071 0.909663
O O5 0.250000 0.250000 0.500000
O O6 0.318102 0.352762 0.332693
O O7 0.000000 0.326449 0.750000
O O8 0.500000 0.863448 0.250000
O O9 0.734083 0.881894 0.201561
O O10 0.673395 0.953708 0.102996
O O11 0.214139 0.960169 0.176947
O O12 0.500000 0.490974 0.750000
#
# Coordination Sequence:
#
# PCOD9290052 Si02
#       5
#     8   8   8   8   8
#     4  10  22  41  58  89 126 154 201 262 300 357
#     4  11  20  39  70 100 116 146 194 257 326 355
#     4  12  26  35  58  85 122 177 210 234 303 363
#     4  10  23  42  57  88 130 150 206 268 289 358
#     4   9  22  37  58  86 120 165 208 253 304 346
#
# _framework density 20.528949000000001
#
# number of rings (size 3 to 8) (size 9 to 14) (size 15 to 20)
#    0.000    1.600    2.000    3.600    8.400    1.600 
#    0.000    0.000    0.000    1.200    0.000    0.000 
#    0.000    0.000    0.000    0.000    0.000    0.000 
#
# Total GULP energy -111704.950468 kJ/mol
# GULP energy per Si atom -5585.247523 kJ/mol
# Density = 2.048222 g / cm^3
# Si number density = 20.528949 Si / 1000 Ang^3
#
#
#
# Elastic Constant Matrix: (Units=GPa)
#
#
# Indices 1 2 3 4 5 6 
#
# 1 109.5155 -7.0245 -7.0404 0.0000 4.1008 -0.0001
# 2 -7.0245 68.0567 -2.1251 0.0001 12.5483 -0.0001
# 3 -7.0404 -2.1251 43.4800 0.0008 -12.2325 -0.0001
# 4 0.0000 0.0001 0.0008 9.9050 0.0001 -7.5529
# 5 4.1008 12.5483 -12.2325 0.0001 14.2395 -0.0001
# 6 -0.0001 -0.0001 -0.0001 -7.5529 -0.0001 8.8450
#
#
#
# Elastic Compliance Matrix: (Units=1/GPa)
#
#
# Indices 1 2 3 4 5 6 
#
# 1 0.009413 0.001671 0.000566 0.000000 -0.003697 0.000000
# 2 0.001671 0.018569 -0.004696 0.000001 -0.020879 0.000001
# 3 0.000566 -0.004696 0.031622 -0.000006 0.031140 -0.000005
# 4 0.000000 0.000001 -0.000006 0.289404 -0.000007 0.247128
# 5 -0.003697 -0.020879 0.031140 -0.000007 0.116443 -0.000004
# 6 0.000000 0.000001 -0.000005 0.247128 -0.000004 0.324085
#
#
# Mechanical properties :
#
#
# Convention : Reuss Voigt Hill
#
# Bulk Modulus (GPa) = 18.28628 20.96358 19.62493
# Shear Modulus (GPa) = 6.15246 22.41405 14.28325
#
# Velocity S-wave (km/s) = 1.73305 3.30786 2.64059
# Velocity P-wave (km/s) = 3.59604 4.98229 4.34481
#
# Compressibility (1/GPa) = 0.05468580
#
# Stress axis : x y z
#
# Youngs Moduli (GPa) = 106.23471 53.85277 31.62356
#
# Poissons Ratio (x) = -0.08999 -0.01789
# Poissons Ratio (y) = -0.17752 0.14850
# Poissons Ratio (z) = -0.06009 0.25288
#
# Static dielectric constant tensor:
#      x y z
#    x 1.805690 0.000000 -0.010350 
#    y 0.000000 1.725060 0.000000 
#    z -0.010350 0.000000 1.730180 
# 
# From -- ./inp_files/100593.got.cif
#   From: 2010.05.17/outbox.cif.g08.bks.cpg/sg15_51_cif.got.tgz:100593.got - 2010.06.03 18:47:42.
