data_PCOD9290723
_publ_section_title
;
Structure prediction by ZEFSAII (Michael W. Deem and Ramdas Pophale) SiO2 
 PCOD9290723
Probable space group: C 2/C
;
_chemical_formula_sum "Si O2"
_cell_formula_units_Z 28
_cell_length_a 11.511611
_cell_length_b 22.679965
_cell_length_c 5.222101
_cell_angle_alpha 90.000000
_cell_angle_beta 125.474510
_cell_angle_gamma 90.000000
_cell_volume 1110.318400
_symmetry_space_group_name_H-M "C 2/C"
_symmetry_group_IT_number 15
_symmetry_cell_setting 'monoclinic'
loop_
_space_group_symop_operation_xyz
x,y,z
-x,y,1/2-z
-x,-y,-z
x,-y,1/2+z
1/2+x,1/2+y,z
1/2-x,1/2+y,1/2-z
1/2-x,1/2-y,-z
1/2+x,1/2-y,1/2+z
loop_
_atom_site_type_symbol
_atom_site_label
_atom_site_fract_x
_atom_site_fract_y
_atom_site_fract_z
Si Si1 0.500000 0.212175 0.750000
Si Si2 0.500000 0.955750 0.750000
Si Si3 0.232573 0.637216 0.348955
Si Si4 0.342054 0.474469 0.780817
Si Si5 0.000000 0.211645 0.750000
O O1 0.371236 0.172912 0.472187
O O2 0.542045 0.250472 0.554457
O O3 0.369696 0.906913 0.618778
O O4 0.500000 0.000000 0.500000
O O5 0.332671 0.593869 0.311779
O O6 0.353912 0.676798 0.638759
O O7 0.275017 0.491671 0.431598
O O8 0.500000 0.500000 0.000000
#
# Coordination Sequence:
#
# PCOD9290723 Si02
#       5
#     4   4   8   8   4
#     4  12  29  50  76 116 154 202 265 330 388 444
#     4  12  28  48  76 118 162 200 244 306 396 486
#     4  12  27  51  80 111 156 207 250 321 392 449
#     4  10  22  41  69 109 145 185 245 304 369 459
#     4  12  29  52  82 112 148 204 279 326 368 450
#
# _framework density 25.217991000000001
#
# number of rings (size 3 to 8) (size 9 to 14) (size 15 to 20)
#    0.000    0.571    0.000    6.857    0.000   13.714 
#    0.000    0.000    0.000    0.000    0.000    0.000 
#    0.000    0.000    0.000    0.000    0.000    0.000 
#
# Total GULP energy -78130.675702 kJ/mol
# GULP energy per Si atom -5580.762550 kJ/mol
# Density = 2.516059 g / cm^3
# Si number density = 25.217991 Si / 1000 Ang^3
#
#
#
# Elastic Constant Matrix: (Units=GPa)
#
#
# Indices 1 2 3 4 5 6 
#
# 1 124.3249 67.3115 95.2989 0.0000 24.0331 0.0000
# 2 67.3115 131.0122 66.3786 0.0000 12.4936 0.0000
# 3 95.2989 66.3786 160.5300 0.0000 -0.2157 0.0000
# 4 0.0000 0.0000 0.0000 44.5533 0.0000 8.6309
# 5 24.0331 12.4936 -0.2157 0.0000 83.2414 0.0000
# 6 0.0000 0.0000 0.0000 8.6309 0.0000 37.7361
#
#
#
# Elastic Compliance Matrix: (Units=1/GPa)
#
#
# Indices 1 2 3 4 5 6 
#
# 1 0.018198 -0.004341 -0.009014 0.000000 -0.004626 0.000000
# 2 -0.004341 0.010872 -0.001919 0.000000 -0.000383 0.000000
# 3 -0.009014 -0.001919 0.012378 0.000000 0.002923 0.000000
# 4 0.000000 0.000000 0.000000 0.023486 0.000000 -0.005372
# 5 -0.004626 -0.000383 0.002923 0.000000 0.013414 0.000000
# 6 0.000000 0.000000 0.000000 -0.005372 0.000000 0.027728
#
#
# Mechanical properties :
#
#
# Convention : Reuss Voigt Hill
#
# Bulk Modulus (GPa) = 91.75088 97.09391 94.42239
# Shear Modulus (GPa) = 35.64861 45.56471 40.60666
#
# Velocity S-wave (km/s) = 3.76389 4.25530 4.01712
# Velocity P-wave (km/s) = 7.43984 7.92015 7.68375
#
# Compressibility (1/GPa) = 0.01089908
#
# Stress axis : x y z
#
# Youngs Moduli (GPa) = 54.95151 91.97801 80.78823
#
# Poissons Ratio (x) = 0.39932 0.72824
# Poissons Ratio (y) = 0.23857 0.15502
# Poissons Ratio (z) = 0.49535 0.17649
#
# Static dielectric constant tensor:
#      x y z
#    x 2.351810 0.000000 0.065170 
#    y 0.000000 2.016400 0.000000 
#    z 0.065170 0.000000 1.590840 
# 
# From -- ./inp_files/3766.got.cif
#   From: 2010.05.17/outbox.cif.g08.bks.cpg/sg15_2_cif.got.tgz:3766.got - 2010.06.03 18:47:42.
