data_PCOD9290988
_publ_section_title
;
Structure prediction by ZEFSAII (Michael W. Deem and Ramdas Pophale) SiO2 
 PCOD9290988
Probable space group: C 2/C
;
_chemical_formula_sum "Si O2"
_cell_formula_units_Z 56
_cell_length_a 8.081506
_cell_length_b 14.888828
_cell_length_c 24.349146
_cell_angle_alpha 90.000000
_cell_angle_beta 98.608692
_cell_angle_gamma 90.000000
_cell_volume 2896.782422
_symmetry_space_group_name_H-M "C 2/C"
_symmetry_group_IT_number 15
_symmetry_cell_setting 'monoclinic'
loop_
_space_group_symop_operation_xyz
x,y,z
-x,y,1/2-z
-x,-y,-z
x,-y,1/2+z
1/2+x,1/2+y,z
1/2-x,1/2+y,1/2-z
1/2-x,1/2-y,-z
1/2+x,1/2-y,1/2+z
loop_
_atom_site_type_symbol
_atom_site_label
_atom_site_fract_x
_atom_site_fract_y
_atom_site_fract_z
Si Si1 0.738555 0.425991 0.859428
Si Si2 0.125279 0.585118 0.011370
Si Si3 0.608080 0.377971 0.625020
Si Si4 0.465384 0.808930 0.683966
Si Si5 0.891524 0.269617 0.462652
Si Si6 0.343318 0.372909 0.126232
Si Si7 0.407814 0.451600 0.445211
O O1 0.555938 0.379787 0.844793
O O2 0.888311 0.369184 0.838260
O O3 0.705657 0.533018 0.846227
O O4 0.779945 0.425870 0.926585
O O5 0.245853 0.588672 0.965089
O O6 0.029060 0.678545 0.004053
O O7 0.000000 0.500000 0.000000
O O8 0.563769 0.318907 0.568904
O O9 0.640847 0.476514 0.603151
O O10 0.781076 0.346648 0.660024
O O11 0.500000 0.813811 0.750000
O O12 0.441308 0.704280 0.664821
O O13 0.750000 0.250000 0.500000
O O14 0.823463 0.333836 0.410484
O O15 0.462537 0.389773 0.079747
O O16 0.500000 0.500000 0.500000
#
# Coordination Sequence:
#
# PCOD9290988 Si02
#       7
#     8   8   8   8   8   8   8
#     4  11  23  42  68  97 132 171 222 269 334 403
#     4  12  20  32  60  92 135 176 204 247 324 404
#     4  10  23  40  61  97 128 168 222 276 319 406
#     4  11  26  49  69  89 129 172 231 298 350 378
#     4  11  21  33  56  89 136 172 208 252 313 391
#     4  10  22  42  62  94 130 169 221 270 322 409
#     4  11  19  36  61  95 136 170 204 252 326 410
#
# _framework density 19.331793000000001
#
# number of rings (size 3 to 8) (size 9 to 14) (size 15 to 20)
#    0.000    1.143    4.286    4.286    2.000    1.143 
#    5.143    0.000    0.000    0.000    0.000    0.000 
#    0.000    0.000    0.000    0.000    0.000    0.000 
#
# Total GULP energy -156144.841572 kJ/mol
# GULP energy per Si atom -5576.601485 kJ/mol
# Density = 1.928779 g / cm^3
# Si number density = 19.331793 Si / 1000 Ang^3
#
#
#
# Elastic Constant Matrix: (Units=GPa)
#
#
# Indices 1 2 3 4 5 6 
#
# 1 118.7120 52.9435 28.3750 0.0000 3.7721 0.0000
# 2 52.9435 90.1384 23.6210 0.0000 -0.2036 0.0000
# 3 28.3750 23.6210 68.6213 0.0000 -0.2386 0.0000
# 4 0.0000 0.0000 0.0000 18.6694 0.0000 3.1694
# 5 3.7721 -0.2036 -0.2386 0.0000 14.7319 0.0000
# 6 0.0000 0.0000 0.0000 3.1694 0.0000 35.9968
#
#
#
# Elastic Compliance Matrix: (Units=1/GPa)
#
#
# Indices 1 2 3 4 5 6 
#
# 1 0.012020 -0.006333 -0.002801 0.000000 -0.003211 0.000000
# 2 -0.006333 0.015531 -0.002721 0.000000 0.001792 0.000000
# 3 -0.002801 -0.002721 0.016671 0.000000 0.000950 0.000000
# 4 0.000000 0.000000 0.000000 0.054376 0.000000 -0.004788
# 5 -0.003211 0.001792 0.000950 0.000000 0.068742 0.000000
# 6 0.000000 0.000000 0.000000 -0.004788 0.000000 0.028202
#
#
# Mechanical properties :
#
#
# Convention : Reuss Voigt Hill
#
# Bulk Modulus (GPa) = 48.75509 54.15005 51.45257
# Shear Modulus (GPa) = 22.11505 25.38176 23.74840
#
# Velocity S-wave (km/s) = 3.38594 3.62740 3.50875
# Velocity P-wave (km/s) = 6.36875 6.75394 6.56417
#
# Compressibility (1/GPa) = 0.02051068
#
# Stress axis : x y z
#
# Youngs Moduli (GPa) = 83.19613 64.38759 59.98407
#
# Poissons Ratio (x) = 0.40777 0.16804
# Poissons Ratio (y) = 0.52689 0.16322
# Poissons Ratio (z) = 0.23306 0.17521
#
# Static dielectric constant tensor:
#      x y z
#    x 1.847590 0.000000 -0.020830 
#    y 0.000000 1.754410 0.000000 
#    z -0.020830 0.000000 1.637690 
# 
# From -- ./inp_files/264386.got.cif
#   From: 2010.05.17/outbox.cif.g08.bks.cpg/sg15_133_cif.got.tgz:264386.got - 2010.06.03 18:47:42.
