data_PCOD9290005
_publ_section_title
;
Structure prediction by ZEFSAII (Michael W. Deem and Ramdas Pophale) SiO2 
 PCOD9290005
Probable space group: C 2/C
;
_chemical_formula_sum "Si O2"
_cell_formula_units_Z 32
_cell_length_a 14.189271
_cell_length_b 6.581383
_cell_length_c 13.528875
_cell_angle_alpha 90.000000
_cell_angle_beta 104.065446
_cell_angle_gamma 90.000000
_cell_volume 1225.516225
_symmetry_space_group_name_H-M "C 2/C"
_symmetry_group_IT_number 15
_symmetry_cell_setting 'monoclinic'
loop_
_space_group_symop_operation_xyz
x,y,z
-x,y,1/2-z
-x,-y,-z
x,-y,1/2+z
1/2+x,1/2+y,z
1/2-x,1/2+y,1/2-z
1/2-x,1/2-y,-z
1/2+x,1/2-y,1/2+z
loop_
_atom_site_type_symbol
_atom_site_label
_atom_site_fract_x
_atom_site_fract_y
_atom_site_fract_z
Si Si1 0.000000 0.500000 0.500000
Si Si2 0.331854 0.049686 0.208349
Si Si3 0.892265 0.172437 0.091547
Si Si4 0.278739 0.094585 0.904442
Si Si5 0.000000 0.148911 0.750000
O O1 0.945007 0.716008 0.515754
O O2 0.891275 0.396646 0.459610
O O3 0.272631 0.982297 0.288429
O O4 0.271337 0.185805 0.116469
O O5 0.418156 0.196642 0.267538
O O6 0.378625 0.855473 0.167587
O O7 0.788383 0.063986 0.054241
O O8 0.958091 0.996397 0.155726
#
# Coordination Sequence:
#
# PCOD9290005 Si02
#       5
#     4   8   8   8   4
#     4  12  26  42  66 102 148 182 216 292 356 420
#     4  11  22  44  72  97 129 182 238 284 333 418
#     4  11  24  43  66 102 139 180 235 281 355 421
#     4  11  24  43  71 101 135 181 235 287 343 412
#     4  10  22  40  72  98 128 180 236 286 336 406
#
# _framework density 26.111446000000001
#
# number of rings (size 3 to 8) (size 9 to 14) (size 15 to 20)
#    0.000    1.000    2.500    4.500    3.500    1.000 
#    0.000   15.000    0.000    0.000    0.000    0.000 
#    0.000    0.000    0.000    0.000    0.000    0.000 
#
# Total GULP energy -89236.721153 kJ/mol
# GULP energy per Si atom -5577.295072 kJ/mol
# Density = 2.605202 g / cm^3
# Si number density = 26.111446 Si / 1000 Ang^3
#
#
#
# Elastic Constant Matrix: (Units=GPa)
#
#
# Indices 1 2 3 4 5 6 
#
# 1 177.2991 80.3170 56.9787 0.0000 40.0842 0.0000
# 2 80.3170 189.6894 60.2662 0.0000 -7.6288 0.0000
# 3 56.9787 60.2662 51.6467 0.0000 -3.7725 0.0000
# 4 0.0000 0.0000 0.0000 43.1733 0.0000 1.2287
# 5 40.0842 -7.6288 -3.7725 0.0000 27.1046 0.0000
# 6 0.0000 0.0000 0.0000 1.2287 0.0000 63.8617
#
#
#
# Elastic Compliance Matrix: (Units=1/GPa)
#
#
# Indices 1 2 3 4 5 6 
#
# 1 0.026052 -0.004193 -0.027024 0.000000 -0.043469 0.000000
# 2 -0.004193 0.009080 -0.005384 0.000000 0.008008 0.000000
# 3 -0.027024 -0.005384 0.058865 0.000000 0.046642 0.000000
# 4 0.000000 0.000000 0.000000 0.023175 0.000000 -0.000446
# 5 -0.043469 0.008008 0.046642 0.000000 0.109925 0.000000
# 6 0.000000 0.000000 0.000000 -0.000446 0.000000 0.015667
#
#
# Mechanical properties :
#
#
# Convention : Reuss Voigt Hill
#
# Bulk Modulus (GPa) = 48.08791 90.41769 69.25280
# Shear Modulus (GPa) = 15.48474 41.56613 28.52544
#
# Velocity S-wave (km/s) = 2.43785 3.99416 3.30881
# Velocity P-wave (km/s) = 5.13620 7.48157 6.41695
#
# Compressibility (1/GPa) = 0.02079525
#
# Stress axis : x y z
#
# Youngs Moduli (GPa) = 38.38490 110.13305 16.98790
#
# Poissons Ratio (x) = 0.46182 0.45907
# Poissons Ratio (y) = 0.16096 0.09147
# Poissons Ratio (z) = 1.03730 0.59298
#
# Static dielectric constant tensor:
#      x y z
#    x 1.998120 0.000000 -0.031360 
#    y 0.000000 1.978140 0.000000 
#    z -0.031360 0.000000 2.152600 
# 
# From -- ./inp_files/201765.got.cif
#   From: 2010.05.17/outbox.cif.g08.bks.cpg/sg15_101_cif.got.tgz:201765.got - 2010.06.03 18:47:42.
