data_PCOD9290911
_publ_section_title
;
Structure prediction by ZEFSAII (Michael W. Deem and Ramdas Pophale) SiO2 
 PCOD9290911
Probable space group: C 2/C
;
_chemical_formula_sum "Si O2"
_cell_formula_units_Z 56
_cell_length_a 9.509988
_cell_length_b 10.224167
_cell_length_c 27.972987
_cell_angle_alpha 90.000000
_cell_angle_beta 123.245432
_cell_angle_gamma 90.000000
_cell_volume 2274.701183
_symmetry_space_group_name_H-M "C 2/C"
_symmetry_group_IT_number 15
_symmetry_cell_setting 'monoclinic'
loop_
_space_group_symop_operation_xyz
x,y,z
-x,y,1/2-z
-x,-y,-z
x,-y,1/2+z
1/2+x,1/2+y,z
1/2-x,1/2+y,1/2-z
1/2-x,1/2-y,-z
1/2+x,1/2-y,1/2+z
loop_
_atom_site_type_symbol
_atom_site_label
_atom_site_fract_x
_atom_site_fract_y
_atom_site_fract_z
Si Si1 0.870074 0.404052 0.268493
Si Si2 0.681697 0.397947 0.063729
Si Si3 0.878389 0.989299 0.550718
Si Si4 0.046070 0.610377 0.370457
Si Si5 0.661855 0.026302 0.596768
Si Si6 0.005601 0.756450 0.627273
Si Si7 0.006961 0.872911 0.306777
O O1 0.934008 0.524567 0.312636
O O2 0.679997 0.420376 0.216357
O O3 0.000000 0.388571 0.250000
O O4 0.884524 0.278031 0.306128
O O5 0.499166 0.397004 0.053593
O O6 0.814711 0.288738 0.103309
O O7 0.776535 0.535261 0.093409
O O8 0.664116 0.402368 0.003310
O O9 0.715772 0.024998 0.551627
O O10 0.993704 0.901106 0.606490
O O11 0.955568 0.588144 0.404531
O O12 0.052838 0.754141 0.350649
O O13 0.569875 0.158333 0.597647
O O14 0.839906 0.026565 0.658564
O O15 0.000000 0.831292 0.250000
#
# Coordination Sequence:
#
# PCOD9290911 Si02
#       7
#     8   8   8   8   8   8   8
#     4  10  23  39  58  92 123 156 208 243 295 369
#     4   9  22  41  62  92 121 156 208 246 310 368
#     4  11  22  40  67  87 121 164 196 259 306 349
#     4  10  23  41  62  88 125 161 199 254 304 353
#     4  10  24  40  59  96 119 152 215 244 289 380
#     4  10  22  42  59  90 126 156 203 252 299 361
#     4  12  22  42  63  89 125 165 199 248 304 355
#
# _framework density 24.618618000000001
#
# number of rings (size 3 to 8) (size 9 to 14) (size 15 to 20)
#    0.000    2.000    2.857    1.714    6.000    3.429 
#    0.000    6.429    0.000    0.000    0.000    0.000 
#    0.000    0.000    0.000    0.000    0.000    0.000 
#
# Total GULP energy -156649.038697 kJ/mol
# GULP energy per Si atom -5594.608525 kJ/mol
# Density = 2.456258 g / cm^3
# Si number density = 24.618618 Si / 1000 Ang^3
#
#
#
# Elastic Constant Matrix: (Units=GPa)
#
#
# Indices 1 2 3 4 5 6 
#
# 1 164.1086 22.9240 3.9824 0.0000 -20.1784 0.0000
# 2 22.9240 21.0444 14.0449 0.0000 -13.4261 0.0000
# 3 3.9824 14.0449 64.4182 0.0000 -1.9514 0.0000
# 4 0.0000 0.0000 0.0000 11.8874 0.0000 3.1426
# 5 -20.1784 -13.4261 -1.9514 0.0000 46.9397 0.0000
# 6 0.0000 0.0000 0.0000 3.1426 0.0000 23.8126
#
#
#
# Elastic Compliance Matrix: (Units=1/GPa)
#
#
# Indices 1 2 3 4 5 6 
#
# 1 0.007334 -0.008413 0.001405 0.000000 0.000805 0.000000
# 2 -0.008413 0.079207 -0.016193 0.000000 0.018366 0.000000
# 3 0.001405 -0.016193 0.018869 0.000000 -0.003243 0.000000
# 4 0.000000 0.000000 0.000000 0.087164 0.000000 -0.011503
# 5 0.000805 0.018366 -0.003243 0.000000 0.026768 0.000000
# 6 0.000000 0.000000 0.000000 -0.011503 0.000000 0.043513
#
#
# Mechanical properties :
#
#
# Convention : Reuss Voigt Hill
#
# Bulk Modulus (GPa) = 16.94677 36.83042 26.88860
# Shear Modulus (GPa) = 15.20102 30.43594 22.81848
#
# Velocity S-wave (km/s) = 2.48757 3.51992 3.04777
# Velocity P-wave (km/s) = 3.89222 5.61361 4.83022
#
# Compressibility (1/GPa) = 0.05900830
#
# Stress axis : x y z
#
# Youngs Moduli (GPa) = 136.35931 12.62510 52.99714
#
# Poissons Ratio (x) = 0.10622 -0.07448
# Poissons Ratio (y) = 1.14721 0.85818
# Poissons Ratio (z) = -0.19163 0.20444
#
# Static dielectric constant tensor:
#      x y z
#    x 1.983740 0.000000 -0.046890 
#    y 0.000000 1.959720 0.000000 
#    z -0.046890 0.000000 1.940500 
# 
# From -- ./inp_files/307560.got.cif
#   From: 2010.05.17/outbox.cif.g08.bks.cpg/sg15_154_cif.got.tgz:307560.got - 2010.06.03 18:47:42.
