data_PCOD9290624
_publ_section_title
;
Structure prediction by ZEFSAII (Michael W. Deem and Ramdas Pophale) SiO2 
 PCOD9290624
Probable space group: C 2/C
;
_chemical_formula_sum "Si O2"
_cell_formula_units_Z 48
_cell_length_a 26.548651
_cell_length_b 9.550197
_cell_length_c 14.041588
_cell_angle_alpha 90.000000
_cell_angle_beta 137.648573
_cell_angle_gamma 90.000000
_cell_volume 2398.403026
_symmetry_space_group_name_H-M "C 2/C"
_symmetry_group_IT_number 15
_symmetry_cell_setting 'monoclinic'
loop_
_space_group_symop_operation_xyz
x,y,z
-x,y,1/2-z
-x,-y,-z
x,-y,1/2+z
1/2+x,1/2+y,z
1/2-x,1/2+y,1/2-z
1/2-x,1/2-y,-z
1/2+x,1/2-y,1/2+z
loop_
_atom_site_type_symbol
_atom_site_label
_atom_site_fract_x
_atom_site_fract_y
_atom_site_fract_z
Si Si1 0.312029 0.922501 0.892990
Si Si2 0.971739 0.124616 0.317496
Si Si3 0.449892 0.137924 0.447033
Si Si4 0.990959 0.809218 0.124722
Si Si5 0.834026 0.702440 0.624021
Si Si6 0.826807 0.289940 0.327004
O O1 0.374550 0.885020 0.901119
O O2 0.237074 0.829466 0.772994
O O3 0.298073 0.086714 0.855599
O O4 0.345965 0.890488 0.045984
O O5 0.884457 0.158617 0.192235
O O6 0.000000 0.140392 0.250000
O O7 0.005828 0.247172 0.428562
O O8 0.993294 0.970180 0.380052
O O9 0.448295 0.211376 0.342110
O O10 0.500000 0.000000 0.500000
O O11 0.000000 0.796088 0.250000
O O12 0.906674 0.767407 0.975631
O O13 0.750000 0.750000 0.500000
O O14 0.841652 0.645000 0.741928
#
# Coordination Sequence:
#
# PCOD9290624 Si02
#       6
#     8   8   8   8   8   8
#     4  11  25  43  71  99 138 181 228 286 351 415
#     4  11  22  40  68  97 131 180 229 276 339 413
#     4  12  23  41  65  99 134 180 223 280 346 401
#     4  11  26  42  66 101 137 177 233 289 334 418
#     4  10  22  41  68 101 134 174 228 280 345 412
#     4  11  25  45  67 101 137 179 228 289 346 412
#
# _framework density 20.013316
#
# number of rings (size 3 to 8) (size 9 to 14) (size 15 to 20)
#    0.000    1.000    5.000    0.500    2.333    6.000 
#    0.000    1.667    0.000    0.000    0.000    0.000 
#    0.000    0.000    0.000    0.000    0.000    0.000 
#
# Total GULP energy -133889.135471 kJ/mol
# GULP energy per Si atom -5578.713978 kJ/mol
# Density = 1.996777 g / cm^3
# Si number density = 20.013316 Si / 1000 Ang^3
#
#
#
# Elastic Constant Matrix: (Units=GPa)
#
#
# Indices 1 2 3 4 5 6 
#
# 1 120.2538 36.1701 42.9182 0.0000 -13.2243 0.0000
# 2 36.1701 122.3542 40.6487 0.0000 -16.2522 0.0000
# 3 42.9182 40.6487 115.0578 0.0000 -7.5286 0.0000
# 4 0.0000 0.0000 0.0000 10.9764 0.0000 17.0521
# 5 -13.2243 -16.2522 -7.5286 0.0000 46.4963 0.0000
# 6 0.0000 0.0000 0.0000 17.0521 0.0000 19.7366
#
#
#
# Elastic Compliance Matrix: (Units=1/GPa)
#
#
# Indices 1 2 3 4 5 6 
#
# 1 0.010122 -0.001745 -0.003043 0.000000 0.001776 0.000000
# 2 -0.001745 0.009918 -0.002687 0.000000 0.002535 0.000000
# 3 -0.003043 -0.002687 0.010772 0.000000 -0.000061 0.000000
# 4 0.000000 0.000000 0.000000 -0.266221 0.000000 0.230010
# 5 0.001776 0.002535 -0.000061 0.000000 0.022889 0.000000
# 6 0.000000 0.000000 0.000000 0.230010 0.000000 -0.148058
#
#
# Mechanical properties :
#
#
# Convention : Reuss Voigt Hill
#
# Bulk Modulus (GPa) = 63.04603 66.34884 64.69744
# Shear Modulus (GPa) = -14.69119 31.30378 8.30629
#
# Velocity S-wave (km/s) = -2.71231 3.95922 2.03946
# Velocity P-wave (km/s) = 4.66493 7.35696 6.15981
#
# Compressibility (1/GPa) = 0.01586143
#
# Stress axis : x y z
#
# Youngs Moduli (GPa) = 98.79447 100.82213 92.83622
#
# Poissons Ratio (x) = 0.17598 0.28248
# Poissons Ratio (y) = 0.17244 0.24946
# Poissons Ratio (z) = 0.30061 0.27092
#
# Static dielectric constant tensor:
#      x y z
#    x 1.734410 0.000000 -0.040870 
#    y 0.000000 1.718660 0.000000 
#    z -0.040870 0.000000 1.732730 
# 
# From -- ./inp_files/176989.got.cif
#   From: 2010.05.17/outbox.cif.g08.bks.cpg/sg15_89_cif.got.tgz:176989.got - 2010.06.03 18:47:42.
