data_PCOD9290262
_publ_section_title
;
Structure prediction by ZEFSAII (Michael W. Deem and Ramdas Pophale) SiO2 
 PCOD9290262
Probable space group: C 2/C
;
_chemical_formula_sum "Si O2"
_cell_formula_units_Z 64
_cell_length_a 9.341557
_cell_length_b 17.300005
_cell_length_c 31.728186
_cell_angle_alpha 90.000000
_cell_angle_beta 39.172142
_cell_angle_gamma 90.000000
_cell_volume 3238.835697
_symmetry_space_group_name_H-M "C 2/C"
_symmetry_group_IT_number 15
_symmetry_cell_setting 'monoclinic'
loop_
_space_group_symop_operation_xyz
x,y,z
-x,y,1/2-z
-x,-y,-z
x,-y,1/2+z
1/2+x,1/2+y,z
1/2-x,1/2+y,1/2-z
1/2-x,1/2-y,-z
1/2+x,1/2-y,1/2+z
loop_
_atom_site_type_symbol
_atom_site_label
_atom_site_fract_x
_atom_site_fract_y
_atom_site_fract_z
Si Si1 0.424656 0.345230 0.925387
Si Si2 0.544144 0.384027 0.678661
Si Si3 0.925440 0.064393 0.814503
Si Si4 0.783416 0.924598 0.574059
Si Si5 0.312935 0.596014 0.580431
Si Si6 0.272434 0.642438 0.686372
Si Si7 0.990664 0.327404 0.420029
Si Si8 0.647337 0.182048 0.322106
O O1 0.427075 0.369206 0.876807
O O2 0.550974 0.408243 0.924671
O O3 0.549940 0.262881 0.902908
O O4 0.174092 0.336271 0.002083
O O5 0.605012 0.472099 0.676166
O O6 0.711486 0.330707 0.667331
O O7 0.295528 0.359116 0.751775
O O8 0.700430 0.114416 0.874976
O O9 0.000000 0.084385 0.750000
O O10 0.116866 0.084354 0.805358
O O11 0.586206 0.862481 0.620102
O O12 0.939160 0.913856 0.497218
O O13 0.698711 0.011915 0.599298
O O14 0.330665 0.620995 0.624767
O O15 0.163746 0.653555 0.585858
O O16 0.365314 0.726206 0.679478
O O17 0.000000 0.643518 0.750000
#
# Coordination Sequence:
#
# PCOD9290262 Si02
#       8
#     8   8   8   8   8   8   8   8
#     4  10  22  41  64  94 124 161 206 252 308 366
#     4  11  23  41  60  89 126 164 205 253 308 363
#     4  12  25  40  62  91 123 163 209 253 308 366
#     4  10  22  41  64  94 124 161 206 252 308 366
#     4  10  22  41  66  92 125 162 203 255 308 363
#     4  12  25  40  62  91 123 163 209 253 308 366
#     4  10  22  41  66  92 125 162 203 255 308 363
#     4  11  23  41  60  89 126 164 205 253 308 363
#
# _framework density 19.760187999999999
#
# number of rings (size 3 to 8) (size 9 to 14) (size 15 to 20)
#    0.000    1.250    2.500    3.750    3.500    2.500 
#    0.000    0.000    0.000    0.000    0.000    0.000 
#    0.000    0.000    0.000    0.000    0.000    0.000 
#
# Total GULP energy -178829.815091 kJ/mol
# GULP energy per Si atom -5588.431722 kJ/mol
# Density = 1.971521 g / cm^3
# Si number density = 19.760188 Si / 1000 Ang^3
#
#
#
# Elastic Constant Matrix: (Units=GPa)
#
#
# Indices 1 2 3 4 5 6 
#
# 1 53.3245 -4.9671 44.8523 -0.0021 24.7837 0.0310
# 2 -4.9671 52.7892 12.2475 0.0003 5.4771 -0.0288
# 3 44.8523 12.2475 100.3269 -0.0071 29.6352 -0.0839
# 4 -0.0021 0.0003 -0.0071 20.3519 0.0047 3.7453
# 5 24.7837 5.4771 29.6352 0.0047 39.2453 -0.0057
# 6 0.0310 -0.0288 -0.0839 3.7453 -0.0057 48.7569
#
#
#
# Elastic Compliance Matrix: (Units=1/GPa)
#
#
# Indices 1 2 3 4 5 6 
#
# 1 0.037762 0.008224 -0.013518 0.000011 -0.014787 -0.000045
# 2 0.008224 0.021330 -0.004977 0.000000 -0.004412 -0.000002
# 3 -0.013518 -0.004977 0.017880 -0.000001 -0.004270 0.000036
# 4 0.000011 0.000000 -0.000001 0.049840 -0.000013 -0.003828
# 5 -0.014787 -0.004412 -0.004270 -0.000013 0.038659 0.000005
# 6 -0.000045 -0.000002 0.000036 -0.003828 0.000005 0.020804
#
#
# Mechanical properties :
#
#
# Convention : Reuss Voigt Hill
#
# Bulk Modulus (GPa) = 17.72168 34.52289 26.12228
# Shear Modulus (GPa) = 22.16049 31.95800 27.05925
#
# Velocity S-wave (km/s) = 3.35247 4.02592 3.70453
# Velocity P-wave (km/s) = 4.89625 6.25456 5.61662
#
# Compressibility (1/GPa) = 0.05642807
#
# Stress axis : x y z
#
# Youngs Moduli (GPa) = 26.48172 46.88338 55.92918
#
# Poissons Ratio (x) = -0.38555 0.75605
# Poissons Ratio (y) = -0.21777 0.27837
# Poissons Ratio (z) = 0.35798 0.23334
#
# Static dielectric constant tensor:
#      x y z
#    x 1.656010 0.000000 -0.016410 
#    y 0.000000 1.679430 0.000000 
#    z -0.016410 0.000000 1.696280 
# 
# From -- ./inp_files/308757.got.cif
#   From: 2010.05.17/outbox.cif.g08.bks.cpg/sg15_155_cif.got.tgz:308757.got - 2010.06.03 18:47:42.
