data_PCOD9290887
_publ_section_title
;
Structure prediction by ZEFSAII (Michael W. Deem and Ramdas Pophale) SiO2 
 PCOD9290887
Probable space group: C 2/C
;
_chemical_formula_sum "Si O2"
_cell_formula_units_Z 40
_cell_length_a 17.800804
_cell_length_b 13.902484
_cell_length_c 11.919976
_cell_angle_alpha 90.000000
_cell_angle_beta 145.546669
_cell_angle_gamma 90.000000
_cell_volume 1668.861434
_symmetry_space_group_name_H-M "C 2/C"
_symmetry_group_IT_number 15
_symmetry_cell_setting 'monoclinic'
loop_
_space_group_symop_operation_xyz
x,y,z
-x,y,1/2-z
-x,-y,-z
x,-y,1/2+z
1/2+x,1/2+y,z
1/2-x,1/2+y,1/2-z
1/2-x,1/2-y,-z
1/2+x,1/2-y,1/2+z
loop_
_atom_site_type_symbol
_atom_site_label
_atom_site_fract_x
_atom_site_fract_y
_atom_site_fract_z
Si Si1 0.268519 0.851225 0.466495
Si Si2 0.809902 0.683752 0.766311
Si Si3 0.489779 0.543421 0.612160
Si Si4 0.058711 0.323193 0.443692
Si Si5 0.806491 0.539931 0.220910
O O1 0.250000 0.750000 0.500000
O O2 0.331858 0.834023 0.424509
O O3 0.344571 0.920653 0.645879
O O4 0.119069 0.890574 0.269989
O O5 0.682897 0.750860 0.589728
O O6 0.939520 0.725699 0.866480
O O7 0.790731 0.574591 0.698207
O O8 0.500000 0.491862 0.750000
O O9 0.500000 0.500000 0.500000
O O10 0.340230 0.583225 0.433595
O O11 0.101403 0.416920 0.568274
O O12 0.000000 0.346677 0.250000
#
# Coordination Sequence:
#
# PCOD9290887 Si02
#       5
#     8   8   8   8   8
#     4  11  24  47  78 117 158 201 268 328 392 470
#     4  12  28  51  80 116 160 206 264 333 395 475
#     4  10  22  41  74 115 154 204 261 323 391 472
#     4  12  30  51  78 115 162 209 260 322 409 471
#     4  11  26  48  79 116 156 210 263 328 397 473
#
# _framework density 23.968437000000002
#
# number of rings (size 3 to 8) (size 9 to 14) (size 15 to 20)
#    0.000    0.800    4.000    1.200    5.600    4.800 
#    0.000    0.000    0.000    0.000    0.000    0.000 
#    0.000    0.000    0.000    0.000    0.000    0.000 
#
# Total GULP energy -111845.613034 kJ/mol
# GULP energy per Si atom -5592.280652 kJ/mol
# Density = 2.391388 g / cm^3
# Si number density = 23.968437 Si / 1000 Ang^3
#
#
#
# Elastic Constant Matrix: (Units=GPa)
#
#
# Indices 1 2 3 4 5 6 
#
# 1 120.5523 -19.6702 57.5975 0.0000 -5.7461 0.0000
# 2 -19.6702 85.9835 35.0758 0.0000 -6.0811 0.0000
# 3 57.5975 35.0758 152.9144 0.0000 -12.3458 0.0000
# 4 0.0000 0.0000 0.0000 46.1327 0.0000 -2.7866
# 5 -5.7461 -6.0811 -12.3458 0.0000 60.0176 0.0000
# 6 0.0000 0.0000 0.0000 -2.7866 0.0000 23.6501
#
#
#
# Elastic Compliance Matrix: (Units=1/GPa)
#
#
# Indices 1 2 3 4 5 6 
#
# 1 0.011781 0.004991 -0.005543 0.000000 0.000494 0.000000
# 2 0.004991 0.014975 -0.005241 0.000000 0.000917 0.000000
# 3 -0.005543 -0.005241 0.009908 0.000000 0.000977 0.000000
# 4 0.000000 0.000000 0.000000 0.021832 0.000000 0.002572
# 5 0.000494 0.000917 0.000977 0.000000 0.017003 0.000000
# 6 0.000000 0.000000 0.000000 0.002572 0.000000 0.042586
#
#
# Mechanical properties :
#
#
# Convention : Reuss Voigt Hill
#
# Bulk Modulus (GPa) = 39.87321 56.16184 48.01753
# Shear Modulus (GPa) = 36.22408 45.05657 40.64033
#
# Velocity S-wave (km/s) = 3.89179 4.34040 4.12221
# Velocity P-wave (km/s) = 6.07178 6.97146 6.53712
#
# Compressibility (1/GPa) = 0.02507949
#
# Stress axis : x y z
#
# Youngs Moduli (GPa) = 84.88102 66.77916 100.92542
#
# Poissons Ratio (x) = -0.33330 0.55939
# Poissons Ratio (y) = -0.42365 0.52894
# Poissons Ratio (z) = 0.47046 0.34998
#
# Static dielectric constant tensor:
#      x y z
#    x 1.840980 0.000000 -0.044530 
#    y 0.000000 1.917310 0.000000 
#    z -0.044530 0.000000 1.900020 
# 
# From -- ./inp_files/106898.got.cif
#   From: 2010.05.17/outbox.cif.g08.bks.cpg/sg15_54_cif.got.tgz:106898.got - 2010.06.03 18:47:42.
