data_PCOD9290491
_publ_section_title
;
Structure prediction by ZEFSAII (Michael W. Deem and Ramdas Pophale) SiO2 
 PCOD9290491
Probable space group: C 2/C
;
_chemical_formula_sum "Si O2"
_cell_formula_units_Z 64
_cell_length_a 14.380201
_cell_length_b 22.211402
_cell_length_c 9.974524
_cell_angle_alpha 90.000000
_cell_angle_beta 83.619287
_cell_angle_gamma 90.000000
_cell_volume 3166.171640
_symmetry_space_group_name_H-M "C 2/C"
_symmetry_group_IT_number 15
_symmetry_cell_setting 'monoclinic'
loop_
_space_group_symop_operation_xyz
x,y,z
-x,y,1/2-z
-x,-y,-z
x,-y,1/2+z
1/2+x,1/2+y,z
1/2-x,1/2+y,1/2-z
1/2-x,1/2-y,-z
1/2+x,1/2-y,1/2+z
loop_
_atom_site_type_symbol
_atom_site_label
_atom_site_fract_x
_atom_site_fract_y
_atom_site_fract_z
Si Si1 0.892406 0.103210 0.911500
Si Si2 0.282360 0.818369 0.002907
Si Si3 0.390733 0.129516 0.741133
Si Si4 0.723793 0.491609 0.945253
Si Si5 0.094667 0.498593 0.899691
Si Si6 0.180980 0.606491 0.246794
Si Si7 0.756639 0.322117 0.500616
Si Si8 0.897990 0.893224 0.099812
O O1 0.899170 0.121812 0.756358
O O2 0.994646 0.099285 0.958388
O O3 0.817238 0.147692 0.985946
O O4 0.843952 0.038959 0.935289
O O5 0.339908 0.847664 0.870772
O O6 0.250000 0.750000 0.000000
O O7 0.340469 0.835375 0.126549
O O8 0.500000 0.144407 0.750000
O O9 0.329484 0.149009 0.880389
O O10 0.390766 0.058643 0.694396
O O11 0.746716 0.443758 0.824055
O O12 0.668272 0.548851 0.903074
O O13 0.819984 0.504219 0.007732
O O14 0.099958 0.437399 0.813389
O O15 0.000000 0.500000 0.000000
O O16 0.218604 0.647211 0.361841
O O17 0.750000 0.250000 0.500000
O O18 0.653497 0.342910 0.475545
#
# Coordination Sequence:
#
# PCOD9290491 Si02
#       8
#     8   8   8   8   8   8   8   8
#     4  10  22  41  66  95 127 177 225 280 348 417
#     4  11  24  48  72  96 139 191 236 292 349 422
#     4  12  26  46  72 102 143 189 231 294 364 429
#     4  11  21  43  64  96 140 172 223 286 359 422
#     4  12  25  42  70 106 144 183 231 296 366 439
#     4  11  24  41  67 103 136 182 234 286 361 432
#     4  12  25  45  68  99 139 185 237 296 347 419
#     4  11  22  39  67  96 131 173 226 283 355 415
#
# _framework density 20.213685999999999
#
# number of rings (size 3 to 8) (size 9 to 14) (size 15 to 20)
#    0.000    0.750    5.000    3.375    1.750    1.000 
#    2.250    1.875    0.000    0.000    0.000    0.000 
#    0.000    0.000    0.000    0.000    0.000    0.000 
#
# Total GULP energy -178665.131739 kJ/mol
# GULP energy per Si atom -5583.285367 kJ/mol
# Density = 2.016768 g / cm^3
# Si number density = 20.213686 Si / 1000 Ang^3
#
#
#
# Elastic Constant Matrix: (Units=GPa)
#
#
# Indices 1 2 3 4 5 6 
#
# 1 151.2956 37.1802 37.4661 0.0000 7.5117 0.0000
# 2 37.1802 140.1414 40.9453 0.0000 7.1544 0.0000
# 3 37.4661 40.9453 112.6832 0.0000 6.1150 0.0000
# 4 0.0000 0.0000 0.0000 19.1028 0.0000 -6.8307
# 5 7.5117 7.1544 6.1150 0.0000 27.9850 0.0000
# 6 0.0000 0.0000 0.0000 -6.8307 0.0000 0.8346
#
#
#
# Elastic Compliance Matrix: (Units=1/GPa)
#
#
# Indices 1 2 3 4 5 6 
#
# 1 0.007482 -0.001359 -0.001927 0.000000 -0.001240 0.000000
# 2 -0.001359 0.008286 -0.002494 0.000000 -0.001209 0.000000
# 3 -0.001927 -0.002494 0.010483 0.000000 -0.001136 0.000000
# 4 0.000000 0.000000 0.000000 -0.027172 0.000000 -0.222385
# 5 -0.001240 -0.001209 -0.001136 0.000000 0.036624 0.000000
# 6 0.000000 0.000000 0.000000 -0.222385 0.000000 -0.621921
#
#
# Mechanical properties :
#
#
# Convention : Reuss Voigt Hill
#
# Bulk Modulus (GPa) = 68.05919 70.58928 69.32423
# Shear Modulus (GPa) = -8.77559 28.81971 10.02206
#
# Velocity S-wave (km/s) = -2.08587 3.78001 2.22909
# Velocity P-wave (km/s) = 5.28600 7.35178 6.40275
#
# Compressibility (1/GPa) = 0.01469309
#
# Stress axis : x y z
#
# Youngs Moduli (GPa) = 133.65067 120.67926 95.39446
#
# Poissons Ratio (x) = 0.16398 0.18380
# Poissons Ratio (y) = 0.18161 0.23788
# Poissons Ratio (z) = 0.25751 0.30093
#
# Static dielectric constant tensor:
#      x y z
#    x 1.774970 0.000000 -0.030750 
#    y 0.000000 1.812790 0.000000 
#    z -0.030750 0.000000 1.787690 
# 
# From -- ./inp_files/42665.got.cif
#   From: 2010.05.17/outbox.cif.g08.bks.cpg/sg15_22_cif.got.tgz:42665.got - 2010.06.03 18:47:42.
