data_PCOD9290631
_publ_section_title
;
Structure prediction by ZEFSAII (Michael W. Deem and Ramdas Pophale) SiO2 
 PCOD9290631
Probable space group: C 2/C
;
_chemical_formula_sum "Si O2"
_cell_formula_units_Z 48
_cell_length_a 11.032808
_cell_length_b 16.253182
_cell_length_c 10.015937
_cell_angle_alpha 90.000000
_cell_angle_beta 95.881772
_cell_angle_gamma 90.000000
_cell_volume 1786.584850
_symmetry_space_group_name_H-M "C 2/C"
_symmetry_group_IT_number 15
_symmetry_cell_setting 'monoclinic'
loop_
_space_group_symop_operation_xyz
x,y,z
-x,y,1/2-z
-x,-y,-z
x,-y,1/2+z
1/2+x,1/2+y,z
1/2-x,1/2+y,1/2-z
1/2-x,1/2-y,-z
1/2+x,1/2-y,1/2+z
loop_
_atom_site_type_symbol
_atom_site_label
_atom_site_fract_x
_atom_site_fract_y
_atom_site_fract_z
Si Si1 0.145248 0.070179 0.748671
Si Si2 0.880986 0.269632 0.460460
Si Si3 0.942830 0.149024 0.096521
Si Si4 0.764536 0.007511 0.998468
Si Si5 0.564967 0.888379 0.627173
Si Si6 0.749871 0.240518 0.820877
O O1 0.210764 0.002201 0.657274
O O2 0.175413 0.156445 0.680055
O O3 0.000000 0.060574 0.750000
O O4 0.215412 0.066946 0.897922
O O5 0.750000 0.250000 0.500000
O O6 0.854616 0.278657 0.301584
O O7 0.954641 0.184590 0.486140
O O8 0.958826 0.341945 0.533806
O O9 0.878532 0.065071 0.054144
O O10 0.840708 0.221032 0.079228
O O11 0.000000 0.138974 0.250000
O O12 0.642583 0.054174 0.035224
O O13 0.500000 0.927979 0.750000
O O14 0.657793 0.817173 0.692442
#
# Coordination Sequence:
#
# PCOD9290631 Si02
#       6
#     8   8   8   8   8   8
#     4  12  26  45  69 100 138 186 242 294 348 419
#     4  11  21  35  66 106 137 172 225 286 352 421
#     4   9  20  40  66  99 136 175 222 295 358 415
#     4  11  26  46  69  98 140 187 237 292 352 422
#     4  11  22  43  69 104 140 179 229 292 360 416
#     4  10  22  41  68 102 137 176 233 291 353 416
#
# _framework density 26.866902
#
# number of rings (size 3 to 8) (size 9 to 14) (size 15 to 20)
#    0.000    1.333    1.667    3.500    2.333    4.000 
#    0.000    5.833    0.000    0.000    0.000    0.000 
#    0.000    0.000    0.000    0.000    0.000    0.000 
#
# Total GULP energy -134305.287259 kJ/mol
# GULP energy per Si atom -5596.053636 kJ/mol
# Density = 2.680575 g / cm^3
# Si number density = 26.866902 Si / 1000 Ang^3
#
#
#
# Elastic Constant Matrix: (Units=GPa)
#
#
# Indices 1 2 3 4 5 6 
#
# 1 183.7545 39.8538 47.0371 0.0000 -18.4609 0.0000
# 2 39.8538 78.5565 28.5134 0.0000 -13.5704 0.0000
# 3 47.0371 28.5134 73.3141 0.0000 -15.0942 0.0000
# 4 0.0000 0.0000 0.0000 41.7174 0.0000 1.1505
# 5 -18.4609 -13.5704 -15.0942 0.0000 60.0583 0.0000
# 6 0.0000 0.0000 0.0000 1.1505 0.0000 35.3553
#
#
#
# Elastic Compliance Matrix: (Units=1/GPa)
#
#
# Indices 1 2 3 4 5 6 
#
# 1 0.006850 -0.002101 -0.003419 0.000000 0.000772 0.000000
# 2 -0.002101 0.015699 -0.004387 0.000000 0.001799 0.000000
# 3 -0.003419 -0.004387 0.018054 0.000000 0.002495 0.000000
# 4 0.000000 0.000000 0.000000 0.023992 0.000000 -0.000781
# 5 0.000772 0.001799 0.002495 0.000000 0.017921 0.000000
# 6 0.000000 0.000000 0.000000 -0.000781 0.000000 0.028310
#
#
# Mechanical properties :
#
#
# Convention : Reuss Voigt Hill
#
# Bulk Modulus (GPa) = 48.10484 62.93709 55.52096
# Shear Modulus (GPa) = 36.34506 42.10758 39.22632
#
# Velocity S-wave (km/s) = 3.68201 3.96317 3.82517
# Velocity P-wave (km/s) = 6.00167 6.66473 6.34187
#
# Compressibility (1/GPa) = 0.02078793
#
# Stress axis : x y z
#
# Youngs Moduli (GPa) = 145.97495 63.69921 55.39068
#
# Poissons Ratio (x) = 0.13384 0.18939
# Poissons Ratio (y) = 0.30671 0.24301
# Poissons Ratio (z) = 0.49911 0.27946
#
# Static dielectric constant tensor:
#      x y z
#    x 2.076770 0.000000 0.007180 
#    y 0.000000 2.123550 0.000000 
#    z 0.007180 0.000000 2.579910 
# 
# From -- ./inp_files/87367.got.cif
#   From: 2010.05.17/outbox.cif.g08.bks.cpg/sg15_44_cif.got.tgz:87367.got - 2010.06.03 18:47:42.
