data_PCOD9290795
_publ_section_title
;
Structure prediction by ZEFSAII (Michael W. Deem and Ramdas Pophale) SiO2 
 PCOD9290795
Probable space group: C 2/C
;
_chemical_formula_sum "Si O2"
_cell_formula_units_Z 28
_cell_length_a 7.760144
_cell_length_b 28.675552
_cell_length_c 7.233107
_cell_angle_alpha 90.000000
_cell_angle_beta 43.033409
_cell_angle_gamma 90.000000
_cell_volume 1098.401685
_symmetry_space_group_name_H-M "C 2/C"
_symmetry_group_IT_number 15
_symmetry_cell_setting 'monoclinic'
loop_
_space_group_symop_operation_xyz
x,y,z
-x,y,1/2-z
-x,-y,-z
x,-y,1/2+z
1/2+x,1/2+y,z
1/2-x,1/2+y,1/2-z
1/2-x,1/2-y,-z
1/2+x,1/2-y,1/2+z
loop_
_atom_site_type_symbol
_atom_site_label
_atom_site_fract_x
_atom_site_fract_y
_atom_site_fract_z
Si Si1 0.765346 0.139497 0.801335
Si Si2 0.500000 0.391565 0.750000
Si Si3 0.544159 0.054150 0.498625
Si Si4 0.956596 0.730671 0.069838
O O1 0.653822 0.088796 0.940985
O O2 0.000000 0.150857 0.750000
O O3 0.854173 0.138235 0.518101
O O4 0.540703 0.176903 0.992528
O O5 0.675628 0.425314 0.738497
O O6 0.500000 0.060772 0.750000
O O7 0.500000 0.000000 0.500000
O O8 0.000000 0.744955 0.250000
O O9 0.662190 0.742479 0.283133
#
# Coordination Sequence:
#
# PCOD9290795 Si02
#       4
#     8   4   8   8
#     4  11  25  42  73 100 136 192 230 295 361 421
#     4  10  26  46  62 102 148 170 244 298 342 436
#     4  10  25  42  67  99 138 180 236 294 351 428
#     4  10  22  41  70 109 143 182 244 298 353 429
#
# _framework density 25.491585000000001
#
# number of rings (size 3 to 8) (size 9 to 14) (size 15 to 20)
#    0.000    1.714    0.000    2.571   14.000    2.286 
#    0.000    1.429    0.000    0.000    0.000    0.000 
#    0.000    0.000    0.000    0.000    0.000    0.000 
#
# Total GULP energy -78350.222571 kJ/mol
# GULP energy per Si atom -5596.444469 kJ/mol
# Density = 2.543357 g / cm^3
# Si number density = 25.491585 Si / 1000 Ang^3
#
#
#
# Elastic Constant Matrix: (Units=GPa)
#
#
# Indices 1 2 3 4 5 6 
#
# 1 126.7228 34.2023 43.7011 0.0000 -3.0502 0.0000
# 2 34.2023 194.2519 59.2485 0.0000 -19.5950 0.0000
# 3 43.7011 59.2485 166.9518 0.0000 -13.3470 0.0000
# 4 0.0000 0.0000 0.0000 35.6421 0.0000 -22.5345
# 5 -3.0502 -19.5950 -13.3470 0.0000 28.2792 0.0000
# 6 0.0000 0.0000 0.0000 -22.5345 0.0000 -80.6798
#
#
#
# Elastic Compliance Matrix: (Units=1/GPa)
#
#
# Indices 1 2 3 4 5 6 
#
# 1 0.008841 -0.001014 -0.002010 0.000000 -0.000698 0.000000
# 2 -0.001014 0.006173 -0.001654 0.000000 0.003387 0.000000
# 3 -0.002010 -0.001654 0.007268 0.000000 0.002067 0.000000
# 4 0.000000 0.000000 0.000000 0.023846 0.000000 -0.006660
# 5 -0.000698 0.003387 0.002067 0.000000 0.038609 0.000000
# 6 0.000000 0.000000 0.000000 -0.006660 0.000000 -0.010534
#
#
# Mechanical properties :
#
#
# Convention : Reuss Voigt Hill
#
# Bulk Modulus (GPa) = 77.36823 84.69226 81.03024
# Shear Modulus (GPa) = 56.90324 20.03327 38.46826
#
# Velocity S-wave (km/s) = 4.72978 2.80639 3.88887
# Velocity P-wave (km/s) = 7.76171 6.61792 7.21252
#
# Compressibility (1/GPa) = 0.01292520
#
# Stress axis : x y z
#
# Youngs Moduli (GPa) = 113.10485 162.00214 137.58278
#
# Poissons Ratio (x) = 0.16426 0.27658
# Poissons Ratio (y) = 0.11468 0.22762
# Poissons Ratio (z) = 0.22737 0.26802
#
# Static dielectric constant tensor:
#      x y z
#    x 2.057910 0.000000 -0.073520 
#    y 0.000000 2.080500 0.000000 
#    z -0.073520 0.000000 2.092340 
# 
# From -- ./inp_files/2517.got.cif
#   From: 2010.05.17/outbox.cif.g08.bks.cpg/sg15_2_cif.got.tgz:2517.got - 2010.06.03 18:47:42.
