data_PCOD9290917
_publ_section_title
;
Structure prediction by ZEFSAII (Michael W. Deem and Ramdas Pophale) SiO2 
 PCOD9290917
Probable space group: C 2/C
;
_chemical_formula_sum "Si O2"
_cell_formula_units_Z 56
_cell_length_a 10.430885
_cell_length_b 8.967882
_cell_length_c 31.614879
_cell_angle_alpha 90.000000
_cell_angle_beta 109.474285
_cell_angle_gamma 90.000000
_cell_volume 2788.162568
_symmetry_space_group_name_H-M "C 2/C"
_symmetry_group_IT_number 15
_symmetry_cell_setting 'monoclinic'
loop_
_space_group_symop_operation_xyz
x,y,z
-x,y,1/2-z
-x,-y,-z
x,-y,1/2+z
1/2+x,1/2+y,z
1/2-x,1/2+y,1/2-z
1/2-x,1/2-y,-z
1/2+x,1/2-y,1/2+z
loop_
_atom_site_type_symbol
_atom_site_label
_atom_site_fract_x
_atom_site_fract_y
_atom_site_fract_z
Si Si1 0.500000 0.039623 0.750000
Si Si2 0.657306 0.187482 0.392151
Si Si3 0.500000 0.534175 0.750000
Si Si4 0.319221 0.164871 0.588147
Si Si5 0.843460 0.212703 0.180548
Si Si6 0.427093 0.783990 0.801983
Si Si7 0.029344 0.302573 0.548087
Si Si8 0.931830 0.654322 0.945291
O O1 0.418377 0.930480 0.772126
O O2 0.593700 0.145166 0.788518
O O3 0.573715 0.222031 0.340455
O O4 0.565577 0.235572 0.422440
O O5 0.801963 0.268463 0.410003
O O6 0.673273 0.008911 0.397969
O O7 0.585074 0.429587 0.790733
O O8 0.410269 0.643400 0.769263
O O9 0.361874 0.264922 0.632981
O O10 0.164487 0.203970 0.559919
O O11 0.427170 0.191690 0.562866
O O12 0.684837 0.208920 0.174138
O O13 0.078163 0.474766 0.557796
O O14 0.944476 0.296312 0.495380
#
# Coordination Sequence:
#
# PCOD9290917 Si02
#       8
#     4   8   4   8   8   8   8   8
#     4  10  22  42  60  86 122 158 196 260 302 358
#     4  11  23  39  64  94 125 163 204 253 305 363
#     4  10  26  38  62  92 114 164 206 248 304 362
#     4  11  23  39  64  93 126 162 203 254 304 365
#     4  11  22  42  62  89 122 160 202 249 307 360
#     4  11  22  41  61  90 122 157 205 251 303 361
#     4  10  22  44  64  89 127 163 205 253 306 359
#     4  10  24  41  64  94 124 163 204 253 305 366
#
# _framework density 20.084913
#
# number of rings (size 3 to 8) (size 9 to 14) (size 15 to 20)
#    0.000    1.429    2.857    1.714    2.000    2.857 
#   10.286    0.000    0.000    0.000    0.000    0.000 
#    0.000    0.000    0.000    0.000    0.000    0.000 
#
# Total GULP energy -156517.148581 kJ/mol
# GULP energy per Si atom -5589.898164 kJ/mol
# Density = 2.003920 g / cm^3
# Si number density = 20.084913 Si / 1000 Ang^3
#
#
#
# Elastic Constant Matrix: (Units=GPa)
#
#
# Indices 1 2 3 4 5 6 
#
# 1 55.1112 13.9230 -22.3272 0.0000 -1.0623 0.0000
# 2 13.9230 64.5879 8.8725 0.0000 2.7754 0.0000
# 3 -22.3272 8.8725 33.1898 0.0000 -1.4209 0.0000
# 4 0.0000 0.0000 0.0000 30.5727 0.0000 0.1429
# 5 -1.0623 2.7754 -1.4209 0.0000 37.4951 0.0000
# 6 0.0000 0.0000 0.0000 0.1429 0.0000 18.6019
#
#
#
# Elastic Compliance Matrix: (Units=1/GPa)
#
#
# Indices 1 2 3 4 5 6 
#
# 1 0.029863 -0.009671 0.022778 0.000000 0.002425 0.000000
# 2 -0.009671 0.019274 -0.011750 0.000000 -0.002146 0.000000
# 3 0.022778 -0.011750 0.048738 0.000000 0.003362 0.000000
# 4 0.000000 0.000000 0.000000 0.032710 0.000000 -0.000251
# 5 0.002425 -0.002146 0.003362 0.000000 0.027025 0.000000
# 6 0.000000 0.000000 0.000000 -0.000251 0.000000 0.053760
#
#
# Mechanical properties :
#
#
# Convention : Reuss Voigt Hill
#
# Bulk Modulus (GPa) = 9.94130 17.09173 13.51652
# Shear Modulus (GPa) = 20.64539 27.49532 24.07035
#
# Velocity S-wave (km/s) = 3.20957 3.70395 3.46559
# Velocity P-wave (km/s) = 4.32383 5.17886 4.77054
#
# Compressibility (1/GPa) = 0.10059046
#
# Stress axis : x y z
#
# Youngs Moduli (GPa) = 33.48597 51.88395 20.51786
#
# Poissons Ratio (x) = 0.50176 -0.46736
# Poissons Ratio (y) = 0.32384 0.24108
# Poissons Ratio (z) = -0.76276 0.60963
#
# Static dielectric constant tensor:
#      x y z
#    x 1.671770 0.000000 0.000090 
#    y 0.000000 1.693480 0.000000 
#    z 0.000090 0.000000 1.685810 
# 
# From -- ./inp_files/309951.got.cif
#   From: 2010.05.17/outbox.cif.g08.bks.cpg/sg15_155_cif.got.tgz:309951.got - 2010.06.03 18:47:42.
