data_PCOD9290155
_publ_section_title
;
Structure prediction by ZEFSAII (Michael W. Deem and Ramdas Pophale) SiO2 
 PCOD9290155
Probable space group: C 2/C
;
_chemical_formula_sum "Si O2"
_cell_formula_units_Z 44
_cell_length_a 20.099481
_cell_length_b 15.020235
_cell_length_c 7.574195
_cell_angle_alpha 90.000000
_cell_angle_beta 99.227384
_cell_angle_gamma 90.000000
_cell_volume 2257.051614
_symmetry_space_group_name_H-M "C 2/C"
_symmetry_group_IT_number 15
_symmetry_cell_setting 'monoclinic'
loop_
_space_group_symop_operation_xyz
x,y,z
-x,y,1/2-z
-x,-y,-z
x,-y,1/2+z
1/2+x,1/2+y,z
1/2-x,1/2+y,1/2-z
1/2-x,1/2-y,-z
1/2+x,1/2-y,1/2+z
loop_
_atom_site_type_symbol
_atom_site_label
_atom_site_fract_x
_atom_site_fract_y
_atom_site_fract_z
Si Si1 0.766072 0.346190 0.922380
Si Si2 0.924387 0.203931 0.722413
Si Si3 0.675295 0.573635 0.672220
Si Si4 0.676394 0.383363 0.558444
Si Si5 0.581917 0.892891 0.608235
Si Si6 0.500000 0.047642 0.750000
O O1 0.730946 0.345925 0.715550
O O2 0.842060 0.380568 0.930205
O O3 0.750000 0.250000 0.000000
O O4 0.728135 0.410458 0.041779
O O5 0.882940 0.148260 0.852317
O O6 0.883312 0.182839 0.525564
O O7 0.926221 0.307117 0.771085
O O8 0.000000 0.169464 0.750000
O O9 0.648739 0.473680 0.636658
O O10 0.706315 0.589567 0.879675
O O11 0.559621 0.982019 0.703999
O O12 0.530595 0.894625 0.421248
#
# Coordination Sequence:
#
# PCOD9290155 Si02
#       6
#     8   8   8   8   8   4
#     4  12  23  41  67 100 127 175 221 277 341 386
#     4  10  22  43  64  91 137 175 212 282 328 402
#     4  10  22  41  62  98 132 164 222 267 330 405
#     4  10  23  41  65  98 135 168 222 274 327 406
#     4  11  24  44  65  96 131 173 228 276 337 401
#     4  10  26  46  66  98 132 180 230 276 338 414
#
# _framework density 19.494458999999999
#
# number of rings (size 3 to 8) (size 9 to 14) (size 15 to 20)
#    1.091    0.364    4.545    0.000    2.545    5.091 
#    3.273    0.000    0.000    0.000    0.000    0.000 
#    0.000    0.000    0.000    0.000    0.000    0.000 
#
# Total GULP energy -122501.379700 kJ/mol
# GULP energy per Si atom -5568.244532 kJ/mol
# Density = 1.945009 g / cm^3
# Si number density = 19.494459 Si / 1000 Ang^3
#
#
#
# Elastic Constant Matrix: (Units=GPa)
#
#
# Indices 1 2 3 4 5 6 
#
# 1 125.0149 21.2888 34.9610 0.0000 3.1925 0.0000
# 2 21.2888 85.5635 48.1668 0.0000 21.0731 0.0000
# 3 34.9610 48.1668 145.5602 0.0000 15.0476 0.0000
# 4 0.0000 0.0000 0.0000 42.7736 0.0000 0.1851
# 5 3.1925 21.0731 15.0476 0.0000 26.3650 0.0000
# 6 0.0000 0.0000 0.0000 0.1851 0.0000 -2.7937
#
#
#
# Elastic Compliance Matrix: (Units=1/GPa)
#
#
# Indices 1 2 3 4 5 6 
#
# 1 0.008701 -0.001469 -0.001718 0.000000 0.001101 0.000000
# 2 -0.001469 0.017144 -0.004168 0.000000 -0.011146 0.000000
# 3 -0.001718 -0.004168 0.008816 0.000000 -0.001492 0.000000
# 4 0.000000 0.000000 0.000000 0.023372 0.000000 0.001548
# 5 0.001101 -0.011146 -0.001492 0.000000 0.047557 0.000000
# 6 0.000000 0.000000 0.000000 0.001548 0.000000 -0.357843
#
#
# Mechanical properties :
#
#
# Convention : Reuss Voigt Hill
#
# Bulk Modulus (GPa) = 50.11990 62.77467 56.44729
# Shear Modulus (GPa) = -21.65519 30.05044 4.19763
#
# Velocity S-wave (km/s) = -3.33654 3.93044 1.46898
# Velocity P-wave (km/s) = 3.30489 7.27110 5.64762
#
# Compressibility (1/GPa) = 0.01995215
#
# Stress axis : x y z
#
# Youngs Moduli (GPa) = 114.92326 58.32839 113.42987
#
# Poissons Ratio (x) = 0.08570 0.19482
# Poissons Ratio (y) = 0.16885 0.47277
# Poissons Ratio (z) = 0.19739 0.24311
#
# Static dielectric constant tensor:
#      x y z
#    x 1.705920 0.000000 -0.014390 
#    y 0.000000 1.737270 0.000000 
#    z -0.014390 0.000000 1.676730 
# 
# From -- ./inp_files/47237.got.cif
#   From: 2010.05.17/outbox.cif.g08.bks.cpg/sg15_24_cif.got.tgz:47237.got - 2010.06.03 18:47:42.
