data_PCOD9290530
_publ_section_title
;
Structure prediction by ZEFSAII (Michael W. Deem and Ramdas Pophale) SiO2 
 PCOD9290530
Probable space group: C 2/C
;
_chemical_formula_sum "Si O2"
_cell_formula_units_Z 44
_cell_length_a 4.886225
_cell_length_b 24.232595
_cell_length_c 13.513655
_cell_angle_alpha 90.000000
_cell_angle_beta 95.772416
_cell_angle_gamma 90.000000
_cell_volume 1591.982940
_symmetry_space_group_name_H-M "C 2/C"
_symmetry_group_IT_number 15
_symmetry_cell_setting 'monoclinic'
loop_
_space_group_symop_operation_xyz
x,y,z
-x,y,1/2-z
-x,-y,-z
x,-y,1/2+z
1/2+x,1/2+y,z
1/2-x,1/2+y,1/2-z
1/2-x,1/2-y,-z
1/2+x,1/2-y,1/2+z
loop_
_atom_site_type_symbol
_atom_site_label
_atom_site_fract_x
_atom_site_fract_y
_atom_site_fract_z
Si Si1 0.971408 0.740028 0.130576
Si Si2 0.933165 0.040590 0.856167
Si Si3 0.837096 0.600350 0.004524
Si Si4 0.500000 0.000000 0.500000
Si Si5 0.472814 0.671126 0.130629
Si Si6 0.842085 0.659903 0.645440
O O1 0.156925 0.687855 0.104139
O O2 0.123223 0.795092 0.101860
O O3 0.000000 0.742851 0.250000
O O4 0.654567 0.725239 0.104590
O O5 0.820781 0.103283 0.838681
O O6 0.000000 0.018915 0.750000
O O7 0.209359 0.047240 0.934501
O O8 0.704312 0.008835 0.907009
O O9 0.929013 0.643493 0.925507
O O10 0.092265 0.564100 0.048067
O O11 0.622535 0.624161 0.073199
O O12 0.500000 0.662575 0.250000
O O13 0.000000 0.678154 0.750000
#
# Coordination Sequence:
#
# PCOD9290530 Si02
#       6
#     8   8   8   4   8   8
#     4  10  22  41  66  99 144 191 238 283 348 422
#     4  11  23  44  70 103 143 180 233 299 368 432
#     4  11  25  44  69 103 137 180 240 296 361 435
#     4  10  26  44  68  98 134 178 240 302 364 438
#     4  10  24  44  67  98 144 195 237 291 349 423
#     4  11  22  39  69 103 140 185 233 292 355 421
#
# _framework density 27.638489
#
# number of rings (size 3 to 8) (size 9 to 14) (size 15 to 20)
#    0.000    1.455    1.818    2.727    7.636    2.182 
#    0.000    1.818    0.000    0.000    0.000    0.000 
#    0.000    0.000    0.000    0.000    0.000    0.000 
#
# Total GULP energy -123042.424704 kJ/mol
# GULP energy per Si atom -5592.837487 kJ/mol
# Density = 2.757558 g / cm^3
# Si number density = 27.638489 Si / 1000 Ang^3
#
#
#
# Elastic Constant Matrix: (Units=GPa)
#
#
# Indices 1 2 3 4 5 6 
#
# 1 166.8010 30.4155 79.2180 0.0000 -30.1499 0.0000
# 2 30.4155 121.8432 66.4329 0.0000 -28.5640 0.0000
# 3 79.2180 66.4329 208.1790 0.0000 -47.7378 0.0000
# 4 0.0000 0.0000 0.0000 44.0575 0.0000 -20.0545
# 5 -30.1499 -28.5640 -47.7378 0.0000 66.6248 0.0000
# 6 0.0000 0.0000 0.0000 -20.0545 0.0000 58.2180
#
#
#
# Elastic Compliance Matrix: (Units=1/GPa)
#
#
# Indices 1 2 3 4 5 6 
#
# 1 0.007461 -0.000174 -0.002425 0.000000 0.001564 0.000000
# 2 -0.000174 0.010265 -0.002655 0.000000 0.002420 0.000000
# 3 -0.002425 -0.002655 0.007253 0.000000 0.002961 0.000000
# 4 0.000000 0.000000 0.000000 0.026918 0.000000 0.009273
# 5 0.001564 0.002420 0.002961 0.000000 0.018877 0.000000
# 6 0.000000 0.000000 0.000000 0.009273 0.000000 0.020371
#
#
# Mechanical properties :
#
#
# Convention : Reuss Voigt Hill
#
# Bulk Modulus (GPa) = 69.09691 94.32845 81.71268
# Shear Modulus (GPa) = 46.95869 55.16385 51.06127
#
# Velocity S-wave (km/s) = 4.12640 4.47240 4.30288
# Velocity P-wave (km/s) = 6.91068 7.80214 7.36990
#
# Compressibility (1/GPa) = 0.01447243
#
# Stress axis : x y z
#
# Youngs Moduli (GPa) = 134.02406 97.41378 137.88254
#
# Poissons Ratio (x) = 0.01691 0.33438
# Poissons Ratio (y) = 0.02326 0.36605
# Poissons Ratio (z) = 0.32502 0.25862
#
# Static dielectric constant tensor:
#      x y z
#    x 2.453190 0.000000 0.242280 
#    y 0.000000 2.412690 0.000000 
#    z 0.242280 0.000000 2.200440 
# 
# From -- ./inp_files/129341.got.cif
#   From: 2010.05.17/outbox.cif.g08.bks.cpg/sg15_65_cif.got.tgz:129341.got - 2010.06.03 18:47:42.
