data_PCOD9290702
_publ_section_title
;
Structure prediction by ZEFSAII (Michael W. Deem and Ramdas Pophale) SiO2 
 PCOD9290702
Probable space group: C 2/C
;
_chemical_formula_sum "Si O2"
_cell_formula_units_Z 40
_cell_length_a 8.643341
_cell_length_b 24.822376
_cell_length_c 8.781087
_cell_angle_alpha 90.000000
_cell_angle_beta 111.673704
_cell_angle_gamma 90.000000
_cell_volume 1750.774563
_symmetry_space_group_name_H-M "C 2/C"
_symmetry_group_IT_number 15
_symmetry_cell_setting 'monoclinic'
loop_
_space_group_symop_operation_xyz
x,y,z
-x,y,1/2-z
-x,-y,-z
x,-y,1/2+z
1/2+x,1/2+y,z
1/2-x,1/2+y,1/2-z
1/2-x,1/2-y,-z
1/2+x,1/2-y,1/2+z
loop_
_atom_site_type_symbol
_atom_site_label
_atom_site_fract_x
_atom_site_fract_y
_atom_site_fract_z
Si Si1 0.669027 0.073519 0.719213
Si Si2 0.176018 0.373289 0.895167
Si Si3 0.192704 0.673412 0.870730
Si Si4 0.617915 0.471209 0.664841
Si Si5 0.693890 0.287444 0.768125
O O1 0.500000 0.059405 0.750000
O O2 0.647052 0.108785 0.558556
O O3 0.771393 0.115702 0.861447
O O4 0.766391 0.018658 0.725030
O O5 0.272809 0.424092 0.862540
O O6 0.274522 0.319450 0.876605
O O7 0.000000 0.367773 0.750000
O O8 0.254170 0.725314 0.798436
O O9 0.000000 0.668396 0.750000
O O10 0.210907 0.685050 0.055397
O O11 0.500000 0.447424 0.750000
O O12 0.500000 0.500000 0.500000
O O13 0.500000 0.287741 0.750000
#
# Coordination Sequence:
#
# PCOD9290702 Si02
#       5
#     8   8   8   8   8
#     4  11  25  43  66  94 132 176 218 269 329 396
#     4  12  26  42  67  97 132 175 219 269 335 397
#     4   9  20  41  67  96 135 174 216 268 332 396
#     4  12  27  45  67  98 131 169 222 276 333 393
#     4  10  22  41  69 100 131 174 220 274 329 389
#
# _framework density 22.847031000000001
#
# number of rings (size 3 to 8) (size 9 to 14) (size 15 to 20)
#    0.000    1.200    2.000    3.600    8.400    2.400 
#    0.000    1.000    0.000    0.000    0.000    0.000 
#    0.000    0.000    0.000    0.000    0.000    0.000 
#
# Total GULP energy -111737.759038 kJ/mol
# GULP energy per Si atom -5586.887952 kJ/mol
# Density = 2.279503 g / cm^3
# Si number density = 22.847031 Si / 1000 Ang^3
#
#
#
# Elastic Constant Matrix: (Units=GPa)
#
#
# Indices 1 2 3 4 5 6 
#
# 1 90.2296 22.1263 23.8583 0.0000 -22.9357 0.0000
# 2 22.1263 96.2339 -4.3344 0.0000 -21.6127 0.0000
# 3 23.8583 -4.3344 62.5737 0.0000 -18.9221 0.0000
# 4 0.0000 0.0000 0.0000 25.3319 0.0000 -3.4634
# 5 -22.9357 -21.6127 -18.9221 0.0000 37.3394 0.0000
# 6 0.0000 0.0000 0.0000 -3.4634 0.0000 27.8629
#
#
#
# Elastic Compliance Matrix: (Units=1/GPa)
#
#
# Indices 1 2 3 4 5 6 
#
# 1 0.014009 -0.002187 -0.003866 0.000000 0.005380 0.000000
# 2 -0.002187 0.012950 0.004241 0.000000 0.008301 0.000000
# 3 -0.003866 0.004241 0.020990 0.000000 0.010717 0.000000
# 4 0.000000 0.000000 0.000000 0.040158 0.000000 0.004992
# 5 0.005380 0.008301 0.010717 0.000000 0.040322 0.000000
# 6 0.000000 0.000000 0.000000 0.004992 0.000000 0.036510
#
#
# Mechanical properties :
#
#
# Convention : Reuss Voigt Hill
#
# Bulk Modulus (GPa) = 22.56063 36.92640 29.74352
# Shear Modulus (GPa) = 27.27215 31.93264 29.60240
#
# Velocity S-wave (km/s) = 3.45872 3.74260 3.60346
# Velocity P-wave (km/s) = 5.08394 5.90539 5.50999
#
# Compressibility (1/GPa) = 0.04432501
#
# Stress axis : x y z
#
# Youngs Moduli (GPa) = 71.38320 77.22289 47.64239
#
# Poissons Ratio (x) = 0.16887 0.18418
# Poissons Ratio (y) = 0.15610 -0.20206
# Poissons Ratio (z) = 0.27596 -0.32751
#
# Static dielectric constant tensor:
#      x y z
#    x 1.887740 0.000000 -0.034490 
#    y 0.000000 1.882500 0.000000 
#    z -0.034490 0.000000 1.902480 
# 
# From -- ./inp_files/23415.got.cif
#   From: 2010.05.17/outbox.cif.g08.bks.cpg/sg15_12_cif.got.tgz:23415.got - 2010.06.03 18:47:42.
