data_PCOD9290372
_publ_section_title
;
Structure prediction by ZEFSAII (Michael W. Deem and Ramdas Pophale) SiO2 
 PCOD9290372
Probable space group: C 2/C
;
_chemical_formula_sum "Si O2"
_cell_formula_units_Z 40
_cell_length_a 23.729526
_cell_length_b 8.449996
_cell_length_c 7.923163
_cell_angle_alpha 90.000000
_cell_angle_beta 103.711895
_cell_angle_gamma 90.000000
_cell_volume 1543.429976
_symmetry_space_group_name_H-M "C 2/C"
_symmetry_group_IT_number 15
_symmetry_cell_setting 'monoclinic'
loop_
_space_group_symop_operation_xyz
x,y,z
-x,y,1/2-z
-x,-y,-z
x,-y,1/2+z
1/2+x,1/2+y,z
1/2-x,1/2+y,1/2-z
1/2-x,1/2-y,-z
1/2+x,1/2-y,1/2+z
loop_
_atom_site_type_symbol
_atom_site_label
_atom_site_fract_x
_atom_site_fract_y
_atom_site_fract_z
Si Si1 0.440138 0.087165 0.259527
Si Si2 0.074177 0.195193 0.430920
Si Si3 0.416920 0.659067 0.452110
Si Si4 0.208924 0.695024 0.619527
Si Si5 0.325587 0.117738 0.578368
O O1 0.500000 0.002996 0.250000
O O2 0.445111 0.175062 0.443182
O O3 0.436202 0.221659 0.112551
O O4 0.382349 0.977478 0.205862
O O5 0.143224 0.232941 0.480060
O O6 0.065994 0.018885 0.492225
O O7 0.059519 0.193204 0.219860
O O8 0.347607 0.692020 0.408731
O O9 0.250000 0.750000 0.500000
O O10 0.223058 0.673387 0.825373
O O11 0.195667 0.514061 0.561675
#
# Coordination Sequence:
#
# PCOD9290372 Si02
#       5
#     8   8   8   8   8
#     4  11  24  43  66  95 132 178 222 268 329 388
#     4  11  21  43  65  90 137 171 213 278 321 379
#     4  10  23  41  64  95 132 174 216 271 331 387
#     4  10  22  41  65  94 127 167 219 265 335 389
#     4  10  22  44  64  95 130 168 220 273 317 398
#
# _framework density 25.916301000000001
#
# number of rings (size 3 to 8) (size 9 to 14) (size 15 to 20)
#    0.000    1.600    4.000    0.000    0.000    5.600 
#    0.000    2.000    0.000    0.000    0.000    0.000 
#    0.000    0.000    0.000    0.000    0.000    0.000 
#
# Total GULP energy -111724.328133 kJ/mol
# GULP energy per Si atom -5586.216407 kJ/mol
# Density = 2.585731 g / cm^3
# Si number density = 25.916301 Si / 1000 Ang^3
#
#
#
# Elastic Constant Matrix: (Units=GPa)
#
#
# Indices 1 2 3 4 5 6 
#
# 1 98.4234 1.2418 57.2110 0.0000 -49.7973 0.0000
# 2 1.2418 95.8376 28.2542 0.0000 -1.4378 0.0000
# 3 57.2110 28.2542 175.5391 0.0000 -32.0358 0.0000
# 4 0.0000 0.0000 0.0000 43.8360 0.0000 -14.6821
# 5 -49.7973 -1.4378 -32.0358 0.0000 54.6835 0.0000
# 6 0.0000 0.0000 0.0000 -14.6821 0.0000 24.0569
#
#
#
# Elastic Compliance Matrix: (Units=1/GPa)
#
#
# Indices 1 2 3 4 5 6 
#
# 1 0.020925 0.001143 -0.003942 0.000000 0.016776 0.000000
# 2 0.001143 0.011051 -0.002137 0.000000 0.000080 0.000000
# 3 -0.003942 -0.002137 0.007457 0.000000 0.000723 0.000000
# 4 0.000000 0.000000 0.000000 0.028673 0.000000 0.017500
# 5 0.016776 0.000080 0.000723 0.000000 0.033989 0.000000
# 6 0.000000 0.000000 0.000000 0.017500 0.000000 0.052248
#
#
# Mechanical properties :
#
#
# Convention : Reuss Voigt Hill
#
# Bulk Modulus (GPa) = 33.82841 60.35711 47.09276
# Shear Modulus (GPa) = 28.72411 43.38814 36.05613
#
# Velocity S-wave (km/s) = 3.33279 4.09609 3.73400
# Velocity P-wave (km/s) = 5.28122 6.76095 6.06637
#
# Compressibility (1/GPa) = 0.02956095
#
# Stress axis : x y z
#
# Youngs Moduli (GPa) = 47.78977 90.49282 134.09604
#
# Poissons Ratio (x) = -0.10341 0.52863
# Poissons Ratio (y) = -0.05461 0.28651
# Poissons Ratio (z) = 0.18839 0.19335
#
# Static dielectric constant tensor:
#      x y z
#    x 2.113240 0.000000 0.039250 
#    y 0.000000 1.979070 0.000000 
#    z 0.039250 0.000000 2.062090 
# 
# From -- ./inp_files/60014.got.cif
#   From: 2010.05.17/outbox.cif.g08.bks.cpg/sg15_31_cif.got.tgz:60014.got - 2010.06.03 18:47:42.
