data_PCOD9290080
_publ_section_title
;
Structure prediction by ZEFSAII (Michael W. Deem and Ramdas Pophale) SiO2 
 PCOD9290080
Probable space group: C 2/C
;
_chemical_formula_sum "Si O2"
_cell_formula_units_Z 56
_cell_length_a 6.934299
_cell_length_b 24.948202
_cell_length_c 15.621010
_cell_angle_alpha 90.000000
_cell_angle_beta 60.141598
_cell_angle_gamma 90.000000
_cell_volume 2343.686174
_symmetry_space_group_name_H-M "C 2/C"
_symmetry_group_IT_number 15
_symmetry_cell_setting 'monoclinic'
loop_
_space_group_symop_operation_xyz
x,y,z
-x,y,1/2-z
-x,-y,-z
x,-y,1/2+z
1/2+x,1/2+y,z
1/2-x,1/2+y,1/2-z
1/2-x,1/2-y,-z
1/2+x,1/2-y,1/2+z
loop_
_atom_site_type_symbol
_atom_site_label
_atom_site_fract_x
_atom_site_fract_y
_atom_site_fract_z
Si Si1 0.027499 0.825267 0.846173
Si Si2 0.362537 0.548240 0.860583
Si Si3 0.916259 0.479890 0.360690
Si Si4 0.922526 0.408962 0.933399
Si Si5 0.882668 0.063378 0.432151
Si Si6 0.671411 0.268539 0.146668
Si Si7 0.035515 0.298041 0.949092
O O1 0.034114 0.884038 0.887903
O O2 0.788215 0.799980 0.922351
O O3 0.000000 0.832627 0.750000
O O4 0.217356 0.783363 0.830914
O O5 0.500000 0.570018 0.750000
O O6 0.469533 0.491972 0.870228
O O7 0.124352 0.531671 0.875755
O O8 0.287276 0.585073 0.955989
O O9 0.887366 0.544104 0.372811
O O10 0.709480 0.450986 0.453020
O O11 0.000000 0.461869 0.250000
O O12 0.969080 0.347667 0.902173
O O13 0.156678 0.422130 0.929817
O O14 0.500000 0.294267 0.250000
O O15 0.532877 0.252871 0.092055
O O16 0.878271 0.302127 0.066404
#
# Coordination Sequence:
#
# PCOD9290080 Si02
#       7
#     8   8   8   8   8   8   8
#     4  11  20  38  66  89 113 159 203 240 300 364
#     4   9  16  31  51  75 108 148 185 224 289 347
#     4   9  17  33  53  78 114 150 187 235 280 335
#     4   8  17  34  54  75 105 154 187 225 291 351
#     4   8  17  33  54  77 114 150 186 233 284 340
#     4  11  23  40  62  90 117 152 197 254 310 355
#     4  10  22  41  61  85 123 150 195 258 299 355
#
# _framework density 23.893982999999999
#
# number of rings (size 3 to 8) (size 9 to 14) (size 15 to 20)
#    0.000    2.571    1.429    2.571    0.000    1.143 
#    7.714    1.429    6.286    0.857    0.000    0.000 
#    0.000    0.000    0.000    0.000    0.000    0.000 
#
# Total GULP energy -156350.678937 kJ/mol
# GULP energy per Si atom -5583.952819 kJ/mol
# Density = 2.383960 g / cm^3
# Si number density = 23.893983 Si / 1000 Ang^3
#
#
#
# Elastic Constant Matrix: (Units=GPa)
#
#
# Indices 1 2 3 4 5 6 
#
# 1 77.9955 9.1544 2.2143 0.0000 -4.6250 0.0000
# 2 9.1544 46.7540 0.7516 0.0000 0.0508 0.0000
# 3 2.2143 0.7516 103.7495 0.0000 -6.8857 0.0000
# 4 0.0000 0.0000 0.0000 138.6348 0.0000 -11.6879
# 5 -4.6250 0.0508 -6.8857 0.0000 29.2272 0.0000
# 6 0.0000 0.0000 0.0000 -11.6879 0.0000 31.5101
#
#
#
# Elastic Compliance Matrix: (Units=1/GPa)
#
#
# Indices 1 2 3 4 5 6 
#
# 1 0.013252 -0.002595 -0.000127 0.000000 0.002072 0.000000
# 2 -0.002595 0.021899 -0.000135 0.000000 -0.000481 0.000000
# 3 -0.000127 -0.000135 0.009794 0.000000 0.002288 0.000000
# 4 0.000000 0.000000 0.000000 0.007446 0.000000 0.002762
# 5 0.002072 -0.000481 0.002288 0.000000 0.035082 0.000000
# 6 0.000000 0.000000 0.000000 0.002762 0.000000 0.032760
#
#
# Mechanical properties :
#
#
# Convention : Reuss Voigt Hill
#
# Bulk Modulus (GPa) = 25.48916 28.08215 26.78565
# Shear Modulus (GPa) = 35.96468 54.29967 45.13218
#
# Velocity S-wave (km/s) = 3.88387 4.77227 4.35081
# Velocity P-wave (km/s) = 5.55008 6.49187 6.03936
#
# Compressibility (1/GPa) = 0.03923237
#
# Stress axis : x y z
#
# Youngs Moduli (GPa) = 75.45868 45.66344 102.10219
#
# Poissons Ratio (x) = 0.11850 0.01292
# Poissons Ratio (y) = 0.19582 0.01380
# Poissons Ratio (z) = 0.00955 0.00617
#
# Static dielectric constant tensor:
#      x y z
#    x 1.946260 0.000000 0.002060 
#    y 0.000000 1.925290 0.000000 
#    z 0.002060 0.000000 1.937240 
# 
# From -- ./inp_files/193569.got.cif
#   From: 2010.05.17/outbox.cif.g08.bks.cpg/sg15_97_cif.got.tgz:193569.got - 2010.06.03 18:47:42.
