data_PCOD9290927
_publ_section_title
;
Structure prediction by ZEFSAII (Michael W. Deem and Ramdas Pophale) SiO2 
 PCOD9290927
Probable space group: C 2/C
;
_chemical_formula_sum "Si O2"
_cell_formula_units_Z 40
_cell_length_a 9.727214
_cell_length_b 11.516693
_cell_length_c 13.858817
_cell_angle_alpha 90.000000
_cell_angle_beta 83.770915
_cell_angle_gamma 90.000000
_cell_volume 1543.372481
_symmetry_space_group_name_H-M "C 2/C"
_symmetry_group_IT_number 15
_symmetry_cell_setting 'monoclinic'
loop_
_space_group_symop_operation_xyz
x,y,z
-x,y,1/2-z
-x,-y,-z
x,-y,1/2+z
1/2+x,1/2+y,z
1/2-x,1/2+y,1/2-z
1/2-x,1/2-y,-z
1/2+x,1/2-y,1/2+z
loop_
_atom_site_type_symbol
_atom_site_label
_atom_site_fract_x
_atom_site_fract_y
_atom_site_fract_z
Si Si1 0.827486 0.078253 0.809599
Si Si2 0.546035 0.401042 0.568243
Si Si3 0.946353 0.340140 0.070594
Si Si4 0.991327 0.311828 0.649978
Si Si5 0.255248 0.341834 0.114371
O O1 0.680328 0.094217 0.872773
O O2 0.917649 0.192374 0.837971
O O3 0.802711 0.073153 0.696999
O O4 0.902055 0.963564 0.841027
O O5 0.500000 0.500000 0.500000
O O6 0.432643 0.300112 0.583013
O O7 0.673799 0.354056 0.494819
O O8 0.092676 0.355157 0.113297
O O9 0.959575 0.364964 0.954930
O O10 0.000000 0.379598 0.750000
O O11 0.831604 0.273733 0.648779
#
# Coordination Sequence:
#
# PCOD9290927 Si02
#       5
#     8   8   8   8   8
#     4  11  22  41  65 100 134 171 228 280 325 404
#     4  11  22  40  69  95 129 176 225 273 331 402
#     4  11  22  41  66  93 134 178 214 272 348 394
#     4   9  18  35  61  89 129 171 216 274 322 391
#     4  10  22  42  60  96 140 170 216 283 335 393
#
# _framework density 25.917269000000001
#
# number of rings (size 3 to 8) (size 9 to 14) (size 15 to 20)
#    0.000    1.600    4.000    3.600    0.000    0.800 
#    7.200    2.000    0.000    2.400    0.000    0.000 
#    0.000    0.000    0.000    0.000    0.000    0.000 
#
# Total GULP energy -111848.397323 kJ/mol
# GULP energy per Si atom -5592.419866 kJ/mol
# Density = 2.585828 g / cm^3
# Si number density = 25.917269 Si / 1000 Ang^3
#
#
#
# Elastic Constant Matrix: (Units=GPa)
#
#
# Indices 1 2 3 4 5 6 
#
# 1 136.6984 9.4821 51.5752 0.0000 -4.3326 0.0000
# 2 9.4821 49.8959 14.3715 0.0000 1.8269 0.0000
# 3 51.5752 14.3715 180.4084 0.0000 17.5212 0.0000
# 4 0.0000 0.0000 0.0000 34.1048 0.0000 7.7309
# 5 -4.3326 1.8269 17.5212 0.0000 47.1129 0.0000
# 6 0.0000 0.0000 0.0000 7.7309 0.0000 36.7383
#
#
#
# Elastic Compliance Matrix: (Units=1/GPa)
#
#
# Indices 1 2 3 4 5 6 
#
# 1 0.008374 -0.000938 -0.002487 0.000000 0.001731 0.000000
# 2 -0.000938 0.020619 -0.001337 0.000000 -0.000389 0.000000
# 3 -0.002487 -0.001337 0.006617 0.000000 -0.002638 0.000000
# 4 0.000000 0.000000 0.000000 0.030790 0.000000 -0.006479
# 5 0.001731 -0.000389 -0.002638 0.000000 0.022381 0.000000
# 6 0.000000 0.000000 0.000000 -0.006479 0.000000 0.028583
#
#
# Mechanical properties :
#
#
# Convention : Reuss Voigt Hill
#
# Bulk Modulus (GPa) = 38.33568 57.54005 47.93787
# Shear Modulus (GPa) = 36.87775 43.02945 39.95360
#
# Velocity S-wave (km/s) = 3.77623 4.07905 3.93056
# Velocity P-wave (km/s) = 5.81695 6.66592 6.25585
#
# Compressibility (1/GPa) = 0.02608536
#
# Stress axis : x y z
#
# Youngs Moduli (GPa) = 119.42030 48.49840 151.13290
#
# Poissons Ratio (x) = 0.04551 0.37592
# Poissons Ratio (y) = 0.11205 0.20200
# Poissons Ratio (z) = 0.29704 0.06482
#
# Static dielectric constant tensor:
#      x y z
#    x 2.088690 0.000000 0.020420 
#    y 0.000000 2.311360 0.000000 
#    z 0.020420 0.000000 2.021080 
# 
# From -- ./inp_files/133204.got.cif
#   From: 2010.05.17/outbox.cif.g08.bks.cpg/sg15_67_cif.got.tgz:133204.got - 2010.06.03 18:47:42.
