data_PCOD9290142
_publ_section_title
;
Structure prediction by ZEFSAII (Michael W. Deem and Ramdas Pophale) SiO2 
 PCOD9290142
Probable space group: C 2/C
;
_chemical_formula_sum "Si O2"
_cell_formula_units_Z 56
_cell_length_a 8.191022
_cell_length_b 14.606378
_cell_length_c 30.393329
_cell_angle_alpha 90.000000
_cell_angle_beta 127.684867
_cell_angle_gamma 90.000000
_cell_volume 2877.708011
_symmetry_space_group_name_H-M "C 2/C"
_symmetry_group_IT_number 15
_symmetry_cell_setting 'monoclinic'
loop_
_space_group_symop_operation_xyz
x,y,z
-x,y,1/2-z
-x,-y,-z
x,-y,1/2+z
1/2+x,1/2+y,z
1/2-x,1/2+y,1/2-z
1/2-x,1/2-y,-z
1/2+x,1/2-y,1/2+z
loop_
_atom_site_type_symbol
_atom_site_label
_atom_site_fract_x
_atom_site_fract_y
_atom_site_fract_z
Si Si1 0.137979 0.085110 0.627997
Si Si2 0.373668 0.167472 0.123876
Si Si3 0.334953 0.718808 0.184062
Si Si4 0.763806 0.006029 0.945682
Si Si5 0.767778 0.317523 0.462243
Si Si6 0.293128 0.146470 0.489716
Si Si7 0.552270 0.391808 0.639245
O O1 0.254856 0.177306 0.661575
O O2 0.262260 0.046773 0.607159
O O3 0.916672 0.111085 0.570450
O O4 0.096377 0.000402 0.654427
O O5 0.620835 0.172003 0.164384
O O6 0.269903 0.260507 0.088867
O O7 0.265385 0.145801 0.152702
O O8 0.318713 0.095059 0.076222
O O9 0.500000 0.719676 0.250000
O O10 0.444503 0.666204 0.160699
O O11 0.670052 0.076284 0.964612
O O12 0.000000 0.000000 0.000000
O O13 0.750000 0.250000 0.500000
O O14 0.995851 0.355496 0.502135
O O15 0.250000 0.250000 0.500000
O O16 0.105538 0.115714 0.428016
#
# Coordination Sequence:
#
# PCOD9290142 Si02
#       7
#     8   8   8   8   8   8   8
#     4  10  23  41  61  97 129 168 222 274 322 410
#     4  10  22  41  62  95 128 171 220 271 321 408
#     4  11  26  49  69  89 129 172 231 299 352 377
#     4  11  19  36  61  95 136 169 206 252 327 413
#     4  11  21  33  56  89 136 171 210 252 312 394
#     4  12  20  32  60  93 134 178 204 245 330 403
#     4  11  23  42  68  97 132 171 224 268 333 407
#
# _framework density 19.459931999999998
#
# number of rings (size 3 to 8) (size 9 to 14) (size 15 to 20)
#    0.000    1.143    4.286    4.286    2.000    1.143 
#    5.143    0.000    0.000    0.000    0.000    0.000 
#    0.000    0.000    0.000    0.000    0.000    0.000 
#
# Total GULP energy -156116.444068 kJ/mol
# GULP energy per Si atom -5575.587288 kJ/mol
# Density = 1.941564 g / cm^3
# Si number density = 19.459932 Si / 1000 Ang^3
#
#
#
# Elastic Constant Matrix: (Units=GPa)
#
#
# Indices 1 2 3 4 5 6 
#
# 1 128.6487 46.2281 32.6082 0.0000 5.9282 0.0000
# 2 46.2281 105.1716 26.0767 0.0000 -1.8112 0.0000
# 3 32.6082 26.0767 73.2655 0.0000 14.2992 0.0000
# 4 0.0000 0.0000 0.0000 15.2485 0.0000 0.7728
# 5 5.9282 -1.8112 14.2992 0.0000 23.1740 0.0000
# 6 0.0000 0.0000 0.0000 0.7728 0.0000 32.5582
#
#
#
# Elastic Compliance Matrix: (Units=1/GPa)
#
#
# Indices 1 2 3 4 5 6 
#
# 1 0.009860 -0.003633 -0.002896 0.000000 -0.001019 0.000000
# 2 -0.003633 0.012028 -0.003443 0.000000 0.003994 0.000000
# 3 -0.002896 -0.003443 0.018272 0.000000 -0.010803 0.000000
# 4 0.000000 0.000000 0.000000 0.065659 0.000000 -0.001559
# 5 -0.001019 0.003994 -0.010803 0.000000 0.050390 0.000000
# 6 0.000000 0.000000 0.000000 -0.001559 0.000000 0.030751
#
#
# Mechanical properties :
#
#
# Convention : Reuss Voigt Hill
#
# Bulk Modulus (GPa) = 49.47150 57.43465 53.45307
# Shear Modulus (GPa) = 23.40341 27.67432 25.53886
#
# Velocity S-wave (km/s) = 3.47168 3.77519 3.62661
# Velocity P-wave (km/s) = 6.44574 6.97002 6.71300
#
# Compressibility (1/GPa) = 0.02021366
#
# Stress axis : x y z
#
# Youngs Moduli (GPa) = 101.42267 83.14037 54.72874
#
# Poissons Ratio (x) = 0.30207 0.15850
# Poissons Ratio (y) = 0.36850 0.18846
# Poissons Ratio (z) = 0.29374 0.28629
#
# Static dielectric constant tensor:
#      x y z
#    x 1.730510 0.000000 -0.024650 
#    y 0.000000 1.787020 0.000000 
#    z -0.024650 0.000000 1.631120 
# 
# From -- ./inp_files/308055.got.cif
#   From: 2010.05.17/outbox.cif.g08.bks.cpg/sg15_155_cif.got.tgz:308055.got - 2010.06.03 18:47:42.
