data_PCOD9290180
_publ_section_title
;
Structure prediction by ZEFSAII (Michael W. Deem and Ramdas Pophale) SiO2 
 PCOD9290180
Probable space group: C 2/C
;
_chemical_formula_sum "Si O2"
_cell_formula_units_Z 36
_cell_length_a 10.251388
_cell_length_b 26.026534
_cell_length_c 8.044531
_cell_angle_alpha 90.000000
_cell_angle_beta 131.600201
_cell_angle_gamma 90.000000
_cell_volume 1605.028455
_symmetry_space_group_name_H-M "C 2/C"
_symmetry_group_IT_number 15
_symmetry_cell_setting 'monoclinic'
loop_
_space_group_symop_operation_xyz
x,y,z
-x,y,1/2-z
-x,-y,-z
x,-y,1/2+z
1/2+x,1/2+y,z
1/2-x,1/2+y,1/2-z
1/2-x,1/2-y,-z
1/2+x,1/2-y,1/2+z
loop_
_atom_site_type_symbol
_atom_site_label
_atom_site_fract_x
_atom_site_fract_y
_atom_site_fract_z
Si Si1 0.406391 0.827370 0.922763
Si Si2 0.138948 0.576296 0.585248
Si Si3 0.850664 0.859229 0.505381
Si Si4 0.000000 0.499384 0.250000
Si Si5 0.935821 0.776413 0.006120
O O1 0.549537 0.782038 0.045245
O O2 0.252068 0.802992 0.679142
O O3 0.500158 0.878246 0.937758
O O4 0.312183 0.843594 0.015483
O O5 0.299688 0.604290 0.809604
O O6 0.062787 0.538331 0.660372
O O7 0.151773 0.538435 0.439562
O O8 0.935428 0.808367 0.501876
O O9 0.000000 0.883102 0.750000
O O10 0.000000 0.779620 0.250000
#
# Coordination Sequence:
#
# PCOD9290180 Si02
#       5
#     8   8   8   4   8
#     4  11  22  39  63  91 131 168 202 249 311 377
#     4  11  22  43  67  93 121 161 213 257 313 362
#     4  10  22  41  63  90 134 166 200 248 313 378
#     4  10  24  40  70  90 118 158 220 262 306 362
#     4  11  24  37  61  98 130 165 206 249 309 375
#
# _framework density 22.429510000000001
#
# number of rings (size 3 to 8) (size 9 to 14) (size 15 to 20)
#    0.000    1.333    2.222    2.667    4.667    3.556 
#    0.000    1.111    0.000    0.000    0.000    0.000 
#    0.000    0.000    0.000    0.000    0.000    0.000 
#
# Total GULP energy -100602.491770 kJ/mol
# GULP energy per Si atom -5589.027321 kJ/mol
# Density = 2.237846 g / cm^3
# Si number density = 22.429510 Si / 1000 Ang^3
#
#
#
# Elastic Constant Matrix: (Units=GPa)
#
#
# Indices 1 2 3 4 5 6 
#
# 1 31.3189 19.6218 21.8114 0.0000 8.1701 0.0000
# 2 19.6218 164.0030 53.3650 0.0000 2.7120 0.0000
# 3 21.8114 53.3650 124.0963 0.0000 11.5916 0.0000
# 4 0.0000 0.0000 0.0000 21.0160 0.0000 1.8301
# 5 8.1701 2.7120 11.5916 0.0000 25.0306 0.0000
# 6 0.0000 0.0000 0.0000 1.8301 0.0000 -11.3822
#
#
#
# Elastic Compliance Matrix: (Units=1/GPa)
#
#
# Indices 1 2 3 4 5 6 
#
# 1 0.039868 -0.003064 -0.004709 0.000000 -0.010500 0.000000
# 2 -0.003064 0.007336 -0.002754 0.000000 0.001481 0.000000
# 3 -0.004709 -0.002754 0.010346 0.000000 -0.002956 0.000000
# 4 0.000000 0.000000 0.000000 0.046926 0.000000 0.007545
# 5 -0.010500 0.001481 -0.002956 0.000000 0.044587 0.000000
# 6 0.000000 0.000000 0.000000 0.007545 0.000000 -0.086643
#
#
# Mechanical properties :
#
#
# Convention : Reuss Voigt Hill
#
# Bulk Modulus (GPa) = 27.40049 56.55717 41.97883
# Shear Modulus (GPa) = 52.27957 21.90753 37.09355
#
# Velocity S-wave (km/s) = 4.83311 3.12866 4.07109
# Velocity P-wave (km/s) = 6.58696 6.19044 6.39178
#
# Compressibility (1/GPa) = 0.03649570
#
# Stress axis : x y z
#
# Youngs Moduli (GPa) = 25.08282 136.31766 96.65137
#
# Poissons Ratio (x) = 0.41769 0.45511
# Poissons Ratio (y) = 0.07686 0.26622
# Poissons Ratio (z) = 0.11811 0.37547
#
# Static dielectric constant tensor:
#      x y z
#    x 1.801300 0.000000 0.003130 
#    y 0.000000 1.789470 0.000000 
#    z 0.003130 0.000000 1.929000 
# 
# From -- ./inp_files/31671.got.cif
#   From: 2010.05.17/outbox.cif.g08.bks.cpg/sg15_16_cif.got.tgz:31671.got - 2010.06.03 18:47:42.
