data_PCOD9290619
_publ_section_title
;
Structure prediction by ZEFSAII (Michael W. Deem and Ramdas Pophale) SiO2 
 PCOD9290619
Probable space group: C 2/C
;
_chemical_formula_sum "Si O2"
_cell_formula_units_Z 56
_cell_length_a 8.665308
_cell_length_b 17.142213
_cell_length_c 23.417019
_cell_angle_alpha 90.000000
_cell_angle_beta 132.354929
_cell_angle_gamma 90.000000
_cell_volume 2570.504934
_symmetry_space_group_name_H-M "C 2/C"
_symmetry_group_IT_number 15
_symmetry_cell_setting 'monoclinic'
loop_
_space_group_symop_operation_xyz
x,y,z
-x,y,1/2-z
-x,-y,-z
x,-y,1/2+z
1/2+x,1/2+y,z
1/2-x,1/2+y,1/2-z
1/2-x,1/2-y,-z
1/2+x,1/2-y,1/2+z
loop_
_atom_site_type_symbol
_atom_site_label
_atom_site_fract_x
_atom_site_fract_y
_atom_site_fract_z
Si Si1 0.256788 0.449160 0.706332
Si Si2 0.932960 0.855925 0.081649
Si Si3 0.269033 0.714613 0.165362
Si Si4 0.864561 0.076253 0.447102
Si Si5 0.193182 0.831205 0.957923
Si Si6 0.581375 0.063151 0.566495
Si Si7 0.290535 0.981672 0.183478
O O1 0.500000 0.447975 0.750000
O O2 0.182190 0.361714 0.675553
O O3 0.160408 0.515186 0.640754
O O4 0.249745 0.467590 0.771025
O O5 0.084374 0.780053 0.121124
O O6 0.755715 0.877429 0.084066
O O7 0.098435 0.925428 0.128588
O O8 0.827869 0.870607 0.993369
O O9 0.500000 0.736000 0.250000
O O10 0.307038 0.684567 0.109815
O O11 0.682602 0.035299 0.365647
O O12 0.987094 0.129288 0.431993
O O13 0.000000 0.000000 0.500000
O O14 0.250000 0.750000 0.000000
O O15 0.375435 0.887604 0.025520
O O16 0.500000 0.000000 0.500000
O O17 0.500000 0.935180 0.250000
#
# Coordination Sequence:
#
# PCOD9290619 Si02
#       7
#     8   8   8   8   8   8   8
#     4  11  23  46  71  98 138 184 237 284 341 422
#     4  11  24  44  67 106 137 178 238 286 348 425
#     4  11  24  44  74  98 143 187 227 294 363 415
#     4  10  22  41  67  99 136 176 234 282 336 422
#     4  12  25  46  67 103 138 183 224 288 356 414
#     4  12  25  44  73  97 138 188 236 280 345 421
#     4  11  24  40  68 102 134 177 229 289 350 404
#
# _framework density 21.785602999999998
#
# number of rings (size 3 to 8) (size 9 to 14) (size 15 to 20)
#    0.000    0.857    4.286    3.857    6.000    1.714 
#    2.571    0.000    0.000    0.000    0.000    0.000 
#    0.000    0.000    0.000    0.000    0.000    0.000 
#
# Total GULP energy -156330.256332 kJ/mol
# GULP energy per Si atom -5583.223440 kJ/mol
# Density = 2.173602 g / cm^3
# Si number density = 21.785603 Si / 1000 Ang^3
#
#
#
# Elastic Constant Matrix: (Units=GPa)
#
#
# Indices 1 2 3 4 5 6 
#
# 1 55.8031 11.5159 19.3534 0.0000 -9.7513 0.0000
# 2 11.5159 109.7347 40.1840 0.0000 -19.8100 0.0000
# 3 19.3534 40.1840 120.6174 -0.0001 -11.5307 0.0000
# 4 0.0000 0.0000 -0.0001 32.2692 0.0000 6.5651
# 5 -9.7513 -19.8100 -11.5307 0.0000 40.5997 0.0000
# 6 0.0000 0.0000 0.0000 6.5651 0.0000 46.8332
#
#
#
# Elastic Compliance Matrix: (Units=1/GPa)
#
#
# Indices 1 2 3 4 5 6 
#
# 1 0.019578 -0.000408 -0.002647 0.000000 0.003751 0.000000
# 2 -0.000408 0.011133 -0.003221 0.000000 0.004419 0.000000
# 3 -0.002647 -0.003221 0.009845 0.000000 0.000589 0.000000
# 4 0.000000 0.000000 0.000000 0.031899 0.000000 -0.004472
# 5 0.003751 0.004419 0.000589 0.000000 0.027855 0.000000
# 6 0.000000 0.000000 0.000000 -0.004472 0.000000 0.021979
#
#
# Mechanical properties :
#
#
# Convention : Reuss Voigt Hill
#
# Bulk Modulus (GPa) = 35.70942 47.58466 41.64704
# Shear Modulus (GPa) = 34.67996 38.28055 36.48025
#
# Velocity S-wave (km/s) = 3.99416 4.19638 4.09652
# Velocity P-wave (km/s) = 6.13987 6.73567 6.44465
#
# Compressibility (1/GPa) = 0.02800382
#
# Stress axis : x y z
#
# Youngs Moduli (GPa) = 51.07818 89.82262 101.57727
#
# Poissons Ratio (x) = 0.03666 0.26885
# Poissons Ratio (y) = 0.02085 0.32718
# Poissons Ratio (z) = 0.13519 0.28932
#
# Static dielectric constant tensor:
#      x y z
#    x 1.871730 0.000000 0.020120 
#    y 0.000000 1.757480 0.000000 
#    z 0.020120 0.000000 1.833020 
# 
# From -- ./inp_files/265581.got.cif
#   From: 2010.05.17/outbox.cif.g08.bks.cpg/sg15_133_cif.got.tgz:265581.got - 2010.06.03 18:47:42.
