data_PCOD9290396
_publ_section_title
;
Structure prediction by ZEFSAII (Michael W. Deem and Ramdas Pophale) SiO2 
 PCOD9290396
Probable space group: C 2/C
;
_chemical_formula_sum "Si O2"
_cell_formula_units_Z 40
_cell_length_a 20.476147
_cell_length_b 4.771111
_cell_length_c 15.297092
_cell_angle_alpha 90.000000
_cell_angle_beta 84.841197
_cell_angle_gamma 90.000000
_cell_volume 1488.380160
_symmetry_space_group_name_H-M "C 2/C"
_symmetry_group_IT_number 15
_symmetry_cell_setting 'monoclinic'
loop_
_space_group_symop_operation_xyz
x,y,z
-x,y,1/2-z
-x,-y,-z
x,-y,1/2+z
1/2+x,1/2+y,z
1/2-x,1/2+y,1/2-z
1/2-x,1/2-y,-z
1/2+x,1/2-y,1/2+z
loop_
_atom_site_type_symbol
_atom_site_label
_atom_site_fract_x
_atom_site_fract_y
_atom_site_fract_z
Si Si1 0.863387 0.872325 0.442390
Si Si2 0.138392 0.616363 0.673333
Si Si3 0.673846 0.861637 0.839287
Si Si4 0.500000 0.806909 0.250000
Si Si5 0.084081 0.134764 0.391851
Si Si6 0.750000 0.250000 0.500000
O O1 0.846619 0.554033 0.417540
O O2 0.922474 0.918921 0.503901
O O3 0.869928 0.063698 0.355630
O O4 0.803048 0.999166 0.502306
O O5 0.185794 0.506626 0.743806
O O6 0.065190 0.527478 0.713366
O O7 0.636989 0.566113 0.838696
O O8 0.617886 0.060145 0.888422
O O9 0.733697 0.848175 0.898462
O O10 0.523186 0.641940 0.333705
#
# Coordination Sequence:
#
# PCOD9290396 Si02
#       6
#     8   8   8   4   8   4
#     4  11  24  41  65  99 128 168 227 273 327 411
#     4  11  24  41  65  98 130 169 226 271 330 409
#     4  10  22  41  65  95 130 173 222 273 336 413
#     4  10  24  44  68  92 140 186 214 292 350 380
#     4  10  22  41  65  95 131 174 227 273 337 409
#     4  10  24  44  68  90 134 174 206 280 342 374
#
# _framework density 26.874855
#
# number of rings (size 3 to 8) (size 9 to 14) (size 15 to 20)
#    0.000    1.600    0.000    4.800    0.000   17.600 
#    0.000    0.000    0.000    0.000    0.000    0.000 
#    0.000    0.000    0.000    0.000    0.000    0.000 
#
# Total GULP energy -111412.142131 kJ/mol
# GULP energy per Si atom -5570.607107 kJ/mol
# Density = 2.681369 g / cm^3
# Si number density = 26.874855 Si / 1000 Ang^3
#
#
#
# Elastic Constant Matrix: (Units=GPa)
#
#
# Indices 1 2 3 4 5 6 
#
# 1 83.3429 -7.9223 29.4037 0.0000 47.2278 0.0000
# 2 -7.9223 72.3820 17.9329 0.0000 26.5695 0.0000
# 3 29.4037 17.9329 221.6906 0.0000 79.5702 0.0000
# 4 0.0000 0.0000 0.0000 32.1041 0.0000 4.5324
# 5 47.2278 26.5695 79.5702 0.0000 70.1730 0.0000
# 6 0.0000 0.0000 0.0000 4.5324 0.0000 26.8437
#
#
#
# Elastic Compliance Matrix: (Units=1/GPa)
#
#
# Indices 1 2 3 4 5 6 
#
# 1 0.029181 0.013374 0.006601 0.000000 -0.032188 0.000000
# 2 0.013374 0.022472 0.004541 0.000000 -0.022658 0.000000
# 3 0.006601 0.004541 0.009240 0.000000 -0.016640 0.000000
# 4 0.000000 0.000000 0.000000 0.031909 0.000000 -0.005388
# 5 -0.032188 -0.022658 -0.016640 0.000000 0.063360 0.000000
# 6 0.000000 0.000000 0.000000 -0.005388 0.000000 0.038162
#
#
# Mechanical properties :
#
#
# Convention : Reuss Voigt Hill
#
# Bulk Modulus (GPa) = 9.09720 50.69381 29.89550
# Shear Modulus (GPa) = 27.48235 48.35757 37.91996
#
# Velocity S-wave (km/s) = 3.20129 4.24649 3.76038
# Velocity P-wave (km/s) = 4.12998 6.55343 5.47741
#
# Compressibility (1/GPa) = 0.10992390
#
# Stress axis : x y z
#
# Youngs Moduli (GPa) = 34.26907 44.50062 108.22140
#
# Poissons Ratio (x) = -0.59514 -0.71434
# Poissons Ratio (y) = -0.45831 -0.49144
# Poissons Ratio (z) = -0.22620 -0.20208
#
# Static dielectric constant tensor:
#      x y z
#    x 2.144890 0.000000 -0.107440 
#    y 0.000000 1.941050 0.000000 
#    z -0.107440 0.000000 2.340590 
# 
# From -- ./inp_files/170581.got.cif
#   From: 2010.05.17/outbox.cif.g08.bks.cpg/sg15_86_cif.got.tgz:170581.got - 2010.06.03 18:47:42.
