data_PCOD9290676
_publ_section_title
;
Structure prediction by ZEFSAII (Michael W. Deem and Ramdas Pophale) SiO2 
 PCOD9290676
Probable space group: C 2/C
;
_chemical_formula_sum "Si O2"
_cell_formula_units_Z 56
_cell_length_a 9.508231
_cell_length_b 27.599109
_cell_length_c 11.261352
_cell_angle_alpha 90.000000
_cell_angle_beta 63.152052
_cell_angle_gamma 90.000000
_cell_volume 2636.644177
_symmetry_space_group_name_H-M "C 2/C"
_symmetry_group_IT_number 15
_symmetry_cell_setting 'monoclinic'
loop_
_space_group_symop_operation_xyz
x,y,z
-x,y,1/2-z
-x,-y,-z
x,-y,1/2+z
1/2+x,1/2+y,z
1/2-x,1/2+y,1/2-z
1/2-x,1/2-y,-z
1/2+x,1/2-y,1/2+z
loop_
_atom_site_type_symbol
_atom_site_label
_atom_site_fract_x
_atom_site_fract_y
_atom_site_fract_z
Si Si1 0.017186 0.776640 0.995244
Si Si2 0.724449 0.671962 0.747641
Si Si3 0.000000 0.737562 0.750000
Si Si4 0.570636 0.543707 0.052553
Si Si5 0.682528 0.071894 0.714905
Si Si6 0.750283 0.036600 0.278945
Si Si7 0.671027 0.188585 0.049788
Si Si8 0.500000 0.896175 0.750000
O O1 0.033818 0.726731 0.066118
O O2 0.921407 0.814572 0.112360
O O3 0.951709 0.767204 0.887330
O O4 0.199048 0.792745 0.907200
O O5 0.771110 0.615622 0.718553
O O6 0.725912 0.686786 0.610086
O O7 0.862821 0.702227 0.757552
O O8 0.406307 0.562957 0.166240
O O9 0.688992 0.526501 0.110929
O O10 0.500000 0.500000 0.000000
O O11 0.685167 0.578462 0.937237
O O12 0.500000 0.076833 0.750000
O O13 0.710518 0.016979 0.746068
O O14 0.605343 0.070160 0.296510
O O15 0.600800 0.139173 0.126694
#
# Coordination Sequence:
#
# PCOD9290676 Si02
#       8
#     8   8   4   8   8   8   8   4
#     4  10  23  46  67  94 134 178 218 293 350 406
#     4  11  23  42  66 100 133 174 229 277 344 423
#     4  10  22  41  68  96 130 174 225 276 354 414
#     4   9  22  44  67  92 130 180 235 280 341 403
#     4  11  23  41  66  99 134 177 223 278 343 404
#     4  10  23  46  67  96 139 185 227 290 337 413
#     4  10  26  43  68  98 132 173 234 280 347 422
#     4  12  26  41  70 104 136 184 237 278 360 412
#
# _framework density 21.23912
#
# number of rings (size 3 to 8) (size 9 to 14) (size 15 to 20)
#    0.000    1.714    1.429    0.857   10.000    2.857 
#   10.286    0.000    0.000    0.000    0.000    0.000 
#    0.000    0.000    0.000    0.000    0.000    0.000 
#
# Total GULP energy -155896.665480 kJ/mol
# GULP energy per Si atom -5567.738053 kJ/mol
# Density = 2.119078 g / cm^3
# Si number density = 21.239120 Si / 1000 Ang^3
#
#
#
# Elastic Constant Matrix: (Units=GPa)
#
#
# Indices 1 2 3 4 5 6 
#
# 1 112.4992 39.0352 29.0674 0.0000 7.7961 0.0000
# 2 39.0352 107.5444 24.7714 0.0000 -4.6733 0.0000
# 3 29.0674 24.7714 62.2144 0.0000 4.4374 0.0000
# 4 0.0000 0.0000 0.0000 30.0506 0.0000 -9.1857
# 5 7.7961 -4.6733 4.4374 0.0000 23.1003 0.0000
# 6 0.0000 0.0000 0.0000 -9.1857 0.0000 17.2858
#
#
#
# Elastic Compliance Matrix: (Units=1/GPa)
#
#
# Indices 1 2 3 4 5 6 
#
# 1 0.011279 -0.003421 -0.003636 0.000000 -0.003800 0.000000
# 2 -0.003421 0.011470 -0.003261 0.000000 0.004101 0.000000
# 3 -0.003636 -0.003261 0.019295 0.000000 -0.003139 0.000000
# 4 0.000000 0.000000 0.000000 0.039731 0.000000 0.021113
# 5 -0.003800 0.004101 -0.003139 0.000000 0.046005 0.000000
# 6 0.000000 0.000000 0.000000 0.021113 0.000000 0.069071
#
#
# Mechanical properties :
#
#
# Convention : Reuss Voigt Hill
#
# Bulk Modulus (GPa) = 46.71567 52.00066 49.35816
# Shear Modulus (GPa) = 22.25961 26.71294 24.48627
#
# Velocity S-wave (km/s) = 3.24087 3.55029 3.39910
# Velocity P-wave (km/s) = 6.00393 6.42982 6.22052
#
# Compressibility (1/GPa) = 0.02140609
#
# Stress axis : x y z
#
# Youngs Moduli (GPa) = 88.65983 87.18645 51.82802
#
# Poissons Ratio (x) = 0.29831 0.18847
# Poissons Ratio (y) = 0.30335 0.16900
# Poissons Ratio (z) = 0.32240 0.28429
#
# Static dielectric constant tensor:
#      x y z
#    x 1.860770 0.000000 0.106250 
#    y 0.000000 1.785040 0.000000 
#    z 0.106250 0.000000 2.038480 
# 
# From -- ./inp_files/81330.got.cif
#   From: 2010.05.17/outbox.cif.g08.bks.cpg/sg15_41_cif.got.tgz:81330.got - 2010.06.03 18:47:42.
