data_PCOD9290863
_publ_section_title
;
Structure prediction by ZEFSAII (Michael W. Deem and Ramdas Pophale) SiO2 
 PCOD9290863
Probable space group: C 2/C
;
_chemical_formula_sum "Si O2"
_cell_formula_units_Z 60
_cell_length_a 12.765527
_cell_length_b 16.271810
_cell_length_c 17.822793
_cell_angle_alpha 90.000000
_cell_angle_beta 46.349472
_cell_angle_gamma 90.000000
_cell_volume 2678.717888
_symmetry_space_group_name_H-M "C 2/C"
_symmetry_group_IT_number 15
_symmetry_cell_setting 'monoclinic'
loop_
_space_group_symop_operation_xyz
x,y,z
-x,y,1/2-z
-x,-y,-z
x,-y,1/2+z
1/2+x,1/2+y,z
1/2-x,1/2+y,1/2-z
1/2-x,1/2-y,-z
1/2+x,1/2-y,1/2+z
loop_
_atom_site_type_symbol
_atom_site_label
_atom_site_fract_x
_atom_site_fract_y
_atom_site_fract_z
Si Si1 0.319203 0.951392 0.037324
Si Si2 0.131858 0.619491 0.414896
Si Si3 0.527901 0.266993 0.937520
Si Si4 0.065807 0.110805 0.298269
Si Si5 0.756652 0.121966 0.080614
Si Si6 0.000000 0.741041 0.250000
Si Si7 0.868355 0.014665 0.622003
Si Si8 0.286459 0.350326 0.266673
O O1 0.485540 0.918583 0.951314
O O2 0.239430 0.917465 0.003505
O O3 0.251827 0.913142 0.146265
O O4 0.321346 0.049487 0.047975
O O5 0.263890 0.632374 0.293042
O O6 0.089688 0.705784 0.471942
O O7 0.608292 0.320775 0.961759
O O8 0.308194 0.397741 0.177470
O O9 0.649133 0.210113 0.837744
O O10 0.000000 0.115441 0.250000
O O11 0.981714 0.168570 0.397560
O O12 0.068306 0.021062 0.332012
O O13 0.621122 0.182625 0.154424
O O14 0.750650 0.047408 0.144108
O O15 0.924324 0.797974 0.225074
O O16 0.000000 0.000000 0.500000
#
# Coordination Sequence:
#
# PCOD9290863 Si02
#       8
#     8   8   8   8   8   4   8   8
#     4  10  22  41  72  99 133 182 229 277 340 413
#     4  10  22  41  72  95 137 177 230 275 334 413
#     4   9  23  44  62 103 136 175 222 284 335 396
#     4  11  25  45  69  91 136 183 223 269 343 409
#     4  10  24  43  65 107 137 177 225 288 347 395
#     4  10  24  38  70 102 140 176 226 280 346 406
#     4  11  26  43  65  95 137 175 225 284 339 407
#     4  10  22  42  65  98 134 177 223 275 341 406
#
# _framework density 22.398775000000001
#
# number of rings (size 3 to 8) (size 9 to 14) (size 15 to 20)
#    0.000    1.867    1.333    0.000   10.267    7.467 
#    4.800    0.000    0.000    0.000    0.000    0.000 
#    0.000    0.000    0.000    0.000    0.000    0.000 
#
# Total GULP energy -167706.677981 kJ/mol
# GULP energy per Si atom -5590.222599 kJ/mol
# Density = 2.234779 g / cm^3
# Si number density = 22.398775 Si / 1000 Ang^3
#
#
#
# Elastic Constant Matrix: (Units=GPa)
#
#
# Indices 1 2 3 4 5 6 
#
# 1 56.0581 18.1543 22.5240 0.0000 11.4522 0.0000
# 2 18.1543 94.8044 21.8152 0.0000 1.7655 0.0000
# 3 22.5240 21.8152 81.8913 0.0000 0.2816 0.0000
# 4 0.0000 0.0000 0.0000 45.9138 0.0000 6.2523
# 5 11.4522 1.7655 0.2816 0.0000 23.8690 0.0000
# 6 0.0000 0.0000 0.0000 6.2523 0.0000 29.7072
#
#
#
# Elastic Compliance Matrix: (Units=1/GPa)
#
#
# Indices 1 2 3 4 5 6 
#
# 1 0.023260 -0.002970 -0.005569 0.000000 -0.010874 0.000000
# 2 -0.002970 0.011631 -0.002284 0.000000 0.000592 0.000000
# 3 -0.005569 -0.002284 0.014342 0.000000 0.002672 0.000000
# 4 0.000000 0.000000 0.000000 0.022423 0.000000 -0.004719
# 5 -0.010874 0.000592 0.002672 0.000000 0.047038 0.000000
# 6 0.000000 0.000000 0.000000 -0.004719 0.000000 0.034655
#
#
# Mechanical properties :
#
#
# Convention : Reuss Voigt Hill
#
# Bulk Modulus (GPa) = 36.24781 39.74897 37.99839
# Shear Modulus (GPa) = 27.14596 31.24867 29.19732
#
# Velocity S-wave (km/s) = 3.48507 3.73916 3.61435
# Velocity P-wave (km/s) = 5.69318 6.03543 5.86680
#
# Compressibility (1/GPa) = 0.02758787
#
# Stress axis : x y z
#
# Youngs Moduli (GPa) = 42.99297 85.97544 69.72445
#
# Poissons Ratio (x) = 0.25535 0.38829
# Poissons Ratio (y) = 0.12769 0.15922
# Poissons Ratio (z) = 0.23942 0.19633
#
# Static dielectric constant tensor:
#      x y z
#    x 1.836090 0.000000 -0.030970 
#    y 0.000000 1.870330 0.000000 
#    z -0.030970 0.000000 1.843180 
# 
# From -- ./inp_files/244363.got.cif
#   From: 2010.05.17/outbox.cif.g08.bks.cpg/sg15_123_cif.got.tgz:244363.got - 2010.06.03 18:47:42.
