data_PCOD9290810
_publ_section_title
;
Structure prediction by ZEFSAII (Michael W. Deem and Ramdas Pophale) SiO2 
 PCOD9290810
Probable space group: C 2/C
;
_chemical_formula_sum "Si O2"
_cell_formula_units_Z 60
_cell_length_a 15.576768
_cell_length_b 29.476276
_cell_length_c 10.777657
_cell_angle_alpha 90.000000
_cell_angle_beta 148.167091
_cell_angle_gamma 90.000000
_cell_volume 2610.060453
_symmetry_space_group_name_H-M "C 2/C"
_symmetry_group_IT_number 15
_symmetry_cell_setting 'monoclinic'
loop_
_space_group_symop_operation_xyz
x,y,z
-x,y,1/2-z
-x,-y,-z
x,-y,1/2+z
1/2+x,1/2+y,z
1/2-x,1/2+y,1/2-z
1/2-x,1/2-y,-z
1/2+x,1/2-y,1/2+z
loop_
_atom_site_type_symbol
_atom_site_label
_atom_site_fract_x
_atom_site_fract_y
_atom_site_fract_z
Si Si1 0.913699 0.902025 0.952906
Si Si2 0.041758 0.805566 0.444270
Si Si3 0.779615 0.073318 0.550310
Si Si4 0.102402 0.515062 0.747078
Si Si5 0.340134 0.202986 0.638196
Si Si6 0.809605 0.395762 0.050948
Si Si7 0.588617 0.209898 0.151107
Si Si8 0.000000 0.361338 0.750000
O O1 0.791507 0.913098 0.692363
O O2 0.988111 0.852071 0.021076
O O3 0.822031 0.900314 0.973615
O O4 0.066120 0.933393 0.171428
O O5 0.235447 0.795990 0.696735
O O6 0.000000 0.813621 0.250000
O O7 0.931405 0.762732 0.341817
O O8 0.644827 0.103012 0.456310
O O9 0.722618 0.025460 0.427598
O O10 0.186295 0.564646 0.840881
O O11 0.000000 0.518403 0.750000
O O12 0.000000 0.500000 0.500000
O O13 0.500000 0.205229 0.750000
O O14 0.250000 0.250000 0.500000
O O15 0.249279 0.155081 0.507870
O O16 0.423663 0.200386 0.873971
O O17 0.000000 0.388644 0.250000
O O18 0.576419 0.173682 0.245773
#
# Coordination Sequence:
#
# PCOD9290810 Si02
#       8
#     8   8   8   8   8   8   8   4
#     4  11  22  42  66  97 137 177 229 274 349 409
#     4  12  22  39  60  96 134 171 224 279 336 409
#     4  11  23  40  67  98 136 176 219 285 341 404
#     4  11  24  43  73 106 137 179 237 285 341 416
#     4  11  24  45  66  92 127 179 223 269 330 397
#     4  10  22  41  70  96 129 182 227 274 334 419
#     4  12  25  38  63  93 131 171 225 276 338 401
#     4  12  24  38  64  98 130 172 216 280 342 402
#
# _framework density 22.987974999999999
#
# number of rings (size 3 to 8) (size 9 to 14) (size 15 to 20)
#    0.000    0.800    4.000    5.200    3.733    0.533 
#    2.400    0.000    2.933    0.000    0.000    0.000 
#    0.000    0.000    0.000    0.000    0.000    0.000 
#
# Total GULP energy -167428.962571 kJ/mol
# GULP energy per Si atom -5580.965419 kJ/mol
# Density = 2.293565 g / cm^3
# Si number density = 22.987975 Si / 1000 Ang^3
#
#
#
# Elastic Constant Matrix: (Units=GPa)
#
#
# Indices 1 2 3 4 5 6 
#
# 1 17.0892 10.4103 2.5915 0.0000 0.2184 0.0000
# 2 10.4103 162.8534 46.2639 0.0000 1.0458 0.0000
# 3 2.5915 46.2639 159.9384 0.0000 -16.0090 0.0000
# 4 0.0000 0.0000 0.0000 40.4670 0.0000 2.2377
# 5 0.2184 1.0458 -16.0090 0.0000 31.0716 0.0000
# 6 0.0000 0.0000 0.0000 2.2377 0.0000 19.3550
#
#
#
# Elastic Compliance Matrix: (Units=1/GPa)
#
#
# Indices 1 2 3 4 5 6 
#
# 1 0.060892 -0.003927 0.000126 0.000000 -0.000231 0.000000
# 2 -0.003927 0.006993 -0.002088 0.000000 -0.001283 0.000000
# 3 0.000126 -0.002088 0.007234 0.000000 0.003797 0.000000
# 4 0.000000 0.000000 0.000000 0.024871 0.000000 -0.002875
# 5 -0.000231 -0.001283 0.003797 0.000000 0.034185 0.000000
# 6 0.000000 0.000000 0.000000 -0.002875 0.000000 0.051999
#
#
# Mechanical properties :
#
#
# Convention : Reuss Voigt Hill
#
# Bulk Modulus (GPa) = 15.78709 50.93472 33.36090
# Shear Modulus (GPa) = 22.82435 36.88640 29.85538
#
# Velocity S-wave (km/s) = 3.15442 4.01009 3.60771
# Velocity P-wave (km/s) = 4.48883 6.60653 5.64783
#
# Compressibility (1/GPa) = 0.06334289
#
# Stress axis : x y z
#
# Youngs Moduli (GPa) = 16.42240 143.00430 138.23141
#
# Poissons Ratio (x) = 0.56156 -0.01743
# Poissons Ratio (y) = 0.06449 0.28857
# Poissons Ratio (z) = -0.00207 0.29853
#
# Static dielectric constant tensor:
#      x y z
#    x 1.867540 0.000000 0.105270 
#    y 0.000000 1.978710 0.000000 
#    z 0.105270 0.000000 1.728250 
# 
# From -- ./inp_files/108434.got.cif
#   From: 2010.05.17/outbox.cif.g08.bks.cpg/sg15_55_cif.got.tgz:108434.got - 2010.06.03 18:47:42.
