data_PCOD9290432
_publ_section_title
;
Structure prediction by ZEFSAII (Michael W. Deem and Ramdas Pophale) SiO2 
 PCOD9290432
Probable space group: C 2/C
;
_chemical_formula_sum "Si O2"
_cell_formula_units_Z 56
_cell_length_a 13.900565
_cell_length_b 19.643287
_cell_length_c 15.283817
_cell_angle_alpha 90.000000
_cell_angle_beta 145.383917
_cell_angle_gamma 90.000000
_cell_volume 2370.740132
_symmetry_space_group_name_H-M "C 2/C"
_symmetry_group_IT_number 15
_symmetry_cell_setting 'monoclinic'
loop_
_space_group_symop_operation_xyz
x,y,z
-x,y,1/2-z
-x,-y,-z
x,-y,1/2+z
1/2+x,1/2+y,z
1/2-x,1/2+y,1/2-z
1/2-x,1/2-y,-z
1/2+x,1/2-y,1/2+z
loop_
_atom_site_type_symbol
_atom_site_label
_atom_site_fract_x
_atom_site_fract_y
_atom_site_fract_z
Si Si1 0.318347 0.032459 0.099082
Si Si2 0.473098 0.599298 0.832332
Si Si3 0.314114 0.678759 0.077878
Si Si4 0.305649 0.987941 0.879449
Si Si5 0.160658 0.660246 0.146616
Si Si6 0.703530 0.201819 0.677768
Si Si7 0.168615 0.610373 0.822560
O O1 0.500000 0.068467 0.250000
O O2 0.329139 0.970463 0.176479
O O3 0.160258 0.080119 0.004643
O O4 0.301496 0.998798 0.986011
O O5 0.500000 0.592560 0.750000
O O6 0.333510 0.542813 0.754555
O O7 0.382632 0.671553 0.779101
O O8 0.500000 0.684341 0.250000
O O9 0.191881 0.662863 0.065714
O O10 0.250000 0.750000 0.000000
O O11 0.319362 0.628667 0.000585
O O12 0.278270 0.918007 0.802989
O O13 0.500000 0.000000 0.000000
O O14 0.270492 0.718669 0.277653
O O15 0.959546 0.680358 0.004018
O O16 0.678066 0.157660 0.746689
O O17 0.000000 0.629540 0.750000
#
# Coordination Sequence:
#
# PCOD9290432 Si02
#       7
#     8   8   8   8   8   8   8
#     4  10  22  41  66 100 132 169 224 282 336 394
#     4  10  25  47  71  95 132 181 230 283 333 398
#     4  12  22  34  55  89 133 172 205 252 326 399
#     4  11  22  43  71  93 131 179 225 272 335 402
#     4  12  24  40  63  98 134 175 225 270 332 402
#     4  12  25  43  64 100 136 178 221 274 339 400
#     4  11  21  37  61  94 139 169 204 268 330 407
#
# _framework density 23.621314000000002
#
# number of rings (size 3 to 8) (size 9 to 14) (size 15 to 20)
#    0.000    0.857    5.714    2.143    2.000    0.571 
#    2.571    0.714    0.000    0.000    0.000    0.000 
#    0.000    0.000    0.000    0.000    0.000    0.000 
#
# Total GULP energy -156038.375748 kJ/mol
# GULP energy per Si atom -5572.799134 kJ/mol
# Density = 2.356755 g / cm^3
# Si number density = 23.621314 Si / 1000 Ang^3
#
#
#
# Elastic Constant Matrix: (Units=GPa)
#
#
# Indices 1 2 3 4 5 6 
#
# 1 67.5580 9.9684 7.3165 0.0000 19.5545 0.0000
# 2 9.9684 84.5505 3.4286 -0.0001 3.8958 0.0000
# 3 7.3165 3.4286 107.8797 0.0001 14.5852 0.0000
# 4 0.0000 -0.0001 0.0001 14.3377 0.0001 1.5278
# 5 19.5545 3.8958 14.5852 0.0001 28.5894 0.0000
# 6 0.0000 0.0000 0.0000 1.5278 0.0000 24.7906
#
#
#
# Elastic Compliance Matrix: (Units=1/GPa)
#
#
# Indices 1 2 3 4 5 6 
#
# 1 0.018702 -0.001635 0.000519 0.000000 -0.012833 0.000000
# 2 -0.001635 0.012048 -0.000216 0.000000 -0.000413 0.000000
# 3 0.000519 -0.000216 0.009973 0.000000 -0.005413 0.000000
# 4 0.000000 0.000000 0.000000 0.070207 0.000000 -0.004327
# 5 -0.012833 -0.000413 -0.005413 0.000000 0.046573 0.000000
# 6 0.000000 0.000000 0.000000 -0.004327 0.000000 0.040604
#
#
# Mechanical properties :
#
#
# Convention : Reuss Voigt Hill
#
# Bulk Modulus (GPa) = 26.27547 33.49057 29.88302
# Shear Modulus (GPa) = 23.42381 29.49520 26.45951
#
# Velocity S-wave (km/s) = 3.15245 3.53748 3.35050
# Velocity P-wave (km/s) = 4.93947 5.55823 5.25796
#
# Compressibility (1/GPa) = 0.03805831
#
# Stress axis : x y z
#
# Youngs Moduli (GPa) = 53.47115 83.00277 100.26939
#
# Poissons Ratio (x) = 0.13568 -0.05200
# Poissons Ratio (y) = 0.08741 0.02167
# Poissons Ratio (z) = -0.02773 0.01794
#
# Static dielectric constant tensor:
#      x y z
#    x 1.945300 0.000000 -0.021780 
#    y 0.000000 1.967730 0.000000 
#    z -0.021780 0.000000 1.902590 
# 
# From -- ./inp_files/206964.got.cif
#   From: 2010.05.17/outbox.cif.g08.bks.cpg/sg15_104_cif.got.tgz:206964.got - 2010.06.03 18:47:42.
