data_PCOD9290648
_publ_section_title
;
Structure prediction by ZEFSAII (Michael W. Deem and Ramdas Pophale) SiO2 
 PCOD9290648
Probable space group: C 2/C
;
_chemical_formula_sum "Si O2"
_cell_formula_units_Z 40
_cell_length_a 15.707822
_cell_length_b 4.895320
_cell_length_c 22.795934
_cell_angle_alpha 90.000000
_cell_angle_beta 102.941499
_cell_angle_gamma 90.000000
_cell_volume 1708.364416
_symmetry_space_group_name_H-M "C 2/C"
_symmetry_group_IT_number 15
_symmetry_cell_setting 'monoclinic'
loop_
_space_group_symop_operation_xyz
x,y,z
-x,y,1/2-z
-x,-y,-z
x,-y,1/2+z
1/2+x,1/2+y,z
1/2-x,1/2+y,1/2-z
1/2-x,1/2-y,-z
1/2+x,1/2-y,1/2+z
loop_
_atom_site_type_symbol
_atom_site_label
_atom_site_fract_x
_atom_site_fract_y
_atom_site_fract_z
Si Si1 0.380819 0.941911 0.471912
Si Si2 0.300475 0.651096 0.241508
Si Si3 0.392933 0.426459 0.870366
Si Si4 0.423929 0.580689 0.054013
Si Si5 0.770000 0.787520 0.606688
O O1 0.396835 0.859768 0.406288
O O2 0.385571 0.680205 0.514344
O O3 0.437289 0.194512 0.504827
O O4 0.281219 0.040421 0.450141
O O5 0.220370 0.470923 0.254421
O O6 0.377570 0.587558 0.298629
O O7 0.300487 0.580357 0.173091
O O8 0.489735 0.526627 0.900156
O O9 0.306382 0.573593 0.884939
O O10 0.361714 0.753705 0.088109
#
# Coordination Sequence:
#
# PCOD9290648 Si02
#       5
#     8   8   8   8   8
#     4  12  24  44  65  97 134 172 211 270 329 392
#     4  10  22  41  68  91 124 172 216 260 321 379
#     4  11  25  44  68  95 131 174 218 269 327 389
#     4  12  28  39  67 100 132 168 219 268 327 392
#     4  11  25  44  68  95 131 174 218 269 327 389
#
# _framework density 23.414207000000001
#
# number of rings (size 3 to 8) (size 9 to 14) (size 15 to 20)
#    0.000    0.800    4.000    2.400    5.600    0.800 
#    0.000    0.000    0.000    4.800    0.000    0.000 
#    0.000    0.000    0.000    0.000    0.000    0.000 
#
# Total GULP energy -111422.508146 kJ/mol
# GULP energy per Si atom -5571.125407 kJ/mol
# Density = 2.336091 g / cm^3
# Si number density = 23.414207 Si / 1000 Ang^3
#
#
#
# Elastic Constant Matrix: (Units=GPa)
#
#
# Indices 1 2 3 4 5 6 
#
# 1 84.8199 16.5461 57.7758 0.0000 9.6445 0.0000
# 2 16.5461 93.1327 47.9375 0.0000 12.1005 0.0001
# 3 57.7758 47.9375 204.0613 0.0000 43.9201 0.0000
# 4 0.0000 0.0000 0.0000 28.2609 0.0000 -1.0620
# 5 9.6445 12.1005 43.9201 0.0000 32.3516 0.0000
# 6 0.0000 0.0001 0.0000 -1.0620 0.0000 17.3804
#
#
#
# Elastic Compliance Matrix: (Units=1/GPa)
#
#
# Indices 1 2 3 4 5 6 
#
# 1 0.014706 -0.000574 -0.004424 0.000000 0.001837 0.000000
# 2 -0.000574 0.012257 -0.002496 0.000000 -0.001024 0.000000
# 3 -0.004424 -0.002496 0.008837 0.000000 -0.009744 0.000000
# 4 0.000000 0.000000 0.000000 0.035466 0.000000 0.002167
# 5 0.001837 -0.001024 -0.009744 0.000000 0.043974 0.000000
# 6 0.000000 0.000000 0.000000 0.002167 0.000000 0.057668
#
#
# Mechanical properties :
#
#
# Convention : Reuss Voigt Hill
#
# Bulk Modulus (GPa) = 48.05178 69.61474 58.83326
# Shear Modulus (GPa) = 25.66260 32.91556 29.28908
#
# Velocity S-wave (km/s) = 3.31422 3.75346 3.54066
# Velocity P-wave (km/s) = 5.93401 6.97001 6.47277
#
# Compressibility (1/GPa) = 0.02081089
#
# Stress axis : x y z
#
# Youngs Moduli (GPa) = 67.99720 81.58306 113.16309
#
# Poissons Ratio (x) = 0.04684 0.50067
# Poissons Ratio (y) = 0.03904 0.28251
# Poissons Ratio (z) = 0.30084 0.20367
#
# Static dielectric constant tensor:
#      x y z
#    x 2.046230 0.000000 0.000190 
#    y 0.000000 1.963470 0.000000 
#    z 0.000190 0.000000 1.887070 
# 
# From -- ./inp_files/271989.got.cif
#   From: 2010.05.17/outbox.cif.g08.bks.cpg/sg15_136_cif.got.tgz:271989.got - 2010.06.03 18:47:42.
