data_PCOD9290811
_publ_section_title
;
Structure prediction by ZEFSAII (Michael W. Deem and Ramdas Pophale) SiO2 
 PCOD9290811
Probable space group: C 2/C
;
_chemical_formula_sum "Si O2"
_cell_formula_units_Z 64
_cell_length_a 23.651067
_cell_length_b 11.164361
_cell_length_c 12.025447
_cell_angle_alpha 90.000000
_cell_angle_beta 65.464952
_cell_angle_gamma 90.000000
_cell_volume 2888.601154
_symmetry_space_group_name_H-M "C 2/C"
_symmetry_group_IT_number 15
_symmetry_cell_setting 'monoclinic'
loop_
_space_group_symop_operation_xyz
x,y,z
-x,y,1/2-z
-x,-y,-z
x,-y,1/2+z
1/2+x,1/2+y,z
1/2-x,1/2+y,1/2-z
1/2-x,1/2-y,-z
1/2+x,1/2-y,1/2+z
loop_
_atom_site_type_symbol
_atom_site_label
_atom_site_fract_x
_atom_site_fract_y
_atom_site_fract_z
Si Si1 0.268837 0.711838 0.213858
Si Si2 0.455109 0.266572 0.615296
Si Si3 0.623872 0.340239 0.022510
Si Si4 0.643851 0.898304 0.225395
Si Si5 0.067242 0.000909 0.250947
Si Si6 0.412977 0.318598 0.072095
Si Si7 0.692488 0.789540 0.972585
Si Si8 0.848646 0.322715 0.807070
O O1 0.307078 0.819701 0.241168
O O2 0.228686 0.645948 0.342069
O O3 0.214746 0.747629 0.172659
O O4 0.318542 0.635325 0.105681
O O5 0.433292 0.312310 0.511882
O O6 0.423084 0.140710 0.670338
O O7 0.426277 0.359499 0.728108
O O8 0.528823 0.282720 0.551282
O O9 0.612764 0.441678 0.123766
O O10 0.635684 0.218419 0.082030
O O11 0.658447 0.037732 0.209304
O O12 0.649172 0.860630 0.091866
O O13 0.074435 0.937164 0.365553
O O14 0.000000 0.980103 0.250000
O O15 0.350048 0.311642 0.051081
O O16 0.401642 0.222480 0.179424
O O17 0.750000 0.750000 0.000000
#
# Coordination Sequence:
#
# PCOD9290811 Si02
#       8
#     8   8   8   8   8   8   8   8
#     4   9  20  44  65  94 128 176 230 280 337 414
#     4  11  24  41  65 101 139 174 229 281 351 418
#     4  10  22  42  65  96 131 176 229 279 352 409
#     4  10  23  42  64  98 138 174 225 289 344 410
#     4  11  23  41  68  98 138 176 224 292 338 417
#     4  10  22  41  70  96 131 181 227 282 346 409
#     4   9  20  41  64  92 135 171 222 280 333 407
#     4  10  22  43  68  92 134 178 230 290 336 414
#
# _framework density 22.156053
#
# number of rings (size 3 to 8) (size 9 to 14) (size 15 to 20)
#    0.000    2.000    1.250    0.750    1.750    4.500 
#   27.000    1.250    0.000    0.000    0.000    0.000 
#    0.000    0.000    0.000    0.000    0.000    0.000 
#
# Total GULP energy -178503.885340 kJ/mol
# GULP energy per Si atom -5578.246417 kJ/mol
# Density = 2.210562 g / cm^3
# Si number density = 22.156053 Si / 1000 Ang^3
#
#
#
# Elastic Constant Matrix: (Units=GPa)
#
#
# Indices 1 2 3 4 5 6 
#
# 1 102.6655 30.8076 41.7473 0.0000 10.3981 0.0000
# 2 30.8076 59.3795 27.6543 0.0000 4.8102 0.0000
# 3 41.7473 27.6543 104.3476 0.0000 -0.4250 0.0000
# 4 0.0000 0.0000 0.0000 17.3522 0.0000 4.0564
# 5 10.3981 4.8102 -0.4250 0.0000 38.8262 0.0000
# 6 0.0000 0.0000 0.0000 4.0564 0.0000 16.2561
#
#
#
# Elastic Compliance Matrix: (Units=1/GPa)
#
#
# Indices 1 2 3 4 5 6 
#
# 1 0.013072 -0.004678 -0.004002 0.000000 -0.002965 0.000000
# 2 -0.004678 0.021119 -0.003731 0.000000 -0.001405 0.000000
# 3 -0.004002 -0.003731 0.012180 0.000000 0.001667 0.000000
# 4 0.000000 0.000000 0.000000 0.061200 0.000000 -0.015271
# 5 -0.002965 -0.001405 0.001667 0.000000 0.026742 0.000000
# 6 0.000000 0.000000 0.000000 -0.015271 0.000000 0.065326
#
#
# Mechanical properties :
#
#
# Convention : Reuss Voigt Hill
#
# Bulk Modulus (GPa) = 46.40634 51.86789 49.13711
# Shear Modulus (GPa) = 21.58478 25.56578 23.57528
#
# Velocity S-wave (km/s) = 3.12463 3.40059 3.26553
# Velocity P-wave (km/s) = 5.83168 6.23536 6.03689
#
# Compressibility (1/GPa) = 0.02154878
#
# Stress axis : x y z
#
# Youngs Moduli (GPa) = 76.50062 47.34987 82.10077
#
# Poissons Ratio (x) = 0.22150 0.32857
# Poissons Ratio (y) = 0.35787 0.30634
# Poissons Ratio (z) = 0.30616 0.17667
#
# Static dielectric constant tensor:
#      x y z
#    x 1.892020 0.000000 0.008720 
#    y 0.000000 1.813100 0.000000 
#    z 0.008720 0.000000 1.872680 
# 
# From -- ./inp_files/117983.got.cif
#   From: 2010.05.17/outbox.cif.g08.bks.cpg/sg15_59_cif.got.tgz:117983.got - 2010.06.03 18:47:42.
