data_PCOD9290991
_publ_section_title
;
Structure prediction by ZEFSAII (Michael W. Deem and Ramdas Pophale) SiO2 
 PCOD9290991
Probable space group: C 2/C
;
_chemical_formula_sum "Si O2"
_cell_formula_units_Z 52
_cell_length_a 14.560052
_cell_length_b 12.260778
_cell_length_c 15.155159
_cell_angle_alpha 90.000000
_cell_angle_beta 67.851588
_cell_angle_gamma 90.000000
_cell_volume 2505.827147
_symmetry_space_group_name_H-M "C 2/C"
_symmetry_group_IT_number 15
_symmetry_cell_setting 'monoclinic'
loop_
_space_group_symop_operation_xyz
x,y,z
-x,y,1/2-z
-x,-y,-z
x,-y,1/2+z
1/2+x,1/2+y,z
1/2-x,1/2+y,1/2-z
1/2-x,1/2-y,-z
1/2+x,1/2-y,1/2+z
loop_
_atom_site_type_symbol
_atom_site_label
_atom_site_fract_x
_atom_site_fract_y
_atom_site_fract_z
Si Si1 0.948477 0.096354 0.076274
Si Si2 0.769327 0.501773 0.830046
Si Si3 0.207262 0.901982 0.176266
Si Si4 0.015588 0.316691 0.961178
Si Si5 0.000000 0.968134 0.750000
Si Si6 0.607136 0.199986 0.252705
Si Si7 0.138717 0.498035 0.017898
O O1 0.833194 0.064208 0.122480
O O2 0.991324 0.095668 0.160626
O O3 0.965692 0.214025 0.026558
O O4 0.000000 0.000000 0.000000
O O5 0.750418 0.587133 0.759303
O O6 0.853793 0.421706 0.763300
O O7 0.806912 0.536426 0.912132
O O8 0.183771 0.775313 0.172064
O O9 0.280469 0.959616 0.081818
O O10 0.099826 0.959713 0.210708
O O11 0.090346 0.269341 0.860709
O O12 0.075992 0.396667 0.003781
O O13 0.935417 0.398169 0.944682
O O14 0.500000 0.212796 0.250000
#
# Coordination Sequence:
#
# PCOD9290991 Si02
#       7
#     8   8   8   8   4   8   8
#     4  11  24  44  68  97 135 176 224 274 332 398
#     4  11  24  42  65 100 128 169 227 271 330 390
#     4  11  23  42  65  96 130 171 217 274 324 393
#     4  11  24  44  63  97 134 177 219 269 333 399
#     4  10  22  42  62  94 134 170 214 270 336 382
#     4  12  23  41  68  96 131 174 224 271 330 395
#     4  11  24  43  67  95 135 172 221 274 328 395
#
# _framework density 20.751632000000001
#
# number of rings (size 3 to 8) (size 9 to 14) (size 15 to 20)
#    0.000    0.923    3.846    3.692    2.154    1.231 
#    8.308    2.308    0.000    0.000    0.000    0.000 
#    0.000    0.000    0.000    0.000    0.000    0.000 
#
# Total GULP energy -145284.328244 kJ/mol
# GULP energy per Si atom -5587.858779 kJ/mol
# Density = 2.070440 g / cm^3
# Si number density = 20.751632 Si / 1000 Ang^3
#
#
#
# Elastic Constant Matrix: (Units=GPa)
#
#
# Indices 1 2 3 4 5 6 
#
# 1 90.9802 12.1985 22.8600 0.0000 24.0956 0.0000
# 2 12.1985 38.5257 -16.3044 0.0000 0.3398 0.0000
# 3 22.8600 -16.3044 73.8110 0.0000 11.4989 0.0000
# 4 0.0000 0.0000 0.0000 26.6756 0.0000 -10.7941
# 5 24.0956 0.3398 11.4989 0.0000 41.0748 0.0000
# 6 0.0000 0.0000 0.0000 -10.7941 0.0000 20.7147
#
#
#
# Elastic Compliance Matrix: (Units=1/GPa)
#
#
# Indices 1 2 3 4 5 6 
#
# 1 0.015145 -0.006869 -0.005053 0.000000 -0.007413 0.000000
# 2 -0.006869 0.031923 0.008984 0.000000 0.001250 0.000000
# 3 -0.005053 0.008984 0.017407 0.000000 -0.001983 0.000000
# 4 0.000000 0.000000 0.000000 0.047504 0.000000 0.024753
# 5 -0.007413 0.001250 -0.001983 0.000000 0.029239 0.000000
# 6 0.000000 0.000000 0.000000 0.024753 0.000000 0.061173
#
#
# Mechanical properties :
#
#
# Convention : Reuss Voigt Hill
#
# Bulk Modulus (GPa) = 17.06503 26.75835 21.91169
# Shear Modulus (GPa) = 21.94914 29.99720 25.97317
#
# Velocity S-wave (km/s) = 3.25577 3.80614 3.54166
# Velocity P-wave (km/s) = 4.73019 5.67787 5.22556
#
# Compressibility (1/GPa) = 0.05859936
#
# Stress axis : x y z
#
# Youngs Moduli (GPa) = 66.02685 31.32572 57.44969
#
# Poissons Ratio (x) = 0.21516 0.29029
# Poissons Ratio (y) = 0.45351 -0.51613
# Poissons Ratio (z) = 0.33363 -0.28143
#
# Static dielectric constant tensor:
#      x y z
#    x 1.737580 0.000000 0.002730 
#    y 0.000000 1.715010 0.000000 
#    z 0.002730 0.000000 1.789770 
# 
# From -- ./inp_files/152573.got.cif
#   From: 2010.05.17/outbox.cif.g08.bks.cpg/sg15_77_cif.got.tgz:152573.got - 2010.06.03 18:47:42.
