data_PCOD9290232
_publ_section_title
;
Structure prediction by ZEFSAII (Michael W. Deem and Ramdas Pophale) SiO2 
 PCOD9290232
Probable space group: C 2/C
;
_chemical_formula_sum "Si O2"
_cell_formula_units_Z 52
_cell_length_a 28.375234
_cell_length_b 9.811885
_cell_length_c 8.796771
_cell_angle_alpha 90.000000
_cell_angle_beta 63.850368
_cell_angle_gamma 90.000000
_cell_volume 2198.469059
_symmetry_space_group_name_H-M "C 2/C"
_symmetry_group_IT_number 15
_symmetry_cell_setting 'monoclinic'
loop_
_space_group_symop_operation_xyz
x,y,z
-x,y,1/2-z
-x,-y,-z
x,-y,1/2+z
1/2+x,1/2+y,z
1/2-x,1/2+y,1/2-z
1/2-x,1/2-y,-z
1/2+x,1/2-y,1/2+z
loop_
_atom_site_type_symbol
_atom_site_label
_atom_site_fract_x
_atom_site_fract_y
_atom_site_fract_z
Si Si1 0.000000 0.421825 0.750000
Si Si2 0.351251 0.772345 0.702995
Si Si3 0.545617 0.391740 0.890734
Si Si4 0.382881 0.430959 0.429125
Si Si5 0.774826 0.402120 0.002362
Si Si6 0.218930 0.090920 0.871064
Si Si7 0.463776 0.164808 0.997406
O O1 0.031415 0.520197 0.591478
O O2 0.034907 0.339918 0.819482
O O3 0.361344 0.662428 0.823273
O O4 0.329039 0.897821 0.833877
O O5 0.308498 0.732746 0.635254
O O6 0.406489 0.782540 0.541805
O O7 0.581244 0.457141 0.708599
O O8 0.500000 0.500000 0.000000
O O9 0.581145 0.367183 0.989675
O O10 0.514061 0.257022 0.888521
O O11 0.331508 0.492662 0.584506
O O12 0.740423 0.530457 0.995769
O O13 0.750000 0.250000 0.000000
O O14 0.769257 0.413239 0.189362
#
# Coordination Sequence:
#
# PCOD9290232 Si02
#       7
#     4   8   8   8   8   8   8
#     4  10  26  46  64  84 138 192 216 268 304 410
#     4  11  23  40  70  92 130 175 219 279 336 394
#     4  12  24  36  66 109 136 167 211 283 339 394
#     4  12  21  37  64 103 137 166 208 273 356 387
#     4  10  22  41  64  88 129 169 208 278 331 390
#     4  11  20  41  64  94 127 165 220 274 331 389
#     4  11  24  45  66  94 136 176 230 261 330 396
#
# _framework density 23.652823999999999
#
# number of rings (size 3 to 8) (size 9 to 14) (size 15 to 20)
#    0.000    0.923    6.154    1.385    4.308    1.231 
#    0.000    3.077    0.000    0.000    0.000    0.000 
#    0.000    0.000    0.000    0.000    0.000    0.000 
#
# Total GULP energy -144971.290333 kJ/mol
# GULP energy per Si atom -5575.818859 kJ/mol
# Density = 2.359899 g / cm^3
# Si number density = 23.652824 Si / 1000 Ang^3
#
#
#
# Elastic Constant Matrix: (Units=GPa)
#
#
# Indices 1 2 3 4 5 6 
#
# 1 68.6721 19.0087 19.7103 0.0000 -3.9398 0.0000
# 2 19.0087 32.6441 18.4557 0.0000 -1.8933 0.0000
# 3 19.7103 18.4557 78.5468 0.0000 -4.4151 0.0000
# 4 0.0000 0.0000 0.0000 46.5662 0.0000 -0.2642
# 5 -3.9398 -1.8933 -4.4151 0.0000 41.0839 0.0000
# 6 0.0000 0.0000 0.0000 -0.2642 0.0000 22.9290
#
#
#
# Elastic Compliance Matrix: (Units=1/GPa)
#
#
# Indices 1 2 3 4 5 6 
#
# 1 0.017767 -0.008993 -0.002287 0.000000 0.001044 0.000000
# 2 -0.008993 0.039900 -0.007107 0.000000 0.000213 0.000000
# 3 -0.002287 -0.007107 0.015035 0.000000 0.001069 0.000000
# 4 0.000000 0.000000 0.000000 0.021476 0.000000 0.000247
# 5 0.001044 0.000213 0.001069 0.000000 0.024565 0.000000
# 6 0.000000 0.000000 0.000000 0.000247 0.000000 0.043616
#
#
# Mechanical properties :
#
#
# Convention : Reuss Voigt Hill
#
# Bulk Modulus (GPa) = 27.83168 32.69029 30.26098
# Shear Modulus (GPa) = 23.68456 30.29506 26.98981
#
# Velocity S-wave (km/s) = 3.16783 3.58274 3.38166
# Velocity P-wave (km/s) = 5.01722 5.56467 5.29802
#
# Compressibility (1/GPa) = 0.03593028
#
# Stress axis : x y z
#
# Youngs Moduli (GPa) = 56.28293 25.06276 66.51145
#
# Poissons Ratio (x) = 0.22538 0.15211
# Poissons Ratio (y) = 0.50613 0.47267
# Poissons Ratio (z) = 0.12871 0.17811
#
# Static dielectric constant tensor:
#      x y z
#    x 1.965510 0.000000 -0.058410 
#    y 0.000000 1.969210 0.000000 
#    z -0.058410 0.000000 1.932610 
# 
# From -- ./inp_files/69020.got.cif
#   From: 2010.05.17/outbox.cif.g08.bks.cpg/sg15_35_cif.got.tgz:69020.got - 2010.06.03 18:47:42.
