data_PCOD9290228
_publ_section_title
;
Structure prediction by ZEFSAII (Michael W. Deem and Ramdas Pophale) SiO2 
 PCOD9290228
Probable space group: C 2/C
;
_chemical_formula_sum "Si O2"
_cell_formula_units_Z 48
_cell_length_a 5.029622
_cell_length_b 28.398724
_cell_length_c 16.674859
_cell_angle_alpha 90.000000
_cell_angle_beta 87.953990
_cell_angle_gamma 90.000000
_cell_volume 2380.232519
_symmetry_space_group_name_H-M "C 2/C"
_symmetry_group_IT_number 15
_symmetry_cell_setting 'monoclinic'
loop_
_space_group_symop_operation_xyz
x,y,z
-x,y,1/2-z
-x,-y,-z
x,-y,1/2+z
1/2+x,1/2+y,z
1/2-x,1/2+y,1/2-z
1/2-x,1/2-y,-z
1/2+x,1/2-y,1/2+z
loop_
_atom_site_type_symbol
_atom_site_label
_atom_site_fract_x
_atom_site_fract_y
_atom_site_fract_z
Si Si1 0.500749 0.588033 0.654774
Si Si2 0.486368 0.148301 0.846318
Si Si3 0.484826 0.245383 0.558741
Si Si4 0.749375 0.498349 0.440867
Si Si5 0.245344 0.576776 0.193447
Si Si6 0.744571 0.683613 0.305805
O O1 0.500000 0.577828 0.750000
O O2 0.800544 0.606811 0.633734
O O3 0.337570 0.546134 0.613720
O O4 0.314594 0.632195 0.637169
O O5 0.500000 0.156650 0.750000
O O6 0.525965 0.195594 0.895458
O O7 0.750000 0.250000 0.500000
O O8 0.392316 0.284052 0.625612
O O9 0.250000 0.250000 0.500000
O O10 0.500000 0.500000 0.500000
O O11 0.746502 0.543181 0.382710
O O12 0.000000 0.500000 0.500000
O O13 0.500000 0.573999 0.250000
O O14 0.187079 0.630611 0.166500
O O15 0.000000 0.560706 0.250000
O O16 0.500000 0.676104 0.250000
O O17 0.000000 0.701512 0.250000
#
# Coordination Sequence:
#
# PCOD9290228 Si02
#       6
#     8   8   8   8   8   8
#     4  10  22  41  64  89 121 166 215 258 307 378
#     4  10  22  41  64  88 120 167 216 258 306 379
#     4  12  25  39  62  97 132 165 204 265 333 384
#     4  12  25  39  62  95 128 161 198 257 325 378
#     4  10  22  42  66  89 118 164 216 260 305 370
#     4  10  22  42  66  88 117 163 213 256 302 369
#
# _framework density 20.166098000000002
#
# number of rings (size 3 to 8) (size 9 to 14) (size 15 to 20)
#    0.000    1.333    0.000    5.000    0.000    8.000 
#    0.000    0.000    0.000    0.000    0.000    0.000 
#    0.000    0.000    0.000    0.000    0.000    0.000 
#
# Total GULP energy -133628.113670 kJ/mol
# GULP energy per Si atom -5567.838070 kJ/mol
# Density = 2.012020 g / cm^3
# Si number density = 20.166098 Si / 1000 Ang^3
#
#
#
# Elastic Constant Matrix: (Units=GPa)
#
#
# Indices 1 2 3 4 5 6 
#
# 1 168.3937 26.5721 55.0987 0.0000 -4.1563 0.0000
# 2 26.5721 100.2586 83.4457 0.0000 2.2359 0.0000
# 3 55.0987 83.4457 104.6694 0.0000 6.0233 0.0000
# 4 0.0000 0.0000 0.0000 3.5396 0.0000 9.5986
# 5 -4.1563 2.2359 6.0233 0.0000 49.5628 0.0000
# 6 0.0000 0.0000 0.0000 9.5986 0.0000 31.1610
#
#
#
# Elastic Compliance Matrix: (Units=1/GPa)
#
#
# Indices 1 2 3 4 5 6 
#
# 1 0.007756 0.004094 -0.007425 0.000000 0.001368 0.000000
# 2 0.004094 0.031924 -0.027737 0.000000 0.002274 0.000000
# 3 -0.007425 -0.027737 0.035789 0.000000 -0.003721 0.000000
# 4 0.000000 0.000000 0.000000 1.715632 0.000000 -0.528471
# 5 0.001368 0.002274 -0.003721 0.000000 0.020641 0.000000
# 6 0.000000 0.000000 0.000000 -0.528471 0.000000 0.194878
#
#
# Mechanical properties :
#
#
# Convention : Reuss Voigt Hill
#
# Bulk Modulus (GPa) = 75.00181 78.17275 76.58728
# Shear Modulus (GPa) = 2.41173 30.73301 16.57237
#
# Velocity S-wave (km/s) = 1.09477 3.90807 2.86980
# Velocity P-wave (km/s) = 6.23465 7.69497 7.00298
#
# Compressibility (1/GPa) = 0.01333301
#
# Stress axis : x y z
#
# Youngs Moduli (GPa) = 128.93603 31.32472 27.94138
#
# Poissons Ratio (x) = -0.12825 0.20747
# Poissons Ratio (y) = -0.52788 0.77500
# Poissons Ratio (z) = 0.95740 0.86884
#
# Static dielectric constant tensor:
#      x y z
#    x 1.666860 0.000000 -0.011310 
#    y 0.000000 2.280070 0.000000 
#    z -0.011310 0.000000 1.622450 
# 
# From -- ./inp_files/130064.got.cif
#   From: 2010.05.17/outbox.cif.g08.bks.cpg/sg15_66_cif.got.tgz:130064.got - 2010.06.03 18:47:42.
