data_PCOD9290993
_publ_section_title
;
Structure prediction by ZEFSAII (Michael W. Deem and Ramdas Pophale) SiO2 
 PCOD9290993
Probable space group: C 2/C
;
_chemical_formula_sum "Si O2"
_cell_formula_units_Z 64
_cell_length_a 11.222308
_cell_length_b 23.203826
_cell_length_c 12.727585
_cell_angle_alpha 90.000000
_cell_angle_beta 73.698753
_cell_angle_gamma 90.000000
_cell_volume 3181.032939
_symmetry_space_group_name_H-M "C 2/C"
_symmetry_group_IT_number 15
_symmetry_cell_setting 'monoclinic'
loop_
_space_group_symop_operation_xyz
x,y,z
-x,y,1/2-z
-x,-y,-z
x,-y,1/2+z
1/2+x,1/2+y,z
1/2-x,1/2+y,1/2-z
1/2-x,1/2-y,-z
1/2+x,1/2-y,1/2+z
loop_
_atom_site_type_symbol
_atom_site_label
_atom_site_fract_x
_atom_site_fract_y
_atom_site_fract_z
Si Si1 0.144475 0.823570 0.682882
Si Si2 0.733747 0.189048 0.947683
Si Si3 0.691042 0.079819 0.269258
Si Si4 0.579914 0.087293 0.071451
Si Si5 0.304526 0.609229 0.543849
Si Si6 0.950907 0.098367 0.881021
Si Si7 0.747010 0.001818 0.928506
Si Si8 0.147897 0.693021 0.726978
O O1 0.224645 0.863492 0.741435
O O2 0.168035 0.850401 0.563075
O O3 0.181177 0.756754 0.676564
O O4 0.000000 0.827543 0.750000
O O5 0.861916 0.153281 0.921886
O O6 0.691023 0.193010 0.837292
O O7 0.750000 0.250000 0.000000
O O8 0.629505 0.150163 0.029693
O O9 0.650538 0.069015 0.160780
O O10 0.564909 0.088334 0.367825
O O11 0.756155 0.026474 0.310968
O O12 0.626565 0.042361 0.972342
O O13 0.433406 0.597121 0.570126
O O14 0.247857 0.550613 0.510631
O O15 0.215987 0.643063 0.645664
O O16 0.000000 0.100327 0.750000
O O17 0.863882 0.042964 0.917702
O O18 0.000000 0.685987 0.750000
#
# Coordination Sequence:
#
# PCOD9290993 Si02
#       8
#     8   8   8   8   8   8   8   8
#     4  10  24  41  68  94 131 170 215 268 329 394
#     4  11  25  43  68  95 133 174 214 273 331 391
#     4  10  22  42  62  95 124 172 217 267 325 390
#     4  10  23  41  65  92 129 167 219 268 322 393
#     4  11  24  44  66  98 128 176 217 274 328 396
#     4  11  24  44  65  98 130 169 223 267 332 396
#     4  10  24  39  67  92 132 167 216 273 330 386
#     4  11  25  43  67  99 132 172 218 277 329 395
#
# _framework density 20.119250000000001
#
# number of rings (size 3 to 8) (size 9 to 14) (size 15 to 20)
#    0.000    1.500    1.250    1.875   12.250    3.000 
#    4.500    0.000    0.000    0.000    0.000    0.000 
#    0.000    0.000    0.000    0.000    0.000    0.000 
#
# Total GULP energy -178948.386435 kJ/mol
# GULP energy per Si atom -5592.137076 kJ/mol
# Density = 2.007346 g / cm^3
# Si number density = 20.119250 Si / 1000 Ang^3
#
#
#
# Elastic Constant Matrix: (Units=GPa)
#
#
# Indices 1 2 3 4 5 6 
#
# 1 71.8289 33.6155 2.6626 0.0000 6.2191 0.0000
# 2 33.6155 143.6455 34.7644 0.0000 -5.1561 0.0000
# 3 2.6626 34.7644 63.1383 0.0000 3.6496 0.0000
# 4 0.0000 0.0000 0.0000 17.4673 0.0000 -6.1451
# 5 6.2191 -5.1561 3.6496 0.0000 31.9362 0.0000
# 6 0.0000 0.0000 0.0000 -6.1451 0.0000 14.3594
#
#
#
# Elastic Compliance Matrix: (Units=1/GPa)
#
#
# Indices 1 2 3 4 5 6 
#
# 1 0.016283 -0.004441 0.001997 0.000000 -0.004116 0.000000
# 2 -0.004441 0.009349 -0.005132 0.000000 0.002961 0.000000
# 3 0.001997 -0.005132 0.018774 0.000000 -0.003363 0.000000
# 4 0.000000 0.000000 0.000000 0.067397 0.000000 0.028842
# 5 -0.004116 0.002961 -0.003363 0.000000 0.032976 0.000000
# 6 0.000000 0.000000 0.000000 0.028842 0.000000 0.081984
#
#
# Mechanical properties :
#
#
# Convention : Reuss Voigt Hill
#
# Bulk Modulus (GPa) = 34.18399 46.74417 40.46408
# Shear Modulus (GPa) = 19.86754 26.59059 23.22907
#
# Velocity S-wave (km/s) = 3.14584 3.63939 3.40158
# Velocity P-wave (km/s) = 5.49752 6.39877 5.96519
#
# Compressibility (1/GPa) = 0.02925346
#
# Stress axis : x y z
#
# Youngs Moduli (GPa) = 61.41403 106.96159 53.26550
#
# Poissons Ratio (x) = 0.47507 -0.10636
# Poissons Ratio (y) = 0.27277 0.27333
# Poissons Ratio (z) = -0.12263 0.54888
#
# Static dielectric constant tensor:
#      x y z
#    x 1.703690 0.000000 0.011020 
#    y 0.000000 1.689000 0.000000 
#    z 0.011020 0.000000 1.703960 
# 
# From -- ./inp_files/91253.got.cif
#   From: 2010.05.17/outbox.cif.g08.bks.cpg/sg15_46_cif.got.tgz:91253.got - 2010.06.03 18:47:42.
