data_PCOD9290803
_publ_section_title
;
Structure prediction by ZEFSAII (Michael W. Deem and Ramdas Pophale) SiO2 
 PCOD9290803
Probable space group: C 2/C
;
_chemical_formula_sum "Si O2"
_cell_formula_units_Z 40
_cell_length_a 28.973332
_cell_length_b 7.302387
_cell_length_c 16.247067
_cell_angle_alpha 90.000000
_cell_angle_beta 149.404507
_cell_angle_gamma 90.000000
_cell_volume 1749.579200
_symmetry_space_group_name_H-M "C 2/C"
_symmetry_group_IT_number 15
_symmetry_cell_setting 'monoclinic'
loop_
_space_group_symop_operation_xyz
x,y,z
-x,y,1/2-z
-x,-y,-z
x,-y,1/2+z
1/2+x,1/2+y,z
1/2-x,1/2+y,1/2-z
1/2-x,1/2-y,-z
1/2+x,1/2-y,1/2+z
loop_
_atom_site_type_symbol
_atom_site_label
_atom_site_fract_x
_atom_site_fract_y
_atom_site_fract_z
Si Si1 0.843342 0.287587 0.691510
Si Si2 0.010455 0.970332 0.167373
Si Si3 0.132402 0.423125 0.513872
Si Si4 0.940380 0.604534 0.778727
Si Si5 0.327924 0.420918 0.339298
O O1 0.750000 0.250000 0.500000
O O2 0.877580 0.498003 0.746596
O O3 0.836735 0.202189 0.771592
O O4 0.919665 0.176119 0.759300
O O5 0.047623 0.175054 0.200369
O O6 0.000000 0.957585 0.250000
O O7 0.912174 0.940721 0.973609
O O8 0.105287 0.452703 0.378184
O O9 0.226074 0.510936 0.684276
O O10 0.151047 0.207064 0.550942
O O11 0.044000 0.465939 0.432396
#
# Coordination Sequence:
#
# PCOD9290803 Si02
#       5
#     8   8   8   8   8
#     4  12  27  41  69 104 136 172 225 281 331 388
#     4  11  25  45  70  96 135 181 220 273 336 396
#     4  10  22  41  70  93 133 174 227 267 328 404
#     4  10  22  48  65  96 135 179 219 274 336 392
#     4  11  24  44  65 105 129 176 229 269 337 393
#
# _framework density 22.862639000000001
#
# number of rings (size 3 to 8) (size 9 to 14) (size 15 to 20)
#    0.000    1.200    6.000    0.600    8.400    4.000 
#    3.600    0.000    0.000    0.000    0.000    0.000 
#    0.000    0.000    0.000    0.000    0.000    0.000 
#
# Total GULP energy -111798.834925 kJ/mol
# GULP energy per Si atom -5589.941746 kJ/mol
# Density = 2.281060 g / cm^3
# Si number density = 22.862639 Si / 1000 Ang^3
#
#
#
# Elastic Constant Matrix: (Units=GPa)
#
#
# Indices 1 2 3 4 5 6 
#
# 1 34.1673 8.6453 13.0450 0.0000 -4.3889 0.0000
# 2 8.6453 57.3365 19.7328 0.0000 18.0039 0.0000
# 3 13.0450 19.7328 197.7900 0.0000 12.2469 0.0000
# 4 0.0000 0.0000 0.0000 41.0790 0.0000 2.4466
# 5 -4.3889 18.0039 12.2469 0.0000 32.9385 0.0000
# 6 0.0000 0.0000 0.0000 2.4466 0.0000 18.4231
#
#
#
# Elastic Compliance Matrix: (Units=1/GPa)
#
#
# Indices 1 2 3 4 5 6 
#
# 1 0.033004 -0.007118 -0.002026 0.000000 0.009042 0.000000
# 2 -0.007118 0.022987 -0.001010 0.000000 -0.013137 0.000000
# 3 -0.002026 -0.001010 0.005397 0.000000 -0.001724 0.000000
# 4 0.000000 0.000000 0.000000 0.024537 0.000000 -0.003259
# 5 0.009042 -0.013137 -0.001724 0.000000 0.039386 0.000000
# 6 0.000000 0.000000 0.000000 -0.003259 0.000000 0.054712
#
#
# Mechanical properties :
#
#
# Convention : Reuss Voigt Hill
#
# Bulk Modulus (GPa) = 24.34386 41.34890 32.84638
# Shear Modulus (GPa) = 23.36152 35.01283 29.18717
#
# Velocity S-wave (km/s) = 3.20006 3.91761 3.57687
# Velocity P-wave (km/s) = 4.93202 6.21197 5.60863
#
# Compressibility (1/GPa) = 0.04107812
#
# Stress axis : x y z
#
# Youngs Moduli (GPa) = 30.29940 43.50262 185.28473
#
# Poissons Ratio (x) = 0.30966 0.37547
# Poissons Ratio (y) = 0.21568 0.18722
# Poissons Ratio (z) = 0.06140 0.04396
#
# Static dielectric constant tensor:
#      x y z
#    x 1.835420 0.000000 0.016030 
#    y 0.000000 1.930110 0.000000 
#    z 0.016030 0.000000 1.870370 
# 
# From -- ./inp_files/221961.got.cif
#   From: 2010.05.17/outbox.cif.g08.bks.cpg/sg15_111_cif.got.tgz:221961.got - 2010.06.03 18:47:42.
