data_PCOD9290480
_publ_section_title
;
Structure prediction by ZEFSAII (Michael W. Deem and Ramdas Pophale) SiO2 
 PCOD9290480
Probable space group: C 2/C
;
_chemical_formula_sum "Si O2"
_cell_formula_units_Z 40
_cell_length_a 28.106536
_cell_length_b 9.643091
_cell_length_c 22.884223
_cell_angle_alpha 90.000000
_cell_angle_beta 161.065888
_cell_angle_gamma 90.000000
_cell_volume 2012.558601
_symmetry_space_group_name_H-M "C 2/C"
_symmetry_group_IT_number 15
_symmetry_cell_setting 'monoclinic'
loop_
_space_group_symop_operation_xyz
x,y,z
-x,y,1/2-z
-x,-y,-z
x,-y,1/2+z
1/2+x,1/2+y,z
1/2-x,1/2+y,1/2-z
1/2-x,1/2-y,-z
1/2+x,1/2-y,1/2+z
loop_
_atom_site_type_symbol
_atom_site_label
_atom_site_fract_x
_atom_site_fract_y
_atom_site_fract_z
Si Si1 0.835524 0.491678 0.786545
Si Si2 0.401963 0.611924 0.723727
Si Si3 0.321875 0.235079 0.355311
Si Si4 0.776053 0.110551 0.455681
Si Si5 0.087528 0.085326 0.152416
O O1 0.752003 0.616684 0.720340
O O2 0.783640 0.341193 0.750342
O O3 0.807804 0.491723 0.685557
O O4 0.000000 0.500000 0.000000
O O5 0.321400 0.752047 0.650119
O O6 0.313076 0.557383 0.563724
O O7 0.406894 0.506703 0.783276
O O8 0.566550 0.639859 0.891812
O O9 0.247618 0.132430 0.316057
O O10 0.492510 0.275559 0.554268
O O11 0.000000 0.000000 0.000000
#
# Coordination Sequence:
#
# PCOD9290480 Si02
#       5
#     8   8   8   8   8
#     4  12  25  39  65  96 130 163 215 266 315 385
#     4  10  22  41  67  94 129 165 218 263 319 381
#     4  12  24  39  62  97 125 167 210 259 326 368
#     4  10  22  41  66  94 127 170 211 264 319 377
#     4  12  23  40  64  95 129 166 211 267 318 377
#
# _framework density 19.875198000000001
#
# number of rings (size 3 to 8) (size 9 to 14) (size 15 to 20)
#    0.000    0.800    6.000    1.200    2.800    0.000 
#    0.000    1.000    4.400    0.000    0.000    0.000 
#    0.000    0.000    0.000    0.000    0.000    0.000 
#
# Total GULP energy -111612.227714 kJ/mol
# GULP energy per Si atom -5580.611386 kJ/mol
# Density = 1.982996 g / cm^3
# Si number density = 19.875198 Si / 1000 Ang^3
#
#
#
# Elastic Constant Matrix: (Units=GPa)
#
#
# Indices 1 2 3 4 5 6 
#
# 1 121.9043 45.0103 51.8100 0.0000 -18.6874 0.0000
# 2 45.0103 76.8761 27.8503 0.0000 -27.4056 0.0000
# 3 51.8100 27.8503 82.7145 0.0000 -20.0312 0.0000
# 4 0.0000 0.0000 0.0000 37.8228 0.0000 5.9747
# 5 -18.6874 -27.4056 -20.0312 0.0000 36.2837 0.0000
# 6 0.0000 0.0000 0.0000 5.9747 0.0000 34.3835
#
#
#
# Elastic Compliance Matrix: (Units=1/GPa)
#
#
# Indices 1 2 3 4 5 6 
#
# 1 0.012823 -0.005596 -0.006432 0.000000 -0.001173 0.000000
# 2 -0.005596 0.020989 -0.000486 0.000000 0.012703 0.000000
# 3 -0.006432 -0.000486 0.017766 0.000000 0.006129 0.000000
# 4 0.000000 0.000000 0.000000 0.027185 0.000000 -0.004724
# 5 -0.001173 0.012703 0.006129 0.000000 0.039935 0.000000
# 6 0.000000 0.000000 0.000000 -0.004724 0.000000 0.029905
#
#
# Mechanical properties :
#
#
# Convention : Reuss Voigt Hill
#
# Bulk Modulus (GPa) = 37.66312 58.98180 48.32246
# Shear Modulus (GPa) = 27.40030 32.15297 29.77663
#
# Velocity S-wave (km/s) = 3.71700 4.02648 3.87483
# Velocity P-wave (km/s) = 6.11657 7.16640 6.66219
#
# Compressibility (1/GPa) = 0.02655118
#
# Stress axis : x y z
#
# Youngs Moduli (GPa) = 77.98429 47.64474 56.28635
#
# Poissons Ratio (x) = 0.26662 0.36203
# Poissons Ratio (y) = 0.43639 0.02733
# Poissons Ratio (z) = 0.50159 0.02313
#
# Static dielectric constant tensor:
#      x y z
#    x 1.733360 0.000000 0.061200 
#    y 0.000000 1.709780 0.000000 
#    z 0.061200 0.000000 1.795560 
# 
# From -- ./inp_files/284261.got.cif
#   From: 2010.05.17/outbox.cif.g08.bks.cpg/sg15_143_cif.got.tgz:284261.got - 2010.06.03 18:47:42.
