data_PCOD9290823
_publ_section_title
;
Structure prediction by ZEFSAII (Michael W. Deem and Ramdas Pophale) SiO2 
 PCOD9290823
Probable space group: C 2/C
;
_chemical_formula_sum "Si O2"
_cell_formula_units_Z 56
_cell_length_a 9.945538
_cell_length_b 13.879501
_cell_length_c 18.168533
_cell_angle_alpha 90.000000
_cell_angle_beta 98.373243
_cell_angle_gamma 90.000000
_cell_volume 2481.234206
_symmetry_space_group_name_H-M "C 2/C"
_symmetry_group_IT_number 15
_symmetry_cell_setting 'monoclinic'
loop_
_space_group_symop_operation_xyz
x,y,z
-x,y,1/2-z
-x,-y,-z
x,-y,1/2+z
1/2+x,1/2+y,z
1/2-x,1/2+y,1/2-z
1/2-x,1/2-y,-z
1/2+x,1/2-y,1/2+z
loop_
_atom_site_type_symbol
_atom_site_label
_atom_site_fract_x
_atom_site_fract_y
_atom_site_fract_z
Si Si1 0.995182 0.554224 0.922488
Si Si2 0.127800 0.202822 0.304875
Si Si3 0.481641 0.622031 0.419306
Si Si4 0.516580 0.395675 0.404058
Si Si5 0.222541 0.597658 0.831373
Si Si6 0.366707 0.068997 0.281312
Si Si7 0.720295 0.224006 0.582228
O O1 0.919762 0.488019 0.856706
O O2 0.905557 0.650370 0.922986
O O3 0.144967 0.573078 0.901334
O O4 0.000000 0.500000 0.000000
O O5 0.141150 0.314815 0.288951
O O6 0.000000 0.161537 0.250000
O O7 0.094558 0.185448 0.387639
O O8 0.264458 0.150747 0.295354
O O9 0.512590 0.512562 0.396167
O O10 0.488173 0.622070 0.508194
O O11 0.337225 0.675410 0.388178
O O12 0.374063 0.366709 0.357528
O O13 0.645241 0.335913 0.382538
O O14 0.209443 0.506894 0.777448
O O15 0.500000 0.105506 0.250000
O O16 0.750000 0.250000 0.500000
#
# Coordination Sequence:
#
# PCOD9290823 Si02
#       7
#     8   8   8   8   8   8   8
#     4  11  24  42  71  99 141 181 223 290 356 415
#     4  12  24  45  72  93 136 189 233 283 354 420
#     4  10  22  41  70  99 137 185 232 288 349 421
#     4  10  23  42  67 102 144 176 231 291 351 417
#     4  11  25  46  68 102 140 182 231 292 356 428
#     4  10  25  48  66 102 140 181 237 289 358 430
#     4  10  22  42  63 102 141 181 228 285 350 424
#
# _framework density 22.569413000000001
#
# number of rings (size 3 to 8) (size 9 to 14) (size 15 to 20)
#    0.000    1.429    1.429    3.000    8.000    2.857 
#    5.143    0.714    0.000    0.000    0.000    0.000 
#    0.000    0.000    0.000    0.000    0.000    0.000 
#
# Total GULP energy -156521.473300 kJ/mol
# GULP energy per Si atom -5590.052618 kJ/mol
# Density = 2.251804 g / cm^3
# Si number density = 22.569413 Si / 1000 Ang^3
#
#
#
# Elastic Constant Matrix: (Units=GPa)
#
#
# Indices 1 2 3 4 5 6 
#
# 1 138.9836 67.4387 42.0349 0.0000 5.9683 0.0000
# 2 67.4387 107.3793 30.1002 0.0000 -8.3436 0.0000
# 3 42.0349 30.1002 54.4063 0.0000 -13.6329 0.0000
# 4 0.0000 0.0000 0.0000 22.3243 0.0000 -8.1066
# 5 5.9683 -8.3436 -13.6329 0.0000 28.2562 0.0000
# 6 0.0000 0.0000 0.0000 -8.1066 0.0000 49.4325
#
#
#
# Elastic Compliance Matrix: (Units=1/GPa)
#
#
# Indices 1 2 3 4 5 6 
#
# 1 0.013605 -0.006707 -0.009120 0.000000 -0.009254 0.000000
# 2 -0.006707 0.014332 -0.001515 0.000000 0.004918 0.000000
# 3 -0.009120 -0.001515 0.030298 0.000000 0.016097 0.000000
# 4 0.000000 0.000000 0.000000 0.047631 0.000000 0.007811
# 5 -0.009254 0.004918 0.016097 0.000000 0.046564 0.000000
# 6 0.000000 0.000000 0.000000 0.007811 0.000000 0.021511
#
#
# Mechanical properties :
#
#
# Convention : Reuss Voigt Hill
#
# Bulk Modulus (GPa) = 42.45997 64.43520 53.44758
# Shear Modulus (GPa) = 23.09747 30.74895 26.92321
#
# Velocity S-wave (km/s) = 3.20253 3.69510 3.45760
# Velocity P-wave (km/s) = 5.70340 6.84228 6.29863
#
# Compressibility (1/GPa) = 0.02355159
#
# Stress axis : x y z
#
# Youngs Moduli (GPa) = 73.50080 69.77384 33.00583
#
# Poissons Ratio (x) = 0.46800 0.30100
# Poissons Ratio (y) = 0.49300 0.04999
# Poissons Ratio (z) = 0.67030 0.10568
#
# Static dielectric constant tensor:
#      x y z
#    x 1.838580 0.000000 -0.007490 
#    y 0.000000 1.867070 0.000000 
#    z -0.007490 0.000000 1.822030 
# 
# From -- ./inp_files/231582.got.cif
#   From: 2010.05.17/outbox.cif.g08.bks.cpg/sg15_116_cif.got.tgz:231582.got - 2010.06.03 18:47:42.
