data_PCOD9290626
_publ_section_title
;
Structure prediction by ZEFSAII (Michael W. Deem and Ramdas Pophale) SiO2 
 PCOD9290626
Probable space group: C 2/C
;
_chemical_formula_sum "Si O2"
_cell_formula_units_Z 40
_cell_length_a 8.441919
_cell_length_b 12.603795
_cell_length_c 18.530952
_cell_angle_alpha 90.000000
_cell_angle_beta 63.597760
_cell_angle_gamma 90.000000
_cell_volume 1766.038187
_symmetry_space_group_name_H-M "C 2/C"
_symmetry_group_IT_number 15
_symmetry_cell_setting 'monoclinic'
loop_
_space_group_symop_operation_xyz
x,y,z
-x,y,1/2-z
-x,-y,-z
x,-y,1/2+z
1/2+x,1/2+y,z
1/2-x,1/2+y,1/2-z
1/2-x,1/2-y,-z
1/2+x,1/2-y,1/2+z
loop_
_atom_site_type_symbol
_atom_site_label
_atom_site_fract_x
_atom_site_fract_y
_atom_site_fract_z
Si Si1 0.128978 0.532465 0.408501
Si Si2 0.040870 0.262768 0.549328
Si Si3 0.366617 0.550545 0.586262
Si Si4 0.510797 0.393655 0.831829
Si Si5 0.986403 0.666815 0.897026
O O1 0.317490 0.569708 0.398141
O O2 0.000000 0.500000 0.500000
O O3 0.030860 0.634107 0.394100
O O4 0.138448 0.422745 0.363586
O O5 0.250000 0.250000 0.500000
O O6 0.964449 0.154985 0.596171
O O7 0.972884 0.282222 0.480465
O O8 0.500000 0.500000 0.500000
O O9 0.348537 0.460561 0.650817
O O10 0.186831 0.599581 0.590465
O O11 0.500000 0.418611 0.750000
O O12 0.523959 0.268007 0.840280
#
# Coordination Sequence:
#
# PCOD9290626 Si02
#       5
#     8   8   8   8   8
#     4  10  22  41  68 101 135 172 233 289 335 410
#     4  11  20  37  69 107 134 169 229 293 343 402
#     4  12  21  39  73 101 132 180 235 290 341 407
#     4  12  27  46  66 100 145 186 228 286 361 431
#     4  11  23  42  69  98 139 178 229 286 352 410
#
# _framework density 22.649566
#
# number of rings (size 3 to 8) (size 9 to 14) (size 15 to 20)
#    0.000    0.800    4.000    6.600    0.000    1.600 
#    0.000    0.000    0.000    0.000    0.000    0.000 
#    0.000    0.000    0.000    0.000    0.000    0.000 
#
# Total GULP energy -111700.303385 kJ/mol
# GULP energy per Si atom -5585.015169 kJ/mol
# Density = 2.259801 g / cm^3
# Si number density = 22.649566 Si / 1000 Ang^3
#
#
#
# Elastic Constant Matrix: (Units=GPa)
#
#
# Indices 1 2 3 4 5 6 
#
# 1 105.5439 39.5501 -0.4862 0.0000 13.0691 0.0000
# 2 39.5501 185.3040 7.7682 0.0000 13.7221 0.0000
# 3 -0.4862 7.7682 47.5019 0.0000 27.8948 0.0000
# 4 0.0000 0.0000 0.0000 17.8626 0.0000 12.2396
# 5 13.0691 13.7221 27.8948 0.0000 22.6408 0.0000
# 6 0.0000 0.0000 0.0000 12.2396 0.0000 49.8135
#
#
#
# Elastic Compliance Matrix: (Units=1/GPa)
#
#
# Indices 1 2 3 4 5 6 
#
# 1 0.013390 -0.001576 0.015814 0.000000 -0.026258 0.000000
# 2 -0.001576 0.006046 0.002216 0.000000 -0.005485 0.000000
# 3 0.015814 0.002216 0.097653 0.000000 -0.130786 0.000000
# 4 0.000000 0.000000 0.000000 0.067317 0.000000 -0.016540
# 5 -0.026258 -0.005485 -0.130786 0.000000 0.223784 0.000000
# 6 0.000000 0.000000 0.000000 -0.016540 0.000000 0.024139
#
#
# Mechanical properties :
#
#
# Convention : Reuss Voigt Hill
#
# Bulk Modulus (GPa) = 6.66683 48.00155 27.33419
# Shear Modulus (GPa) = 11.12546 37.49789 24.31167
#
# Velocity S-wave (km/s) = 2.21871 4.07328 3.27981
# Velocity P-wave (km/s) = 3.08438 6.58493 5.14173
#
# Compressibility (1/GPa) = 0.14999636
#
# Stress axis : x y z
#
# Youngs Moduli (GPa) = 74.68442 165.39227 10.24034
#
# Poissons Ratio (x) = 0.26071 -0.16194
# Poissons Ratio (y) = 0.11773 -0.02269
# Poissons Ratio (z) = -1.18108 -0.36648
#
# Static dielectric constant tensor:
#      x y z
#    x 1.914150 0.000000 0.027330 
#    y 0.000000 1.928180 0.000000 
#    z 0.027330 0.000000 1.924060 
# 
# From -- ./inp_files/230414.got.cif
#   From: 2010.05.17/outbox.cif.g08.bks.cpg/sg15_116_cif.got.tgz:230414.got - 2010.06.03 18:47:42.
