data_PCOD9290276
_publ_section_title
;
Structure prediction by ZEFSAII (Michael W. Deem and Ramdas Pophale) SiO2 
 PCOD9290276
Probable space group: C 2/C
;
_chemical_formula_sum "Si O2"
_cell_formula_units_Z 40
_cell_length_a 27.636125
_cell_length_b 5.313549
_cell_length_c 13.841120
_cell_angle_alpha 90.000000
_cell_angle_beta 49.809045
_cell_angle_gamma 90.000000
_cell_volume 1552.631512
_symmetry_space_group_name_H-M "C 2/C"
_symmetry_group_IT_number 15
_symmetry_cell_setting 'monoclinic'
loop_
_space_group_symop_operation_xyz
x,y,z
-x,y,1/2-z
-x,-y,-z
x,-y,1/2+z
1/2+x,1/2+y,z
1/2-x,1/2+y,1/2-z
1/2-x,1/2-y,-z
1/2+x,1/2-y,1/2+z
loop_
_atom_site_type_symbol
_atom_site_label
_atom_site_fract_x
_atom_site_fract_y
_atom_site_fract_z
Si Si1 0.447891 0.114825 0.138833
Si Si2 0.731319 0.900407 0.900215
Si Si3 0.589118 0.983092 0.099493
Si Si4 0.199092 0.601614 0.212753
Si Si5 0.467668 0.512771 0.894623
O O1 0.448002 0.005672 0.249388
O O2 0.376125 0.081209 0.200129
O O3 0.472276 0.403477 0.117823
O O4 0.500000 0.000000 0.000000
O O5 0.777678 0.133269 0.859585
O O6 0.763494 0.634111 0.880677
O O7 0.717291 0.899421 0.802611
O O8 0.662259 0.949298 0.032599
O O9 0.578254 0.243937 0.055220
O O10 0.570964 0.745225 0.055248
O O11 0.500000 0.494900 0.750000
#
# Coordination Sequence:
#
# PCOD9290276 Si02
#       5
#     8   8   8   8   8
#     4  11  25  44  71 108 142 179 235 291 340 410
#     4  10  22  43  66  94 136 182 224 277 350 408
#     4  11  23  43  69  96 135 181 223 276 344 412
#     4  10  23  41  66  98 134 177 228 285 338 403
#     4  10  22  41  64  95 135 177 218 271 345 410
#
# _framework density 25.762713000000002
#
# number of rings (size 3 to 8) (size 9 to 14) (size 15 to 20)
#    0.000    1.600    0.000    4.200    0.000    9.600 
#    0.000   17.000    0.000    0.000    0.000    0.000 
#    0.000    0.000    0.000    0.000    0.000    0.000 
#
# Total GULP energy -111941.080218 kJ/mol
# GULP energy per Si atom -5597.054011 kJ/mol
# Density = 2.570408 g / cm^3
# Si number density = 25.762713 Si / 1000 Ang^3
#
#
#
# Elastic Constant Matrix: (Units=GPa)
#
#
# Indices 1 2 3 4 5 6 
#
# 1 101.1498 53.5709 24.1562 0.0000 -39.0151 -0.0002
# 2 53.5709 198.6881 54.4795 -0.0023 -23.9404 0.0040
# 3 24.1562 54.4795 139.6268 0.0005 -19.8768 -0.0013
# 4 0.0000 -0.0023 0.0005 39.2982 0.0000 2.0810
# 5 -39.0151 -23.9404 -19.8768 0.0000 51.7660 0.0003
# 6 -0.0002 0.0040 -0.0013 2.0810 0.0003 29.8878
#
#
#
# Elastic Compliance Matrix: (Units=1/GPa)
#
#
# Indices 1 2 3 4 5 6 
#
# 1 0.015381 -0.002894 -0.000076 0.000000 0.010225 0.000000
# 2 -0.002894 0.006356 -0.001980 0.000000 -0.000002 -0.000001
# 3 -0.000076 -0.001980 0.008261 0.000000 0.002199 0.000001
# 4 0.000000 0.000000 0.000000 0.025541 0.000000 -0.001778
# 5 0.010225 -0.000002 0.002199 0.000000 0.027867 0.000000
# 6 0.000000 -0.000001 0.000001 -0.001778 0.000000 0.033582
#
#
# Mechanical properties :
#
#
# Convention : Reuss Voigt Hill
#
# Bulk Modulus (GPa) = 49.75675 78.20866 63.98270
# Shear Modulus (GPa) = 37.42877 44.67426 41.05152
#
# Velocity S-wave (km/s) = 3.81573 4.16873 3.99613
# Velocity P-wave (km/s) = 6.22643 7.32081 6.79569
#
# Compressibility (1/GPa) = 0.02009778
#
# Stress axis : x y z
#
# Youngs Moduli (GPa) = 65.01436 157.33411 121.05765
#
# Poissons Ratio (x) = 0.45536 0.00922
# Poissons Ratio (y) = 0.18817 0.23963
# Poissons Ratio (z) = 0.00495 0.31144
#
# Static dielectric constant tensor:
#      x y z
#    x 2.130780 0.000000 0.067930 
#    y 0.000000 2.075920 0.000000 
#    z 0.067930 0.000000 2.010810 
# 
# From -- ./inp_files/223524.got.cif
#   From: 2010.05.17/outbox.cif.g08.bks.cpg/sg15_112_cif.got.tgz:223524.got - 2010.06.03 18:47:42.
