data_PCOD9290235
_publ_section_title
;
Structure prediction by ZEFSAII (Michael W. Deem and Ramdas Pophale) SiO2 
 PCOD9290235
Probable space group: C 2/C
;
_chemical_formula_sum "Si O2"
_cell_formula_units_Z 44
_cell_length_a 10.986299
_cell_length_b 16.562534
_cell_length_c 13.765627
_cell_angle_alpha 90.000000
_cell_angle_beta 121.627594
_cell_angle_gamma 90.000000
_cell_volume 2132.778878
_symmetry_space_group_name_H-M "C 2/C"
_symmetry_group_IT_number 15
_symmetry_cell_setting 'monoclinic'
loop_
_space_group_symop_operation_xyz
x,y,z
-x,y,1/2-z
-x,-y,-z
x,-y,1/2+z
1/2+x,1/2+y,z
1/2-x,1/2+y,1/2-z
1/2-x,1/2-y,-z
1/2+x,1/2-y,1/2+z
loop_
_atom_site_type_symbol
_atom_site_label
_atom_site_fract_x
_atom_site_fract_y
_atom_site_fract_z
Si Si1 0.210349 0.333554 0.747822
Si Si2 0.792632 0.167269 0.068426
Si Si3 0.552579 0.443886 0.608299
Si Si4 0.515430 0.094634 0.015221
Si Si5 0.726676 0.691776 0.897659
Si Si6 0.500000 0.435375 0.250000
O O1 0.305407 0.318874 0.690013
O O2 0.304346 0.393590 0.852193
O O3 0.070858 0.375945 0.644766
O O4 0.182889 0.251142 0.791620
O O5 0.926691 0.119371 0.082177
O O6 0.648093 0.115198 0.000991
O O7 0.750000 0.250000 0.000000
O O8 0.500000 0.500000 0.500000
O O9 0.580548 0.503983 0.710699
O O10 0.374347 0.145932 0.935338
O O11 0.500000 0.000000 0.000000
O O12 0.606948 0.622292 0.854330
O O13 0.750000 0.750000 0.000000
#
# Coordination Sequence:
#
# PCOD9290235 Si02
#       6
#     8   8   8   8   8   4
#     4  10  23  41  65  91 130 167 211 265 325 382
#     4  10  22  41  64  91 128 167 213 263 319 390
#     4  12  23  41  69  95 126 171 217 266 323 393
#     4  10  22  41  64  89 133 164 210 271 324 375
#     4  12  24  41  66  94 127 174 220 263 321 394
#     4  12  24  42  64  96 132 162 218 276 318 382
#
# _framework density 20.630361000000001
#
# number of rings (size 3 to 8) (size 9 to 14) (size 15 to 20)
#    1.091    0.000    1.818    5.455    2.545    0.000 
#    0.000    0.000    0.000    0.000    0.000    0.000 
#    0.000    0.000    0.000    0.000    0.000    0.000 
#
# Total GULP energy -122800.038567 kJ/mol
# GULP energy per Si atom -5581.819935 kJ/mol
# Density = 2.058341 g / cm^3
# Si number density = 20.630361 Si / 1000 Ang^3
#
#
#
# Elastic Constant Matrix: (Units=GPa)
#
#
# Indices 1 2 3 4 5 6 
#
# 1 35.3291 27.5851 1.8728 0.0000 21.9293 0.0000
# 2 27.5851 153.7504 37.7958 0.0000 11.8418 0.0000
# 3 1.8728 37.7958 65.0425 0.0000 7.1070 0.0000
# 4 0.0000 0.0000 0.0000 50.1273 0.0000 1.0311
# 5 21.9293 11.8418 7.1070 0.0000 36.5640 0.0000
# 6 0.0000 0.0000 0.0000 1.0311 0.0000 39.0309
#
#
#
# Elastic Compliance Matrix: (Units=1/GPa)
#
#
# Indices 1 2 3 4 5 6 
#
# 1 0.054260 -0.009097 0.007109 0.000000 -0.030978 0.000000
# 2 -0.009097 0.009210 -0.005476 0.000000 0.003537 0.000000
# 3 0.007109 -0.005476 0.019028 0.000000 -0.006188 0.000000
# 4 0.000000 0.000000 0.000000 0.019960 0.000000 -0.000527
# 5 -0.030978 0.003537 -0.006188 0.000000 0.045986 0.000000
# 6 0.000000 0.000000 0.000000 -0.000527 0.000000 0.025635
#
#
# Mechanical properties :
#
#
# Convention : Reuss Voigt Hill
#
# Bulk Modulus (GPa) = 14.79970 43.18103 28.99037
# Shear Modulus (GPa) = 23.63732 37.60231 30.61981
#
# Velocity S-wave (km/s) = 3.38857 4.27390 3.85673
# Velocity P-wave (km/s) = 4.74333 6.73285 5.82368
#
# Compressibility (1/GPa) = 0.06756892
#
# Stress axis : x y z
#
# Youngs Moduli (GPa) = 18.42994 108.57872 52.55305
#
# Poissons Ratio (x) = 0.98769 -0.37357
# Poissons Ratio (y) = 0.16765 0.28780
# Poissons Ratio (z) = -0.13101 0.59462
#
# Static dielectric constant tensor:
#      x y z
#    x 1.729530 0.000000 -0.004520 
#    y 0.000000 1.645730 0.000000 
#    z -0.004520 0.000000 1.769730 
# 
# From -- ./inp_files/143906.got.cif
#   From: 2010.05.17/outbox.cif.g08.bks.cpg/sg15_72_cif.got.tgz:143906.got - 2010.06.03 18:47:42.
