data_PCOD9290104
_publ_section_title
;
Structure prediction by ZEFSAII (Michael W. Deem and Ramdas Pophale) SiO2 
 PCOD9290104
Probable space group: C 2/C
;
_chemical_formula_sum "Si O2"
_cell_formula_units_Z 52
_cell_length_a 20.026908
_cell_length_b 23.747074
_cell_length_c 5.388858
_cell_angle_alpha 90.000000
_cell_angle_beta 75.526157
_cell_angle_gamma 90.000000
_cell_volume 2481.495925
_symmetry_space_group_name_H-M "C 2/C"
_symmetry_group_IT_number 15
_symmetry_cell_setting 'monoclinic'
loop_
_space_group_symop_operation_xyz
x,y,z
-x,y,1/2-z
-x,-y,-z
x,-y,1/2+z
1/2+x,1/2+y,z
1/2-x,1/2+y,1/2-z
1/2-x,1/2-y,-z
1/2+x,1/2-y,1/2+z
loop_
_atom_site_type_symbol
_atom_site_label
_atom_site_fract_x
_atom_site_fract_y
_atom_site_fract_z
Si Si1 0.432470 0.304334 0.165788
Si Si2 0.743774 0.465013 0.858149
Si Si3 0.079222 0.968013 0.003154
Si Si4 0.210508 0.663257 0.229025
Si Si5 0.828488 0.761185 0.613671
Si Si6 0.925893 0.304970 0.387414
Si Si7 0.500000 0.619468 0.250000
O O1 0.500000 0.321051 0.250000
O O2 0.362362 0.304147 0.383071
O O3 0.443356 0.239682 0.083592
O O4 0.438682 0.343231 0.921518
O O5 0.763067 0.498611 0.586071
O O6 0.661033 0.459079 0.922751
O O7 0.770786 0.400894 0.846084
O O8 0.038423 0.916699 0.922543
O O9 0.065450 0.015362 0.801871
O O10 0.271254 0.700410 0.305274
O O11 0.139336 0.660572 0.450747
O O12 0.199648 0.705562 0.003879
O O13 0.891119 0.735414 0.713216
O O14 0.000000 0.331666 0.250000
#
# Coordination Sequence:
#
# PCOD9290104 Si02
#       7
#     8   8   8   8   8   8   4
#     4  11  22  35  55  89 128 172 207 254 315 394
#     4  10  24  44  66  92 126 173 225 277 333 386
#     4  10  24  43  59  86 123 171 230 281 317 367
#     4  10  24  39  67  95 129 171 215 274 317 401
#     4  10  22  41  61  98 132 169 216 257 332 391
#     4  11  21  40  62  95 131 165 203 262 333 402
#     4  12  24  34  60  88 122 178 214 266 322 378
#
# _framework density 20.955100999999999
#
# number of rings (size 3 to 8) (size 9 to 14) (size 15 to 20)
#    0.000    1.538    2.308    0.923    8.615    2.462 
#    0.000    0.000    0.000    0.923    0.000    0.000 
#    0.000    0.000    0.000    0.000    0.000    0.000 
#
# Total GULP energy -144967.020193 kJ/mol
# GULP energy per Si atom -5575.654623 kJ/mol
# Density = 2.090741 g / cm^3
# Si number density = 20.955101 Si / 1000 Ang^3
#
#
#
# Elastic Constant Matrix: (Units=GPa)
#
#
# Indices 1 2 3 4 5 6 
#
# 1 97.5886 45.6357 42.2742 0.0000 -14.3232 0.0000
# 2 45.6357 130.8069 59.1377 0.0000 -13.0273 0.0000
# 3 42.2742 59.1377 102.3755 0.0000 -6.1631 0.0000
# 4 0.0000 0.0000 0.0000 30.8604 0.0000 -9.2937
# 5 -14.3232 -13.0273 -6.1631 0.0000 29.7179 0.0000
# 6 0.0000 0.0000 0.0000 -9.2937 0.0000 19.6710
#
#
#
# Elastic Compliance Matrix: (Units=1/GPa)
#
#
# Indices 1 2 3 4 5 6 
#
# 1 0.013857 -0.002579 -0.003948 0.000000 0.004730 0.000000
# 2 -0.002579 0.011165 -0.005230 0.000000 0.002567 0.000000
# 3 -0.003948 -0.005230 0.014346 0.000000 -0.001220 0.000000
# 4 0.000000 0.000000 0.000000 0.037779 0.000000 0.017849
# 5 0.004730 0.002567 -0.001220 0.000000 0.036801 0.000000
# 6 0.000000 0.000000 0.000000 0.017849 0.000000 0.059269
#
#
# Mechanical properties :
#
#
# Convention : Reuss Voigt Hill
#
# Bulk Modulus (GPa) = 63.07233 69.42959 66.25096
# Shear Modulus (GPa) = 24.75061 28.29809 26.52435
#
# Velocity S-wave (km/s) = 3.44048 3.67879 3.56163
# Velocity P-wave (km/s) = 6.77840 7.15885 6.97122
#
# Compressibility (1/GPa) = 0.01585481
#
# Stress axis : x y z
#
# Youngs Moduli (GPa) = 72.16410 89.56909 69.70696
#
# Poissons Ratio (x) = 0.23097 0.27519
# Poissons Ratio (y) = 0.18609 0.36456
# Poissons Ratio (z) = 0.28489 0.46844
#
# Static dielectric constant tensor:
#      x y z
#    x 1.854650 0.000000 0.022100 
#    y 0.000000 1.728120 0.000000 
#    z 0.022100 0.000000 1.942040 
# 
# From -- ./inp_files/13322.got.cif
#   From: 2010.05.17/outbox.cif.g08.bks.cpg/sg15_7_cif.got.tgz:13322.got - 2010.06.03 18:47:42.
