data_PCOD9290414
_publ_section_title
;
Structure prediction by ZEFSAII (Michael W. Deem and Ramdas Pophale) SiO2 
 PCOD9290414
Probable space group: C 2/C
;
_chemical_formula_sum "Si O2"
_cell_formula_units_Z 44
_cell_length_a 13.093761
_cell_length_b 13.618481
_cell_length_c 10.329838
_cell_angle_alpha 90.000000
_cell_angle_beta 91.956557
_cell_angle_gamma 90.000000
_cell_volume 1840.913245
_symmetry_space_group_name_H-M "C 2/C"
_symmetry_group_IT_number 15
_symmetry_cell_setting 'monoclinic'
loop_
_space_group_symop_operation_xyz
x,y,z
-x,y,1/2-z
-x,-y,-z
x,-y,1/2+z
1/2+x,1/2+y,z
1/2-x,1/2+y,1/2-z
1/2-x,1/2-y,-z
1/2+x,1/2-y,1/2+z
loop_
_atom_site_type_symbol
_atom_site_label
_atom_site_fract_x
_atom_site_fract_y
_atom_site_fract_z
Si Si1 0.776214 0.714509 0.710690
Si Si2 0.345750 0.950682 0.070530
Si Si3 0.690766 0.415423 0.692867
Si Si4 0.500000 0.447581 0.250000
Si Si5 0.077831 0.616036 0.584131
Si Si6 0.390941 0.691056 0.571354
O O1 0.780351 0.648931 0.582435
O O2 0.790431 0.830117 0.703216
O O3 0.873953 0.673054 0.794062
O O4 0.683363 0.697254 0.807075
O O5 0.464158 0.924035 0.095717
O O6 0.290914 0.020744 0.172093
O O7 0.351278 0.023142 0.948435
O O8 0.597801 0.484046 0.731280
O O9 0.661976 0.360893 0.554993
O O10 0.517992 0.377684 0.374794
O O11 0.078550 0.699275 0.471096
#
# Coordination Sequence:
#
# PCOD9290414 Si02
#       6
#     8   8   8   4   8   8
#     4  11  21  41  68  91 128 174 214 251 316 394
#     4  11  21  39  66  98 124 165 217 257 312 376
#     4  11  23  42  66  93 128 172 212 258 318 390
#     4  12  26  42  66  92 130 164 218 262 324 370
#     4  10  22  41  65  97 129 167 211 265 316 379
#     4  11  22  44  64  92 128 169 210 266 315 376
#
# _framework density 23.901181999999999
#
# number of rings (size 3 to 8) (size 9 to 14) (size 15 to 20)
#    0.000    1.091    5.455    2.182    5.091    0.000 
#    6.545    2.727    0.000    0.000    0.000    0.000 
#    0.000    0.000    0.000    0.000    0.000    0.000 
#
# Total GULP energy -122947.684339 kJ/mol
# GULP energy per Si atom -5588.531106 kJ/mol
# Density = 2.384678 g / cm^3
# Si number density = 23.901182 Si / 1000 Ang^3
#
#
#
# Elastic Constant Matrix: (Units=GPa)
#
#
# Indices 1 2 3 4 5 6 
#
# 1 61.8991 74.0766 53.1658 0.0000 -33.6391 0.0000
# 2 74.0766 173.3277 53.0908 0.0000 -6.5949 0.0000
# 3 53.1658 53.0908 93.4910 0.0000 -1.5002 0.0000
# 4 0.0000 0.0000 0.0000 -115.2328 0.0000 126.3263
# 5 -33.6391 -6.5949 -1.5002 0.0000 27.1179 0.0000
# 6 0.0000 0.0000 0.0000 126.3263 0.0000 -76.7970
#
#
#
# Elastic Compliance Matrix: (Units=1/GPa)
#
#
# Indices 1 2 3 4 5 6 
#
# 1 -0.056757 0.014767 0.022839 0.000000 -0.065551 0.000000
# 2 0.014767 0.003202 -0.009918 0.000000 0.018548 0.000000
# 3 0.022839 -0.009918 0.003760 0.000000 0.026127 0.000000
# 4 0.000000 0.000000 0.000000 0.010803 0.000000 0.017770
# 5 -0.065551 0.018548 0.026127 0.000000 -0.038483 0.000000
# 6 0.000000 0.000000 0.000000 0.017770 0.000000 0.016210
#
#
# Mechanical properties :
#
#
# Convention : Reuss Voigt Hill
#
# Bulk Modulus (GPa) = 179.22311 76.59823 127.91067
# Shear Modulus (GPa) = -43.56167 -23.09007 -33.32587
#
# Velocity S-wave (km/s) = -4.27379 -3.11153 -3.73811
# Velocity P-wave (km/s) = 7.12700 4.38277 5.91620
#
# Compressibility (1/GPa) = 0.00557964
#
# Stress axis : x y z
#
# Youngs Moduli (GPa) = -17.61889 312.30513 265.94620
#
# Poissons Ratio (x) = -4.61187 -6.07382
# Poissons Ratio (y) = 0.26018 2.63775
# Poissons Ratio (z) = 0.40239 3.09756
#
# Static dielectric constant tensor:
#      x y z
#    x 1.890370 0.000000 0.011260 
#    y 0.000000 1.930000 0.000000 
#    z 0.011260 0.000000 1.966270 
# 
# From -- ./inp_files/94979.got.cif
#   From: 2010.05.17/outbox.cif.g08.bks.cpg/sg15_48_cif.got.tgz:94979.got - 2010.06.03 18:47:42.
