data_PCOD9290572
_publ_section_title
;
Structure prediction by ZEFSAII (Michael W. Deem and Ramdas Pophale) SiO2 
 PCOD9290572
Probable space group: C 2/C
;
_chemical_formula_sum "Si O2"
_cell_formula_units_Z 44
_cell_length_a 11.748445
_cell_length_b 14.682697
_cell_length_c 20.659844
_cell_angle_alpha 90.000000
_cell_angle_beta 38.025166
_cell_angle_gamma 90.000000
_cell_volume 2195.327340
_symmetry_space_group_name_H-M "C 2/C"
_symmetry_group_IT_number 15
_symmetry_cell_setting 'monoclinic'
loop_
_space_group_symop_operation_xyz
x,y,z
-x,y,1/2-z
-x,-y,-z
x,-y,1/2+z
1/2+x,1/2+y,z
1/2-x,1/2+y,1/2-z
1/2-x,1/2-y,-z
1/2+x,1/2-y,1/2+z
loop_
_atom_site_type_symbol
_atom_site_label
_atom_site_fract_x
_atom_site_fract_y
_atom_site_fract_z
Si Si1 0.185751 0.849131 0.789358
Si Si2 0.841950 0.535053 0.696912
Si Si3 0.500000 0.130837 0.750000
Si Si4 0.716631 0.697804 0.661854
Si Si5 0.477830 0.872392 0.560338
Si Si6 0.306565 0.284497 0.904099
O O1 0.187755 0.789242 0.852883
O O2 0.374019 0.822380 0.666566
O O3 0.008321 0.827627 0.825264
O O4 0.202277 0.958016 0.786768
O O5 0.751115 0.617902 0.699068
O O6 0.965432 0.476178 0.591007
O O7 0.951873 0.573184 0.708580
O O8 0.333708 0.197339 0.845811
O O9 0.500000 0.711989 0.750000
O O10 0.824716 0.664179 0.549534
O O11 0.340547 0.852116 0.561647
O O12 0.250000 0.250000 0.000000
#
# Coordination Sequence:
#
# PCOD9290572 Si02
#       6
#     8   8   4   8   8   8
#     4  10  23  40  62  98 125 172 209 266 329 374
#     4  10  24  41  65  94 130 172 214 267 330 380
#     4  12  20  44  66  96 138 162 224 280 306 398
#     4  12  24  42  65  95 134 169 214 264 328 398
#     4  10  22  41  67  94 127 169 221 260 330 385
#     4  12  20  39  74  95 127 170 225 274 323 382
#
# _framework density 20.042569
#
# number of rings (size 3 to 8) (size 9 to 14) (size 15 to 20)
#    1.091    0.000    5.455    0.545    3.818    0.727 
#    0.000    0.909    0.000    0.000    0.000    0.000 
#    0.000    0.000    0.000    0.000    0.000    0.000 
#
# Total GULP energy -122653.599720 kJ/mol
# GULP energy per Si atom -5575.163624 kJ/mol
# Density = 1.999695 g / cm^3
# Si number density = 20.042569 Si / 1000 Ang^3
#
#
#
# Elastic Constant Matrix: (Units=GPa)
#
#
# Indices 1 2 3 4 5 6 
#
# 1 64.5598 14.1673 21.7838 0.0003 2.1807 -0.0002
# 2 14.1673 83.0409 16.2531 0.0004 9.8700 -0.0003
# 3 21.7838 16.2531 65.9016 -0.0001 -1.1154 -0.0003
# 4 0.0003 0.0004 -0.0001 35.7021 -0.0001 7.9345
# 5 2.1807 9.8700 -1.1154 -0.0001 35.8896 0.0002
# 6 -0.0002 -0.0003 -0.0003 7.9345 0.0002 39.2380
#
#
#
# Elastic Compliance Matrix: (Units=1/GPa)
#
#
# Indices 1 2 3 4 5 6 
#
# 1 0.017755 -0.001882 -0.005417 0.000000 -0.000730 0.000000
# 2 -0.001882 0.013329 -0.002727 0.000000 -0.003636 0.000000
# 3 -0.005417 -0.002727 0.017665 0.000000 0.001628 0.000000
# 4 0.000000 0.000000 0.000000 0.029328 0.000000 -0.005930
# 5 -0.000730 -0.003636 0.001628 0.000000 0.028958 0.000000
# 6 0.000000 0.000000 0.000000 -0.005930 0.000000 0.026685
#
#
# Mechanical properties :
#
#
# Convention : Reuss Voigt Hill
#
# Bulk Modulus (GPa) = 34.84673 35.32341 35.08507
# Shear Modulus (GPa) = 30.61157 32.91917 31.76537
#
# Velocity S-wave (km/s) = 3.91234 4.05713 3.98539
# Velocity P-wave (km/s) = 6.15083 6.29361 6.22263
#
# Compressibility (1/GPa) = 0.02869709
#
# Stress axis : x y z
#
# Youngs Moduli (GPa) = 56.32213 75.02316 56.60980
#
# Poissons Ratio (x) = 0.14121 0.30666
# Poissons Ratio (y) = 0.10601 0.15436
# Poissons Ratio (z) = 0.30510 0.20457
#
# Static dielectric constant tensor:
#      x y z
#    x 1.681780 0.000000 0.012760 
#    y 0.000000 1.723100 0.000000 
#    z 0.012760 0.000000 1.775700 
# 
# From -- ./inp_files/238609.got.cif
#   From: 2010.05.17/outbox.cif.g08.bks.cpg/sg15_120_cif.got.tgz:238609.got - 2010.06.03 18:47:42.
