data_PCOD9290833
_publ_section_title
;
Structure prediction by ZEFSAII (Michael W. Deem and Ramdas Pophale) SiO2 
 PCOD9290833
Probable space group: C 2/C
;
_chemical_formula_sum "Si O2"
_cell_formula_units_Z 28
_cell_length_a 10.839682
_cell_length_b 18.624022
_cell_length_c 5.563993
_cell_angle_alpha 90.000000
_cell_angle_beta 76.821169
_cell_angle_gamma 90.000000
_cell_volume 1093.667611
_symmetry_space_group_name_H-M "C 2/C"
_symmetry_group_IT_number 15
_symmetry_cell_setting 'monoclinic'
loop_
_space_group_symop_operation_xyz
x,y,z
-x,y,1/2-z
-x,-y,-z
x,-y,1/2+z
1/2+x,1/2+y,z
1/2-x,1/2+y,1/2-z
1/2-x,1/2-y,-z
1/2+x,1/2-y,1/2+z
loop_
_atom_site_type_symbol
_atom_site_label
_atom_site_fract_x
_atom_site_fract_y
_atom_site_fract_z
Si Si1 0.896870 0.187416 0.617646
Si Si2 0.138137 0.334252 0.119716
Si Si3 0.000000 0.936201 0.750000
Si Si4 0.281935 0.965648 0.704384
O O1 0.877947 0.250829 0.436164
O O2 0.754963 0.164128 0.757065
O O3 0.000000 0.218646 0.750000
O O4 0.961180 0.117502 0.480146
O O5 0.000000 0.361685 0.250000
O O6 0.186941 0.383097 0.876395
O O7 0.871308 0.974820 0.728540
O O8 0.328877 0.008088 0.443508
#
# Coordination Sequence:
#
# PCOD9290833 Si02
#       4
#     8   8   4   8
#     4  10  22  41  71 104 136 177 230 298 357 406
#     4  10  23  44  65 105 142 179 233 285 353 425
#     4  10  22  42  70 104 134 172 244 298 344 404
#     4  11  26  44  69 100 141 192 235 283 341 423
#
# _framework density 25.601928999999998
#
# number of rings (size 3 to 8) (size 9 to 14) (size 15 to 20)
#    0.000    1.714    1.429    0.857    8.000    4.571 
#    0.000    0.000    0.000    0.000    0.000    0.000 
#    0.000    0.000    0.000    0.000    0.000    0.000 
#
# Total GULP energy -78235.798865 kJ/mol
# GULP energy per Si atom -5588.271348 kJ/mol
# Density = 2.554366 g / cm^3
# Si number density = 25.601929 Si / 1000 Ang^3
#
#
#
# Elastic Constant Matrix: (Units=GPa)
#
#
# Indices 1 2 3 4 5 6 
#
# 1 156.1149 -16.8484 55.0973 0.0000 -27.3332 0.0000
# 2 -16.8484 101.0061 32.1157 0.0000 -10.2301 0.0000
# 3 55.0973 32.1157 74.4245 0.0000 -7.1478 0.0000
# 4 0.0000 0.0000 0.0000 10.7172 0.0000 -11.9943
# 5 -27.3332 -10.2301 -7.1478 0.0000 29.6847 0.0000
# 6 0.0000 0.0000 0.0000 -11.9943 0.0000 26.1412
#
#
#
# Elastic Compliance Matrix: (Units=1/GPa)
#
#
# Indices 1 2 3 4 5 6 
#
# 1 0.013563 0.007315 -0.012034 0.000000 0.012112 0.000000
# 2 0.007315 0.015657 -0.011268 0.000000 0.009419 0.000000
# 3 -0.012034 -0.011268 0.026381 0.000000 -0.008612 0.000000
# 4 0.000000 0.000000 0.000000 0.191795 0.000000 0.088001
# 5 0.012112 0.009419 -0.008612 0.000000 0.046012 0.000000
# 6 0.000000 0.000000 0.000000 0.088001 0.000000 0.078631
#
#
# Mechanical properties :
#
#
# Convention : Reuss Voigt Hill
#
# Bulk Modulus (GPa) = 42.32270 52.47496 47.39883
# Shear Modulus (GPa) = 12.13923 30.72069 21.42996
#
# Velocity S-wave (km/s) = 2.17987 3.46777 2.89631
# Velocity P-wave (km/s) = 4.78568 6.04772 5.45333
#
# Compressibility (1/GPa) = 0.02362798
#
# Stress axis : x y z
#
# Youngs Moduli (GPa) = 73.73074 63.86838 37.90659
#
# Poissons Ratio (x) = -0.46723 0.45618
# Poissons Ratio (y) = -0.53937 0.42711
# Poissons Ratio (z) = 0.88730 0.71964
#
# Static dielectric constant tensor:
#      x y z
#    x 2.121680 0.000000 0.010160 
#    y 0.000000 1.969730 0.000000 
#    z 0.010160 0.000000 2.069920 
# 
# From -- ./inp_files/3429.got.cif
#   From: 2010.05.17/outbox.cif.g08.bks.cpg/sg15_2_cif.got.tgz:3429.got - 2010.06.03 18:47:42.
