data_PCOD9290021
_publ_section_title
;
Structure prediction by ZEFSAII (Michael W. Deem and Ramdas Pophale) SiO2 
 PCOD9290021
Probable space group: C 2/C
;
_chemical_formula_sum "Si O2"
_cell_formula_units_Z 44
_cell_length_a 8.573800
_cell_length_b 21.722857
_cell_length_c 12.028684
_cell_angle_alpha 90.000000
_cell_angle_beta 110.933083
_cell_angle_gamma 90.000000
_cell_volume 2092.447210
_symmetry_space_group_name_H-M "C 2/C"
_symmetry_group_IT_number 15
_symmetry_cell_setting 'monoclinic'
loop_
_space_group_symop_operation_xyz
x,y,z
-x,y,1/2-z
-x,-y,-z
x,-y,1/2+z
1/2+x,1/2+y,z
1/2-x,1/2+y,1/2-z
1/2-x,1/2-y,-z
1/2+x,1/2-y,1/2+z
loop_
_atom_site_type_symbol
_atom_site_label
_atom_site_fract_x
_atom_site_fract_y
_atom_site_fract_z
Si Si1 0.500000 0.152960 0.750000
Si Si2 0.193643 0.424422 0.914941
Si Si3 0.705890 0.258182 0.119689
Si Si4 0.811256 0.381821 0.824647
Si Si5 0.779051 0.569659 0.552656
Si Si6 0.510527 0.634274 0.884354
O O1 0.657338 0.198953 0.783457
O O2 0.443186 0.107675 0.635683
O O3 0.258073 0.409179 0.807137
O O4 0.192864 0.497325 0.933731
O O5 0.005897 0.400160 0.876539
O O6 0.312322 0.389605 0.030100
O O7 0.702604 0.191549 0.173333
O O8 0.535729 0.296893 0.086937
O O9 0.750000 0.250000 0.000000
O O10 0.734561 0.409663 0.917057
O O11 0.629984 0.590553 0.595692
O O12 0.500000 0.632009 0.750000
#
# Coordination Sequence:
#
# PCOD9290021 Si02
#       6
#     4   8   8   8   8   8
#     4  10  22  40  74  96 136 178 232 280 326 426
#     4  11  27  44  70 105 143 181 233 299 342 421
#     4  11  24  45  67 105 132 188 238 275 357 409
#     4  11  25  44  70 102 137 186 236 286 350 414
#     4  11  24  47  71 101 135 193 232 276 358 418
#     4  11  27  44  70 105 143 182 231 292 355 409
#
# _framework density 21.028009000000001
#
# number of rings (size 3 to 8) (size 9 to 14) (size 15 to 20)
#    0.000    1.091    3.636    2.182   12.727    1.455 
#    0.000    0.000    0.000    0.000    0.000    0.000 
#    0.000    0.000    0.000    0.000    0.000    0.000 
#
# Total GULP energy -123008.880076 kJ/mol
# GULP energy per Si atom -5591.312731 kJ/mol
# Density = 2.098015 g / cm^3
# Si number density = 21.028009 Si / 1000 Ang^3
#
#
#
# Elastic Constant Matrix: (Units=GPa)
#
#
# Indices 1 2 3 4 5 6 
#
# 1 47.9638 11.3008 19.5793 0.0000 -13.6834 0.0000
# 2 11.3008 176.6031 33.1580 0.0000 -0.5181 0.0000
# 3 19.5793 33.1580 116.8958 0.0000 -20.6472 0.0000
# 4 0.0000 0.0000 0.0000 10.7691 0.0000 2.7666
# 5 -13.6834 -0.5181 -20.6472 0.0000 35.3849 0.0000
# 6 0.0000 0.0000 0.0000 2.7666 0.0000 33.1094
#
#
#
# Elastic Compliance Matrix: (Units=1/GPa)
#
#
# Indices 1 2 3 4 5 6 
#
# 1 0.024358 -0.001094 -0.002351 0.000000 0.008031 0.000000
# 2 -0.001094 0.006062 -0.001779 0.000000 -0.001372 0.000000
# 3 -0.002351 -0.001779 0.010355 0.000000 0.005107 0.000000
# 4 0.000000 0.000000 0.000000 0.094895 0.000000 -0.007930
# 5 0.008031 -0.001372 0.005107 0.000000 0.034326 0.000000
# 6 0.000000 0.000000 0.000000 -0.007930 0.000000 0.030866
#
#
# Mechanical properties :
#
#
# Convention : Reuss Voigt Hill
#
# Bulk Modulus (GPa) = 32.97261 52.17098 42.57180
# Shear Modulus (GPa) = 22.58172 34.34766 28.46469
#
# Velocity S-wave (km/s) = 3.28058 4.04595 3.68320
# Velocity P-wave (km/s) = 5.48306 6.83303 6.19493
#
# Compressibility (1/GPa) = 0.03032820
#
# Stress axis : x y z
#
# Youngs Moduli (GPa) = 41.05481 164.95264 96.57165
#
# Poissons Ratio (x) = 0.18040 0.22704
# Poissons Ratio (y) = 0.04490 0.17178
# Poissons Ratio (z) = 0.09652 0.29341
#
# Static dielectric constant tensor:
#      x y z
#    x 1.791850 0.000000 -0.002270 
#    y 0.000000 1.719730 0.000000 
#    z -0.002270 0.000000 1.758160 
# 
# From -- ./inp_files/78385.got.cif
#   From: 2010.05.17/outbox.cif.g08.bks.cpg/sg15_40_cif.got.tgz:78385.got - 2010.06.03 18:47:42.
