data_PCOD9290766
_publ_section_title
;
Structure prediction by ZEFSAII (Michael W. Deem and Ramdas Pophale) SiO2 
 PCOD9290766
Probable space group: C 2/C
;
_chemical_formula_sum "Si O2"
_cell_formula_units_Z 56
_cell_length_a 28.586760
_cell_length_b 9.253159
_cell_length_c 11.077461
_cell_angle_alpha 90.000000
_cell_angle_beta 103.941282
_cell_angle_gamma 90.000000
_cell_volume 2843.871939
_symmetry_space_group_name_H-M "C 2/C"
_symmetry_group_IT_number 15
_symmetry_cell_setting 'monoclinic'
loop_
_space_group_symop_operation_xyz
x,y,z
-x,y,1/2-z
-x,-y,-z
x,-y,1/2+z
1/2+x,1/2+y,z
1/2-x,1/2+y,1/2-z
1/2-x,1/2-y,-z
1/2+x,1/2-y,1/2+z
loop_
_atom_site_type_symbol
_atom_site_label
_atom_site_fract_x
_atom_site_fract_y
_atom_site_fract_z
Si Si1 0.729339 0.238308 0.854260
Si Si2 0.637688 0.563956 0.291152
Si Si3 0.327885 0.296538 0.051116
Si Si4 0.919193 0.171389 0.456308
Si Si5 0.994560 0.376366 0.392039
Si Si6 0.540913 0.417187 0.879847
Si Si7 0.737534 0.094381 0.343917
O O1 0.676826 0.310019 0.818437
O O2 0.762809 0.324026 0.782526
O O3 0.729299 0.072558 0.817837
O O4 0.750000 0.250000 0.000000
O O5 0.663651 0.415240 0.340013
O O6 0.611449 0.565055 0.147285
O O7 0.594486 0.586596 0.358334
O O8 0.301832 0.158015 0.089441
O O9 0.379675 0.266057 0.023845
O O10 0.289768 0.369210 0.934984
O O11 0.943876 0.295710 0.391254
O O12 0.958073 0.066079 0.543443
O O13 0.000000 0.418078 0.250000
O O14 0.000000 0.500000 0.500000
O O15 0.031037 0.240031 0.431939
O O16 0.500000 0.429524 0.750000
#
# Coordination Sequence:
#
# PCOD9290766 Si02
#       7
#     8   8   8   8   8   8   8
#     4  12  25  41  68  95 137 183 222 277 339 398
#     4  11  21  40  67  97 131 170 227 277 344 397
#     4  10  23  41  65  97 130 171 222 287 327 405
#     4  11  22  42  71  97 129 172 227 282 334 411
#     4  11  24  45  67  97 139 177 215 278 340 405
#     4  10  22  41  69  99 130 173 225 280 343 408
#     4  11  24  41  65  96 135 175 229 272 340 395
#
# _framework density 19.691462999999999
#
# number of rings (size 3 to 8) (size 9 to 14) (size 15 to 20)
#    0.000    1.143    5.714    1.286    2.000    1.714 
#    2.571    0.000    0.000    0.000    0.000    0.000 
#    0.000    0.000    0.000    0.000    0.000    0.000 
#
# Total GULP energy -156192.683771 kJ/mol
# GULP energy per Si atom -5578.310135 kJ/mol
# Density = 1.964664 g / cm^3
# Si number density = 19.691463 Si / 1000 Ang^3
#
#
#
# Elastic Constant Matrix: (Units=GPa)
#
#
# Indices 1 2 3 4 5 6 
#
# 1 98.9061 34.9628 12.6256 0.0000 -18.6803 0.0000
# 2 34.9628 107.0599 35.9499 0.0000 -16.1772 0.0000
# 3 12.6256 35.9499 94.6999 0.0000 -6.2547 0.0000
# 4 0.0000 0.0000 0.0000 32.2065 0.0000 -6.3464
# 5 -18.6803 -16.1772 -6.2547 0.0000 25.2022 0.0000
# 6 0.0000 0.0000 0.0000 -6.3464 0.0000 23.2382
#
#
#
# Elastic Compliance Matrix: (Units=1/GPa)
#
#
# Indices 1 2 3 4 5 6 
#
# 1 0.012563 -0.002965 -0.000061 0.000000 0.007393 0.000000
# 2 -0.002965 0.012365 -0.003985 0.000000 0.004750 0.000000
# 3 -0.000061 -0.003985 0.012107 0.000000 0.000402 0.000000
# 4 0.000000 0.000000 0.000000 0.032816 0.000000 0.008962
# 5 0.007393 0.004750 0.000402 0.000000 0.048308 0.000000
# 6 0.000000 0.000000 0.000000 0.008962 0.000000 0.045480
#
#
# Mechanical properties :
#
#
# Convention : Reuss Voigt Hill
#
# Bulk Modulus (GPa) = 43.45384 51.97137 47.71261
# Shear Modulus (GPa) = 26.97870 30.60455 28.79162
#
# Velocity S-wave (km/s) = 3.70546 3.94662 3.82794
# Velocity P-wave (km/s) = 6.35787 6.87152 6.61968
#
# Compressibility (1/GPa) = 0.02301293
#
# Stress axis : x y z
#
# Youngs Moduli (GPa) = 79.59947 80.87532 82.59645
#
# Poissons Ratio (x) = 0.23980 0.00504
# Poissons Ratio (y) = 0.23601 0.32913
# Poissons Ratio (z) = 0.00486 0.32227
#
# Static dielectric constant tensor:
#      x y z
#    x 1.727330 0.000000 -0.042530 
#    y 0.000000 1.686490 0.000000 
#    z -0.042530 0.000000 1.741670 
# 
# From -- ./inp_files/121993.got.cif
#   From: 2010.05.17/outbox.cif.g08.bks.cpg/sg15_61_cif.got.tgz:121993.got - 2010.06.03 18:47:42.
