data_PCOD9290685
_publ_section_title
;
Structure prediction by ZEFSAII (Michael W. Deem and Ramdas Pophale) SiO2 
 PCOD9290685
Probable space group: C 2/C
;
_chemical_formula_sum "Si O2"
_cell_formula_units_Z 60
_cell_length_a 13.404584
_cell_length_b 11.404519
_cell_length_c 22.704134
_cell_angle_alpha 90.000000
_cell_angle_beta 127.201882
_cell_angle_gamma 90.000000
_cell_volume 2764.563179
_symmetry_space_group_name_H-M "C 2/C"
_symmetry_group_IT_number 15
_symmetry_cell_setting 'monoclinic'
loop_
_space_group_symop_operation_xyz
x,y,z
-x,y,1/2-z
-x,-y,-z
x,-y,1/2+z
1/2+x,1/2+y,z
1/2-x,1/2+y,1/2-z
1/2-x,1/2-y,-z
1/2+x,1/2-y,1/2+z
loop_
_atom_site_type_symbol
_atom_site_label
_atom_site_fract_x
_atom_site_fract_y
_atom_site_fract_z
Si Si1 0.588559 0.561284 0.402908
Si Si2 0.769614 0.613369 0.021201
Si Si3 0.664727 0.698553 0.161609
Si Si4 0.335530 0.862577 0.929772
Si Si5 0.138014 0.466069 0.817767
Si Si6 0.801257 0.722377 0.700563
Si Si7 0.390459 0.890423 0.441887
Si Si8 0.500000 0.571316 0.250000
O O1 0.642251 0.461818 0.465005
O O2 0.475099 0.643327 0.383857
O O3 0.712675 0.634867 0.427670
O O4 0.536613 0.505785 0.322813
O O5 0.827469 0.574150 0.103793
O O6 0.750000 0.750000 0.000000
O O7 0.861192 0.583761 0.999546
O O8 0.760506 0.592334 0.189201
O O9 0.698536 0.781075 0.229080
O O10 0.679346 0.780476 0.109911
O O11 0.323896 0.757854 0.878940
O O12 0.346525 0.986697 0.898691
O O13 0.464210 0.858806 0.011380
O O14 0.146677 0.606009 0.811124
O O15 0.000000 0.427146 0.750000
O O16 0.887437 0.837741 0.721906
#
# Coordination Sequence:
#
# PCOD9290685 Si02
#       8
#     8   8   8   8   8   8   8   4
#     4   9  21  41  70  99 134 181 229 296 345 409
#     4  11  24  47  65  96 145 184 233 287 346 431
#     4  11  25  43  69 104 138 179 236 288 348 423
#     4   9  21  41  66 100 131 179 223 286 351 398
#     4  12  28  47  68 101 141 190 230 289 363 418
#     4  10  22  41  68  97 136 176 227 289 333 419
#     4  10  22  42  67 100 136 182 228 283 343 427
#     4   8  16  44  62  98 132 170 234 280 342 404
#
# _framework density 21.703247999999999
#
# number of rings (size 3 to 8) (size 9 to 14) (size 15 to 20)
#    0.000    1.867    2.000    0.000    5.600    4.267 
#    1.200    0.000    0.000    0.000    0.000    0.000 
#    0.000    0.000    0.000    0.000    0.000    0.000 
#
# Total GULP energy -167191.242273 kJ/mol
# GULP energy per Si atom -5573.041409 kJ/mol
# Density = 2.165385 g / cm^3
# Si number density = 21.703248 Si / 1000 Ang^3
#
#
#
# Elastic Constant Matrix: (Units=GPa)
#
#
# Indices 1 2 3 4 5 6 
#
# 1 77.2454 18.4020 36.4354 0.0000 7.4456 0.0000
# 2 18.4020 77.1709 66.0868 0.0000 3.9786 0.0000
# 3 36.4354 66.0868 124.3368 0.0000 -11.8978 0.0000
# 4 0.0000 0.0000 0.0000 21.0852 0.0000 -6.0217
# 5 7.4456 3.9786 -11.8978 0.0000 31.7063 0.0000
# 6 0.0000 0.0000 0.0000 -6.0217 0.0000 18.6666
#
#
#
# Elastic Compliance Matrix: (Units=1/GPa)
#
#
# Indices 1 2 3 4 5 6 
#
# 1 0.016103 0.001941 -0.006364 0.000000 -0.006413 0.000000
# 2 0.001941 0.026159 -0.015383 0.000000 -0.009511 0.000000
# 3 -0.006364 -0.015383 0.019097 0.000000 0.010591 0.000000
# 4 0.000000 0.000000 0.000000 0.052239 0.000000 0.016852
# 5 -0.006413 -0.009511 0.010591 0.000000 0.038213 0.000000
# 6 0.000000 0.000000 0.000000 0.016852 0.000000 0.059008
#
#
# Mechanical properties :
#
#
# Convention : Reuss Voigt Hill
#
# Bulk Modulus (GPa) = 45.98245 57.84461 51.91353
# Shear Modulus (GPa) = 19.40380 24.81355 22.10868
#
# Velocity S-wave (km/s) = 2.99331 3.38496 3.19514
# Velocity P-wave (km/s) = 5.76016 6.47978 6.13054
#
# Compressibility (1/GPa) = 0.02174743
#
# Stress axis : x y z
#
# Youngs Moduli (GPa) = 62.09860 38.22770 52.36384
#
# Poissons Ratio (x) = -0.07419 0.33325
# Poissons Ratio (y) = -0.12051 0.80550
# Poissons Ratio (z) = 0.39520 0.58804
#
# Static dielectric constant tensor:
#      x y z
#    x 1.846720 0.000000 -0.020130 
#    y 0.000000 1.852420 0.000000 
#    z -0.020130 0.000000 1.860630 
# 
# From -- ./inp_files/273866.got.cif
#   From: 2010.05.17/outbox.cif.g08.bks.cpg/sg15_137_cif.got.tgz:273866.got - 2010.06.03 18:47:42.
