data_PCOD9290603
_publ_section_title
;
Structure prediction by ZEFSAII (Michael W. Deem and Ramdas Pophale) SiO2 
 PCOD9290603
Probable space group: C 2/C
;
_chemical_formula_sum "Si O2"
_cell_formula_units_Z 44
_cell_length_a 7.066130
_cell_length_b 28.471453
_cell_length_c 8.418455
_cell_angle_alpha 90.000000
_cell_angle_beta 91.381767
_cell_angle_gamma 90.000000
_cell_volume 1693.157443
_symmetry_space_group_name_H-M "C 2/C"
_symmetry_group_IT_number 15
_symmetry_cell_setting 'monoclinic'
loop_
_space_group_symop_operation_xyz
x,y,z
-x,y,1/2-z
-x,-y,-z
x,-y,1/2+z
1/2+x,1/2+y,z
1/2-x,1/2+y,1/2-z
1/2-x,1/2-y,-z
1/2+x,1/2-y,1/2+z
loop_
_atom_site_type_symbol
_atom_site_label
_atom_site_fract_x
_atom_site_fract_y
_atom_site_fract_z
Si Si1 0.240277 0.846283 0.617411
Si Si2 0.754868 0.458328 0.106536
Si Si3 0.250000 0.250000 0.000000
Si Si4 0.831569 0.360981 0.968889
Si Si5 0.306515 0.553772 0.539191
Si Si6 0.714432 0.777610 0.333488
O O1 0.148218 0.800773 0.540813
O O2 0.218763 0.850992 0.805497
O O3 0.460612 0.840481 0.565896
O O4 0.192368 0.896216 0.543149
O O5 0.789656 0.447240 0.290742
O O6 0.528496 0.455598 0.072816
O O7 0.840842 0.416337 0.003417
O O8 0.791786 0.512425 0.063883
O O9 0.316926 0.255090 0.186840
O O10 0.755952 0.331973 0.117909
O O11 0.500000 0.776912 0.250000
O O12 0.750000 0.750000 0.500000
#
# Coordination Sequence:
#
# PCOD9290603 Si02
#       6
#     8   8   4   8   8   8
#     4  11  24  43  69  97 137 181 237 288 362 432
#     4  10  22  41  67  97 134 176 234 290 367 427
#     4  12  24  44  72  98 142 188 238 294 358 442
#     4  11  24  44  68 100 137 182 232 299 358 432
#     4  10  22  42  66  97 134 180 228 297 356 441
#     4  12  26  46  73 103 143 193 241 302 364 431
#
# _framework density 25.986951000000001
#
# number of rings (size 3 to 8) (size 9 to 14) (size 15 to 20)
#    0.000    1.091    3.636    2.182    0.000    5.091 
#    0.000    1.818    0.000    0.000    0.000    0.000 
#    0.000    0.000    0.000    0.000    0.000    0.000 
#
# Total GULP energy -122680.587019 kJ/mol
# GULP energy per Si atom -5576.390319 kJ/mol
# Density = 2.592780 g / cm^3
# Si number density = 25.986951 Si / 1000 Ang^3
#
#
#
# Elastic Constant Matrix: (Units=GPa)
#
#
# Indices 1 2 3 4 5 6 
#
# 1 67.5898 3.7866 13.3444 0.0000 6.8467 0.0000
# 2 3.7866 203.4649 89.8466 0.0000 -3.1995 0.0000
# 3 13.3444 89.8466 215.5211 0.0000 4.9497 0.0000
# 4 0.0000 0.0000 0.0000 69.7421 0.0000 5.5490
# 5 6.8467 -3.1995 4.9497 0.0000 27.3788 0.0000
# 6 0.0000 0.0000 0.0000 5.5490 0.0000 36.9883
#
#
#
# Elastic Compliance Matrix: (Units=1/GPa)
#
#
# Indices 1 2 3 4 5 6 
#
# 1 0.015339 0.000048 -0.000885 0.000000 -0.003670 0.000000
# 2 0.000048 0.006061 -0.002556 0.000000 0.001158 0.000000
# 3 -0.000885 -0.002556 0.005786 0.000000 -0.001123 0.000000
# 4 0.000000 0.000000 0.000000 0.014512 0.000000 -0.002177
# 5 -0.003670 0.001158 -0.001123 0.000000 0.037781 0.000000
# 6 0.000000 0.000000 0.000000 -0.002177 0.000000 0.027362
#
#
# Mechanical properties :
#
#
# Convention : Reuss Voigt Hill
#
# Bulk Modulus (GPa) = 49.02325 77.83680 63.43002
# Shear Modulus (GPa) = 41.51849 52.12839 46.82344
#
# Velocity S-wave (km/s) = 4.00142 4.48364 4.24937
# Velocity P-wave (km/s) = 6.34460 7.53799 6.96690
#
# Compressibility (1/GPa) = 0.02039849
#
# Stress axis : x y z
#
# Youngs Moduli (GPa) = 65.19315 164.98964 172.82507
#
# Poissons Ratio (x) = -0.00788 0.15301
# Poissons Ratio (y) = -0.00311 0.44179
# Poissons Ratio (z) = 0.05772 0.42176
#
# Static dielectric constant tensor:
#      x y z
#    x 2.381630 0.000000 -0.072790 
#    y 0.000000 2.027780 0.000000 
#    z -0.072790 0.000000 1.971780 
# 
# From -- ./inp_files/25674.got.cif
#   From: 2010.05.17/outbox.cif.g08.bks.cpg/sg15_13_cif.got.tgz:25674.got - 2010.06.03 18:47:42.
