data_PCOD9290560
_publ_section_title
;
Structure prediction by ZEFSAII (Michael W. Deem and Ramdas Pophale) SiO2 
 PCOD9290560
Probable space group: C 2/C
;
_chemical_formula_sum "Si O2"
_cell_formula_units_Z 56
_cell_length_a 13.340697
_cell_length_b 11.875180
_cell_length_c 14.501282
_cell_angle_alpha 90.000000
_cell_angle_beta 104.691448
_cell_angle_gamma 90.000000
_cell_volume 2222.229098
_symmetry_space_group_name_H-M "C 2/C"
_symmetry_group_IT_number 15
_symmetry_cell_setting 'monoclinic'
loop_
_space_group_symop_operation_xyz
x,y,z
-x,y,1/2-z
-x,-y,-z
x,-y,1/2+z
1/2+x,1/2+y,z
1/2-x,1/2+y,1/2-z
1/2-x,1/2-y,-z
1/2+x,1/2-y,1/2+z
loop_
_atom_site_type_symbol
_atom_site_label
_atom_site_fract_x
_atom_site_fract_y
_atom_site_fract_z
Si Si1 0.116415 0.047752 0.199527
Si Si2 0.366241 0.197060 0.811649
Si Si3 0.541913 0.832473 0.863782
Si Si4 0.417368 0.438466 0.543807
Si Si5 0.195372 0.538194 0.873699
Si Si6 0.576167 0.814071 0.481253
Si Si7 0.827066 0.118944 0.627291
O O1 0.153442 0.175716 0.231008
O O2 0.996275 0.071173 0.149368
O O3 0.191439 0.004756 0.133308
O O4 0.131325 0.942946 0.271404
O O5 0.349684 0.106200 0.726900
O O6 0.476151 0.183303 0.889060
O O7 0.280428 0.174367 0.870157
O O8 0.500000 0.825631 0.750000
O O9 0.595480 0.712099 0.894263
O O10 0.627416 0.928697 0.879716
O O11 0.459648 0.856222 0.926030
O O12 0.500000 0.500000 0.500000
O O13 0.393116 0.316025 0.501726
O O14 0.324837 0.517243 0.555224
O O15 0.166742 0.620895 0.950961
#
# Coordination Sequence:
#
# PCOD9290560 Si02
#       7
#     8   8   8   8   8   8   8
#     4  10  22  41  67  92 130 168 213 269 322 382
#     4  10  22  43  70  97 126 173 219 268 317 390
#     4  12  24  40  64  94 134 172 212 267 332 383
#     4  11  22  40  63  94 123 169 217 266 314 384
#     4  11  23  42  66 100 129 169 217 269 326 390
#     4  11  24  42  70  94 130 171 222 266 319 386
#     4  11  22  39  66  93 130 168 215 263 329 380
#
# _framework density 25.199922000000001
#
# number of rings (size 3 to 8) (size 9 to 14) (size 15 to 20)
#    0.000    1.143    2.857    3.857    0.000    4.000 
#    0.000    2.143    0.000    0.000    0.000    0.000 
#    0.000    0.000    0.000    0.000    0.000    0.000 
#
# Total GULP energy -156685.907648 kJ/mol
# GULP energy per Si atom -5595.925273 kJ/mol
# Density = 2.514257 g / cm^3
# Si number density = 25.199922 Si / 1000 Ang^3
#
#
#
# Elastic Constant Matrix: (Units=GPa)
#
#
# Indices 1 2 3 4 5 6 
#
# 1 114.7548 38.4700 19.1827 0.0000 -14.5667 0.0000
# 2 38.4700 134.8808 13.1754 0.0000 -9.4687 0.0000
# 3 19.1827 13.1754 92.6394 0.0000 -24.2589 0.0000
# 4 0.0000 0.0000 0.0000 41.6257 0.0000 -15.3570
# 5 -14.5667 -9.4687 -24.2589 0.0000 42.6085 0.0000
# 6 0.0000 0.0000 0.0000 -15.3570 0.0000 38.9988
#
#
#
# Elastic Compliance Matrix: (Units=1/GPa)
#
#
# Indices 1 2 3 4 5 6 
#
# 1 0.010057 -0.002602 -0.001132 0.000000 0.002215 0.000000
# 2 -0.002602 0.008249 -0.000455 0.000000 0.000684 0.000000
# 3 -0.001132 -0.000455 0.012887 0.000000 0.006849 0.000000
# 4 0.000000 0.000000 0.000000 0.028107 0.000000 0.011068
# 5 0.002215 0.000684 0.006849 0.000000 0.028278 0.000000
# 6 0.000000 0.000000 0.000000 0.011068 0.000000 0.030000
#
#
# Mechanical properties :
#
#
# Convention : Reuss Voigt Hill
#
# Bulk Modulus (GPa) = 43.83348 53.77014 48.80181
# Shear Modulus (GPa) = 37.43562 42.74304 40.08933
#
# Velocity S-wave (km/s) = 3.85846 4.12291 3.99287
# Velocity P-wave (km/s) = 6.10593 6.63689 6.37693
#
# Compressibility (1/GPa) = 0.02281361
#
# Stress axis : x y z
#
# Youngs Moduli (GPa) = 99.43215 121.23167 77.59601
#
# Poissons Ratio (x) = 0.31548 0.08786
# Poissons Ratio (y) = 0.25875 0.03531
# Poissons Ratio (z) = 0.11259 0.05517
#
# Static dielectric constant tensor:
#      x y z
#    x 1.996430 0.000000 0.115600 
#    y 0.000000 1.935940 0.000000 
#    z 0.115600 0.000000 2.319300 
# 
# From -- ./inp_files/152606.got.cif
#   From: 2010.05.17/outbox.cif.g08.bks.cpg/sg15_77_cif.got.tgz:152606.got - 2010.06.03 18:47:42.
