data_PCOD9290861
_publ_section_title
;
Structure prediction by ZEFSAII (Michael W. Deem and Ramdas Pophale) SiO2 
 PCOD9290861
Probable space group: C 2/C
;
_chemical_formula_sum "Si O2"
_cell_formula_units_Z 56
_cell_length_a 22.588881
_cell_length_b 8.866364
_cell_length_c 17.016391
_cell_angle_alpha 90.000000
_cell_angle_beta 39.598708
_cell_angle_gamma 90.000000
_cell_volume 2172.322481
_symmetry_space_group_name_H-M "C 2/C"
_symmetry_group_IT_number 15
_symmetry_cell_setting 'monoclinic'
loop_
_space_group_symop_operation_xyz
x,y,z
-x,y,1/2-z
-x,-y,-z
x,-y,1/2+z
1/2+x,1/2+y,z
1/2-x,1/2+y,1/2-z
1/2-x,1/2-y,-z
1/2+x,1/2-y,1/2+z
loop_
_atom_site_type_symbol
_atom_site_label
_atom_site_fract_x
_atom_site_fract_y
_atom_site_fract_z
Si Si1 0.137116 0.909370 0.750148
Si Si2 0.903376 0.547386 0.166446
Si Si3 0.899650 0.231241 0.369511
Si Si4 0.904922 0.676999 0.533317
Si Si5 0.181594 0.283562 0.887430
Si Si6 0.930276 0.980629 0.969965
Si Si7 0.779102 0.776710 0.380535
O O1 0.153752 0.080081 0.702136
O O2 0.147085 0.795811 0.665604
O O3 0.218835 0.858302 0.724632
O O4 0.030309 0.908217 0.886605
O O5 0.892924 0.384938 0.135396
O O6 0.887138 0.647903 0.105295
O O7 0.658308 0.393634 0.402320
O O8 0.828162 0.620746 0.301614
O O9 0.916616 0.066400 0.392617
O O10 0.000000 0.300369 0.250000
O O11 0.992338 0.579139 0.411639
O O12 0.809089 0.674542 0.582793
O O13 0.934047 0.848158 0.488107
O O14 0.151608 0.316698 0.008106
O O15 0.750000 0.750000 0.500000
#
# Coordination Sequence:
#
# PCOD9290861 Si02
#       7
#     8   8   8   8   8   8   8
#     4  11  19  44  72 107 156 201 263 329 389 491
#     4  11  26  48  75 114 156 206 263 338 406 480
#     4   8  18  37  67 106 153 201 266 316 402 483
#     4  11  24  50  76 108 164 199 265 334 401 485
#     4  10  22  41  72 111 147 202 265 321 405 474
#     4   9  21  40  75 105 145 208 253 316 400 473
#     4  12  27  47  80 114 154 215 279 333 412 487
#
# _framework density 25.778860000000002
#
# number of rings (size 3 to 8) (size 9 to 14) (size 15 to 20)
#    0.857    0.857    2.857    1.286    0.000    3.429 
#    0.000    4.286    0.000    0.000    0.000    0.000 
#    0.000    0.000    0.000    0.000    0.000    0.000 
#
# Total GULP energy -156431.362683 kJ/mol
# GULP energy per Si atom -5586.834382 kJ/mol
# Density = 2.572019 g / cm^3
# Si number density = 25.778860 Si / 1000 Ang^3
#
#
#
# Elastic Constant Matrix: (Units=GPa)
#
#
# Indices 1 2 3 4 5 6 
#
# 1 103.5997 11.5355 54.8615 0.0008 -13.2799 -0.0006
# 2 11.5355 107.5905 49.2931 0.0032 -5.7256 -0.0039
# 3 54.8615 49.2931 143.7393 -0.0001 -2.8166 -0.0001
# 4 0.0008 0.0032 -0.0001 51.3930 -0.0012 1.3854
# 5 -13.2799 -5.7256 -2.8166 -0.0012 35.3134 0.0014
# 6 -0.0006 -0.0039 -0.0001 1.3854 0.0014 34.6225
#
#
#
# Elastic Compliance Matrix: (Units=1/GPa)
#
#
# Indices 1 2 3 4 5 6 
#
# 1 0.012895 0.001278 -0.005269 0.000000 0.004636 0.000000
# 2 0.001278 0.011232 -0.004301 -0.000001 0.001959 0.000001
# 3 -0.005269 -0.004301 0.010407 0.000000 -0.001849 0.000000
# 4 0.000000 -0.000001 0.000000 0.019479 0.000001 -0.000779
# 5 0.004636 0.001959 -0.001849 0.000001 0.030231 -0.000001
# 6 0.000000 0.000001 0.000000 -0.000779 -0.000001 0.028914
#
#
# Mechanical properties :
#
#
# Convention : Reuss Voigt Hill
#
# Bulk Modulus (GPa) = 55.71169 65.14550 60.42860
# Shear Modulus (GPa) = 36.83879 40.21508 38.52693
#
# Velocity S-wave (km/s) = 3.78435 3.95397 3.87009
# Velocity P-wave (km/s) = 6.38384 6.79492 6.59259
#
# Compressibility (1/GPa) = 0.01794956
#
# Stress axis : x y z
#
# Youngs Moduli (GPa) = 77.55091 89.02793 96.08909
#
# Poissons Ratio (x) = -0.11380 0.50630
# Poissons Ratio (y) = -0.09913 0.41332
# Poissons Ratio (z) = 0.40862 0.38295
#
# Static dielectric constant tensor:
#      x y z
#    x 2.013440 0.000000 -0.025550 
#    y 0.000000 2.097720 0.000000 
#    z -0.025550 0.000000 2.070690 
# 
# From -- ./inp_files/254811.got.cif
#   From: 2010.05.17/outbox.cif.g08.bks.cpg/sg15_128_cif.got.tgz:254811.got - 2010.06.03 18:47:42.
