data_PCOD9290074
_publ_section_title
;
Structure prediction by ZEFSAII (Michael W. Deem and Ramdas Pophale) SiO2 
 PCOD9290074
Probable space group: C 2/C
;
_chemical_formula_sum "Si O2"
_cell_formula_units_Z 48
_cell_length_a 8.719054
_cell_length_b 27.103928
_cell_length_c 14.411533
_cell_angle_alpha 90.000000
_cell_angle_beta 142.307829
_cell_angle_gamma 90.000000
_cell_volume 2082.335277
_symmetry_space_group_name_H-M "C 2/C"
_symmetry_group_IT_number 15
_symmetry_cell_setting 'monoclinic'
loop_
_space_group_symop_operation_xyz
x,y,z
-x,y,1/2-z
-x,-y,-z
x,-y,1/2+z
1/2+x,1/2+y,z
1/2-x,1/2+y,1/2-z
1/2-x,1/2-y,-z
1/2+x,1/2-y,1/2+z
loop_
_atom_site_type_symbol
_atom_site_label
_atom_site_fract_x
_atom_site_fract_y
_atom_site_fract_z
Si Si1 0.453649 0.324518 0.829499
Si Si2 0.372509 0.044226 0.880206
Si Si3 0.763380 0.791448 0.927386
Si Si4 0.927167 0.615385 0.068345
Si Si5 0.195772 0.606952 0.910303
Si Si6 0.440580 0.546294 0.534374
O O1 0.500000 0.300185 0.750000
O O2 0.442775 0.293547 0.921665
O O3 0.203167 0.360018 0.708998
O O4 0.689507 0.360267 0.954945
O O5 0.557996 0.058913 0.885228
O O6 0.099514 0.035829 0.704435
O O7 0.371081 0.094451 0.939882
O O8 0.500000 0.000000 0.000000
O O9 0.500000 0.787649 0.750000
O O10 0.756547 0.841995 0.982857
O O11 0.750000 0.750000 0.000000
O O12 0.840732 0.566194 0.083899
O O13 0.420916 0.589843 0.953803
O O14 0.000000 0.634111 0.750000
O O15 0.500000 0.500000 0.500000
#
# Coordination Sequence:
#
# PCOD9290074 Si02
#       6
#     8   8   8   8   8   8
#     4  11  22  44  76  97 139 185 233 289 362 424
#     4  11  24  39  62  97 137 185 241 288 348 421
#     4  10  24  46  73 108 138 178 233 292 361 436
#     4  11  23  42  71  98 134 185 238 287 360 416
#     4  10  22  41  60  94 134 182 227 284 353 419
#     4  11  24  39  63  94 139 185 238 294 350 415
#
# _framework density 23.051043
#
# number of rings (size 3 to 8) (size 9 to 14) (size 15 to 20)
#    0.000    1.333    3.333    1.500    2.333    1.333 
#    0.000    3.333    0.000    0.000    0.000    0.000 
#    0.000    0.000    0.000    0.000    0.000    0.000 
#
# Total GULP energy -133659.747173 kJ/mol
# GULP energy per Si atom -5569.156132 kJ/mol
# Density = 2.299858 g / cm^3
# Si number density = 23.051043 Si / 1000 Ang^3
#
#
#
# Elastic Constant Matrix: (Units=GPa)
#
#
# Indices 1 2 3 4 5 6 
#
# 1 153.8183 47.2736 35.4613 0.0000 -26.2876 0.0000
# 2 47.2736 95.3689 30.3681 0.0000 -22.0565 0.0000
# 3 35.4613 30.3681 70.3316 0.0000 -30.5724 0.0000
# 4 0.0000 0.0000 0.0000 22.9148 0.0000 -26.2190
# 5 -26.2876 -22.0565 -30.5724 0.0000 39.5419 0.0000
# 6 0.0000 0.0000 0.0000 -26.2190 0.0000 38.3040
#
#
#
# Elastic Compliance Matrix: (Units=1/GPa)
#
#
# Indices 1 2 3 4 5 6 
#
# 1 0.008242 -0.002942 -0.001833 0.000000 0.002421 0.000000
# 2 -0.002942 0.013665 -0.002943 0.000000 0.003391 0.000000
# 3 -0.001833 -0.002943 0.022849 0.000000 0.014806 0.000000
# 4 0.000000 0.000000 0.000000 0.201285 0.000000 0.137779
# 5 0.002421 0.003391 0.014806 0.000000 0.040238 0.000000
# 6 0.000000 0.000000 0.000000 0.137779 0.000000 0.120416
#
#
# Mechanical properties :
#
#
# Convention : Reuss Voigt Hill
#
# Bulk Modulus (GPa) = 34.10521 60.63608 47.37064
# Shear Modulus (GPa) = 11.57663 33.91322 22.74492
#
# Velocity S-wave (km/s) = 2.24345 3.83981 3.14462
# Velocity P-wave (km/s) = 4.64095 6.78389 5.81204
#
# Compressibility (1/GPa) = 0.02932103
#
# Stress axis : x y z
#
# Youngs Moduli (GPa) = 121.33609 73.17818 43.76498
#
# Poissons Ratio (x) = 0.21527 0.08021
# Poissons Ratio (y) = 0.35694 0.12880
# Poissons Ratio (z) = 0.22238 0.21537
#
# Static dielectric constant tensor:
#      x y z
#    x 2.014600 0.000000 -0.041510 
#    y 0.000000 1.496410 0.000000 
#    z -0.041510 0.000000 1.934190 
# 
# From -- ./inp_files/139011.got.cif
#   From: 2010.05.17/outbox.cif.g08.bks.cpg/sg15_70_cif.got.tgz:139011.got - 2010.06.03 18:47:42.
