data_PCOD9290879
_publ_section_title
;
Structure prediction by ZEFSAII (Michael W. Deem and Ramdas Pophale) SiO2 
 PCOD9290879
Probable space group: C 2/C
;
_chemical_formula_sum "Si O2"
_cell_formula_units_Z 48
_cell_length_a 11.205465
_cell_length_b 20.732643
_cell_length_c 12.906761
_cell_angle_alpha 90.000000
_cell_angle_beta 40.800848
_cell_angle_gamma 90.000000
_cell_volume 1959.305205
_symmetry_space_group_name_H-M "C 2/C"
_symmetry_group_IT_number 15
_symmetry_cell_setting 'monoclinic'
loop_
_space_group_symop_operation_xyz
x,y,z
-x,y,1/2-z
-x,-y,-z
x,-y,1/2+z
1/2+x,1/2+y,z
1/2-x,1/2+y,1/2-z
1/2-x,1/2-y,-z
1/2+x,1/2-y,1/2+z
loop_
_atom_site_type_symbol
_atom_site_label
_atom_site_fract_x
_atom_site_fract_y
_atom_site_fract_z
Si Si1 0.226836 0.970195 0.877330
Si Si2 0.839197 0.143777 0.933517
Si Si3 0.009063 0.574332 0.034827
Si Si4 0.546978 0.175038 0.841101
Si Si5 0.454263 0.569186 0.398928
Si Si6 0.964699 0.802024 0.018324
O O1 0.397574 0.934538 0.715122
O O2 0.104215 0.976207 0.855550
O O3 0.132997 0.921267 0.018471
O O4 0.232734 0.037652 0.934225
O O5 0.000000 0.158354 0.750000
O O6 0.869436 0.196259 0.006171
O O7 0.671286 0.120353 0.973011
O O8 0.965425 0.614799 0.959417
O O9 0.000000 0.500000 0.000000
O O10 0.500000 0.173585 0.750000
O O11 0.767905 0.183631 0.699641
O O12 0.463358 0.236745 0.954641
O O13 0.500000 0.566899 0.250000
O O14 0.487371 0.639765 0.421900
#
# Coordination Sequence:
#
# PCOD9290879 Si02
#       6
#     8   8   8   8   8   8
#     4  10  24  40  70 109 145 198 259 319 391 462
#     4  11  24  50  73 106 155 202 261 323 398 474
#     4  12  28  47  76 114 155 205 266 331 398 472
#     4  12  28  49  80 116 160 207 269 333 399 484
#     4  10  22  41  73 107 153 203 248 320 401 470
#     4  11  26  48  77 111 156 211 264 325 405 472
#
# _framework density 24.498480000000001
#
# number of rings (size 3 to 8) (size 9 to 14) (size 15 to 20)
#    0.000    1.000    1.667    3.000   14.000    2.000 
#    0.000    0.000    0.000    0.000    0.000    0.000 
#    0.000    0.000    0.000    0.000    0.000    0.000 
#
# Total GULP energy -133759.363077 kJ/mol
# GULP energy per Si atom -5573.306795 kJ/mol
# Density = 2.444272 g / cm^3
# Si number density = 24.498480 Si / 1000 Ang^3
#
#
#
# Elastic Constant Matrix: (Units=GPa)
#
#
# Indices 1 2 3 4 5 6 
#
# 1 96.4842 33.7190 47.2572 -0.0004 33.3174 0.0007
# 2 33.7190 154.9047 70.0153 0.0000 37.5957 0.0001
# 3 47.2572 70.0153 136.4386 -0.0001 43.2387 0.0003
# 4 -0.0004 0.0000 -0.0001 28.9957 0.0002 0.3126
# 5 33.3174 37.5957 43.2387 0.0002 51.5334 -0.0005
# 6 0.0007 0.0001 0.0003 0.3126 -0.0005 15.2474
#
#
#
# Elastic Compliance Matrix: (Units=1/GPa)
#
#
# Indices 1 2 3 4 5 6 
#
# 1 0.014047 -0.000249 -0.002611 0.000000 -0.006709 -0.000001
# 2 -0.000249 0.008877 -0.003362 0.000000 -0.003495 0.000000
# 3 -0.002611 -0.003362 0.011779 0.000000 -0.005742 0.000000
# 4 0.000000 0.000000 0.000000 0.034495 0.000000 -0.000707
# 5 -0.006709 -0.003495 -0.005742 0.000000 0.031110 0.000001
# 6 -0.000001 0.000000 0.000000 -0.000707 0.000001 0.065599
#
#
# Mechanical properties :
#
#
# Convention : Reuss Voigt Hill
#
# Bulk Modulus (GPa) = 44.92655 76.64562 60.78608
# Shear Modulus (GPa) = 26.91472 34.94437 30.92955
#
# Velocity S-wave (km/s) = 3.31815 3.78085 3.55703
# Velocity P-wave (km/s) = 5.74965 7.10025 6.46034
#
# Compressibility (1/GPa) = 0.02225856
#
# Stress axis : x y z
#
# Youngs Moduli (GPa) = 71.18850 112.64446 84.89962
#
# Poissons Ratio (x) = 0.02806 0.22171
# Poissons Ratio (y) = 0.01773 0.28542
# Poissons Ratio (z) = 0.18591 0.37869
#
# Static dielectric constant tensor:
#      x y z
#    x 1.457920 0.000000 -0.529450 
#    y 0.000000 1.939260 0.000000 
#    z -0.529450 0.000000 1.992420 
# 
# From -- ./inp_files/89425.got.cif
#   From: 2010.05.17/outbox.cif.g08.bks.cpg/sg15_45_cif.got.tgz:89425.got - 2010.06.03 18:47:42.
