data_PCOD9290978
_publ_section_title
;
Structure prediction by ZEFSAII (Michael W. Deem and Ramdas Pophale) SiO2 
 PCOD9290978
Probable space group: C 2/C
;
_chemical_formula_sum "Si O2"
_cell_formula_units_Z 40
_cell_length_a 8.934094
_cell_length_b 10.644049
_cell_length_c 21.571794
_cell_angle_alpha 90.000000
_cell_angle_beta 89.134763
_cell_angle_gamma 90.000000
_cell_volume 2051.134433
_symmetry_space_group_name_H-M "C 2/C"
_symmetry_group_IT_number 15
_symmetry_cell_setting 'monoclinic'
loop_
_space_group_symop_operation_xyz
x,y,z
-x,y,1/2-z
-x,-y,-z
x,-y,1/2+z
1/2+x,1/2+y,z
1/2-x,1/2+y,1/2-z
1/2-x,1/2-y,-z
1/2+x,1/2-y,1/2+z
loop_
_atom_site_type_symbol
_atom_site_label
_atom_site_fract_x
_atom_site_fract_y
_atom_site_fract_z
Si Si1 0.757771 0.734501 0.163740
Si Si2 0.000000 0.137300 0.250000
Si Si3 0.178772 0.131629 0.036097
Si Si4 0.000000 0.617075 0.250000
Si Si5 0.257684 0.519975 0.162705
Si Si6 0.681591 0.370619 0.966840
O O1 0.613573 0.718858 0.208539
O O2 0.737560 0.641923 0.105979
O O3 0.899530 0.699624 0.204544
O O4 0.769313 0.876850 0.140685
O O5 0.100216 0.054551 0.295685
O O6 0.998322 0.142752 0.036596
O O7 0.250000 0.250000 0.000000
O O8 0.215958 0.998066 0.004800
O O9 0.886698 0.538193 0.293155
O O10 0.256087 0.609577 0.102956
O O11 0.750000 0.250000 0.000000
#
# Coordination Sequence:
#
# PCOD9290978 Si02
#       6
#     8   4   8   4   8   8
#     4  11  22  43  66  92 129 166 215 266 318 387
#     4  10  22  42  62  92 126 172 206 264 326 376
#     4  11  24  44  67  93 128 174 214 264 323 381
#     4  10  26  38  64 100 122 166 212 262 324 382
#     4  11  22  43  64  93 128 164 214 264 320 382
#     4  11  26  43  66  97 130 171 219 267 323 380
#
# _framework density 19.501403
#
# number of rings (size 3 to 8) (size 9 to 14) (size 15 to 20)
#    0.000    1.200    4.000    1.200    2.800    2.400 
#   14.400    0.000    0.000    0.000    0.000    0.000 
#    0.000    0.000    0.000    0.000    0.000    0.000 
#
# Total GULP energy -111782.900390 kJ/mol
# GULP energy per Si atom -5589.145020 kJ/mol
# Density = 1.945702 g / cm^3
# Si number density = 19.501403 Si / 1000 Ang^3
#
#
#
# Elastic Constant Matrix: (Units=GPa)
#
#
# Indices 1 2 3 4 5 6 
#
# 1 95.3198 44.3831 51.2462 0.0000 14.0950 0.0000
# 2 44.3831 114.3757 56.1139 0.0000 8.5507 0.0000
# 3 51.2462 56.1139 149.4697 0.0000 15.8924 0.0000
# 4 0.0000 0.0000 0.0000 37.9232 0.0000 0.4367
# 5 14.0950 8.5507 15.8924 0.0000 21.0829 0.0000
# 6 0.0000 0.0000 0.0000 0.4367 0.0000 10.6752
#
#
#
# Elastic Compliance Matrix: (Units=1/GPa)
#
#
# Indices 1 2 3 4 5 6 
#
# 1 0.014770 -0.003812 -0.002987 0.000000 -0.006077 0.000000
# 2 -0.003812 0.011740 -0.003115 0.000000 0.000135 0.000000
# 3 -0.002987 -0.003115 0.009281 0.000000 -0.003736 0.000000
# 4 0.000000 0.000000 0.000000 0.026381 0.000000 -0.001079
# 5 -0.006077 0.000135 -0.003736 0.000000 0.054256 0.000000
# 6 0.000000 0.000000 0.000000 -0.001079 0.000000 0.093719
#
#
# Mechanical properties :
#
#
# Convention : Reuss Voigt Hill
#
# Bulk Modulus (GPa) = 62.63966 73.62797 68.13382
# Shear Modulus (GPa) = 21.24972 27.76442 24.50707
#
# Velocity S-wave (km/s) = 3.30457 3.77731 3.54882
# Velocity P-wave (km/s) = 6.83744 7.54064 7.19763
#
# Compressibility (1/GPa) = 0.01596433
#
# Stress axis : x y z
#
# Youngs Moduli (GPa) = 67.70322 85.17537 107.74667
#
# Poissons Ratio (x) = 0.32468 0.32182
# Poissons Ratio (y) = 0.25808 0.33564
# Poissons Ratio (z) = 0.20222 0.26532
#
# Static dielectric constant tensor:
#      x y z
#    x 1.660310 0.000000 -0.014080 
#    y 0.000000 1.654500 0.000000 
#    z -0.014080 0.000000 1.673690 
# 
# From -- ./inp_files/187848.got.cif
#   From: 2010.05.17/outbox.cif.g08.bks.cpg/sg15_94_cif.got.tgz:187848.got - 2010.06.03 18:47:42.
