data_PCOD9290094
_publ_section_title
;
Structure prediction by ZEFSAII (Michael W. Deem and Ramdas Pophale) SiO2 
 PCOD9290094
Probable space group: C 2/C
;
_chemical_formula_sum "Si O2"
_cell_formula_units_Z 32
_cell_length_a 10.400094
_cell_length_b 34.057987
_cell_length_c 8.278505
_cell_angle_alpha 90.000000
_cell_angle_beta 150.767630
_cell_angle_gamma 90.000000
_cell_volume 1431.995961
_symmetry_space_group_name_H-M "C 2/C"
_symmetry_group_IT_number 15
_symmetry_cell_setting 'monoclinic'
loop_
_space_group_symop_operation_xyz
x,y,z
-x,y,1/2-z
-x,-y,-z
x,-y,1/2+z
1/2+x,1/2+y,z
1/2-x,1/2+y,1/2-z
1/2-x,1/2-y,-z
1/2+x,1/2-y,1/2+z
loop_
_atom_site_type_symbol
_atom_site_label
_atom_site_fract_x
_atom_site_fract_y
_atom_site_fract_z
Si Si1 0.782679 0.267197 0.720022
Si Si2 0.209527 0.838187 0.850148
Si Si3 0.067064 0.456902 0.637123
Si Si4 0.461400 0.423972 0.531020
O O1 0.750000 0.250000 0.500000
O O2 0.579117 0.240752 0.593603
O O3 0.718630 0.311580 0.698127
O O4 0.086200 0.880640 0.674077
O O5 0.000000 0.821181 0.750000
O O6 0.500000 0.841046 0.250000
O O7 0.362139 0.446455 0.906797
O O8 0.000000 0.456911 0.750000
O O9 0.000000 0.500000 0.500000
O O10 0.851605 0.425772 0.334400
O O11 0.500000 0.442813 0.750000
#
# Coordination Sequence:
#
# PCOD9290094 Si02
#       4
#     8   8   8   8
#     4  10  22  41  61  93 130 175 223 273 349 390
#     4  11  23  41  68  97 132 177 229 281 339 406
#     4  12  25  44  68 103 136 180 225 277 336 410
#     4  11  23  44  68  98 138 180 222 280 345 404
#
# _framework density 22.346433000000001
#
# number of rings (size 3 to 8) (size 9 to 14) (size 15 to 20)
#    0.000    1.000    0.000    8.250    0.000    3.000 
#   13.500    0.000    0.000    0.000    0.000    0.000 
#    0.000    0.000    0.000    0.000    0.000    0.000 
#
# Total GULP energy -89244.838374 kJ/mol
# GULP energy per Si atom -5577.802398 kJ/mol
# Density = 2.229557 g / cm^3
# Si number density = 22.346433 Si / 1000 Ang^3
#
#
#
# Elastic Constant Matrix: (Units=GPa)
#
#
# Indices 1 2 3 4 5 6 
#
# 1 110.5626 21.9923 24.4898 0.0000 14.1243 0.0000
# 2 21.9923 86.6639 11.2985 0.0000 0.5417 0.0000
# 3 24.4898 11.2985 75.4922 0.0000 17.7728 0.0000
# 4 0.0000 0.0000 0.0000 22.8915 0.0000 -3.4093
# 5 14.1243 0.5417 17.7728 0.0000 53.7556 0.0000
# 6 0.0000 0.0000 0.0000 -3.4093 0.0000 24.6825
#
#
#
# Elastic Compliance Matrix: (Units=1/GPa)
#
#
# Indices 1 2 3 4 5 6 
#
# 1 0.010299 -0.002267 -0.002570 0.000000 -0.001834 0.000000
# 2 -0.002267 0.012280 -0.001316 0.000000 0.000907 0.000000
# 3 -0.002570 -0.001316 0.015306 0.000000 -0.004372 0.000000
# 4 0.000000 0.000000 0.000000 0.044602 0.000000 0.006161
# 5 -0.001834 0.000907 -0.004372 0.000000 0.020521 0.000000
# 6 0.000000 0.000000 0.000000 0.006161 0.000000 0.041365
#
#
# Mechanical properties :
#
#
# Convention : Reuss Voigt Hill
#
# Bulk Modulus (GPa) = 39.09410 43.14220 41.11815
# Shear Modulus (GPa) = 30.26518 34.59513 32.43015
#
# Velocity S-wave (km/s) = 3.68416 3.93889 3.81365
# Velocity P-wave (km/s) = 5.96908 6.32728 6.15079
#
# Compressibility (1/GPa) = 0.02557931
#
# Stress axis : x y z
#
# Youngs Moduli (GPa) = 97.09584 81.43304 65.33220
#
# Poissons Ratio (x) = 0.18461 0.16791
# Poissons Ratio (y) = 0.22012 0.08598
# Poissons Ratio (z) = 0.24954 0.10716
#
# Static dielectric constant tensor:
#      x y z
#    x 1.834750 0.000000 -0.012780 
#    y 0.000000 1.819150 0.000000 
#    z -0.012780 0.000000 1.885830 
# 
# From -- ./inp_files/35520.got.cif
#   From: 2010.05.17/outbox.cif.g08.bks.cpg/sg15_18_cif.got.tgz:35520.got - 2010.06.03 18:47:42.
