data_PCOD9290763
_publ_section_title
;
Structure prediction by ZEFSAII (Michael W. Deem and Ramdas Pophale) SiO2 
 PCOD9290763
Probable space group: C 2/C
;
_chemical_formula_sum "Si O2"
_cell_formula_units_Z 48
_cell_length_a 20.612984
_cell_length_b 20.531433
_cell_length_c 5.312213
_cell_angle_alpha 90.000000
_cell_angle_beta 59.492285
_cell_angle_gamma 90.000000
_cell_volume 1936.963983
_symmetry_space_group_name_H-M "C 2/C"
_symmetry_group_IT_number 15
_symmetry_cell_setting 'monoclinic'
loop_
_space_group_symop_operation_xyz
x,y,z
-x,y,1/2-z
-x,-y,-z
x,-y,1/2+z
1/2+x,1/2+y,z
1/2-x,1/2+y,1/2-z
1/2-x,1/2-y,-z
1/2+x,1/2-y,1/2+z
loop_
_atom_site_type_symbol
_atom_site_label
_atom_site_fract_x
_atom_site_fract_y
_atom_site_fract_z
Si Si1 0.614397 0.480451 0.635533
Si Si2 0.871822 0.826728 0.928783
Si Si3 0.115046 0.644296 0.197997
Si Si4 0.817575 0.771007 0.550246
Si Si5 0.783562 0.464281 0.792878
Si Si6 0.000000 0.456923 0.750000
Si Si7 0.000000 0.268027 0.250000
O O1 0.574340 0.499275 0.965140
O O2 0.626695 0.403717 0.603280
O O3 0.693102 0.523697 0.475333
O O4 0.811174 0.805350 0.832877
O O5 0.945141 0.783122 0.712879
O O6 0.862473 0.812304 0.247429
O O7 0.146242 0.700953 0.962974
O O8 0.182265 0.606408 0.211859
O O9 0.055831 0.683073 0.491328
O O10 0.070853 0.590625 0.129230
O O11 0.750000 0.750000 0.500000
O O12 0.809832 0.489010 0.469666
O O13 0.000000 0.500000 0.500000
#
# Coordination Sequence:
#
# PCOD9290763 Si02
#       7
#     8   8   8   8   8   4   4
#     4  10  22  41  69  98 137 175 225 290 352 411
#     4  11  24  46  69 100 143 177 243 281 354 421
#     4  11  24  44  68  95 142 176 239 272 347 413
#     4  11  26  41  69 105 136 187 227 304 349 408
#     4  10  23  38  63  95 130 178 216 277 339 403
#     4  12  25  42  62  96 133 186 230 272 328 416
#     4  10  25  48  72 102 137 200 226 296 338 420
#
# _framework density 24.781047999999998
#
# number of rings (size 3 to 8) (size 9 to 14) (size 15 to 20)
#    0.000    1.333    0.000    4.000    9.333    7.333 
#    0.000    0.833    0.000    0.000    0.000    0.000 
#    0.000    0.000    0.000    0.000    0.000    0.000 
#
# Total GULP energy -134014.538389 kJ/mol
# GULP energy per Si atom -5583.939100 kJ/mol
# Density = 2.472465 g / cm^3
# Si number density = 24.781048 Si / 1000 Ang^3
#
#
#
# Elastic Constant Matrix: (Units=GPa)
#
#
# Indices 1 2 3 4 5 6 
#
# 1 121.7524 56.6826 34.3214 0.0000 9.7176 0.0000
# 2 56.6826 171.0378 51.1288 0.0000 7.9973 0.0000
# 3 34.3214 51.1288 113.8655 0.0000 27.5064 0.0000
# 4 0.0000 0.0000 0.0000 28.9524 0.0000 -3.1812
# 5 9.7176 7.9973 27.5064 0.0000 44.5051 0.0000
# 6 0.0000 0.0000 0.0000 -3.1812 0.0000 -13.9239
#
#
#
# Elastic Compliance Matrix: (Units=1/GPa)
#
#
# Indices 1 2 3 4 5 6 
#
# 1 0.010028 -0.002816 -0.001589 0.000000 -0.000702 0.000000
# 2 -0.002816 0.007567 -0.002785 0.000000 0.000976 0.000000
# 3 -0.001589 -0.002785 0.012116 0.000000 -0.006641 0.000000
# 4 0.000000 0.000000 0.000000 0.033694 0.000000 -0.007698
# 5 -0.000702 0.000976 -0.006641 0.000000 0.026552 0.000000
# 6 0.000000 0.000000 0.000000 -0.007698 0.000000 -0.070060
#
#
# Mechanical properties :
#
#
# Convention : Reuss Voigt Hill
#
# Bulk Modulus (GPa) = 65.22268 76.76903 70.99586
# Shear Modulus (GPa) = 126.95334 29.54158 78.24746
#
# Velocity S-wave (km/s) = 7.16528 3.45643 5.62531
# Velocity P-wave (km/s) = 9.73816 6.85386 8.42042
#
# Compressibility (1/GPa) = 0.01533209
#
# Stress axis : x y z
#
# Youngs Moduli (GPa) = 99.71978 132.16050 82.53621
#
# Poissons Ratio (x) = 0.37211 0.13114
# Poissons Ratio (y) = 0.28077 0.22984
# Poissons Ratio (z) = 0.15845 0.36803
#
# Static dielectric constant tensor:
#      x y z
#    x 2.247770 0.000000 0.204370 
#    y 0.000000 1.978030 0.000000 
#    z 0.204370 0.000000 2.609990 
# 
# From -- ./inp_files/15439.got.cif
#   From: 2010.05.17/outbox.cif.g08.bks.cpg/sg15_8_cif.got.tgz:15439.got - 2010.06.03 18:47:42.
