data_PCOD9290129
_publ_section_title
;
Structure prediction by ZEFSAII (Michael W. Deem and Ramdas Pophale) SiO2 
 PCOD9290129
Probable space group: C 2/C
;
_chemical_formula_sum "Si O2"
_cell_formula_units_Z 44
_cell_length_a 17.842860
_cell_length_b 8.368237
_cell_length_c 13.769889
_cell_angle_alpha 90.000000
_cell_angle_beta 71.954863
_cell_angle_gamma 90.000000
_cell_volume 1954.897043
_symmetry_space_group_name_H-M "C 2/C"
_symmetry_group_IT_number 15
_symmetry_cell_setting 'monoclinic'
loop_
_space_group_symop_operation_xyz
x,y,z
-x,y,1/2-z
-x,-y,-z
x,-y,1/2+z
1/2+x,1/2+y,z
1/2-x,1/2+y,1/2-z
1/2-x,1/2-y,-z
1/2+x,1/2-y,1/2+z
loop_
_atom_site_type_symbol
_atom_site_label
_atom_site_fract_x
_atom_site_fract_y
_atom_site_fract_z
Si Si1 0.926462 0.058603 0.095423
Si Si2 0.290021 0.080508 0.018779
Si Si3 0.876606 0.519400 0.799170
Si Si4 0.208038 0.698229 0.845649
Si Si5 0.860592 0.720315 0.172384
Si Si6 0.500000 0.730168 0.250000
O O1 0.879046 0.901941 0.144819
O O2 0.861051 0.187120 0.082911
O O3 0.963264 0.130159 0.178508
O O4 0.000000 0.000000 0.000000
O O5 0.356419 0.137424 0.069045
O O6 0.253531 0.934352 0.097639
O O7 0.250000 0.250000 0.000000
O O8 0.318200 0.991911 0.911027
O O9 0.835130 0.606632 0.725248
O O10 0.914850 0.368124 0.729628
O O11 0.935678 0.649425 0.818643
O O12 0.276377 0.791182 0.761020
#
# Coordination Sequence:
#
# PCOD9290129 Si02
#       6
#     8   8   8   8   8   4
#     4  11  24  44  68  97 138 179 227 284 343 418
#     4  11  22  39  67  95 132 175 221 278 346 407
#     4  10  22  41  62  92 127 174 216 277 335 408
#     4  10  23  41  65 100 134 167 226 288 339 395
#     4  11  23  42  68  98 138 170 226 294 341 394
#     4  10  24  42  62  88 130 176 220 264 340 412
#
# _framework density 22.507579
#
# number of rings (size 3 to 8) (size 9 to 14) (size 15 to 20)
#    0.000    1.455    1.818    3.273    2.545    4.364 
#    0.000    5.455    0.000    0.000    0.000    0.000 
#    0.000    0.000    0.000    0.000    0.000    0.000 
#
# Total GULP energy -122542.434578 kJ/mol
# GULP energy per Si atom -5570.110663 kJ/mol
# Density = 2.245635 g / cm^3
# Si number density = 22.507579 Si / 1000 Ang^3
#
#
#
# Elastic Constant Matrix: (Units=GPa)
#
#
# Indices 1 2 3 4 5 6 
#
# 1 49.3803 14.3610 19.4735 0.0000 -2.5328 0.0000
# 2 14.3610 108.7206 38.6929 0.0000 4.5598 0.0000
# 3 19.4735 38.6929 114.7596 0.0000 -5.3678 0.0000
# 4 0.0000 0.0000 0.0000 44.9897 0.0000 0.9342
# 5 -2.5328 4.5598 -5.3678 0.0000 29.4060 0.0000
# 6 0.0000 0.0000 0.0000 0.9342 0.0000 28.6473
#
#
#
# Elastic Compliance Matrix: (Units=1/GPa)
#
#
# Indices 1 2 3 4 5 6 
#
# 1 0.022084 -0.001909 -0.003027 0.000000 0.001646 0.000000
# 2 -0.001909 0.010771 -0.003423 0.000000 -0.002459 0.000000
# 3 -0.003027 -0.003423 0.010484 0.000000 0.002184 0.000000
# 4 0.000000 0.000000 0.000000 0.022242 0.000000 -0.000725
# 5 0.001646 -0.002459 0.002184 0.000000 0.034928 0.000000
# 6 0.000000 0.000000 0.000000 -0.000725 0.000000 0.034931
#
#
# Mechanical properties :
#
#
# Convention : Reuss Voigt Hill
#
# Bulk Modulus (GPa) = 37.56287 46.43505 41.99896
# Shear Modulus (GPa) = 31.04969 33.96415 32.50692
#
# Velocity S-wave (km/s) = 3.71822 3.88881 3.80447
# Velocity P-wave (km/s) = 5.92948 6.39057 6.16434
#
# Compressibility (1/GPa) = 0.02662204
#
# Stress axis : x y z
#
# Youngs Moduli (GPa) = 45.28122 92.83883 95.38616
#
# Poissons Ratio (x) = 0.17722 0.28872
# Poissons Ratio (y) = 0.08644 0.32649
# Poissons Ratio (z) = 0.13706 0.31777
#
# Static dielectric constant tensor:
#      x y z
#    x 1.931940 0.000000 -0.024410 
#    y 0.000000 1.994930 0.000000 
#    z -0.024410 0.000000 1.774860 
# 
# From -- ./inp_files/110042.got.cif
#   From: 2010.05.17/outbox.cif.g08.bks.cpg/sg15_56_cif.got.tgz:110042.got - 2010.06.03 18:47:42.
