data_PCOD9290737
_publ_section_title
;
Structure prediction by ZEFSAII (Michael W. Deem and Ramdas Pophale) SiO2 
 PCOD9290737
Probable space group: C 2/C
;
_chemical_formula_sum "Si O2"
_cell_formula_units_Z 52
_cell_length_a 31.005811
_cell_length_b 10.405828
_cell_length_c 12.162055
_cell_angle_alpha 90.000000
_cell_angle_beta 39.985526
_cell_angle_gamma 90.000000
_cell_volume 2521.525801
_symmetry_space_group_name_H-M "C 2/C"
_symmetry_group_IT_number 15
_symmetry_cell_setting 'monoclinic'
loop_
_space_group_symop_operation_xyz
x,y,z
-x,y,1/2-z
-x,-y,-z
x,-y,1/2+z
1/2+x,1/2+y,z
1/2-x,1/2+y,1/2-z
1/2-x,1/2-y,-z
1/2+x,1/2-y,1/2+z
loop_
_atom_site_type_symbol
_atom_site_label
_atom_site_fract_x
_atom_site_fract_y
_atom_site_fract_z
Si Si1 0.967779 0.627370 0.620395
Si Si2 0.640540 0.983161 0.997051
Si Si3 0.000000 0.805689 0.750000
Si Si4 0.748641 0.887617 0.645189
Si Si5 0.261258 0.610961 0.862747
Si Si6 0.625990 0.487591 0.486149
Si Si7 0.432462 0.765908 0.953770
O O1 0.011253 0.715342 0.620087
O O2 0.944380 0.708842 0.560177
O O3 0.000000 0.500000 0.500000
O O4 0.909804 0.582299 0.818973
O O5 0.710781 0.001701 0.922510
O O6 0.671602 0.914043 0.830158
O O7 0.608952 0.114933 0.015228
O O8 0.935118 0.897207 0.855265
O O9 0.760980 0.740534 0.656652
O O10 0.751181 0.882157 0.510446
O O11 0.809050 0.982794 0.563157
O O12 0.337897 0.581800 0.685987
O O13 0.599462 0.626905 0.503556
O O14 0.500000 0.767202 0.750000
#
# Coordination Sequence:
#
# PCOD9290737 Si02
#       7
#     8   8   4   8   8   8   8
#     4  12  26  44  71 100 134 182 232 285 339 410
#     4  11  22  44  66 100 132 176 234 286 340 403
#     4  12  28  46  70 104 142 182 226 286 346 416
#     4  10  22  43  68  96 134 179 229 281 339 408
#     4  10  22  41  69  94 131 182 225 281 343 407
#     4  11  25  43  66 105 140 177 228 280 348 416
#     4  12  24  44  68  99 143 181 227 286 347 412
#
# _framework density 20.622433000000001
#
# number of rings (size 3 to 8) (size 9 to 14) (size 15 to 20)
#    0.000    0.923    3.846    2.769    2.154    4.308 
#    0.000    2.308    0.000    0.000    0.000    0.000 
#    0.000    0.000    0.000    0.000    0.000    0.000 
#
# Total GULP energy -144861.157446 kJ/mol
# GULP energy per Si atom -5571.582979 kJ/mol
# Density = 2.057550 g / cm^3
# Si number density = 20.622433 Si / 1000 Ang^3
#
#
#
# Elastic Constant Matrix: (Units=GPa)
#
#
# Indices 1 2 3 4 5 6 
#
# 1 59.9431 24.0689 34.5086 0.0000 2.5674 0.0000
# 2 24.0689 81.3937 45.0438 0.0000 1.3570 0.0000
# 3 34.5086 45.0438 147.9289 0.0000 -3.4361 0.0000
# 4 0.0000 0.0000 0.0000 14.2631 0.0000 -9.2210
# 5 2.5674 1.3570 -3.4361 0.0000 29.4943 0.0000
# 6 0.0000 0.0000 0.0000 -9.2210 0.0000 28.9483
#
#
#
# Elastic Compliance Matrix: (Units=1/GPa)
#
#
# Indices 1 2 3 4 5 6 
#
# 1 0.020453 -0.004027 -0.003592 0.000000 -0.002014 0.000000
# 2 -0.004027 0.015612 -0.003833 0.000000 -0.000814 0.000000
# 3 -0.003592 -0.003833 0.008800 0.000000 0.001514 0.000000
# 4 0.000000 0.000000 0.000000 0.088293 0.000000 0.028124
# 5 -0.002014 -0.000814 0.001514 0.000000 0.034294 0.000000
# 6 0.000000 0.000000 0.000000 0.028124 0.000000 0.043503
#
#
# Mechanical properties :
#
#
# Convention : Reuss Voigt Hill
#
# Bulk Modulus (GPa) = 45.53467 55.16762 50.35114
# Shear Modulus (GPa) = 20.73141 26.91742 23.82441
#
# Velocity S-wave (km/s) = 3.17406 3.61674 3.40261
# Velocity P-wave (km/s) = 5.96330 6.65210 6.31710
#
# Compressibility (1/GPa) = 0.02196129
#
# Stress axis : x y z
#
# Youngs Moduli (GPa) = 48.89141 64.05467 113.63246
#
# Poissons Ratio (x) = 0.25794 0.40816
# Poissons Ratio (y) = 0.19688 0.43558
# Poissons Ratio (z) = 0.17562 0.24554
#
# Static dielectric constant tensor:
#      x y z
#    x 1.792020 0.000000 0.023150 
#    y 0.000000 1.893020 0.000000 
#    z 0.023150 0.000000 1.795510 
# 
# From -- ./inp_files/126399.got.cif
#   From: 2010.05.17/outbox.cif.g08.bks.cpg/sg15_64_cif.got.tgz:126399.got - 2010.06.03 18:47:42.
