data_PCOD9290317
_publ_section_title
;
Structure prediction by ZEFSAII (Michael W. Deem and Ramdas Pophale) SiO2 
 PCOD9290317
Probable space group: C 2/C
;
_chemical_formula_sum "Si O2"
_cell_formula_units_Z 40
_cell_length_a 4.911815
_cell_length_b 17.499710
_cell_length_c 23.688792
_cell_angle_alpha 90.000000
_cell_angle_beta 58.223246
_cell_angle_gamma 90.000000
_cell_volume 1730.968094
_symmetry_space_group_name_H-M "C 2/C"
_symmetry_group_IT_number 15
_symmetry_cell_setting 'monoclinic'
loop_
_space_group_symop_operation_xyz
x,y,z
-x,y,1/2-z
-x,-y,-z
x,-y,1/2+z
1/2+x,1/2+y,z
1/2-x,1/2+y,1/2-z
1/2-x,1/2-y,-z
1/2+x,1/2-y,1/2+z
loop_
_atom_site_type_symbol
_atom_site_label
_atom_site_fract_x
_atom_site_fract_y
_atom_site_fract_z
Si Si1 0.530872 0.830999 0.910002
Si Si2 0.357295 0.896751 0.206937
Si Si3 0.152030 0.521799 0.104141
Si Si4 0.336192 0.907695 0.496305
Si Si5 0.453575 0.223809 0.600152
O O1 0.858089 0.791755 0.890975
O O2 0.306215 0.764175 0.911351
O O3 0.555203 0.901930 0.865036
O O4 0.436859 0.876679 0.978237
O O5 0.500000 0.866434 0.250000
O O6 0.605256 0.961286 0.158682
O O7 0.324353 0.831078 0.163240
O O8 0.000000 0.930198 0.250000
O O9 0.507889 0.556468 0.056142
O O10 0.046504 0.471854 0.060481
O O11 0.308836 0.830703 0.461781
#
# Coordination Sequence:
#
# PCOD9290317 Si02
#       5
#     8   8   8   8   8
#     4  12  22  41  64 105 135 174 211 274 335 407
#     4  11  26  50  69  89 126 181 235 282 332 401
#     4  10  24  41  68 101 135 177 223 269 339 399
#     4  10  22  41  65 103 144 175 208 271 337 418
#     4  11  25  40  68  98 134 177 221 269 344 400
#
# _framework density 23.108453999999998
#
# number of rings (size 3 to 8) (size 9 to 14) (size 15 to 20)
#    0.000    1.200    2.000    3.000    5.600    0.000 
#    0.000    6.000    0.000    0.000    0.000    0.000 
#    0.000    0.000    0.000    0.000    0.000    0.000 
#
# Total GULP energy -111666.554487 kJ/mol
# GULP energy per Si atom -5583.327724 kJ/mol
# Density = 2.305586 g / cm^3
# Si number density = 23.108454 Si / 1000 Ang^3
#
#
#
# Elastic Constant Matrix: (Units=GPa)
#
#
# Indices 1 2 3 4 5 6 
#
# 1 106.8760 20.7388 33.0040 0.0000 24.0652 0.0000
# 2 20.7388 143.8500 36.1196 0.0000 12.8474 0.0000
# 3 33.0040 36.1196 77.1265 0.0000 13.4411 0.0000
# 4 0.0000 0.0000 0.0000 11.7526 0.0000 9.5118
# 5 24.0652 12.8474 13.4411 0.0000 23.7280 0.0000
# 6 0.0000 0.0000 0.0000 9.5118 0.0000 46.5505
#
#
#
# Elastic Compliance Matrix: (Units=1/GPa)
#
#
# Indices 1 2 3 4 5 6 
#
# 1 0.012975 0.000034 -0.003630 0.000000 -0.011122 0.000000
# 2 0.000034 0.008005 -0.003331 0.000000 -0.002482 0.000000
# 3 -0.003630 -0.003331 0.016780 0.000000 -0.004020 0.000000
# 4 0.000000 0.000000 0.000000 0.101947 0.000000 -0.020831
# 5 -0.011122 -0.002482 -0.004020 0.000000 0.057045 0.000000
# 6 0.000000 0.000000 0.000000 -0.020831 0.000000 0.025738
#
#
# Mechanical properties :
#
#
# Convention : Reuss Voigt Hill
#
# Bulk Modulus (GPa) = 41.83055 56.39749 49.11402
# Shear Modulus (GPa) = 20.46559 32.27223 26.36891
#
# Velocity S-wave (km/s) = 2.97919 3.74111 3.38167
# Velocity P-wave (km/s) = 5.47496 6.56656 6.04545
#
# Compressibility (1/GPa) = 0.02390597
#
# Stress axis : x y z
#
# Youngs Moduli (GPa) = 77.06933 124.92545 59.59627
#
# Poissons Ratio (x) = -0.00427 0.21634
# Poissons Ratio (y) = -0.00263 0.19851
# Poissons Ratio (z) = 0.27977 0.41611
#
# Static dielectric constant tensor:
#      x y z
#    x 1.897690 0.000000 0.026290 
#    y 0.000000 1.902390 0.000000 
#    z 0.026290 0.000000 1.946560 
# 
# From -- ./inp_files/226728.got.cif
#   From: 2010.05.17/outbox.cif.g08.bks.cpg/sg15_114_cif.got.tgz:226728.got - 2010.06.03 18:47:42.
