data_PCOD9290687
_publ_section_title
;
Structure prediction by ZEFSAII (Michael W. Deem and Ramdas Pophale) SiO2 
 PCOD9290687
Probable space group: C 2/C
;
_chemical_formula_sum "Si O2"
_cell_formula_units_Z 60
_cell_length_a 26.694201
_cell_length_b 14.502101
_cell_length_c 21.259644
_cell_angle_alpha 90.000000
_cell_angle_beta 18.408896
_cell_angle_gamma 90.000000
_cell_volume 2599.028006
_symmetry_space_group_name_H-M "C 2/C"
_symmetry_group_IT_number 15
_symmetry_cell_setting 'monoclinic'
loop_
_space_group_symop_operation_xyz
x,y,z
-x,y,1/2-z
-x,-y,-z
x,-y,1/2+z
1/2+x,1/2+y,z
1/2-x,1/2+y,1/2-z
1/2-x,1/2-y,-z
1/2+x,1/2-y,1/2+z
loop_
_atom_site_type_symbol
_atom_site_label
_atom_site_fract_x
_atom_site_fract_y
_atom_site_fract_z
Si Si1 0.775652 0.358206 0.467821
Si Si2 0.143753 0.880775 0.762538
Si Si3 0.452649 0.810439 0.066716
Si Si4 0.968229 0.943963 0.150155
Si Si5 0.500000 0.521830 0.250000
Si Si6 0.311216 0.726382 0.121025
Si Si7 0.896795 0.384870 0.935734
Si Si8 0.532232 0.061997 0.577321
O O1 0.750000 0.250000 0.500000
O O2 0.729899 0.388458 0.592176
O O3 0.651775 0.411408 0.570972
O O4 0.944651 0.385796 0.239171
O O5 0.286199 0.903403 0.640529
O O6 0.014622 0.961793 0.910520
O O7 0.077096 0.779027 0.853222
O O8 0.628975 0.799680 0.828395
O O9 0.326892 0.796625 0.161188
O O10 0.449272 0.902310 0.112694
O O11 0.785346 0.913782 0.359369
O O12 0.000219 0.964082 0.185586
O O13 0.081256 0.862273 0.993723
O O14 0.387398 0.781347 0.972281
O O15 0.966744 0.455198 0.904743
O O16 0.000000 0.393958 0.750000
#
# Coordination Sequence:
#
# PCOD9290687 Si02
#       8
#     8   8   8   8   4   8   8   8
#     4  11  22  36  66 105 142 177 230 296 358 412
#     4  10  22  41  68  97 144 184 228 286 354 427
#     4  12  25  43  69 105 140 190 236 282 358 436
#     4  10  24  46  68  99 138 186 227 301 353 425
#     4  10  24  40  66 104 136 180 240 282 370 422
#     4  12  27  46  70 102 138 186 250 287 356 419
#     4  11  25  48  74 103 137 183 242 304 363 411
#     4  11  23  42  70 101 142 182 233 290 355 431
#
# _framework density 23.085553000000001
#
# number of rings (size 3 to 8) (size 9 to 14) (size 15 to 20)
#    0.000    1.067    4.000    2.800    2.800    6.933 
#    0.000    0.000    0.000    0.000    0.000    0.000 
#    0.000    0.000    0.000    0.000    0.000    0.000 
#
# Total GULP energy -167835.575048 kJ/mol
# GULP energy per Si atom -5594.519168 kJ/mol
# Density = 2.303301 g / cm^3
# Si number density = 23.085553 Si / 1000 Ang^3
#
#
#
# Elastic Constant Matrix: (Units=GPa)
#
#
# Indices 1 2 3 4 5 6 
#
# 1 62.3020 -0.4290 -4.0153 0.0049 1.1159 -0.0021
# 2 -0.4290 77.6521 31.3129 0.0061 9.4316 -0.0030
# 3 -4.0153 31.3129 83.1892 0.0066 4.7548 -0.0028
# 4 0.0049 0.0061 0.0066 23.9866 -0.0037 6.0845
# 5 1.1159 9.4316 4.7548 -0.0037 29.9470 0.0017
# 6 -0.0021 -0.0030 -0.0028 6.0845 0.0017 29.7671
#
#
#
# Elastic Compliance Matrix: (Units=1/GPa)
#
#
# Indices 1 2 3 4 5 6 
#
# 1 0.016119 -0.000186 0.000887 -0.000004 -0.000683 0.000002
# 2 -0.000186 0.015652 -0.005671 -0.000004 -0.004022 0.000002
# 3 0.000887 -0.005671 0.014227 -0.000003 -0.000506 0.000002
# 4 -0.000004 -0.000004 -0.000003 0.043970 0.000008 -0.008988
# 5 -0.000683 -0.004022 -0.000506 0.000008 0.034765 -0.000004
# 6 0.000002 0.000002 0.000002 -0.008988 -0.000004 0.035431
#
#
# Mechanical properties :
#
#
# Convention : Reuss Voigt Hill
#
# Bulk Modulus (GPa) = 27.73200 30.76449 29.24824
# Shear Modulus (GPa) = 27.45408 29.82513 28.63961
#
# Velocity S-wave (km/s) = 3.45227 3.59825 3.52602
# Velocity P-wave (km/s) = 5.28485 5.53340 5.41055
#
# Compressibility (1/GPa) = 0.03605943
#
# Stress axis : x y z
#
# Youngs Moduli (GPa) = 62.03871 63.88912 70.28905
#
# Poissons Ratio (x) = 0.01186 -0.06234
# Poissons Ratio (y) = 0.01152 0.39858
# Poissons Ratio (z) = -0.05502 0.36229
#
# Static dielectric constant tensor:
#      x y z
#    x 1.915960 0.000010 -0.028810 
#    y 0.000010 1.906750 -0.000020 
#    z -0.028810 -0.000020 2.028270 
# 
# From -- ./inp_files/257859.got.cif
#   From: 2010.05.17/outbox.cif.g08.bks.cpg/sg15_129_cif.got.tgz:257859.got - 2010.06.03 18:47:42.
