data_PCOD9290660
_publ_section_title
;
Structure prediction by ZEFSAII (Michael W. Deem and Ramdas Pophale) SiO2 
 PCOD9290660
Probable space group: C 2/C
;
_chemical_formula_sum "Si O2"
_cell_formula_units_Z 40
_cell_length_a 22.128035
_cell_length_b 5.297992
_cell_length_c 15.068292
_cell_angle_alpha 90.000000
_cell_angle_beta 90.558451
_cell_angle_gamma 90.000000
_cell_volume 1766.434532
_symmetry_space_group_name_H-M "C 2/C"
_symmetry_group_IT_number 15
_symmetry_cell_setting 'monoclinic'
loop_
_space_group_symop_operation_xyz
x,y,z
-x,y,1/2-z
-x,-y,-z
x,-y,1/2+z
1/2+x,1/2+y,z
1/2-x,1/2+y,1/2-z
1/2-x,1/2-y,-z
1/2+x,1/2-y,1/2+z
loop_
_atom_site_type_symbol
_atom_site_label
_atom_site_fract_x
_atom_site_fract_y
_atom_site_fract_z
Si Si1 0.513529 0.925200 0.851045
Si Si2 0.131054 0.825828 0.407551
Si Si3 0.754024 0.969690 0.697341
Si Si4 0.789463 0.499307 0.982420
Si Si5 0.555656 0.691749 0.501216
O O1 0.500000 0.996194 0.750000
O O2 0.569124 0.724491 0.853549
O O3 0.540016 0.138440 0.915997
O O4 0.454361 0.831897 0.905146
O O5 0.183317 0.940565 0.347115
O O6 0.154100 0.567313 0.454943
O O7 0.114836 0.025100 0.485098
O O8 0.741526 0.181902 0.770894
O O9 0.701564 0.991442 0.622747
O O10 0.750000 0.750000 0.000000
O O11 0.750000 0.250000 0.000000
O O12 0.500000 0.500000 0.500000
#
# Coordination Sequence:
#
# PCOD9290660 Si02
#       5
#     8   8   8   8   8
#     4  10  22  42  69 100 137 175 238 300 350 437
#     4  10  23  41  70  91 138 191 223 293 368 426
#     4  11  24  42  63 104 140 173 237 294 340 427
#     4  10  22  41  68  93 134 183 227 282 349 423
#     4   9  21  42  64  97 134 175 233 283 364 431
#
# _framework density 22.644487000000002
#
# number of rings (size 3 to 8) (size 9 to 14) (size 15 to 20)
#    0.000    2.000    0.000    2.400    8.400    4.800 
#   10.800    0.000    0.000    0.000    0.000    0.000 
#    0.000    0.000    0.000    0.000    0.000    0.000 
#
# Total GULP energy -111573.280287 kJ/mol
# GULP energy per Si atom -5578.664014 kJ/mol
# Density = 2.259295 g / cm^3
# Si number density = 22.644487 Si / 1000 Ang^3
#
#
#
# Elastic Constant Matrix: (Units=GPa)
#
#
# Indices 1 2 3 4 5 6 
#
# 1 99.3320 17.7825 30.9781 0.0000 -12.7364 0.0000
# 2 17.7825 95.8820 13.3472 0.0000 -11.6494 0.0000
# 3 30.9781 13.3472 123.0524 0.0000 -3.3612 0.0000
# 4 0.0000 0.0000 0.0000 40.4204 0.0000 -12.5754
# 5 -12.7364 -11.6494 -3.3612 0.0000 20.5625 0.0000
# 6 0.0000 0.0000 0.0000 -12.5754 0.0000 31.8719
#
#
#
# Elastic Compliance Matrix: (Units=1/GPa)
#
#
# Indices 1 2 3 4 5 6 
#
# 1 0.011915 -0.001063 -0.002711 0.000000 0.006335 0.000000
# 2 -0.001063 0.011431 -0.000817 0.000000 0.005684 0.000000
# 3 -0.002711 -0.000817 0.008879 0.000000 -0.000691 0.000000
# 4 0.000000 0.000000 0.000000 0.028202 0.000000 0.011127
# 5 0.006335 0.005684 -0.000691 0.000000 0.055664 0.000000
# 6 0.000000 0.000000 0.000000 0.011127 0.000000 0.035766
#
#
# Mechanical properties :
#
#
# Convention : Reuss Voigt Hill
#
# Bulk Modulus (GPa) = 43.39722 49.16467 46.28094
# Shear Modulus (GPa) = 29.63490 35.64820 32.64155
#
# Velocity S-wave (km/s) = 3.62152 3.97199 3.80080
# Velocity P-wave (km/s) = 6.05751 6.54174 6.30427
#
# Compressibility (1/GPa) = 0.02304295
#
# Stress axis : x y z
#
# Youngs Moduli (GPa) = 83.92529 87.48183 112.62596
#
# Poissons Ratio (x) = 0.09297 0.30537
# Poissons Ratio (y) = 0.08919 0.09203
# Poissons Ratio (z) = 0.22755 0.07148
#
# Static dielectric constant tensor:
#      x y z
#    x 1.959470 0.000000 0.010350 
#    y 0.000000 1.955510 0.000000 
#    z 0.010350 0.000000 1.877690 
# 
# From -- ./inp_files/175126.got.cif
#   From: 2010.05.17/outbox.cif.g08.bks.cpg/sg15_88_cif.got.tgz:175126.got - 2010.06.03 18:47:42.
