data_PCOD9290884
_publ_section_title
;
Structure prediction by ZEFSAII (Michael W. Deem and Ramdas Pophale) SiO2 
 PCOD9290884
Probable space group: C 2/C
;
_chemical_formula_sum "Si O2"
_cell_formula_units_Z 56
_cell_length_a 17.625418
_cell_length_b 11.440186
_cell_length_c 14.849588
_cell_angle_alpha 90.000000
_cell_angle_beta 64.323228
_cell_angle_gamma 90.000000
_cell_volume 2698.568959
_symmetry_space_group_name_H-M "C 2/C"
_symmetry_group_IT_number 15
_symmetry_cell_setting 'monoclinic'
loop_
_space_group_symop_operation_xyz
x,y,z
-x,y,1/2-z
-x,-y,-z
x,-y,1/2+z
1/2+x,1/2+y,z
1/2-x,1/2+y,1/2-z
1/2-x,1/2-y,-z
1/2+x,1/2-y,1/2+z
loop_
_atom_site_type_symbol
_atom_site_label
_atom_site_fract_x
_atom_site_fract_y
_atom_site_fract_z
Si Si1 0.985968 0.970756 0.403211
Si Si2 0.212913 0.715233 0.663831
Si Si3 0.817809 0.839340 0.424096
Si Si4 0.549183 0.880386 0.978095
Si Si5 0.378472 0.722732 0.702517
Si Si6 0.225630 0.421131 0.984154
Si Si7 0.966074 0.771169 0.673290
O O1 0.899833 0.896706 0.432093
O O2 0.062756 0.890273 0.333233
O O3 0.000000 0.000000 0.500000
O O4 0.997920 0.096502 0.349425
O O5 0.295857 0.710485 0.682539
O O6 0.215119 0.602243 0.596595
O O7 0.215782 0.821177 0.589938
O O8 0.133287 0.745704 0.766874
O O9 0.750000 0.750000 0.500000
O O10 0.851924 0.771887 0.319121
O O11 0.763444 0.955967 0.435526
O O12 0.569303 0.827648 0.869745
O O13 0.636291 0.902703 0.984135
O O14 0.499674 0.789017 0.065815
O O15 0.500000 0.000000 0.000000
O O16 0.000000 0.718369 0.750000
#
# Coordination Sequence:
#
# PCOD9290884 Si02
#       7
#     8   8   8   8   8   8   8
#     4  12  25  46  78 103 142 192 244 299 366 448
#     4  10  22  41  74 101 133 180 243 300 356 423
#     4  12  29  46  71 106 149 188 237 306 379 443
#     4  11  26  44  68 100 145 191 235 300 369 441
#     4  11  25  46  68 102 143 185 236 301 371 436
#     4  10  22  45  66 101 138 177 236 298 355 430
#     4  12  23  44  74 105 135 187 251 298 350 434
#
# _framework density 20.751740000000002
#
# number of rings (size 3 to 8) (size 9 to 14) (size 15 to 20)
#    0.000    0.857    2.857    3.857    8.000    1.143 
#    2.571    0.000    0.000    0.000    0.000    0.000 
#    0.000    0.000    0.000    0.000    0.000    0.000 
#
# Total GULP energy -156309.008262 kJ/mol
# GULP energy per Si atom -5582.464581 kJ/mol
# Density = 2.070451 g / cm^3
# Si number density = 20.751740 Si / 1000 Ang^3
#
#
#
# Elastic Constant Matrix: (Units=GPa)
#
#
# Indices 1 2 3 4 5 6 
#
# 1 75.8339 36.3631 52.7684 0.0000 -21.4653 0.0000
# 2 36.3631 107.9090 59.1217 0.0000 -10.1722 0.0000
# 3 52.7684 59.1217 172.7511 0.0000 -9.8452 0.0000
# 4 0.0000 0.0000 0.0000 14.9967 0.0000 -5.0250
# 5 -21.4653 -10.1722 -9.8452 0.0000 36.9867 0.0000
# 6 0.0000 0.0000 0.0000 -5.0250 0.0000 28.0308
#
#
#
# Elastic Compliance Matrix: (Units=1/GPa)
#
#
# Indices 1 2 3 4 5 6 
#
# 1 0.020917 -0.003597 -0.004593 0.000000 0.009928 0.000000
# 2 -0.003597 0.012192 -0.003048 0.000000 0.000454 0.000000
# 3 -0.004593 -0.003048 0.008159 0.000000 -0.001332 0.000000
# 4 0.000000 0.000000 0.000000 0.070943 0.000000 0.012718
# 5 0.009928 0.000454 -0.001332 0.000000 0.032569 0.000000
# 6 0.000000 0.000000 0.000000 0.012718 0.000000 0.037955
#
#
# Mechanical properties :
#
#
# Convention : Reuss Voigt Hill
#
# Bulk Modulus (GPa) = 53.21034 72.55561 62.88298
# Shear Modulus (GPa) = 23.64368 29.88557 26.76462
#
# Velocity S-wave (km/s) = 3.37910 3.79904 3.59521
# Velocity P-wave (km/s) = 6.39699 7.36771 6.89944
#
# Compressibility (1/GPa) = 0.01879334
#
# Stress axis : x y z
#
# Youngs Moduli (GPa) = 47.80753 82.02230 122.56738
#
# Poissons Ratio (x) = 0.29500 0.56292
# Poissons Ratio (y) = 0.17194 0.37358
# Poissons Ratio (z) = 0.21957 0.25000
#
# Static dielectric constant tensor:
#      x y z
#    x 1.752950 0.000000 0.031390 
#    y 0.000000 1.744230 0.000000 
#    z 0.031390 0.000000 1.631940 
# 
# From -- ./inp_files/161239.got.cif
#   From: 2010.05.17/outbox.cif.g08.bks.cpg/sg15_81_cif.got.tgz:161239.got - 2010.06.03 18:47:42.
