data_PCOD9290453
_publ_section_title
;
Structure prediction by ZEFSAII (Michael W. Deem and Ramdas Pophale) SiO2 
 PCOD9290453
Probable space group: C 2/C
;
_chemical_formula_sum "Si O2"
_cell_formula_units_Z 56
_cell_length_a 9.575738
_cell_length_b 15.170216
_cell_length_c 23.387183
_cell_angle_alpha 90.000000
_cell_angle_beta 59.442688
_cell_angle_gamma 90.000000
_cell_volume 2925.540655
_symmetry_space_group_name_H-M "C 2/C"
_symmetry_group_IT_number 15
_symmetry_cell_setting 'monoclinic'
loop_
_space_group_symop_operation_xyz
x,y,z
-x,y,1/2-z
-x,-y,-z
x,-y,1/2+z
1/2+x,1/2+y,z
1/2-x,1/2+y,1/2-z
1/2-x,1/2-y,-z
1/2+x,1/2-y,1/2+z
loop_
_atom_site_type_symbol
_atom_site_label
_atom_site_fract_x
_atom_site_fract_y
_atom_site_fract_z
Si Si1 0.231637 0.190848 0.946674
Si Si2 0.648563 0.300489 0.974119
Si Si3 0.000000 0.633157 0.250000
Si Si4 0.174247 0.957648 0.806973
Si Si5 0.500000 0.573047 0.750000
Si Si6 0.511215 0.722787 0.315652
Si Si7 0.818467 0.002853 0.062061
Si Si8 0.222094 0.219633 0.662164
O O1 0.350837 0.234394 0.875557
O O2 0.269366 0.085318 0.943186
O O3 0.250000 0.250000 0.000000
O O4 0.040839 0.192413 0.970281
O O5 0.727176 0.397224 0.946427
O O6 0.661058 0.241003 0.914423
O O7 0.750000 0.250000 0.000000
O O8 0.144374 0.575446 0.245437
O O9 0.093979 0.699853 0.188889
O O10 0.053960 0.873029 0.833397
O O11 0.108330 0.017614 0.770572
O O12 0.181517 0.999112 0.868746
O O13 0.616083 0.632815 0.686400
O O14 0.500000 0.715844 0.250000
O O15 0.668257 0.777869 0.303650
O O16 0.000000 0.000000 0.000000
#
# Coordination Sequence:
#
# PCOD9290453 Si02
#       8
#     8   8   4   8   4   8   8   8
#     4  11  23  44  69  93 130 175 221 273 324 392
#     4  11  23  43  67  94 127 176 220 265 331 397
#     4   9  20  40  70  79 132 174 205 262 336 381
#     4  11  22  44  63  97 130 170 217 272 329 398
#     4  11  26  38  66  97 134 168 215 278 328 379
#     4  11  22  41  68  98 133 174 218 274 330 390
#     4  10  22  41  66  89 125 171 215 262 330 389
#     4  10  22  43  60  93 139 167 217 272 330 389
#
# _framework density 19.141760999999999
#
# number of rings (size 3 to 8) (size 9 to 14) (size 15 to 20)
#    0.000    1.429    5.000    0.857    6.000    3.429 
#    0.000    0.714    0.000    0.000    0.000    0.000 
#    0.000    0.000    0.000    0.000    0.000    0.000 
#
# Total GULP energy -156066.936953 kJ/mol
# GULP energy per Si atom -5573.819177 kJ/mol
# Density = 1.909819 g / cm^3
# Si number density = 19.141761 Si / 1000 Ang^3
#
#
#
# Elastic Constant Matrix: (Units=GPa)
#
#
# Indices 1 2 3 4 5 6 
#
# 1 96.8491 63.9862 29.7869 0.0000 2.8475 0.0000
# 2 63.9862 132.5720 34.8477 0.0000 0.8074 0.0000
# 3 29.7869 34.8477 81.8102 0.0000 -7.2817 0.0000
# 4 0.0000 0.0000 0.0000 20.5522 0.0000 -8.6654
# 5 2.8475 0.8074 -7.2817 0.0000 37.9200 0.0000
# 6 0.0000 0.0000 0.0000 -8.6654 0.0000 31.1309
#
#
#
# Elastic Compliance Matrix: (Units=1/GPa)
#
#
# Indices 1 2 3 4 5 6 
#
# 1 0.015807 -0.006834 -0.002988 0.000000 -0.001615 0.000000
# 2 -0.006834 0.011478 -0.002419 0.000000 -0.000196 0.000000
# 3 -0.002988 -0.002419 0.014616 0.000000 0.003083 0.000000
# 4 0.000000 0.000000 0.000000 0.055126 0.000000 0.015345
# 5 -0.001615 -0.000196 0.003083 0.000000 0.027089 0.000000
# 6 0.000000 0.000000 0.000000 0.015345 0.000000 0.036394
#
#
# Mechanical properties :
#
#
# Convention : Reuss Voigt Hill
#
# Bulk Modulus (GPa) = 57.40467 63.16366 60.28416
# Shear Modulus (GPa) = 26.20578 30.09467 28.15023
#
# Velocity S-wave (km/s) = 3.70406 3.96940 3.83902
# Velocity P-wave (km/s) = 6.95326 7.35375 7.15631
#
# Compressibility (1/GPa) = 0.01742019
#
# Stress axis : x y z
#
# Youngs Moduli (GPa) = 63.26362 87.12010 68.41866
#
# Poissons Ratio (x) = 0.59537 0.20444
# Poissons Ratio (y) = 0.43234 0.16547
# Poissons Ratio (z) = 0.18903 0.21070
#
# Static dielectric constant tensor:
#      x y z
#    x 1.819860 0.000000 0.074150 
#    y 0.000000 1.730620 0.000000 
#    z 0.074150 0.000000 1.742050 
# 
# From -- ./inp_files/288690.got.cif
#   From: 2010.05.17/outbox.cif.g08.bks.cpg/sg15_145_cif.got.tgz:288690.got - 2010.06.03 18:47:42.
