data_PCOD9290856
_publ_section_title
;
Structure prediction by ZEFSAII (Michael W. Deem and Ramdas Pophale) SiO2 
 PCOD9290856
Probable space group: C 2/C
;
_chemical_formula_sum "Si O2"
_cell_formula_units_Z 48
_cell_length_a 25.127162
_cell_length_b 13.837694
_cell_length_c 8.099135
_cell_angle_alpha 90.000000
_cell_angle_beta 136.017222
_cell_angle_gamma 90.000000
_cell_volume 1955.608221
_symmetry_space_group_name_H-M "C 2/C"
_symmetry_group_IT_number 15
_symmetry_cell_setting 'monoclinic'
loop_
_space_group_symop_operation_xyz
x,y,z
-x,y,1/2-z
-x,-y,-z
x,-y,1/2+z
1/2+x,1/2+y,z
1/2-x,1/2+y,1/2-z
1/2-x,1/2-y,-z
1/2+x,1/2-y,1/2+z
loop_
_atom_site_type_symbol
_atom_site_label
_atom_site_fract_x
_atom_site_fract_y
_atom_site_fract_z
Si Si1 0.448402 0.926514 0.992857
Si Si2 0.308397 0.921165 0.903715
Si Si3 0.450447 0.579012 0.979071
Si Si4 0.712537 0.287694 0.151391
Si Si5 0.133693 0.752254 0.334466
Si Si6 0.295464 0.511126 0.063350
O O1 0.378990 0.962303 0.957700
O O2 0.411617 0.846635 0.795570
O O3 0.500000 0.877702 0.250000
O O4 0.500000 0.000000 0.000000
O O5 0.319764 0.812585 0.995204
O O6 0.231638 0.926115 0.619420
O O7 0.278287 0.984629 0.984059
O O8 0.428846 0.662977 0.800945
O O9 0.370582 0.520768 0.829751
O O10 0.500000 0.611410 0.250000
O O11 0.500000 0.500000 0.000000
O O12 0.802806 0.271362 0.386573
O O13 0.674378 0.280453 0.248721
O O14 0.696998 0.385232 0.013436
#
# Coordination Sequence:
#
# PCOD9290856 Si02
#       6
#     8   8   8   8   8   8
#     4  11  25  44  67 100 140 186 234 293 366 439
#     4  11  24  43  70 103 139 186 244 293 366 430
#     4  12  25  44  71 104 144 187 236 299 371 434
#     4  10  22  41  72 104 139 182 247 300 353 433
#     4  10  22  44  70 102 139 192 235 296 366 434
#     4  12  24  42  73 107 142 189 243 308 356 438
#
# _framework density 24.544794
#
# number of rings (size 3 to 8) (size 9 to 14) (size 15 to 20)
#    0.000    1.000    1.667    5.000    7.000    1.333 
#    0.000    2.500    0.000    0.000    0.000    0.000 
#    0.000    0.000    0.000    0.000    0.000    0.000 
#
# Total GULP energy -133904.779810 kJ/mol
# GULP energy per Si atom -5579.365825 kJ/mol
# Density = 2.448893 g / cm^3
# Si number density = 24.544794 Si / 1000 Ang^3
#
#
#
# Elastic Constant Matrix: (Units=GPa)
#
#
# Indices 1 2 3 4 5 6 
#
# 1 101.7209 52.9360 14.6035 0.0000 28.2196 0.0000
# 2 52.9360 139.2185 35.2065 0.0000 14.0033 0.0000
# 3 14.6035 35.2065 121.5821 0.0000 16.7000 0.0000
# 4 0.0000 0.0000 0.0000 39.6148 0.0000 -0.0130
# 5 28.2196 14.0033 16.7000 0.0000 25.0246 0.0000
# 6 0.0000 0.0000 0.0000 -0.0130 0.0000 33.2126
#
#
#
# Elastic Compliance Matrix: (Units=1/GPa)
#
#
# Indices 1 2 3 4 5 6 
#
# 1 0.017202 -0.005234 0.001884 0.000000 -0.017727 0.000000
# 2 -0.005234 0.009572 -0.002442 0.000000 0.002176 0.000000
# 3 0.001884 -0.002442 0.009699 0.000000 -0.007231 0.000000
# 4 0.000000 0.000000 0.000000 0.025243 0.000000 0.000010
# 5 -0.017727 0.002176 -0.007231 0.000000 0.063559 0.000000
# 6 0.000000 0.000000 0.000000 0.000010 0.000000 0.030109
#
#
# Mechanical properties :
#
#
# Convention : Reuss Voigt Hill
#
# Bulk Modulus (GPa) = 40.17813 63.11262 51.64538
# Shear Modulus (GPa) = 28.52843 36.88877 32.70860
#
# Velocity S-wave (km/s) = 3.41295 3.88095 3.65445
# Velocity P-wave (km/s) = 5.65118 6.77137 6.23648
#
# Compressibility (1/GPa) = 0.02488916
#
# Stress axis : x y z
#
# Youngs Moduli (GPa) = 58.13251 104.47251 103.10470
#
# Poissons Ratio (x) = 0.54685 -0.19429
# Poissons Ratio (y) = 0.30429 0.25177
# Poissons Ratio (z) = -0.10955 0.25511
#
# Static dielectric constant tensor:
#      x y z
#    x 2.007360 0.000000 0.031980 
#    y 0.000000 1.993340 0.000000 
#    z 0.031980 0.000000 2.073930 
# 
# From -- ./inp_files/66486.got.cif
#   From: 2010.05.17/outbox.cif.g08.bks.cpg/sg15_34_cif.got.tgz:66486.got - 2010.06.03 18:47:42.
