data_PCOD9290759
_publ_section_title
;
Structure prediction by ZEFSAII (Michael W. Deem and Ramdas Pophale) SiO2 
 PCOD9290759
Probable space group: C 2/C
;
_chemical_formula_sum "Si O2"
_cell_formula_units_Z 64
_cell_length_a 14.923729
_cell_length_b 9.391236
_cell_length_c 28.483191
_cell_angle_alpha 90.000000
_cell_angle_beta 51.414351
_cell_angle_gamma 90.000000
_cell_volume 3120.440632
_symmetry_space_group_name_H-M "C 2/C"
_symmetry_group_IT_number 15
_symmetry_cell_setting 'monoclinic'
loop_
_space_group_symop_operation_xyz
x,y,z
-x,y,1/2-z
-x,-y,-z
x,-y,1/2+z
1/2+x,1/2+y,z
1/2-x,1/2+y,1/2-z
1/2-x,1/2-y,-z
1/2+x,1/2-y,1/2+z
loop_
_atom_site_type_symbol
_atom_site_label
_atom_site_fract_x
_atom_site_fract_y
_atom_site_fract_z
Si Si1 0.433452 0.915470 0.120324
Si Si2 0.773271 0.388836 0.083512
Si Si3 0.010607 0.898291 0.191623
Si Si4 0.849976 0.711500 0.177657
Si Si5 0.848103 0.903431 0.515580
Si Si6 0.395921 0.457554 0.100024
Si Si7 0.690580 0.898384 0.005874
Si Si8 0.884446 0.154047 0.194171
O O1 0.336171 0.888782 0.113042
O O2 0.556181 0.881818 0.058292
O O3 0.415515 0.814672 0.170968
O O4 0.425628 0.078462 0.137766
O O5 0.638389 0.364483 0.133387
O O6 0.825110 0.260977 0.035243
O O7 0.791643 0.540386 0.052115
O O8 0.000000 0.871592 0.250000
O O9 0.918137 0.805389 0.193484
O O10 0.979145 0.062210 0.190463
O O11 0.833541 0.815758 0.138646
O O12 0.732359 0.654669 0.238185
O O13 0.967972 0.924216 0.448747
O O14 0.858932 0.984885 0.561749
O O15 0.748057 0.979972 0.519473
O O16 0.373791 0.575330 0.147225
O O17 0.750000 0.750000 0.000000
#
# Coordination Sequence:
#
# PCOD9290759 Si02
#       8
#     8   8   8   8   8   8   8   8
#     4  12  24  42  65  98 130 173 220 276 335 396
#     4  12  24  43  68  93 133 180 225 269 328 411
#     4  11  24  44  68  96 128 178 226 272 334 402
#     4  11  23  41  70  96 132 171 227 277 331 395
#     4  11  23  42  69  95 136 176 223 273 334 406
#     4  10  22  41  69  98 130 179 222 269 339 405
#     4  12  26  40  63 101 138 167 212 283 338 395
#     4  11  22  45  65  96 133 174 218 276 335 399
#
# _framework density 20.509923000000001
#
# number of rings (size 3 to 8) (size 9 to 14) (size 15 to 20)
#    0.000    0.750    1.250    8.250    3.500    0.000 
#    2.250    0.625    0.000    0.000    0.000    0.000 
#    0.000    0.000    0.000    0.000    0.000    0.000 
#
# Total GULP energy -179045.093747 kJ/mol
# GULP energy per Si atom -5595.159180 kJ/mol
# Density = 2.046324 g / cm^3
# Si number density = 20.509923 Si / 1000 Ang^3
#
#
#
# Elastic Constant Matrix: (Units=GPa)
#
#
# Indices 1 2 3 4 5 6 
#
# 1 70.7500 9.1727 13.1975 0.0000 -5.8514 0.0000
# 2 9.1727 105.0260 14.1138 0.0000 13.0523 0.0000
# 3 13.1975 14.1138 95.4429 0.0000 -10.4844 0.0000
# 4 0.0000 0.0000 0.0000 42.9360 0.0000 -0.7993
# 5 -5.8514 13.0523 -10.4844 0.0000 30.0902 0.0000
# 6 0.0000 0.0000 0.0000 -0.7993 0.0000 37.9249
#
#
#
# Elastic Compliance Matrix: (Units=1/GPa)
#
#
# Indices 1 2 3 4 5 6 
#
# 1 0.014854 -0.001468 -0.001507 0.000000 0.003000 0.000000
# 2 -0.001468 0.010609 -0.001978 0.000000 -0.005576 0.000000
# 3 -0.001507 -0.001978 0.011480 0.000000 0.004565 0.000000
# 4 0.000000 0.000000 0.000000 0.023300 0.000000 0.000491
# 5 0.003000 -0.005576 0.004565 0.000000 0.037826 0.000000
# 6 0.000000 0.000000 0.000000 0.000491 0.000000 0.026378
#
#
# Mechanical properties :
#
#
# Convention : Reuss Voigt Hill
#
# Bulk Modulus (GPa) = 36.98823 38.24299 37.61561
# Shear Modulus (GPa) = 34.87605 37.83922 36.35763
#
# Velocity S-wave (km/s) = 4.12812 4.29992 4.21489
# Velocity P-wave (km/s) = 6.38712 6.58323 6.48592
#
# Compressibility (1/GPa) = 0.02703562
#
# Stress axis : x y z
#
# Youngs Moduli (GPa) = 67.32273 94.26402 87.10854
#
# Poissons Ratio (x) = 0.13834 0.13131
# Poissons Ratio (y) = 0.09880 0.17233
# Poissons Ratio (z) = 0.10148 0.18649
#
# Static dielectric constant tensor:
#      x y z
#    x 1.703730 0.000000 0.009460 
#    y 0.000000 1.733010 0.000000 
#    z 0.009460 0.000000 1.712260 
# 
# From -- ./inp_files/313133.got.cif
#   From: 2010.05.17/outbox.cif.g08.bks.cpg/sg15_157_cif.got.tgz:313133.got - 2010.06.03 18:47:42.
