data_PCOD9290209
_publ_section_title
;
Structure prediction by ZEFSAII (Michael W. Deem and Ramdas Pophale) SiO2 
 PCOD9290209
Probable space group: C 2/C
;
_chemical_formula_sum "Si O2"
_cell_formula_units_Z 56
_cell_length_a 28.885834
_cell_length_b 16.377509
_cell_length_c 9.914145
_cell_angle_alpha 90.000000
_cell_angle_beta 29.037030
_cell_angle_gamma 90.000000
_cell_volume 2276.487304
_symmetry_space_group_name_H-M "C 2/C"
_symmetry_group_IT_number 15
_symmetry_cell_setting 'monoclinic'
loop_
_space_group_symop_operation_xyz
x,y,z
-x,y,1/2-z
-x,-y,-z
x,-y,1/2+z
1/2+x,1/2+y,z
1/2-x,1/2+y,1/2-z
1/2-x,1/2-y,-z
1/2+x,1/2-y,1/2+z
loop_
_atom_site_type_symbol
_atom_site_label
_atom_site_fract_x
_atom_site_fract_y
_atom_site_fract_z
Si Si1 0.039379 0.759435 0.297999
Si Si2 0.500000 0.461855 0.250000
Si Si3 0.582059 0.897670 0.803225
Si Si4 0.933249 0.098517 0.597082
Si Si5 0.754333 0.274225 0.644800
Si Si6 0.000000 0.489338 0.750000
Si Si7 0.198251 0.941086 0.840104
Si Si8 0.706067 0.633518 0.766574
O O1 0.016809 0.682487 0.449503
O O2 0.011286 0.842333 0.444128
O O3 0.000000 0.747192 0.250000
O O4 0.151921 0.768245 0.980809
O O5 0.495809 0.525348 0.383389
O O6 0.396886 0.421122 0.507004
O O7 0.686800 0.860111 0.565189
O O8 0.567561 0.938985 0.687468
O O9 0.555877 0.955792 0.995661
O O10 0.884470 0.145690 0.598660
O O11 0.838604 0.067510 0.914384
O O12 0.750000 0.250000 0.500000
O O13 0.775818 0.371648 0.607347
O O14 0.807896 0.200574 0.582185
O O15 0.213645 0.036766 0.781750
#
# Coordination Sequence:
#
# PCOD9290209 Si02
#       8
#     8   4   8   8   8   4   8   8
#     4  10  22  42  64  90 130 176 221 284 339 403
#     4  10  22  41  65  98 134 172 222 270 337 421
#     4  10  22  41  65  93 132 170 228 282 343 411
#     4  10  23  40  63  96 131 173 218 270 346 406
#     4  10  24  41  65  98 130 173 227 276 339 412
#     4  10  22  41  63  96 124 174 228 280 343 409
#     4  10  23  40  68  96 134 179 213 281 337 395
#     4  10  24  42  65  97 135 172 223 280 342 415
#
# _framework density 24.599302000000002
#
# number of rings (size 3 to 8) (size 9 to 14) (size 15 to 20)
#    0.000    2.000    0.714    0.429   10.000    9.143 
#    0.000    0.000    0.000    0.000    0.000    0.000 
#    0.000    0.000    0.000    0.000    0.000    0.000 
#
# Total GULP energy -156011.627352 kJ/mol
# GULP energy per Si atom -5571.843834 kJ/mol
# Density = 2.454331 g / cm^3
# Si number density = 24.599302 Si / 1000 Ang^3
#
#
#
# Elastic Constant Matrix: (Units=GPa)
#
#
# Indices 1 2 3 4 5 6 
#
# 1 89.0068 11.0689 6.7532 0.0000 11.8941 0.0000
# 2 11.0689 123.4482 7.2767 0.0000 15.3852 0.0000
# 3 6.7532 7.2767 50.8319 0.0000 9.9504 0.0000
# 4 0.0000 0.0000 0.0000 27.8073 0.0000 15.2532
# 5 11.8941 15.3852 9.9504 0.0000 38.4693 0.0000
# 6 0.0000 0.0000 0.0000 15.2532 0.0000 42.9044
#
#
#
# Elastic Compliance Matrix: (Units=1/GPa)
#
#
# Indices 1 2 3 4 5 6 
#
# 1 0.011801 -0.000611 -0.000857 0.000000 -0.003183 0.000000
# 2 -0.000611 0.008574 -0.000539 0.000000 -0.003100 0.000000
# 3 -0.000857 -0.000539 0.020824 0.000000 -0.004906 0.000000
# 4 0.000000 0.000000 0.000000 0.044674 0.000000 -0.015882
# 5 -0.003183 -0.003100 -0.004906 0.000000 0.029488 0.000000
# 6 0.000000 0.000000 0.000000 -0.015882 0.000000 0.028954
#
#
# Mechanical properties :
#
#
# Convention : Reuss Voigt Hill
#
# Bulk Modulus (GPa) = 26.89339 34.83162 30.86251
# Shear Modulus (GPa) = 31.10920 37.71541 34.41231
#
# Velocity S-wave (km/s) = 3.56003 3.91985 3.74426
# Velocity P-wave (km/s) = 5.27776 5.88874 5.59160
#
# Compressibility (1/GPa) = 0.03718385
#
# Stress axis : x y z
#
# Youngs Moduli (GPa) = 84.73545 116.63793 48.02135
#
# Poissons Ratio (x) = 0.07126 0.04117
# Poissons Ratio (y) = 0.05177 0.02589
# Poissons Ratio (z) = 0.07265 0.06290
#
# Static dielectric constant tensor:
#      x y z
#    x 2.073310 0.000000 0.028480 
#    y 0.000000 2.129140 0.000000 
#    z 0.028480 0.000000 2.004450 
# 
# From -- ./inp_files/67147.got.cif
#   From: 2010.05.17/outbox.cif.g08.bks.cpg/sg15_34_cif.got.tgz:67147.got - 2010.06.03 18:47:42.
