data_PCOD9290025
_publ_section_title
;
Structure prediction by ZEFSAII (Michael W. Deem and Ramdas Pophale) SiO2 
 PCOD9290025
Probable space group: C 2/C
;
_chemical_formula_sum "Si O2"
_cell_formula_units_Z 52
_cell_length_a 16.015941
_cell_length_b 12.683818
_cell_length_c 19.803248
_cell_angle_alpha 90.000000
_cell_angle_beta 152.038593
_cell_angle_gamma 90.000000
_cell_volume 1886.242662
_symmetry_space_group_name_H-M "C 2/C"
_symmetry_group_IT_number 15
_symmetry_cell_setting 'monoclinic'
loop_
_space_group_symop_operation_xyz
x,y,z
-x,y,1/2-z
-x,-y,-z
x,-y,1/2+z
1/2+x,1/2+y,z
1/2-x,1/2+y,1/2-z
1/2-x,1/2-y,-z
1/2+x,1/2-y,1/2+z
loop_
_atom_site_type_symbol
_atom_site_label
_atom_site_fract_x
_atom_site_fract_y
_atom_site_fract_z
Si Si1 0.835700 0.242031 0.447123
Si Si2 0.883726 0.587452 0.879023
Si Si3 0.500000 0.528316 0.750000
Si Si4 0.333643 0.114688 0.063304
Si Si5 0.836937 0.141208 0.890815
Si Si6 0.235399 0.154485 0.377963
Si Si7 0.176367 0.379723 0.413836
O O1 0.781524 0.333412 0.356012
O O2 0.692507 0.170676 0.383543
O O3 0.922967 0.311631 0.570699
O O4 0.974663 0.169894 0.506437
O O5 0.755939 0.559995 0.726513
O O6 0.000000 0.500000 0.000000
O O7 0.050888 0.648485 0.967519
O O8 0.633711 0.597053 0.889793
O O9 0.376946 0.452415 0.710322
O O10 0.393613 0.994465 0.111438
O O11 0.722978 0.252790 0.813999
O O12 0.817931 0.105225 0.954251
O O13 0.214081 0.166748 0.444015
O O14 0.000000 0.333710 0.250000
#
# Coordination Sequence:
#
# PCOD9290025 Si02
#       7
#     8   8   4   8   8   8   8
#     4  10  25  45  65 100 138 183 239 296 362 438
#     4  11  23  43  66  99 140 184 234 289 363 429
#     4  10  22  40  74  98 132 186 228 300 344 428
#     4  10  24  46  68 100 137 188 246 291 364 434
#     4  11  25  41  70 102 141 183 234 307 357 431
#     4  10  23  42  66 101 135 183 236 283 364 426
#     4  11  22  42  71 102 141 186 238 296 356 437
#
# _framework density 27.568033
#
# number of rings (size 3 to 8) (size 9 to 14) (size 15 to 20)
#    0.000    1.538    1.538    2.308    5.385    6.769 
#    5.538    0.000    0.000    0.000    0.000    0.000 
#    0.000    0.000    0.000    0.000    0.000    0.000 
#
# Total GULP energy -145115.021488 kJ/mol
# GULP energy per Si atom -5581.346980 kJ/mol
# Density = 2.750529 g / cm^3
# Si number density = 27.568033 Si / 1000 Ang^3
#
#
#
# Elastic Constant Matrix: (Units=GPa)
#
#
# Indices 1 2 3 4 5 6 
#
# 1 149.0644 8.8193 19.4645 0.0005 -11.1721 -0.0003
# 2 8.8193 68.8695 17.4208 0.0024 2.7344 0.0001
# 3 19.4645 17.4208 115.9699 0.0032 -20.6442 0.0007
# 4 0.0005 0.0024 0.0032 40.0963 0.0006 -6.1942
# 5 -11.1721 2.7344 -20.6442 0.0006 39.6858 0.0001
# 6 -0.0003 0.0001 0.0007 -6.1942 0.0001 48.1658
#
#
#
# Elastic Compliance Matrix: (Units=1/GPa)
#
#
# Indices 1 2 3 4 5 6 
#
# 1 0.006975 -0.000763 -0.000768 0.000000 0.001616 0.000000
# 2 -0.000763 0.015396 -0.002658 -0.000001 -0.002658 0.000000
# 3 -0.000768 -0.002658 0.010079 -0.000001 0.005210 0.000000
# 4 0.000000 -0.000001 -0.000001 0.025445 -0.000001 0.003272
# 5 0.001616 -0.002658 0.005210 -0.000001 0.028546 0.000000
# 6 0.000000 0.000000 0.000000 0.003272 0.000000 0.021182
#
#
# Mechanical properties :
#
#
# Convention : Reuss Voigt Hill
#
# Bulk Modulus (GPa) = 41.54381 47.25700 44.40041
# Shear Modulus (GPa) = 40.31426 44.80286 42.55856
#
# Velocity S-wave (km/s) = 3.82822 4.03572 3.93334
# Velocity P-wave (km/s) = 5.88580 6.23660 6.06374
#
# Compressibility (1/GPa) = 0.02407097
#
# Stress axis : x y z
#
# Youngs Moduli (GPa) = 143.36633 64.95283 99.22089
#
# Poissons Ratio (x) = 0.04956 0.07623
# Poissons Ratio (y) = 0.10940 0.26371
# Poissons Ratio (z) = 0.11015 0.17263
#
# Static dielectric constant tensor:
#      x y z
#    x 2.300170 0.000000 -0.011210 
#    y 0.000000 2.386530 0.000000 
#    z -0.011210 0.000000 2.182210 
# 
# From -- ./inp_files/205766.got.cif
#   From: 2010.05.17/outbox.cif.g08.bks.cpg/sg15_103_cif.got.tgz:205766.got - 2010.06.03 18:47:42.
