data_PCOD9290492
_publ_section_title
;
Structure prediction by ZEFSAII (Michael W. Deem and Ramdas Pophale) SiO2 
 PCOD9290492
Probable space group: C 2/C
;
_chemical_formula_sum "Si O2"
_cell_formula_units_Z 36
_cell_length_a 10.497018
_cell_length_b 9.605248
_cell_length_c 14.147099
_cell_angle_alpha 90.000000
_cell_angle_beta 83.341928
_cell_angle_gamma 90.000000
_cell_volume 1416.781932
_symmetry_space_group_name_H-M "C 2/C"
_symmetry_group_IT_number 15
_symmetry_cell_setting 'monoclinic'
loop_
_space_group_symop_operation_xyz
x,y,z
-x,y,1/2-z
-x,-y,-z
x,-y,1/2+z
1/2+x,1/2+y,z
1/2-x,1/2+y,1/2-z
1/2-x,1/2-y,-z
1/2+x,1/2-y,1/2+z
loop_
_atom_site_type_symbol
_atom_site_label
_atom_site_fract_x
_atom_site_fract_y
_atom_site_fract_z
Si Si1 0.776615 0.512803 0.215527
Si Si2 0.121835 0.254157 0.918290
Si Si3 0.766290 0.952839 0.573725
Si Si4 0.913507 0.679909 0.569577
Si Si5 0.500000 0.367228 0.250000
O O1 0.783309 0.645965 0.147018
O O2 0.808040 0.549478 0.320500
O O3 0.877660 0.399885 0.167828
O O4 0.632582 0.451846 0.228727
O O5 0.052448 0.330023 0.011016
O O6 0.017344 0.217036 0.845969
O O7 0.181525 0.108195 0.944791
O O8 0.882210 0.843297 0.578608
O O9 0.684629 0.890541 0.496011
#
# Coordination Sequence:
#
# PCOD9290492 Si02
#       5
#     8   8   8   8   4
#     4  11  23  41  67  98 129 169 217 264 318 378
#     4  11  22  41  67  96 131 170 214 264 317 377
#     4  10  22  41  66  95 130 174 213 256 323 385
#     4  11  22  41  66  95 130 168 214 266 320 380
#     4  10  22  42  66  94 136 174 210 260 316 378
#
# _framework density 25.409694999999999
#
# number of rings (size 3 to 8) (size 9 to 14) (size 15 to 20)
#    0.000    1.333    0.000    8.000    0.000    2.667 
#    0.000    8.889    0.000    1.333    0.000    0.000 
#    0.000    0.000    0.000    0.000    0.000    0.000 
#
# Total GULP energy -100949.744478 kJ/mol
# GULP energy per Si atom -5608.319138 kJ/mol
# Density = 2.535186 g / cm^3
# Si number density = 25.409695 Si / 1000 Ang^3
#
#
#
# Elastic Constant Matrix: (Units=GPa)
#
#
# Indices 1 2 3 4 5 6 
#
# 1 71.8945 33.2265 24.2900 0.0000 -12.7878 0.0000
# 2 33.2265 118.5264 -4.5949 0.0000 -15.4778 0.0000
# 3 24.2900 -4.5949 81.4724 0.0000 -21.2960 0.0000
# 4 0.0000 0.0000 0.0000 47.6392 0.0000 -18.6949
# 5 -12.7878 -15.4778 -21.2960 0.0000 45.7541 0.0000
# 6 0.0000 0.0000 0.0000 -18.6949 0.0000 -17.1237
#
#
#
# Elastic Compliance Matrix: (Units=1/GPa)
#
#
# Indices 1 2 3 4 5 6 
#
# 1 0.018359 -0.005264 -0.005573 0.000000 0.000757 0.000000
# 2 -0.005264 0.010490 0.003079 0.000000 0.003510 0.000000
# 3 -0.005573 0.003079 0.015910 0.000000 0.006889 0.000000
# 4 0.000000 0.000000 0.000000 0.014695 0.000000 -0.016044
# 5 0.000757 0.003510 0.006889 0.000000 0.026461 0.000000
# 6 0.000000 0.000000 0.000000 -0.016044 0.000000 -0.040883
#
#
# Mechanical properties :
#
#
# Convention : Reuss Voigt Hill
#
# Bulk Modulus (GPa) = 34.19549 41.97070 38.08310
# Shear Modulus (GPa) = 71.12660 29.85204 50.48932
#
# Velocity S-wave (km/s) = 5.29648 3.43130 4.46242
# Velocity P-wave (km/s) = 7.13375 5.67907 6.44757
#
# Compressibility (1/GPa) = 0.02924362
#
# Stress axis : x y z
#
# Youngs Moduli (GPa) = 54.46810 95.32597 62.85399
#
# Poissons Ratio (x) = 0.50179 0.35026
# Poissons Ratio (y) = 0.28671 -0.19350
# Poissons Ratio (z) = 0.30353 -0.29347
#
# Static dielectric constant tensor:
#      x y z
#    x 2.002290 0.000000 0.041630 
#    y 0.000000 2.012200 0.000000 
#    z 0.041630 0.000000 1.996690 
# 
# From -- ./inp_files/202034.got.cif
#   From: 2010.05.17/outbox.cif.g08.bks.cpg/sg15_102_cif.got.tgz:202034.got - 2010.06.03 18:47:42.
