data_PCOD9290382
_publ_section_title
;
Structure prediction by ZEFSAII (Michael W. Deem and Ramdas Pophale) SiO2 
 PCOD9290382
Probable space group: C 2/C
;
_chemical_formula_sum "Si O2"
_cell_formula_units_Z 40
_cell_length_a 5.196859
_cell_length_b 13.911129
_cell_length_c 24.545515
_cell_angle_alpha 90.000000
_cell_angle_beta 107.075752
_cell_angle_gamma 90.000000
_cell_volume 1696.273250
_symmetry_space_group_name_H-M "C 2/C"
_symmetry_group_IT_number 15
_symmetry_cell_setting 'monoclinic'
loop_
_space_group_symop_operation_xyz
x,y,z
-x,y,1/2-z
-x,-y,-z
x,-y,1/2+z
1/2+x,1/2+y,z
1/2-x,1/2+y,1/2-z
1/2-x,1/2-y,-z
1/2+x,1/2-y,1/2+z
loop_
_atom_site_type_symbol
_atom_site_label
_atom_site_fract_x
_atom_site_fract_y
_atom_site_fract_z
Si Si1 0.785670 0.447875 0.523749
Si Si2 0.657504 0.492269 0.630664
Si Si3 0.867803 0.813770 0.074019
Si Si4 0.000000 0.191691 0.250000
Si Si5 0.500000 0.940987 0.750000
Si Si6 0.927635 0.218494 0.125254
O O1 0.500000 0.500000 0.500000
O O2 0.843539 0.464326 0.590467
O O3 0.734569 0.346554 0.491866
O O4 0.000000 0.500000 0.500000
O O5 0.483918 0.586792 0.608095
O O6 0.844322 0.501083 0.694884
O O7 0.479528 0.395801 0.626084
O O8 0.634995 0.770296 0.097373
O O9 0.127982 0.745879 0.089745
O O10 0.729796 0.126650 0.237370
O O11 0.018894 0.247082 0.308470
#
# Coordination Sequence:
#
# PCOD9290382 Si02
#       6
#     8   8   8   4   4   8
#     4  10  22  41  65  94 132 168 209 270 322 373
#     4  10  24  45  68  94 134 168 211 274 318 378
#     4  11  24  41  66  99 127 170 220 258 326 391
#     4  10  22  43  64  95 136 166 212 279 320 369
#     4  10  22  41  70  95 122 176 218 251 332 389
#     4  11  24  42  66  95 129 170 217 265 321 385
#
# _framework density 23.581105000000001
#
# number of rings (size 3 to 8) (size 9 to 14) (size 15 to 20)
#    0.000    1.600    0.000    4.800    0.000   16.800 
#    0.000    6.000    0.000    0.000    0.000    0.000 
#    0.000    0.000    0.000    0.000    0.000    0.000 
#
# Total GULP energy -111979.653015 kJ/mol
# GULP energy per Si atom -5598.982651 kJ/mol
# Density = 2.352743 g / cm^3
# Si number density = 23.581105 Si / 1000 Ang^3
#
#
#
# Elastic Constant Matrix: (Units=GPa)
#
#
# Indices 1 2 3 4 5 6 
#
# 1 165.3612 32.3413 41.1696 0.0000 -14.0262 0.0000
# 2 32.3413 103.6397 15.1778 0.0000 9.5000 0.0000
# 3 41.1696 15.1778 132.3470 0.0000 -5.2104 0.0000
# 4 0.0000 0.0000 0.0000 31.8400 0.0000 1.0183
# 5 -14.0262 9.5000 -5.2104 0.0000 42.9429 0.0000
# 6 0.0000 0.0000 0.0000 1.0183 0.0000 45.0624
#
#
#
# Elastic Compliance Matrix: (Units=1/GPa)
#
#
# Indices 1 2 3 4 5 6 
#
# 1 0.007165 -0.002200 -0.001874 0.000000 0.002599 0.000000
# 2 -0.002200 0.010724 -0.000671 0.000000 -0.003172 0.000000
# 3 -0.001874 -0.000671 0.008237 0.000000 0.000536 0.000000
# 4 0.000000 0.000000 0.000000 0.031430 0.000000 -0.000710
# 5 0.002599 -0.003172 0.000536 0.000000 0.024903 0.000000
# 6 0.000000 0.000000 0.000000 -0.000710 0.000000 0.022207
#
#
# Mechanical properties :
#
#
# Convention : Reuss Voigt Hill
#
# Bulk Modulus (GPa) = 60.10623 64.30281 62.20452
# Shear Modulus (GPa) = 41.77121 44.81301 43.29211
#
# Velocity S-wave (km/s) = 4.21335 4.36406 4.28937
# Velocity P-wave (km/s) = 7.01528 7.26095 7.13917
#
# Compressibility (1/GPa) = 0.01663721
#
# Stress axis : x y z
#
# Youngs Moduli (GPa) = 139.57445 93.24732 121.40531
#
# Poissons Ratio (x) = 0.20510 0.22753
# Poissons Ratio (y) = 0.30700 0.08141
# Poissons Ratio (z) = 0.26158 0.06253
#
# Static dielectric constant tensor:
#      x y z
#    x 1.821320 0.000000 0.001790 
#    y 0.000000 1.950380 0.000000 
#    z 0.001790 0.000000 1.938120 
# 
# From -- ./inp_files/260199.got.cif
#   From: 2010.05.17/outbox.cif.g08.bks.cpg/sg15_131_cif.got.tgz:260199.got - 2010.06.03 18:47:42.
