data_PCOD9290812
_publ_section_title
;
Structure prediction by ZEFSAII (Michael W. Deem and Ramdas Pophale) SiO2 
 PCOD9290812
Probable space group: C 2/C
;
_chemical_formula_sum "Si O2"
_cell_formula_units_Z 36
_cell_length_a 14.315354
_cell_length_b 17.871568
_cell_length_c 10.844278
_cell_angle_alpha 90.000000
_cell_angle_beta 142.805931
_cell_angle_gamma 90.000000
_cell_volume 1677.156793
_symmetry_space_group_name_H-M "C 2/C"
_symmetry_group_IT_number 15
_symmetry_cell_setting 'monoclinic'
loop_
_space_group_symop_operation_xyz
x,y,z
-x,y,1/2-z
-x,-y,-z
x,-y,1/2+z
1/2+x,1/2+y,z
1/2-x,1/2+y,1/2-z
1/2-x,1/2-y,-z
1/2+x,1/2-y,1/2+z
loop_
_atom_site_type_symbol
_atom_site_label
_atom_site_fract_x
_atom_site_fract_y
_atom_site_fract_z
Si Si1 0.094269 0.986415 0.726145
Si Si2 0.133596 0.690187 0.726207
Si Si3 0.791580 0.148624 0.662561
Si Si4 0.500000 0.237301 0.250000
Si Si5 0.792458 0.657841 0.411036
O O1 0.218799 0.923172 0.823840
O O2 0.000000 0.961754 0.750000
O O3 0.169785 0.065963 0.841666
O O4 0.000000 0.000000 0.500000
O O5 0.251556 0.645512 0.764520
O O6 0.173163 0.777403 0.746690
O O7 0.956025 0.668915 0.514884
O O8 0.169970 0.672627 0.905977
O O9 0.639014 0.185470 0.442520
O O10 0.928550 0.205796 0.775079
#
# Coordination Sequence:
#
# PCOD9290812 Si02
#       5
#     8   8   8   4   8
#     4  12  28  44  68 101 142 181 221 284 344 400
#     4  10  22  41  70  96 132 173 224 282 325 408
#     4  11  23  44  66  97 133 177 224 276 337 396
#     4  10  24  40  68  96 128 176 230 270 324 412
#     4  10  24  41  66 103 131 173 227 271 344 396
#
# _framework density 21.464898000000002
#
# number of rings (size 3 to 8) (size 9 to 14) (size 15 to 20)
#    0.000    1.333    1.111    2.667   12.444    4.444 
#    0.000    0.000    0.000    0.000    0.000    0.000 
#    0.000    0.000    0.000    0.000    0.000    0.000 
#
# Total GULP energy -100646.447711 kJ/mol
# GULP energy per Si atom -5591.469317 kJ/mol
# Density = 2.141604 g / cm^3
# Si number density = 21.464898 Si / 1000 Ang^3
#
#
#
# Elastic Constant Matrix: (Units=GPa)
#
#
# Indices 1 2 3 4 5 6 
#
# 1 116.8112 6.0522 30.1494 0.0000 21.0663 0.0000
# 2 6.0522 126.3497 49.5860 0.0000 37.1528 0.0000
# 3 30.1494 49.5860 101.0688 0.0000 25.4123 0.0000
# 4 0.0000 0.0000 0.0000 32.7824 0.0000 10.9771
# 5 21.0663 37.1528 25.4123 0.0000 29.3855 0.0000
# 6 0.0000 0.0000 0.0000 10.9771 0.0000 25.9620
#
#
#
# Elastic Compliance Matrix: (Units=1/GPa)
#
#
# Indices 1 2 3 4 5 6 
#
# 1 0.010779 0.003313 -0.002357 0.000000 -0.009878 0.000000
# 2 0.003313 0.014259 -0.003647 0.000000 -0.017250 0.000000
# 3 -0.002357 -0.003647 0.013804 0.000000 -0.005637 0.000000
# 4 0.000000 0.000000 0.000000 0.035535 0.000000 -0.015025
# 5 -0.009878 -0.017250 -0.005637 0.000000 0.067796 0.000000
# 6 0.000000 0.000000 0.000000 -0.015025 0.000000 0.044871
#
#
# Mechanical properties :
#
#
# Convention : Reuss Voigt Hill
#
# Bulk Modulus (GPa) = 29.88597 57.31166 43.59881
# Shear Modulus (GPa) = 24.56039 34.85544 29.70791
#
# Velocity S-wave (km/s) = 3.38629 4.03405 3.72428
# Velocity P-wave (km/s) = 5.40765 6.96105 6.23293
#
# Compressibility (1/GPa) = 0.03346052
#
# Stress axis : x y z
#
# Youngs Moduli (GPa) = 92.77247 70.12892 72.44267
#
# Poissons Ratio (x) = -0.23237 0.17078
# Poissons Ratio (y) = -0.30740 0.26420
# Poissons Ratio (z) = 0.21870 0.25577
#
# Static dielectric constant tensor:
#      x y z
#    x 1.819030 0.000000 -0.025520 
#    y 0.000000 1.728800 0.000000 
#    z -0.025520 0.000000 1.795720 
# 
# From -- ./inp_files/38891.got.cif
#   From: 2010.05.17/outbox.cif.g08.bks.cpg/sg15_20_cif.got.tgz:38891.got - 2010.06.03 18:47:42.
