data_PCOD9290542
_publ_section_title
;
Structure prediction by ZEFSAII (Michael W. Deem and Ramdas Pophale) SiO2 
 PCOD9290542
Probable space group: C 2/C
;
_chemical_formula_sum "Si O2"
_cell_formula_units_Z 64
_cell_length_a 12.391255
_cell_length_b 15.490286
_cell_length_c 16.341687
_cell_angle_alpha 90.000000
_cell_angle_beta 74.911656
_cell_angle_gamma 90.000000
_cell_volume 3028.554650
_symmetry_space_group_name_H-M "C 2/C"
_symmetry_group_IT_number 15
_symmetry_cell_setting 'monoclinic'
loop_
_space_group_symop_operation_xyz
x,y,z
-x,y,1/2-z
-x,-y,-z
x,-y,1/2+z
1/2+x,1/2+y,z
1/2-x,1/2+y,1/2-z
1/2-x,1/2-y,-z
1/2+x,1/2-y,1/2+z
loop_
_atom_site_type_symbol
_atom_site_label
_atom_site_fract_x
_atom_site_fract_y
_atom_site_fract_z
Si Si1 0.597027 0.567569 0.003871
Si Si2 0.995985 0.363873 0.999237
Si Si3 0.332077 0.990606 0.973820
Si Si4 0.972679 0.288218 0.334391
Si Si5 0.786533 0.480458 0.794364
Si Si6 0.088091 0.322445 0.805711
Si Si7 0.729271 0.667568 0.835809
Si Si8 0.948623 0.889909 0.678714
O O1 0.543227 0.615918 0.090931
O O2 0.500000 0.500000 0.000000
O O3 0.705008 0.515666 0.012830
O O4 0.643053 0.628335 0.921636
O O5 0.033591 0.323426 0.906365
O O6 0.875256 0.404535 0.006646
O O7 0.087735 0.436289 0.005364
O O8 0.993016 0.309417 0.081097
O O9 0.343648 0.982373 0.873016
O O10 0.836968 0.291836 0.360983
O O11 0.000000 0.348939 0.250000
O O12 0.062144 0.210625 0.297260
O O13 0.853622 0.415883 0.722094
O O14 0.765295 0.581114 0.778766
O O15 0.663835 0.436082 0.826182
O O16 0.173245 0.242180 0.793322
O O17 0.000000 0.310365 0.750000
O O18 0.000000 0.933283 0.750000
#
# Coordination Sequence:
#
# PCOD9290542 Si02
#       8
#     8   8   8   8   8   8   8   8
#     4  11  21  44  68  98 141 185 236 298 352 429
#     4  11  23  44  69 108 139 182 248 289 363 426
#     4  10  22  41  67 104 132 184 243 290 358 425
#     4  11  24  44  70 103 139 180 241 301 349 422
#     4  11  23  48  67 101 150 186 236 301 356 427
#     4  12  26  44  74 107 149 191 233 306 359 430
#     4  11  25  45  73 106 137 191 247 287 361 436
#     4  11  24  40  68 100 136 187 235 291 362 424
#
# _framework density 21.132192
#
# number of rings (size 3 to 8) (size 9 to 14) (size 15 to 20)
#    0.000    1.000    6.250    2.250    3.500    4.000 
#    0.000    1.875    0.000    0.000    0.000    0.000 
#    0.000    0.000    0.000    0.000    0.000    0.000 
#
# Total GULP energy -178308.320401 kJ/mol
# GULP energy per Si atom -5572.135013 kJ/mol
# Density = 2.108409 g / cm^3
# Si number density = 21.132192 Si / 1000 Ang^3
#
#
#
# Elastic Constant Matrix: (Units=GPa)
#
#
# Indices 1 2 3 4 5 6 
#
# 1 92.0338 28.5917 17.1432 0.0000 17.1166 0.0000
# 2 28.5917 88.1840 12.1161 0.0000 19.8436 0.0000
# 3 17.1432 12.1161 99.9359 0.0000 13.6985 0.0000
# 4 0.0000 0.0000 0.0000 22.8790 0.0000 -2.2412
# 5 17.1166 19.8436 13.6985 0.0000 34.1014 0.0000
# 6 0.0000 0.0000 0.0000 -2.2412 0.0000 23.5096
#
#
#
# Elastic Compliance Matrix: (Units=1/GPa)
#
#
# Indices 1 2 3 4 5 6 
#
# 1 0.012820 -0.003049 -0.001260 0.000000 -0.004155 0.000000
# 2 -0.003049 0.013805 -0.000274 0.000000 -0.006392 0.000000
# 3 -0.001260 -0.000274 0.010739 0.000000 -0.003521 0.000000
# 4 0.000000 0.000000 0.000000 0.044120 0.000000 0.004206
# 5 -0.004155 -0.006392 -0.003521 0.000000 0.036544 0.000000
# 6 0.000000 0.000000 0.000000 0.004206 0.000000 0.042937
#
#
# Mechanical properties :
#
#
# Convention : Reuss Voigt Hill
#
# Bulk Modulus (GPa) = 35.46491 43.98397 39.72444
# Shear Modulus (GPa) = 27.85061 30.91818 29.38439
#
# Velocity S-wave (km/s) = 3.63426 3.82918 3.73299
# Velocity P-wave (km/s) = 5.86765 6.35681 6.11712
#
# Compressibility (1/GPa) = 0.02819689
#
# Stress axis : x y z
#
# Youngs Moduli (GPa) = 78.00268 72.44001 93.12250
#
# Poissons Ratio (x) = 0.22084 0.11734
# Poissons Ratio (y) = 0.23780 0.02556
# Poissons Ratio (z) = 0.09829 0.01988
#
# Static dielectric constant tensor:
#      x y z
#    x 1.758800 0.000000 -0.007800 
#    y 0.000000 1.912910 0.000000 
#    z -0.007800 0.000000 1.875380 
# 
# From -- ./inp_files/146082.got.cif
#   From: 2010.05.17/outbox.cif.g08.bks.cpg/sg15_74_cif.got.tgz:146082.got - 2010.06.03 18:47:42.
