data_PCOD9290064
_publ_section_title
;
Structure prediction by ZEFSAII (Michael W. Deem and Ramdas Pophale) SiO2 
 PCOD9290064
Probable space group: C 2/C
;
_chemical_formula_sum "Si O2"
_cell_formula_units_Z 52
_cell_length_a 20.389810
_cell_length_b 13.482744
_cell_length_c 10.804366
_cell_angle_alpha 90.000000
_cell_angle_beta 57.553193
_cell_angle_gamma 90.000000
_cell_volume 2506.551014
_symmetry_space_group_name_H-M "C 2/C"
_symmetry_group_IT_number 15
_symmetry_cell_setting 'monoclinic'
loop_
_space_group_symop_operation_xyz
x,y,z
-x,y,1/2-z
-x,-y,-z
x,-y,1/2+z
1/2+x,1/2+y,z
1/2-x,1/2+y,1/2-z
1/2-x,1/2-y,-z
1/2+x,1/2-y,1/2+z
loop_
_atom_site_type_symbol
_atom_site_label
_atom_site_fract_x
_atom_site_fract_y
_atom_site_fract_z
Si Si1 0.215170 0.852277 0.878552
Si Si2 0.644015 0.785680 0.261998
Si Si3 0.148557 0.201419 0.695873
Si Si4 0.480967 0.814186 0.544213
Si Si5 0.256359 0.042946 0.714751
Si Si6 0.867641 0.404062 0.453711
Si Si7 0.500000 0.958684 0.750000
O O1 0.187871 0.807950 0.775240
O O2 0.294581 0.796398 0.838042
O O3 0.227516 0.968585 0.850362
O O4 0.153029 0.821281 0.045694
O O5 0.553719 0.778989 0.389955
O O6 0.654979 0.810245 0.106971
O O7 0.681619 0.879290 0.295314
O O8 0.065862 0.229103 0.835561
O O9 0.188751 0.108838 0.723371
O O10 0.419458 0.867617 0.516202
O O11 0.508965 0.891350 0.620102
O O12 0.298955 0.972695 0.572423
O O13 0.924804 0.472225 0.313565
#
# Coordination Sequence:
#
# PCOD9290064 Si02
#       7
#     8   8   8   8   8   8   4
#     4  10  22  41  60  88 125 165 204 249 306 363
#     4  11  23  38  62  92 125 160 203 252 310 364
#     4  10  23  39  61  88 124 163 207 252 298 369
#     4  12  22  39  60  91 124 161 202 256 305 360
#     4  11  22  41  60  93 123 162 207 250 307 360
#     4  12  22  35  60  95 127 153 199 257 313 365
#     4  12  22  34  60  94 124 156 200 254 320 356
#
# _framework density 20.745636999999999
#
# number of rings (size 3 to 8) (size 9 to 14) (size 15 to 20)
#    0.000    0.923    4.615    3.231    4.308    0.615 
#    2.769    0.769    0.000    0.000    0.000    0.000 
#    0.000    0.000    0.000    0.000    0.000    0.000 
#
# Total GULP energy -145451.592849 kJ/mol
# GULP energy per Si atom -5594.292033 kJ/mol
# Density = 2.069842 g / cm^3
# Si number density = 20.745637 Si / 1000 Ang^3
#
#
#
# Elastic Constant Matrix: (Units=GPa)
#
#
# Indices 1 2 3 4 5 6 
#
# 1 48.5048 20.3258 5.3057 0.0000 5.4237 0.0000
# 2 20.3258 68.7731 7.4447 0.0000 -12.8101 0.0000
# 3 5.3057 7.4447 36.8804 0.0000 -11.7485 0.0000
# 4 0.0000 0.0000 0.0000 32.8767 0.0000 1.8122
# 5 5.4237 -12.8101 -11.7485 0.0000 31.8105 0.0000
# 6 0.0000 0.0000 0.0000 1.8122 0.0000 22.5368
#
#
#
# Elastic Compliance Matrix: (Units=1/GPa)
#
#
# Indices 1 2 3 4 5 6 
#
# 1 0.026061 -0.009004 -0.005102 0.000000 -0.009954 0.000000
# 2 -0.009004 0.018887 0.000447 0.000000 0.009306 0.000000
# 3 -0.005102 0.000447 0.031839 0.000000 0.012809 0.000000
# 4 0.000000 0.000000 0.000000 0.030552 0.000000 -0.002457
# 5 -0.009954 0.009306 0.012809 0.000000 0.041612 0.000000
# 6 0.000000 0.000000 0.000000 -0.002457 0.000000 0.044569
#
#
# Mechanical properties :
#
#
# Convention : Reuss Voigt Hill
#
# Bulk Modulus (GPa) = 20.21501 24.47897 22.34699
# Shear Modulus (GPa) = 21.06803 25.51695 23.29249
#
# Velocity S-wave (km/s) = 3.19021 3.51093 3.35440
# Velocity P-wave (km/s) = 4.83066 5.31608 5.07917
#
# Compressibility (1/GPa) = 0.04946820
#
# Stress axis : x y z
#
# Youngs Moduli (GPa) = 38.37197 52.94744 31.40827
#
# Poissons Ratio (x) = 0.47673 0.16026
# Poissons Ratio (y) = 0.34550 -0.01405
# Poissons Ratio (z) = 0.19579 -0.02369
#
# Static dielectric constant tensor:
#      x y z
#    x 1.739150 0.000000 0.022090 
#    y 0.000000 1.719600 0.000000 
#    z 0.022090 0.000000 1.770900 
# 
# From -- ./inp_files/105478.got.cif
#   From: 2010.05.17/outbox.cif.g08.bks.cpg/sg15_53_cif.got.tgz:105478.got - 2010.06.03 18:47:42.
