data_PCOD9290245
_publ_section_title
;
Structure prediction by ZEFSAII (Michael W. Deem and Ramdas Pophale) SiO2 
 PCOD9290245
Probable space group: C 2/C
;
_chemical_formula_sum "Si O2"
_cell_formula_units_Z 32
_cell_length_a 8.891818
_cell_length_b 35.798821
_cell_length_c 4.961235
_cell_angle_alpha 90.000000
_cell_angle_beta 64.664569
_cell_angle_gamma 90.000000
_cell_volume 1427.348831
_symmetry_space_group_name_H-M "C 2/C"
_symmetry_group_IT_number 15
_symmetry_cell_setting 'monoclinic'
loop_
_space_group_symop_operation_xyz
x,y,z
-x,y,1/2-z
-x,-y,-z
x,-y,1/2+z
1/2+x,1/2+y,z
1/2-x,1/2+y,1/2-z
1/2-x,1/2-y,-z
1/2+x,1/2-y,1/2+z
loop_
_atom_site_type_symbol
_atom_site_label
_atom_site_fract_x
_atom_site_fract_y
_atom_site_fract_z
Si Si1 0.801187 0.707721 0.902610
Si Si2 0.814424 0.164531 0.991133
Si Si3 0.199314 0.021946 0.634041
Si Si4 0.886912 0.593882 0.575636
O O1 0.738086 0.699077 0.653198
O O2 0.000000 0.703292 0.750000
O O3 0.750000 0.750000 0.000000
O O4 0.717219 0.678379 0.179005
O O5 0.697472 0.130636 0.985739
O O6 0.000000 0.154775 0.750000
O O7 0.252589 0.061387 0.718283
O O8 0.000000 0.022158 0.750000
O O9 0.258996 0.010231 0.292490
O O10 0.000000 0.601622 0.750000
O O11 0.000000 0.578342 0.250000
#
# Coordination Sequence:
#
# PCOD9290245 Si02
#       4
#     8   8   8   8
#     4  12  25  44  68  97 131 168 213 265 323 385
#     4  12  25  44  67  94 129 171 217 265 322 385
#     4  10  22  41  64  91 126 168 213 262 319 383
#     4  12  25  41  64  94 129 168 213 267 325 382
#
# _framework density 22.419184000000001
#
# number of rings (size 3 to 8) (size 9 to 14) (size 15 to 20)
#    0.000    0.500    0.000    9.750    0.000    3.000 
#    0.000    7.500    0.000    0.000    0.000    0.000 
#    0.000    0.000    0.000    0.000    0.000    0.000 
#
# Total GULP energy -89451.683885 kJ/mol
# GULP energy per Si atom -5590.730243 kJ/mol
# Density = 2.236816 g / cm^3
# Si number density = 22.419184 Si / 1000 Ang^3
#
#
#
# Elastic Constant Matrix: (Units=GPa)
#
#
# Indices 1 2 3 4 5 6 
#
# 1 90.5545 15.1899 22.8315 0.0000 -3.8366 0.0000
# 2 15.1899 105.1309 -11.1036 0.0000 1.2884 0.0000
# 3 22.8315 -11.1036 86.9173 0.0000 2.1258 0.0000
# 4 0.0000 0.0000 0.0000 25.5196 0.0000 13.7446
# 5 -3.8366 1.2884 2.1258 0.0000 29.8593 0.0000
# 6 0.0000 0.0000 0.0000 13.7446 0.0000 64.8558
#
#
#
# Elastic Compliance Matrix: (Units=1/GPa)
#
#
# Indices 1 2 3 4 5 6 
#
# 1 0.012397 -0.002194 -0.003584 0.000000 0.001943 0.000000
# 2 -0.002194 0.010038 0.001879 0.000000 -0.000849 0.000000
# 3 -0.003584 0.001879 0.012722 0.000000 -0.001447 0.000000
# 4 0.000000 0.000000 0.000000 0.044235 0.000000 -0.009374
# 5 0.001943 -0.000849 -0.001447 0.000000 0.033880 0.000000
# 6 0.000000 0.000000 0.000000 -0.009374 0.000000 0.017405
#
#
# Mechanical properties :
#
#
# Convention : Reuss Voigt Hill
#
# Bulk Modulus (GPa) = 36.54969 37.38204 36.96587
# Shear Modulus (GPa) = 33.87681 41.09261 37.48471
#
# Velocity S-wave (km/s) = 3.89146 4.28591 4.09344
# Velocity P-wave (km/s) = 6.04396 6.41891 6.23425
#
# Compressibility (1/GPa) = 0.02736001
#
# Stress axis : x y z
#
# Youngs Moduli (GPa) = 80.66461 99.62369 78.60303
#
# Poissons Ratio (x) = 0.21853 0.28173
# Poissons Ratio (y) = 0.17694 -0.14772
# Poissons Ratio (z) = 0.28912 -0.18722
#
# Static dielectric constant tensor:
#      x y z
#    x 1.911030 0.000000 -0.130710 
#    y 0.000000 1.784550 0.000000 
#    z -0.130710 0.000000 1.900130 
# 
# From -- ./inp_files/2577.got.cif
#   From: 2010.05.17/outbox.cif.g08.bks.cpg/sg15_2_cif.got.tgz:2577.got - 2010.06.03 18:47:42.
