data_PCOD9290919
_publ_section_title
;
Structure prediction by ZEFSAII (Michael W. Deem and Ramdas Pophale) SiO2 
 PCOD9290919
Probable space group: C 2/C
;
_chemical_formula_sum "Si O2"
_cell_formula_units_Z 24
_cell_length_a 10.996944
_cell_length_b 9.684374
_cell_length_c 9.346931
_cell_angle_alpha 90.000000
_cell_angle_beta 126.033690
_cell_angle_gamma 90.000000
_cell_volume 804.979089
_symmetry_space_group_name_H-M "C 2/C"
_symmetry_group_IT_number 15
_symmetry_cell_setting 'monoclinic'
loop_
_space_group_symop_operation_xyz
x,y,z
-x,y,1/2-z
-x,-y,-z
x,-y,1/2+z
1/2+x,1/2+y,z
1/2-x,1/2+y,1/2-z
1/2-x,1/2-y,-z
1/2+x,1/2-y,1/2+z
loop_
_atom_site_type_symbol
_atom_site_label
_atom_site_fract_x
_atom_site_fract_y
_atom_site_fract_z
Si Si1 0.819878 0.860858 0.622529
Si Si2 0.052652 0.389142 0.622530
Si Si3 0.500000 0.125001 0.750000
Si Si4 0.000000 0.875000 0.250000
O O1 0.729528 0.875001 0.709056
O O2 0.000000 0.810632 0.750000
O O3 0.687590 0.837120 0.408686
O O4 0.860334 0.024536 0.625773
O O5 0.015442 0.225463 0.625775
O O6 0.000000 0.439368 0.750000
O O7 0.028905 0.587121 0.591314
#
# Coordination Sequence:
#
# PCOD9290919 Si02
#       4
#     8   8   4   4
#     4  11  22  42  64  93 128 171 216 266 319 383
#     4  11  22  42  64  93 128 171 216 266 319 383
#     4  10  22  42  60  90 132 162 218 270 312 378
#     4  10  26  42  64  98 132 174 214 266 328 378
#
# _framework density 29.814439
#
# number of rings (size 3 to 8) (size 9 to 14) (size 15 to 20)
#    0.000    1.333    3.333    2.000    0.000    2.667 
#    6.000    0.000    0.000    0.000    0.000    0.000 
#    0.000    0.000    0.000    0.000    0.000    0.000 
#
# Total GULP energy -67012.379017 kJ/mol
# GULP energy per Si atom -5584.364918 kJ/mol
# Density = 2.974658 g / cm^3
# Si number density = 29.814439 Si / 1000 Ang^3
#
#
#
# Elastic Constant Matrix: (Units=GPa)
#
#
# Indices 1 2 3 4 5 6 
#
# 1 277.8997 155.5050 118.7362 0.0000 8.5374 0.0000
# 2 155.5050 272.1225 130.2125 0.0000 2.5109 0.0000
# 3 118.7362 130.2125 266.3144 0.0000 -7.3823 0.0000
# 4 0.0000 0.0000 0.0000 -15.8838 0.0000 11.8757
# 5 8.5374 2.5109 -7.3823 0.0000 38.1482 0.0000
# 6 0.0000 0.0000 0.0000 11.8757 0.0000 103.8483
#
#
#
# Elastic Compliance Matrix: (Units=1/GPa)
#
#
# Indices 1 2 3 4 5 6 
#
# 1 0.005641 -0.002598 -0.001282 0.000000 -0.001340 0.000000
# 2 -0.002598 0.006016 -0.001788 0.000000 -0.000161 0.000000
# 3 -0.001282 -0.001788 0.005240 0.000000 0.001419 0.000000
# 4 0.000000 0.000000 0.000000 -0.057998 0.000000 0.006632
# 5 -0.001340 -0.000161 0.001419 0.000000 0.026798 0.000000
# 6 0.000000 0.000000 0.000000 0.006632 0.000000 0.008871
#
#
# Mechanical properties :
#
#
# Convention : Reuss Voigt Hill
#
# Bulk Modulus (GPa) = 179.78980 180.58267 180.18624
# Shear Modulus (GPa) = 644.53187 52.68139 348.60663
#
# Velocity S-wave (km/s) = 14.71905 4.20810 10.82494
# Velocity P-wave (km/s) = 18.68960 9.18211 14.72434
#
# Compressibility (1/GPa) = 0.00556205
#
# Stress axis : x y z
#
# Youngs Moduli (GPa) = 177.27548 166.21566 190.83841
#
# Poissons Ratio (x) = 0.43178 0.24466
# Poissons Ratio (y) = 0.46051 0.34120
# Poissons Ratio (z) = 0.22727 0.29717
#
# Static dielectric constant tensor:
#      x y z
#    x 2.130030 0.000000 0.003980 
#    y 0.000000 3.041770 0.000000 
#    z 0.003980 0.000000 2.089880 
# 
# From -- ./inp_files/83706.got.cif
#   From: 2010.05.17/outbox.cif.g08.bks.cpg/sg15_42_cif.got.tgz:83706.got - 2010.06.03 18:47:42.
