data_PCOD9290103
_publ_section_title
;
Structure prediction by ZEFSAII (Michael W. Deem and Ramdas Pophale) SiO2 
 PCOD9290103
Probable space group: C 2/C
;
_chemical_formula_sum "Si O2"
_cell_formula_units_Z 44
_cell_length_a 26.944784
_cell_length_b 8.741479
_cell_length_c 24.302413
_cell_angle_alpha 90.000000
_cell_angle_beta 157.516953
_cell_angle_gamma 90.000000
_cell_volume 2188.962506
_symmetry_space_group_name_H-M "C 2/C"
_symmetry_group_IT_number 15
_symmetry_cell_setting 'monoclinic'
loop_
_space_group_symop_operation_xyz
x,y,z
-x,y,1/2-z
-x,-y,-z
x,-y,1/2+z
1/2+x,1/2+y,z
1/2-x,1/2+y,1/2-z
1/2-x,1/2-y,-z
1/2+x,1/2-y,1/2+z
loop_
_atom_site_type_symbol
_atom_site_label
_atom_site_fract_x
_atom_site_fract_y
_atom_site_fract_z
Si Si1 0.375177 0.157716 0.825117
Si Si2 0.450796 0.594195 0.800126
Si Si3 0.020788 0.348406 0.949943
Si Si4 0.600628 0.312924 0.985062
Si Si5 0.500000 0.819835 0.750000
Si Si6 0.833109 0.511302 0.501406
O O1 0.231537 0.185118 0.655283
O O2 0.418184 0.981524 0.859335
O O3 0.394634 0.187002 0.909659
O O4 0.479790 0.260407 0.899238
O O5 0.451806 0.698596 0.855603
O O6 0.459012 0.710635 0.757813
O O7 0.320529 0.498435 0.659522
O O8 0.569663 0.476963 0.927279
O O9 0.109095 0.417742 0.991586
O O10 0.618347 0.183599 0.956812
O O11 0.387245 0.928661 0.610999
#
# Coordination Sequence:
#
# PCOD9290103 Si02
#       6
#     8   8   8   8   4   8
#     4  10  22  41  61  97 134 171 205 256 310 372
#     4  11  23  41  67  94 119 169 212 262 314 382
#     4   9  23  38  65  92 132 168 212 255 306 371
#     4  11  23  41  64  95 132 165 210 255 317 379
#     4  10  24  44  66  92 118 156 216 268 328 370
#     4  10  22  44  62  92 126 164 209 268 312 375
#
# _framework density 20.100847999999999
#
# number of rings (size 3 to 8) (size 9 to 14) (size 15 to 20)
#    0.000    1.818    1.818    0.545    7.636    4.364 
#    3.273    1.818    0.000    0.000    0.000    0.000 
#    0.000    0.000    0.000    0.000    0.000    0.000 
#
# Total GULP energy -122914.741300 kJ/mol
# GULP energy per Si atom -5587.033695 kJ/mol
# Density = 2.005510 g / cm^3
# Si number density = 20.100848 Si / 1000 Ang^3
#
#
#
# Elastic Constant Matrix: (Units=GPa)
#
#
# Indices 1 2 3 4 5 6 
#
# 1 43.5599 25.3654 46.1418 0.0001 -17.7452 0.0000
# 2 25.3654 87.0906 45.0064 0.0001 -25.6386 0.0000
# 3 46.1418 45.0064 147.2562 0.0001 -8.4856 0.0001
# 4 0.0001 0.0001 0.0001 26.3264 0.0001 0.5771
# 5 -17.7452 -25.6386 -8.4856 0.0001 29.7192 0.0000
# 6 0.0000 0.0000 0.0001 0.5771 0.0000 3.8669
#
#
#
# Elastic Compliance Matrix: (Units=1/GPa)
#
#
# Indices 1 2 3 4 5 6 
#
# 1 0.046931 0.000537 -0.013449 0.000000 0.024645 0.000000
# 2 0.000537 0.018133 -0.004871 0.000000 0.014573 0.000000
# 3 -0.013449 -0.004871 0.011986 0.000000 -0.008810 0.000000
# 4 0.000000 0.000000 0.000000 0.038109 0.000000 -0.005688
# 5 0.024645 0.014573 -0.008810 0.000000 0.058421 -0.000001
# 6 0.000000 0.000000 0.000000 -0.005688 -0.000001 0.259454
#
#
# Mechanical properties :
#
#
# Convention : Reuss Voigt Hill
#
# Bulk Modulus (GPa) = 24.10579 56.77043 40.43811
# Shear Modulus (GPa) = 10.36426 22.74206 16.55316
#
# Velocity S-wave (km/s) = 2.27318 3.36727 2.87279
# Velocity P-wave (km/s) = 4.34836 6.58955 5.58258
#
# Compressibility (1/GPa) = 0.04148382
#
# Stress axis : x y z
#
# Youngs Moduli (GPa) = 21.30810 55.14770 83.43020
#
# Poissons Ratio (x) = -0.02961 1.12208
# Poissons Ratio (y) = -0.01144 0.40635
# Poissons Ratio (z) = 0.28658 0.26860
#
# Static dielectric constant tensor:
#      x y z
#    x 1.700560 0.000000 -0.002200 
#    y 0.000000 1.718210 0.000000 
#    z -0.002200 0.000000 1.681880 
# 
# From -- ./inp_files/68309.got.cif
#   From: 2010.05.17/outbox.cif.g08.bks.cpg/sg15_35_cif.got.tgz:68309.got - 2010.06.03 18:47:42.
