data_PCOD9290582
_publ_section_title
;
Structure prediction by ZEFSAII (Michael W. Deem and Ramdas Pophale) SiO2 
 PCOD9290582
Probable space group: C 2/C
;
_chemical_formula_sum "Si O2"
_cell_formula_units_Z 32
_cell_length_a 15.694737
_cell_length_b 11.306437
_cell_length_c 13.096416
_cell_angle_alpha 90.000000
_cell_angle_beta 144.350092
_cell_angle_gamma 90.000000
_cell_volume 1354.487248
_symmetry_space_group_name_H-M "C 2/C"
_symmetry_group_IT_number 15
_symmetry_cell_setting 'monoclinic'
loop_
_space_group_symop_operation_xyz
x,y,z
-x,y,1/2-z
-x,-y,-z
x,-y,1/2+z
1/2+x,1/2+y,z
1/2-x,1/2+y,1/2-z
1/2-x,1/2-y,-z
1/2+x,1/2-y,1/2+z
loop_
_atom_site_type_symbol
_atom_site_label
_atom_site_fract_x
_atom_site_fract_y
_atom_site_fract_z
Si Si1 0.555970 0.129474 0.085814
Si Si2 0.852274 0.348224 0.046653
Si Si3 0.622676 0.346169 0.553145
Si Si4 0.416604 0.538345 0.262455
O O1 0.705414 0.129739 0.296897
O O2 0.606741 0.188840 0.028133
O O3 0.426632 0.210642 0.002372
O O4 0.500000 0.000000 0.000000
O O5 0.000000 0.372688 0.250000
O O6 0.750000 0.250000 0.000000
O O7 0.750755 0.464718 0.936425
O O8 0.511760 0.422763 0.377146
O O9 0.592270 0.392055 0.639466
O O10 0.500000 0.600748 0.250000
#
# Coordination Sequence:
#
# PCOD9290582 Si02
#       4
#     8   8   8   8
#     4  11  25  42  69  97 134 180 223 279 342 402
#     4  11  22  39  67  99 129 168 228 280 329 397
#     4  10  24  42  68  94 137 170 227 272 341 401
#     4  10  22  41  67  95 131 175 214 280 337 391
#
# _framework density 23.625174999999999
#
# number of rings (size 3 to 8) (size 9 to 14) (size 15 to 20)
#    0.000    1.500    0.000    5.250   14.000    0.000 
#    0.000    2.500    0.000    0.000    0.000    0.000 
#    0.000    0.000    0.000    0.000    0.000    0.000 
#
# Total GULP energy -89358.017219 kJ/mol
# GULP energy per Si atom -5584.876076 kJ/mol
# Density = 2.357140 g / cm^3
# Si number density = 23.625175 Si / 1000 Ang^3
#
#
#
# Elastic Constant Matrix: (Units=GPa)
#
#
# Indices 1 2 3 4 5 6 
#
# 1 51.9114 -3.3930 18.2434 0.0000 0.4486 0.0000
# 2 -3.3930 141.5626 90.7161 0.0000 34.7950 0.0000
# 3 18.2434 90.7161 240.7516 0.0000 37.8205 0.0000
# 4 0.0000 0.0000 0.0000 10.7122 0.0000 6.3539
# 5 0.4486 34.7950 37.8205 0.0000 42.6767 0.0000
# 6 0.0000 0.0000 0.0000 6.3539 0.0000 19.3266
#
#
#
# Elastic Compliance Matrix: (Units=1/GPa)
#
#
# Indices 1 2 3 4 5 6 
#
# 1 0.020185 0.001877 -0.002281 0.000000 0.000279 0.000000
# 2 0.001877 0.010603 -0.003225 0.000000 -0.005806 0.000000
# 3 -0.002281 -0.003225 0.005954 0.000000 -0.002623 0.000000
# 4 0.000000 0.000000 0.000000 0.115965 0.000000 -0.038125
# 5 0.000279 -0.005806 -0.002623 0.000000 0.030487 0.000000
# 6 0.000000 0.000000 0.000000 -0.038125 0.000000 0.064276
#
#
# Mechanical properties :
#
#
# Convention : Reuss Voigt Hill
#
# Bulk Modulus (GPa) = 33.91698 71.70650 52.81174
# Shear Modulus (GPa) = 18.89955 36.45371 27.67663
#
# Velocity S-wave (km/s) = 2.83145 3.93237 3.42642
# Velocity P-wave (km/s) = 5.00769 7.14392 6.16898
#
# Compressibility (1/GPa) = 0.02948376
#
# Stress axis : x y z
#
# Youngs Moduli (GPa) = 49.54098 94.31322 167.96028
#
# Poissons Ratio (x) = -0.17700 0.38303
# Poissons Ratio (y) = -0.09297 0.54173
# Poissons Ratio (z) = 0.11298 0.30419
#
# Static dielectric constant tensor:
#      x y z
#    x 1.948600 0.000000 -0.022500 
#    y 0.000000 1.938990 0.000000 
#    z -0.022500 0.000000 1.959940 
# 
# From -- ./inp_files/45744.got.cif
#   From: 2010.05.17/outbox.cif.g08.bks.cpg/sg15_23_cif.got.tgz:45744.got - 2010.06.03 18:47:42.
