data_PCOD9290440
_publ_section_title
;
Structure prediction by ZEFSAII (Michael W. Deem and Ramdas Pophale) SiO2 
 PCOD9290440
Probable space group: C 2/C
;
_chemical_formula_sum "Si O2"
_cell_formula_units_Z 44
_cell_length_a 7.174341
_cell_length_b 12.200030
_cell_length_c 19.151005
_cell_angle_alpha 90.000000
_cell_angle_beta 85.073182
_cell_angle_gamma 90.000000
_cell_volume 1670.040038
_symmetry_space_group_name_H-M "C 2/C"
_symmetry_group_IT_number 15
_symmetry_cell_setting 'monoclinic'
loop_
_space_group_symop_operation_xyz
x,y,z
-x,y,1/2-z
-x,-y,-z
x,-y,1/2+z
1/2+x,1/2+y,z
1/2-x,1/2+y,1/2-z
1/2-x,1/2-y,-z
1/2+x,1/2-y,1/2+z
loop_
_atom_site_type_symbol
_atom_site_label
_atom_site_fract_x
_atom_site_fract_y
_atom_site_fract_z
Si Si1 0.505078 0.038173 0.080810
Si Si2 0.024299 0.242986 0.518898
Si Si3 0.970380 0.687211 0.867296
Si Si4 0.000000 0.696117 0.250000
Si Si5 0.940835 0.124070 0.647304
Si Si6 0.673932 0.597594 0.319639
O O1 0.427752 0.930847 0.123510
O O2 0.436801 0.161954 0.071766
O O3 0.700246 0.065767 0.115310
O O4 0.500000 0.000000 0.000000
O O5 0.250000 0.250000 0.500000
O O6 0.938903 0.264749 0.446313
O O7 0.987429 0.133563 0.563815
O O8 0.777630 0.655428 0.836824
O O9 0.071186 0.787202 0.827887
O O10 0.043488 0.780819 0.186532
O O11 0.823813 0.614998 0.253157
O O12 0.966509 0.003672 0.676450
#
# Coordination Sequence:
#
# PCOD9290440 Si02
#       6
#     8   8   8   4   8   8
#     4   9  19  37  68  98 131 176 213 269 342 397
#     4  11  19  42  69 101 140 176 219 279 345 408
#     4  10  22  41  66 101 139 167 224 282 341 404
#     4  12  26  48  68  92 138 180 236 274 342 410
#     4  11  26  43  67 101 129 182 230 276 342 405
#     4  11  24  47  68 100 133 181 225 285 342 409
#
# _framework density 26.346672000000002
#
# number of rings (size 3 to 8) (size 9 to 14) (size 15 to 20)
#    0.000    1.455    3.636    0.545    0.000    5.818 
#   13.091    0.000    0.000    0.000    0.000    0.000 
#    0.000    0.000    0.000    0.000    0.000    0.000 
#
# Total GULP energy -122742.460853 kJ/mol
# GULP energy per Si atom -5579.202766 kJ/mol
# Density = 2.628671 g / cm^3
# Si number density = 26.346672 Si / 1000 Ang^3
#
#
#
# Elastic Constant Matrix: (Units=GPa)
#
#
# Indices 1 2 3 4 5 6 
#
# 1 76.0460 48.7215 2.9310 0.0000 3.1898 0.0000
# 2 48.7215 177.1831 43.8786 0.0000 -33.5743 0.0000
# 3 2.9310 43.8786 59.4800 0.0000 0.6803 0.0000
# 4 0.0000 0.0000 0.0000 27.2986 0.0000 -8.6493
# 5 3.1898 -33.5743 0.6803 0.0000 45.2629 0.0000
# 6 0.0000 0.0000 0.0000 -8.6493 0.0000 36.7412
#
#
#
# Elastic Compliance Matrix: (Units=1/GPa)
#
#
# Indices 1 2 3 4 5 6 
#
# 1 0.017991 -0.007389 0.004642 0.000000 -0.006818 0.000000
# 2 -0.007389 0.011427 -0.008170 0.000000 0.009120 0.000000
# 3 0.004642 -0.008170 0.022688 0.000000 -0.006728 0.000000
# 4 0.000000 0.000000 0.000000 0.039584 0.000000 0.009319
# 5 -0.006818 0.009120 -0.006728 0.000000 0.029439 0.000000
# 6 0.000000 0.000000 0.000000 0.009319 0.000000 0.029411
#
#
# Mechanical properties :
#
#
# Convention : Reuss Voigt Hill
#
# Bulk Modulus (GPa) = 33.03339 55.97457 44.50398
# Shear Modulus (GPa) = 27.40267 36.33906 31.87087
#
# Velocity S-wave (km/s) = 3.22853 3.71788 3.48181
# Velocity P-wave (km/s) = 5.14422 6.30251 5.75260
#
# Compressibility (1/GPa) = 0.03027240
#
# Stress axis : x y z
#
# Youngs Moduli (GPa) = 55.58382 87.51269 44.07701
#
# Poissons Ratio (x) = 0.64660 -0.20461
# Poissons Ratio (y) = 0.41069 0.36010
# Poissons Ratio (z) = -0.25803 0.71497
#
# Static dielectric constant tensor:
#      x y z
#    x 2.193850 0.000000 0.035170 
#    y 0.000000 2.068560 0.000000 
#    z 0.035170 0.000000 2.083220 
# 
# From -- ./inp_files/230161.got.cif
#   From: 2010.05.17/outbox.cif.g08.bks.cpg/sg15_116_cif.got.tgz:230161.got - 2010.06.03 18:47:42.
