data_PCOD9290939
_publ_section_title
;
Structure prediction by ZEFSAII (Michael W. Deem and Ramdas Pophale) SiO2 
 PCOD9290939
Probable space group: C 2/C
;
_chemical_formula_sum "Si O2"
_cell_formula_units_Z 36
_cell_length_a 5.137281
_cell_length_b 25.931828
_cell_length_c 12.975589
_cell_angle_alpha 90.000000
_cell_angle_beta 67.102908
_cell_angle_gamma 90.000000
_cell_volume 1592.391658
_symmetry_space_group_name_H-M "C 2/C"
_symmetry_group_IT_number 15
_symmetry_cell_setting 'monoclinic'
loop_
_space_group_symop_operation_xyz
x,y,z
-x,y,1/2-z
-x,-y,-z
x,-y,1/2+z
1/2+x,1/2+y,z
1/2-x,1/2+y,1/2-z
1/2-x,1/2-y,-z
1/2+x,1/2-y,1/2+z
loop_
_atom_site_type_symbol
_atom_site_label
_atom_site_fract_x
_atom_site_fract_y
_atom_site_fract_z
Si Si1 0.550474 0.425317 0.921770
Si Si2 0.319612 0.460882 0.174937
Si Si3 0.441641 0.775250 0.058291
Si Si4 0.500000 0.279477 0.750000
Si Si5 0.063495 0.362038 0.906020
O O1 0.451478 0.432686 0.055203
O O2 0.668592 0.478767 0.859913
O O3 0.278980 0.407879 0.898526
O O4 0.795199 0.382266 0.884674
O O5 0.500000 0.453468 0.250000
O O6 0.000000 0.445959 0.250000
O O7 0.365713 0.757267 0.183774
O O8 0.250000 0.750000 0.000000
O O9 0.458864 0.835389 0.028490
O O10 0.750000 0.750000 0.000000
O O11 0.250574 0.317470 0.825458
#
# Coordination Sequence:
#
# PCOD9290939 Si02
#       5
#     8   8   8   4   8
#     4  11  25  43  66 105 131 169 224 283 313 401
#     4  11  24  45  69  94 141 174 209 268 353 394
#     4  10  22  42  61  93 136 173 213 278 335 385
#     4  10  24  42  70  96 136 184 222 276 348 384
#     4  11  23  41  68  99 133 169 233 273 316 405
#
# _framework density 22.607503000000001
#
# number of rings (size 3 to 8) (size 9 to 14) (size 15 to 20)
#    0.000    1.333    0.000    5.333    4.667   10.667 
#    6.000    0.000    0.000    0.000    0.000    0.000 
#    0.000    0.000    0.000    0.000    0.000    0.000 
#
# Total GULP energy -100733.867534 kJ/mol
# GULP energy per Si atom -5596.325974 kJ/mol
# Density = 2.255605 g / cm^3
# Si number density = 22.607503 Si / 1000 Ang^3
#
#
#
# Elastic Constant Matrix: (Units=GPa)
#
#
# Indices 1 2 3 4 5 6 
#
# 1 142.5627 0.3485 29.6531 0.0000 8.3641 0.0000
# 2 0.3485 39.5478 0.0537 0.0000 -10.3316 0.0000
# 3 29.6531 0.0537 101.3329 0.0000 4.8192 0.0000
# 4 0.0000 0.0000 0.0000 30.3242 0.0000 2.2470
# 5 8.3641 -10.3316 4.8192 0.0000 33.8907 0.0000
# 6 0.0000 0.0000 0.0000 2.2470 0.0000 14.5973
#
#
#
# Elastic Compliance Matrix: (Units=1/GPa)
#
#
# Indices 1 2 3 4 5 6 
#
# 1 0.007560 -0.000513 -0.002130 0.000000 -0.001719 0.000000
# 2 -0.000513 0.027526 -0.000271 0.000000 0.008557 0.000000
# 3 -0.002130 -0.000271 0.010542 0.000000 -0.001056 0.000000
# 4 0.000000 0.000000 0.000000 0.033357 0.000000 -0.005135
# 5 -0.001719 0.008557 -0.001056 0.000000 0.032690 0.000000
# 6 0.000000 0.000000 0.000000 -0.005135 0.000000 0.069296
#
#
# Mechanical properties :
#
#
# Convention : Reuss Voigt Hill
#
# Bulk Modulus (GPa) = 25.12620 38.17265 31.64943
# Shear Modulus (GPa) = 24.99171 32.65498 28.82334
#
# Velocity S-wave (km/s) = 3.32845 3.80469 3.57451
# Velocity P-wave (km/s) = 5.09016 6.01851 5.57370
#
# Compressibility (1/GPa) = 0.03979909
#
# Stress axis : x y z
#
# Youngs Moduli (GPa) = 132.28141 36.32913 94.85705
#
# Poissons Ratio (x) = 0.01863 0.20206
# Poissons Ratio (y) = 0.06784 0.02575
# Poissons Ratio (z) = 0.28178 0.00986
#
# Static dielectric constant tensor:
#      x y z
#    x 1.778870 0.000000 -0.035800 
#    y 0.000000 1.812310 0.000000 
#    z -0.035800 0.000000 1.963660 
# 
# From -- ./inp_files/73016.got.cif
#   From: 2010.05.17/outbox.cif.g08.bks.cpg/sg15_37_cif.got.tgz:73016.got - 2010.06.03 18:47:42.
