data_PCOD9290870
_publ_section_title
;
Structure prediction by ZEFSAII (Michael W. Deem and Ramdas Pophale) SiO2 
 PCOD9290870
Probable space group: C 2/C
;
_chemical_formula_sum "Si O2"
_cell_formula_units_Z 56
_cell_length_a 9.756027
_cell_length_b 29.889008
_cell_length_c 12.114219
_cell_angle_alpha 90.000000
_cell_angle_beta 51.351901
_cell_angle_gamma 90.000000
_cell_volume 2758.855665
_symmetry_space_group_name_H-M "C 2/C"
_symmetry_group_IT_number 15
_symmetry_cell_setting 'monoclinic'
loop_
_space_group_symop_operation_xyz
x,y,z
-x,y,1/2-z
-x,-y,-z
x,-y,1/2+z
1/2+x,1/2+y,z
1/2-x,1/2+y,1/2-z
1/2-x,1/2-y,-z
1/2+x,1/2-y,1/2+z
loop_
_atom_site_type_symbol
_atom_site_label
_atom_site_fract_x
_atom_site_fract_y
_atom_site_fract_z
Si Si1 0.092199 0.898573 0.591007
Si Si2 0.092364 0.339294 0.975123
Si Si3 0.808352 0.171687 0.149884
Si Si4 0.000000 0.533607 0.250000
Si Si5 0.459612 0.250442 0.895795
Si Si6 0.320280 0.112586 0.475639
Si Si7 0.832081 0.027446 0.626691
Si Si8 0.000000 0.071207 0.750000
O O1 0.246768 0.864298 0.546514
O O2 0.172157 0.932959 0.462492
O O3 0.000000 0.917964 0.750000
O O4 0.935214 0.869927 0.616416
O O5 0.178190 0.320519 0.818529
O O6 0.945017 0.373860 0.012701
O O7 0.000543 0.300266 0.090479
O O8 0.699843 0.153672 0.100190
O O9 0.936180 0.214683 0.079479
O O10 0.905845 0.568275 0.380143
O O11 0.843898 0.502125 0.284202
O O12 0.500000 0.262768 0.750000
O O13 0.250000 0.250000 0.000000
O O14 0.127530 0.100884 0.612490
O O15 0.880244 0.043524 0.725257
O O16 0.000000 0.000000 0.500000
#
# Coordination Sequence:
#
# PCOD9290870 Si02
#       8
#     8   8   8   4   8   8   8   4
#     4  10  22  41  72  99 137 196 238 280 359 432
#     4  11  24  41  73 105 135 191 237 292 352 432
#     4  11  20  45  72  97 145 193 231 278 363 427
#     4  12  26  48  74 101 140 194 245 296 356 450
#     4  12  23  41  70 109 140 180 243 302 341 421
#     4  12  26  47  71 101 146 187 236 291 366 440
#     4  12  27  45  70 106 143 187 243 308 359 427
#     4  12  28  48  68 105 146 180 237 314 364 414
#
# _framework density 20.298271
#
# number of rings (size 3 to 8) (size 9 to 14) (size 15 to 20)
#    0.000    0.571    7.143    0.429    5.000    3.429 
#    0.000    0.000    0.000    0.000    0.000    0.000 
#    0.000    0.000    0.000    0.000    0.000    0.000 
#
# Total GULP energy -156340.415735 kJ/mol
# GULP energy per Si atom -5583.586276 kJ/mol
# Density = 2.025207 g / cm^3
# Si number density = 20.298271 Si / 1000 Ang^3
#
#
#
# Elastic Constant Matrix: (Units=GPa)
#
#
# Indices 1 2 3 4 5 6 
#
# 1 85.2105 23.5800 23.0790 0.0000 -8.9958 0.0000
# 2 23.5800 76.4443 29.4109 0.0000 3.4894 0.0000
# 3 23.0790 29.4109 55.2916 0.0000 -4.4603 0.0000
# 4 0.0000 0.0000 0.0000 141.9803 0.0000 -202.8035
# 5 -8.9958 3.4894 -4.4603 0.0000 36.5132 0.0000
# 6 0.0000 0.0000 0.0000 -202.8035 0.0000 347.0097
#
#
#
# Elastic Compliance Matrix: (Units=1/GPa)
#
#
# Indices 1 2 3 4 5 6 
#
# 1 0.013971 -0.002909 -0.004024 0.000000 0.003229 0.000000
# 2 -0.002909 0.017314 -0.008268 0.000000 -0.003381 0.000000
# 3 -0.004024 -0.008268 0.024388 0.000000 0.002778 0.000000
# 4 0.000000 0.000000 0.000000 0.042634 0.000000 0.024917
# 5 0.003229 -0.003381 0.002778 0.000000 0.028845 0.000000
# 6 0.000000 0.000000 0.000000 0.024917 0.000000 0.017444
#
#
# Mechanical properties :
#
#
# Convention : Reuss Voigt Hill
#
# Bulk Modulus (GPa) = 39.57124 41.00957 40.29041
# Shear Modulus (GPa) = 27.25951 114.49241 70.87596
#
# Velocity S-wave (km/s) = 3.66860 7.51847 5.91549
# Velocity P-wave (km/s) = 6.12226 9.77841 8.15780
#
# Compressibility (1/GPa) = 0.02527088
#
# Stress axis : x y z
#
# Youngs Moduli (GPa) = 71.57528 57.75617 41.00405
#
# Poissons Ratio (x) = 0.16800 0.16500
# Poissons Ratio (y) = 0.20820 0.33904
# Poissons Ratio (z) = 0.28802 0.47755
#
# Static dielectric constant tensor:
#      x y z
#    x 1.708590 0.000000 0.060510 
#    y 0.000000 1.767680 0.000000 
#    z 0.060510 0.000000 1.747560 
# 
# From -- ./inp_files/82529.got.cif
#   From: 2010.05.17/outbox.cif.g08.bks.cpg/sg15_42_cif.got.tgz:82529.got - 2010.06.03 18:47:42.
