data_PCOD9290986
_publ_section_title
;
Structure prediction by ZEFSAII (Michael W. Deem and Ramdas Pophale) SiO2 
 PCOD9290986
Probable space group: C 2/C
;
_chemical_formula_sum "Si O2"
_cell_formula_units_Z 44
_cell_length_a 11.019324
_cell_length_b 20.639566
_cell_length_c 8.596234
_cell_angle_alpha 90.000000
_cell_angle_beta 88.684908
_cell_angle_gamma 90.000000
_cell_volume 1954.561472
_symmetry_space_group_name_H-M "C 2/C"
_symmetry_group_IT_number 15
_symmetry_cell_setting 'monoclinic'
loop_
_space_group_symop_operation_xyz
x,y,z
-x,y,1/2-z
-x,-y,-z
x,-y,1/2+z
1/2+x,1/2+y,z
1/2-x,1/2+y,1/2-z
1/2-x,1/2-y,-z
1/2+x,1/2-y,1/2+z
loop_
_atom_site_type_symbol
_atom_site_label
_atom_site_fract_x
_atom_site_fract_y
_atom_site_fract_z
Si Si1 0.000000 0.832802 0.750000
Si Si2 0.162487 0.465876 0.364256
Si Si3 0.707737 0.357163 0.963607
Si Si4 0.866204 0.265256 0.479961
Si Si5 0.108124 0.418279 0.042966
Si Si6 0.121482 0.253737 0.707218
O O1 0.100207 0.869583 0.845274
O O2 0.066057 0.785174 0.629564
O O3 0.253128 0.424747 0.464830
O O4 0.180351 0.448057 0.185619
O O5 0.154369 0.542553 0.392315
O O6 0.031106 0.437476 0.420593
O O7 0.814396 0.317482 0.870455
O O8 0.664673 0.308950 0.104742
O O9 0.878562 0.342060 0.458437
O O10 0.724779 0.256761 0.371278
O O11 0.973078 0.259606 0.631868
#
# Coordination Sequence:
#
# PCOD9290986 Si02
#       6
#     4   8   8   8   8   8
#     4  12  24  40  62  98 138 170 212 274 312 388
#     4  10  22  42  62  93 128 162 211 260 331 384
#     4  11  24  40  63  97 136 174 214 268 320 386
#     4  12  23  39  62  95 129 164 215 262 322 382
#     4  10  23  39  65  93 127 163 204 272 322 386
#     4  11  22  36  62  96 130 169 210 266 331 378
#
# _framework density 22.511443
#
# number of rings (size 3 to 8) (size 9 to 14) (size 15 to 20)
#    0.000    1.091    3.636    3.273    7.636    0.000 
#    0.000    0.000    0.000    4.364    2.364    0.000 
#    0.000    0.000    0.000    0.000    0.000    0.000 
#
# Total GULP energy -122778.970857 kJ/mol
# GULP energy per Si atom -5580.862312 kJ/mol
# Density = 2.246021 g / cm^3
# Si number density = 22.511443 Si / 1000 Ang^3
#
#
#
# Elastic Constant Matrix: (Units=GPa)
#
#
# Indices 1 2 3 4 5 6 
#
# 1 100.9681 -3.9153 23.8737 0.0000 25.8693 0.0000
# 2 -3.9153 57.2246 -3.2201 0.0000 13.8343 0.0000
# 3 23.8737 -3.2201 143.7265 0.0000 23.1691 0.0000
# 4 0.0000 0.0000 0.0000 19.0173 0.0000 1.2428
# 5 25.8693 13.8343 23.1691 0.0000 42.7005 0.0000
# 6 0.0000 0.0000 0.0000 1.2428 0.0000 7.9391
#
#
#
# Elastic Compliance Matrix: (Units=1/GPa)
#
#
# Indices 1 2 3 4 5 6 
#
# 1 0.012193 0.002702 -0.000694 0.000000 -0.007886 0.000000
# 2 0.002702 0.019879 0.001423 0.000000 -0.008850 0.000000
# 3 -0.000694 0.001423 0.007793 0.000000 -0.004269 0.000000
# 4 0.000000 0.000000 0.000000 0.053127 0.000000 -0.008317
# 5 -0.007886 -0.008850 -0.004269 0.000000 0.033380 0.000000
# 6 0.000000 0.000000 0.000000 -0.008317 0.000000 0.127260
#
#
# Mechanical properties :
#
#
# Convention : Reuss Voigt Hill
#
# Bulk Modulus (GPa) = 21.40023 37.26621 29.33322
# Shear Modulus (GPa) = 19.05875 32.94346 26.00110
#
# Velocity S-wave (km/s) = 2.91284 3.82960 3.40224
# Velocity P-wave (km/s) = 4.56507 6.01205 5.33782
#
# Compressibility (1/GPa) = 0.04672847
#
# Stress axis : x y z
#
# Youngs Moduli (GPa) = 82.01150 50.30341 128.32062
#
# Poissons Ratio (x) = -0.13591 0.08900
# Poissons Ratio (y) = -0.22157 -0.18262
# Poissons Ratio (z) = 0.05688 -0.07159
#
# Static dielectric constant tensor:
#      x y z
#    x 2.017770 0.000000 0.325510 
#    y 0.000000 1.693080 0.000000 
#    z 0.325510 0.000000 2.284340 
# 
# From -- ./inp_files/97913.got.cif
#   From: 2010.05.17/outbox.cif.g08.bks.cpg/sg15_49_cif.got.tgz:97913.got - 2010.06.03 18:47:42.
