data_PCOD9290735
_publ_section_title
;
Structure prediction by ZEFSAII (Michael W. Deem and Ramdas Pophale) SiO2 
 PCOD9290735
Probable space group: C 2/C
;
_chemical_formula_sum "Si O2"
_cell_formula_units_Z 48
_cell_length_a 18.498679
_cell_length_b 31.119853
_cell_length_c 9.356693
_cell_angle_alpha 90.000000
_cell_angle_beta 152.930927
_cell_angle_gamma 90.000000
_cell_volume 2451.169941
_symmetry_space_group_name_H-M "C 2/C"
_symmetry_group_IT_number 15
_symmetry_cell_setting 'monoclinic'
loop_
_space_group_symop_operation_xyz
x,y,z
-x,y,1/2-z
-x,-y,-z
x,-y,1/2+z
1/2+x,1/2+y,z
1/2-x,1/2+y,1/2-z
1/2-x,1/2-y,-z
1/2+x,1/2-y,1/2+z
loop_
_atom_site_type_symbol
_atom_site_label
_atom_site_fract_x
_atom_site_fract_y
_atom_site_fract_z
Si Si1 0.312104 0.794537 0.052640
Si Si2 0.374991 0.372517 0.150434
Si Si3 0.189030 0.543373 0.231422
Si Si4 0.188616 0.457370 0.392993
Si Si5 0.611608 0.624593 0.313456
Si Si6 0.319721 0.210143 0.220322
O O1 0.489857 0.796226 0.433009
O O2 0.250000 0.750000 0.000000
O O3 0.212541 0.834955 0.934609
O O4 0.289832 0.790482 0.840728
O O5 0.500000 0.358403 0.250000
O O6 0.483293 0.387819 0.469353
O O7 0.272826 0.412636 0.920364
O O8 0.264540 0.332124 0.990537
O O9 0.241839 0.500494 0.406334
O O10 0.220080 0.538494 0.117418
O O11 0.002769 0.547533 0.944442
O O12 0.271429 0.416041 0.468086
O O13 0.500000 0.635970 0.250000
O O14 0.250000 0.250000 0.000000
#
# Coordination Sequence:
#
# PCOD9290735 Si02
#       6
#     8   8   8   8   8   8
#     4  11  25  45  68  95 132 168 215 271 325 385
#     4  12  23  43  66  94 129 173 219 266 326 387
#     4  10  22  41  69  94 129 173 218 270 325 386
#     4  10  22  43  65  96 130 172 219 267 325 388
#     4  12  27  43  64  96 136 172 217 270 326 390
#     4  11  25  44  71  96 125 172 218 267 326 392
#
# _framework density 19.582484999999998
#
# number of rings (size 3 to 8) (size 9 to 14) (size 15 to 20)
#    0.000    1.000    3.333    2.000    7.000    4.000 
#    0.000    1.667    0.000    0.000    0.000    0.000 
#    0.000    0.000    0.000    0.000    0.000    0.000 
#
# Total GULP energy -133843.840743 kJ/mol
# GULP energy per Si atom -5576.826698 kJ/mol
# Density = 1.953791 g / cm^3
# Si number density = 19.582485 Si / 1000 Ang^3
#
#
#
# Elastic Constant Matrix: (Units=GPa)
#
#
# Indices 1 2 3 4 5 6 
#
# 1 84.7410 45.5269 32.6770 0.0000 16.5307 0.0000
# 2 45.5269 184.2719 59.7043 0.0000 17.7788 0.0000
# 3 32.6770 59.7043 77.6779 0.0000 -4.7295 0.0000
# 4 0.0000 0.0000 0.0000 197.1611 0.0000 77.7027
# 5 16.5307 17.7788 -4.7295 0.0000 14.5381 0.0000
# 6 0.0000 0.0000 0.0000 77.7027 0.0000 68.1096
#
#
#
# Elastic Compliance Matrix: (Units=1/GPa)
#
#
# Indices 1 2 3 4 5 6 
#
# 1 0.021549 0.001506 -0.012065 0.000000 -0.030269 0.000000
# 2 0.001506 0.009521 -0.008942 0.000000 -0.016264 0.000000
# 3 -0.012065 -0.008942 0.026855 0.000000 0.033390 0.000000
# 4 0.000000 0.000000 0.000000 0.009215 0.000000 -0.010513
# 5 -0.030269 -0.016264 0.033390 0.000000 0.133955 0.000000
# 6 0.000000 0.000000 0.000000 -0.010513 0.000000 0.026676
#
#
# Mechanical properties :
#
#
# Convention : Reuss Voigt Hill
#
# Bulk Modulus (GPa) = 52.84776 69.16745 61.00761
# Shear Modulus (GPa) = 18.30955 69.88058 44.09506
#
# Velocity S-wave (km/s) = 3.06109 5.98019 4.75042
# Velocity P-wave (km/s) = 6.28805 9.11490 7.83010
#
# Compressibility (1/GPa) = 0.01892228
#
# Stress axis : x y z
#
# Youngs Moduli (GPa) = 46.40603 105.02979 37.23718
#
# Poissons Ratio (x) = -0.15813 0.44927
# Poissons Ratio (y) = -0.06987 0.33296
# Poissons Ratio (z) = 0.55990 0.93914
#
# Static dielectric constant tensor:
#      x y z
#    x 1.580490 0.000000 0.091090 
#    y 0.000000 1.640220 0.000000 
#    z 0.091090 0.000000 1.654640 
# 
# From -- ./inp_files/52729.got.cif
#   From: 2010.05.17/outbox.cif.g08.bks.cpg/sg15_27_cif.got.tgz:52729.got - 2010.06.03 18:47:42.
