data_PCOD9290438
_publ_section_title
;
Structure prediction by ZEFSAII (Michael W. Deem and Ramdas Pophale) SiO2 
 PCOD9290438
Probable space group: C 2/C
;
_chemical_formula_sum "Si O2"
_cell_formula_units_Z 32
_cell_length_a 5.135593
_cell_length_b 22.720010
_cell_length_c 11.591879
_cell_angle_alpha 90.000000
_cell_angle_beta 82.735252
_cell_angle_gamma 90.000000
_cell_volume 1341.691162
_symmetry_space_group_name_H-M "C 2/C"
_symmetry_group_IT_number 15
_symmetry_cell_setting 'monoclinic'
loop_
_space_group_symop_operation_xyz
x,y,z
-x,y,1/2-z
-x,-y,-z
x,-y,1/2+z
1/2+x,1/2+y,z
1/2-x,1/2+y,1/2-z
1/2-x,1/2-y,-z
1/2+x,1/2-y,1/2+z
loop_
_atom_site_type_symbol
_atom_site_label
_atom_site_fract_x
_atom_site_fract_y
_atom_site_fract_z
Si Si1 0.771471 0.413200 0.667666
Si Si2 0.772318 0.547515 0.667716
Si Si3 0.784284 0.239175 0.174905
Si Si4 0.908919 0.344975 0.012605
O O1 0.500000 0.410382 0.750000
O O2 0.799155 0.480488 0.622557
O O3 0.000000 0.403607 0.750000
O O4 0.823752 0.367605 0.561768
O O5 0.500000 0.552366 0.750000
O O6 0.779914 0.595509 0.566726
O O7 0.000000 0.558320 0.750000
O O8 0.500000 0.250246 0.250000
O O9 0.739137 0.192131 0.076811
O O10 0.000000 0.215859 0.250000
O O11 0.911582 0.298756 0.116570
#
# Coordination Sequence:
#
# PCOD9290438 Si02
#       4
#     8   8   8   8
#     4  10  23  41  65 100 135 169 215 270 327 393
#     4  10  22  41  66 101 137 169 215 270 327 395
#     4  11  27  46  65  98 133 171 227 278 325 384
#     4  11  24  43  72  94 131 181 219 268 334 394
#
# _framework density 23.850494999999999
#
# number of rings (size 3 to 8) (size 9 to 14) (size 15 to 20)
#    0.000    1.500    0.000    3.000    0.000   14.000 
#    0.000    7.500    0.000    1.500    0.000    1.750 
#    0.000    0.000    0.000    0.000    0.000    0.000 
#
# Total GULP energy -89616.656247 kJ/mol
# GULP energy per Si atom -5601.041015 kJ/mol
# Density = 2.379621 g / cm^3
# Si number density = 23.850495 Si / 1000 Ang^3
#
#
#
# Elastic Constant Matrix: (Units=GPa)
#
#
# Indices 1 2 3 4 5 6 
#
# 1 129.8852 19.4533 43.4638 0.0000 -21.0055 0.0000
# 2 19.4533 176.7772 75.9227 0.0000 -16.0102 0.0000
# 3 43.4638 75.9227 113.3293 0.0000 -23.7778 0.0000
# 4 0.0000 0.0000 0.0000 54.6359 0.0000 -11.8469
# 5 -21.0055 -16.0102 -23.7778 0.0000 32.4262 0.0000
# 6 0.0000 0.0000 0.0000 -11.8469 0.0000 30.0614
#
#
#
# Elastic Compliance Matrix: (Units=1/GPa)
#
#
# Indices 1 2 3 4 5 6 
#
# 1 0.009318 0.000718 -0.003207 0.000000 0.004039 0.000000
# 2 0.000718 0.007997 -0.005563 0.000000 0.000334 0.000000
# 3 -0.003207 -0.005563 0.015090 0.000000 0.006241 0.000000
# 4 0.000000 0.000000 0.000000 0.020013 0.000000 0.007887
# 5 0.004039 0.000334 0.006241 0.000000 0.038197 0.000000
# 6 0.000000 0.000000 0.000000 0.007887 0.000000 0.036373
#
#
# Mechanical properties :
#
#
# Convention : Reuss Voigt Hill
#
# Bulk Modulus (GPa) = 61.34552 77.51905 69.43228
# Shear Modulus (GPa) = 33.66399 42.16816 37.91608
#
# Velocity S-wave (km/s) = 3.76101 4.20935 3.99148
# Velocity P-wave (km/s) = 6.68109 7.49649 7.10051
#
# Compressibility (1/GPa) = 0.01630111
#
# Stress axis : x y z
#
# Youngs Moduli (GPa) = 107.31958 125.04346 66.26947
#
# Poissons Ratio (x) = -0.08975 0.21253
# Poissons Ratio (y) = -0.07703 0.36864
# Poissons Ratio (z) = 0.34418 0.69558
#
# Static dielectric constant tensor:
#      x y z
#    x 1.868740 0.000000 0.014820 
#    y 0.000000 1.941230 0.000000 
#    z 0.014820 0.000000 1.933390 
# 
# From -- ./inp_files/72362.got.cif
#   From: 2010.05.17/outbox.cif.g08.bks.cpg/sg15_37_cif.got.tgz:72362.got - 2010.06.03 18:47:42.
