data_PCOD9290886
_publ_section_title
;
Structure prediction by ZEFSAII (Michael W. Deem and Ramdas Pophale) SiO2 
 PCOD9290886
Probable space group: C 2/C
;
_chemical_formula_sum "Si O2"
_cell_formula_units_Z 56
_cell_length_a 11.526560
_cell_length_b 26.408077
_cell_length_c 10.033074
_cell_angle_alpha 90.000000
_cell_angle_beta 118.358133
_cell_angle_gamma 90.000000
_cell_volume 2687.516563
_symmetry_space_group_name_H-M "C 2/C"
_symmetry_group_IT_number 15
_symmetry_cell_setting 'monoclinic'
loop_
_space_group_symop_operation_xyz
x,y,z
-x,y,1/2-z
-x,-y,-z
x,-y,1/2+z
1/2+x,1/2+y,z
1/2-x,1/2+y,1/2-z
1/2-x,1/2-y,-z
1/2+x,1/2-y,1/2+z
loop_
_atom_site_type_symbol
_atom_site_label
_atom_site_fract_x
_atom_site_fract_y
_atom_site_fract_z
Si Si1 0.911017 0.491031 0.821760
Si Si2 0.764475 0.405780 0.162814
Si Si3 0.586099 0.844008 0.042858
Si Si4 0.496630 0.545891 0.599896
Si Si5 0.811213 0.136917 0.448580
Si Si6 0.302226 0.894871 0.875473
Si Si7 0.408387 0.741317 0.570244
O O1 0.850140 0.543312 0.735365
O O2 0.803580 0.451068 0.812997
O O3 0.000000 0.469695 0.750000
O O4 0.000000 0.500000 0.000000
O O5 0.835288 0.361044 0.282708
O O6 0.622903 0.418617 0.145261
O O7 0.753702 0.395576 0.000077
O O8 0.681113 0.856271 0.968896
O O9 0.453177 0.876108 0.961402
O O10 0.552908 0.784507 0.014423
O O11 0.500000 0.524670 0.750000
O O12 0.500000 0.500000 0.500000
O O13 0.372712 0.582767 0.516346
O O14 0.774727 0.138779 0.273177
O O15 0.912513 0.182333 0.535081
O O16 0.500000 0.749771 0.750000
O O17 0.250000 0.750000 0.500000
#
# Coordination Sequence:
#
# PCOD9290886 Si02
#       7
#     8   8   8   8   8   8   8
#     4  12  22  39  63  97 136 176 222 281 339 399
#     4  12  26  42  65  96 140 177 225 280 341 413
#     4  11  21  43  71 104 132 170 226 288 345 403
#     4  12  28  46  68  93 133 186 230 276 334 414
#     4  11  24  44  70  99 134 178 230 279 336 411
#     4  12  25  41  66 100 138 173 222 282 350 401
#     4  10  22  41  74 107 134 174 234 291 345 412
#
# _framework density 20.837081000000001
#
# number of rings (size 3 to 8) (size 9 to 14) (size 15 to 20)
#    0.000    0.571    4.286    4.714    6.000    0.000 
#    0.000    0.714    3.143    0.000    0.000    0.000 
#    0.000    0.000    0.000    0.000    0.000    0.000 
#
# Total GULP energy -156577.424692 kJ/mol
# GULP energy per Si atom -5592.050882 kJ/mol
# Density = 2.078966 g / cm^3
# Si number density = 20.837081 Si / 1000 Ang^3
#
#
#
# Elastic Constant Matrix: (Units=GPa)
#
#
# Indices 1 2 3 4 5 6 
#
# 1 51.3244 -0.4805 31.5640 0.0000 -12.7178 0.0000
# 2 -0.4805 75.7594 22.6572 0.0000 -12.6387 0.0000
# 3 31.5640 22.6572 147.5575 0.0000 -27.9916 0.0000
# 4 0.0000 0.0000 0.0000 34.7472 0.0000 -1.8668
# 5 -12.7178 -12.6387 -27.9916 0.0000 40.5768 0.0000
# 6 0.0000 0.0000 0.0000 -1.8668 0.0000 13.1556
#
#
#
# Elastic Compliance Matrix: (Units=1/GPa)
#
#
# Indices 1 2 3 4 5 6 
#
# 1 0.023470 0.002310 -0.004422 0.000000 0.005025 0.000000
# 2 0.002310 0.014450 -0.001981 0.000000 0.003858 0.000000
# 3 -0.004422 -0.001981 0.008799 0.000000 0.004067 0.000000
# 4 0.000000 0.000000 0.000000 0.029000 0.000000 0.004115
# 5 0.005025 0.003858 0.004067 0.000000 0.030227 0.000000
# 6 0.000000 0.000000 0.000000 0.004115 0.000000 0.076597
#
#
# Mechanical properties :
#
#
# Convention : Reuss Voigt Hill
#
# Bulk Modulus (GPa) = 25.95201 42.45808 34.20504
# Shear Modulus (GPa) = 24.56109 32.42264 28.49187
#
# Velocity S-wave (km/s) = 3.43697 3.94890 3.70180
# Velocity P-wave (km/s) = 5.31339 6.41968 5.89255
#
# Compressibility (1/GPa) = 0.03853266
#
# Stress axis : x y z
#
# Youngs Moduli (GPa) = 42.60732 69.20206 113.65567
#
# Poissons Ratio (x) = -0.15983 0.50257
# Poissons Ratio (y) = -0.09841 0.22515
# Poissons Ratio (z) = 0.18840 0.13709
#
# Static dielectric constant tensor:
#      x y z
#    x 1.757470 0.000000 0.035710 
#    y 0.000000 1.793030 0.000000 
#    z 0.035710 0.000000 1.755460 
# 
# From -- ./inp_files/35784.got.cif
#   From: 2010.05.17/outbox.cif.g08.bks.cpg/sg15_18_cif.got.tgz:35784.got - 2010.06.03 18:47:42.
