data_PCOD9290744
_publ_section_title
;
Structure prediction by ZEFSAII (Michael W. Deem and Ramdas Pophale) SiO2 
 PCOD9290744
Probable space group: C 2/C
;
_chemical_formula_sum "Si O2"
_cell_formula_units_Z 52
_cell_length_a 23.110374
_cell_length_b 5.198431
_cell_length_c 21.093916
_cell_angle_alpha 90.000000
_cell_angle_beta 120.302219
_cell_angle_gamma 90.000000
_cell_volume 2187.945234
_symmetry_space_group_name_H-M "C 2/C"
_symmetry_group_IT_number 15
_symmetry_cell_setting 'monoclinic'
loop_
_space_group_symop_operation_xyz
x,y,z
-x,y,1/2-z
-x,-y,-z
x,-y,1/2+z
1/2+x,1/2+y,z
1/2-x,1/2+y,1/2-z
1/2-x,1/2-y,-z
1/2+x,1/2-y,1/2+z
loop_
_atom_site_type_symbol
_atom_site_label
_atom_site_fract_x
_atom_site_fract_y
_atom_site_fract_z
Si Si1 0.806696 0.545552 0.014767
Si Si2 0.708710 0.814289 0.241810
Si Si3 0.429989 0.370235 0.121895
Si Si4 0.935614 0.882852 0.497454
Si Si5 0.359379 0.751407 0.160745
Si Si6 0.500000 0.940852 0.750000
Si Si7 0.863593 0.388363 0.422868
O O1 0.880836 0.670585 0.061350
O O2 0.813432 0.335249 0.074323
O O3 0.750000 0.750000 0.000000
O O4 0.805405 0.502665 0.938294
O O5 0.737263 0.542841 0.232721
O O6 0.679716 0.782557 0.295929
O O7 0.653991 0.901414 0.160238
O O8 0.385691 0.470873 0.156117
O O9 0.495829 0.240436 0.185802
O O10 0.442740 0.591172 0.077517
O O11 0.921767 0.594910 0.468258
O O12 0.878098 0.088260 0.445866
O O13 0.000000 0.000000 0.500000
O O14 0.430805 0.901732 0.207493
#
# Coordination Sequence:
#
# PCOD9290744 Si02
#       7
#     8   8   8   8   8   4   8
#     4  10  22  41  69  96 133 179 233 293 344 415
#     4  12  29  48  71 103 149 190 241 293 364 432
#     4  10  23  42  65 102 132 180 238 286 356 422
#     4  11  24  43  71  98 141 179 232 290 352 427
#     4  11  24  44  70 102 139 186 238 296 359 428
#     4  10  24  40  68 100 138 180 234 294 360 420
#     4  11  24  45  66 105 134 184 236 282 354 420
#
# _framework density 23.766591999999999
#
# number of rings (size 3 to 8) (size 9 to 14) (size 15 to 20)
#    0.000    1.231    1.538    2.769    8.615    4.308 
#    0.000    0.000    0.000    0.000    0.000    0.000 
#    0.000    0.000    0.000    0.000    0.000    0.000 
#
# Total GULP energy -145217.616758 kJ/mol
# GULP energy per Si atom -5585.292952 kJ/mol
# Density = 2.371250 g / cm^3
# Si number density = 23.766592 Si / 1000 Ang^3
#
#
#
# Elastic Constant Matrix: (Units=GPa)
#
#
# Indices 1 2 3 4 5 6 
#
# 1 103.3649 16.7550 23.0934 0.0020 -32.2371 0.0009
# 2 16.7550 80.2690 18.0414 0.0095 -6.9249 0.0045
# 3 23.0934 18.0414 101.0263 0.0014 -11.3616 0.0015
# 4 0.0020 0.0095 0.0014 34.2438 0.0027 5.8959
# 5 -32.2371 -6.9249 -11.3616 0.0027 40.1216 0.0017
# 6 0.0009 0.0045 0.0015 5.8959 0.0017 40.1420
#
#
#
# Elastic Compliance Matrix: (Units=1/GPa)
#
#
# Indices 1 2 3 4 5 6 
#
# 1 0.013435 -0.001564 -0.001661 -0.000001 0.010054 0.000000
# 2 -0.001564 0.013266 -0.001958 -0.000003 0.000479 -0.000001
# 3 -0.001661 -0.001958 0.010783 0.000000 0.001381 0.000000
# 4 -0.000001 -0.000003 0.000000 0.029960 -0.000003 -0.004400
# 5 0.010054 0.000479 0.001381 -0.000003 0.033476 -0.000001
# 6 0.000000 -0.000001 0.000000 -0.004400 -0.000001 0.025558
#
#
# Mechanical properties :
#
#
# Convention : Reuss Voigt Hill
#
# Bulk Modulus (GPa) = 36.87473 44.49331 40.68402
# Shear Modulus (GPa) = 34.27420 38.01951 36.14686
#
# Velocity S-wave (km/s) = 3.80164 4.00397 3.90412
# Velocity P-wave (km/s) = 5.90076 6.33540 6.12194
#
# Compressibility (1/GPa) = 0.02711884
#
# Stress axis : x y z
#
# Youngs Moduli (GPa) = 74.43391 75.38163 92.73824
#
# Poissons Ratio (x) = 0.11786 0.15404
# Poissons Ratio (y) = 0.11638 0.18156
# Poissons Ratio (z) = 0.12364 0.14758
#
# Static dielectric constant tensor:
#      x y z
#    x 2.410850 -0.000130 0.265140 
#    y -0.000130 1.973970 -0.000070 
#    z 0.265140 -0.000070 2.128940 
# 
# From -- ./inp_files/254290.got.cif
#   From: 2010.05.17/outbox.cif.g08.bks.cpg/sg15_128_cif.got.tgz:254290.got - 2010.06.03 18:47:42.
