data_PCOD9290571
_publ_section_title
;
Structure prediction by ZEFSAII (Michael W. Deem and Ramdas Pophale) SiO2 
 PCOD9290571
Probable space group: C 2/C
;
_chemical_formula_sum "Si O2"
_cell_formula_units_Z 40
_cell_length_a 16.020259
_cell_length_b 23.171280
_cell_length_c 9.280787
_cell_angle_alpha 90.000000
_cell_angle_beta 32.421201
_cell_angle_gamma 90.000000
_cell_volume 1847.063863
_symmetry_space_group_name_H-M "C 2/C"
_symmetry_group_IT_number 15
_symmetry_cell_setting 'monoclinic'
loop_
_space_group_symop_operation_xyz
x,y,z
-x,y,1/2-z
-x,-y,-z
x,-y,1/2+z
1/2+x,1/2+y,z
1/2-x,1/2+y,1/2-z
1/2-x,1/2-y,-z
1/2+x,1/2-y,1/2+z
loop_
_atom_site_type_symbol
_atom_site_label
_atom_site_fract_x
_atom_site_fract_y
_atom_site_fract_z
Si Si1 0.829623 0.913686 0.071786
Si Si2 0.306249 0.285594 0.649902
Si Si3 0.606492 0.465689 0.960556
Si Si4 0.343590 0.320708 0.284215
Si Si5 0.173282 0.376503 0.025637
O O1 0.841977 0.881508 0.205864
O O2 0.787033 0.981108 0.139967
O O3 0.715003 0.881042 0.131642
O O4 0.000000 0.910287 0.750000
O O5 0.284210 0.322452 0.534344
O O6 0.482494 0.294040 0.450196
O O7 0.259305 0.222494 0.663158
O O8 0.196380 0.312223 0.931127
O O9 0.704070 0.416463 0.740310
O O10 0.500000 0.445752 0.250000
O O11 0.500000 0.500000 0.000000
O O12 0.000000 0.396788 0.250000
#
# Coordination Sequence:
#
# PCOD9290571 Si02
#       5
#     8   8   8   8   8
#     4  11  22  42  65  95 124 169 220 259 315 392
#     4  10  23  41  65  94 128 172 214 263 320 383
#     4  11  22  43  72  93 123 172 220 256 316 395
#     4  10  22  41  67  94 126 170 221 261 316 382
#     4  12  27  42  64 102 134 163 215 273 325 373
#
# _framework density 21.655992000000001
#
# number of rings (size 3 to 8) (size 9 to 14) (size 15 to 20)
#    0.000    1.200    6.000    0.000    8.400    2.400 
#    0.000    0.000    0.000    0.000    0.000    0.000 
#    0.000    0.000    0.000    0.000    0.000    0.000 
#
# Total GULP energy -111781.078789 kJ/mol
# GULP energy per Si atom -5589.053939 kJ/mol
# Density = 2.160670 g / cm^3
# Si number density = 21.655992 Si / 1000 Ang^3
#
#
#
# Elastic Constant Matrix: (Units=GPa)
#
#
# Indices 1 2 3 4 5 6 
#
# 1 107.5432 11.2768 17.9378 -0.0001 -3.8586 0.0004
# 2 11.2768 50.7068 -6.3283 0.0000 5.4537 0.0001
# 3 17.9378 -6.3283 36.3095 0.0000 -2.8667 0.0002
# 4 -0.0001 0.0000 0.0000 25.8744 0.0001 15.8448
# 5 -3.8586 5.4537 -2.8667 0.0001 27.6771 -0.0003
# 6 0.0004 0.0001 0.0002 15.8448 -0.0003 33.8574
#
#
#
# Elastic Compliance Matrix: (Units=1/GPa)
#
#
# Indices 1 2 3 4 5 6 
#
# 1 0.010645 -0.003244 -0.005703 0.000000 0.001533 0.000000
# 2 -0.003244 0.021518 0.005024 0.000000 -0.004172 0.000000
# 3 -0.005703 0.005024 0.031350 0.000000 0.001462 0.000000
# 4 0.000000 0.000000 0.000000 0.054174 0.000000 -0.025353
# 5 0.001533 -0.004172 0.001462 0.000000 0.037318 0.000000
# 6 0.000000 0.000000 0.000000 -0.025353 0.000000 0.041400
#
#
# Mechanical properties :
#
#
# Convention : Reuss Voigt Hill
#
# Bulk Modulus (GPa) = 17.96442 26.70355 22.33399
# Shear Modulus (GPa) = 22.44091 28.92666 25.68378
#
# Velocity S-wave (km/s) = 3.22257 3.65874 3.44756
# Velocity P-wave (km/s) = 4.70744 5.49600 5.11693
#
# Compressibility (1/GPa) = 0.05566559
#
# Stress axis : x y z
#
# Youngs Moduli (GPa) = 93.94066 46.47201 31.89837
#
# Poissons Ratio (x) = 0.15075 0.18193
# Poissons Ratio (y) = 0.30474 -0.16024
# Poissons Ratio (z) = 0.53577 -0.23346
#
# Static dielectric constant tensor:
#      x y z
#    x 1.812700 0.000000 0.003040 
#    y 0.000000 1.837610 0.000000 
#    z 0.003040 0.000000 1.782870 
# 
# From -- ./inp_files/41934.got.cif
#   From: 2010.05.17/outbox.cif.g08.bks.cpg/sg15_21_cif.got.tgz:41934.got - 2010.06.03 18:47:42.
