data_PCOD9290357
_publ_section_title
;
Structure prediction by ZEFSAII (Michael W. Deem and Ramdas Pophale) SiO2 
 PCOD9290357
Probable space group: C 2/C
;
_chemical_formula_sum "Si O2"
_cell_formula_units_Z 56
_cell_length_a 17.616367
_cell_length_b 24.851037
_cell_length_c 9.070629
_cell_angle_alpha 90.000000
_cell_angle_beta 141.473163
_cell_angle_gamma 90.000000
_cell_volume 2473.451783
_symmetry_space_group_name_H-M "C 2/C"
_symmetry_group_IT_number 15
_symmetry_cell_setting 'monoclinic'
loop_
_space_group_symop_operation_xyz
x,y,z
-x,y,1/2-z
-x,-y,-z
x,-y,1/2+z
1/2+x,1/2+y,z
1/2-x,1/2+y,1/2-z
1/2-x,1/2-y,-z
1/2+x,1/2-y,1/2+z
loop_
_atom_site_type_symbol
_atom_site_label
_atom_site_fract_x
_atom_site_fract_y
_atom_site_fract_z
Si Si1 0.690920 0.130895 0.345537
Si Si2 0.912738 0.269106 0.916958
Si Si3 0.415165 0.584373 0.496516
Si Si4 0.377496 0.359096 0.363697
Si Si5 0.523730 0.057030 0.608156
Si Si6 0.336065 0.799683 0.119492
Si Si7 0.796673 0.910971 0.525538
O O1 0.670587 0.195370 0.314889
O O2 0.797939 0.110294 0.398409
O O3 0.751174 0.122254 0.596136
O O4 0.567404 0.099997 0.109710
O O5 0.888050 0.205677 0.899844
O O6 0.885215 0.298199 0.029442
O O7 0.053089 0.285719 0.101882
O O8 0.510376 0.627417 0.574091
O O9 0.500000 0.555129 0.750000
O O10 0.361261 0.559874 0.262603
O O11 0.379563 0.395906 0.512212
O O12 0.500000 0.060223 0.750000
O O13 0.667537 0.062484 0.796435
O O14 0.500000 0.000000 0.500000
O O15 0.254743 0.851865 0.011382
O O16 0.250000 0.750000 0.000000
#
# Coordination Sequence:
#
# PCOD9290357 Si02
#       7
#     8   8   8   8   8   8   8
#     4  11  23  45  65  95 143 179 228 287 344 411
#     4  11  21  35  57  93 137 186 232 268 332 408
#     4  10  22  41  65  92 133 184 224 266 339 408
#     4  11  25  36  65 104 139 187 229 272 331 416
#     4  12  27  49  79 104 131 179 231 300 365 403
#     4  11  20  33  58  90 134 183 227 269 333 407
#     4  12  22  43  67  99 140 179 232 290 341 409
#
# _framework density 22.640426000000001
#
# number of rings (size 3 to 8) (size 9 to 14) (size 15 to 20)
#    0.000    0.857    5.714    1.714    4.000    0.000 
#    0.000    0.000    0.000    9.429    0.000    0.000 
#    0.000    0.000    0.000    0.000    0.000    0.000 
#
# Total GULP energy -155979.220195 kJ/mol
# GULP energy per Si atom -5570.686436 kJ/mol
# Density = 2.258890 g / cm^3
# Si number density = 22.640426 Si / 1000 Ang^3
#
#
#
# Elastic Constant Matrix: (Units=GPa)
#
#
# Indices 1 2 3 4 5 6 
#
# 1 42.6456 -3.2225 31.5319 0.0000 -5.2693 0.0000
# 2 -3.2225 54.1889 23.3879 0.0000 0.5177 0.0000
# 3 31.5319 23.3879 171.5859 0.0000 2.6786 0.0000
# 4 0.0000 0.0000 0.0000 29.2345 0.0000 0.8827
# 5 -5.2693 0.5177 2.6786 0.0000 26.8371 0.0000
# 6 0.0000 0.0000 0.0000 0.8827 0.0000 13.1612
#
#
#
# Elastic Compliance Matrix: (Units=1/GPa)
#
#
# Indices 1 2 3 4 5 6 
#
# 1 0.028975 0.004254 -0.006001 0.000000 0.006206 0.000000
# 2 0.004254 0.020232 -0.003552 0.000000 0.000799 0.000000
# 3 -0.006001 -0.003552 0.007444 0.000000 -0.001853 0.000000
# 4 0.000000 0.000000 0.000000 0.034276 0.000000 -0.002299
# 5 0.006206 0.000799 -0.001853 0.000000 0.038650 0.000000
# 6 0.000000 0.000000 0.000000 -0.002299 0.000000 0.076135
#
#
# Mechanical properties :
#
#
# Convention : Reuss Voigt Hill
#
# Bulk Modulus (GPa) = 21.71451 41.31278 31.51365
# Shear Modulus (GPa) = 21.58330 28.29479 24.93904
#
# Velocity S-wave (km/s) = 3.09092 3.53901 3.32253
# Velocity P-wave (km/s) = 4.72760 5.91493 5.35428
#
# Compressibility (1/GPa) = 0.04605215
#
# Stress axis : x y z
#
# Youngs Moduli (GPa) = 34.51298 49.42591 134.33830
#
# Poissons Ratio (x) = -0.21025 0.80620
# Poissons Ratio (y) = -0.14682 0.47716
# Poissons Ratio (z) = 0.20712 0.17556
#
# Static dielectric constant tensor:
#      x y z
#    x 1.871650 0.000000 -0.006500 
#    y 0.000000 1.624010 0.000000 
#    z -0.006500 0.000000 1.964190 
# 
# From -- ./inp_files/52379.got.cif
#   From: 2010.05.17/outbox.cif.g08.bks.cpg/sg15_27_cif.got.tgz:52379.got - 2010.06.03 18:47:42.
