data_PCOD9290742
_publ_section_title
;
Structure prediction by ZEFSAII (Michael W. Deem and Ramdas Pophale) SiO2 
 PCOD9290742
Probable space group: C 2/C
;
_chemical_formula_sum "Si O2"
_cell_formula_units_Z 56
_cell_length_a 11.264657
_cell_length_b 30.878923
_cell_length_c 8.136465
_cell_angle_alpha 90.000000
_cell_angle_beta 105.158586
_cell_angle_gamma 90.000000
_cell_volume 2731.717472
_symmetry_space_group_name_H-M "C 2/C"
_symmetry_group_IT_number 15
_symmetry_cell_setting 'monoclinic'
loop_
_space_group_symop_operation_xyz
x,y,z
-x,y,1/2-z
-x,-y,-z
x,-y,1/2+z
1/2+x,1/2+y,z
1/2-x,1/2+y,1/2-z
1/2-x,1/2-y,-z
1/2+x,1/2-y,1/2+z
loop_
_atom_site_type_symbol
_atom_site_label
_atom_site_fract_x
_atom_site_fract_y
_atom_site_fract_z
Si Si1 0.636185 0.131067 0.607731
Si Si2 0.095868 0.347542 0.640072
Si Si3 0.278328 0.393552 0.487091
Si Si4 0.758917 0.202658 0.428384
Si Si5 0.715058 0.564131 0.014684
Si Si6 0.527394 0.355126 0.452511
Si Si7 0.146710 0.977472 0.824181
O O1 0.498698 0.149965 0.546364
O O2 0.692257 0.116799 0.800779
O O3 0.714832 0.169559 0.554757
O O4 0.663435 0.088930 0.502985
O O5 0.206547 0.378365 0.624735
O O6 0.166605 0.305890 0.741285
O O7 0.000000 0.359475 0.750000
O O8 0.402719 0.366479 0.502716
O O9 0.313098 0.443697 0.520042
O O10 0.750000 0.250000 0.500000
O O11 0.895488 0.184648 0.443189
O O12 0.611146 0.601480 0.986451
O O13 0.677806 0.526740 0.874570
O O14 0.714875 0.539325 0.186601
O O15 0.500000 0.346113 0.250000
O O16 0.000000 0.973397 0.750000
#
# Coordination Sequence:
#
# PCOD9290742 Si02
#       7
#     8   8   8   8   8   8   8
#     4  10  22  43  64  89 130 178 221 265 325 401
#     4  10  23  43  67  88 126 177 223 264 325 402
#     4  12  22  39  68  97 129 179 223 274 337 395
#     4  10  22  41  69  96 129 170 210 272 339 396
#     4  11  22  38  57  97 134 178 219 272 339 395
#     4  11  21  38  65  95 135 167 215 272 340 406
#     4  12  23  32  59  96 139 172 222 278 341 403
#
# _framework density 20.499922999999999
#
# number of rings (size 3 to 8) (size 9 to 14) (size 15 to 20)
#    0.000    1.143    4.286    4.714    0.000    1.714 
#    0.000    1.429    6.286    3.429    0.000    0.000 
#    0.000    0.000    0.000    0.000    0.000    0.000 
#
# Total GULP energy -156113.200794 kJ/mol
# GULP energy per Si atom -5575.471457 kJ/mol
# Density = 2.045326 g / cm^3
# Si number density = 20.499923 Si / 1000 Ang^3
#
#
#
# Elastic Constant Matrix: (Units=GPa)
#
#
# Indices 1 2 3 4 5 6 
#
# 1 93.7403 34.4510 22.9708 0.0000 6.7507 0.0000
# 2 34.4510 134.6307 46.5741 0.0000 12.7653 0.0000
# 3 22.9708 46.5741 90.5538 0.0000 21.7375 0.0000
# 4 0.0000 0.0000 0.0000 27.8644 0.0000 1.5764
# 5 6.7507 12.7653 21.7375 0.0000 38.4915 0.0000
# 6 0.0000 0.0000 0.0000 1.5764 0.0000 13.8860
#
#
#
# Elastic Compliance Matrix: (Units=1/GPa)
#
#
# Indices 1 2 3 4 5 6 
#
# 1 0.012011 -0.002452 -0.001707 0.000000 -0.000330 0.000000
# 2 -0.002452 0.009542 -0.004199 0.000000 -0.000363 0.000000
# 3 -0.001707 -0.004199 0.015304 0.000000 -0.006951 0.000000
# 4 0.000000 0.000000 0.000000 0.036120 0.000000 -0.004100
# 5 -0.000330 -0.000363 -0.006951 0.000000 0.030084 0.000000
# 6 0.000000 0.000000 0.000000 -0.004100 0.000000 0.072480
#
#
# Mechanical properties :
#
#
# Convention : Reuss Voigt Hill
#
# Bulk Modulus (GPa) = 49.64510 58.54630 54.09570
# Shear Modulus (GPa) = 25.12952 30.37697 27.75325
#
# Velocity S-wave (km/s) = 3.50499 3.85360 3.68342
# Velocity P-wave (km/s) = 6.37571 6.95856 6.67351
#
# Compressibility (1/GPa) = 0.02014298
#
# Stress axis : x y z
#
# Youngs Moduli (GPa) = 83.25839 104.79958 65.34201
#
# Poissons Ratio (x) = 0.25695 0.11151
# Poissons Ratio (y) = 0.20414 0.27434
# Poissons Ratio (z) = 0.14209 0.44000
#
# Static dielectric constant tensor:
#      x y z
#    x 1.791700 0.000000 0.006090 
#    y 0.000000 1.686710 0.000000 
#    z 0.006090 0.000000 1.854120 
# 
# From -- ./inp_files/34341.got.cif
#   From: 2010.05.17/outbox.cif.g08.bks.cpg/sg15_18_cif.got.tgz:34341.got - 2010.06.03 18:47:42.
