data_PCOD9290425
_publ_section_title
;
Structure prediction by ZEFSAII (Michael W. Deem and Ramdas Pophale) SiO2 
 PCOD9290425
Probable space group: C 2/C
;
_chemical_formula_sum "Si O2"
_cell_formula_units_Z 48
_cell_length_a 5.503364
_cell_length_b 19.278569
_cell_length_c 25.718985
_cell_angle_alpha 90.000000
_cell_angle_beta 132.957952
_cell_angle_gamma 90.000000
_cell_volume 1997.014935
_symmetry_space_group_name_H-M "C 2/C"
_symmetry_group_IT_number 15
_symmetry_cell_setting 'monoclinic'
loop_
_space_group_symop_operation_xyz
x,y,z
-x,y,1/2-z
-x,-y,-z
x,-y,1/2+z
1/2+x,1/2+y,z
1/2-x,1/2+y,1/2-z
1/2-x,1/2-y,-z
1/2+x,1/2-y,1/2+z
loop_
_atom_site_type_symbol
_atom_site_label
_atom_site_fract_x
_atom_site_fract_y
_atom_site_fract_z
Si Si1 0.603917 0.621633 0.706107
Si Si2 0.301647 0.247946 0.334719
Si Si3 0.722782 0.221962 0.055107
Si Si4 0.779892 0.617485 0.120684
Si Si5 0.709050 0.092826 0.490052
Si Si6 0.545479 0.501418 0.884605
O O1 0.500000 0.632929 0.750000
O O2 0.476315 0.689691 0.656299
O O3 0.451895 0.549264 0.665129
O O4 0.000000 0.615062 0.750000
O O5 0.262171 0.266651 0.389830
O O6 0.415598 0.167382 0.348747
O O7 0.000000 0.248843 0.250000
O O8 0.406008 0.170525 0.012385
O O9 0.035026 0.172289 0.110002
O O10 0.750000 0.250000 0.000000
O O11 0.628062 0.595011 0.042913
O O12 0.770979 0.549020 0.154065
O O13 0.934092 0.055819 0.565072
O O14 0.373459 0.046595 0.435252
#
# Coordination Sequence:
#
# PCOD9290425 Si02
#       6
#     8   8   8   8   8   8
#     4  11  28  48  71 102 138 189 245 286 360 429
#     4  10  25  45  66  96 139 186 234 292 359 425
#     4  10  23  39  66 105 131 178 239 294 358 425
#     4  10  22  41  65  99 130 175 234 280 366 421
#     4   9  21  40  64  99 132 174 228 286 367 420
#     4  10  22  43  66  94 136 178 226 295 352 428
#
# _framework density 24.035875999999998
#
# number of rings (size 3 to 8) (size 9 to 14) (size 15 to 20)
#    0.000    2.000    0.000    0.500   11.667    1.333 
#    9.000    0.000    0.000    0.000    0.000    0.000 
#    0.000    0.000    0.000    0.000    0.000    0.000 
#
# Total GULP energy -133893.380518 kJ/mol
# GULP energy per Si atom -5578.890855 kJ/mol
# Density = 2.398117 g / cm^3
# Si number density = 24.035876 Si / 1000 Ang^3
#
#
#
# Elastic Constant Matrix: (Units=GPa)
#
#
# Indices 1 2 3 4 5 6 
#
# 1 91.4609 29.1508 40.7370 0.0000 -45.9499 0.0000
# 2 29.1508 114.1572 46.1160 0.0000 -37.2692 0.0000
# 3 40.7370 46.1160 96.9144 0.0000 -36.1375 0.0000
# 4 0.0000 0.0000 0.0000 33.0774 0.0000 -13.0173
# 5 -45.9499 -37.2692 -36.1375 0.0000 51.7665 0.0000
# 6 0.0000 0.0000 0.0000 -13.0173 0.0000 41.4515
#
#
#
# Elastic Compliance Matrix: (Units=1/GPa)
#
#
# Indices 1 2 3 4 5 6 
#
# 1 0.020353 0.001584 -0.002903 0.000000 0.017180 0.000000
# 2 0.001584 0.012365 -0.003658 0.000000 0.007755 0.000000
# 3 -0.002903 -0.003658 0.015326 0.000000 0.005488 0.000000
# 4 0.000000 0.000000 0.000000 0.034495 0.000000 0.010833
# 5 0.017180 0.007755 0.005488 0.000000 0.043982 0.000000
# 6 0.000000 0.000000 0.000000 0.010833 0.000000 0.027526
#
#
# Mechanical properties :
#
#
# Convention : Reuss Voigt Hill
#
# Bulk Modulus (GPa) = 26.25356 59.39335 42.82346
# Shear Modulus (GPa) = 28.29708 37.69433 32.99570
#
# Velocity S-wave (km/s) = 3.43488 3.96441 3.70911
# Velocity P-wave (km/s) = 5.16503 6.76161 6.01652
#
# Compressibility (1/GPa) = 0.03809007
#
# Stress axis : x y z
#
# Youngs Moduli (GPa) = 49.13302 80.87541 65.24960
#
# Poissons Ratio (x) = -0.12813 0.18941
# Poissons Ratio (y) = -0.07784 0.23869
# Poissons Ratio (z) = 0.14263 0.29585
#
# Static dielectric constant tensor:
#      x y z
#    x 2.020290 0.000000 0.010900 
#    y 0.000000 1.972550 0.000000 
#    z 0.010900 0.000000 1.939070 
# 
# From -- ./inp_files/261454.got.cif
#   From: 2010.05.17/outbox.cif.g08.bks.cpg/sg15_131_cif.got.tgz:261454.got - 2010.06.03 18:47:42.
