data_PCOD9290448
_publ_section_title
;
Structure prediction by ZEFSAII (Michael W. Deem and Ramdas Pophale) SiO2 
 PCOD9290448
Probable space group: C 2/C
;
_chemical_formula_sum "Si O2"
_cell_formula_units_Z 32
_cell_length_a 12.157340
_cell_length_b 5.685659
_cell_length_c 19.607504
_cell_angle_alpha 90.000000
_cell_angle_beta 63.697076
_cell_angle_gamma 90.000000
_cell_volume 1214.994885
_symmetry_space_group_name_H-M "C 2/C"
_symmetry_group_IT_number 15
_symmetry_cell_setting 'monoclinic'
loop_
_space_group_symop_operation_xyz
x,y,z
-x,y,1/2-z
-x,-y,-z
x,-y,1/2+z
1/2+x,1/2+y,z
1/2-x,1/2+y,1/2-z
1/2-x,1/2-y,-z
1/2+x,1/2-y,1/2+z
loop_
_atom_site_type_symbol
_atom_site_label
_atom_site_fract_x
_atom_site_fract_y
_atom_site_fract_z
Si Si1 0.784572 0.060808 0.047312
Si Si2 0.424843 0.709713 0.703546
Si Si3 0.806942 0.414385 0.150207
Si Si4 0.886978 0.829160 0.895140
O O1 0.844483 0.189261 0.094842
O O2 0.656988 0.937766 0.103398
O O3 0.750000 0.250000 0.000000
O O4 0.867120 0.881213 0.981080
O O5 0.500000 0.790855 0.750000
O O6 0.284709 0.660638 0.764308
O O7 0.409913 0.910274 0.650097
O O8 0.492837 0.466787 0.663495
O O9 0.718911 0.550362 0.121864
#
# Coordination Sequence:
#
# PCOD9290448 Si02
#       4
#     8   8   8   8
#     4   9  19  41  70 100 141 185 245 312 358 439
#     4  10  23  45  66 105 146 194 244 303 373 439
#     4  10  22  41  66 104 146 188 246 304 366 441
#     4   9  20  43  68  99 143 191 246 303 368 439
#
# _framework density 26.337557
#
# number of rings (size 3 to 8) (size 9 to 14) (size 15 to 20)
#    0.000    2.500    0.000    0.000    3.500    1.000 
#   13.500   11.250    0.000    0.000    0.000    0.000 
#    0.000    0.000    0.000    0.000    0.000    0.250 
#
# Total GULP energy -89426.229230 kJ/mol
# GULP energy per Si atom -5589.139327 kJ/mol
# Density = 2.627761 g / cm^3
# Si number density = 26.337557 Si / 1000 Ang^3
#
#
#
# Elastic Constant Matrix: (Units=GPa)
#
#
# Indices 1 2 3 4 5 6 
#
# 1 123.2781 39.7936 30.8904 0.0000 20.2478 0.0000
# 2 39.7936 113.8528 47.6030 0.0000 23.0074 0.0001
# 3 30.8904 47.6030 110.9762 0.0000 11.1633 0.0000
# 4 0.0000 0.0000 0.0000 55.1258 0.0000 9.6424
# 5 20.2478 23.0074 11.1633 0.0000 38.5484 0.0000
# 6 0.0000 0.0001 0.0000 9.6424 0.0000 49.8206
#
#
#
# Elastic Compliance Matrix: (Units=1/GPa)
#
#
# Indices 1 2 3 4 5 6 
#
# 1 0.009717 -0.002091 -0.001462 0.000000 -0.003432 0.000000
# 2 -0.002091 0.012275 -0.004179 0.000000 -0.005018 0.000000
# 3 -0.001462 -0.004179 0.011209 0.000000 0.000016 0.000000
# 4 0.000000 0.000000 0.000000 0.018776 0.000000 -0.003634
# 5 -0.003432 -0.005018 0.000016 0.000000 0.030734 0.000000
# 6 0.000000 0.000000 0.000000 -0.003634 0.000000 0.020775
#
#
# Mechanical properties :
#
#
# Convention : Reuss Voigt Hill
#
# Bulk Modulus (GPa) = 56.38079 64.96457 60.67268
# Shear Modulus (GPa) = 40.04369 44.02029 42.03199
#
# Velocity S-wave (km/s) = 3.90346 4.09270 3.99920
# Velocity P-wave (km/s) = 6.46293 6.85954 6.66419
#
# Compressibility (1/GPa) = 0.01773654
#
# Stress axis : x y z
#
# Youngs Moduli (GPa) = 102.91293 81.46415 89.21559
#
# Poissons Ratio (x) = 0.17036 0.13047
# Poissons Ratio (y) = 0.21521 0.37280
# Poissons Ratio (z) = 0.15051 0.34041
#
# Static dielectric constant tensor:
#      x y z
#    x 2.066590 0.000000 -0.074650 
#    y 0.000000 2.271930 0.000000 
#    z -0.074650 0.000000 2.075880 
# 
# From -- ./inp_files/241410.got.cif
#   From: 2010.05.17/outbox.cif.g08.bks.cpg/sg15_121_cif.got.tgz:241410.got - 2010.06.03 18:47:42.
