data_PCOD9290658
_publ_section_title
;
Structure prediction by ZEFSAII (Michael W. Deem and Ramdas Pophale) SiO2 
 PCOD9290658
Probable space group: C 2/C
;
_chemical_formula_sum "Si O2"
_cell_formula_units_Z 36
_cell_length_a 8.465218
_cell_length_b 20.721033
_cell_length_c 10.086613
_cell_angle_alpha 90.000000
_cell_angle_beta 86.576946
_cell_angle_gamma 90.000000
_cell_volume 1766.116645
_symmetry_space_group_name_H-M "C 2/C"
_symmetry_group_IT_number 15
_symmetry_cell_setting 'monoclinic'
loop_
_space_group_symop_operation_xyz
x,y,z
-x,y,1/2-z
-x,-y,-z
x,-y,1/2+z
1/2+x,1/2+y,z
1/2-x,1/2+y,1/2-z
1/2-x,1/2-y,-z
1/2+x,1/2-y,1/2+z
loop_
_atom_site_type_symbol
_atom_site_label
_atom_site_fract_x
_atom_site_fract_y
_atom_site_fract_z
Si Si1 0.838014 0.487982 0.425947
Si Si2 0.350231 0.239556 0.622355
Si Si3 0.500000 0.120196 0.750000
Si Si4 0.310419 0.703964 0.382941
Si Si5 0.319211 0.558055 0.311442
O O1 0.786103 0.537128 0.311277
O O2 0.711669 0.483772 0.553047
O O3 0.000000 0.500000 0.500000
O O4 0.876598 0.423568 0.337682
O O5 0.250000 0.250000 0.500000
O O6 0.415251 0.168256 0.650076
O O7 0.500346 0.287321 0.613666
O O8 0.251290 0.261078 0.753709
O O9 0.250000 0.750000 0.500000
O O10 0.274126 0.629260 0.366980
O O11 0.500000 0.555973 0.250000
#
# Coordination Sequence:
#
# PCOD9290658 Si02
#       5
#     8   8   4   8   8
#     4  12  25  44  68 101 138 190 229 281 348 419
#     4  10  22  41  68  93 129 174 223 283 337 398
#     4  10  22  44  66 100 140 166 242 282 332 430
#     4  10  22  44  64  98 132 173 224 280 341 405
#     4  12  24  45  69 100 145 178 233 291 348 415
#
# _framework density 20.383706
#
# number of rings (size 3 to 8) (size 9 to 14) (size 15 to 20)
#    0.000    1.333    4.444    3.333    3.111    0.889 
#    8.000    0.000    0.000    0.000    0.000    0.000 
#    0.000    0.000    0.000    0.000    0.000    0.000 
#
# Total GULP energy -100287.055082 kJ/mol
# GULP energy per Si atom -5571.503060 kJ/mol
# Density = 2.033731 g / cm^3
# Si number density = 20.383706 Si / 1000 Ang^3
#
#
#
# Elastic Constant Matrix: (Units=GPa)
#
#
# Indices 1 2 3 4 5 6 
#
# 1 58.1436 32.3534 58.8305 0.0000 15.2448 0.0000
# 2 32.3534 109.3024 61.7036 0.0000 18.2546 0.0000
# 3 58.8305 61.7036 209.8729 0.0000 17.5462 0.0000
# 4 0.0000 0.0000 0.0000 17.2896 0.0000 -19.7814
# 5 15.2448 18.2546 17.5462 0.0000 51.3894 0.0000
# 6 0.0000 0.0000 0.0000 -19.7814 0.0000 3.2116
#
#
#
# Elastic Compliance Matrix: (Units=1/GPa)
#
#
# Indices 1 2 3 4 5 6 
#
# 1 0.026470 -0.003726 -0.005949 0.000000 -0.004498 0.000000
# 2 -0.003726 0.011924 -0.002264 0.000000 -0.002357 0.000000
# 3 -0.005949 -0.002264 0.007085 0.000000 0.000150 0.000000
# 4 0.000000 0.000000 0.000000 -0.009565 0.000000 -0.058912
# 5 -0.004498 -0.002357 0.000150 0.000000 0.021580 0.000000
# 6 0.000000 0.000000 0.000000 -0.058912 0.000000 -0.051491
#
#
# Mechanical properties :
#
#
# Convention : Reuss Voigt Hill
#
# Bulk Modulus (GPa) = 46.29176 75.89933 61.09555
# Shear Modulus (GPa) = 134.84207 29.34020 82.09114
#
# Velocity S-wave (km/s) = 8.14220 3.79805 6.35298
# Velocity P-wave (km/s) = 10.54294 7.51996 9.15705
#
# Compressibility (1/GPa) = 0.02160212
#
# Stress axis : x y z
#
# Youngs Moduli (GPa) = 37.77847 83.86735 141.13562
#
# Poissons Ratio (x) = 0.31248 0.83955
# Poissons Ratio (y) = 0.14076 0.31955
# Poissons Ratio (z) = 0.22473 0.18988
#
# Static dielectric constant tensor:
#      x y z
#    x 1.726560 0.000000 -0.018030 
#    y 0.000000 1.770310 0.000000 
#    z -0.018030 0.000000 1.699630 
# 
# From -- ./inp_files/22530.got.cif
#   From: 2010.05.17/outbox.cif.g08.bks.cpg/sg15_12_cif.got.tgz:22530.got - 2010.06.03 18:47:42.
