data_PCOD9290963
_publ_section_title
;
Structure prediction by ZEFSAII (Michael W. Deem and Ramdas Pophale) SiO2 
 PCOD9290963
Probable space group: C 2/C
;
_chemical_formula_sum "Si O2"
_cell_formula_units_Z 48
_cell_length_a 24.243601
_cell_length_b 5.296176
_cell_length_c 15.566714
_cell_angle_alpha 90.000000
_cell_angle_beta 78.666901
_cell_angle_gamma 90.000000
_cell_volume 1959.767976
_symmetry_space_group_name_H-M "C 2/C"
_symmetry_group_IT_number 15
_symmetry_cell_setting 'monoclinic'
loop_
_space_group_symop_operation_xyz
x,y,z
-x,y,1/2-z
-x,-y,-z
x,-y,1/2+z
1/2+x,1/2+y,z
1/2-x,1/2+y,1/2-z
1/2-x,1/2-y,-z
1/2+x,1/2-y,1/2+z
loop_
_atom_site_type_symbol
_atom_site_label
_atom_site_fract_x
_atom_site_fract_y
_atom_site_fract_z
Si Si1 0.109230 0.942955 0.104680
Si Si2 0.425192 0.680595 0.201986
Si Si3 0.818869 0.474374 0.227578
Si Si4 0.486867 0.948599 0.851063
Si Si5 0.283416 0.529392 0.839685
Si Si6 0.556476 0.355729 0.457300
O O1 0.177100 0.926919 0.089885
O O2 0.073482 0.679524 0.108552
O O3 0.090387 0.058892 0.202283
O O4 0.092754 0.130900 0.032280
O O5 0.384725 0.922243 0.205776
O O6 0.410494 0.501032 0.127616
O O7 0.489849 0.765383 0.168386
O O8 0.784148 0.448859 0.149034
O O9 0.805650 0.745463 0.271336
O O10 0.796944 0.247322 0.296318
O O11 0.500000 0.845392 0.750000
O O12 0.528106 0.874529 0.916264
O O13 0.500000 0.500000 0.500000
#
# Coordination Sequence:
#
# PCOD9290963 Si02
#       6
#     8   8   8   8   8   8
#     4  10  22  42  62  88 127 165 210 258 321 377
#     4  11  23  40  61  91 122 171 206 263 319 384
#     4   9  19  35  68  89 127 161 219 262 314 379
#     4  11  22  37  60  83 118 160 208 249 316 374
#     4   9  18  39  60  99 118 167 215 263 316 376
#     4  10  24  41  55  89 126 164 210 263 309 387
#
# _framework density 24.492697
#
# number of rings (size 3 to 8) (size 9 to 14) (size 15 to 20)
#    0.000    2.000    1.667    1.000    7.000    2.667 
#    6.000    0.833    0.000    1.000    0.000    0.000 
#    0.000    0.000    0.000    0.000    0.000    0.000 
#
# Total GULP energy -133620.799462 kJ/mol
# GULP energy per Si atom -5567.533311 kJ/mol
# Density = 2.443695 g / cm^3
# Si number density = 24.492697 Si / 1000 Ang^3
#
#
#
# Elastic Constant Matrix: (Units=GPa)
#
#
# Indices 1 2 3 4 5 6 
#
# 1 86.6402 10.0653 16.2061 0.0000 49.7884 0.0000
# 2 10.0653 70.4248 33.0815 0.0000 0.9515 0.0000
# 3 16.2061 33.0815 140.6106 0.0000 34.0864 0.0000
# 4 0.0000 0.0000 0.0000 31.8147 0.0000 6.5491
# 5 49.7884 0.9515 34.0864 0.0000 41.7860 0.0000
# 6 0.0000 0.0000 0.0000 6.5491 0.0000 17.2377
#
#
#
# Elastic Compliance Matrix: (Units=1/GPa)
#
#
# Indices 1 2 3 4 5 6 
#
# 1 0.055897 -0.014553 0.016263 0.000000 -0.079536 0.000000
# 2 -0.014553 0.020142 -0.008917 0.000000 0.024156 0.000000
# 3 0.016263 -0.008917 0.014937 0.000000 -0.031359 0.000000
# 4 0.000000 0.000000 0.000000 0.034099 0.000000 -0.012955
# 5 -0.079536 0.024156 -0.031359 0.000000 0.143730 0.000000
# 6 0.000000 0.000000 0.000000 -0.012955 0.000000 0.062934
#
#
# Mechanical properties :
#
#
# Convention : Reuss Voigt Hill
#
# Bulk Modulus (GPa) = 13.06167 46.26459 29.66313
# Shear Modulus (GPa) = 13.45257 34.05587 23.75422
#
# Velocity S-wave (km/s) = 2.34615 3.73292 3.11762
# Velocity P-wave (km/s) = 3.56141 6.12452 5.00966
#
# Compressibility (1/GPa) = 0.07655987
#
# Stress axis : x y z
#
# Youngs Moduli (GPa) = 17.89007 49.64749 66.94605
#
# Poissons Ratio (x) = 0.72254 -1.08871
# Poissons Ratio (y) = 0.26036 0.59698
# Poissons Ratio (z) = -0.29094 0.44272
#
# Static dielectric constant tensor:
#      x y z
#    x 1.948440 0.000000 0.091220 
#    y 0.000000 2.054510 0.000000 
#    z 0.091220 0.000000 1.980200 
# 
# From -- ./inp_files/175707.got.cif
#   From: 2010.05.17/outbox.cif.g08.bks.cpg/sg15_88_cif.got.tgz:175707.got - 2010.06.03 18:47:42.
