data_PCOD9290853
_publ_section_title
;
Structure prediction by ZEFSAII (Michael W. Deem and Ramdas Pophale) SiO2 
 PCOD9290853
Probable space group: C 2/C
;
_chemical_formula_sum "Si O2"
_cell_formula_units_Z 60
_cell_length_a 11.374833
_cell_length_b 25.712149
_cell_length_c 9.942398
_cell_angle_alpha 90.000000
_cell_angle_beta 80.383793
_cell_angle_gamma 90.000000
_cell_volume 2867.008121
_symmetry_space_group_name_H-M "C 2/C"
_symmetry_group_IT_number 15
_symmetry_cell_setting 'monoclinic'
loop_
_space_group_symop_operation_xyz
x,y,z
-x,y,1/2-z
-x,-y,-z
x,-y,1/2+z
1/2+x,1/2+y,z
1/2-x,1/2+y,1/2-z
1/2-x,1/2-y,-z
1/2+x,1/2-y,1/2+z
loop_
_atom_site_type_symbol
_atom_site_label
_atom_site_fract_x
_atom_site_fract_y
_atom_site_fract_z
Si Si1 0.128068 0.360586 0.334015
Si Si2 0.881541 0.758006 0.030902
Si Si3 0.524517 0.355850 0.395782
Si Si4 0.748771 0.400977 0.463376
Si Si5 0.000000 0.261305 0.250000
Si Si6 0.771367 0.188957 0.035786
Si Si7 0.042682 0.539243 0.601120
Si Si8 0.616250 0.157069 0.315253
O O1 0.088619 0.302844 0.298889
O O2 0.200640 0.350567 0.453018
O O3 0.025488 0.403765 0.387500
O O4 0.199863 0.379151 0.189185
O O5 0.894128 0.803862 0.134012
O O6 0.931048 0.705813 0.087858
O O7 0.750000 0.750000 0.000000
O O8 0.948461 0.771259 0.880348
O O9 0.500000 0.376693 0.250000
O O10 0.607524 0.392693 0.473304
O O11 0.405179 0.332319 0.485297
O O12 0.815112 0.456058 0.443987
O O13 0.809485 0.375922 0.586174
O O14 0.750000 0.250000 0.000000
O O15 0.714744 0.179733 0.193351
O O16 0.000000 0.517013 0.750000
O O17 0.000000 0.500000 0.500000
O O18 0.500000 0.137258 0.250000
#
# Coordination Sequence:
#
# PCOD9290853 Si02
#       8
#     8   8   8   8   4   8   8   8
#     4  11  20  40  63  92 125 175 214 272 337 404
#     4  12  24  35  55  82 124 175 230 273 315 374
#     4  12  24  40  61  88 130 190 235 270 328 393
#     4  11  22  42  64  91 132 168 217 272 340 413
#     4  12  20  36  62  80 126 180 224 272 328 380
#     4  12  26  37  61  94 136 183 240 278 321 387
#     4  10  22  41  72 103 129 160 213 284 363 420
#     4  12  24  40  57  89 127 173 226 284 331 374
#
# _framework density 20.92774
#
# number of rings (size 3 to 8) (size 9 to 14) (size 15 to 20)
#    0.000    0.533    6.000    4.400    3.733    2.133 
#    0.000    0.000    0.000    0.800    0.000    0.000 
#    0.000    0.000    0.000    0.000    0.000    0.000 
#
# Total GULP energy -167101.759406 kJ/mol
# GULP energy per Si atom -5570.058647 kJ/mol
# Density = 2.088011 g / cm^3
# Si number density = 20.927740 Si / 1000 Ang^3
#
#
#
# Elastic Constant Matrix: (Units=GPa)
#
#
# Indices 1 2 3 4 5 6 
#
# 1 113.2035 22.9459 42.6863 0.0000 7.7205 0.0000
# 2 22.9459 24.1887 21.6151 0.0000 7.7747 0.0000
# 3 42.6863 21.6151 135.9741 0.0000 4.9698 0.0000
# 4 0.0000 0.0000 0.0000 14.7058 0.0000 21.4743
# 5 7.7205 7.7747 4.9698 0.0000 42.5808 0.0000
# 6 0.0000 0.0000 0.0000 21.4743 0.0000 14.6391
#
#
#
# Elastic Compliance Matrix: (Units=1/GPa)
#
#
# Indices 1 2 3 4 5 6 
#
# 1 0.011467 -0.008860 -0.002184 0.000000 -0.000207 0.000000
# 2 -0.008860 0.057861 -0.006115 0.000000 -0.008244 0.000000
# 3 -0.002184 -0.006115 0.008995 0.000000 0.000463 0.000000
# 4 0.000000 0.000000 0.000000 -0.059541 0.000000 0.087342
# 5 -0.000207 -0.008244 0.000463 0.000000 0.024974 0.000000
# 6 0.000000 0.000000 0.000000 0.087342 0.000000 -0.059813
#
#
# Mechanical properties :
#
#
# Convention : Reuss Voigt Hill
#
# Bulk Modulus (GPa) = 22.72464 49.76230 36.24347
# Shear Modulus (GPa) = 151.84103 26.79307 89.31705
#
# Velocity S-wave (km/s) = 8.52716 3.58196 6.53999
# Velocity P-wave (km/s) = 10.38422 6.39821 8.62465
#
# Compressibility (1/GPa) = 0.04400509
#
# Stress axis : x y z
#
# Youngs Moduli (GPa) = 87.20591 17.28283 111.17165
#
# Poissons Ratio (x) = 0.15313 0.24279
# Poissons Ratio (y) = 0.77265 0.67982
# Poissons Ratio (z) = 0.19045 0.10569
#
# Static dielectric constant tensor:
#      x y z
#    x 1.972110 0.000000 0.021850 
#    y 0.000000 1.753650 0.000000 
#    z 0.021850 0.000000 1.768130 
# 
# From -- ./inp_files/35196.got.cif
#   From: 2010.05.17/outbox.cif.g08.bks.cpg/sg15_18_cif.got.tgz:35196.got - 2010.06.03 18:47:42.
