data_PCOD9290253
_publ_section_title
;
Structure prediction by ZEFSAII (Michael W. Deem and Ramdas Pophale) SiO2 
 PCOD9290253
Probable space group: C 2/C
;
_chemical_formula_sum "Si O2"
_cell_formula_units_Z 52
_cell_length_a 12.256357
_cell_length_b 26.654421
_cell_length_c 8.122713
_cell_angle_alpha 90.000000
_cell_angle_beta 111.818008
_cell_angle_gamma 90.000000
_cell_volume 2463.499183
_symmetry_space_group_name_H-M "C 2/C"
_symmetry_group_IT_number 15
_symmetry_cell_setting 'monoclinic'
loop_
_space_group_symop_operation_xyz
x,y,z
-x,y,1/2-z
-x,-y,-z
x,-y,1/2+z
1/2+x,1/2+y,z
1/2-x,1/2+y,1/2-z
1/2-x,1/2-y,-z
1/2+x,1/2-y,1/2+z
loop_
_atom_site_type_symbol
_atom_site_label
_atom_site_fract_x
_atom_site_fract_y
_atom_site_fract_z
Si Si1 0.342749 0.824785 0.430051
Si Si2 0.244321 0.597723 0.022466
Si Si3 0.318430 0.293642 0.450747
Si Si4 0.061011 0.220117 0.951430
Si Si5 0.689686 0.621283 0.084547
Si Si6 0.474712 0.556192 0.040754
Si Si7 0.500000 0.122680 0.750000
O O1 0.237712 0.802555 0.260240
O O2 0.391130 0.776072 0.551941
O O3 0.289253 0.871666 0.501030
O O4 0.443941 0.843817 0.363802
O O5 0.256550 0.593281 0.226314
O O6 0.335507 0.566918 0.960289
O O7 0.291518 0.654257 0.023536
O O8 0.111427 0.593244 0.886196
O O9 0.250000 0.250000 0.500000
O O10 0.453717 0.279461 0.518652
O O11 0.000000 0.200865 0.750000
O O12 0.152860 0.180150 0.074944
O O13 0.564136 0.592693 0.992075
O O14 0.500000 0.563658 0.250000
O O15 0.500000 0.500000 0.000000
#
# Coordination Sequence:
#
# PCOD9290253 Si02
#       7
#     8   8   8   8   8   8   4
#     4  11  24  37  56  86 125 174 219 261 313 377
#     4  10  22  41  64  92 128 167 211 265 322 384
#     4  11  22  36  55  82 126 174 215 259 310 375
#     4  12  23  34  54  88 126 169 223 260 315 370
#     4  11  23  40  62  93 125 165 216 272 318 379
#     4  10  23  43  71 101 126 159 208 270 334 383
#     4  10  24  42  60  90 126 174 214 254 328 382
#
# _framework density 21.108184999999999
#
# number of rings (size 3 to 8) (size 9 to 14) (size 15 to 20)
#    0.000    1.231    3.077    3.231    4.308    4.308 
#    0.000    0.000    0.000    8.308    0.000    0.000 
#    0.000    0.000    0.000    0.000    0.000    0.000 
#
# Total GULP energy -145051.133631 kJ/mol
# GULP energy per Si atom -5578.889755 kJ/mol
# Density = 2.106014 g / cm^3
# Si number density = 21.108185 Si / 1000 Ang^3
#
#
#
# Elastic Constant Matrix: (Units=GPa)
#
#
# Indices 1 2 3 4 5 6 
#
# 1 174.4925 48.4859 22.3629 0.0000 0.9969 0.0000
# 2 48.4859 70.5215 8.7147 0.0000 -9.5510 0.0000
# 3 22.3629 8.7147 61.7700 0.0000 9.8103 0.0000
# 4 0.0000 0.0000 0.0000 16.9053 0.0000 -9.4527
# 5 0.9969 -9.5510 9.8103 0.0000 31.0210 0.0000
# 6 0.0000 0.0000 0.0000 -9.4527 0.0000 40.5040
#
#
#
# Elastic Compliance Matrix: (Units=1/GPa)
#
#
# Indices 1 2 3 4 5 6 
#
# 1 0.007354 -0.005004 -0.001763 0.000000 -0.001219 0.000000
# 2 -0.005004 0.018734 -0.001867 0.000000 0.006519 0.000000
# 3 -0.001763 -0.001867 0.018081 0.000000 -0.006236 0.000000
# 4 0.000000 0.000000 0.000000 0.068031 0.000000 0.015877
# 5 -0.001219 0.006519 -0.006236 0.000000 0.036255 0.000000
# 6 0.000000 0.000000 0.000000 0.015877 0.000000 0.028394
#
#
# Mechanical properties :
#
#
# Convention : Reuss Voigt Hill
#
# Bulk Modulus (GPa) = 37.17143 51.76790 44.46967
# Shear Modulus (GPa) = 24.62049 32.83408 28.72729
#
# Velocity S-wave (km/s) = 3.41896 3.94828 3.69311
# Velocity P-wave (km/s) = 5.76488 6.73524 6.26887
#
# Compressibility (1/GPa) = 0.02690238
#
# Stress axis : x y z
#
# Youngs Moduli (GPa) = 135.97831 53.37948 55.30620
#
# Poissons Ratio (x) = 0.26708 0.09750
# Poissons Ratio (y) = 0.68037 0.10325
# Poissons Ratio (z) = 0.23971 0.09966
#
# Static dielectric constant tensor:
#      x y z
#    x 1.871830 0.000000 -0.044200 
#    y 0.000000 1.708140 0.000000 
#    z -0.044200 0.000000 1.872820 
# 
# From -- ./inp_files/33720.got.cif
#   From: 2010.05.17/outbox.cif.g08.bks.cpg/sg15_17_cif.got.tgz:33720.got - 2010.06.03 18:47:42.
