data_PCOD9290278
_publ_section_title
;
Structure prediction by ZEFSAII (Michael W. Deem and Ramdas Pophale) SiO2 
 PCOD9290278
Probable space group: C 2/C
;
_chemical_formula_sum "Si O2"
_cell_formula_units_Z 56
_cell_length_a 32.132055
_cell_length_b 10.236835
_cell_length_c 10.129631
_cell_angle_alpha 90.000000
_cell_angle_beta 107.418061
_cell_angle_gamma 90.000000
_cell_volume 3179.162094
_symmetry_space_group_name_H-M "C 2/C"
_symmetry_group_IT_number 15
_symmetry_cell_setting 'monoclinic'
loop_
_space_group_symop_operation_xyz
x,y,z
-x,y,1/2-z
-x,-y,-z
x,-y,1/2+z
1/2+x,1/2+y,z
1/2-x,1/2+y,1/2-z
1/2-x,1/2-y,-z
1/2+x,1/2-y,1/2+z
loop_
_atom_site_type_symbol
_atom_site_label
_atom_site_fract_x
_atom_site_fract_y
_atom_site_fract_z
Si Si1 0.595625 0.762055 0.186931
Si Si2 0.499322 0.127098 0.906145
Si Si3 0.195766 0.097249 0.923403
Si Si4 0.347865 0.999168 0.870225
Si Si5 0.358668 0.504280 0.374148
Si Si6 0.203384 0.410802 0.924375
Si Si7 0.906658 0.257482 0.000248
O O1 0.545047 0.793452 0.111185
O O2 0.624344 0.877170 0.151180
O O3 0.612373 0.625498 0.146520
O O4 0.601227 0.762425 0.350076
O O5 0.500000 0.090628 0.750000
O O6 0.542381 0.212816 0.973578
O O7 0.500000 0.000000 0.000000
O O8 0.195088 0.254924 0.914783
O O9 0.175616 0.035722 0.772145
O O10 0.167293 0.046856 0.019426
O O11 0.246321 0.062166 0.994072
O O12 0.310329 0.969850 0.728595
O O13 0.326970 0.028027 0.991776
O O14 0.379212 0.874124 0.908624
O O15 0.389173 0.379772 0.431066
#
# Coordination Sequence:
#
# PCOD9290278 Si02
#       7
#     8   8   8   8   8   8   8
#     4  11  23  40  65  92 127 160 202 254 311 364
#     4  10  22  41  64  96 126 156 202 257 300 362
#     4  11  24  41  61  90 127 161 208 260 307 363
#     4  12  21  39  64  90 122 160 204 255 307 370
#     4  12  23  43  64  88 128 168 202 251 313 368
#     4  11  24  39  61  94 121 161 210 260 307 361
#     4  11  23  40  65  92 127 160 202 254 311 364
#
# _framework density 17.614706000000002
#
# number of rings (size 3 to 8) (size 9 to 14) (size 15 to 20)
#    0.000    0.857    7.143    0.857    0.000    0.571 
#    2.571    1.429    0.000    0.000    0.000    0.000 
#    0.000    0.000    0.000    0.000    0.000    0.000 
#
# Total GULP energy -156468.480890 kJ/mol
# GULP energy per Si atom -5588.160032 kJ/mol
# Density = 1.757461 g / cm^3
# Si number density = 17.614706 Si / 1000 Ang^3
#
#
#
# Elastic Constant Matrix: (Units=GPa)
#
#
# Indices 1 2 3 4 5 6 
#
# 1 60.1482 36.8905 4.8678 0.0000 18.6132 0.0000
# 2 36.8905 119.5183 14.3048 0.0000 12.8032 0.0000
# 3 4.8678 14.3048 43.0297 0.0000 6.9860 0.0000
# 4 0.0000 0.0000 0.0000 31.2823 0.0000 2.5860
# 5 18.6132 12.8032 6.9860 0.0000 27.2614 0.0000
# 6 0.0000 0.0000 0.0000 2.5860 0.0000 18.5225
#
#
#
# Elastic Compliance Matrix: (Units=1/GPa)
#
#
# Indices 1 2 3 4 5 6 
#
# 1 0.024823 -0.006314 0.001629 0.000000 -0.014400 0.000000
# 2 -0.006314 0.010651 -0.002832 0.000000 0.000035 0.000000
# 3 0.001629 -0.002832 0.025002 0.000000 -0.006189 0.000000
# 4 0.000000 0.000000 0.000000 0.032340 0.000000 -0.004515
# 5 -0.014400 0.000035 -0.006189 0.000000 0.048084 0.000000
# 6 0.000000 0.000000 0.000000 -0.004515 0.000000 0.054619
#
#
# Mechanical properties :
#
#
# Convention : Reuss Voigt Hill
#
# Bulk Modulus (GPa) = 22.00674 37.20249 29.60461
# Shear Modulus (GPa) = 22.15332 26.52211 24.33772
#
# Velocity S-wave (km/s) = 3.55020 3.88452 3.72112
# Velocity P-wave (km/s) = 5.41532 6.42536 5.94184
#
# Compressibility (1/GPa) = 0.04544063
#
# Stress axis : x y z
#
# Youngs Moduli (GPa) = 40.28594 93.88707 39.99705
#
# Poissons Ratio (x) = 0.59281 -0.06515
# Poissons Ratio (y) = 0.25437 0.11328
# Poissons Ratio (z) = -0.06562 0.26591
#
# Static dielectric constant tensor:
#      x y z
#    x 1.570710 0.000000 0.006090 
#    y 0.000000 1.565200 0.000000 
#    z 0.006090 0.000000 1.582900 
# 
# From -- ./inp_files/125622.got.cif
#   From: 2010.05.17/outbox.cif.g08.bks.cpg/sg15_63_cif.got.tgz:125622.got - 2010.06.03 18:47:42.
