data_PCOD9290191
_publ_section_title
;
Structure prediction by ZEFSAII (Michael W. Deem and Ramdas Pophale) SiO2 
 PCOD9290191
Probable space group: C 2/C
;
_chemical_formula_sum "Si O2"
_cell_formula_units_Z 48
_cell_length_a 14.918157
_cell_length_b 10.712120
_cell_length_c 28.405547
_cell_angle_alpha 90.000000
_cell_angle_beta 149.669740
_cell_angle_gamma 90.000000
_cell_volume 2292.297525
_symmetry_space_group_name_H-M "C 2/C"
_symmetry_group_IT_number 15
_symmetry_cell_setting 'monoclinic'
loop_
_space_group_symop_operation_xyz
x,y,z
-x,y,1/2-z
-x,-y,-z
x,-y,1/2+z
1/2+x,1/2+y,z
1/2-x,1/2+y,1/2-z
1/2-x,1/2-y,-z
1/2+x,1/2-y,1/2+z
loop_
_atom_site_type_symbol
_atom_site_label
_atom_site_fract_x
_atom_site_fract_y
_atom_site_fract_z
Si Si1 0.129864 0.613466 0.070173
Si Si2 0.064654 0.321200 0.924853
Si Si3 0.049344 0.755351 0.941874
Si Si4 0.859112 0.757023 0.245121
Si Si5 0.673895 0.073448 0.921935
Si Si6 0.500000 0.027793 0.250000
Si Si7 0.000000 0.025105 0.750000
O O1 0.323442 0.558565 0.170163
O O2 0.021311 0.681756 0.062576
O O3 0.145819 0.693104 0.030200
O O4 0.000000 0.500000 0.000000
O O5 0.107083 0.459914 0.924367
O O6 0.913035 0.266359 0.822677
O O7 0.250000 0.250000 0.000000
O O8 0.094850 0.695527 0.911986
O O9 0.845697 0.720284 0.856210
O O10 0.115514 0.898653 0.975997
O O11 0.891174 0.627465 0.231866
O O12 0.978164 0.873793 0.282166
O O13 0.610717 0.049088 0.839632
#
# Coordination Sequence:
#
# PCOD9290191 Si02
#       7
#     8   8   8   8   8   4   4
#     4  12  23  42  67 101 130 175 229 275 335 397
#     4  11  24  44  67  97 132 175 228 272 331 405
#     4  11  24  42  65  95 134 167 217 275 331 390
#     4  10  22  41  63  93 125 173 215 271 329 391
#     4  10  23  43  63  93 133 168 213 270 327 391
#     4   9  22  41  64  86 126 171 217 256 326 398
#     4  11  22  41  70  92 136 175 223 282 332 396
#
# _framework density 20.939689999999999
#
# number of rings (size 3 to 8) (size 9 to 14) (size 15 to 20)
#    0.000    1.333    3.333    1.000    4.667    5.333 
#    6.000    0.000    0.000    0.000    0.000    0.000 
#    0.000    0.000    0.000    0.000    0.000    0.000 
#
# Total GULP energy -133739.985217 kJ/mol
# GULP energy per Si atom -5572.499384 kJ/mol
# Density = 2.089203 g / cm^3
# Si number density = 20.939690 Si / 1000 Ang^3
#
#
#
# Elastic Constant Matrix: (Units=GPa)
#
#
# Indices 1 2 3 4 5 6 
#
# 1 124.0080 32.5746 42.0581 0.0000 -18.6891 0.0000
# 2 32.5746 51.0288 36.6390 0.0000 -4.5166 0.0000
# 3 42.0581 36.6390 81.9187 0.0000 -5.5901 0.0000
# 4 0.0000 0.0000 0.0000 34.0685 0.0000 7.8946
# 5 -18.6891 -4.5166 -5.5901 0.0000 37.3140 0.0000
# 6 0.0000 0.0000 0.0000 7.8946 0.0000 18.7277
#
#
#
# Elastic Compliance Matrix: (Units=1/GPa)
#
#
# Indices 1 2 3 4 5 6 
#
# 1 0.011011 -0.004113 -0.003507 0.000000 0.004492 0.000000
# 2 -0.004113 0.030496 -0.011534 0.000000 -0.000097 0.000000
# 3 -0.003507 -0.011534 0.019147 0.000000 -0.000284 0.000000
# 4 0.000000 0.000000 0.000000 0.032530 0.000000 -0.013713
# 5 0.004492 -0.000097 -0.000284 0.000000 0.028995 0.000000
# 6 0.000000 0.000000 0.000000 -0.013713 0.000000 0.059178
#
#
# Mechanical properties :
#
#
# Convention : Reuss Voigt Hill
#
# Bulk Modulus (GPa) = 44.75339 53.27765 49.01552
# Shear Modulus (GPa) = 22.01541 27.73429 24.87485
#
# Velocity S-wave (km/s) = 3.24600 3.64329 3.45037
# Velocity P-wave (km/s) = 5.95547 6.57242 6.27154
#
# Compressibility (1/GPa) = 0.02234468
#
# Stress axis : x y z
#
# Youngs Moduli (GPa) = 90.82007 32.79157 52.22727
#
# Poissons Ratio (x) = 0.13488 0.18315
# Poissons Ratio (y) = 0.37357 0.60240
# Poissons Ratio (z) = 0.31849 0.37823
#
# Static dielectric constant tensor:
#      x y z
#    x 1.841550 0.000000 0.038480 
#    y 0.000000 1.814340 0.000000 
#    z 0.038480 0.000000 1.781330 
# 
# From -- ./inp_files/152219.got.cif
#   From: 2010.05.17/outbox.cif.g08.bks.cpg/sg15_77_cif.got.tgz:152219.got - 2010.06.03 18:47:42.
