data_PCOD9290526
_publ_section_title
;
Structure prediction by ZEFSAII (Michael W. Deem and Ramdas Pophale) SiO2 
 PCOD9290526
Probable space group: C 2/C
;
_chemical_formula_sum "Si O2"
_cell_formula_units_Z 32
_cell_length_a 4.987270
_cell_length_b 12.721399
_cell_length_c 23.674799
_cell_angle_alpha 90.000000
_cell_angle_beta 127.803789
_cell_angle_gamma 90.000000
_cell_volume 1186.790539
_symmetry_space_group_name_H-M "C 2/C"
_symmetry_group_IT_number 15
_symmetry_cell_setting 'monoclinic'
loop_
_space_group_symop_operation_xyz
x,y,z
-x,y,1/2-z
-x,-y,-z
x,-y,1/2+z
1/2+x,1/2+y,z
1/2-x,1/2+y,1/2-z
1/2-x,1/2-y,-z
1/2+x,1/2-y,1/2+z
loop_
_atom_site_type_symbol
_atom_site_label
_atom_site_fract_x
_atom_site_fract_y
_atom_site_fract_z
Si Si1 0.229644 0.590570 0.479651
Si Si2 0.000000 0.523170 0.250000
Si Si3 0.758617 0.161468 0.860374
Si Si4 0.442246 0.312609 0.574375
Si Si5 0.000000 0.826268 0.750000
O O1 0.500000 0.500000 0.500000
O O2 0.411303 0.643940 0.557636
O O3 0.245079 0.642702 0.419666
O O4 0.829671 0.595983 0.442342
O O5 0.878539 0.447206 0.183148
O O6 0.694619 0.597016 0.231833
O O7 0.513690 0.225754 0.871653
O O8 0.765437 0.241758 0.809388
O O9 0.250000 0.250000 0.500000
#
# Coordination Sequence:
#
# PCOD9290526 Si02
#       5
#     8   4   8   8   4
#     4  11  24  40  70 107 135 181 225 280 357 421
#     4  11  28  47  70 102 128 191 236 279 336 404
#     4  10  25  46  71  98 143 174 232 286 339 410
#     4  10  22  41  66  99 137 174 215 284 350 402
#     4  11  28  45  70  96 134 187 230 285 334 402
#
# _framework density 26.963477000000001
#
# number of rings (size 3 to 8) (size 9 to 14) (size 15 to 20)
#    0.000    1.500    0.000    3.750    7.000   14.000 
#    0.000    0.000    0.000    0.000    0.000    0.000 
#    0.000    0.000    0.000    0.000    0.000    0.000 
#
# Total GULP energy -89293.686670 kJ/mol
# GULP energy per Si atom -5580.855417 kJ/mol
# Density = 2.690211 g / cm^3
# Si number density = 26.963477 Si / 1000 Ang^3
#
#
#
# Elastic Constant Matrix: (Units=GPa)
#
#
# Indices 1 2 3 4 5 6 
#
# 1 129.5197 35.6882 29.5993 -0.0001 9.1032 -0.0001
# 2 35.6882 147.5197 57.8374 -0.0001 -0.6431 -0.0001
# 3 29.5993 57.8374 125.6011 -0.0001 1.1634 -0.0002
# 4 -0.0001 -0.0001 -0.0001 59.5139 0.0000 -2.4939
# 5 9.1032 -0.6431 1.1634 0.0000 33.8009 -0.0001
# 6 -0.0001 -0.0001 -0.0002 -2.4939 -0.0001 25.9675
#
#
#
# Elastic Compliance Matrix: (Units=1/GPa)
#
#
# Indices 1 2 3 4 5 6 
#
# 1 0.008613 -0.001594 -0.001274 0.000000 -0.002306 0.000000
# 2 -0.001594 0.008570 -0.003577 0.000000 0.000716 0.000000
# 3 -0.001274 -0.003577 0.009910 0.000000 -0.000066 0.000000
# 4 0.000000 0.000000 0.000000 0.016871 0.000000 0.001620
# 5 -0.002306 0.000716 -0.000066 0.000000 0.030222 0.000000
# 6 0.000000 0.000000 0.000000 0.001620 0.000000 0.038665
#
#
# Mechanical properties :
#
#
# Convention : Reuss Voigt Hill
#
# Bulk Modulus (GPa) = 70.41433 72.09892 71.25663
# Shear Modulus (GPa) = 38.32090 42.49084 40.40587
#
# Velocity S-wave (km/s) = 3.77399 3.97403 3.87530
# Velocity P-wave (km/s) = 6.72027 6.91771 6.81971
#
# Compressibility (1/GPa) = 0.01420165
#
# Stress axis : x y z
#
# Youngs Moduli (GPa) = 116.09781 116.68481 100.90854
#
# Poissons Ratio (x) = 0.18602 0.12860
# Poissons Ratio (y) = 0.18508 0.36098
# Poissons Ratio (z) = 0.14795 0.41742
#
# Static dielectric constant tensor:
#      x y z
#    x 2.272950 0.000000 0.038660 
#    y 0.000000 2.297370 0.000000 
#    z 0.038660 0.000000 2.194250 
# 
# From -- ./inp_files/226592.got.cif
#   From: 2010.05.17/outbox.cif.g08.bks.cpg/sg15_114_cif.got.tgz:226592.got - 2010.06.03 18:47:42.
