data_PCOD9290646
_publ_section_title
;
Structure prediction by ZEFSAII (Michael W. Deem and Ramdas Pophale) SiO2 
 PCOD9290646
Probable space group: C 2/C
;
_chemical_formula_sum "Si O2"
_cell_formula_units_Z 48
_cell_length_a 10.772829
_cell_length_b 22.489868
_cell_length_c 14.414895
_cell_angle_alpha 90.000000
_cell_angle_beta 148.302157
_cell_angle_gamma 90.000000
_cell_volume 1835.062977
_symmetry_space_group_name_H-M "C 2/C"
_symmetry_group_IT_number 15
_symmetry_cell_setting 'monoclinic'
loop_
_space_group_symop_operation_xyz
x,y,z
-x,y,1/2-z
-x,-y,-z
x,-y,1/2+z
1/2+x,1/2+y,z
1/2-x,1/2+y,1/2-z
1/2-x,1/2-y,-z
1/2+x,1/2-y,1/2+z
loop_
_atom_site_type_symbol
_atom_site_label
_atom_site_fract_x
_atom_site_fract_y
_atom_site_fract_z
Si Si1 0.747334 0.324840 0.051138
Si Si2 0.219356 0.937969 0.557222
Si Si3 0.998422 0.943342 0.875309
Si Si4 0.378215 0.141687 0.452707
Si Si5 0.621662 0.663843 0.667329
Si Si6 0.498088 0.784178 0.649941
O O1 0.578982 0.315293 0.032857
O O2 0.000000 0.307866 0.250000
O O3 0.710445 0.395865 0.016568
O O4 0.753540 0.310827 0.945116
O O5 0.500000 0.941692 0.750000
O O6 0.116545 0.944312 0.595809
O O7 0.091357 0.878408 0.437207
O O8 0.111812 0.992719 0.429854
O O9 0.796690 0.913001 0.682463
O O10 0.632223 0.128406 0.661458
O O11 0.436597 0.172610 0.391806
O O12 0.660660 0.725417 0.745254
O O13 0.500000 0.815774 0.750000
O O14 0.250000 0.750000 0.500000
#
# Coordination Sequence:
#
# PCOD9290646 Si02
#       6
#     8   8   8   8   8   8
#     4   9  20  42  70  98 142 187 244 298 359 433
#     4  10  23  42  72 105 146 193 240 294 366 431
#     4  10  22  41  68 106 142 187 241 300 360 433
#     4  11  24  44  70 102 144 194 243 303 367 424
#     4  10  24  44  71 108 144 193 245 299 361 439
#     4  12  27  45  70 103 148 191 245 304 357 436
#
# _framework density 26.157140999999999
#
# number of rings (size 3 to 8) (size 9 to 14) (size 15 to 20)
#    0.000    1.667    1.667    1.000    7.000    2.667 
#    0.000    6.667    0.000    3.000    0.000    0.000 
#    0.000    0.000    0.000    0.000    0.000    0.000 
#
# Total GULP energy -133948.145911 kJ/mol
# GULP energy per Si atom -5581.172746 kJ/mol
# Density = 2.609761 g / cm^3
# Si number density = 26.157141 Si / 1000 Ang^3
#
#
#
# Elastic Constant Matrix: (Units=GPa)
#
#
# Indices 1 2 3 4 5 6 
#
# 1 124.3365 32.6350 42.4922 0.0007 -26.8463 0.0001
# 2 32.6350 123.4399 68.3570 0.0000 11.5899 0.0000
# 3 42.4922 68.3570 169.4156 -0.0003 17.3068 0.0006
# 4 0.0007 0.0000 -0.0003 2.4597 -0.0001 -5.7659
# 5 -26.8463 11.5899 17.3068 -0.0001 63.1863 0.0002
# 6 0.0001 0.0000 0.0006 -5.7659 0.0002 31.3323
#
#
#
# Elastic Compliance Matrix: (Units=1/GPa)
#
#
# Indices 1 2 3 4 5 6 
#
# 1 0.010580 -0.001975 -0.002421 -0.000006 0.005521 -0.000001
# 2 -0.001975 0.010838 -0.003692 0.000001 -0.001816 0.000000
# 3 -0.002421 -0.003692 0.008267 0.000002 -0.002616 0.000000
# 4 -0.000006 0.000001 0.000002 0.714985 -0.000003 0.131575
# 5 0.005521 -0.001816 -0.002616 -0.000003 0.019221 -0.000001
# 6 -0.000001 0.000000 0.000000 0.131575 -0.000001 0.056129
#
#
# Mechanical properties :
#
#
# Convention : Reuss Voigt Hill
#
# Bulk Modulus (GPa) = 74.02263 78.24006 76.13135
# Shear Modulus (GPa) = 5.94742 37.64283 21.79513
#
# Velocity S-wave (km/s) = 1.50952 3.79767 2.88972
# Velocity P-wave (km/s) = 5.60347 7.01471 6.34843
#
# Compressibility (1/GPa) = 0.01350938
#
# Stress axis : x y z
#
# Youngs Moduli (GPa) = 94.51427 92.26429 120.96548
#
# Poissons Ratio (x) = 0.18222 0.29284
# Poissons Ratio (y) = 0.18667 0.44664
# Poissons Ratio (z) = 0.22880 0.34067
#
# Static dielectric constant tensor:
#      x y z
#    x 2.237430 0.000000 -0.044290 
#    y 0.000000 2.145930 0.000000 
#    z -0.044290 0.000000 2.105910 
# 
# From -- ./inp_files/148838.got.cif
#   From: 2010.05.17/outbox.cif.g08.bks.cpg/sg15_75_cif.got.tgz:148838.got - 2010.06.03 18:47:42.
