data_PCOD9290790
_publ_section_title
;
Structure prediction by ZEFSAII (Michael W. Deem and Ramdas Pophale) SiO2 
 PCOD9290790
Probable space group: C 2/C
;
_chemical_formula_sum "Si O2"
_cell_formula_units_Z 64
_cell_length_a 13.999871
_cell_length_b 13.588880
_cell_length_c 15.152976
_cell_angle_alpha 90.000000
_cell_angle_beta 56.215194
_cell_angle_gamma 90.000000
_cell_volume 2395.938225
_symmetry_space_group_name_H-M "C 2/C"
_symmetry_group_IT_number 15
_symmetry_cell_setting 'monoclinic'
loop_
_space_group_symop_operation_xyz
x,y,z
-x,y,1/2-z
-x,-y,-z
x,-y,1/2+z
1/2+x,1/2+y,z
1/2-x,1/2+y,1/2-z
1/2-x,1/2-y,-z
1/2+x,1/2-y,1/2+z
loop_
_atom_site_type_symbol
_atom_site_label
_atom_site_fract_x
_atom_site_fract_y
_atom_site_fract_z
Si Si1 0.930788 0.650513 0.631692
Si Si2 0.063946 0.964760 0.379850
Si Si3 0.392195 0.722944 0.710219
Si Si4 0.114188 0.338461 0.556637
Si Si5 0.323941 0.901548 0.539556
Si Si6 0.882399 0.847576 0.755379
Si Si7 0.168154 0.092293 0.590863
Si Si8 0.904213 0.443811 0.692365
O O1 0.069898 0.641461 0.568920
O O2 0.896730 0.652679 0.544485
O O3 0.892619 0.754254 0.688052
O O4 0.878692 0.559059 0.715499
O O5 0.029034 0.250634 0.629720
O O6 0.133540 0.052353 0.295652
O O7 0.000000 0.000000 0.500000
O O8 0.122944 0.857032 0.360984
O O9 0.544608 0.555872 0.626997
O O10 0.347192 0.653168 0.811053
O O11 0.349938 0.836229 0.745578
O O12 0.246754 0.344866 0.515226
O O13 0.041063 0.427706 0.638173
O O14 0.224765 0.829302 0.624663
O O15 0.389004 0.936128 0.594662
O O16 0.247286 0.994364 0.551619
O O17 0.000000 0.858042 0.750000
#
# Coordination Sequence:
#
# PCOD9290790 Si02
#       8
#     8   8   8   8   8   8   8   8
#     4  11  21  41  71 107 151 185 234 291 345 429
#     4  12  26  47  67 101 141 181 241 299 349 423
#     4  10  22  41  70 106 144 180 230 289 347 427
#     4   9  20  38  69 107 136 184 233 282 350 414
#     4  11  20  41  73 102 134 195 233 278 365 418
#     4  12  26  44  69 102 144 188 239 295 352 422
#     4  12  21  43  78  98 140 196 234 287 362 424
#     4   9  20  39  67 107 143 178 226 289 343 424
#
# _framework density 26.711876
#
# number of rings (size 3 to 8) (size 9 to 14) (size 15 to 20)
#    0.750    0.500    5.000    1.875    1.750    1.000 
#    0.000    1.250    0.000    0.000    0.000    0.000 
#    0.000    0.000    0.000    0.000    0.000    0.000 
#
# Total GULP energy -178336.082996 kJ/mol
# GULP energy per Si atom -5573.002594 kJ/mol
# Density = 2.665108 g / cm^3
# Si number density = 26.711876 Si / 1000 Ang^3
#
#
#
# Elastic Constant Matrix: (Units=GPa)
#
#
# Indices 1 2 3 4 5 6 
#
# 1 44.2841 26.3349 35.7251 0.0000 -33.9959 0.0000
# 2 26.3349 188.8684 67.4651 0.0000 -13.8219 0.0000
# 3 35.7251 67.4651 112.1888 0.0000 -23.9080 0.0000
# 4 0.0000 0.0000 0.0000 47.5192 0.0000 -1.7343
# 5 -33.9959 -13.8219 -23.9080 0.0000 47.3949 0.0000
# 6 0.0000 0.0000 0.0000 -1.7343 0.0000 32.4082
#
#
#
# Elastic Compliance Matrix: (Units=1/GPa)
#
#
# Indices 1 2 3 4 5 6 
#
# 1 0.061460 -0.002154 -0.010101 0.000000 0.038361 0.000000
# 2 -0.002154 0.006819 -0.003720 0.000000 -0.001433 0.000000
# 3 -0.010101 -0.003720 0.014109 0.000000 -0.001213 0.000000
# 4 0.000000 0.000000 0.000000 0.021085 0.000000 0.001128
# 5 0.038361 -0.001433 -0.001213 0.000000 0.047586 0.000000
# 6 0.000000 0.000000 0.000000 0.001128 0.000000 0.030917
#
#
# Mechanical properties :
#
#
# Convention : Reuss Voigt Hill
#
# Bulk Modulus (GPa) = 19.82644 67.15460 43.49052
# Shear Modulus (GPa) = 21.66957 39.85221 30.76089
#
# Velocity S-wave (km/s) = 2.85131 3.86674 3.39718
# Velocity P-wave (km/s) = 4.27532 6.71792 5.63067
#
# Compressibility (1/GPa) = 0.05043770
#
# Stress axis : x y z
#
# Youngs Moduli (GPa) = 16.27066 146.64871 70.87895
#
# Poissons Ratio (x) = 0.31592 0.71593
# Poissons Ratio (y) = 0.03505 0.26367
# Poissons Ratio (z) = 0.16435 0.54554
#
# Static dielectric constant tensor:
#      x y z
#    x 2.202840 0.000000 -0.002170 
#    y 0.000000 2.253460 0.000000 
#    z -0.002170 0.000000 2.195670 
# 
# From -- ./inp_files/248599.got.cif
#   From: 2010.05.17/outbox.cif.g08.bks.cpg/sg15_125_cif.got.tgz:248599.got - 2010.06.03 18:47:42.
