data_PCOD9290725
_publ_section_title
;
Structure prediction by ZEFSAII (Michael W. Deem and Ramdas Pophale) SiO2 
 PCOD9290725
Probable space group: C 2/C
;
_chemical_formula_sum "Si O2"
_cell_formula_units_Z 44
_cell_length_a 11.677265
_cell_length_b 8.206291
_cell_length_c 26.485467
_cell_angle_alpha 90.000000
_cell_angle_beta 128.523912
_cell_angle_gamma 90.000000
_cell_volume 1985.618543
_symmetry_space_group_name_H-M "C 2/C"
_symmetry_group_IT_number 15
_symmetry_cell_setting 'monoclinic'
loop_
_space_group_symop_operation_xyz
x,y,z
-x,y,1/2-z
-x,-y,-z
x,-y,1/2+z
1/2+x,1/2+y,z
1/2-x,1/2+y,1/2-z
1/2-x,1/2-y,-z
1/2+x,1/2-y,1/2+z
loop_
_atom_site_type_symbol
_atom_site_label
_atom_site_fract_x
_atom_site_fract_y
_atom_site_fract_z
Si Si1 0.125879 0.945941 0.994315
Si Si2 0.431033 0.923065 0.614130
Si Si3 0.727502 0.849860 0.836638
Si Si4 0.000000 0.093726 0.750000
Si Si5 0.474231 0.550352 0.853614
Si Si6 0.521989 0.869142 0.050608
O O1 0.273040 0.044370 0.044821
O O2 0.115577 0.751343 0.995646
O O3 0.000000 0.000000 0.000000
O O4 0.081607 0.979135 0.924904
O O5 0.388821 0.947972 0.660941
O O6 0.503236 0.744427 0.633100
O O7 0.525068 0.044173 0.606104
O O8 0.639357 0.712872 0.782483
O O9 0.834468 0.747117 0.904440
O O10 0.820471 0.972219 0.828184
O O11 0.012670 0.004325 0.806783
O O12 0.500000 0.000000 0.000000
#
# Coordination Sequence:
#
# PCOD9290725 Si02
#       6
#     8   8   8   4   8   8
#     4  11  20  40  65  99 136 169 209 269 332 402
#     4  11  22  39  66  93 131 173 200 268 341 373
#     4  10  24  46  63  95 128 169 230 271 326 401
#     4  10  24  42  68  88 124 180 216 282 328 380
#     4  10  22  41  69  90 132 173 219 271 323 395
#     4  11  24  36  63 103 137 168 216 269 334 409
#
# _framework density 22.159343
#
# number of rings (size 3 to 8) (size 9 to 14) (size 15 to 20)
#    0.000    1.455    3.636    2.182    5.091    2.909 
#    0.000    3.636    0.000    2.182    0.000    0.000 
#    0.000    0.000    0.000    0.000    0.000    0.000 
#
# Total GULP energy -122582.226790 kJ/mol
# GULP energy per Si atom -5571.919400 kJ/mol
# Density = 2.210891 g / cm^3
# Si number density = 22.159343 Si / 1000 Ang^3
#
#
#
# Elastic Constant Matrix: (Units=GPa)
#
#
# Indices 1 2 3 4 5 6 
#
# 1 88.2037 64.1042 30.1031 0.0000 -19.5425 0.0000
# 2 64.1042 90.1993 14.6512 0.0000 -17.0052 0.0000
# 3 30.1031 14.6512 85.8335 0.0000 -20.7172 0.0000
# 4 0.0000 0.0000 0.0000 20.7883 0.0000 1.8162
# 5 -19.5425 -17.0052 -20.7172 0.0000 47.7738 0.0000
# 6 0.0000 0.0000 0.0000 1.8162 0.0000 47.2668
#
#
#
# Elastic Compliance Matrix: (Units=1/GPa)
#
#
# Indices 1 2 3 4 5 6 
#
# 1 0.026494 -0.017492 -0.005800 0.000000 0.002096 0.000000
# 2 -0.017492 0.023531 0.002695 0.000000 0.002389 0.000000
# 3 -0.005800 0.002695 0.014390 0.000000 0.004827 0.000000
# 4 0.000000 0.000000 0.000000 0.048266 0.000000 -0.001855
# 5 0.002096 0.002389 0.004827 0.000000 0.024733 0.000000
# 6 0.000000 0.000000 0.000000 -0.001855 0.000000 0.021228
#
#
# Mechanical properties :
#
#
# Convention : Reuss Voigt Hill
#
# Bulk Modulus (GPa) = 43.06650 53.55039 48.30845
# Shear Modulus (GPa) = 24.08764 33.52431 28.80598
#
# Velocity S-wave (km/s) = 3.30057 3.89379 3.60939
# Velocity P-wave (km/s) = 5.83114 6.66588 6.26243
#
# Compressibility (1/GPa) = 0.02321990
#
# Stress axis : x y z
#
# Youngs Moduli (GPa) = 37.74446 42.49786 69.49423
#
# Poissons Ratio (x) = 0.74336 0.40308
# Poissons Ratio (y) = 0.66022 -0.18727
# Poissons Ratio (z) = 0.21892 -0.11452
#
# Static dielectric constant tensor:
#      x y z
#    x 1.908440 0.000000 0.030240 
#    y 0.000000 1.874400 0.000000 
#    z 0.030240 0.000000 1.859110 
# 
# From -- ./inp_files/291721.got.cif
#   From: 2010.05.17/outbox.cif.g08.bks.cpg/sg15_146_cif.got.tgz:291721.got - 2010.06.03 18:47:42.
