data_PCOD9290909
_publ_section_title
;
Structure prediction by ZEFSAII (Michael W. Deem and Ramdas Pophale) SiO2 
 PCOD9290909
Probable space group: C 2/C
;
_chemical_formula_sum "Si O2"
_cell_formula_units_Z 36
_cell_length_a 32.439955
_cell_length_b 9.665548
_cell_length_c 14.024633
_cell_angle_alpha 90.000000
_cell_angle_beta 159.067220
_cell_angle_gamma 90.000000
_cell_volume 1571.077896
_symmetry_space_group_name_H-M "C 2/C"
_symmetry_group_IT_number 15
_symmetry_cell_setting 'monoclinic'
loop_
_space_group_symop_operation_xyz
x,y,z
-x,y,1/2-z
-x,-y,-z
x,-y,1/2+z
1/2+x,1/2+y,z
1/2-x,1/2+y,1/2-z
1/2-x,1/2-y,-z
1/2+x,1/2-y,1/2+z
loop_
_atom_site_type_symbol
_atom_site_label
_atom_site_fract_x
_atom_site_fract_y
_atom_site_fract_z
Si Si1 0.343860 0.666024 0.580555
Si Si2 0.183670 0.087636 0.771704
Si Si3 0.773282 0.228005 0.161867
Si Si4 0.000000 0.242415 0.750000
Si Si5 0.881864 0.311659 0.005636
O O1 0.304612 0.824354 0.524511
O O2 0.359489 0.589734 0.713276
O O3 0.445508 0.666211 0.724572
O O4 0.228577 0.612528 0.278934
O O5 0.102901 0.180108 0.531136
O O6 0.197969 0.934409 0.767683
O O7 0.659844 0.242759 0.982209
O O8 0.882413 0.304738 0.447594
O O9 0.750000 0.250000 0.000000
O O10 0.000000 0.393588 0.250000
#
# Coordination Sequence:
#
# PCOD9290909 Si02
#       5
#     8   8   8   4   8
#     4   8  19  40  62  84 121 159 200 239 305 352
#     4   9  20  41  62  85 120 164 197 246 299 360
#     4  11  25  38  63  94 120 154 208 250 299 356
#     4  10  22  42  58  90 126 154 202 256 290 354
#     4   9  20  40  59  87 119 159 204 244 299 357
#
# _framework density 22.914204000000002
#
# number of rings (size 3 to 8) (size 9 to 14) (size 15 to 20)
#    1.333    1.333    0.000    0.000    4.667    4.444 
#    2.000    2.222    0.000    0.000    0.000    0.000 
#    0.000    0.000    0.000    0.000    0.000    0.000 
#
# Total GULP energy -100204.017645 kJ/mol
# GULP energy per Si atom -5566.889869 kJ/mol
# Density = 2.286205 g / cm^3
# Si number density = 22.914204 Si / 1000 Ang^3
#
#
#
# Elastic Constant Matrix: (Units=GPa)
#
#
# Indices 1 2 3 4 5 6 
#
# 1 230.4568 -1.5221 64.4453 0.0000 13.2800 0.0000
# 2 -1.5221 54.2244 3.2763 0.0000 -0.3327 0.0000
# 3 64.4453 3.2763 116.7746 0.0000 31.1949 0.0000
# 4 0.0000 0.0000 0.0000 14.9342 0.0000 -4.3827
# 5 13.2800 -0.3327 31.1949 0.0000 43.9094 0.0000
# 6 0.0000 0.0000 0.0000 -4.3827 0.0000 6.7094
#
#
#
# Elastic Compliance Matrix: (Units=1/GPa)
#
#
# Indices 1 2 3 4 5 6 
#
# 1 0.005148 0.000330 -0.003006 0.000000 0.000581 0.000000
# 2 0.000330 0.018508 -0.000879 0.000000 0.000665 0.000000
# 3 -0.003006 -0.000879 0.012350 0.000000 -0.007871 0.000000
# 4 0.000000 0.000000 0.000000 0.082841 0.000000 0.054114
# 5 0.000581 0.000665 -0.007871 0.000000 0.028196 0.000000
# 6 0.000000 0.000000 0.000000 0.054114 0.000000 0.184394
#
#
# Mechanical properties :
#
#
# Convention : Reuss Voigt Hill
#
# Bulk Modulus (GPa) = 34.60605 59.31721 46.96163
# Shear Modulus (GPa) = 14.36043 35.46101 24.91072
#
# Velocity S-wave (km/s) = 2.50612 3.93817 3.30074
# Velocity P-wave (km/s) = 4.84865 6.82801 5.92162
#
# Compressibility (1/GPa) = 0.02889668
#
# Stress axis : x y z
#
# Youngs Moduli (GPa) = 194.23366 54.02978 80.97379
#
# Poissons Ratio (x) = -0.01781 0.24338
# Poissons Ratio (y) = -0.06404 0.07117
# Poissons Ratio (z) = 0.58381 0.04748
#
# Static dielectric constant tensor:
#      x y z
#    x 1.833040 0.000000 -0.012150 
#    y 0.000000 1.844590 0.000000 
#    z -0.012150 0.000000 2.109300 
# 
# From -- ./inp_files/181853.got.cif
#   From: 2010.05.17/outbox.cif.g08.bks.cpg/sg15_91_cif.got.tgz:181853.got - 2010.06.03 18:47:42.
