data_PCOD9290388
_publ_section_title
;
Structure prediction by ZEFSAII (Michael W. Deem and Ramdas Pophale) SiO2 
 PCOD9290388
Probable space group: C 2/C
;
_chemical_formula_sum "Si O2"
_cell_formula_units_Z 32
_cell_length_a 9.085427
_cell_length_b 36.199951
_cell_length_c 5.140392
_cell_angle_alpha 90.000000
_cell_angle_beta 120.696138
_cell_angle_gamma 90.000000
_cell_volume 1453.753549
_symmetry_space_group_name_H-M "C 2/C"
_symmetry_group_IT_number 15
_symmetry_cell_setting 'monoclinic'
loop_
_space_group_symop_operation_xyz
x,y,z
-x,y,1/2-z
-x,-y,-z
x,-y,1/2+z
1/2+x,1/2+y,z
1/2-x,1/2+y,1/2-z
1/2-x,1/2-y,-z
1/2+x,1/2-y,1/2+z
loop_
_atom_site_type_symbol
_atom_site_label
_atom_site_fract_x
_atom_site_fract_y
_atom_site_fract_z
Si Si1 0.500000 0.730109 0.250000
Si Si2 0.500000 0.218280 0.250000
Si Si3 0.295573 0.980566 0.603839
Si Si4 0.676389 0.675121 0.076703
Si Si5 0.379146 0.407391 0.890087
O O1 0.526958 0.755480 0.525529
O O2 0.351782 0.701768 0.201445
O O3 0.665634 0.192599 0.433911
O O4 0.500000 0.983350 0.750000
O O5 0.249966 0.940977 0.680960
O O6 0.228047 0.989853 0.254998
O O7 0.500000 0.676049 0.750000
O O8 0.705698 0.633145 0.191639
O O9 0.500000 0.411939 0.750000
O O10 0.500000 0.407854 0.250000
#
# Coordination Sequence:
#
# PCOD9290388 Si02
#       5
#     4   4   8   8   8
#     4  12  24  46  66  96 132 170 220 280 322 388
#     4  12  28  40  72  96 122 182 222 262 342 384
#     4  10  22  41  65  95 128 165 208 259 309 374
#     4  11  26  45  66  97 135 170 219 276 323 388
#     4  11  24  41  65  92 129 169 206 261 321 374
#
# _framework density 22.011984999999999
#
# number of rings (size 3 to 8) (size 9 to 14) (size 15 to 20)
#    0.000    1.000    2.500    3.000    5.250    3.000 
#    0.000    0.000    0.000    0.000    0.000    0.000 
#    0.000    0.000    0.000    0.000    0.000    0.000 
#
# Total GULP energy -89453.720544 kJ/mol
# GULP energy per Si atom -5590.857534 kJ/mol
# Density = 2.196188 g / cm^3
# Si number density = 22.011985 Si / 1000 Ang^3
#
#
#
# Elastic Constant Matrix: (Units=GPa)
#
#
# Indices 1 2 3 4 5 6 
#
# 1 87.1740 79.0855 43.0075 0.0000 -29.9289 0.0000
# 2 79.0855 170.8320 30.7938 0.0000 -25.2474 0.0000
# 3 43.0075 30.7938 94.9352 0.0000 -37.6800 0.0000
# 4 0.0000 0.0000 0.0000 83.2520 0.0000 94.0355
# 5 -29.9289 -25.2474 -37.6800 0.0000 37.7928 0.0000
# 6 0.0000 0.0000 0.0000 94.0355 0.0000 153.1820
#
#
#
# Elastic Compliance Matrix: (Units=1/GPa)
#
#
# Indices 1 2 3 4 5 6 
#
# 1 0.025858 -0.009742 -0.004981 0.000000 0.009003 0.000000
# 2 -0.009742 0.010189 0.001238 0.000000 0.000326 0.000000
# 3 -0.004981 0.001238 0.018453 0.000000 0.015281 0.000000
# 4 0.000000 0.000000 0.000000 0.039177 0.000000 -0.024050
# 5 0.009003 0.000326 0.015281 0.000000 0.049043 0.000000
# 6 0.000000 0.000000 0.000000 -0.024050 0.000000 0.021292
#
#
# Mechanical properties :
#
#
# Convention : Reuss Voigt Hill
#
# Bulk Modulus (GPa) = 36.32432 73.19051 54.75742
# Shear Modulus (GPa) = 24.98017 68.18231 46.58124
#
# Velocity S-wave (km/s) = 3.37240 5.57156 4.60518
# Velocity P-wave (km/s) = 5.63045 8.64363 7.29432
#
# Compressibility (1/GPa) = 0.02752977
#
# Stress axis : x y z
#
# Youngs Moduli (GPa) = 38.67279 98.14638 54.19064
#
# Poissons Ratio (x) = 0.95618 0.26990
# Poissons Ratio (y) = 0.37676 -0.06708
# Poissons Ratio (z) = 0.19261 -0.12148
#
# Static dielectric constant tensor:
#      x y z
#    x 1.798500 0.000000 0.009430 
#    y 0.000000 1.825060 0.000000 
#    z 0.009430 0.000000 1.824100 
# 
# From -- ./inp_files/2616.got.cif
#   From: 2010.05.17/outbox.cif.g08.bks.cpg/sg15_2_cif.got.tgz:2616.got - 2010.06.03 18:47:42.
