data_PCOD9290289
_publ_section_title
;
Structure prediction by ZEFSAII (Michael W. Deem and Ramdas Pophale) SiO2 
 PCOD9290289
Probable space group: C 2/C
;
_chemical_formula_sum "Si O2"
_cell_formula_units_Z 64
_cell_length_a 11.284677
_cell_length_b 25.416248
_cell_length_c 10.889991
_cell_angle_alpha 90.000000
_cell_angle_beta 80.286216
_cell_angle_gamma 90.000000
_cell_volume 3078.622974
_symmetry_space_group_name_H-M "C 2/C"
_symmetry_group_IT_number 15
_symmetry_cell_setting 'monoclinic'
loop_
_space_group_symop_operation_xyz
x,y,z
-x,y,1/2-z
-x,-y,-z
x,-y,1/2+z
1/2+x,1/2+y,z
1/2-x,1/2+y,1/2-z
1/2-x,1/2-y,-z
1/2+x,1/2-y,1/2+z
loop_
_atom_site_type_symbol
_atom_site_label
_atom_site_fract_x
_atom_site_fract_y
_atom_site_fract_z
Si Si1 0.858972 0.119127 0.303266
Si Si2 0.629533 0.984704 0.190032
Si Si3 0.341522 0.132997 0.756729
Si Si4 0.183064 0.177117 0.427726
Si Si5 0.307541 0.194506 0.009644
Si Si6 0.109920 0.100630 0.640200
Si Si7 0.421425 0.791555 0.035227
Si Si8 0.221902 0.992845 0.587936
O O1 0.800610 0.133516 0.181240
O O2 0.786404 0.160227 0.398007
O O3 0.841075 0.063358 0.376211
O O4 0.000000 0.127417 0.250000
O O5 0.500000 0.008752 0.250000
O O6 0.614950 0.921867 0.195461
O O7 0.712906 0.998541 0.291888
O O8 0.687821 0.995601 0.045702
O O9 0.224819 0.117016 0.699767
O O10 0.418303 0.166469 0.646743
O O11 0.314259 0.169165 0.875192
O O12 0.102091 0.145958 0.540485
O O13 0.313668 0.192410 0.461020
O O14 0.115272 0.232615 0.411683
O O15 0.250000 0.250000 0.000000
O O16 0.442878 0.202839 0.039050
O O17 0.000000 0.099079 0.750000
O O18 0.132829 0.042116 0.584460
#
# Coordination Sequence:
#
# PCOD9290289 Si02
#       8
#     8   8   8   8   8   8   8   8
#     4  12  26  42  64  95 140 175 228 284 338 402
#     4  11  22  42  68  94 136 174 228 278 344 415
#     4  10  22  41  64  97 127 173 220 269 338 403
#     4  10  23  45  65  99 135 177 223 287 344 409
#     4  12  24  39  66  99 130 177 221 270 341 406
#     4  10  23  41  71  92 130 179 225 277 338 405
#     4  10  22  43  69  96 138 174 226 282 345 413
#     4  11  24  43  64 104 130 182 228 284 348 408
#
# _framework density 20.788515
#
# number of rings (size 3 to 8) (size 9 to 14) (size 15 to 20)
#    0.000    1.250    1.250    4.125    3.500    0.500 
#    4.500    3.125    0.000    0.000    0.000    0.000 
#    0.000    0.000    0.000    0.000    0.000    0.000 
#
# Total GULP energy -178407.769939 kJ/mol
# GULP energy per Si atom -5575.242811 kJ/mol
# Density = 2.074120 g / cm^3
# Si number density = 20.788515 Si / 1000 Ang^3
#
#
#
# Elastic Constant Matrix: (Units=GPa)
#
#
# Indices 1 2 3 4 5 6 
#
# 1 44.0640 47.5740 43.7443 0.0000 -41.0498 0.0000
# 2 47.5740 110.9209 39.9741 0.0000 -24.6615 0.0000
# 3 43.7443 39.9741 109.6325 0.0000 -24.6868 0.0000
# 4 0.0000 0.0000 0.0000 29.8306 0.0000 -13.1796
# 5 -41.0498 -24.6615 -24.6868 0.0000 36.4849 0.0000
# 6 0.0000 0.0000 0.0000 -13.1796 0.0000 10.7618
#
#
#
# Elastic Compliance Matrix: (Units=1/GPa)
#
#
# Indices 1 2 3 4 5 6 
#
# 1 -0.129897 0.023250 0.016495 0.000000 -0.119273 0.000000
# 2 0.023250 0.007149 -0.005787 0.000000 0.027076 0.000000
# 3 0.016495 -0.005787 0.009377 0.000000 0.020992 0.000000
# 4 0.000000 0.000000 0.000000 0.073047 0.000000 0.089458
# 5 -0.119273 0.027076 0.020992 0.000000 -0.074282 0.000000
# 6 0.000000 0.000000 0.000000 0.089458 0.000000 0.202478
#
#
# Mechanical properties :
#
#
# Convention : Reuss Voigt Hill
#
# Bulk Modulus (GPa) = -21.99977 58.57803 18.28913
# Shear Modulus (GPa) = 1041.21695 24.30379 532.76037
#
# Velocity S-wave (km/s) = 22.40422 3.42292 16.02600
# Velocity P-wave (km/s) = 25.66437 6.62277 18.74194
#
# Compressibility (1/GPa) = -0.04545502
#
# Stress axis : x y z
#
# Youngs Moduli (GPa) = -7.69841 139.88452 106.64892
#
# Poissons Ratio (x) = -3.25232 -1.75918
# Poissons Ratio (y) = 0.17899 0.61715
# Poissons Ratio (z) = 0.12699 0.80947
#
# Static dielectric constant tensor:
#      x y z
#    x 1.711940 0.000000 0.283530 
#    y 0.000000 1.739100 0.000000 
#    z 0.283530 0.000000 0.874910 
# 
# From -- ./inp_files/91258.got.cif
#   From: 2010.05.17/outbox.cif.g08.bks.cpg/sg15_46_cif.got.tgz:91258.got - 2010.06.03 18:47:42.
