data_PCOD9290747
_publ_section_title
;
Structure prediction by ZEFSAII (Michael W. Deem and Ramdas Pophale) SiO2 
 PCOD9290747
Probable space group: C 2/C
;
_chemical_formula_sum "Si O2"
_cell_formula_units_Z 48
_cell_length_a 14.224666
_cell_length_b 26.354665
_cell_length_c 5.837480
_cell_angle_alpha 90.000000
_cell_angle_beta 63.665418
_cell_angle_gamma 90.000000
_cell_volume 1961.277537
_symmetry_space_group_name_H-M "C 2/C"
_symmetry_group_IT_number 15
_symmetry_cell_setting 'monoclinic'
loop_
_space_group_symop_operation_xyz
x,y,z
-x,y,1/2-z
-x,-y,-z
x,-y,1/2+z
1/2+x,1/2+y,z
1/2-x,1/2+y,1/2-z
1/2-x,1/2-y,-z
1/2+x,1/2-y,1/2+z
loop_
_atom_site_type_symbol
_atom_site_label
_atom_site_fract_x
_atom_site_fract_y
_atom_site_fract_z
Si Si1 0.724935 0.816942 0.733521
Si Si2 0.790049 0.998028 0.871469
Si Si3 0.745091 0.890212 0.073424
Si Si4 0.457068 0.383462 0.045098
Si Si5 0.092994 0.226516 0.794082
Si Si6 0.119937 0.588921 0.083981
O O1 0.814365 0.797034 0.465390
O O2 0.649567 0.770222 0.874904
O O3 0.660856 0.865201 0.701417
O O4 0.777026 0.841098 0.899619
O O5 0.846087 0.999186 0.561467
O O6 0.746800 0.940740 0.924418
O O7 0.692852 0.037945 0.992836
O O8 0.834236 0.896036 0.171212
O O9 0.635215 0.886223 0.316032
O O10 0.500000 0.399896 0.250000
O O11 0.462705 0.322394 0.038318
O O12 0.500000 0.402213 0.750000
O O13 0.000000 0.252330 0.750000
O O14 0.000000 0.575375 0.250000
#
# Coordination Sequence:
#
# PCOD9290747 Si02
#       6
#     8   8   8   8   8   8
#     4  11  22  44  68  99 141 181 236 287 351 409
#     4  10  22  41  69  96 136 183 228 282 345 415
#     4  11  23  42  70 101 137 181 233 292 346 420
#     4  11  24  44  73 103 136 182 231 285 353 417
#     4  10  22  43  69  98 138 186 233 289 346 421
#     4  11  24  43  66  99 142 186 234 287 352 419
#
# _framework density 24.473846000000002
#
# number of rings (size 3 to 8) (size 9 to 14) (size 15 to 20)
#    0.000    1.333    3.333    2.500    0.000    4.000 
#    9.000    0.000    0.000   13.000    0.000    0.000 
#    0.000    0.000    0.000    0.000    0.000    0.000 
#
# Total GULP energy -133828.007525 kJ/mol
# GULP energy per Si atom -5576.166980 kJ/mol
# Density = 2.441814 g / cm^3
# Si number density = 24.473846 Si / 1000 Ang^3
#
#
#
# Elastic Constant Matrix: (Units=GPa)
#
#
# Indices 1 2 3 4 5 6 
#
# 1 90.8008 42.6830 31.3292 0.0000 3.7129 0.0000
# 2 42.6830 101.7238 17.9322 0.0000 0.8806 0.0000
# 3 31.3292 17.9322 125.8242 0.0000 23.8134 0.0000
# 4 0.0000 0.0000 0.0000 34.4416 0.0000 -1.3789
# 5 3.7129 0.8806 23.8134 0.0000 34.9599 0.0000
# 6 0.0000 0.0000 0.0000 -1.3789 0.0000 17.8355
#
#
#
# Elastic Compliance Matrix: (Units=1/GPa)
#
#
# Indices 1 2 3 4 5 6 
#
# 1 0.014658 -0.005634 -0.002961 0.000000 0.000602 0.000000
# 2 -0.005634 0.012270 -0.000460 0.000000 0.000603 0.000000
# 3 -0.002961 -0.000460 0.009975 0.000000 -0.006468 0.000000
# 4 0.000000 0.000000 0.000000 0.029125 0.000000 0.002252
# 5 0.000602 0.000603 -0.006468 0.000000 0.032931 0.000000
# 6 0.000000 0.000000 0.000000 0.002252 0.000000 0.056242
#
#
# Mechanical properties :
#
#
# Convention : Reuss Voigt Hill
#
# Bulk Modulus (GPa) = 53.20871 55.80419 54.50645
# Shear Modulus (GPa) = 27.84344 32.54100 30.19222
#
# Velocity S-wave (km/s) = 3.37661 3.65036 3.51615
# Velocity P-wave (km/s) = 6.08196 6.37321 6.22929
#
# Compressibility (1/GPa) = 0.01879392
#
# Stress axis : x y z
#
# Youngs Moduli (GPa) = 68.22005 81.49698 100.25511
#
# Poissons Ratio (x) = 0.45915 0.29684
# Poissons Ratio (y) = 0.38435 0.04612
# Poissons Ratio (z) = 0.20199 0.03749
#
# Static dielectric constant tensor:
#      x y z
#    x 1.984860 0.000000 0.081560 
#    y 0.000000 1.961710 0.000000 
#    z 0.081560 0.000000 2.079750 
# 
# From -- ./inp_files/11183.got.cif
#   From: 2010.05.17/outbox.cif.g08.bks.cpg/sg15_6_cif.got.tgz:11183.got - 2010.06.03 18:47:42.
