data_PCOD9290576
_publ_section_title
;
Structure prediction by ZEFSAII (Michael W. Deem and Ramdas Pophale) SiO2 
 PCOD9290576
Probable space group: C 2/C
;
_chemical_formula_sum "Si O2"
_cell_formula_units_Z 40
_cell_length_a 30.381067
_cell_length_b 6.088159
_cell_length_c 19.159429
_cell_angle_alpha 90.000000
_cell_angle_beta 144.038470
_cell_angle_gamma 90.000000
_cell_volume 2081.079267
_symmetry_space_group_name_H-M "C 2/C"
_symmetry_group_IT_number 15
_symmetry_cell_setting 'monoclinic'
loop_
_space_group_symop_operation_xyz
x,y,z
-x,y,1/2-z
-x,-y,-z
x,-y,1/2+z
1/2+x,1/2+y,z
1/2-x,1/2+y,1/2-z
1/2-x,1/2-y,-z
1/2+x,1/2-y,1/2+z
loop_
_atom_site_type_symbol
_atom_site_label
_atom_site_fract_x
_atom_site_fract_y
_atom_site_fract_z
Si Si1 0.711982 0.999660 0.462391
Si Si2 0.059927 0.748486 0.519824
Si Si3 0.842360 0.861848 0.344065
Si Si4 0.596123 0.054808 0.192258
Si Si5 0.316708 0.987412 0.911375
O O1 0.750000 0.750000 0.500000
O O2 0.750000 0.250000 0.500000
O O3 0.643119 0.994954 0.320023
O O4 0.688349 0.008636 0.512839
O O5 0.068216 0.642963 0.607451
O O6 0.123226 0.645798 0.549470
O O7 0.977998 0.695006 0.386326
O O8 0.082992 0.996723 0.559979
O O9 0.850737 0.686729 0.292943
O O10 0.838830 0.754334 0.415139
O O11 0.765607 0.984056 0.228197
#
# Coordination Sequence:
#
# PCOD9290576 Si02
#       5
#     8   8   8   8   8
#     4  12  27  44  68  99 136 177 222 280 341 402
#     4  10  22  41  67  94 130 172 227 275 338 400
#     4  11  20  38  66  97 127 172 225 279 330 410
#     4  10  23  42  65  96 132 173 222 279 338 404
#     4  11  23  36  66  94 130 170 224 276 332 399
#
# _framework density 19.220796
#
# number of rings (size 3 to 8) (size 9 to 14) (size 15 to 20)
#    0.000    1.200    4.000    1.800    5.600    0.800 
#    0.000    0.000    0.000    0.000    0.000    0.000 
#    0.000    0.000    0.000    0.000    0.000    0.000 
#
# Total GULP energy -111389.395736 kJ/mol
# GULP energy per Si atom -5569.469787 kJ/mol
# Density = 1.917705 g / cm^3
# Si number density = 19.220796 Si / 1000 Ang^3
#
#
#
# Elastic Constant Matrix: (Units=GPa)
#
#
# Indices 1 2 3 4 5 6 
#
# 1 93.0529 18.3865 44.3774 0.0000 -20.1241 0.0000
# 2 18.3865 67.3499 33.7980 0.0004 -5.6261 0.0002
# 3 44.3774 33.7980 138.8316 0.0001 -12.9942 0.0000
# 4 0.0000 0.0004 0.0001 22.6120 0.0000 11.5461
# 5 -20.1241 -5.6261 -12.9942 0.0000 39.5064 0.0000
# 6 0.0000 0.0002 0.0000 11.5461 0.0000 32.8792
#
#
#
# Elastic Compliance Matrix: (Units=1/GPa)
#
#
# Indices 1 2 3 4 5 6 
#
# 1 0.013990 -0.001556 -0.003557 0.000000 0.005735 0.000000
# 2 -0.001556 0.017133 -0.003631 0.000000 0.000453 0.000000
# 3 -0.003557 -0.003631 0.009292 0.000000 0.000727 0.000000
# 4 0.000000 0.000000 0.000000 0.053887 0.000000 -0.018923
# 5 0.005735 0.000453 0.000727 0.000000 0.028538 0.000000
# 6 0.000000 0.000000 0.000000 -0.018923 0.000000 0.037060
#
#
# Mechanical properties :
#
#
# Convention : Reuss Voigt Hill
#
# Bulk Modulus (GPa) = 43.61418 54.70648 49.16033
# Shear Modulus (GPa) = 27.02292 32.51103 29.76698
#
# Velocity S-wave (km/s) = 3.75363 4.11719 3.93960
# Velocity P-wave (km/s) = 6.44412 7.15021 6.80633
#
# Compressibility (1/GPa) = 0.02292832
#
# Stress axis : x y z
#
# Youngs Moduli (GPa) = 71.47767 58.36829 107.62050
#
# Poissons Ratio (x) = 0.09079 0.38276
# Poissons Ratio (y) = 0.11118 0.39079
# Poissons Ratio (z) = 0.25421 0.21195
#
# Static dielectric constant tensor:
#      x y z
#    x 1.681940 0.000000 0.038470 
#    y 0.000000 1.805300 0.000000 
#    z 0.038470 0.000000 1.630930 
# 
# From -- ./inp_files/223735.got.cif
#   From: 2010.05.17/outbox.cif.g08.bks.cpg/sg15_112_cif.got.tgz:223735.got - 2010.06.03 18:47:42.
