data_PCOD9290257
_publ_section_title
;
Structure prediction by ZEFSAII (Michael W. Deem and Ramdas Pophale) SiO2 
 PCOD9290257
Probable space group: C 2/C
;
_chemical_formula_sum "Si O2"
_cell_formula_units_Z 32
_cell_length_a 14.512897
_cell_length_b 12.160026
_cell_length_c 8.178590
_cell_angle_alpha 90.000000
_cell_angle_beta 57.601885
_cell_angle_gamma 90.000000
_cell_volume 1218.673239
_symmetry_space_group_name_H-M "C 2/C"
_symmetry_group_IT_number 15
_symmetry_cell_setting 'monoclinic'
loop_
_space_group_symop_operation_xyz
x,y,z
-x,y,1/2-z
-x,-y,-z
x,-y,1/2+z
1/2+x,1/2+y,z
1/2-x,1/2+y,1/2-z
1/2-x,1/2-y,-z
1/2+x,1/2-y,1/2+z
loop_
_atom_site_type_symbol
_atom_site_label
_atom_site_fract_x
_atom_site_fract_y
_atom_site_fract_z
Si Si1 0.284787 0.597952 0.278985
Si Si2 0.880856 0.713228 0.870671
Si Si3 0.330268 0.637723 0.735426
Si Si4 0.373942 0.848733 0.871702
O O1 0.202906 0.615294 0.511820
O O2 0.359520 0.704717 0.240662
O O3 0.358557 0.490103 0.205515
O O4 0.202571 0.606421 0.204005
O O5 0.000000 0.666741 0.750000
O O6 0.867031 0.795104 0.040793
O O7 0.373298 0.716497 0.838757
O O8 0.199804 0.626796 0.899742
O O9 0.500000 0.884899 0.750000
#
# Coordination Sequence:
#
# PCOD9290257 Si02
#       4
#     8   8   8   8
#     4  10  22  41  64  92 131 171 217 268 320 384
#     4  10  23  40  63  96 131 169 216 269 323 383
#     4  10  22  41  64  92 131 171 217 268 320 384
#     4  10  23  40  63  96 131 169 216 269 323 383
#
# _framework density 26.258064999999998
#
# number of rings (size 3 to 8) (size 9 to 14) (size 15 to 20)
#    0.000    2.000    0.000    1.500    0.000   20.000 
#    0.000    0.000    0.000    9.000    0.000    0.000 
#    0.000    0.000    0.000    0.000    0.000    0.000 
#
# Total GULP energy -89293.167480 kJ/mol
# GULP energy per Si atom -5580.822967 kJ/mol
# Density = 2.619830 g / cm^3
# Si number density = 26.258065 Si / 1000 Ang^3
#
#
#
# Elastic Constant Matrix: (Units=GPa)
#
#
# Indices 1 2 3 4 5 6 
#
# 1 62.1874 -12.0503 21.1145 0.0000 -12.4813 0.0000
# 2 -12.0503 141.9838 0.6117 0.0000 30.0035 0.0000
# 3 21.1145 0.6117 77.6161 0.0000 9.6389 0.0000
# 4 0.0000 0.0000 0.0000 16.7649 0.0000 17.1014
# 5 -12.4813 30.0035 9.6389 0.0000 52.1096 0.0000
# 6 0.0000 0.0000 0.0000 17.1014 0.0000 10.6402
#
#
#
# Elastic Compliance Matrix: (Units=1/GPa)
#
#
# Indices 1 2 3 4 5 6 
#
# 1 0.019278 0.000517 -0.005921 0.000000 0.005415 0.000000
# 2 0.000517 0.008053 0.000365 0.000000 -0.004580 0.000000
# 3 -0.005921 0.000365 0.015039 0.000000 -0.004410 0.000000
# 4 0.000000 0.000000 0.000000 -0.093273 0.000000 0.149912
# 5 0.005415 -0.004580 -0.004410 0.000000 0.023940 0.000000
# 6 0.000000 0.000000 0.000000 0.149912 0.000000 -0.146962
#
#
# Mechanical properties :
#
#
# Convention : Reuss Voigt Hill
#
# Bulk Modulus (GPa) = 30.96655 33.45991 32.21323
# Shear Modulus (GPa) = -32.66202 34.04371 0.69085
#
# Velocity S-wave (km/s) = -3.53070 3.60461 0.51349
# Velocity P-wave (km/s) = 2.19143 5.48586 3.55614
#
# Compressibility (1/GPa) = 0.03229291
#
# Stress axis : x y z
#
# Youngs Moduli (GPa) = 51.87341 124.17248 66.49213
#
# Poissons Ratio (x) = -0.06425 0.39368
# Poissons Ratio (y) = -0.02684 -0.02424
# Poissons Ratio (z) = 0.30713 -0.04527
#
# Static dielectric constant tensor:
#      x y z
#    x 2.177580 0.000000 0.091910 
#    y 0.000000 2.070300 0.000000 
#    z 0.091910 0.000000 2.144920 
# 
# From -- ./inp_files/37379.got.cif
#   From: 2010.05.17/outbox.cif.g08.bks.cpg/sg15_19_cif.got.tgz:37379.got - 2010.06.03 18:47:42.
