data_PCOD9290073
_publ_section_title
;
Structure prediction by ZEFSAII (Michael W. Deem and Ramdas Pophale) SiO2 
 PCOD9290073
Probable space group: C 2/C
;
_chemical_formula_sum "Si O2"
_cell_formula_units_Z 56
_cell_length_a 19.055664
_cell_length_b 5.133828
_cell_length_c 34.062964
_cell_angle_alpha 90.000000
_cell_angle_beta 131.853994
_cell_angle_gamma 90.000000
_cell_volume 2482.076872
_symmetry_space_group_name_H-M "C 2/C"
_symmetry_group_IT_number 15
_symmetry_cell_setting 'monoclinic'
loop_
_space_group_symop_operation_xyz
x,y,z
-x,y,1/2-z
-x,-y,-z
x,-y,1/2+z
1/2+x,1/2+y,z
1/2-x,1/2+y,1/2-z
1/2-x,1/2-y,-z
1/2+x,1/2-y,1/2+z
loop_
_atom_site_type_symbol
_atom_site_label
_atom_site_fract_x
_atom_site_fract_y
_atom_site_fract_z
Si Si1 0.322476 0.939511 0.503972
Si Si2 0.489609 0.353918 0.453656
Si Si3 0.169853 0.978078 0.886994
Si Si4 0.581003 0.994674 0.385153
Si Si5 0.203656 0.544922 0.137903
Si Si6 0.289895 0.290943 0.748081
Si Si7 0.576273 0.709377 0.140293
O O1 0.250000 0.750000 0.500000
O O2 0.414097 0.809504 0.517541
O O3 0.260844 0.076508 0.448329
O O4 0.361370 0.099722 0.554838
O O5 0.500000 0.500000 0.500000
O O6 0.390192 0.191846 0.414312
O O7 0.483257 0.536625 0.412317
O O8 0.112720 0.223571 0.882787
O O9 0.104814 0.723738 0.862088
O O10 0.220616 0.040775 0.865575
O O11 0.478135 0.965221 0.364748
O O12 0.262744 0.703212 0.192525
O O13 0.162271 0.297277 0.145199
O O14 0.217025 0.494020 0.740512
O O15 0.385013 0.403932 0.804157
#
# Coordination Sequence:
#
# PCOD9290073 Si02
#       7
#     8   8   8   8   8   8   8
#     4  10  22  41  60  93 133 181 222 259 336 403
#     4  12  25  39  68 105 141 174 227 288 348 402
#     4  11  26  41  65  96 139 177 219 276 345 397
#     4  11  24  43  66  95 134 180 226 272 328 416
#     4  11  25  43  67 101 139 174 232 284 349 401
#     4  10  22  42  70 100 130 175 224 283 338 400
#     4  11  23  43  72  96 136 176 240 277 337 410
#
# _framework density 22.56175
#
# number of rings (size 3 to 8) (size 9 to 14) (size 15 to 20)
#    0.000    1.143    2.857    3.000    8.000    1.143 
#    0.000    0.714    0.000    3.429    0.000    0.000 
#    0.000    0.000    0.000    0.000    0.000    0.000 
#
# Total GULP energy -155986.635649 kJ/mol
# GULP energy per Si atom -5570.951273 kJ/mol
# Density = 2.251040 g / cm^3
# Si number density = 22.561750 Si / 1000 Ang^3
#
#
#
# Elastic Constant Matrix: (Units=GPa)
#
#
# Indices 1 2 3 4 5 6 
#
# 1 106.0639 16.5897 21.1981 -0.0016 -15.8458 0.0003
# 2 16.5897 57.4396 9.1769 -0.0080 5.2461 0.0000
# 3 21.1981 9.1769 113.3060 0.0001 6.2843 0.0002
# 4 -0.0016 -0.0080 0.0001 24.7439 -0.0002 7.1522
# 5 -15.8458 5.2461 6.2843 -0.0002 15.7956 0.0000
# 6 0.0003 0.0000 0.0002 7.1522 0.0000 39.9761
#
#
#
# Elastic Compliance Matrix: (Units=1/GPa)
#
#
# Indices 1 2 3 4 5 6 
#
# 1 0.013152 -0.004784 -0.002958 -0.000001 0.015960 0.000000
# 2 -0.004784 0.019841 -0.000082 0.000006 -0.011356 -0.000001
# 3 -0.002958 -0.000082 0.009764 0.000000 -0.006825 0.000000
# 4 -0.000001 0.000006 0.000000 0.042618 -0.000002 -0.007625
# 5 0.015960 -0.011356 -0.006825 -0.000002 0.085806 0.000000
# 6 0.000000 -0.000001 0.000000 -0.007625 0.000000 0.026379
#
#
# Mechanical properties :
#
#
# Convention : Reuss Voigt Hill
#
# Bulk Modulus (GPa) = 36.88725 41.19322 39.04023
# Shear Modulus (GPa) = 22.49760 31.42609 26.96184
#
# Velocity S-wave (km/s) = 3.16120 3.73620 3.46066
# Velocity P-wave (km/s) = 5.45062 6.07535 5.77144
#
# Compressibility (1/GPa) = 0.02710964
#
# Stress axis : x y z
#
# Youngs Moduli (GPa) = 76.03359 50.39952 102.41359
#
# Poissons Ratio (x) = 0.24109 0.30297
# Poissons Ratio (y) = 0.36371 0.00842
# Poissons Ratio (z) = 0.22493 0.00414
#
# Static dielectric constant tensor:
#      x y z
#    x 1.859560 0.000000 0.052350 
#    y 0.000000 1.878820 0.000000 
#    z 0.052350 0.000000 1.978490 
# 
# From -- ./inp_files/315143.got.cif
#   From: 2010.05.17/outbox.cif.g08.bks.cpg/sg15_158_cif.got.tgz:315143.got - 2010.06.03 18:47:42.
