data_PCOD9290756
_publ_section_title
;
Structure prediction by ZEFSAII (Michael W. Deem and Ramdas Pophale) SiO2 
 PCOD9290756
Probable space group: C 2/C
;
_chemical_formula_sum "Si O2"
_cell_formula_units_Z 52
_cell_length_a 6.960075
_cell_length_b 25.466095
_cell_length_c 17.393620
_cell_angle_alpha 90.000000
_cell_angle_beta 118.587277
_cell_angle_gamma 90.000000
_cell_volume 2707.103829
_symmetry_space_group_name_H-M "C 2/C"
_symmetry_group_IT_number 15
_symmetry_cell_setting 'monoclinic'
loop_
_space_group_symop_operation_xyz
x,y,z
-x,y,1/2-z
-x,-y,-z
x,-y,1/2+z
1/2+x,1/2+y,z
1/2-x,1/2+y,1/2-z
1/2-x,1/2-y,-z
1/2+x,1/2-y,1/2+z
loop_
_atom_site_type_symbol
_atom_site_label
_atom_site_fract_x
_atom_site_fract_y
_atom_site_fract_z
Si Si1 0.031617 0.601154 0.525251
Si Si2 0.964624 0.894937 0.618378
Si Si3 0.000000 0.018882 0.250000
Si Si4 0.542808 0.964467 0.171460
Si Si5 0.431424 0.725262 0.149308
Si Si6 0.440718 0.777002 0.487684
Si Si7 0.308040 0.542944 0.459217
O O1 0.993950 0.582819 0.604616
O O2 0.101906 0.661014 0.529458
O O3 0.203183 0.561844 0.518634
O O4 0.794605 0.596535 0.440390
O O5 0.042020 0.941408 0.688170
O O6 0.997128 0.836294 0.654766
O O7 0.093374 0.906371 0.564502
O O8 0.211800 0.983158 0.296535
O O9 0.500000 0.948541 0.250000
O O10 0.386387 0.013732 0.122715
O O11 0.500000 0.742135 0.250000
O O12 0.537923 0.753991 0.095178
O O13 0.171407 0.729508 0.078686
O O14 0.250000 0.750000 0.500000
O O15 0.500000 0.500000 0.500000
#
# Coordination Sequence:
#
# PCOD9290756 Si02
#       7
#     8   8   4   8   8   8   8
#     4  11  24  41  63  88 126 172 207 251 318 374
#     4  11  21  38  65  93 125 161 206 258 312 367
#     4  12  22  38  58  94 132 156 208 258 296 372
#     4  12  25  38  57  92 128 170 209 250 306 369
#     4  10  22  41  69  98 125 161 214 273 324 373
#     4  10  23  45  66  94 128 165 216 268 322 387
#     4  12  22  38  62  88 122 168 211 247 306 375
#
# _framework density 19.208718999999999
#
# number of rings (size 3 to 8) (size 9 to 14) (size 15 to 20)
#    0.000    0.923    5.385    2.308    0.000    1.231 
#    0.000    1.538    0.000    0.000    0.000    0.000 
#    0.000    0.000    0.000    0.000    0.000    0.000 
#
# Total GULP energy -145146.091303 kJ/mol
# GULP energy per Si atom -5582.541973 kJ/mol
# Density = 1.916500 g / cm^3
# Si number density = 19.208719 Si / 1000 Ang^3
#
#
#
# Elastic Constant Matrix: (Units=GPa)
#
#
# Indices 1 2 3 4 5 6 
#
# 1 99.7085 29.1293 30.8176 0.0000 -12.9964 0.0000
# 2 29.1293 71.1379 30.9744 0.0000 -7.0380 0.0000
# 3 30.8176 30.9744 91.5592 0.0000 -23.5814 0.0000
# 4 0.0000 0.0000 0.0000 -100.1344 0.0000 -33.2138
# 5 -12.9964 -7.0380 -23.5814 0.0000 41.3031 0.0000
# 6 0.0000 0.0000 0.0000 -33.2138 0.0000 23.3071
#
#
#
# Elastic Compliance Matrix: (Units=1/GPa)
#
#
# Indices 1 2 3 4 5 6 
#
# 1 0.012084 -0.003754 -0.002324 0.000000 0.001835 0.000000
# 2 -0.003754 0.017659 -0.004970 0.000000 -0.001010 0.000000
# 3 -0.002324 -0.004970 0.015217 0.000000 0.007109 0.000000
# 4 0.000000 0.000000 0.000000 -0.006781 0.000000 -0.009664
# 5 0.001835 -0.001010 0.007109 0.000000 0.028676 0.000000
# 6 0.000000 0.000000 0.000000 -0.009664 0.000000 0.029134
#
#
# Mechanical properties :
#
#
# Convention : Reuss Voigt Hill
#
# Bulk Modulus (GPa) = 43.74271 49.36089 46.55180
# Shear Modulus (GPa) = 39.77511 4.32745 22.05128
#
# Velocity S-wave (km/s) = 4.55541 1.50258 3.39187
# Velocity P-wave (km/s) = 7.10569 5.36314 6.29500
#
# Compressibility (1/GPa) = 0.02286095
#
# Stress axis : x y z
#
# Youngs Moduli (GPa) = 82.75608 56.62911 65.71670
#
# Poissons Ratio (x) = 0.21260 0.15275
# Poissons Ratio (y) = 0.31069 0.32664
# Poissons Ratio (z) = 0.19236 0.28147
#
# Static dielectric constant tensor:
#      x y z
#    x 1.664930 0.000000 -0.001890 
#    y 0.000000 1.649200 0.000000 
#    z -0.001890 0.000000 1.668220 
# 
# From -- ./inp_files/186283.got.cif
#   From: 2010.05.17/outbox.cif.g08.bks.cpg/sg15_94_cif.got.tgz:186283.got - 2010.06.03 18:47:42.
