data_PCOD9290555
_publ_section_title
;
Structure prediction by ZEFSAII (Michael W. Deem and Ramdas Pophale) SiO2 
 PCOD9290555
Probable space group: C 2/C
;
_chemical_formula_sum "Si O2"
_cell_formula_units_Z 48
_cell_length_a 11.707750
_cell_length_b 10.647291
_cell_length_c 15.632571
_cell_angle_alpha 90.000000
_cell_angle_beta 88.694401
_cell_angle_gamma 90.000000
_cell_volume 1948.185071
_symmetry_space_group_name_H-M "C 2/C"
_symmetry_group_IT_number 15
_symmetry_cell_setting 'monoclinic'
loop_
_space_group_symop_operation_xyz
x,y,z
-x,y,1/2-z
-x,-y,-z
x,-y,1/2+z
1/2+x,1/2+y,z
1/2-x,1/2+y,1/2-z
1/2-x,1/2-y,-z
1/2+x,1/2-y,1/2+z
loop_
_atom_site_type_symbol
_atom_site_label
_atom_site_fract_x
_atom_site_fract_y
_atom_site_fract_z
Si Si1 0.459080 0.471990 0.658478
Si Si2 0.341533 0.357914 0.919166
Si Si3 0.989747 0.623066 0.852070
Si Si4 0.069024 0.344840 0.658950
Si Si5 0.865183 0.784298 0.106310
Si Si6 0.201674 0.753479 0.905261
O O1 0.500000 0.425891 0.750000
O O2 0.579405 0.476122 0.605221
O O3 0.391874 0.602103 0.669747
O O4 0.377662 0.374193 0.612561
O O5 0.415282 0.235286 0.891921
O O6 0.222973 0.327953 0.873616
O O7 0.323823 0.352153 0.020688
O O8 0.118282 0.636545 0.886759
O O9 0.000000 0.638638 0.750000
O O10 0.927333 0.490624 0.866772
O O11 0.189512 0.275733 0.657765
O O12 0.000000 0.337779 0.750000
O O13 0.988061 0.278077 0.591213
O O14 0.250000 0.750000 0.000000
#
# Coordination Sequence:
#
# PCOD9290555 Si02
#       6
#     8   8   8   8   8   8
#     4  11  24  44  68  94 135 180 226 280 346 420
#     4  10  22  41  67  91 132 176 224 273 339 413
#     4  10  23  44  68  93 136 179 224 282 343 410
#     4  11  25  40  63 102 133 170 230 282 341 413
#     4  11  24  40  63  99 135 172 218 283 339 409
#     4  11  24  43  71  97 132 180 230 283 347 421
#
# _framework density 24.638314999999999
#
# number of rings (size 3 to 8) (size 9 to 14) (size 15 to 20)
#    0.000    1.333    0.000    6.000    4.667    6.667 
#    3.000    0.000    0.000    0.000    0.000    0.000 
#    0.000    0.000    0.000    0.000    0.000    0.000 
#
# Total GULP energy -134186.208195 kJ/mol
# GULP energy per Si atom -5591.092008 kJ/mol
# Density = 2.458224 g / cm^3
# Si number density = 24.638315 Si / 1000 Ang^3
#
#
#
# Elastic Constant Matrix: (Units=GPa)
#
#
# Indices 1 2 3 4 5 6 
#
# 1 132.2836 13.2672 17.3062 0.0000 5.6825 0.0000
# 2 13.2672 84.7758 7.9769 0.0000 9.2383 0.0000
# 3 17.3062 7.9769 91.4733 0.0000 22.8778 0.0000
# 4 0.0000 0.0000 0.0000 17.9959 0.0000 0.6911
# 5 5.6825 9.2383 22.8778 0.0000 42.2398 0.0000
# 6 0.0000 0.0000 0.0000 0.6911 0.0000 10.3208
#
#
#
# Elastic Compliance Matrix: (Units=1/GPa)
#
#
# Indices 1 2 3 4 5 6 
#
# 1 0.007852 -0.001092 -0.001372 0.000000 -0.000075 0.000000
# 2 -0.001092 0.012252 -0.000264 0.000000 -0.002390 0.000000
# 3 -0.001372 -0.000264 0.012902 0.000000 -0.006746 0.000000
# 4 0.000000 0.000000 0.000000 0.055711 0.000000 -0.003731
# 5 -0.000075 -0.002390 -0.006746 0.000000 0.027861 0.000000
# 6 0.000000 0.000000 0.000000 -0.003731 0.000000 0.097142
#
#
# Mechanical properties :
#
#
# Convention : Reuss Voigt Hill
#
# Bulk Modulus (GPa) = 36.29702 42.84814 39.57258
# Shear Modulus (GPa) = 21.89549 32.11010 27.00280
#
# Velocity S-wave (km/s) = 2.98430 3.61398 3.31413
# Velocity P-wave (km/s) = 5.16127 5.90281 5.54445
#
# Compressibility (1/GPa) = 0.02755047
#
# Stress axis : x y z
#
# Youngs Moduli (GPa) = 127.36180 81.61982 77.50862
#
# Poissons Ratio (x) = 0.08909 0.10631
# Poissons Ratio (y) = 0.13902 0.02048
# Poissons Ratio (z) = 0.17469 0.02157
#
# Static dielectric constant tensor:
#      x y z
#    x 2.008690 0.000000 -0.023210 
#    y 0.000000 1.988230 0.000000 
#    z -0.023210 0.000000 1.987210 
# 
# From -- ./inp_files/196136.got.cif
#   From: 2010.05.17/outbox.cif.g08.bks.cpg/sg15_99_cif.got.tgz:196136.got - 2010.06.03 18:47:42.
