data_PCOD9290840
_publ_section_title
;
Structure prediction by ZEFSAII (Michael W. Deem and Ramdas Pophale) SiO2 
 PCOD9290840
Probable space group: C 2/C
;
_chemical_formula_sum "Si O2"
_cell_formula_units_Z 44
_cell_length_a 21.052277
_cell_length_b 10.994414
_cell_length_c 10.396377
_cell_angle_alpha 90.000000
_cell_angle_beta 135.701993
_cell_angle_gamma 90.000000
_cell_volume 1680.549995
_symmetry_space_group_name_H-M "C 2/C"
_symmetry_group_IT_number 15
_symmetry_cell_setting 'monoclinic'
loop_
_space_group_symop_operation_xyz
x,y,z
-x,y,1/2-z
-x,-y,-z
x,-y,1/2+z
1/2+x,1/2+y,z
1/2-x,1/2+y,1/2-z
1/2-x,1/2-y,-z
1/2+x,1/2-y,1/2+z
loop_
_atom_site_type_symbol
_atom_site_label
_atom_site_fract_x
_atom_site_fract_y
_atom_site_fract_z
Si Si1 0.862125 0.004966 0.033319
Si Si2 0.081633 0.329937 0.621010
Si Si3 0.252733 0.664661 0.711477
Si Si4 0.000000 0.791653 0.250000
Si Si5 0.824151 0.497600 0.090768
Si Si6 0.000000 0.218008 0.250000
Si Si7 0.250000 0.750000 0.000000
O O1 0.822164 0.052782 0.842231
O O2 0.777886 0.985894 0.003225
O O3 0.919853 0.120279 0.170481
O O4 0.917895 0.884202 0.101021
O O5 0.181617 0.263242 0.760062
O O6 0.105925 0.466907 0.696310
O O7 0.031201 0.295656 0.416962
O O8 0.024359 0.277573 0.656119
O O9 0.172526 0.600681 0.515331
O O10 0.225369 0.711727 0.813293
O O11 0.820537 0.642531 0.548173
#
# Coordination Sequence:
#
# PCOD9290840 Si02
#       7
#     8   8   8   4   8   4   4
#     4   9  21  38  70 112 152 200 256 317 382 458
#     4  11  24  43  73 113 157 202 256 320 390 468
#     4  10  22  41  71 114 148 195 261 333 376 455
#     4  11  22  38  72 117 158 205 257 318 396 460
#     4  11  23  44  73 115 150 200 265 333 372 467
#     4   9  22  44  68 115 162 205 245 320 400 468
#     4  10  26  42  72 116 152 198 252 332 394 440
#
# _framework density 26.181905
#
# number of rings (size 3 to 8) (size 9 to 14) (size 15 to 20)
#    0.000    1.818    1.818    0.545    7.636    2.182 
#    6.545    0.000    0.000   25.091    0.000    0.000 
#    0.000    0.000    0.000    0.000    0.000    0.000 
#
# Total GULP energy -122675.843921 kJ/mol
# GULP energy per Si atom -5576.174724 kJ/mol
# Density = 2.612231 g / cm^3
# Si number density = 26.181905 Si / 1000 Ang^3
#
#
#
# Elastic Constant Matrix: (Units=GPa)
#
#
# Indices 1 2 3 4 5 6 
#
# 1 123.3793 41.4352 41.5010 0.0000 -24.6388 0.0000
# 2 41.4352 133.4287 73.1944 0.0000 -22.8611 0.0000
# 3 41.5010 73.1944 166.0994 0.0000 -22.6366 0.0000
# 4 0.0000 0.0000 0.0000 54.0568 0.0000 5.2103
# 5 -24.6388 -22.8611 -22.6366 0.0000 34.7579 0.0000
# 6 0.0000 0.0000 0.0000 5.2103 0.0000 38.0567
#
#
#
# Elastic Compliance Matrix: (Units=1/GPa)
#
#
# Indices 1 2 3 4 5 6 
#
# 1 0.010085 -0.001622 -0.001071 0.000000 0.005385 0.000000
# 2 -0.001622 0.010685 -0.003843 0.000000 0.003375 0.000000
# 3 -0.001071 -0.003843 0.008268 0.000000 0.002097 0.000000
# 4 0.000000 0.000000 0.000000 0.018746 0.000000 -0.002567
# 5 0.005385 0.003375 0.002097 0.000000 0.036173 0.000000
# 6 0.000000 0.000000 0.000000 -0.002567 0.000000 0.026628
#
#
# Mechanical properties :
#
#
# Convention : Reuss Voigt Hill
#
# Bulk Modulus (GPa) = 62.63620 81.68541 72.16081
# Shear Modulus (GPa) = 38.76573 43.15941 40.96257
#
# Velocity S-wave (km/s) = 3.85207 4.06451 3.95971
# Velocity P-wave (km/s) = 6.61513 7.30027 6.96613
#
# Compressibility (1/GPa) = 0.01596521
#
# Stress axis : x y z
#
# Youngs Moduli (GPa) = 99.15278 93.59113 120.95406
#
# Poissons Ratio (x) = 0.15176 0.12960
# Poissons Ratio (y) = 0.16078 0.46486
# Poissons Ratio (z) = 0.10624 0.35970
#
# Static dielectric constant tensor:
#      x y z
#    x 1.838260 0.000000 0.102670 
#    y 0.000000 2.208350 0.000000 
#    z 0.102670 0.000000 2.077320 
# 
# From -- ./inp_files/49303.got.cif
#   From: 2010.05.17/outbox.cif.g08.bks.cpg/sg15_25_cif.got.tgz:49303.got - 2010.06.03 18:47:42.
