data_PCOD9290727
_publ_section_title
;
Structure prediction by ZEFSAII (Michael W. Deem and Ramdas Pophale) SiO2 
 PCOD9290727
Probable space group: C 2/C
;
_chemical_formula_sum "Si O2"
_cell_formula_units_Z 56
_cell_length_a 12.990613
_cell_length_b 16.700782
_cell_length_c 10.896030
_cell_angle_alpha 90.000000
_cell_angle_beta 89.303879
_cell_angle_gamma 90.000000
_cell_volume 2363.756238
_symmetry_space_group_name_H-M "C 2/C"
_symmetry_group_IT_number 15
_symmetry_cell_setting 'monoclinic'
loop_
_space_group_symop_operation_xyz
x,y,z
-x,y,1/2-z
-x,-y,-z
x,-y,1/2+z
1/2+x,1/2+y,z
1/2-x,1/2+y,1/2-z
1/2-x,1/2-y,-z
1/2+x,1/2-y,1/2+z
loop_
_atom_site_type_symbol
_atom_site_label
_atom_site_fract_x
_atom_site_fract_y
_atom_site_fract_z
Si Si1 0.421030 0.760859 0.054054
Si Si2 0.674579 0.904873 0.570421
Si Si3 0.346571 0.811363 0.670023
Si Si4 0.632980 0.240894 0.676106
Si Si5 0.668174 0.086147 0.556755
Si Si6 0.889358 0.872906 0.133471
Si Si7 0.619656 0.612556 0.585968
O O1 0.367940 0.737395 0.182120
O O2 0.536665 0.738538 0.092961
O O3 0.391891 0.850919 0.021952
O O4 0.379225 0.707232 0.944865
O O5 0.662388 0.858609 0.701129
O O6 0.790226 0.914411 0.508544
O O7 0.637780 0.995734 0.579521
O O8 0.234454 0.782054 0.628848
O O9 0.379178 0.874978 0.566041
O O10 0.402114 0.723929 0.660527
O O11 0.635681 0.145324 0.666500
O O12 0.792508 0.098954 0.554862
O O13 0.861711 0.904946 0.271259
O O14 0.997001 0.906562 0.078210
#
# Coordination Sequence:
#
# PCOD9290727 Si02
#       7
#     8   8   8   8   8   8   8
#     4  11  21  40  66  96 122 164 216 270 306 378
#     4  12  25  38  65  96 134 165 208 259 334 375
#     4  11  21  43  65  94 124 171 212 267 303 384
#     4  10  22  41  69  91 123 166 222 263 311 366
#     4  11  25  40  62  93 134 170 208 259 322 385
#     4  10  22  41  69  91 123 166 222 263 311 366
#     4  11  21  40  66  96 122 164 216 270 306 378
#
# _framework density 23.691105
#
# number of rings (size 3 to 8) (size 9 to 14) (size 15 to 20)
#    0.000    1.143    2.857    5.571    4.000    1.143 
#    0.000    0.000    0.000    0.000    0.000    0.000 
#    0.000    0.000    0.000    0.000    0.000    0.000 
#
# Total GULP energy -156076.398796 kJ/mol
# GULP energy per Si atom -5574.157100 kJ/mol
# Density = 2.363718 g / cm^3
# Si number density = 23.691105 Si / 1000 Ang^3
#
#
#
# Elastic Constant Matrix: (Units=GPa)
#
#
# Indices 1 2 3 4 5 6 
#
# 1 51.7985 -18.6484 18.4303 0.0000 -3.8033 0.0000
# 2 -18.6484 77.2771 3.0717 0.0000 4.0094 0.0000
# 3 18.4303 3.0717 104.4388 0.0000 -11.7339 0.0000
# 4 0.0000 0.0000 0.0000 20.2640 0.0000 0.1018
# 5 -3.8033 4.0094 -11.7339 0.0000 33.6124 0.0000
# 6 0.0000 0.0000 0.0000 0.1018 0.0000 4.9040
#
#
#
# Elastic Compliance Matrix: (Units=1/GPa)
#
#
# Indices 1 2 3 4 5 6 
#
# 1 0.022851 0.005655 -0.004147 0.000000 0.000463 0.000000
# 2 0.005655 0.014454 -0.001608 0.000000 -0.001646 0.000000
# 3 -0.004147 -0.001608 0.010744 0.000000 0.003473 0.000000
# 4 0.000000 0.000000 0.000000 0.049354 0.000000 -0.001024
# 5 0.000463 -0.001646 0.003473 0.000000 0.031212 0.000000
# 6 0.000000 0.000000 0.000000 -0.001024 0.000000 0.203936
#
#
# Mechanical properties :
#
#
# Convention : Reuss Voigt Hill
#
# Bulk Modulus (GPa) = 20.89841 26.58019 23.73930
# Shear Modulus (GPa) = 14.33892 27.13348 20.73620
#
# Velocity S-wave (km/s) = 2.46284 3.38790 2.96171
# Velocity P-wave (km/s) = 4.11434 5.15244 4.66238
#
# Compressibility (1/GPa) = 0.04785054
#
# Stress axis : x y z
#
# Youngs Moduli (GPa) = 43.76177 69.18289 93.07261
#
# Poissons Ratio (x) = -0.39124 0.38595
# Poissons Ratio (y) = -0.24748 0.14966
# Poissons Ratio (z) = 0.18147 0.11125
#
# Static dielectric constant tensor:
#      x y z
#    x 2.002370 0.000000 -0.051620 
#    y 0.000000 1.889060 0.000000 
#    z -0.051620 0.000000 1.906000 
# 
# From -- ./inp_files/97051.got.cif
#   From: 2010.05.17/outbox.cif.g08.bks.cpg/sg15_49_cif.got.tgz:97051.got - 2010.06.03 18:47:42.
