data_PCOD9290793
_publ_section_title
;
Structure prediction by ZEFSAII (Michael W. Deem and Ramdas Pophale) SiO2 
 PCOD9290793
Probable space group: C 2/C
;
_chemical_formula_sum "Si O2"
_cell_formula_units_Z 40
_cell_length_a 16.748697
_cell_length_b 18.365809
_cell_length_c 10.236153
_cell_angle_alpha 90.000000
_cell_angle_beta 30.813419
_cell_angle_gamma 90.000000
_cell_volume 1612.890035
_symmetry_space_group_name_H-M "C 2/C"
_symmetry_group_IT_number 15
_symmetry_cell_setting 'monoclinic'
loop_
_space_group_symop_operation_xyz
x,y,z
-x,y,1/2-z
-x,-y,-z
x,-y,1/2+z
1/2+x,1/2+y,z
1/2-x,1/2+y,1/2-z
1/2-x,1/2-y,-z
1/2+x,1/2-y,1/2+z
loop_
_atom_site_type_symbol
_atom_site_label
_atom_site_fract_x
_atom_site_fract_y
_atom_site_fract_z
Si Si1 0.090096 0.837134 0.944382
Si Si2 0.327637 0.046748 0.460487
Si Si3 0.255075 0.806389 0.162705
Si Si4 0.358249 0.493812 0.526658
Si Si5 0.325567 0.323268 0.946147
O O1 0.923835 0.803942 0.134675
O O2 0.176062 0.774147 0.907641
O O3 0.078111 0.913562 0.031428
O O4 0.173278 0.863683 0.692706
O O5 0.500000 0.019375 0.250000
O O6 0.331254 0.135492 0.457949
O O7 0.273559 0.016675 0.397372
O O8 0.205670 0.025789 0.747602
O O9 0.263155 0.843237 0.296873
O O10 0.500000 0.534514 0.250000
O O11 0.500000 0.308202 0.750000
O O12 0.250000 0.250000 0.000000
#
# Coordination Sequence:
#
# PCOD9290793 Si02
#       5
#     8   8   8   8   8
#     4  10  22  41  70 108 142 186 240 300 358 431
#     4  12  29  50  73 107 147 194 241 302 367 428
#     4  10  22  41  71 103 146 185 239 295 365 426
#     4  12  27  50  76 107 141 196 248 296 363 435
#     4   8  16  33  58  95 134 178 221 274 343 414
#
# _framework density 24.800201000000001
#
# number of rings (size 3 to 8) (size 9 to 14) (size 15 to 20)
#    0.000    1.600    2.000    1.200    5.600    2.400 
#    0.000    1.000    0.000    0.000    0.000    0.000 
#    0.000    0.000    0.000    0.000    0.000    0.000 
#
# Total GULP energy -111695.627420 kJ/mol
# GULP energy per Si atom -5584.781371 kJ/mol
# Density = 2.474375 g / cm^3
# Si number density = 24.800201 Si / 1000 Ang^3
#
#
#
# Elastic Constant Matrix: (Units=GPa)
#
#
# Indices 1 2 3 4 5 6 
#
# 1 132.4316 44.7546 10.9996 -0.0004 -0.9186 0.0003
# 2 44.7546 115.7595 10.6525 -0.0005 -5.7957 0.0004
# 3 10.9996 10.6525 49.2506 -0.0007 3.0069 0.0010
# 4 -0.0004 -0.0005 -0.0007 17.4877 0.0004 3.5261
# 5 -0.9186 -5.7957 3.0069 0.0004 48.0444 -0.0005
# 6 0.0003 0.0004 0.0010 3.5261 -0.0005 44.9309
#
#
#
# Elastic Compliance Matrix: (Units=1/GPa)
#
#
# Indices 1 2 3 4 5 6 
#
# 1 0.008762 -0.003281 -0.001238 0.000000 -0.000151 0.000000
# 2 -0.003281 0.010111 -0.001531 0.000000 0.001253 0.000000
# 3 -0.001238 -0.001531 0.021005 0.000001 -0.001523 -0.000001
# 4 0.000000 0.000000 0.000001 0.058103 -0.000001 -0.004560
# 5 -0.000151 0.001253 -0.001523 -0.000001 0.021058 0.000000
# 6 0.000000 0.000000 -0.000001 -0.004560 0.000000 0.022614
#
#
# Mechanical properties :
#
#
# Convention : Reuss Voigt Hill
#
# Bulk Modulus (GPa) = 35.99961 47.80612 41.90286
# Shear Modulus (GPa) = 30.67295 37.49493 34.08394
#
# Velocity S-wave (km/s) = 3.52064 3.89251 3.71123
# Velocity P-wave (km/s) = 5.57439 6.28653 5.94114
#
# Compressibility (1/GPa) = 0.02777808
#
# Stress axis : x y z
#
# Youngs Moduli (GPa) = 114.13374 98.90546 47.60808
#
# Poissons Ratio (x) = 0.32451 0.05894
# Poissons Ratio (y) = 0.37448 0.07287
# Poissons Ratio (z) = 0.14129 0.15138
#
# Static dielectric constant tensor:
#      x y z
#    x 1.945060 0.000000 0.136020 
#    y 0.000000 1.978280 0.000000 
#    z 0.136020 0.000000 2.016030 
# 
# From -- ./inp_files/106821.got.cif
#   From: 2010.05.17/outbox.cif.g08.bks.cpg/sg15_54_cif.got.tgz:106821.got - 2010.06.03 18:47:42.
