data_PCOD9290279
_publ_section_title
;
Structure prediction by ZEFSAII (Michael W. Deem and Ramdas Pophale) SiO2 
 PCOD9290279
Probable space group: C 2/C
;
_chemical_formula_sum "Si O2"
_cell_formula_units_Z 40
_cell_length_a 13.785142
_cell_length_b 12.881060
_cell_length_c 12.274330
_cell_angle_alpha 90.000000
_cell_angle_beta 117.359178
_cell_angle_gamma 90.000000
_cell_volume 1935.724560
_symmetry_space_group_name_H-M "C 2/C"
_symmetry_group_IT_number 15
_symmetry_cell_setting 'monoclinic'
loop_
_space_group_symop_operation_xyz
x,y,z
-x,y,1/2-z
-x,-y,-z
x,-y,1/2+z
1/2+x,1/2+y,z
1/2-x,1/2+y,1/2-z
1/2-x,1/2-y,-z
1/2+x,1/2-y,1/2+z
loop_
_atom_site_type_symbol
_atom_site_label
_atom_site_fract_x
_atom_site_fract_y
_atom_site_fract_z
Si Si1 0.564150 0.269056 0.386955
Si Si2 0.637607 0.795315 0.577337
Si Si3 0.680801 0.126640 0.860600
Si Si4 0.771174 0.595167 0.026564
Si Si5 0.614975 0.019013 0.620750
O O1 0.500000 0.313188 0.250000
O O2 0.476606 0.244392 0.434562
O O3 0.659687 0.342696 0.478733
O O4 0.626861 0.164499 0.379699
O O5 0.632310 0.823896 0.446011
O O6 0.731498 0.709370 0.638258
O O7 0.662576 0.902507 0.654265
O O8 0.603952 0.084664 0.724560
O O9 0.736166 0.018759 0.927316
O O10 0.803518 0.579847 0.916716
O O11 0.500000 0.000000 0.500000
#
# Coordination Sequence:
#
# PCOD9290279 Si02
#       5
#     8   8   8   8   8
#     4  11  21  39  64  92 131 169 220 268 324 403
#     4  10  22  41  64  96 128 171 217 269 339 381
#     4  10  23  41  66  93 135 164 222 278 323 409
#     4  10  23  37  62  96 123 174 220 264 333 386
#     4  11  21  40  65  94 127 173 219 273 330 388
#
# _framework density 20.664097000000002
#
# number of rings (size 3 to 8) (size 9 to 14) (size 15 to 20)
#    0.000    1.600    2.000    2.400    0.000    4.800 
#    0.000    0.000    8.800    0.000    0.000    0.000 
#    0.000    0.000    0.000    0.000    0.000    0.000 
#
# Total GULP energy -111697.397110 kJ/mol
# GULP energy per Si atom -5584.869855 kJ/mol
# Density = 2.061706 g / cm^3
# Si number density = 20.664097 Si / 1000 Ang^3
#
#
#
# Elastic Constant Matrix: (Units=GPa)
#
#
# Indices 1 2 3 4 5 6 
#
# 1 118.0280 34.4074 40.4484 0.0000 2.4474 0.0000
# 2 34.4074 81.4997 35.0027 0.0000 6.6787 0.0000
# 3 40.4484 35.0027 102.7007 0.0000 0.0630 0.0000
# 4 0.0000 0.0000 0.0000 26.6474 0.0000 -10.9774
# 5 2.4474 6.6787 0.0630 0.0000 20.0596 0.0000
# 6 0.0000 0.0000 0.0000 -10.9774 0.0000 32.8357
#
#
#
# Elastic Compliance Matrix: (Units=1/GPa)
#
#
# Indices 1 2 3 4 5 6 
#
# 1 0.010419 -0.003065 -0.003059 0.000000 -0.000241 0.000000
# 2 -0.003065 0.015747 -0.004157 0.000000 -0.004856 0.000000
# 3 -0.003059 -0.004157 0.012357 0.000000 0.001718 0.000000
# 4 0.000000 0.000000 0.000000 0.043521 0.000000 0.014550
# 5 -0.000241 -0.004856 0.001718 0.000000 0.051492 0.000000
# 6 0.000000 0.000000 0.000000 0.014550 0.000000 0.035319
#
#
# Mechanical properties :
#
#
# Convention : Reuss Voigt Hill
#
# Bulk Modulus (GPa) = 55.67224 57.99392 56.83308
# Shear Modulus (GPa) = 25.58785 28.73320 27.16052
#
# Velocity S-wave (km/s) = 3.52273 3.73297 3.62937
# Velocity P-wave (km/s) = 6.59895 6.83419 6.71760
#
# Compressibility (1/GPa) = 0.01796227
#
# Stress axis : x y z
#
# Youngs Moduli (GPa) = 95.97450 63.50282 80.92340
#
# Poissons Ratio (x) = 0.19466 0.24752
# Poissons Ratio (y) = 0.29420 0.33638
# Poissons Ratio (z) = 0.29356 0.26397
#
# Static dielectric constant tensor:
#      x y z
#    x 1.716760 0.000000 -0.004920 
#    y 0.000000 1.752740 0.000000 
#    z -0.004920 0.000000 1.798950 
# 
# From -- ./inp_files/95132.got.cif
#   From: 2010.05.17/outbox.cif.g08.bks.cpg/sg15_48_cif.got.tgz:95132.got - 2010.06.03 18:47:42.
