data_PCOD9290260
_publ_section_title
;
Structure prediction by ZEFSAII (Michael W. Deem and Ramdas Pophale) SiO2 
 PCOD9290260
Probable space group: C 2/C
;
_chemical_formula_sum "Si O2"
_cell_formula_units_Z 44
_cell_length_a 5.128957
_cell_length_b 29.967677
_cell_length_c 11.623175
_cell_angle_alpha 90.000000
_cell_angle_beta 101.569287
_cell_angle_gamma 90.000000
_cell_volume 1750.219182
_symmetry_space_group_name_H-M "C 2/C"
_symmetry_group_IT_number 15
_symmetry_cell_setting 'monoclinic'
loop_
_space_group_symop_operation_xyz
x,y,z
-x,y,1/2-z
-x,-y,-z
x,-y,1/2+z
1/2+x,1/2+y,z
1/2-x,1/2+y,1/2-z
1/2-x,1/2-y,-z
1/2+x,1/2-y,1/2+z
loop_
_atom_site_type_symbol
_atom_site_label
_atom_site_fract_x
_atom_site_fract_y
_atom_site_fract_z
Si Si1 0.212427 0.873967 0.165971
Si Si2 0.710969 0.471020 0.164521
Si Si3 0.221647 0.664997 0.373319
Si Si4 0.287602 0.432562 0.834975
Si Si5 0.000000 0.771090 0.750000
Si Si6 0.070366 0.291011 0.441298
O O1 0.500000 0.876610 0.250000
O O2 0.179744 0.922712 0.102490
O O3 0.242730 0.830287 0.091367
O O4 0.000000 0.869590 0.250000
O O5 0.500000 0.471374 0.250000
O O6 0.683137 0.519333 0.101562
O O7 0.000000 0.471212 0.250000
O O8 0.281606 0.613552 0.403206
O O9 0.475876 0.690273 0.345940
O O10 0.000000 0.669198 0.250000
O O11 0.103955 0.689152 0.472818
O O12 0.500000 0.428512 0.750000
O O13 0.000000 0.433870 0.750000
O O14 0.115659 0.732108 0.673734
O O15 0.250000 0.250000 0.500000
#
# Coordination Sequence:
#
# PCOD9290260 Si02
#       6
#     8   8   8   8   4   8
#     4  10  22  41  64  93 129 169 216 265 319 384
#     4   8  15  31  58  88 120 163 204 254 318 378
#     4  11  23  41  61  93 123 167 214 263 324 384
#     4   9  17  33  59  89 124 163 204 258 320 383
#     4  12  24  44  64  88 126 174 216 268 326 378
#     4  12  26  41  66  93 127 173 222 270 319 386
#
# _framework density 25.139707000000001
#
# number of rings (size 3 to 8) (size 9 to 14) (size 15 to 20)
#    0.000    1.818    3.636    0.545    2.545    1.455 
#    0.000    0.909    0.000    0.000    0.000   20.364 
#    0.000    0.000    0.000    0.000    0.000    0.000 
#
# Total GULP energy -122534.682099 kJ/mol
# GULP energy per Si atom -5569.758277 kJ/mol
# Density = 2.508249 g / cm^3
# Si number density = 25.139707 Si / 1000 Ang^3
#
#
#
# Elastic Constant Matrix: (Units=GPa)
#
#
# Indices 1 2 3 4 5 6 
#
# 1 126.7262 20.4135 30.3712 0.0000 -19.1599 0.0000
# 2 20.4135 303.0229 81.4533 0.0000 -17.6920 0.0000
# 3 30.3712 81.4533 82.1625 0.0000 -14.7998 0.0000
# 4 0.0000 0.0000 0.0000 98.2659 0.0000 40.1659
# 5 -19.1599 -17.6920 -14.7998 0.0000 41.0105 0.0000
# 6 0.0000 0.0000 0.0000 40.1659 0.0000 78.2152
#
#
#
# Elastic Compliance Matrix: (Units=1/GPa)
#
#
# Indices 1 2 3 4 5 6 
#
# 1 0.009084 0.000441 -0.003204 0.000000 0.003278 0.000000
# 2 0.000441 0.004525 -0.004557 0.000000 0.000514 0.000000
# 3 -0.003204 -0.004557 0.018448 0.000000 0.003195 0.000000
# 4 0.000000 0.000000 0.000000 0.012880 0.000000 -0.006614
# 5 0.003278 0.000514 0.003195 0.000000 0.027290 0.000000
# 6 0.000000 0.000000 0.000000 -0.006614 0.000000 0.016182
#
#
# Mechanical properties :
#
#
# Convention : Reuss Voigt Hill
#
# Bulk Modulus (GPa) = 57.41597 86.26529 71.84063
# Shear Modulus (GPa) = 45.93301 68.80990 57.37146
#
# Velocity S-wave (km/s) = 4.27911 5.23741 4.78232
# Velocity P-wave (km/s) = 6.87770 8.42394 7.68978
#
# Compressibility (1/GPa) = 0.01741676
#
# Stress axis : x y z
#
# Youngs Moduli (GPa) = 110.08968 220.98542 54.20609
#
# Poissons Ratio (x) = -0.09740 0.17369
# Poissons Ratio (y) = -0.04852 0.24699
# Poissons Ratio (z) = 0.35276 1.00692
#
# Static dielectric constant tensor:
#      x y z
#    x 2.005000 0.000000 0.132750 
#    y 0.000000 2.024550 0.000000 
#    z 0.132750 0.000000 1.972850 
# 
# From -- ./inp_files/73877.got.cif
#   From: 2010.05.17/outbox.cif.g08.bks.cpg/sg15_37_cif.got.tgz:73877.got - 2010.06.03 18:47:42.
