data_PCOD9290246
_publ_section_title
;
Structure prediction by ZEFSAII (Michael W. Deem and Ramdas Pophale) SiO2 
 PCOD9290246
Probable space group: C 2/C
;
_chemical_formula_sum "Si O2"
_cell_formula_units_Z 40
_cell_length_a 7.485664
_cell_length_b 17.525454
_cell_length_c 20.194077
_cell_angle_alpha 90.000000
_cell_angle_beta 138.476020
_cell_angle_gamma 90.000000
_cell_volume 1756.279160
_symmetry_space_group_name_H-M "C 2/C"
_symmetry_group_IT_number 15
_symmetry_cell_setting 'monoclinic'
loop_
_space_group_symop_operation_xyz
x,y,z
-x,y,1/2-z
-x,-y,-z
x,-y,1/2+z
1/2+x,1/2+y,z
1/2-x,1/2+y,1/2-z
1/2-x,1/2-y,-z
1/2+x,1/2-y,1/2+z
loop_
_atom_site_type_symbol
_atom_site_label
_atom_site_fract_x
_atom_site_fract_y
_atom_site_fract_z
Si Si1 0.069984 0.432386 0.163726
Si Si2 0.583965 0.388257 0.369071
Si Si3 0.177328 0.264943 0.668088
Si Si4 0.329352 0.096267 0.083997
Si Si5 0.357568 0.693930 0.974595
O O1 0.309128 0.435816 0.283265
O O2 0.214959 0.414640 0.133199
O O3 0.903579 0.509920 0.118529
O O4 0.871685 0.361429 0.117735
O O5 0.468165 0.301451 0.329435
O O6 0.717184 0.399924 0.477327
O O7 0.500000 0.260498 0.750000
O O8 0.056824 0.248004 0.561774
O O9 0.086318 0.348858 0.663009
O O10 0.096482 0.137509 0.061976
O O11 0.250000 0.750000 0.000000
#
# Coordination Sequence:
#
# PCOD9290246 Si02
#       5
#     8   8   8   8   8
#     4  11  22  40  66  95 131 166 217 273 327 389
#     4  10  22  41  64  91 128 176 211 262 338 386
#     4  11  22  42  66  89 127 170 223 265 324 394
#     4  11  24  40  66  95 128 170 218 272 324 390
#     4  11  22  42  66  93 129 170 215 264 330 392
#
# _framework density 22.775423
#
# number of rings (size 3 to 8) (size 9 to 14) (size 15 to 20)
#    0.000    1.200    2.000    6.000    2.800    0.000 
#    0.000    0.000    0.000    0.000    0.000    0.000 
#    0.000    0.000    0.000    0.000    0.000    0.000 
#
# Total GULP energy -111843.309569 kJ/mol
# GULP energy per Si atom -5592.165478 kJ/mol
# Density = 2.272359 g / cm^3
# Si number density = 22.775423 Si / 1000 Ang^3
#
#
#
# Elastic Constant Matrix: (Units=GPa)
#
#
# Indices 1 2 3 4 5 6 
#
# 1 88.2064 43.9853 20.1345 0.0002 14.9391 0.0004
# 2 43.9853 127.7026 38.7876 0.0004 4.9460 0.0005
# 3 20.1345 38.7876 74.0186 0.0006 19.9831 0.0007
# 4 0.0002 0.0004 0.0006 34.8322 0.0003 14.5755
# 5 14.9391 4.9460 19.9831 0.0003 32.9446 0.0004
# 6 0.0004 0.0005 0.0007 14.5755 0.0004 28.9273
#
#
#
# Elastic Compliance Matrix: (Units=1/GPa)
#
#
# Indices 1 2 3 4 5 6 
#
# 1 0.014771 -0.004912 0.000198 0.000000 -0.006081 0.000000
# 2 -0.004912 0.011044 -0.005506 0.000000 0.003910 0.000000
# 3 0.000198 -0.005506 0.019304 0.000000 -0.010972 0.000000
# 4 0.000000 0.000000 0.000000 0.036379 0.000000 -0.018330
# 5 -0.006081 0.003910 -0.010972 0.000000 0.039180 0.000000
# 6 0.000000 0.000000 0.000000 -0.018330 0.000000 0.043805
#
#
# Mechanical properties :
#
#
# Convention : Reuss Voigt Hill
#
# Bulk Modulus (GPa) = 40.52350 55.08249 47.80299
# Shear Modulus (GPa) = 25.88643 31.80883 28.84763
#
# Velocity S-wave (km/s) = 3.37500 3.74121 3.56281
# Velocity P-wave (km/s) = 5.74620 6.54979 6.16111
#
# Compressibility (1/GPa) = 0.02467704
#
# Stress axis : x y z
#
# Youngs Moduli (GPa) = 67.69859 90.54902 51.80266
#
# Poissons Ratio (x) = 0.44481 -0.01024
# Poissons Ratio (y) = 0.33256 0.28525
# Poissons Ratio (z) = -0.01338 0.49860
#
# Static dielectric constant tensor:
#      x y z
#    x 1.904260 0.000000 0.021720 
#    y 0.000000 1.816210 0.000000 
#    z 0.021720 0.000000 1.866450 
# 
# From -- ./inp_files/264524.got.cif
#   From: 2010.05.17/outbox.cif.g08.bks.cpg/sg15_133_cif.got.tgz:264524.got - 2010.06.03 18:47:42.
