data_PCOD9290923
_publ_section_title
;
Structure prediction by ZEFSAII (Michael W. Deem and Ramdas Pophale) SiO2 
 PCOD9290923
Probable space group: C 2/C
;
_chemical_formula_sum "Si O2"
_cell_formula_units_Z 52
_cell_length_a 12.159100
_cell_length_b 24.454839
_cell_length_c 9.070119
_cell_angle_alpha 90.000000
_cell_angle_beta 67.239528
_cell_angle_gamma 90.000000
_cell_volume 2486.975489
_symmetry_space_group_name_H-M "C 2/C"
_symmetry_group_IT_number 15
_symmetry_cell_setting 'monoclinic'
loop_
_space_group_symop_operation_xyz
x,y,z
-x,y,1/2-z
-x,-y,-z
x,-y,1/2+z
1/2+x,1/2+y,z
1/2-x,1/2+y,1/2-z
1/2-x,1/2-y,-z
1/2+x,1/2-y,1/2+z
loop_
_atom_site_type_symbol
_atom_site_label
_atom_site_fract_x
_atom_site_fract_y
_atom_site_fract_z
Si Si1 0.096809 0.454118 0.495517
Si Si2 0.635949 0.428424 0.690543
Si Si3 0.540778 0.831791 0.487325
Si Si4 0.774042 0.206238 0.707537
Si Si5 0.269296 0.176407 0.088509
Si Si6 0.741872 0.513076 0.851900
Si Si7 0.500000 0.739716 0.750000
O O1 0.046683 0.393523 0.545593
O O2 0.165724 0.475800 0.603271
O O3 0.186163 0.453034 0.308576
O O4 0.000000 0.500000 0.500000
O O5 0.500000 0.410555 0.750000
O O6 0.722423 0.378517 0.685304
O O7 0.652989 0.475234 0.804070
O O8 0.678625 0.451204 0.509892
O O9 0.657278 0.822793 0.328934
O O10 0.410395 0.826777 0.481445
O O11 0.543184 0.782058 0.602208
O O12 0.798719 0.185117 0.529982
O O13 0.748682 0.270979 0.700463
O O14 0.890413 0.203647 0.748683
#
# Coordination Sequence:
#
# PCOD9290923 Si02
#       7
#     8   8   8   8   8   8   4
#     4  11  23  37  66  96 132 165 210 272 329 390
#     4  11  23  42  65  89 126 173 216 268 325 391
#     4  11  22  39  65  91 128 168 207 266 329 376
#     4  10  22  42  60  92 129 166 207 271 317 385
#     4  10  23  39  65  93 121 160 219 259 319 389
#     4  10  23  40  59  94 128 164 218 263 322 393
#     4  10  24  38  62  90 130 168 218 256 318 396
#
# _framework density 20.908933000000001
#
# number of rings (size 3 to 8) (size 9 to 14) (size 15 to 20)
#    0.000    1.538    0.000    4.615    6.462    4.923 
#    2.769    0.000    3.385    0.000    0.000    0.000 
#    0.000    0.000    0.000    0.000    0.000    0.000 
#
# Total GULP energy -145297.970933 kJ/mol
# GULP energy per Si atom -5588.383497 kJ/mol
# Density = 2.086134 g / cm^3
# Si number density = 20.908933 Si / 1000 Ang^3
#
#
#
# Elastic Constant Matrix: (Units=GPa)
#
#
# Indices 1 2 3 4 5 6 
#
# 1 121.7263 25.1136 19.0660 0.0000 2.2596 0.0000
# 2 25.1136 73.6933 3.6121 0.0000 -16.3870 0.0000
# 3 19.0660 3.6121 44.2123 0.0000 7.4729 0.0000
# 4 0.0000 0.0000 0.0000 10.7553 0.0000 -12.9809
# 5 2.2596 -16.3870 7.4729 0.0000 27.1660 0.0000
# 6 0.0000 0.0000 0.0000 -12.9809 0.0000 23.7309
#
#
#
# Elastic Compliance Matrix: (Units=1/GPa)
#
#
# Indices 1 2 3 4 5 6 
#
# 1 0.009521 -0.003507 -0.003490 0.000000 -0.001947 0.000000
# 2 -0.003507 0.017357 -0.001809 0.000000 0.011259 0.000000
# 3 -0.003490 -0.001809 0.025597 0.000000 -0.007842 0.000000
# 4 0.000000 0.000000 0.000000 0.273622 0.000000 0.149673
# 5 -0.001947 0.011259 -0.007842 0.000000 0.045922 0.000000
# 6 0.000000 0.000000 0.000000 0.149673 0.000000 0.124011
#
#
# Mechanical properties :
#
#
# Convention : Reuss Voigt Hill
#
# Bulk Modulus (GPa) = 28.68355 37.24614 32.96484
# Shear Modulus (GPa) = 9.51904 25.11977 17.31941
#
# Velocity S-wave (km/s) = 2.13600 3.46987 2.88119
# Velocity P-wave (km/s) = 4.45325 5.82284 5.18348
#
# Compressibility (1/GPa) = 0.03486319
#
# Stress axis : x y z
#
# Youngs Moduli (GPa) = 105.02584 57.61307 39.06761
#
# Poissons Ratio (x) = 0.20203 0.13636
# Poissons Ratio (y) = 0.36829 0.07067
# Poissons Ratio (z) = 0.36658 0.10422
#
# Static dielectric constant tensor:
#      x y z
#    x 1.740660 0.000000 -0.000500 
#    y 0.000000 1.750060 0.000000 
#    z -0.000500 0.000000 1.764180 
# 
# From -- ./inp_files/33480.got.cif
#   From: 2010.05.17/outbox.cif.g08.bks.cpg/sg15_17_cif.got.tgz:33480.got - 2010.06.03 18:47:42.
