data_PCOD9290683
_publ_section_title
;
Structure prediction by ZEFSAII (Michael W. Deem and Ramdas Pophale) SiO2 
 PCOD9290683
Probable space group: C 2/C
;
_chemical_formula_sum "Si O2"
_cell_formula_units_Z 64
_cell_length_a 8.540872
_cell_length_b 29.840239
_cell_length_c 17.161675
_cell_angle_alpha 90.000000
_cell_angle_beta 42.164829
_cell_angle_gamma 90.000000
_cell_volume 2936.017590
_symmetry_space_group_name_H-M "C 2/C"
_symmetry_group_IT_number 15
_symmetry_cell_setting 'monoclinic'
loop_
_space_group_symop_operation_xyz
x,y,z
-x,y,1/2-z
-x,-y,-z
x,-y,1/2+z
1/2+x,1/2+y,z
1/2-x,1/2+y,1/2-z
1/2-x,1/2-y,-z
1/2+x,1/2-y,1/2+z
loop_
_atom_site_type_symbol
_atom_site_label
_atom_site_fract_x
_atom_site_fract_y
_atom_site_fract_z
Si Si1 0.088583 0.822495 0.909892
Si Si2 0.675909 0.830909 0.512148
Si Si3 0.957915 0.465680 0.857324
Si Si4 0.272580 0.384713 0.781875
Si Si5 0.122405 0.559357 0.849392
Si Si6 0.722051 0.774300 0.350649
Si Si7 0.940777 0.651370 0.862330
Si Si8 0.604895 0.577385 0.594876
O O1 0.247438 0.821026 0.928418
O O2 0.174346 0.861087 0.820122
O O3 0.117605 0.773137 0.863179
O O4 0.821940 0.831460 0.030491
O O5 0.427663 0.855131 0.604342
O O6 0.658418 0.788808 0.462182
O O7 0.859993 0.868829 0.415123
O O8 0.163854 0.433739 0.812597
O O9 0.979167 0.514879 0.885123
O O10 0.000000 0.468102 0.750000
O O11 0.719269 0.441686 0.973719
O O12 0.500000 0.385227 0.750000
O O13 0.339950 0.563829 0.708768
O O14 0.239390 0.558661 0.891346
O O15 0.972093 0.603985 0.893930
O O16 0.619146 0.813306 0.334556
O O17 0.000000 0.772040 0.250000
O O18 0.000000 0.645561 0.750000
#
# Coordination Sequence:
#
# PCOD9290683 Si02
#       8
#     8   8   8   8   8   8   8   8
#     4  12  26  43  68  99 136 178 227 281 340 404
#     4  11  22  44  68  97 134 178 227 279 336 405
#     4  11  25  42  67 101 137 178 227 281 344 413
#     4  11  25  43  67  96 136 180 224 277 340 404
#     4  11  23  42  69  99 134 181 228 281 343 406
#     4  12  24  43  69  97 133 181 226 276 342 408
#     4  12  26  43  66 102 136 174 229 289 339 401
#     4  10  22  41  68  97 134 177 229 277 339 413
#
# _framework density 21.798234999999998
#
# number of rings (size 3 to 8) (size 9 to 14) (size 15 to 20)
#    0.000    0.750    1.250    7.125    3.500    3.000 
#    0.000    0.000    0.000    0.000    0.000    0.000 
#    0.000    0.000    0.000    0.000    0.000    0.000 
#
# Total GULP energy -179231.003010 kJ/mol
# GULP energy per Si atom -5600.968844 kJ/mol
# Density = 2.174862 g / cm^3
# Si number density = 21.798235 Si / 1000 Ang^3
#
#
#
# Elastic Constant Matrix: (Units=GPa)
#
#
# Indices 1 2 3 4 5 6 
#
# 1 67.8617 14.3296 2.6370 0.0000 -5.1752 0.0000
# 2 14.3296 107.1508 6.5476 0.0000 -15.2060 0.0000
# 3 2.6370 6.5476 53.5426 0.0000 -6.3854 0.0000
# 4 0.0000 0.0000 0.0000 -10.0427 0.0000 -13.3887
# 5 -5.1752 -15.2060 -6.3854 0.0000 39.1329 0.0000
# 6 0.0000 0.0000 0.0000 -13.3887 0.0000 7.1174
#
#
#
# Elastic Compliance Matrix: (Units=1/GPa)
#
#
# Indices 1 2 3 4 5 6 
#
# 1 0.015233 -0.001838 -0.000378 0.000000 0.001239 0.000000
# 2 -0.001838 0.010130 -0.000722 0.000000 0.003575 0.000000
# 3 -0.000378 -0.000722 0.019116 0.000000 0.002789 0.000000
# 4 0.000000 0.000000 0.000000 -0.028386 0.000000 -0.053398
# 5 0.001239 0.003575 0.002789 0.000000 0.027562 0.000000
# 6 0.000000 0.000000 0.000000 -0.053398 0.000000 0.040053
#
#
# Mechanical properties :
#
#
# Convention : Reuss Voigt Hill
#
# Bulk Modulus (GPa) = 25.90434 30.62038 28.26236
# Shear Modulus (GPa) = 48.80334 20.91090 34.85712
#
# Velocity S-wave (km/s) = 4.73680 3.10061 4.00319
# Velocity P-wave (km/s) = 6.46729 5.18614 5.86182
#
# Compressibility (1/GPa) = 0.03860357
#
# Stress axis : x y z
#
# Youngs Moduli (GPa) = 65.64622 98.71689 52.31167
#
# Poissons Ratio (x) = 0.18147 0.01976
# Poissons Ratio (y) = 0.12068 0.03776
# Poissons Ratio (z) = 0.02480 0.07126
#
# Static dielectric constant tensor:
#      x y z
#    x 1.764120 0.000000 0.029360 
#    y 0.000000 1.785220 0.000000 
#    z 0.029360 0.000000 1.803540 
# 
# From -- ./inp_files/194220.got.cif
#   From: 2010.05.17/outbox.cif.g08.bks.cpg/sg15_98_cif.got.tgz:194220.got - 2010.06.03 18:47:42.
