data_PCOD9290974
_publ_section_title
;
Structure prediction by ZEFSAII (Michael W. Deem and Ramdas Pophale) SiO2 
 PCOD9290974
Probable space group: C 2/C
;
_chemical_formula_sum "Si O2"
_cell_formula_units_Z 60
_cell_length_a 22.607582
_cell_length_b 14.942530
_cell_length_c 8.742001
_cell_angle_alpha 90.000000
_cell_angle_beta 116.201209
_cell_angle_gamma 90.000000
_cell_volume 2649.732983
_symmetry_space_group_name_H-M "C 2/C"
_symmetry_group_IT_number 15
_symmetry_cell_setting 'monoclinic'
loop_
_space_group_symop_operation_xyz
x,y,z
-x,y,1/2-z
-x,-y,-z
x,-y,1/2+z
1/2+x,1/2+y,z
1/2-x,1/2+y,1/2-z
1/2-x,1/2-y,-z
1/2+x,1/2-y,1/2+z
loop_
_atom_site_type_symbol
_atom_site_label
_atom_site_fract_x
_atom_site_fract_y
_atom_site_fract_z
Si Si1 0.848661 0.049114 0.929147
Si Si2 0.442713 0.463516 0.809520
Si Si3 0.270452 0.311589 0.177223
Si Si4 0.202412 0.147248 0.123513
Si Si5 0.500000 0.829769 0.250000
Si Si6 0.071876 0.543410 0.055144
Si Si7 0.378709 0.124696 0.066258
Si Si8 0.429009 0.719501 0.430335
O O1 0.801494 0.130584 0.843191
O O2 0.908663 0.038643 0.876243
O O3 0.805256 0.958154 0.868083
O O4 0.882561 0.060673 0.129581
O O5 0.500000 0.482536 0.750000
O O6 0.458680 0.381456 0.945527
O O7 0.267114 0.207385 0.219081
O O8 0.312744 0.332266 0.073200
O O9 0.197204 0.345282 0.046048
O O10 0.147877 0.194330 0.165229
O O11 0.555374 0.887091 0.401419
O O12 0.462386 0.770715 0.330526
O O13 0.100722 0.589750 0.241129
O O14 0.113132 0.460178 0.037601
O O15 0.000000 0.500000 0.000000
O O16 0.426294 0.207448 0.066035
#
# Coordination Sequence:
#
# PCOD9290974 Si02
#       8
#     8   8   8   8   4   8   8   8
#     4  11  22  43  73  97 134 179 221 293 355 406
#     4  11  23  43  67 100 132 176 231 285 346 418
#     4  10  22  43  70  99 132 181 230 285 349 420
#     4   9  21  44  66  94 138 165 231 286 335 418
#     4  12  22  42  64  92 142 176 232 282 338 416
#     4  12  22  39  65  98 137 186 225 282 346 413
#     4  11  23  40  66  97 137 181 231 281 345 420
#     4  10  22  42  62  91 137 176 223 292 335 415
#
# _framework density 22.643789999999999
#
# number of rings (size 3 to 8) (size 9 to 14) (size 15 to 20)
#    0.000    1.333    4.667    0.400    1.867    0.000 
#    7.200    8.667    0.000    0.000    0.000    0.000 
#    0.000    0.000    0.000    0.000    0.000    0.000 
#
# Total GULP energy -167114.236105 kJ/mol
# GULP energy per Si atom -5570.474537 kJ/mol
# Density = 2.259225 g / cm^3
# Si number density = 22.643790 Si / 1000 Ang^3
#
#
#
# Elastic Constant Matrix: (Units=GPa)
#
#
# Indices 1 2 3 4 5 6 
#
# 1 83.7601 29.6681 26.2944 0.0000 -15.0563 0.0000
# 2 29.6681 86.5042 33.6141 0.0000 11.9933 0.0000
# 3 26.2944 33.6141 116.1494 0.0000 15.9442 0.0000
# 4 0.0000 0.0000 0.0000 23.5663 0.0000 -9.9114
# 5 -15.0563 11.9933 15.9442 0.0000 23.5142 0.0000
# 6 0.0000 0.0000 0.0000 -9.9114 0.0000 41.8690
#
#
#
# Elastic Compliance Matrix: (Units=1/GPa)
#
#
# Indices 1 2 3 4 5 6 
#
# 1 0.019797 -0.007606 -0.005020 0.000000 0.019960 0.000000
# 2 -0.007606 0.016395 -0.001330 0.000000 -0.012331 0.000000
# 3 -0.005020 -0.001330 0.011555 0.000000 -0.010371 0.000000
# 4 0.000000 0.000000 0.000000 0.047125 0.000000 0.011156
# 5 0.019960 -0.012331 -0.010371 0.000000 0.068629 0.000000
# 6 0.000000 0.000000 0.000000 0.011156 0.000000 0.026525
#
#
# Mechanical properties :
#
#
# Convention : Reuss Voigt Hill
#
# Bulk Modulus (GPa) = 50.42024 51.72966 51.07495
# Shear Modulus (GPa) = 22.26665 30.91237 26.58951
#
# Velocity S-wave (km/s) = 3.13923 3.69881 3.43045
# Velocity P-wave (km/s) = 5.95439 6.41375 6.18833
#
# Compressibility (1/GPa) = 0.01983330
#
# Stress axis : x y z
#
# Youngs Moduli (GPa) = 50.51303 60.99308 86.54427
#
# Poissons Ratio (x) = 0.46392 0.43448
# Poissons Ratio (y) = 0.38421 0.11513
# Poissons Ratio (z) = 0.25359 0.08114
#
# Static dielectric constant tensor:
#      x y z
#    x 1.904930 0.000000 -0.017090 
#    y 0.000000 1.922750 0.000000 
#    z -0.017090 0.000000 1.840490 
# 
# From -- ./inp_files/61952.got.cif
#   From: 2010.05.17/outbox.cif.g08.bks.cpg/sg15_31_cif.got.tgz:61952.got - 2010.06.03 18:47:42.
