data_PCOD9290065
_publ_section_title
;
Structure prediction by ZEFSAII (Michael W. Deem and Ramdas Pophale) SiO2 
 PCOD9290065
Probable space group: C 2/C
;
_chemical_formula_sum "Si O2"
_cell_formula_units_Z 64
_cell_length_a 11.307754
_cell_length_b 11.047774
_cell_length_c 22.781833
_cell_angle_alpha 90.000000
_cell_angle_beta 126.961573
_cell_angle_gamma 90.000000
_cell_volume 2274.090530
_symmetry_space_group_name_H-M "C 2/C"
_symmetry_group_IT_number 15
_symmetry_cell_setting 'monoclinic'
loop_
_space_group_symop_operation_xyz
x,y,z
-x,y,1/2-z
-x,-y,-z
x,-y,1/2+z
1/2+x,1/2+y,z
1/2-x,1/2+y,1/2-z
1/2-x,1/2-y,-z
1/2+x,1/2-y,1/2+z
loop_
_atom_site_type_symbol
_atom_site_label
_atom_site_fract_x
_atom_site_fract_y
_atom_site_fract_z
Si Si1 0.496390 0.619945 0.857318
Si Si2 0.850818 0.330256 0.986388
Si Si3 0.981961 0.346585 0.308280
Si Si4 0.726473 0.617041 0.031136
Si Si5 0.175120 0.892348 0.082876
Si Si6 0.566643 0.110032 0.163487
Si Si7 0.680787 0.523084 0.343051
Si Si8 0.346391 0.787109 0.379814
O O1 0.372018 0.575655 0.866147
O O2 0.447495 0.751493 0.817591
O O3 0.516622 0.507731 0.818097
O O4 0.641551 0.648578 0.944675
O O5 0.904599 0.232601 0.954410
O O6 0.757093 0.430926 0.926719
O O7 0.750000 0.250000 0.000000
O O8 0.007195 0.365862 0.059478
O O9 0.154122 0.361552 0.372716
O O10 0.928278 0.487837 0.294556
O O11 0.000000 0.288770 0.250000
O O12 0.894380 0.261356 0.327300
O O13 0.650529 0.489823 0.025545
O O14 0.905016 0.598985 0.081632
O O15 0.694091 0.689882 0.082898
O O16 0.719258 0.099221 0.172297
O O17 0.719107 0.384417 0.340433
#
# Coordination Sequence:
#
# PCOD9290065 Si02
#       8
#     8   8   8   8   8   8   8   8
#     4  12  22  34  60  97 137 169 207 265 334 398
#     4  12  22  35  56  96 136 176 200 261 339 405
#     4  10  24  46  68  86 118 176 230 276 334 392
#     4  11  22  36  58  98 136 173 207 259 328 412
#     4  11  23  38  58  93 138 166 212 265 331 407
#     4  10  22  41  60  88 130 170 226 263 320 398
#     4  11  24  35  60  92 137 177 212 257 323 409
#     4  11  22  37  65  90 129 165 225 269 328 402
#
# _framework density 28.143118999999999
#
# number of rings (size 3 to 8) (size 9 to 14) (size 15 to 20)
#    0.000    1.000    5.000    1.875    7.000    0.000 
#    0.000    2.500    0.000    0.000    0.000    0.000 
#    0.000    0.000    0.000    0.000    0.000    0.000 
#
# Total GULP energy -178498.004206 kJ/mol
# GULP energy per Si atom -5578.062631 kJ/mol
# Density = 2.807906 g / cm^3
# Si number density = 28.143119 Si / 1000 Ang^3
#
#
#
# Elastic Constant Matrix: (Units=GPa)
#
#
# Indices 1 2 3 4 5 6 
#
# 1 170.6609 45.8605 36.5899 0.0000 -28.6156 0.0000
# 2 45.8605 104.3394 17.8637 0.0000 -19.9883 0.0000
# 3 36.5899 17.8637 45.4538 0.0000 -13.8523 0.0000
# 4 0.0000 0.0000 0.0000 15.5926 0.0000 -11.7150
# 5 -28.6156 -19.9883 -13.8523 0.0000 54.1626 0.0000
# 6 0.0000 0.0000 0.0000 -11.7150 0.0000 55.3191
#
#
#
# Elastic Compliance Matrix: (Units=1/GPa)
#
#
# Indices 1 2 3 4 5 6 
#
# 1 0.007836 -0.002222 -0.004797 0.000000 0.002093 0.000000
# 2 -0.002222 0.011373 -0.001908 0.000000 0.002535 0.000000
# 3 -0.004797 -0.001908 0.027791 0.000000 0.003869 0.000000
# 4 0.000000 0.000000 0.000000 0.076268 0.000000 0.016151
# 5 0.002093 0.002535 0.003869 0.000000 0.021494 0.000000
# 6 0.000000 0.000000 0.000000 0.016151 0.000000 0.021497
#
#
# Mechanical properties :
#
#
# Convention : Reuss Voigt Hill
#
# Bulk Modulus (GPa) = 34.31047 57.89805 46.10426
# Shear Modulus (GPa) = 25.79593 39.69086 32.74340
#
# Velocity S-wave (km/s) = 3.03082 3.75950 3.41465
# Velocity P-wave (km/s) = 4.94628 6.28192 5.65368
#
# Compressibility (1/GPa) = 0.02914562
#
# Stress axis : x y z
#
# Youngs Moduli (GPa) = 127.61471 87.92650 35.98298
#
# Poissons Ratio (x) = 0.19537 0.17260
# Poissons Ratio (y) = 0.28356 0.06867
# Poissons Ratio (z) = 0.61214 0.16781
#
# Static dielectric constant tensor:
#      x y z
#    x 2.352470 0.000000 -0.066600 
#    y 0.000000 2.255910 0.000000 
#    z -0.066600 0.000000 2.586330 
# 
# From -- ./inp_files/269294.got.cif
#   From: 2010.05.17/outbox.cif.g08.bks.cpg/sg15_135_cif.got.tgz:269294.got - 2010.06.03 18:47:42.
