data_PCOD9290407
_publ_section_title
;
Structure prediction by ZEFSAII (Michael W. Deem and Ramdas Pophale) SiO2 
 PCOD9290407
Probable space group: C 2/C
;
_chemical_formula_sum "Si O2"
_cell_formula_units_Z 40
_cell_length_a 23.069605
_cell_length_b 16.445387
_cell_length_c 8.337387
_cell_angle_alpha 90.000000
_cell_angle_beta 144.912035
_cell_angle_gamma 90.000000
_cell_volume 1818.260908
_symmetry_space_group_name_H-M "C 2/C"
_symmetry_group_IT_number 15
_symmetry_cell_setting 'monoclinic'
loop_
_space_group_symop_operation_xyz
x,y,z
-x,y,1/2-z
-x,-y,-z
x,-y,1/2+z
1/2+x,1/2+y,z
1/2-x,1/2+y,1/2-z
1/2-x,1/2-y,-z
1/2+x,1/2-y,1/2+z
loop_
_atom_site_type_symbol
_atom_site_label
_atom_site_fract_x
_atom_site_fract_y
_atom_site_fract_z
Si Si1 0.761328 0.453637 0.623483
Si Si2 0.391502 0.334084 0.054981
Si Si3 0.762157 0.365404 0.059129
Si Si4 0.935953 0.432709 0.255503
Si Si5 0.809894 0.309828 0.515948
O O1 0.668202 0.400756 0.476278
O O2 0.727766 0.540055 0.482790
O O3 0.818621 0.393281 0.631147
O O4 0.842884 0.472325 0.946213
O O5 0.315965 0.320611 0.733963
O O6 0.401879 0.247994 0.171341
O O7 0.500000 0.363663 0.250000
O O8 0.875478 0.371918 0.238344
O O9 0.758387 0.333507 0.231341
O O10 0.000000 0.396878 0.250000
O O11 0.000000 0.500000 0.500000
O O12 0.750000 0.250000 0.500000
#
# Coordination Sequence:
#
# PCOD9290407 Si02
#       5
#     8   8   8   8   8
#     4  10  22  41  65  96 133 170 224 290 336 395
#     4  10  23  42  63  91 132 182 228 271 338 408
#     4  11  22  41  69  95 136 172 224 294 334 394
#     4  11  22  35  59  98 140 163 210 274 350 409
#     4  10  22  43  66  92 133 183 221 271 341 405
#
# _framework density 21.999043
#
# number of rings (size 3 to 8) (size 9 to 14) (size 15 to 20)
#    0.000    1.600    2.000    3.000    0.000    2.400 
#    0.000    4.000    0.000    0.000    0.000    0.000 
#    0.000    0.000    0.000    0.000    0.000    0.200 
#
# Total GULP energy -111487.100276 kJ/mol
# GULP energy per Si atom -5574.355014 kJ/mol
# Density = 2.194897 g / cm^3
# Si number density = 21.999043 Si / 1000 Ang^3
#
#
#
# Elastic Constant Matrix: (Units=GPa)
#
#
# Indices 1 2 3 4 5 6 
#
# 1 155.0594 46.6445 53.7907 0.0000 -3.5337 0.0000
# 2 46.6445 107.9166 40.9011 0.0000 -11.2229 0.0000
# 3 53.7907 40.9011 84.0636 0.0000 6.6837 0.0000
# 4 0.0000 0.0000 0.0000 25.4930 0.0000 -10.3118
# 5 -3.5337 -11.2229 6.6837 0.0000 39.6699 0.0000
# 6 0.0000 0.0000 0.0000 -10.3118 0.0000 44.5671
#
#
#
# Elastic Compliance Matrix: (Units=1/GPa)
#
#
# Indices 1 2 3 4 5 6 
#
# 1 0.008670 -0.001844 -0.004734 0.000000 0.001048 0.000000
# 2 -0.001844 0.012490 -0.005235 0.000000 0.004251 0.000000
# 3 -0.004734 -0.005235 0.017862 0.000000 -0.004912 0.000000
# 4 0.000000 0.000000 0.000000 0.043277 0.000000 0.010013
# 5 0.001048 0.004251 -0.004912 0.000000 0.027332 0.000000
# 6 0.000000 0.000000 0.000000 0.010013 0.000000 0.024755
#
#
# Mechanical properties :
#
#
# Convention : Reuss Voigt Hill
#
# Bulk Modulus (GPa) = 64.95010 69.96802 67.45906
# Shear Modulus (GPa) = 30.64797 35.65955 33.15376
#
# Velocity S-wave (km/s) = 3.73654 4.03048 3.88629
# Velocity P-wave (km/s) = 6.94290 7.31668 7.13224
#
# Compressibility (1/GPa) = 0.01539644
#
# Stress axis : x y z
#
# Youngs Moduli (GPa) = 115.34064 80.06633 55.98388
#
# Poissons Ratio (x) = 0.14766 0.26501
# Poissons Ratio (y) = 0.21272 0.29306
# Poissons Ratio (z) = 0.54599 0.41912
#
# Static dielectric constant tensor:
#      x y z
#    x 1.871200 0.000000 -0.035440 
#    y 0.000000 1.832740 0.000000 
#    z -0.035440 0.000000 1.798130 
# 
# From -- ./inp_files/62873.got.cif
#   From: 2010.05.17/outbox.cif.g08.bks.cpg/sg15_32_cif.got.tgz:62873.got - 2010.06.03 18:47:42.
