data_PCOD9290896
_publ_section_title
;
Structure prediction by ZEFSAII (Michael W. Deem and Ramdas Pophale) SiO2 
 PCOD9290896
Probable space group: C 2/C
;
_chemical_formula_sum "Si O2"
_cell_formula_units_Z 44
_cell_length_a 24.818482
_cell_length_b 5.044672
_cell_length_c 14.920534
_cell_angle_alpha 90.000000
_cell_angle_beta 113.520064
_cell_angle_gamma 90.000000
_cell_volume 1712.868973
_symmetry_space_group_name_H-M "C 2/C"
_symmetry_group_IT_number 15
_symmetry_cell_setting 'monoclinic'
loop_
_space_group_symop_operation_xyz
x,y,z
-x,y,1/2-z
-x,-y,-z
x,-y,1/2+z
1/2+x,1/2+y,z
1/2-x,1/2+y,1/2-z
1/2-x,1/2-y,-z
1/2+x,1/2-y,1/2+z
loop_
_atom_site_type_symbol
_atom_site_label
_atom_site_fract_x
_atom_site_fract_y
_atom_site_fract_z
Si Si1 0.908531 0.664773 0.334057
Si Si2 0.062556 0.147866 0.037260
Si Si3 0.000000 0.506618 0.750000
Si Si4 0.207052 0.451304 0.523065
Si Si5 0.813792 0.171976 0.656541
Si Si6 0.100985 0.135474 0.400749
O O1 0.901819 0.948574 0.375944
O O2 0.845007 0.630284 0.245808
O O3 0.958209 0.658712 0.288910
O O4 0.930393 0.437197 0.416578
O O5 0.081797 0.115557 0.947401
O O6 0.000000 0.000000 0.000000
O O7 0.955366 0.694467 0.664775
O O8 0.250000 0.250000 0.500000
O O9 0.192831 0.679375 0.442729
O O10 0.248114 0.562577 0.630051
O O11 0.146274 0.298254 0.493953
O O12 0.861782 0.948099 0.661855
#
# Coordination Sequence:
#
# PCOD9290896 Si02
#       6
#     8   8   4   8   8   8
#     4  12  27  44  70 104 146 189 236 300 353 441
#     4  12  28  44  66 105 156 186 225 290 382 432
#     4  12  24  42  74 106 136 188 250 286 352 440
#     4   9  20  41  72 102 130 180 247 305 344 410
#     4  10  22  41  76  98 134 183 256 293 348 417
#     4  11  24  43  71 104 146 190 239 299 364 435
#
# _framework density 25.687895000000001
#
# number of rings (size 3 to 8) (size 9 to 14) (size 15 to 20)
#    0.000    1.091    3.636    1.636    7.636    0.727 
#    0.000    0.000   12.000    0.000    0.000    0.000 
#    0.000    0.000    0.000    0.000    0.000    0.000 
#
# Total GULP energy -123046.719908 kJ/mol
# GULP energy per Si atom -5593.032723 kJ/mol
# Density = 2.562943 g / cm^3
# Si number density = 25.687895 Si / 1000 Ang^3
#
#
#
# Elastic Constant Matrix: (Units=GPa)
#
#
# Indices 1 2 3 4 5 6 
#
# 1 88.4452 16.5390 55.7044 0.0000 27.2258 0.0000
# 2 16.5390 75.1594 15.3595 -0.0001 8.1638 0.0000
# 3 55.7044 15.3595 105.7708 0.0000 34.1133 0.0000
# 4 0.0000 -0.0001 0.0000 43.9835 0.0000 8.0841
# 5 27.2258 8.1638 34.1133 0.0000 55.9916 0.0000
# 6 0.0000 0.0000 0.0000 8.0841 0.0000 43.1983
#
#
#
# Elastic Compliance Matrix: (Units=1/GPa)
#
#
# Indices 1 2 3 4 5 6 
#
# 1 0.017741 -0.001901 -0.007933 0.000000 -0.003516 0.000000
# 2 -0.001901 0.013959 -0.000831 0.000000 -0.000605 0.000000
# 3 -0.007933 -0.000831 0.015519 0.000000 -0.005477 0.000000
# 4 0.000000 0.000000 0.000000 0.023546 0.000000 -0.004406
# 5 -0.003516 -0.000605 -0.005477 0.000000 0.022994 0.000000
# 6 0.000000 0.000000 0.000000 -0.004406 0.000000 0.023974
#
#
# Mechanical properties :
#
#
# Convention : Reuss Voigt Hill
#
# Bulk Modulus (GPa) = 38.62626 49.39792 44.01209
# Shear Modulus (GPa) = 33.85425 40.75283 37.30354
#
# Velocity S-wave (km/s) = 3.63424 3.98736 3.81489
# Velocity P-wave (km/s) = 5.71661 6.36164 6.04773
#
# Compressibility (1/GPa) = 0.02588912
#
# Stress axis : x y z
#
# Youngs Moduli (GPa) = 56.36785 71.63932 64.43539
#
# Poissons Ratio (x) = 0.13617 0.51118
# Poissons Ratio (y) = 0.10714 0.05354
# Poissons Ratio (z) = 0.44718 0.05953
#
# Static dielectric constant tensor:
#      x y z
#    x 2.080720 0.000000 0.074510 
#    y 0.000000 2.103220 0.000000 
#    z 0.074510 0.000000 2.156990 
# 
# From -- ./inp_files/175780.got.cif
#   From: 2010.05.17/outbox.cif.g08.bks.cpg/sg15_88_cif.got.tgz:175780.got - 2010.06.03 18:47:42.
