data_PCOD9290210
_publ_section_title
;
Structure prediction by ZEFSAII (Michael W. Deem and Ramdas Pophale) SiO2 
 PCOD9290210
Probable space group: C 2/C
;
_chemical_formula_sum "Si O2"
_cell_formula_units_Z 36
_cell_length_a 16.655655
_cell_length_b 19.681896
_cell_length_c 8.149218
_cell_angle_alpha 90.000000
_cell_angle_beta 36.675653
_cell_angle_gamma 90.000000
_cell_volume 1595.606327
_symmetry_space_group_name_H-M "C 2/C"
_symmetry_group_IT_number 15
_symmetry_cell_setting 'monoclinic'
loop_
_space_group_symop_operation_xyz
x,y,z
-x,y,1/2-z
-x,-y,-z
x,-y,1/2+z
1/2+x,1/2+y,z
1/2-x,1/2+y,1/2-z
1/2-x,1/2-y,-z
1/2+x,1/2-y,1/2+z
loop_
_atom_site_type_symbol
_atom_site_label
_atom_site_fract_x
_atom_site_fract_y
_atom_site_fract_z
Si Si1 0.771485 0.912856 0.994984
Si Si2 0.000000 0.153288 0.750000
Si Si3 0.491187 0.151349 0.069023
Si Si4 0.395634 0.719146 0.228382
Si Si5 0.732298 0.434033 0.890568
O O1 0.628213 0.885921 0.293037
O O2 0.789235 0.986822 0.041670
O O3 0.881260 0.853227 0.844159
O O4 0.765273 0.923584 0.809159
O O5 0.089457 0.197841 0.484930
O O6 0.104322 0.105776 0.674352
O O7 0.500000 0.165114 0.250000
O O8 0.366266 0.101554 0.240048
O O9 0.492363 0.220614 0.954049
O O10 0.250000 0.750000 0.500000
#
# Coordination Sequence:
#
# PCOD9290210 Si02
#       5
#     8   4   8   8   8
#     4  10  22  41  63  96 132 169 214 275 324 392
#     4  10  22  42  64  90 128 172 216 268 322 390
#     4  11  21  39  68  96 127 170 217 270 329 391
#     4   9  20  39  62  89 132 165 210 267 325 387
#     4  11  23  39  68  92 131 171 220 266 327 388
#
# _framework density 22.561955999999999
#
# number of rings (size 3 to 8) (size 9 to 14) (size 15 to 20)
#    0.000    1.778    1.111    2.667    0.000    4.444 
#    0.000    0.000   39.111    0.000    0.000    0.000 
#    0.000    0.000    0.000    0.000    0.000    0.000 
#
# Total GULP energy -100326.867381 kJ/mol
# GULP energy per Si atom -5573.714854 kJ/mol
# Density = 2.251060 g / cm^3
# Si number density = 22.561956 Si / 1000 Ang^3
#
#
#
# Elastic Constant Matrix: (Units=GPa)
#
#
# Indices 1 2 3 4 5 6 
#
# 1 65.2461 34.1348 41.1592 0.0000 0.1226 0.0007
# 2 34.1348 174.0097 58.0691 0.0000 7.7859 0.0006
# 3 41.1592 58.0691 127.0567 0.0000 17.3760 0.0018
# 4 0.0000 0.0000 0.0000 41.0909 0.0000 4.7636
# 5 0.1226 7.7859 17.3760 0.0000 14.5217 -0.0008
# 6 0.0007 0.0006 0.0018 4.7636 -0.0008 -104.3971
#
#
#
# Elastic Compliance Matrix: (Units=1/GPa)
#
#
# Indices 1 2 3 4 5 6 
#
# 1 0.020904 -0.002162 -0.007076 0.000000 0.009449 0.000000
# 2 -0.002162 0.007005 -0.002379 0.000000 -0.000891 0.000000
# 3 -0.007076 -0.002379 0.013233 0.000000 -0.014498 0.000000
# 4 0.000000 0.000000 0.000000 0.024208 0.000000 0.001105
# 5 0.009449 -0.000891 -0.014498 0.000000 0.086608 -0.000001
# 6 0.000000 0.000000 0.000000 0.001105 -0.000001 -0.009528
#
#
# Mechanical properties :
#
#
# Convention : Reuss Voigt Hill
#
# Bulk Modulus (GPa) = 55.84386 70.33763 63.09074
# Shear Modulus (GPa) = 29.13216 5.77308 17.45262
#
# Velocity S-wave (km/s) = 3.59724 1.60135 2.78428
# Velocity P-wave (km/s) = 6.48526 5.88745 6.19357
#
# Compressibility (1/GPa) = 0.01790707
#
# Stress axis : x y z
#
# Youngs Moduli (GPa) = 47.83885 142.76007 75.57025
#
# Poissons Ratio (x) = 0.30867 0.53471
# Poissons Ratio (y) = 0.10343 0.17980
# Poissons Ratio (z) = 0.33849 0.33966
#
# Static dielectric constant tensor:
#      x y z
#    x 1.866100 0.000000 0.018140 
#    y 0.000000 1.926890 0.000000 
#    z 0.018140 0.000000 1.805420 
# 
# From -- ./inp_files/28721.got.cif
#   From: 2010.05.17/outbox.cif.g08.bks.cpg/sg15_15_cif.got.tgz:28721.got - 2010.06.03 18:47:42.
