data_PCOD9290771
_publ_section_title
;
Structure prediction by ZEFSAII (Michael W. Deem and Ramdas Pophale) SiO2 
 PCOD9290771
Probable space group: C 2/C
;
_chemical_formula_sum "Si O2"
_cell_formula_units_Z 32
_cell_length_a 14.803906
_cell_length_b 11.305093
_cell_length_c 10.112628
_cell_angle_alpha 90.000000
_cell_angle_beta 52.108821
_cell_angle_gamma 90.000000
_cell_volume 1335.641229
_symmetry_space_group_name_H-M "C 2/C"
_symmetry_group_IT_number 15
_symmetry_cell_setting 'monoclinic'
loop_
_space_group_symop_operation_xyz
x,y,z
-x,y,1/2-z
-x,-y,-z
x,-y,1/2+z
1/2+x,1/2+y,z
1/2-x,1/2+y,1/2-z
1/2-x,1/2-y,-z
1/2+x,1/2-y,1/2+z
loop_
_atom_site_type_symbol
_atom_site_label
_atom_site_fract_x
_atom_site_fract_y
_atom_site_fract_z
Si Si1 0.408313 0.717314 0.001037
Si Si2 0.500000 0.494997 0.250000
Si Si3 0.717414 0.651044 0.137904
Si Si4 0.000000 0.396230 0.750000
Si Si5 0.465671 0.886297 0.421641
O O1 0.452660 0.592999 0.906557
O O2 0.399117 0.808676 0.886940
O O3 0.306311 0.705429 0.196131
O O4 0.504108 0.786488 0.000964
O O5 0.607189 0.573758 0.199785
O O6 0.750000 0.750000 0.000000
O O7 0.833787 0.577060 0.040195
O O8 0.031601 0.488562 0.839450
O O9 0.500000 0.826800 0.250000
#
# Coordination Sequence:
#
# PCOD9290771 Si02
#       5
#     8   4   8   4   8
#     4  11  23  45  67 101 147 180 232 288 351 416
#     4  11  28  45  68 108 140 183 228 295 356 414
#     4  12  23  43  69  96 135 182 233 288 349 414
#     4   9  22  41  68 100 142 185 232 283 344 418
#     4  10  22  41  69  99 139 180 236 274 346 408
#
# _framework density 23.95853
#
# number of rings (size 3 to 8) (size 9 to 14) (size 15 to 20)
#    0.750    0.500    2.500    3.000    0.000    6.000 
#    0.000    5.000    0.000    0.000    0.000    0.000 
#    0.000    0.000    0.000    0.000    0.000    0.000 
#
# Total GULP energy -89237.947071 kJ/mol
# GULP energy per Si atom -5577.371692 kJ/mol
# Density = 2.390400 g / cm^3
# Si number density = 23.958530 Si / 1000 Ang^3
#
#
#
# Elastic Constant Matrix: (Units=GPa)
#
#
# Indices 1 2 3 4 5 6 
#
# 1 72.8861 31.3871 28.9379 0.0000 -15.4716 0.0000
# 2 31.3871 134.1405 62.4643 0.0000 6.8557 0.0000
# 3 28.9379 62.4643 187.0584 0.0000 -0.0803 0.0000
# 4 0.0000 0.0000 0.0000 14.5242 0.0000 13.3108
# 5 -15.4716 6.8557 -0.0803 0.0000 34.3889 0.0000
# 6 0.0000 0.0000 0.0000 13.3108 0.0000 26.8160
#
#
#
# Elastic Compliance Matrix: (Units=1/GPa)
#
#
# Indices 1 2 3 4 5 6 
#
# 1 0.017871 -0.003963 -0.001437 0.000000 0.008827 0.000000
# 2 -0.003963 0.009815 -0.002666 0.000000 -0.003746 0.000000
# 3 -0.001437 -0.002666 0.006459 0.000000 -0.000100 0.000000
# 4 0.000000 0.000000 0.000000 0.126309 0.000000 -0.062696
# 5 0.008827 -0.003746 -0.000100 0.000000 0.033797 0.000000
# 6 0.000000 0.000000 0.000000 -0.062696 0.000000 0.068412
#
#
# Mechanical properties :
#
#
# Convention : Reuss Voigt Hill
#
# Bulk Modulus (GPa) = 55.52093 71.07375 63.29734
# Shear Modulus (GPa) = 17.55616 33.23222 25.39419
#
# Velocity S-wave (km/s) = 2.70991 3.72838 3.25918
# Velocity P-wave (km/s) = 5.74592 6.94724 6.37494
#
# Compressibility (1/GPa) = 0.01801122
#
# Stress axis : x y z
#
# Youngs Moduli (GPa) = 55.95583 101.88278 154.83433
#
# Poissons Ratio (x) = 0.40381 0.22256
# Poissons Ratio (y) = 0.22178 0.41280
# Poissons Ratio (z) = 0.08043 0.27162
#
# Static dielectric constant tensor:
#      x y z
#    x 2.076300 0.000000 0.196180 
#    y 0.000000 1.966920 0.000000 
#    z 0.196180 0.000000 2.103940 
# 
# From -- ./inp_files/110429.got.cif
#   From: 2010.05.17/outbox.cif.g08.bks.cpg/sg15_56_cif.got.tgz:110429.got - 2010.06.03 18:47:42.
