data_PCOD9290634
_publ_section_title
;
Structure prediction by ZEFSAII (Michael W. Deem and Ramdas Pophale) SiO2 
 PCOD9290634
Probable space group: C 2/C
;
_chemical_formula_sum "Si O2"
_cell_formula_units_Z 52
_cell_length_a 12.134503
_cell_length_b 7.536792
_cell_length_c 25.795079
_cell_angle_alpha 90.000000
_cell_angle_beta 61.865181
_cell_angle_gamma 90.000000
_cell_volume 2080.345221
_symmetry_space_group_name_H-M "C 2/C"
_symmetry_group_IT_number 15
_symmetry_cell_setting 'monoclinic'
loop_
_space_group_symop_operation_xyz
x,y,z
-x,y,1/2-z
-x,-y,-z
x,-y,1/2+z
1/2+x,1/2+y,z
1/2-x,1/2+y,1/2-z
1/2-x,1/2-y,-z
1/2+x,1/2-y,1/2+z
loop_
_atom_site_type_symbol
_atom_site_label
_atom_site_fract_x
_atom_site_fract_y
_atom_site_fract_z
Si Si1 0.750000 0.250000 0.000000
Si Si2 0.529179 0.079898 0.686399
Si Si3 0.328171 0.238078 0.309350
Si Si4 0.802189 0.787786 0.115461
Si Si5 0.861177 0.630803 0.997319
Si Si6 0.613533 0.336404 0.931212
Si Si7 0.722345 0.041987 0.283950
O O1 0.655266 0.355219 0.981320
O O2 0.660983 0.070248 0.014407
O O3 0.500000 0.156593 0.750000
O O4 0.559076 0.869638 0.689279
O O5 0.400319 0.084646 0.684593
O O6 0.656683 0.159571 0.636431
O O7 0.230471 0.259457 0.377489
O O8 0.277358 0.105919 0.275411
O O9 0.338085 0.426142 0.278724
O O10 0.849133 0.650384 0.062284
O O11 0.799903 0.704217 0.172740
O O12 0.884133 0.965867 0.093182
O O13 0.750000 0.750000 0.000000
O O14 0.989304 0.724353 0.952516
#
# Coordination Sequence:
#
# PCOD9290634 Si02
#       7
#     4   8   8   8   8   8   8
#     4  12  26  48  76  98 144 192 240 304 362 426
#     4   9  21  42  66  97 138 180 230 290 357 424
#     4  10  22  41  68 103 132 184 237 281 362 434
#     4  11  24  46  70 107 136 185 247 292 363 443
#     4  12  27  48  69 104 145 186 246 298 360 432
#     4  11  25  46  71 103 142 186 241 300 361 428
#     4  11  22  44  71  98 147 182 226 302 359 419
#
# _framework density 24.995849
#
# number of rings (size 3 to 8) (size 9 to 14) (size 15 to 20)
#    0.000    1.231    1.538    4.615    2.154    2.462 
#    2.769    6.923    0.000    0.000    0.000    0.000 
#    0.000    0.000    0.000    0.000    0.000    0.000 
#
# Total GULP energy -144980.299889 kJ/mol
# GULP energy per Si atom -5576.165380 kJ/mol
# Density = 2.493896 g / cm^3
# Si number density = 24.995849 Si / 1000 Ang^3
#
#
#
# Elastic Constant Matrix: (Units=GPa)
#
#
# Indices 1 2 3 4 5 6 
#
# 1 88.5383 13.3153 10.2359 0.0000 -21.2307 0.0000
# 2 13.3153 61.0443 -8.8469 0.0000 0.6180 0.0000
# 3 10.2359 -8.8469 58.6298 0.0000 -29.7686 0.0000
# 4 0.0000 0.0000 0.0000 26.7999 0.0000 -3.8746
# 5 -21.2307 0.6180 -29.7686 0.0000 34.2970 0.0000
# 6 0.0000 0.0000 0.0000 -3.8746 0.0000 43.0612
#
#
#
# Elastic Compliance Matrix: (Units=1/GPa)
#
#
# Indices 1 2 3 4 5 6 
#
# 1 0.014073 -0.002776 0.002812 0.000000 0.011202 0.000000
# 2 -0.002776 0.017518 0.003746 0.000000 0.001218 0.000000
# 3 0.002812 0.003746 0.032148 0.000000 0.029576 0.000000
# 4 0.000000 0.000000 0.000000 0.037805 0.000000 0.003402
# 5 0.011202 0.001218 0.029576 0.000000 0.061741 0.000000
# 6 0.000000 0.000000 0.000000 0.003402 0.000000 0.023529
#
#
# Mechanical properties :
#
#
# Convention : Reuss Voigt Hill
#
# Bulk Modulus (GPa) = 14.02452 26.40234 20.21343
# Shear Modulus (GPa) = 24.62866 33.73216 29.18041
#
# Velocity S-wave (km/s) = 3.14237 3.67755 3.42045
# Velocity P-wave (km/s) = 4.33462 5.34959 4.86863
#
# Compressibility (1/GPa) = 0.07130368
#
# Stress axis : x y z
#
# Youngs Moduli (GPa) = 71.05757 57.08559 31.10661
#
# Poissons Ratio (x) = 0.15844 -0.08748
# Poissons Ratio (y) = 0.19722 -0.11653
# Poissons Ratio (z) = -0.19982 -0.21385
#
# Static dielectric constant tensor:
#      x y z
#    x 1.898570 0.000000 -0.033990 
#    y 0.000000 1.908130 0.000000 
#    z -0.033990 0.000000 1.970790 
# 
# From -- ./inp_files/309883.got.cif
#   From: 2010.05.17/outbox.cif.g08.bks.cpg/sg15_155_cif.got.tgz:309883.got - 2010.06.03 18:47:42.
