data_PCOD9290085
_publ_section_title
;
Structure prediction by ZEFSAII (Michael W. Deem and Ramdas Pophale) SiO2 
 PCOD9290085
Probable space group: C 2/C
;
_chemical_formula_sum "Si O2"
_cell_formula_units_Z 56
_cell_length_a 5.218467
_cell_length_b 27.447781
_cell_length_c 17.692966
_cell_angle_alpha 90.000000
_cell_angle_beta 99.452351
_cell_angle_gamma 90.000000
_cell_volume 2499.849151
_symmetry_space_group_name_H-M "C 2/C"
_symmetry_group_IT_number 15
_symmetry_cell_setting 'monoclinic'
loop_
_space_group_symop_operation_xyz
x,y,z
-x,y,1/2-z
-x,-y,-z
x,-y,1/2+z
1/2+x,1/2+y,z
1/2-x,1/2+y,1/2-z
1/2-x,1/2-y,-z
1/2+x,1/2-y,1/2+z
loop_
_atom_site_type_symbol
_atom_site_label
_atom_site_fract_x
_atom_site_fract_y
_atom_site_fract_z
Si Si1 0.231187 0.202020 0.603110
Si Si2 0.035630 0.711388 0.461852
Si Si3 0.353990 0.440666 0.573306
Si Si4 0.297533 0.039935 0.899843
Si Si5 0.411725 0.960683 0.659973
Si Si6 0.355391 0.371885 0.019719
Si Si7 0.000000 0.650379 0.750000
Si Si8 0.000000 0.082203 0.750000
O O1 0.355942 0.200308 0.525537
O O2 0.431299 0.184077 0.675151
O O3 0.128175 0.257548 0.606598
O O4 0.992962 0.163815 0.586651
O O5 0.250000 0.750000 0.500000
O O6 0.196173 0.662459 0.454784
O O7 0.287612 0.496617 0.547817
O O8 0.113118 0.430244 0.617167
O O9 0.424422 0.403644 0.510892
O O10 0.620473 0.444097 0.633292
O O11 0.327283 0.089597 0.946283
O O12 0.078493 0.049593 0.825797
O O13 0.537295 0.016086 0.867111
O O14 0.500000 0.957989 0.750000
O O15 0.751221 0.616000 0.750087
#
# Coordination Sequence:
#
# PCOD9290085 Si02
#       8
#     8   8   8   8   8   8   4   4
#     4  10  22  42  67  99 131 170 211 280 344 415
#     4   9  21  40  67  93 127 172 216 270 342 403
#     4  10  24  37  62  92 131 184 223 274 325 382
#     4  10  23  36  60  93 141 176 222 272 325 397
#     4  10  22  41  61  88 129 184 230 275 325 377
#     4  11  21  41  61  99 133 172 230 274 332 407
#     4  12  26  40  68 104 133 165 214 270 348 412
#     4  12  24  38  60 100 137 177 210 268 340 398
#
# _framework density 22.401353
#
# number of rings (size 3 to 8) (size 9 to 14) (size 15 to 20)
#    0.857    0.857    1.429    2.571    7.000    1.714 
#    0.000    0.000    0.000    5.143    0.000    0.000 
#    0.000    0.000    0.000    0.000    0.000    0.000 
#
# Total GULP energy -156410.235149 kJ/mol
# GULP energy per Si atom -5586.079827 kJ/mol
# Density = 2.235037 g / cm^3
# Si number density = 22.401353 Si / 1000 Ang^3
#
#
#
# Elastic Constant Matrix: (Units=GPa)
#
#
# Indices 1 2 3 4 5 6 
#
# 1 100.9695 27.1472 17.3278 0.0000 14.7990 0.0000
# 2 27.1472 122.0269 40.1004 0.0000 9.2469 0.0000
# 3 17.3278 40.1004 83.7142 0.0000 15.9420 0.0000
# 4 0.0000 0.0000 0.0000 28.4148 0.0000 7.3481
# 5 14.7990 9.2469 15.9420 0.0000 26.0027 0.0000
# 6 0.0000 0.0000 0.0000 7.3481 0.0000 22.6941
#
#
#
# Elastic Compliance Matrix: (Units=1/GPa)
#
#
# Indices 1 2 3 4 5 6 
#
# 1 0.011305 -0.001986 -0.000337 0.000000 -0.005521 0.000000
# 2 -0.001986 0.010085 -0.004475 0.000000 0.000287 0.000000
# 3 -0.000337 -0.004475 0.015646 0.000000 -0.007809 0.000000
# 4 0.000000 0.000000 0.000000 0.038409 0.000000 -0.012436
# 5 -0.005521 0.000287 -0.007809 0.000000 0.046285 0.000000
# 6 0.000000 0.000000 0.000000 -0.012436 0.000000 0.048091
#
#
# Mechanical properties :
#
#
# Convention : Reuss Voigt Hill
#
# Bulk Modulus (GPa) = 42.66126 52.87349 47.76738
# Shear Modulus (GPa) = 26.14643 30.23134 28.18889
#
# Velocity S-wave (km/s) = 3.42011 3.67758 3.55118
# Velocity P-wave (km/s) = 5.88911 6.45654 6.17934
#
# Compressibility (1/GPa) = 0.02344047
#
# Stress axis : x y z
#
# Youngs Moduli (GPa) = 88.45645 99.15307 63.91486
#
# Poissons Ratio (x) = 0.19690 0.02156
# Poissons Ratio (y) = 0.17565 0.28600
# Poissons Ratio (z) = 0.02984 0.44368
#
# Static dielectric constant tensor:
#      x y z
#    x 1.917860 0.000000 -0.013980 
#    y 0.000000 1.880870 0.000000 
#    z -0.013980 0.000000 1.842460 
# 
# From -- ./inp_files/227953.got.cif
#   From: 2010.05.17/outbox.cif.g08.bks.cpg/sg15_114_cif.got.tgz:227953.got - 2010.06.03 18:47:42.
