data_PCOD9290876
_publ_section_title
;
Structure prediction by ZEFSAII (Michael W. Deem and Ramdas Pophale) SiO2 
 PCOD9290876
Probable space group: C 2/C
;
_chemical_formula_sum "Si O2"
_cell_formula_units_Z 40
_cell_length_a 17.836467
_cell_length_b 6.874570
_cell_length_c 13.301741
_cell_angle_alpha 90.000000
_cell_angle_beta 93.473286
_cell_angle_gamma 90.000000
_cell_volume 1628.037465
_symmetry_space_group_name_H-M "C 2/C"
_symmetry_group_IT_number 15
_symmetry_cell_setting 'monoclinic'
loop_
_space_group_symop_operation_xyz
x,y,z
-x,y,1/2-z
-x,-y,-z
x,-y,1/2+z
1/2+x,1/2+y,z
1/2-x,1/2+y,1/2-z
1/2-x,1/2-y,-z
1/2+x,1/2-y,1/2+z
loop_
_atom_site_type_symbol
_atom_site_label
_atom_site_fract_x
_atom_site_fract_y
_atom_site_fract_z
Si Si1 0.426469 0.026557 0.310502
Si Si2 0.759117 0.009856 0.914920
Si Si3 0.701116 0.302224 0.282925
Si Si4 0.579312 0.631460 0.284174
Si Si5 0.119956 0.719893 0.996616
O O1 0.500000 0.061837 0.250000
O O2 0.357376 0.136285 0.253064
O O3 0.428927 0.120666 0.420805
O O4 0.411335 0.796659 0.299820
O O5 0.753209 0.141014 0.812653
O O6 0.839386 0.079565 0.964172
O O7 0.690894 0.079094 0.979236
O O8 0.752078 0.711338 0.122084
O O9 0.648923 0.487404 0.298788
O O10 0.500000 0.531778 0.250000
O O11 0.575501 0.740257 0.391016
#
# Coordination Sequence:
#
# PCOD9290876 Si02
#       5
#     8   8   8   8   8
#     4  10  23  44  70  96 144 185 228 293 346 416
#     4  10  22  41  73 101 145 176 233 290 345 431
#     4  11  22  44  68 104 139 187 223 289 362 406
#     4  11  24  44  69 100 145 190 234 290 344 421
#     4  10  22  46  69 112 134 182 244 281 358 420
#
# _framework density 24.569458999999998
#
# number of rings (size 3 to 8) (size 9 to 14) (size 15 to 20)
#    0.000    1.600    2.000    1.800    0.000    4.000 
#    7.200    5.000    0.000    0.000    0.000    0.000 
#    0.000    0.000    0.000    0.000    0.000    0.000 
#
# Total GULP energy -111953.585564 kJ/mol
# GULP energy per Si atom -5597.679278 kJ/mol
# Density = 2.451354 g / cm^3
# Si number density = 24.569459 Si / 1000 Ang^3
#
#
#
# Elastic Constant Matrix: (Units=GPa)
#
#
# Indices 1 2 3 4 5 6 
#
# 1 94.6190 40.8317 35.0823 0.0000 -17.0092 0.0000
# 2 40.8317 118.1911 25.4822 0.0000 1.5244 0.0000
# 3 35.0823 25.4822 97.6813 0.0000 0.6269 0.0000
# 4 0.0000 0.0000 0.0000 38.1617 0.0000 15.2891
# 5 -17.0092 1.5244 0.6269 0.0000 47.7288 0.0000
# 6 0.0000 0.0000 0.0000 15.2891 0.0000 45.1193
#
#
#
# Elastic Compliance Matrix: (Units=1/GPa)
#
#
# Indices 1 2 3 4 5 6 
#
# 1 0.015035 -0.004338 -0.004304 0.000000 0.005553 0.000000
# 2 -0.004338 0.010220 -0.001096 0.000000 -0.001858 0.000000
# 3 -0.004304 -0.001096 0.012080 0.000000 -0.001657 0.000000
# 4 0.000000 0.000000 0.000000 0.030321 0.000000 -0.010274
# 5 0.005553 -0.001858 -0.001657 0.000000 0.023012 0.000000
# 6 0.000000 0.000000 0.000000 -0.010274 0.000000 0.025645
#
#
# Mechanical properties :
#
#
# Convention : Reuss Voigt Hill
#
# Bulk Modulus (GPa) = 55.99534 57.03151 56.51343
# Shear Modulus (GPa) = 35.27597 40.14166 37.70882
#
# Velocity S-wave (km/s) = 3.79326 4.04642 3.92188
# Velocity P-wave (km/s) = 6.48268 6.71521 6.59997
#
# Compressibility (1/GPa) = 0.01785863
#
# Stress axis : x y z
#
# Youngs Moduli (GPa) = 66.51347 97.84973 82.78380
#
# Poissons Ratio (x) = 0.42445 0.35628
# Poissons Ratio (y) = 0.28852 0.09075
# Poissons Ratio (z) = 0.28625 0.10726
#
# Static dielectric constant tensor:
#      x y z
#    x 1.905270 0.000000 -0.042710 
#    y 0.000000 2.011070 0.000000 
#    z -0.042710 0.000000 1.940370 
# 
# From -- ./inp_files/102844.got.cif
#   From: 2010.05.17/outbox.cif.g08.bks.cpg/sg15_52_cif.got.tgz:102844.got - 2010.06.03 18:47:42.
