data_PCOD9290038
_publ_section_title
;
Structure prediction by ZEFSAII (Michael W. Deem and Ramdas Pophale) SiO2 
 PCOD9290038
Probable space group: C 2/C
;
_chemical_formula_sum "Si O2"
_cell_formula_units_Z 40
_cell_length_a 9.992420
_cell_length_b 16.983263
_cell_length_c 13.422476
_cell_angle_alpha 90.000000
_cell_angle_beta 44.461939
_cell_angle_gamma 90.000000
_cell_volume 1595.484095
_symmetry_space_group_name_H-M "C 2/C"
_symmetry_group_IT_number 15
_symmetry_cell_setting 'monoclinic'
loop_
_space_group_symop_operation_xyz
x,y,z
-x,y,1/2-z
-x,-y,-z
x,-y,1/2+z
1/2+x,1/2+y,z
1/2-x,1/2+y,1/2-z
1/2-x,1/2-y,-z
1/2+x,1/2-y,1/2+z
loop_
_atom_site_type_symbol
_atom_site_label
_atom_site_fract_x
_atom_site_fract_y
_atom_site_fract_z
Si Si1 0.260356 0.215949 0.843216
Si Si2 0.364918 0.091594 0.531863
Si Si3 0.000000 0.388035 0.750000
Si Si4 0.224324 0.621185 0.479165
Si Si5 0.164375 0.764209 0.911558
Si Si6 0.500000 0.495221 0.750000
O O1 0.277702 0.298507 0.892436
O O2 0.364720 0.229262 0.684317
O O3 0.316309 0.146429 0.887126
O O4 0.035239 0.203559 0.942507
O O5 0.432613 0.066010 0.384796
O O6 0.547901 0.088095 0.507452
O O7 0.298927 0.182917 0.549437
O O8 0.182653 0.048941 0.676325
O O9 0.825552 0.329601 0.814926
O O10 0.406556 0.563315 0.380251
#
# Coordination Sequence:
#
# PCOD9290038 Si02
#       6
#     8   8   4   8   8   4
#     4  10  22  40  77 101 129 176 232 300 358 383
#     4  11  26  42  68 101 143 192 231 277 350 417
#     4  12  23  44  64 101 150 182 230 290 338 415
#     4  10  22  45  68 103 137 172 234 296 340 408
#     4  11  21  41  69 104 139 174 233 297 348 400
#     4  12  25  46  72  97 148 190 234 274 346 429
#
# _framework density 25.07076
#
# number of rings (size 3 to 8) (size 9 to 14) (size 15 to 20)
#    0.000    1.200    4.000    3.000    2.800    6.400 
#    0.000    8.000    0.000    0.000    0.000    0.000 
#    0.000    0.000    0.000    0.000    0.000    0.000 
#
# Total GULP energy -111874.744605 kJ/mol
# GULP energy per Si atom -5593.737230 kJ/mol
# Density = 2.501370 g / cm^3
# Si number density = 25.070760 Si / 1000 Ang^3
#
#
#
# Elastic Constant Matrix: (Units=GPa)
#
#
# Indices 1 2 3 4 5 6 
#
# 1 106.9071 29.3360 53.4136 0.0000 -15.4873 0.0000
# 2 29.3360 66.5842 37.9314 -0.0001 -11.9943 0.0000
# 3 53.4136 37.9314 133.4283 -0.0007 -13.9807 0.0002
# 4 0.0000 -0.0001 -0.0007 40.4352 0.0000 -5.9508
# 5 -15.4873 -11.9943 -13.9807 0.0000 56.9475 0.0000
# 6 0.0000 0.0000 0.0002 -5.9508 0.0000 24.3552
#
#
#
# Elastic Compliance Matrix: (Units=1/GPa)
#
#
# Indices 1 2 3 4 5 6 
#
# 1 0.012376 -0.002881 -0.003948 0.000000 0.001790 0.000000
# 2 -0.002881 0.018972 -0.004006 0.000000 0.002229 0.000000
# 3 -0.003948 -0.004006 0.010277 0.000000 0.000606 0.000000
# 4 0.000000 0.000000 0.000000 0.025653 0.000000 0.006268
# 5 0.001790 0.002229 0.000606 0.000000 0.018665 0.000000
# 6 0.000000 0.000000 0.000000 0.006268 0.000000 0.042591
#
#
# Mechanical properties :
#
#
# Convention : Reuss Voigt Hill
#
# Bulk Modulus (GPa) = 50.11419 60.92020 55.51719
# Shear Modulus (GPa) = 31.87614 36.76346 34.31980
#
# Velocity S-wave (km/s) = 3.56960 3.83350 3.70390
# Velocity P-wave (km/s) = 6.08456 6.62920 6.36271
#
# Compressibility (1/GPa) = 0.01995443
#
# Stress axis : x y z
#
# Youngs Moduli (GPa) = 80.79965 52.70946 97.30060
#
# Poissons Ratio (x) = 0.15188 0.38412
# Poissons Ratio (y) = 0.23282 0.38982
# Poissons Ratio (z) = 0.31898 0.21117
#
# Static dielectric constant tensor:
#      x y z
#    x 2.069620 0.000000 0.020260 
#    y 0.000000 2.058550 0.000000 
#    z 0.020260 0.000000 1.947420 
# 
# From -- ./inp_files/145406.got.cif
#   From: 2010.05.17/outbox.cif.g08.bks.cpg/sg15_73_cif.got.tgz:145406.got - 2010.06.03 18:47:42.
