data_PCOD9290722
_publ_section_title
;
Structure prediction by ZEFSAII (Michael W. Deem and Ramdas Pophale) SiO2 
 PCOD9290722
Probable space group: C 2/C
;
_chemical_formula_sum "Si O2"
_cell_formula_units_Z 36
_cell_length_a 9.289785
_cell_length_b 13.870495
_cell_length_c 9.749546
_cell_angle_alpha 90.000000
_cell_angle_beta 95.608077
_cell_angle_gamma 90.000000
_cell_volume 1250.254230
_symmetry_space_group_name_H-M "C 2/C"
_symmetry_group_IT_number 15
_symmetry_cell_setting 'monoclinic'
loop_
_space_group_symop_operation_xyz
x,y,z
-x,y,1/2-z
-x,-y,-z
x,-y,1/2+z
1/2+x,1/2+y,z
1/2-x,1/2+y,1/2-z
1/2-x,1/2-y,-z
1/2+x,1/2-y,1/2+z
loop_
_atom_site_type_symbol
_atom_site_label
_atom_site_fract_x
_atom_site_fract_y
_atom_site_fract_z
Si Si1 0.973555 0.885506 0.013783
Si Si2 0.843935 0.679468 0.408673
Si Si3 0.235194 0.589205 0.854884
Si Si4 0.500000 0.755165 0.250000
Si Si5 0.174460 0.627409 0.389394
O O1 0.999476 0.819751 0.879524
O O2 0.802342 0.866529 0.013349
O O3 0.098984 0.871083 0.139162
O O4 0.000000 0.000000 0.000000
O O5 0.792184 0.583965 0.482131
O O6 0.626092 0.835881 0.277535
O O7 0.801271 0.686286 0.247825
O O8 0.018821 0.664260 0.427784
O O9 0.191582 0.479355 0.821832
O O10 0.250000 0.750000 0.000000
#
# Coordination Sequence:
#
# PCOD9290722 Si02
#       5
#     8   8   8   4   8
#     4  10  22  41  69 107 153 201 249 315 392 468
#     4  11  22  42  74 112 153 203 258 315 388 474
#     4  11  23  42  73 111 150 200 259 327 399 471
#     4  12  22  42  76 110 148 194 252 318 386 476
#     4  10  23  43  72 113 156 205 261 322 396 476
#
# _framework density 28.794142000000001
#
# number of rings (size 3 to 8) (size 9 to 14) (size 15 to 20)
#    0.000    1.333    0.000    6.667    0.000    0.000 
#    0.000    6.667    0.000   74.667    0.000    0.000 
#    0.000    0.000    0.000   32.000    0.000    0.000 
#
# Total GULP energy -100236.828169 kJ/mol
# GULP energy per Si atom -5568.712676 kJ/mol
# Density = 2.872861 g / cm^3
# Si number density = 28.794142 Si / 1000 Ang^3
#
#
#
# Elastic Constant Matrix: (Units=GPa)
#
#
# Indices 1 2 3 4 5 6 
#
# 1 279.2566 107.0283 95.4915 0.0000 40.8687 0.0000
# 2 107.0283 211.3395 85.8501 0.0000 19.7073 0.0000
# 3 95.4915 85.8501 105.3073 0.0000 10.5785 0.0000
# 4 0.0000 0.0000 0.0000 48.9877 0.0000 9.3922
# 5 40.8687 19.7073 10.5785 0.0000 82.6460 0.0000
# 6 0.0000 0.0000 0.0000 9.3922 0.0000 53.5433
#
#
#
# Elastic Compliance Matrix: (Units=1/GPa)
#
#
# Indices 1 2 3 4 5 6 
#
# 1 0.005674 -0.001012 -0.004116 0.000000 -0.002038 0.000000
# 2 -0.001012 0.007331 -0.004998 0.000000 -0.000608 0.000000
# 3 -0.004116 -0.004998 0.017200 0.000000 0.001026 0.000000
# 4 0.000000 0.000000 0.000000 0.021124 0.000000 -0.003705
# 5 -0.002038 -0.000608 0.001026 0.000000 0.013121 0.000000
# 6 0.000000 0.000000 0.000000 -0.003705 0.000000 0.019326
#
#
# Mechanical properties :
#
#
# Convention : Reuss Voigt Hill
#
# Bulk Modulus (GPa) = 100.46325 130.29368 115.37846
# Shear Modulus (GPa) = 46.57816 57.53761 52.05789
#
# Velocity S-wave (km/s) = 4.02634 4.47502 4.25659
# Velocity P-wave (km/s) = 7.52204 8.48819 8.01968
#
# Compressibility (1/GPa) = 0.00995389
#
# Stress axis : x y z
#
# Youngs Moduli (GPa) = 176.23104 136.40556 58.13954
#
# Poissons Ratio (x) = 0.13799 0.23930
# Poissons Ratio (y) = 0.17828 0.29059
# Poissons Ratio (z) = 0.72537 0.68177
#
# Static dielectric constant tensor:
#      x y z
#    x 2.626430 0.000000 0.134610 
#    y 0.000000 2.641400 0.000000 
#    z 0.134610 0.000000 2.334290 
# 
# From -- ./inp_files/132858.got.cif
#   From: 2010.05.17/outbox.cif.g08.bks.cpg/sg15_67_cif.got.tgz:132858.got - 2010.06.03 18:47:42.
