data_PCOD9290633
_publ_section_title
;
Structure prediction by ZEFSAII (Michael W. Deem and Ramdas Pophale) SiO2 
 PCOD9290633
Probable space group: C 2/C
;
_chemical_formula_sum "Si O2"
_cell_formula_units_Z 52
_cell_length_a 12.184347
_cell_length_b 20.329607
_cell_length_c 11.316010
_cell_angle_alpha 90.000000
_cell_angle_beta 116.844522
_cell_angle_gamma 90.000000
_cell_volume 2500.943691
_symmetry_space_group_name_H-M "C 2/C"
_symmetry_group_IT_number 15
_symmetry_cell_setting 'monoclinic'
loop_
_space_group_symop_operation_xyz
x,y,z
-x,y,1/2-z
-x,-y,-z
x,-y,1/2+z
1/2+x,1/2+y,z
1/2-x,1/2+y,1/2-z
1/2-x,1/2-y,-z
1/2+x,1/2-y,1/2+z
loop_
_atom_site_type_symbol
_atom_site_label
_atom_site_fract_x
_atom_site_fract_y
_atom_site_fract_z
Si Si1 0.864619 0.805252 0.914861
Si Si2 0.500000 0.856687 0.750000
Si Si3 0.826385 0.680829 0.364766
Si Si4 0.858127 0.174524 0.898825
Si Si5 0.129162 0.594870 0.888382
Si Si6 0.107614 0.539264 0.483054
Si Si7 0.755663 0.338178 0.392299
O O1 0.801472 0.832759 0.764685
O O2 0.847186 0.724607 0.909854
O O3 0.793622 0.829061 0.998536
O O4 0.003404 0.830731 0.988870
O O5 0.583503 0.814750 0.704412
O O6 0.435776 0.906634 0.630573
O O7 0.819269 0.752174 0.416265
O O8 0.877863 0.630845 0.486702
O O9 0.748021 0.128264 0.888120
O O10 0.852824 0.170061 0.754547
O O11 0.000000 0.599413 0.750000
O O12 0.163392 0.519479 0.933043
O O13 0.189993 0.588207 0.601605
O O14 0.000000 0.500000 0.500000
#
# Coordination Sequence:
#
# PCOD9290633 Si02
#       7
#     8   4   8   8   8   8   8
#     4  10  22  42  70 101 132 170 226 289 343 403
#     4  12  22  40  72 102 128 174 234 290 336 390
#     4  11  25  41  69  99 134 178 226 287 339 403
#     4  11  25  41  68  98 137 177 224 281 347 410
#     4  12  27  44  64  99 140 185 225 281 346 410
#     4  12  23  40  68  98 138 175 225 284 335 405
#     4  10  22  41  68 103 130 171 227 289 340 396
#
# _framework density 20.792152000000002
#
# number of rings (size 3 to 8) (size 9 to 14) (size 15 to 20)
#    0.000    0.923    3.846    2.769    8.615    0.615 
#    0.000    0.769    3.385    0.000    0.000    0.000 
#    0.000    0.000    0.000    0.000    0.000    0.000 
#
# Total GULP energy -144944.980307 kJ/mol
# GULP energy per Si atom -5574.806935 kJ/mol
# Density = 2.074483 g / cm^3
# Si number density = 20.792152 Si / 1000 Ang^3
#
#
#
# Elastic Constant Matrix: (Units=GPa)
#
#
# Indices 1 2 3 4 5 6 
#
# 1 90.8084 54.4836 43.1975 0.0000 7.7574 0.0000
# 2 54.4836 133.2458 38.8717 0.0000 15.8151 0.0000
# 3 43.1975 38.8717 135.3659 0.0000 23.6341 0.0000
# 4 0.0000 0.0000 0.0000 17.2723 0.0000 8.8967
# 5 7.7574 15.8151 23.6341 0.0000 35.4861 0.0000
# 6 0.0000 0.0000 0.0000 8.8967 0.0000 30.4425
#
#
#
# Elastic Compliance Matrix: (Units=1/GPa)
#
#
# Indices 1 2 3 4 5 6 
#
# 1 0.016065 -0.005649 -0.003769 0.000000 0.001516 0.000000
# 2 -0.005649 0.010356 -0.000657 0.000000 -0.002943 0.000000
# 3 -0.003769 -0.000657 0.009713 0.000000 -0.005352 0.000000
# 4 0.000000 0.000000 0.000000 0.068156 0.000000 -0.019918
# 5 0.001516 -0.002943 -0.005352 0.000000 0.032725 0.000000
# 6 0.000000 0.000000 0.000000 -0.019918 0.000000 0.038670
#
#
# Mechanical properties :
#
#
# Convention : Reuss Voigt Hill
#
# Bulk Modulus (GPa) = 62.56607 70.28063 66.42335
# Shear Modulus (GPa) = 24.85533 31.49799 28.17666
#
# Velocity S-wave (km/s) = 3.46123 3.89639 3.68524
# Velocity P-wave (km/s) = 6.79191 7.35645 7.07981
#
# Compressibility (1/GPa) = 0.01598310
#
# Stress axis : x y z
#
# Youngs Moduli (GPa) = 62.24643 96.56301 102.95069
#
# Poissons Ratio (x) = 0.54552 0.38803
# Poissons Ratio (y) = 0.35165 0.06766
# Poissons Ratio (z) = 0.23461 0.06346
#
# Static dielectric constant tensor:
#      x y z
#    x 1.827920 0.000000 -0.065040 
#    y 0.000000 1.753370 0.000000 
#    z -0.065040 0.000000 2.116340 
# 
# From -- ./inp_files/89743.got.cif
#   From: 2010.05.17/outbox.cif.g08.bks.cpg/sg15_45_cif.got.tgz:89743.got - 2010.06.03 18:47:42.
