data_PCOD9290754
_publ_section_title
;
Structure prediction by ZEFSAII (Michael W. Deem and Ramdas Pophale) SiO2 
 PCOD9290754
Probable space group: C 2/C
;
_chemical_formula_sum "Si O2"
_cell_formula_units_Z 40
_cell_length_a 17.104779
_cell_length_b 10.173969
_cell_length_c 10.432803
_cell_angle_alpha 90.000000
_cell_angle_beta 82.987456
_cell_angle_gamma 90.000000
_cell_volume 1801.971462
_symmetry_space_group_name_H-M "C 2/C"
_symmetry_group_IT_number 15
_symmetry_cell_setting 'monoclinic'
loop_
_space_group_symop_operation_xyz
x,y,z
-x,y,1/2-z
-x,-y,-z
x,-y,1/2+z
1/2+x,1/2+y,z
1/2-x,1/2+y,1/2-z
1/2-x,1/2-y,-z
1/2+x,1/2-y,1/2+z
loop_
_atom_site_type_symbol
_atom_site_label
_atom_site_fract_x
_atom_site_fract_y
_atom_site_fract_z
Si Si1 0.212133 0.974882 0.691259
Si Si2 0.989946 0.337745 0.891716
Si Si3 0.952370 0.036971 0.883315
Si Si4 0.628190 0.953673 0.994422
Si Si5 0.229879 0.309153 0.146737
O O1 0.136797 0.989168 0.614574
O O2 0.293985 0.993457 0.598712
O O3 0.210077 0.088954 0.799191
O O4 0.215303 0.821547 0.733532
O O5 0.076229 0.340570 0.937548
O O6 0.000000 0.400617 0.750000
O O7 0.954703 0.194510 0.879623
O O8 0.929203 0.423404 0.984029
O O9 0.000000 0.986289 0.750000
O O10 0.000000 0.000000 0.000000
O O11 0.654970 0.899196 0.127070
O O12 0.250000 0.250000 0.000000
#
# Coordination Sequence:
#
# PCOD9290754 Si02
#       5
#     8   8   8   8   8
#     4  11  25  42  72 100 140 188 240 299 361 429
#     4  10  22  41  69  97 137 181 232 290 370 424
#     4  11  27  44  69 101 146 190 238 297 371 432
#     4  10  22  41  69  99 138 176 241 293 354 434
#     4  10  24  42  68  98 142 181 238 297 363 427
#
# _framework density 22.197908999999999
#
# number of rings (size 3 to 8) (size 9 to 14) (size 15 to 20)
#    0.000    1.600    0.000    2.400   19.600    2.400 
#    0.000    5.000    0.000    0.000    0.000    0.000 
#    0.000    0.000    0.000    0.000    0.000    0.000 
#
# Total GULP energy -111639.062864 kJ/mol
# GULP energy per Si atom -5581.953143 kJ/mol
# Density = 2.214739 g / cm^3
# Si number density = 22.197909 Si / 1000 Ang^3
#
#
#
# Elastic Constant Matrix: (Units=GPa)
#
#
# Indices 1 2 3 4 5 6 
#
# 1 141.1438 18.2754 35.0258 0.0000 8.8628 0.0000
# 2 18.2754 88.0717 23.3082 0.0000 3.4100 0.0000
# 3 35.0258 23.3082 87.5341 0.0000 21.0479 0.0000
# 4 0.0000 0.0000 0.0000 36.8872 0.0000 11.2548
# 5 8.8628 3.4100 21.0479 0.0000 41.1309 0.0000
# 6 0.0000 0.0000 0.0000 11.2548 0.0000 23.7892
#
#
#
# Elastic Compliance Matrix: (Units=1/GPa)
#
#
# Indices 1 2 3 4 5 6 
#
# 1 0.007928 -0.000871 -0.002904 0.000000 -0.000150 0.000000
# 2 -0.000871 0.012331 -0.003118 0.000000 0.000761 0.000000
# 3 -0.002904 -0.003118 0.015057 0.000000 -0.006821 0.000000
# 4 0.000000 0.000000 0.000000 0.031683 0.000000 -0.014990
# 5 -0.000150 0.000761 -0.006821 0.000000 0.027772 0.000000
# 6 0.000000 0.000000 0.000000 -0.014990 0.000000 0.049128
#
#
# Mechanical properties :
#
#
# Convention : Reuss Voigt Hill
#
# Bulk Modulus (GPa) = 46.44852 52.21870 49.33361
# Shear Modulus (GPa) = 30.32870 36.37080 33.34975
#
# Velocity S-wave (km/s) = 3.70034 4.05220 3.88026
# Velocity P-wave (km/s) = 6.26313 6.74307 6.50753
#
# Compressibility (1/GPa) = 0.02152921
#
# Stress axis : x y z
#
# Youngs Moduli (GPa) = 126.13754 81.09807 66.41635
#
# Poissons Ratio (x) = 0.07061 0.19290
# Poissons Ratio (y) = 0.10982 0.20708
# Poissons Ratio (z) = 0.36635 0.25286
#
# Static dielectric constant tensor:
#      x y z
#    x 1.344910 0.000000 0.196760 
#    y 0.000000 1.871460 0.000000 
#    z 0.196760 0.000000 1.821670 
# 
# From -- ./inp_files/46271.got.cif
#   From: 2010.05.17/outbox.cif.g08.bks.cpg/sg15_24_cif.got.tgz:46271.got - 2010.06.03 18:47:42.
