data_PCOD9290706
_publ_section_title
;
Structure prediction by ZEFSAII (Michael W. Deem and Ramdas Pophale) SiO2 
 PCOD9290706
Probable space group: C 2/C
;
_chemical_formula_sum "Si O2"
_cell_formula_units_Z 56
_cell_length_a 33.785578
_cell_length_b 14.605010
_cell_length_c 12.901159
_cell_angle_alpha 90.000000
_cell_angle_beta 24.110426
_cell_angle_gamma 90.000000
_cell_volume 2600.460992
_symmetry_space_group_name_H-M "C 2/C"
_symmetry_group_IT_number 15
_symmetry_cell_setting 'monoclinic'
loop_
_space_group_symop_operation_xyz
x,y,z
-x,y,1/2-z
-x,-y,-z
x,-y,1/2+z
1/2+x,1/2+y,z
1/2-x,1/2+y,1/2-z
1/2-x,1/2-y,-z
1/2+x,1/2-y,1/2+z
loop_
_atom_site_type_symbol
_atom_site_label
_atom_site_fract_x
_atom_site_fract_y
_atom_site_fract_z
Si Si1 0.500000 0.820398 0.250000
Si Si2 0.113705 0.753974 0.143549
Si Si3 0.555746 0.285510 0.823077
Si Si4 0.000000 0.664751 0.250000
Si Si5 0.820025 0.418638 0.941197
Si Si6 0.635665 0.112745 0.755737
Si Si7 0.780159 0.377703 0.810750
Si Si8 0.278406 0.422950 0.100992
O O1 0.483798 0.757895 0.188146
O O2 0.396427 0.873449 0.512521
O O3 0.099304 0.659654 0.242776
O O4 0.031102 0.815235 0.392935
O O5 0.082207 0.729529 0.102849
O O6 0.219989 0.793788 0.907062
O O7 0.618317 0.205368 0.732215
O O8 0.620117 0.372855 0.643446
O O9 0.953715 0.604120 0.450220
O O10 0.853661 0.522300 0.840333
O O11 0.763004 0.386789 0.975152
O O12 0.769574 0.404964 0.172330
O O13 0.723921 0.113005 0.627071
O O14 0.731511 0.468209 0.881730
#
# Coordination Sequence:
#
# PCOD9290706 Si02
#       8
#     4   8   8   4   8   8   8   8
#     4  12  24  43  71 104 134 182 234 283 361 414
#     4  11  23  46  68  99 143 180 233 284 350 412
#     4  11  25  41  70 100 137 182 233 280 349 422
#     4  10  22  41  69 100 138 186 222 287 355 422
#     4  11  22  41  67  97 136 182 224 292 350 400
#     4  10  23  43  67 100 139 178 232 287 353 415
#     4  11  26  45  69 101 140 180 233 293 341 418
#     4  11  24  45  67  97 139 187 231 286 350 408
#
# _framework density 21.534642999999999
#
# number of rings (size 3 to 8) (size 9 to 14) (size 15 to 20)
#    0.000    1.143    2.857    2.571    2.000    5.143 
#   10.286    0.714    0.000    0.000    0.000    0.000 
#    0.000    0.000    0.000    0.000    0.000    0.000 
#
# Total GULP energy -156179.518541 kJ/mol
# GULP energy per Si atom -5577.839948 kJ/mol
# Density = 2.148563 g / cm^3
# Si number density = 21.534643 Si / 1000 Ang^3
#
#
#
# Elastic Constant Matrix: (Units=GPa)
#
#
# Indices 1 2 3 4 5 6 
#
# 1 100.3902 44.2639 25.5810 0.0000 7.5938 0.0000
# 2 44.2639 92.8827 52.7800 0.0000 -16.6835 0.0000
# 3 25.5810 52.7800 100.7377 0.0000 2.9219 0.0000
# 4 0.0000 0.0000 0.0000 27.3593 0.0000 -6.7508
# 5 7.5938 -16.6835 2.9219 0.0000 20.0171 0.0000
# 6 0.0000 0.0000 0.0000 -6.7508 0.0000 14.7735
#
#
#
# Elastic Compliance Matrix: (Units=1/GPa)
#
#
# Indices 1 2 3 4 5 6 
#
# 1 0.015829 -0.012095 0.002796 0.000000 -0.016494 0.000000
# 2 -0.012095 0.029824 -0.013466 0.000000 0.031411 0.000000
# 3 0.002796 -0.013466 0.016699 0.000000 -0.014721 0.000000
# 4 0.000000 0.000000 0.000000 0.041195 0.000000 0.018825
# 5 -0.016494 0.031411 -0.014721 0.000000 0.084543 0.000000
# 6 0.000000 0.000000 0.000000 0.018825 0.000000 0.076291
#
#
# Mechanical properties :
#
#
# Convention : Reuss Voigt Hill
#
# Bulk Modulus (GPa) = 59.44349 59.91784 59.68067
# Shear Modulus (GPa) = 15.84696 23.85567 19.85131
#
# Velocity S-wave (km/s) = 2.71566 3.33195 3.03946
# Velocity P-wave (km/s) = 6.12345 6.53351 6.33180
#
# Compressibility (1/GPa) = 0.01682270
#
# Stress axis : x y z
#
# Youngs Moduli (GPa) = 63.17461 33.53034 59.88414
#
# Poissons Ratio (x) = 0.40554 -0.16741
# Poissons Ratio (y) = 0.76407 0.80637
# Poissons Ratio (z) = -0.17661 0.45150
#
# Static dielectric constant tensor:
#      x y z
#    x 1.823540 0.000000 -0.017900 
#    y 0.000000 1.833120 0.000000 
#    z -0.017900 0.000000 1.839410 
# 
# From -- ./inp_files/127003.got.cif
#   From: 2010.05.17/outbox.cif.g08.bks.cpg/sg15_64_cif.got.tgz:127003.got - 2010.06.03 18:47:42.
