data_PCOD9290152
_publ_section_title
;
Structure prediction by ZEFSAII (Michael W. Deem and Ramdas Pophale) SiO2 
 PCOD9290152
Probable space group: C 2/C
;
_chemical_formula_sum "Si O2"
_cell_formula_units_Z 32
_cell_length_a 8.944074
_cell_length_b 16.943075
_cell_length_c 13.053807
_cell_angle_alpha 90.000000
_cell_angle_beta 141.495205
_cell_angle_gamma 90.000000
_cell_volume 1231.572719
_symmetry_space_group_name_H-M "C 2/C"
_symmetry_group_IT_number 15
_symmetry_cell_setting 'monoclinic'
loop_
_space_group_symop_operation_xyz
x,y,z
-x,y,1/2-z
-x,-y,-z
x,-y,1/2+z
1/2+x,1/2+y,z
1/2-x,1/2+y,1/2-z
1/2-x,1/2-y,-z
1/2+x,1/2-y,1/2+z
loop_
_atom_site_type_symbol
_atom_site_label
_atom_site_fract_x
_atom_site_fract_y
_atom_site_fract_z
Si Si1 0.016347 0.310382 0.988003
Si Si2 0.488269 0.958681 0.120825
Si Si3 0.000000 0.707950 0.250000
Si Si4 0.521675 0.537361 0.123906
Si Si5 0.000000 0.812316 0.750000
O O1 0.022946 0.379585 0.074267
O O2 0.255538 0.258578 0.127180
O O3 0.018171 0.335242 0.868776
O O4 0.755952 0.269601 0.873447
O O5 0.500000 0.942346 0.250000
O O6 0.708887 0.012940 0.208417
O O7 0.224903 0.995652 0.960621
O O8 0.496330 0.627934 0.149232
O O9 0.500000 0.500000 0.000000
#
# Coordination Sequence:
#
# PCOD9290152 Si02
#       5
#     8   8   4   8   4
#     4  10  23  46  66  93 124 166 217 268 323 372
#     4   9  19  39  63  96 128 167 208 253 309 377
#     4  10  24  49  64  92 120 167 220 274 326 362
#     4   9  19  37  58  93 133 162 201 244 307 378
#     4  10  22  41  62  98 124 167 210 252 312 380
#
# _framework density 25.983036999999999
#
# number of rings (size 3 to 8) (size 9 to 14) (size 15 to 20)
#    0.000    2.500    0.000    0.000    0.000    8.000 
#   40.500    0.000    0.000    0.000    0.000    0.000 
#    0.000    0.000    0.000    0.000    0.000    0.000 
#
# Total GULP energy -89244.759971 kJ/mol
# GULP energy per Si atom -5577.797498 kJ/mol
# Density = 2.592390 g / cm^3
# Si number density = 25.983037 Si / 1000 Ang^3
#
#
#
# Elastic Constant Matrix: (Units=GPa)
#
#
# Indices 1 2 3 4 5 6 
#
# 1 254.4080 78.1801 110.1725 0.0006 8.3410 0.0001
# 2 78.1801 56.7312 61.6803 0.0000 8.0207 0.0000
# 3 110.1725 61.6803 138.2706 0.0016 65.0180 0.0006
# 4 0.0006 0.0000 0.0016 17.4240 0.0009 2.2207
# 5 8.3410 8.0207 65.0180 0.0009 109.0118 0.0002
# 6 0.0001 0.0000 0.0006 2.2207 0.0002 61.7304
#
#
#
# Elastic Compliance Matrix: (Units=1/GPa)
#
#
# Indices 1 2 3 4 5 6 
#
# 1 0.007710 -0.005686 -0.004901 0.000000 0.002751 0.000000
# 2 -0.005686 0.046560 -0.020614 0.000001 0.009304 0.000000
# 3 -0.004901 -0.020614 0.027021 -0.000002 -0.014225 0.000000
# 4 0.000000 0.000001 -0.000002 0.057657 0.000000 -0.002074
# 5 0.002751 0.009304 -0.014225 0.000000 0.016762 0.000000
# 6 0.000000 0.000000 0.000000 -0.002074 0.000000 0.016274
#
#
# Mechanical properties :
#
#
# Convention : Reuss Voigt Hill
#
# Bulk Modulus (GPa) = 52.93872 105.49728 79.21800
# Shear Modulus (GPa) = 20.77429 50.92502 35.84965
#
# Velocity S-wave (km/s) = 2.83067 4.43192 3.71851
# Velocity P-wave (km/s) = 5.57693 8.17800 6.99935
#
# Compressibility (1/GPa) = 0.01888977
#
# Stress axis : x y z
#
# Youngs Moduli (GPa) = 129.70204 21.47776 37.00769
#
# Poissons Ratio (x) = 0.12212 0.18136
# Poissons Ratio (y) = 0.73747 0.76289
# Poissons Ratio (z) = 0.63561 0.44275
#
# Static dielectric constant tensor:
#      x y z
#    x 2.245210 0.000000 -0.603660 
#    y 0.000000 2.123170 0.000000 
#    z -0.603660 0.000000 3.422230 
# 
# From -- ./inp_files/135703.got.cif
#   From: 2010.05.17/outbox.cif.g08.bks.cpg/sg15_68_cif.got.tgz:135703.got - 2010.06.03 18:47:42.
