data_PCOD9290216
_publ_section_title
;
Structure prediction by ZEFSAII (Michael W. Deem and Ramdas Pophale) SiO2 
 PCOD9290216
Probable space group: C 2/C
;
_chemical_formula_sum "Si O2"
_cell_formula_units_Z 64
_cell_length_a 26.717039
_cell_length_b 10.422572
_cell_length_c 14.205780
_cell_angle_alpha 90.000000
_cell_angle_beta 137.521123
_cell_angle_gamma 90.000000
_cell_volume 2671.387352
_symmetry_space_group_name_H-M "C 2/C"
_symmetry_group_IT_number 15
_symmetry_cell_setting 'monoclinic'
loop_
_space_group_symop_operation_xyz
x,y,z
-x,y,1/2-z
-x,-y,-z
x,-y,1/2+z
1/2+x,1/2+y,z
1/2-x,1/2+y,1/2-z
1/2-x,1/2-y,-z
1/2+x,1/2-y,1/2+z
loop_
_atom_site_type_symbol
_atom_site_label
_atom_site_fract_x
_atom_site_fract_y
_atom_site_fract_z
Si Si1 0.804251 0.440673 0.543618
Si Si2 0.943128 0.113956 0.401141
Si Si3 0.569622 0.942590 0.914266
Si Si4 0.697911 0.259746 0.313273
Si Si5 0.744959 0.347491 0.082302
Si Si6 0.557058 0.200506 0.994363
Si Si7 0.670243 0.285163 0.629050
Si Si8 0.922945 0.888002 0.653129
O O1 0.864483 0.500663 0.558940
O O2 0.730089 0.400352 0.383849
O O3 0.827806 0.307657 0.625899
O O4 0.793290 0.535015 0.613947
O O5 0.878320 0.107455 0.387556
O O6 0.914300 0.116536 0.254275
O O7 0.990716 0.245566 0.466586
O O8 0.000000 0.000000 0.500000
O O9 0.500000 0.918477 0.750000
O O10 0.609570 0.815514 0.006779
O O11 0.552058 0.049831 0.967388
O O12 0.631768 0.244513 0.149246
O O13 0.769923 0.188953 0.368596
O O14 0.781325 0.280987 0.222098
O O15 0.750000 0.250000 0.000000
O O16 0.663450 0.402306 0.992557
O O17 0.555653 0.273173 0.891002
O O18 0.000000 0.971322 0.750000
#
# Coordination Sequence:
#
# PCOD9290216 Si02
#       8
#     8   8   8   8   8   8   8   8
#     4  10  25  42  68  97 137 183 229 282 357 412
#     4  11  26  43  66 101 141 183 230 285 358 427
#     4  11  25  44  69 103 140 180 235 299 355 420
#     4  10  23  46  66  98 137 181 230 288 347 419
#     4  12  22  40  69  98 136 177 235 288 339 423
#     4  11  23  43  71  97 140 179 235 287 351 417
#     4  11  25  44  70 105 135 183 242 288 355 425
#     4  10  22  41  63  99 135 179 219 282 342 406
#
# _framework density 23.957588999999999
#
# number of rings (size 3 to 8) (size 9 to 14) (size 15 to 20)
#    0.000    1.250    2.500    2.625    5.250    2.500 
#    2.250    1.875    0.000    0.000    0.000    0.000 
#    0.000    0.000    0.000    0.000    0.000    0.000 
#
# Total GULP energy -178597.596662 kJ/mol
# GULP energy per Si atom -5581.174896 kJ/mol
# Density = 2.390306 g / cm^3
# Si number density = 23.957589 Si / 1000 Ang^3
#
#
#
# Elastic Constant Matrix: (Units=GPa)
#
#
# Indices 1 2 3 4 5 6 
#
# 1 96.1060 5.3789 -2.0688 0.0000 -1.3827 0.0000
# 2 5.3789 28.7061 14.5315 0.0000 -5.5616 0.0000
# 3 -2.0688 14.5315 154.9389 0.0000 -8.9055 0.0000
# 4 0.0000 0.0000 0.0000 10.4090 0.0000 -0.3192
# 5 -1.3827 -5.5616 -8.9055 0.0000 34.6765 0.0000
# 6 0.0000 0.0000 0.0000 -0.3192 0.0000 32.5711
#
#
#
# Elastic Compliance Matrix: (Units=1/GPa)
#
#
# Indices 1 2 3 4 5 6 
#
# 1 0.010534 -0.002118 0.000349 0.000000 0.000170 0.000000
# 2 -0.002118 0.037894 -0.003286 0.000000 0.005149 0.000000
# 3 0.000349 -0.003286 0.006838 0.000000 0.001243 0.000000
# 4 0.000000 0.000000 0.000000 0.096100 0.000000 0.000942
# 5 0.000170 0.005149 0.001243 0.000000 0.029990 0.000000
# 6 0.000000 0.000000 0.000000 0.000942 0.000000 0.030711
#
#
# Mechanical properties :
#
#
# Convention : Reuss Voigt Hill
#
# Bulk Modulus (GPa) = 22.14532 35.04826 28.59679
# Shear Modulus (GPa) = 21.07671 32.99194 27.03433
#
# Velocity S-wave (km/s) = 2.96928 3.71495 3.36285
# Velocity P-wave (km/s) = 4.58466 5.74998 5.20006
#
# Compressibility (1/GPa) = 0.04515628
#
# Stress axis : x y z
#
# Youngs Moduli (GPa) = 94.93386 26.38957 146.23123
#
# Poissons Ratio (x) = 0.05588 -0.05104
# Poissons Ratio (y) = 0.20102 0.48056
# Poissons Ratio (z) = -0.03313 0.08672
#
# Static dielectric constant tensor:
#      x y z
#    x 1.918370 0.000000 0.001870 
#    y 0.000000 1.966810 0.000000 
#    z 0.001870 0.000000 1.966720 
# 
# From -- ./inp_files/177857.got.cif
#   From: 2010.05.17/outbox.cif.g08.bks.cpg/sg15_89_cif.got.tgz:177857.got - 2010.06.03 18:47:42.
