data_PCOD9290494
_publ_section_title
;
Structure prediction by ZEFSAII (Michael W. Deem and Ramdas Pophale) SiO2 
 PCOD9290494
Probable space group: C 2/C
;
_chemical_formula_sum "Si O2"
_cell_formula_units_Z 52
_cell_length_a 16.640900
_cell_length_b 18.948759
_cell_length_c 9.171486
_cell_angle_alpha 90.000000
_cell_angle_beta 60.977231
_cell_angle_gamma 90.000000
_cell_volume 2528.837007
_symmetry_space_group_name_H-M "C 2/C"
_symmetry_group_IT_number 15
_symmetry_cell_setting 'monoclinic'
loop_
_space_group_symop_operation_xyz
x,y,z
-x,y,1/2-z
-x,-y,-z
x,-y,1/2+z
1/2+x,1/2+y,z
1/2-x,1/2+y,1/2-z
1/2-x,1/2-y,-z
1/2+x,1/2-y,1/2+z
loop_
_atom_site_type_symbol
_atom_site_label
_atom_site_fract_x
_atom_site_fract_y
_atom_site_fract_z
Si Si1 0.000000 0.920109 0.750000
Si Si2 0.109026 0.567105 0.328849
Si Si3 0.646642 0.363908 0.445495
Si Si4 0.729345 0.220415 0.856508
Si Si5 0.606821 0.080542 0.986589
Si Si6 0.893364 0.007896 0.143501
Si Si7 0.718395 0.640571 0.209488
O O1 0.915339 0.973000 0.792855
O O2 0.040009 0.868927 0.590783
O O3 0.130963 0.490034 0.375668
O O4 0.177013 0.622631 0.343629
O O5 0.002568 0.587961 0.445806
O O6 0.122325 0.564773 0.143705
O O7 0.677889 0.303633 0.308646
O O8 0.659419 0.437596 0.347599
O O9 0.701524 0.359306 0.550153
O O10 0.663518 0.151929 0.907869
O O11 0.689232 0.284905 0.799523
O O12 0.750000 0.250000 0.000000
O O13 0.838684 0.078894 0.155814
O O14 0.000000 0.000000 0.000000
#
# Coordination Sequence:
#
# PCOD9290494 Si02
#       7
#     4   8   8   8   8   8   8
#     4   8  18  40  64  98 130 164 226 278 332 392
#     4  10  22  43  70  95 130 177 234 287 332 405
#     4  10  22  41  66  95 133 178 229 273 334 414
#     4  12  25  43  63  99 140 179 221 279 357 410
#     4  10  23  44  67  97 130 177 234 287 339 403
#     4   9  19  38  66  97 129 169 220 277 329 403
#     4  11  23  40  65  97 135 176 222 280 342 419
#
# _framework density 20.562812000000001
#
# number of rings (size 3 to 8) (size 9 to 14) (size 15 to 20)
#    0.000    1.846    1.538    1.385    4.308    3.692 
#    8.308    0.000    0.000    0.000    0.000    0.000 
#    0.000    0.000    0.000    0.000    0.000    0.000 
#
# Total GULP energy -144744.822113 kJ/mol
# GULP energy per Si atom -5567.108543 kJ/mol
# Density = 2.051601 g / cm^3
# Si number density = 20.562812 Si / 1000 Ang^3
#
#
#
# Elastic Constant Matrix: (Units=GPa)
#
#
# Indices 1 2 3 4 5 6 
#
# 1 82.1886 30.7113 30.2153 0.0000 9.9014 0.0000
# 2 30.7113 133.6625 49.0450 0.0000 -5.0665 0.0000
# 3 30.2153 49.0450 78.9834 0.0000 2.1293 0.0000
# 4 0.0000 0.0000 0.0000 36.9841 0.0000 -1.1820
# 5 9.9014 -5.0665 2.1293 0.0000 24.1056 0.0000
# 6 0.0000 0.0000 0.0000 -1.1820 0.0000 19.7749
#
#
#
# Elastic Compliance Matrix: (Units=1/GPa)
#
#
# Indices 1 2 3 4 5 6 
#
# 1 0.015346 -0.002171 -0.004350 0.000000 -0.006375 0.000000
# 2 -0.002171 0.010158 -0.005572 0.000000 0.003519 0.000000
# 3 -0.004350 -0.005572 0.017811 0.000000 -0.000957 0.000000
# 4 0.000000 0.000000 0.000000 0.027090 0.000000 0.001619
# 5 -0.006375 0.003519 -0.000957 0.000000 0.044927 0.000000
# 6 0.000000 0.000000 0.000000 0.001619 0.000000 0.050666
#
#
# Mechanical properties :
#
#
# Convention : Reuss Voigt Hill
#
# Bulk Modulus (GPa) = 52.28066 57.19750 54.73908
# Shear Modulus (GPa) = 25.43722 28.49712 26.96717
#
# Velocity S-wave (km/s) = 3.52099 3.72675 3.62533
# Velocity P-wave (km/s) = 6.48150 6.81136 6.64848
#
# Compressibility (1/GPa) = 0.01912753
#
# Stress axis : x y z
#
# Youngs Moduli (GPa) = 65.16387 98.44056 56.14512
#
# Poissons Ratio (x) = 0.21375 0.24426
# Poissons Ratio (y) = 0.14149 0.31285
# Poissons Ratio (z) = 0.28349 0.54852
#
# Static dielectric constant tensor:
#      x y z
#    x 1.842180 0.000000 0.039980 
#    y 0.000000 1.745810 0.000000 
#    z 0.039980 0.000000 1.852120 
# 
# From -- ./inp_files/48962.got.cif
#   From: 2010.05.17/outbox.cif.g08.bks.cpg/sg15_25_cif.got.tgz:48962.got - 2010.06.03 18:47:42.
