data_PCOD9290592
_publ_section_title
;
Structure prediction by ZEFSAII (Michael W. Deem and Ramdas Pophale) SiO2 
 PCOD9290592
Probable space group: C 2/C
;
_chemical_formula_sum "Si O2"
_cell_formula_units_Z 32
_cell_length_a 10.306993
_cell_length_b 18.232749
_cell_length_c 12.867641
_cell_angle_alpha 90.000000
_cell_angle_beta 142.982585
_cell_angle_gamma 90.000000
_cell_volume 1455.865365
_symmetry_space_group_name_H-M "C 2/C"
_symmetry_group_IT_number 15
_symmetry_cell_setting 'monoclinic'
loop_
_space_group_symop_operation_xyz
x,y,z
-x,y,1/2-z
-x,-y,-z
x,-y,1/2+z
1/2+x,1/2+y,z
1/2-x,1/2+y,1/2-z
1/2-x,1/2-y,-z
1/2+x,1/2-y,1/2+z
loop_
_atom_site_type_symbol
_atom_site_label
_atom_site_fract_x
_atom_site_fract_y
_atom_site_fract_z
Si Si1 0.000000 0.383022 0.750000
Si Si2 0.500000 0.613593 0.250000
Si Si3 0.084973 0.482998 0.439575
Si Si4 0.883522 0.341483 0.281779
Si Si5 0.673772 0.799283 0.665476
O O1 0.876415 0.442203 0.598242
O O2 0.883885 0.331777 0.759699
O O3 0.695129 0.563321 0.415113
O O4 0.598456 0.665153 0.223588
O O5 0.000000 0.500000 0.500000
O O6 0.890689 0.429417 0.275463
O O7 0.680814 0.288774 0.165932
O O8 0.000000 0.316101 0.250000
O O9 0.016156 0.325099 0.472179
#
# Coordination Sequence:
#
# PCOD9290592 Si02
#       5
#     4   4   8   8   8
#     4  12  24  45  67  98 148 162 224 290 336 387
#     4  10  22  41  67  96 130 168 242 256 332 405
#     4  11  23  44  65 100 132 179 220 280 330 399
#     4  11  22  40  69  93 130 177 230 263 327 403
#     4  11  25  41  65 102 131 174 221 286 328 399
#
# _framework density 21.980053999999999
#
# number of rings (size 3 to 8) (size 9 to 14) (size 15 to 20)
#    0.000    1.000    7.500    0.750    3.500    2.000 
#    4.500    0.000    0.000    0.000    0.000    0.000 
#    0.000    0.000    0.000    0.000    0.000    0.000 
#
# Total GULP energy -89176.440886 kJ/mol
# GULP energy per Si atom -5573.527555 kJ/mol
# Density = 2.193003 g / cm^3
# Si number density = 21.980054 Si / 1000 Ang^3
#
#
#
# Elastic Constant Matrix: (Units=GPa)
#
#
# Indices 1 2 3 4 5 6 
#
# 1 145.7313 38.8833 33.4345 0.0000 -44.5170 0.0000
# 2 38.8833 95.7038 8.1670 0.0000 -16.8373 0.0000
# 3 33.4345 8.1670 50.2843 0.0000 -20.2604 0.0000
# 4 0.0000 0.0000 0.0000 13.8239 0.0000 -12.9913
# 5 -44.5170 -16.8373 -20.2604 0.0000 34.6746 0.0000
# 6 0.0000 0.0000 0.0000 -12.9913 0.0000 8.9080
#
#
#
# Elastic Compliance Matrix: (Units=1/GPa)
#
#
# Indices 1 2 3 4 5 6 
#
# 1 0.011961 -0.002406 -0.002414 0.000000 0.012777 0.000000
# 2 -0.002406 0.011918 0.000983 0.000000 0.003273 0.000000
# 3 -0.002414 0.000983 0.026519 0.000000 0.012873 0.000000
# 4 0.000000 0.000000 0.000000 -0.195226 0.000000 -0.284713
# 5 0.012777 0.003273 0.012873 0.000000 0.054355 0.000000
# 6 0.000000 0.000000 0.000000 -0.284713 0.000000 -0.302961
#
#
# Mechanical properties :
#
#
# Convention : Reuss Voigt Hill
#
# Bulk Modulus (GPa) = 23.40597 50.29878 36.85237
# Shear Modulus (GPa) = -13.45827 25.56362 6.05268
#
# Velocity S-wave (km/s) = -2.47714 3.41403 1.66123
# Velocity P-wave (km/s) = 1.57804 6.20277 4.52573
#
# Compressibility (1/GPa) = 0.04272414
#
# Stress axis : x y z
#
# Youngs Moduli (GPa) = 83.60729 83.90510 37.70848
#
# Poissons Ratio (x) = 0.20184 0.09103
# Poissons Ratio (y) = 0.20112 -0.03705
# Poissons Ratio (z) = 0.20182 -0.08244
#
# Static dielectric constant tensor:
#      x y z
#    x 1.800960 0.000000 0.004300 
#    y 0.000000 1.877130 0.000000 
#    z 0.004300 0.000000 1.878110 
# 
# From -- ./inp_files/22156.got.cif
#   From: 2010.05.17/outbox.cif.g08.bks.cpg/sg15_12_cif.got.tgz:22156.got - 2010.06.03 18:47:42.
