data_PCOD9290199
_publ_section_title
;
Structure prediction by ZEFSAII (Michael W. Deem and Ramdas Pophale) SiO2 
 PCOD9290199
Probable space group: C 2/C
;
_chemical_formula_sum "Si O2"
_cell_formula_units_Z 40
_cell_length_a 23.115633
_cell_length_b 7.581092
_cell_length_c 9.730959
_cell_angle_alpha 90.000000
_cell_angle_beta 103.646420
_cell_angle_gamma 90.000000
_cell_volume 1657.130710
_symmetry_space_group_name_H-M "C 2/C"
_symmetry_group_IT_number 15
_symmetry_cell_setting 'monoclinic'
loop_
_space_group_symop_operation_xyz
x,y,z
-x,y,1/2-z
-x,-y,-z
x,-y,1/2+z
1/2+x,1/2+y,z
1/2-x,1/2+y,1/2-z
1/2-x,1/2-y,-z
1/2+x,1/2-y,1/2+z
loop_
_atom_site_type_symbol
_atom_site_label
_atom_site_fract_x
_atom_site_fract_y
_atom_site_fract_z
Si Si1 0.067441 0.859261 0.271793
Si Si2 0.328995 0.877888 0.281980
Si Si3 0.038761 0.529064 0.656943
Si Si4 0.261827 0.963623 0.501448
Si Si5 0.646036 0.472863 0.576203
O O1 0.057923 0.652525 0.240776
O O2 0.104609 0.898567 0.430141
O O3 0.000000 0.933618 0.250000
O O4 0.104573 0.922343 0.159157
O O5 0.288436 0.985515 0.365619
O O6 0.320923 0.671845 0.309310
O O7 0.399184 0.887719 0.348342
O O8 0.313014 0.962105 0.128643
O O9 0.000000 0.629946 0.750000
O O10 0.000000 0.500000 0.500000
O O11 0.250000 0.750000 0.500000
O O12 0.201531 0.056105 0.522618
#
# Coordination Sequence:
#
# PCOD9290199 Si02
#       5
#     8   8   8   8   8
#     4  11  24  44  66  96 134 171 214 270 326 387
#     4  11  22  41  66  93 127 170 216 265 319 383
#     4  11  23  41  64  94 129 169 215 268 321 382
#     4  10  22  41  63  94 131 168 212 268 322 381
#     4  11  24  43  66  97 131 172 216 267 326 387
#
# _framework density 24.138107000000002
#
# number of rings (size 3 to 8) (size 9 to 14) (size 15 to 20)
#    0.000    1.200    0.000    7.800    0.000    5.600 
#    0.000    6.000    0.000    0.000    0.000    0.000 
#    0.000    0.000    0.000    0.000    0.000    0.000 
#
# Total GULP energy -111729.585805 kJ/mol
# GULP energy per Si atom -5586.479290 kJ/mol
# Density = 2.408317 g / cm^3
# Si number density = 24.138107 Si / 1000 Ang^3
#
#
#
# Elastic Constant Matrix: (Units=GPa)
#
#
# Indices 1 2 3 4 5 6 
#
# 1 180.8373 10.0607 24.4247 0.0000 -17.1289 0.0000
# 2 10.0607 22.0875 12.3816 0.0000 -6.8168 0.0000
# 3 24.4247 12.3816 94.6128 0.0000 5.6208 0.0000
# 4 0.0000 0.0000 0.0000 28.6381 0.0000 -7.9555
# 5 -17.1289 -6.8168 5.6208 0.0000 62.3170 0.0000
# 6 0.0000 0.0000 0.0000 -7.9555 0.0000 20.1004
#
#
#
# Elastic Compliance Matrix: (Units=1/GPa)
#
#
# Indices 1 2 3 4 5 6 
#
# 1 0.005957 -0.001402 -0.001450 0.000000 0.001615 0.000000
# 2 -0.001402 0.051489 -0.006724 0.000000 0.005853 0.000000
# 3 -0.001450 -0.006724 0.011955 0.000000 -0.002212 0.000000
# 4 0.000000 0.000000 0.000000 0.039232 0.000000 0.015528
# 5 0.001615 0.005853 -0.002212 0.000000 0.017331 0.000000
# 6 0.000000 0.000000 0.000000 0.015528 0.000000 0.055896
#
#
# Mechanical properties :
#
#
# Convention : Reuss Voigt Hill
#
# Bulk Modulus (GPa) = 19.90113 43.47462 31.68788
# Shear Modulus (GPa) = 22.96098 38.92246 30.94172
#
# Velocity S-wave (km/s) = 3.08755 4.01994 3.58419
# Velocity P-wave (km/s) = 4.57966 6.29257 5.50317
#
# Compressibility (1/GPa) = 0.05024840
#
# Stress axis : x y z
#
# Youngs Moduli (GPa) = 167.87971 19.42172 83.64597
#
# Poissons Ratio (x) = 0.02723 0.12130
# Poissons Ratio (y) = 0.23535 0.56243
# Poissons Ratio (z) = 0.24346 0.13059
#
# Static dielectric constant tensor:
#      x y z
#    x 2.045070 0.000000 -0.102730 
#    y 0.000000 1.998620 0.000000 
#    z -0.102730 0.000000 1.980910 
# 
# From -- ./inp_files/59879.got.cif
#   From: 2010.05.17/outbox.cif.g08.bks.cpg/sg15_30_cif.got.tgz:59879.got - 2010.06.03 18:47:42.
