data_PCOD9290724
_publ_section_title
;
Structure prediction by ZEFSAII (Michael W. Deem and Ramdas Pophale) SiO2 
 PCOD9290724
Probable space group: C 2/C
;
_chemical_formula_sum "Si O2"
_cell_formula_units_Z 48
_cell_length_a 28.012277
_cell_length_b 17.969890
_cell_length_c 9.319112
_cell_angle_alpha 90.000000
_cell_angle_beta 148.729351
_cell_angle_gamma 90.000000
_cell_volume 2435.026937
_symmetry_space_group_name_H-M "C 2/C"
_symmetry_group_IT_number 15
_symmetry_cell_setting 'monoclinic'
loop_
_space_group_symop_operation_xyz
x,y,z
-x,y,1/2-z
-x,-y,-z
x,-y,1/2+z
1/2+x,1/2+y,z
1/2-x,1/2+y,1/2-z
1/2-x,1/2-y,-z
1/2+x,1/2-y,1/2+z
loop_
_atom_site_type_symbol
_atom_site_label
_atom_site_fract_x
_atom_site_fract_y
_atom_site_fract_z
Si Si1 0.110994 0.924551 0.700283
Si Si2 0.891682 0.923857 0.142302
Si Si3 0.263420 0.705708 0.390746
Si Si4 0.736452 0.183817 0.853887
Si Si5 0.597073 0.907763 0.426687
Si Si6 0.405450 0.056920 0.917212
O O1 0.137638 0.927596 0.600279
O O2 0.001541 0.914212 0.426784
O O3 0.132308 0.000594 0.837223
O O4 0.166958 0.858211 0.915742
O O5 0.842369 0.855880 0.091922
O O6 0.250000 0.750000 0.500000
O O7 0.292567 0.771030 0.358604
O O8 0.171189 0.658798 0.113897
O O9 0.664827 0.121785 0.720065
O O10 0.750000 0.250000 0.000000
O O11 0.500000 0.884370 0.250000
O O12 0.629008 0.976740 0.611060
O O13 0.583242 0.937688 0.227044
O O14 0.500000 0.068229 0.250000
#
# Coordination Sequence:
#
# PCOD9290724 Si02
#       6
#     8   8   8   8   8   8
#     4  10  22  41  69  90 124 163 209 257 303 377
#     4  10  22  43  65  94 121 164 211 252 311 367
#     4  12  28  41  62  95 132 166 208 262 316 377
#     4  12  24  43  62  93 127 168 207 253 325 376
#     4  11  24  44  66  95 126 167 218 261 313 375
#     4  11  24  42  70  92 126 169 215 263 312 377
#
# _framework density 19.712309000000001
#
# number of rings (size 3 to 8) (size 9 to 14) (size 15 to 20)
#    0.000    1.000    3.333    3.000    7.000    2.667 
#    0.000    0.000    0.000    0.000    0.000    0.000 
#    0.000    0.000    0.000    0.000    0.000    0.000 
#
# Total GULP energy -134039.213186 kJ/mol
# GULP energy per Si atom -5584.967216 kJ/mol
# Density = 1.966744 g / cm^3
# Si number density = 19.712309 Si / 1000 Ang^3
#
#
#
# Elastic Constant Matrix: (Units=GPa)
#
#
# Indices 1 2 3 4 5 6 
#
# 1 88.3646 34.4777 8.1270 0.0000 -10.3716 0.0000
# 2 34.4777 114.4983 23.9919 0.0000 11.5647 0.0000
# 3 8.1270 23.9919 37.6668 0.0000 -0.7621 0.0000
# 4 0.0000 0.0000 0.0000 -17.3990 0.0000 -46.0815
# 5 -10.3716 11.5647 -0.7621 0.0000 26.0855 0.0000
# 6 0.0000 0.0000 0.0000 -46.0815 0.0000 3.3645
#
#
#
# Elastic Compliance Matrix: (Units=1/GPa)
#
#
# Indices 1 2 3 4 5 6 
#
# 1 0.014234 -0.005171 0.000383 0.000000 0.007963 0.000000
# 2 -0.005171 0.012557 -0.007041 0.000000 -0.007828 0.000000
# 3 0.000383 -0.007041 0.031035 0.000000 0.004181 0.000000
# 4 0.000000 0.000000 0.000000 -0.001542 0.000000 -0.021119
# 5 0.007963 -0.007828 0.004181 0.000000 0.045094 0.000000
# 6 0.000000 0.000000 0.000000 -0.021119 0.000000 0.007974
#
#
# Mechanical properties :
#
#
# Convention : Reuss Voigt Hill
#
# Bulk Modulus (GPa) = 29.26586 41.52478 35.39532
# Shear Modulus (GPa) = 34.62673 14.00575 24.31624
#
# Velocity S-wave (km/s) = 4.19573 2.66843 3.51601
# Velocity P-wave (km/s) = 6.19282 5.53219 5.87180
#
# Compressibility (1/GPa) = 0.03416950
#
# Stress axis : x y z
#
# Youngs Moduli (GPa) = 70.25648 79.63843 32.22160
#
# Poissons Ratio (x) = 0.41178 -0.01236
# Poissons Ratio (y) = 0.36327 0.22687
# Poissons Ratio (z) = -0.02694 0.56072
#
# Static dielectric constant tensor:
#      x y z
#    x 1.648090 0.000000 0.058190 
#    y 0.000000 1.644000 0.000000 
#    z 0.058190 0.000000 1.659560 
# 
# From -- ./inp_files/70648.got.cif
#   From: 2010.05.17/outbox.cif.g08.bks.cpg/sg15_36_cif.got.tgz:70648.got - 2010.06.03 18:47:42.
