data_PCOD9290996
_publ_section_title
;
Structure prediction by ZEFSAII (Michael W. Deem and Ramdas Pophale) SiO2 
 PCOD9290996
Probable space group: C 2/C
;
_chemical_formula_sum "Si O2"
_cell_formula_units_Z 52
_cell_length_a 26.980004
_cell_length_b 5.209564
_cell_length_c 20.098651
_cell_angle_alpha 90.000000
_cell_angle_beta 117.452702
_cell_angle_gamma 90.000000
_cell_volume 2506.834496
_symmetry_space_group_name_H-M "C 2/C"
_symmetry_group_IT_number 15
_symmetry_cell_setting 'monoclinic'
loop_
_space_group_symop_operation_xyz
x,y,z
-x,y,1/2-z
-x,-y,-z
x,-y,1/2+z
1/2+x,1/2+y,z
1/2-x,1/2+y,1/2-z
1/2-x,1/2-y,-z
1/2+x,1/2-y,1/2+z
loop_
_atom_site_type_symbol
_atom_site_label
_atom_site_fract_x
_atom_site_fract_y
_atom_site_fract_z
Si Si1 0.707624 0.736302 0.296637
Si Si2 0.613675 0.703170 0.349003
Si Si3 0.500000 0.404052 0.250000
Si Si4 0.543926 0.067872 0.380013
Si Si5 0.623347 0.537688 0.996604
Si Si6 0.472669 0.251507 0.515751
Si Si7 0.282495 0.736092 0.349441
O O1 0.657598 0.703394 0.317313
O O2 0.691264 0.717452 0.208560
O O3 0.753277 0.512607 0.337733
O O4 0.735801 0.013691 0.323591
O O5 0.556656 0.561607 0.292659
O O6 0.637144 0.580209 0.432526
O O7 0.591382 0.982089 0.357327
O O8 0.497242 0.222753 0.312798
O O9 0.575707 0.251096 0.451252
O O10 0.519851 0.816041 0.401311
O O11 0.673048 0.670876 0.066324
O O12 0.593707 0.317823 0.023794
O O13 0.500000 0.500000 0.500000
O O14 0.500000 0.000000 0.500000
#
# Coordination Sequence:
#
# PCOD9290996 Si02
#       7
#     8   8   4   8   8   8   8
#     4  10  24  45  68  94 133 174 226 274 346 397
#     4  10  23  41  67 100 134 180 220 284 335 408
#     4  10  22  42  64  94 138 174 224 272 336 404
#     4  10  22  42  62  95 138 172 225 279 331 407
#     4  10  23  41  67  98 138 172 224 284 333 400
#     4  11  22  40  63  94 132 173 219 270 330 395
#     4  10  24  45  67  97 132 174 224 284 329 411
#
# _framework density 20.743295
#
# number of rings (size 3 to 8) (size 9 to 14) (size 15 to 20)
#    0.000    1.846    1.538    0.462    8.615    2.462 
#    2.769    0.000    0.000    0.000    0.000    0.000 
#    0.000    0.000    0.000    0.000    0.000    0.000 
#
# Total GULP energy -145021.027509 kJ/mol
# GULP energy per Si atom -5577.731827 kJ/mol
# Density = 2.069608 g / cm^3
# Si number density = 20.743295 Si / 1000 Ang^3
#
#
#
# Elastic Constant Matrix: (Units=GPa)
#
#
# Indices 1 2 3 4 5 6 
#
# 1 118.8353 13.2406 31.5112 0.0006 -44.1969 -0.0017
# 2 13.2406 78.5075 -0.8778 -0.0023 -9.2995 0.0041
# 3 31.5112 -0.8778 92.1488 0.0008 4.2114 -0.0015
# 4 0.0006 -0.0023 0.0008 30.4925 0.0002 -12.1752
# 5 -44.1969 -9.2995 4.2114 0.0002 25.6615 -0.0008
# 6 -0.0017 0.0041 -0.0015 -12.1752 -0.0008 25.9988
#
#
#
# Elastic Compliance Matrix: (Units=1/GPa)
#
#
# Indices 1 2 3 4 5 6 
#
# 1 0.038226 0.001552 -0.016213 0.000001 0.069059 0.000004
# 2 0.001552 0.013373 -0.000753 0.000000 0.007643 -0.000002
# 3 -0.016213 -0.000753 0.017811 0.000000 -0.031120 -0.000001
# 4 0.000001 0.000000 0.000000 0.040337 0.000002 0.018890
# 5 0.069059 0.007643 -0.031120 0.000002 0.165787 0.000007
# 6 0.000004 -0.000002 -0.000001 0.018890 0.000007 0.047310
#
#
# Mechanical properties :
#
#
# Convention : Reuss Voigt Hill
#
# Bulk Modulus (GPa) = 25.91847 41.91551 33.91699
# Shear Modulus (GPa) = 13.64139 32.80507 23.22323
#
# Velocity S-wave (km/s) = 2.56721 3.98110 3.34960
# Velocity P-wave (km/s) = 4.61621 6.43295 5.59876
#
# Compressibility (1/GPa) = 0.03858252
#
# Stress axis : x y z
#
# Youngs Moduli (GPa) = 26.16047 74.77877 56.14407
#
# Poissons Ratio (x) = -0.11607 0.91027
# Poissons Ratio (y) = -0.04060 0.04226
# Poissons Ratio (z) = 0.42414 0.05628
#
# Static dielectric constant tensor:
#      x y z
#    x 1.778520 0.000000 -0.089110 
#    y 0.000000 1.823990 0.000000 
#    z -0.089110 0.000000 1.807850 
# 
# From -- ./inp_files/221362.got.cif
#   From: 2010.05.17/outbox.cif.g08.bks.cpg/sg15_111_cif.got.tgz:221362.got - 2010.06.03 18:47:42.
