data_PCOD9290345
_publ_section_title
;
Structure prediction by ZEFSAII (Michael W. Deem and Ramdas Pophale) SiO2 
 PCOD9290345
Probable space group: C 2/C
;
_chemical_formula_sum "Si O2"
_cell_formula_units_Z 48
_cell_length_a 13.651221
_cell_length_b 6.601448
_cell_length_c 20.620788
_cell_angle_alpha 90.000000
_cell_angle_beta 84.997607
_cell_angle_gamma 90.000000
_cell_volume 1851.222415
_symmetry_space_group_name_H-M "C 2/C"
_symmetry_group_IT_number 15
_symmetry_cell_setting 'monoclinic'
loop_
_space_group_symop_operation_xyz
x,y,z
-x,y,1/2-z
-x,-y,-z
x,-y,1/2+z
1/2+x,1/2+y,z
1/2-x,1/2+y,1/2-z
1/2-x,1/2-y,-z
1/2+x,1/2-y,1/2+z
loop_
_atom_site_type_symbol
_atom_site_label
_atom_site_fract_x
_atom_site_fract_y
_atom_site_fract_z
Si Si1 0.412525 0.116867 0.968110
Si Si2 0.067697 0.219790 0.681929
Si Si3 0.607718 0.122613 0.747099
Si Si4 0.720026 0.410588 0.433097
Si Si5 0.975752 0.037943 0.077596
Si Si6 0.252674 0.420879 0.822632
O O1 0.320268 0.982749 0.950336
O O2 0.466050 0.255964 0.911424
O O3 0.346066 0.280059 0.012271
O O4 0.500000 0.000000 0.000000
O O5 0.008602 0.145452 0.621815
O O6 0.168755 0.096105 0.671075
O O7 0.000000 0.176259 0.750000
O O8 0.097864 0.452345 0.691602
O O9 0.500000 0.219532 0.750000
O O10 0.645469 0.994769 0.806778
O O11 0.693378 0.284913 0.734696
O O12 0.640725 0.564875 0.408827
O O13 0.746394 0.234863 0.381506
O O14 0.000000 0.000000 0.000000
#
# Coordination Sequence:
#
# PCOD9290345 Si02
#       6
#     8   8   8   8   8   8
#     4  10  22  42  65  95 128 177 225 273 339 414
#     4  11  23  45  72 101 142 180 231 293 344 416
#     4  11  25  43  68  99 135 181 226 281 346 410
#     4  10  22  41  65  91 133 169 221 288 332 398
#     4  10  22  43  69  94 137 179 219 287 344 398
#     4  12  23  44  68 100 136 179 230 280 350 410
#
# _framework density 25.928813999999999
#
# number of rings (size 3 to 8) (size 9 to 14) (size 15 to 20)
#    0.000    1.333    3.333    2.500    0.000    4.667 
#    6.000    0.000    0.000    0.000    0.000    0.000 
#    0.000    0.000    0.000    0.000    0.000    0.000 
#
# Total GULP energy -134029.606140 kJ/mol
# GULP energy per Si atom -5584.566923 kJ/mol
# Density = 2.586980 g / cm^3
# Si number density = 25.928814 Si / 1000 Ang^3
#
#
#
# Elastic Constant Matrix: (Units=GPa)
#
#
# Indices 1 2 3 4 5 6 
#
# 1 230.8379 27.3603 28.9350 0.0000 29.7445 0.0000
# 2 27.3603 57.5623 3.5018 0.0000 1.2619 0.0000
# 3 28.9350 3.5018 83.7847 0.0000 8.3316 0.0000
# 4 0.0000 0.0000 0.0000 36.4062 0.0000 -1.1384
# 5 29.7445 1.2619 8.3316 0.0000 39.5060 0.0000
# 6 0.0000 0.0000 0.0000 -1.1384 0.0000 42.6507
#
#
#
# Elastic Compliance Matrix: (Units=1/GPa)
#
#
# Indices 1 2 3 4 5 6 
#
# 1 0.005240 -0.002330 -0.001356 0.000000 -0.003585 0.000000
# 2 -0.002330 0.018459 -0.000085 0.000000 0.001182 0.000000
# 3 -0.001356 -0.000085 0.012569 0.000000 -0.001627 0.000000
# 4 0.000000 0.000000 0.000000 0.027491 0.000000 0.000734
# 5 -0.003585 0.001182 -0.001627 0.000000 0.028317 0.000000
# 6 0.000000 0.000000 0.000000 0.000734 0.000000 0.023466
#
#
# Mechanical properties :
#
#
# Convention : Reuss Voigt Hill
#
# Bulk Modulus (GPa) = 34.80908 54.64212 44.72560
# Shear Modulus (GPa) = 37.69099 44.53843 41.11471
#
# Velocity S-wave (km/s) = 3.81679 4.14903 3.98638
# Velocity P-wave (km/s) = 5.73392 6.63870 6.20283
#
# Compressibility (1/GPa) = 0.02872813
#
# Stress axis : x y z
#
# Youngs Moduli (GPa) = 190.83803 54.17407 79.56135
#
# Poissons Ratio (x) = 0.12620 0.10787
# Poissons Ratio (y) = 0.44458 0.00672
# Poissons Ratio (z) = 0.25874 0.00458
#
# Static dielectric constant tensor:
#      x y z
#    x 2.140200 0.000000 0.107090 
#    y 0.000000 2.286260 0.000000 
#    z 0.107090 0.000000 2.635850 
# 
# From -- ./inp_files/267751.got.cif
#   From: 2010.05.17/outbox.cif.g08.bks.cpg/sg15_134_cif.got.tgz:267751.got - 2010.06.03 18:47:42.
