data_PCOD9290143
_publ_section_title
;
Structure prediction by ZEFSAII (Michael W. Deem and Ramdas Pophale) SiO2 
 PCOD9290143
Probable space group: C 2/C
;
_chemical_formula_sum "Si O2"
_cell_formula_units_Z 60
_cell_length_a 17.518291
_cell_length_b 18.888889
_cell_length_c 18.441982
_cell_angle_alpha 90.000000
_cell_angle_beta 150.579160
_cell_angle_gamma 90.000000
_cell_volume 2997.659635
_symmetry_space_group_name_H-M "C 2/C"
_symmetry_group_IT_number 15
_symmetry_cell_setting 'monoclinic'
loop_
_space_group_symop_operation_xyz
x,y,z
-x,y,1/2-z
-x,-y,-z
x,-y,1/2+z
1/2+x,1/2+y,z
1/2-x,1/2+y,1/2-z
1/2-x,1/2-y,-z
1/2+x,1/2-y,1/2+z
loop_
_atom_site_type_symbol
_atom_site_label
_atom_site_fract_x
_atom_site_fract_y
_atom_site_fract_z
Si Si1 0.500000 0.731521 0.750000
Si Si2 0.949007 0.790896 0.964897
Si Si3 0.756256 0.218638 0.164784
Si Si4 0.804499 0.629466 0.648418
Si Si5 0.864438 0.536604 0.937515
Si Si6 0.657292 0.907348 0.478601
Si Si7 0.166881 0.314030 0.018357
Si Si8 0.907208 0.068800 0.899832
O O1 0.652286 0.684773 0.856367
O O2 0.439418 0.781675 0.633973
O O3 0.882190 0.801467 0.829106
O O4 0.837741 0.742758 0.920502
O O5 0.106653 0.746565 0.084824
O O6 0.982326 0.865768 0.030065
O O7 0.808724 0.285570 0.159887
O O8 0.711916 0.153349 0.078360
O O9 0.765291 0.604235 0.535398
O O10 0.684487 0.599210 0.606763
O O11 0.974027 0.602298 0.811632
O O12 0.898415 0.612106 0.003792
O O13 0.718714 0.550831 0.764874
O O14 0.820597 0.481773 0.964233
O O15 0.000000 0.500000 0.000000
O O16 0.000000 0.000000 0.000000
#
# Coordination Sequence:
#
# PCOD9290143 Si02
#       8
#     4   8   8   8   8   8   8   8
#     4  10  24  44  70  92 134 172 224 286 334 402
#     4  11  22  39  70  95 130 168 226 275 320 394
#     4  11  20  39  65 100 128 172 213 266 325 390
#     4  10  22  41  62  95 131 167 217 264 326 398
#     4  12  24  43  68  95 132 173 225 275 333 408
#     4  11  22  40  64  94 133 174 212 268 329 401
#     4  11  23  45  65 101 126 175 226 275 342 390
#     4  11  24  44  62  96 132 169 218 277 327 393
#
# _framework density 20.015613999999999
#
# number of rings (size 3 to 8) (size 9 to 14) (size 15 to 20)
#    0.000    1.067    2.667    5.200    0.000    2.133 
#    7.200    2.667    0.000    0.000    0.000    0.000 
#    0.000    0.000    0.000    0.000    0.000    0.000 
#
# Total GULP energy -167673.528250 kJ/mol
# GULP energy per Si atom -5589.117608 kJ/mol
# Density = 1.997006 g / cm^3
# Si number density = 20.015614 Si / 1000 Ang^3
#
#
#
# Elastic Constant Matrix: (Units=GPa)
#
#
# Indices 1 2 3 4 5 6 
#
# 1 60.6860 34.8724 18.4814 0.0028 -12.9290 -0.0011
# 2 34.8724 138.2806 41.8280 0.0026 -20.1723 -0.0018
# 3 18.4814 41.8280 95.4460 0.0022 -22.7660 -0.0011
# 4 0.0028 0.0026 0.0022 33.2200 -0.0007 -8.9474
# 5 -12.9290 -20.1723 -22.7660 -0.0007 34.0951 -0.0017
# 6 -0.0011 -0.0018 -0.0011 -8.9474 -0.0017 20.4232
#
#
#
# Elastic Compliance Matrix: (Units=1/GPa)
#
#
# Indices 1 2 3 4 5 6 
#
# 1 0.020109 -0.004104 -0.001017 -0.000001 0.004518 0.000001
# 2 -0.004104 0.009434 -0.002830 0.000000 0.002136 0.000001
# 3 -0.001017 -0.002830 0.013587 0.000000 0.007012 0.000001
# 4 -0.000001 0.000000 0.000000 0.034130 0.000001 0.014952
# 5 0.004518 0.002136 0.007012 0.000001 0.036988 0.000004
# 6 0.000001 0.000001 0.000001 0.014952 0.000004 0.055514
#
#
# Mechanical properties :
#
#
# Convention : Reuss Voigt Hill
#
# Bulk Modulus (GPa) = 36.72962 53.86401 45.29681
# Shear Modulus (GPa) = 25.67489 30.82973 28.25231
#
# Velocity S-wave (km/s) = 3.58543 3.92890 3.76109
# Velocity P-wave (km/s) = 5.96076 6.89573 6.44522
#
# Compressibility (1/GPa) = 0.02722599
#
# Stress axis : x y z
#
# Youngs Moduli (GPa) = 49.72857 105.99463 73.59964
#
# Poissons Ratio (x) = 0.43505 0.07489
# Poissons Ratio (y) = 0.20411 0.20832
# Poissons Ratio (z) = 0.05060 0.30001
#
# Static dielectric constant tensor:
#      x y z
#    x 1.746100 0.000000 0.010370 
#    y 0.000000 1.699760 0.000000 
#    z 0.010370 0.000000 1.690390 
# 
# From -- ./inp_files/211751.got.cif
#   From: 2010.05.17/outbox.cif.g08.bks.cpg/sg15_106_cif.got.tgz:211751.got - 2010.06.03 18:47:42.
