data_PCOD9290977
_publ_section_title
;
Structure prediction by ZEFSAII (Michael W. Deem and Ramdas Pophale) SiO2 
 PCOD9290977
Probable space group: C 2/C
;
_chemical_formula_sum "Si O2"
_cell_formula_units_Z 40
_cell_length_a 10.665886
_cell_length_b 8.947216
_cell_length_c 22.236795
_cell_angle_alpha 90.000000
_cell_angle_beta 76.090565
_cell_angle_gamma 90.000000
_cell_volume 2059.831763
_symmetry_space_group_name_H-M "C 2/C"
_symmetry_group_IT_number 15
_symmetry_cell_setting 'monoclinic'
loop_
_space_group_symop_operation_xyz
x,y,z
-x,y,1/2-z
-x,-y,-z
x,-y,1/2+z
1/2+x,1/2+y,z
1/2-x,1/2+y,1/2-z
1/2-x,1/2-y,-z
1/2+x,1/2-y,1/2+z
loop_
_atom_site_type_symbol
_atom_site_label
_atom_site_fract_x
_atom_site_fract_y
_atom_site_fract_z
Si Si1 0.000000 0.250533 0.250000
Si Si2 0.605161 0.569254 0.032199
Si Si3 0.068135 0.499944 0.334670
Si Si4 0.148516 0.999977 0.661329
Si Si5 0.900931 0.570822 0.963373
Si Si6 0.000000 0.751184 0.250000
O O1 0.932221 0.357721 0.209469
O O2 0.901092 0.144210 0.296467
O O3 0.590929 0.506039 0.101250
O O4 0.588707 0.748835 0.036278
O O5 0.500000 0.500000 0.000000
O O6 0.751494 0.534801 0.993975
O O7 0.197362 0.502308 0.358876
O O8 0.946388 0.486930 0.392933
O O9 0.062086 0.644165 0.292888
O O10 0.100435 0.142225 0.704337
O O11 0.000000 0.500000 0.000000
#
# Coordination Sequence:
#
# PCOD9290977 Si02
#       6
#     4   8   8   8   8   4
#     4  10  22  42  62  92 126 172 206 258 330 368
#     4  11  26  43  66  97 129 172 213 267 323 379
#     4  11  22  43  66  93 126 166 213 265 316 378
#     4  11  22  43  64  92 131 164 213 263 317 381
#     4  11  24  44  67  93 129 171 217 266 318 380
#     4  10  26  38  64 100 122 166 212 262 314 388
#
# _framework density 19.419060999999999
#
# number of rings (size 3 to 8) (size 9 to 14) (size 15 to 20)
#    0.000    1.200    4.000    1.200    2.800    2.400 
#   14.400    0.000    0.000    0.000    0.000    0.000 
#    0.000    0.000    0.000    0.000    0.000    0.000 
#
# Total GULP energy -111784.616136 kJ/mol
# GULP energy per Si atom -5589.230807 kJ/mol
# Density = 1.937486 g / cm^3
# Si number density = 19.419061 Si / 1000 Ang^3
#
#
#
# Elastic Constant Matrix: (Units=GPa)
#
#
# Indices 1 2 3 4 5 6 
#
# 1 104.1040 40.9056 50.8657 0.0000 4.1063 0.0000
# 2 40.9056 102.0544 52.7761 0.0000 -1.5374 0.0000
# 3 50.8657 52.7761 149.5120 0.0000 1.4797 0.0000
# 4 0.0000 0.0000 0.0000 10.1084 0.0000 -1.2502
# 5 4.1063 -1.5374 1.4797 0.0000 38.4285 0.0000
# 6 0.0000 0.0000 0.0000 -1.2502 0.0000 12.8102
#
#
#
# Elastic Compliance Matrix: (Units=1/GPa)
#
#
# Indices 1 2 3 4 5 6 
#
# 1 0.012495 -0.003471 -0.003012 0.000000 -0.001358 0.000000
# 2 -0.003471 0.012967 -0.003406 0.000000 0.001021 0.000000
# 3 -0.003012 -0.003406 0.008917 0.000000 -0.000158 0.000000
# 4 0.000000 0.000000 0.000000 0.100137 0.000000 0.009773
# 5 -0.001358 0.001021 -0.000158 0.000000 0.026214 0.000000
# 6 0.000000 0.000000 0.000000 0.009773 0.000000 0.079016
#
#
# Mechanical properties :
#
#
# Convention : Reuss Voigt Hill
#
# Bulk Modulus (GPa) = 68.49410 71.64059 70.06734
# Shear Modulus (GPa) = 18.91129 26.34430 22.62779
#
# Velocity S-wave (km/s) = 3.12405 3.68723 3.41726
# Velocity P-wave (km/s) = 6.95421 7.42291 7.19238
#
# Compressibility (1/GPa) = 0.01459980
#
# Stress axis : x y z
#
# Youngs Moduli (GPa) = 80.03196 77.11956 112.14248
#
# Poissons Ratio (x) = 0.26768 0.33781
# Poissons Ratio (y) = 0.27779 0.38200
# Poissons Ratio (z) = 0.24108 0.26270
#
# Static dielectric constant tensor:
#      x y z
#    x 1.656310 0.000000 -0.008280 
#    y 0.000000 1.658470 0.000000 
#    z -0.008280 0.000000 1.667170 
# 
# From -- ./inp_files/195115.got.cif
#   From: 2010.05.17/outbox.cif.g08.bks.cpg/sg15_98_cif.got.tgz:195115.got - 2010.06.03 18:47:42.
