data_PCOD9290389
_publ_section_title
;
Structure prediction by ZEFSAII (Michael W. Deem and Ramdas Pophale) SiO2 
 PCOD9290389
Probable space group: C 2/C
;
_chemical_formula_sum "Si O2"
_cell_formula_units_Z 40
_cell_length_a 16.442210
_cell_length_b 9.459531
_cell_length_c 14.369948
_cell_angle_alpha 90.000000
_cell_angle_beta 63.867719
_cell_angle_gamma 90.000000
_cell_volume 2006.571821
_symmetry_space_group_name_H-M "C 2/C"
_symmetry_group_IT_number 15
_symmetry_cell_setting 'monoclinic'
loop_
_space_group_symop_operation_xyz
x,y,z
-x,y,1/2-z
-x,-y,-z
x,-y,1/2+z
1/2+x,1/2+y,z
1/2-x,1/2+y,1/2-z
1/2-x,1/2-y,-z
1/2+x,1/2-y,1/2+z
loop_
_atom_site_type_symbol
_atom_site_label
_atom_site_fract_x
_atom_site_fract_y
_atom_site_fract_z
Si Si1 0.120380 0.178546 0.804993
Si Si2 0.252221 0.159327 0.403908
Si Si3 0.259423 0.829916 0.398107
Si Si4 0.061885 0.908564 0.037437
Si Si5 0.604403 0.404570 0.693605
O O1 0.177438 0.275510 0.705237
O O2 0.171461 0.185830 0.877500
O O3 0.011372 0.194284 0.874475
O O4 0.129114 0.022767 0.756516
O O5 0.250000 0.250000 0.500000
O O6 0.143912 0.159139 0.438050
O O7 0.279648 0.994988 0.400156
O O8 0.250000 0.750000 0.500000
O O9 0.338762 0.734806 0.315448
O O10 0.108239 0.009739 0.092569
O O11 0.000000 0.000000 0.000000
O O12 0.500000 0.365707 0.750000
#
# Coordination Sequence:
#
# PCOD9290389 Si02
#       5
#     8   8   8   8   8
#     4  11  23  41  70  96 130 181 226 273 334 403
#     4  12  24  41  68 100 135 174 223 281 336 402
#     4  12  22  41  66  96 134 170 224 280 335 392
#     4  11  21  43  69  95 128 181 224 261 335 414
#     4  10  22  41  65  95 128 175 220 269 331 404
#
# _framework density 19.934495999999999
#
# number of rings (size 3 to 8) (size 9 to 14) (size 15 to 20)
#    0.000    0.800    6.000    1.200    2.800    0.000 
#    3.600    0.000    0.000    4.800    0.000    0.000 
#    0.000    0.000    0.000    0.000    0.000    0.000 
#
# Total GULP energy -111492.389554 kJ/mol
# GULP energy per Si atom -5574.619478 kJ/mol
# Density = 1.988912 g / cm^3
# Si number density = 19.934496 Si / 1000 Ang^3
#
#
#
# Elastic Constant Matrix: (Units=GPa)
#
#
# Indices 1 2 3 4 5 6 
#
# 1 112.0739 60.7596 39.9153 0.0000 -11.1723 0.0000
# 2 60.7596 128.6532 44.6364 0.0000 -20.1086 0.0000
# 3 39.9153 44.6364 101.8588 0.0000 -11.1484 0.0000
# 4 0.0000 0.0000 0.0000 34.1273 0.0000 -4.6573
# 5 -11.1723 -20.1086 -11.1484 0.0000 53.9815 0.0000
# 6 0.0000 0.0000 0.0000 -4.6573 0.0000 42.6428
#
#
#
# Elastic Compliance Matrix: (Units=1/GPa)
#
#
# Indices 1 2 3 4 5 6 
#
# 1 0.012617 -0.004977 -0.002742 0.000000 0.000191 0.000000
# 2 -0.004977 0.011515 -0.002802 0.000000 0.002680 0.000000
# 3 -0.002742 -0.002802 0.012220 0.000000 0.000912 0.000000
# 4 0.000000 0.000000 0.000000 0.029745 0.000000 0.003249
# 5 0.000191 0.002680 0.000912 0.000000 0.019751 0.000000
# 6 0.000000 0.000000 0.000000 0.003249 0.000000 0.023805
#
#
# Mechanical properties :
#
#
# Convention : Reuss Voigt Hill
#
# Bulk Modulus (GPa) = 65.32442 70.35649 67.84046
# Shear Modulus (GPa) = 36.81912 39.30195 38.06054
#
# Velocity S-wave (km/s) = 4.30234 4.44504 4.37427
# Velocity P-wave (km/s) = 7.58425 7.85588 7.72126
#
# Compressibility (1/GPa) = 0.01530821
#
# Stress axis : x y z
#
# Youngs Moduli (GPa) = 79.25999 86.84570 81.83424
#
# Poissons Ratio (x) = 0.43226 0.22439
# Poissons Ratio (y) = 0.39451 0.22931
# Poissons Ratio (z) = 0.21733 0.24335
#
# Static dielectric constant tensor:
#      x y z
#    x 1.728880 0.000000 -0.032480 
#    y 0.000000 1.714670 0.000000 
#    z -0.032480 0.000000 1.882060 
# 
# From -- ./inp_files/150553.got.cif
#   From: 2010.05.17/outbox.cif.g08.bks.cpg/sg15_76_cif.got.tgz:150553.got - 2010.06.03 18:47:42.
