data_PCOD9290832
_publ_section_title
;
Structure prediction by ZEFSAII (Michael W. Deem and Ramdas Pophale) SiO2 
 PCOD9290832
Probable space group: C 2/C
;
_chemical_formula_sum "Si O2"
_cell_formula_units_Z 40
_cell_length_a 5.432906
_cell_length_b 21.941749
_cell_length_c 15.052777
_cell_angle_alpha 90.000000
_cell_angle_beta 114.977918
_cell_angle_gamma 90.000000
_cell_volume 1626.573841
_symmetry_space_group_name_H-M "C 2/C"
_symmetry_group_IT_number 15
_symmetry_cell_setting 'monoclinic'
loop_
_space_group_symop_operation_xyz
x,y,z
-x,y,1/2-z
-x,-y,-z
x,-y,1/2+z
1/2+x,1/2+y,z
1/2-x,1/2+y,1/2-z
1/2-x,1/2-y,-z
1/2+x,1/2-y,1/2+z
loop_
_atom_site_type_symbol
_atom_site_label
_atom_site_fract_x
_atom_site_fract_y
_atom_site_fract_z
Si Si1 0.000000 0.254740 0.250000
Si Si2 0.073450 0.921564 0.100719
Si Si3 0.378343 0.151284 0.866283
Si Si4 0.485334 0.436621 0.884205
Si Si5 0.500000 0.135617 0.250000
Si Si6 0.626037 0.831832 0.587326
O O1 0.818687 0.300456 0.280349
O O2 0.133212 0.212432 0.345253
O O3 0.880788 0.884502 0.137075
O O4 0.375610 0.893244 0.132057
O O5 0.941194 0.921550 0.981895
O O6 0.052405 0.991355 0.129090
O O7 0.494194 0.183620 0.973620
O O8 0.766943 0.401617 0.907689
O O9 0.263446 0.406234 0.787713
O O10 0.542574 0.171892 0.347313
#
# Coordination Sequence:
#
# PCOD9290832 Si02
#       6
#     4   8   8   8   4   8
#     4  12  26  49  66 104 139 196 242 294 342 414
#     4  10  24  45  72 102 143 180 226 291 366 423
#     4  11  26  48  71 102 144 187 232 292 353 418
#     4  10  22  41  71 103 139 178 231 294 356 423
#     4  12  20  39  70 108 133 184 234 286 350 416
#     4  11  24  45  69 104 137 185 243 290 346 414
#
# _framework density 24.591566
#
# number of rings (size 3 to 8) (size 9 to 14) (size 15 to 20)
#    0.000    1.200    4.000    0.600    2.800    5.600 
#    3.600    4.000    0.000    0.000    0.000    0.000 
#    0.000    0.000    0.000    0.000    0.000    0.000 
#
# Total GULP energy -111713.854093 kJ/mol
# GULP energy per Si atom -5585.692705 kJ/mol
# Density = 2.453559 g / cm^3
# Si number density = 24.591566 Si / 1000 Ang^3
#
#
#
# Elastic Constant Matrix: (Units=GPa)
#
#
# Indices 1 2 3 4 5 6 
#
# 1 125.5810 48.9765 21.5603 0.0000 -26.3918 0.0000
# 2 48.9765 98.3660 35.4285 0.0000 -23.7736 0.0000
# 3 21.5603 35.4285 122.3760 0.0000 -24.5310 0.0000
# 4 0.0000 0.0000 0.0000 73.1968 0.0000 -27.7314
# 5 -26.3918 -23.7736 -24.5310 0.0000 38.1917 0.0000
# 6 0.0000 0.0000 0.0000 -27.7314 0.0000 19.1811
#
#
#
# Elastic Compliance Matrix: (Units=1/GPa)
#
#
# Indices 1 2 3 4 5 6 
#
# 1 0.010575 -0.004200 0.000337 0.000000 0.004910 0.000000
# 2 -0.004200 0.014206 -0.002504 0.000000 0.004332 0.000000
# 3 0.000337 -0.002504 0.009838 0.000000 0.004993 0.000000
# 4 0.000000 0.000000 0.000000 0.030208 0.000000 0.043674
# 5 0.004910 0.004332 0.004993 0.000000 0.035480 0.000000
# 6 0.000000 0.000000 0.000000 0.043674 0.000000 0.115277
#
#
# Mechanical properties :
#
#
# Convention : Reuss Voigt Hill
#
# Bulk Modulus (GPa) = 45.69454 62.02820 53.86137
# Shear Modulus (GPa) = 21.22112 42.13777 31.67945
#
# Velocity S-wave (km/s) = 2.94078 4.14394 3.59308
# Velocity P-wave (km/s) = 5.49114 6.94078 6.25808
#
# Compressibility (1/GPa) = 0.02188445
#
# Stress axis : x y z
#
# Youngs Moduli (GPa) = 94.56302 70.39093 101.64569
#
# Poissons Ratio (x) = 0.29565 -0.03426
# Poissons Ratio (y) = 0.39717 0.25457
# Poissons Ratio (z) = -0.03187 0.17629
#
# Static dielectric constant tensor:
#      x y z
#    x 2.036390 0.000000 0.015830 
#    y 0.000000 1.982790 0.000000 
#    z 0.015830 0.000000 1.939110 
# 
# From -- ./inp_files/129178.got.cif
#   From: 2010.05.17/outbox.cif.g08.bks.cpg/sg15_65_cif.got.tgz:129178.got - 2010.06.03 18:47:42.
