data_PCOD9290063
_publ_section_title
;
Structure prediction by ZEFSAII (Michael W. Deem and Ramdas Pophale) SiO2 
 PCOD9290063
Probable space group: C 2/C
;
_chemical_formula_sum "Si O2"
_cell_formula_units_Z 48
_cell_length_a 19.158052
_cell_length_b 30.157450
_cell_length_c 11.819326
_cell_angle_alpha 90.000000
_cell_angle_beta 157.416909
_cell_angle_gamma 90.000000
_cell_volume 2622.380714
_symmetry_space_group_name_H-M "C 2/C"
_symmetry_group_IT_number 15
_symmetry_cell_setting 'monoclinic'
loop_
_space_group_symop_operation_xyz
x,y,z
-x,y,1/2-z
-x,-y,-z
x,-y,1/2+z
1/2+x,1/2+y,z
1/2-x,1/2+y,1/2-z
1/2-x,1/2-y,-z
1/2+x,1/2-y,1/2+z
loop_
_atom_site_type_symbol
_atom_site_label
_atom_site_fract_x
_atom_site_fract_y
_atom_site_fract_z
Si Si1 0.989130 0.538571 0.573091
Si Si2 0.958682 0.875478 0.818163
Si Si3 0.335568 0.535206 0.253181
Si Si4 0.057177 0.361575 0.204400
Si Si5 0.961504 0.709984 0.385086
Si Si6 0.790971 0.200211 0.708747
O O1 0.780294 0.539108 0.305029
O O2 0.000000 0.500000 0.500000
O O3 0.032405 0.589961 0.610597
O O4 0.159931 0.526131 0.910391
O O5 0.920078 0.918700 0.836002
O O6 0.768769 0.849586 0.524710
O O7 0.000000 0.888518 0.750000
O O8 0.104809 0.843676 0.095111
O O9 0.500000 0.500000 0.500000
O O10 0.000000 0.366086 0.250000
O O11 0.958214 0.325395 0.981049
O O12 0.150265 0.711136 0.598886
O O13 0.918252 0.757752 0.373439
O O14 0.818254 0.695858 0.073033
#
# Coordination Sequence:
#
# PCOD9290063 Si02
#       6
#     8   8   8   8   8   8
#     4  10  22  41  60  86 121 156 200 250 301 359
#     4  11  22  40  62  91 123 158 204 252 299 359
#     4  10  23  39  60  89 118 157 201 247 303 361
#     4  11  22  42  62  88 124 161 203 252 302 357
#     4  10  23  41  62  88 124 162 199 252 302 359
#     4  10  23  41  61  91 122 160 205 246 304 363
#
# _framework density 18.303979000000002
#
# number of rings (size 3 to 8) (size 9 to 14) (size 15 to 20)
#    0.000    1.667    5.000    0.000    7.000    2.667 
#    0.000    3.333    0.000    0.000    0.000    0.000 
#    0.000    0.000    0.000    0.000    0.000    0.000 
#
# Total GULP energy -133638.183721 kJ/mol
# GULP energy per Si atom -5568.257655 kJ/mol
# Density = 1.826232 g / cm^3
# Si number density = 18.303979 Si / 1000 Ang^3
#
#
#
# Elastic Constant Matrix: (Units=GPa)
#
#
# Indices 1 2 3 4 5 6 
#
# 1 94.1025 74.1878 38.0503 0.0000 2.8383 0.0000
# 2 74.1878 123.6101 64.6330 0.0000 -3.9522 0.0000
# 3 38.0503 64.6330 69.0473 0.0000 24.0170 0.0000
# 4 0.0000 0.0000 0.0000 41.2002 0.0000 1.2852
# 5 2.8383 -3.9522 24.0170 0.0000 26.6571 0.0000
# 6 0.0000 0.0000 0.0000 1.2852 0.0000 22.4764
#
#
#
# Elastic Compliance Matrix: (Units=1/GPa)
#
#
# Indices 1 2 3 4 5 6 
#
# 1 0.022234 -0.021005 0.013568 0.000000 -0.017706 0.000000
# 2 -0.021005 0.059951 -0.070509 0.000000 0.074651 0.000000
# 3 0.013568 -0.070509 0.112357 0.000000 -0.113127 0.000000
# 4 0.000000 0.000000 0.000000 0.024315 0.000000 -0.001390
# 5 -0.017706 0.074651 -0.113127 0.000000 0.152390 0.000000
# 6 0.000000 0.000000 0.000000 -0.001390 0.000000 0.044571
#
#
# Mechanical properties :
#
#
# Convention : Reuss Voigt Hill
#
# Bulk Modulus (GPa) = 25.87315 71.16689 48.52002
# Shear Modulus (GPa) = 8.55295 25.39265 16.97280
#
# Velocity S-wave (km/s) = 2.16399 3.72865 3.04842
# Velocity P-wave (km/s) = 4.51772 7.58302 6.24147
#
# Compressibility (1/GPa) = 0.03865011
#
# Stress axis : x y z
#
# Youngs Moduli (GPa) = 44.97547 16.68021 8.90022
#
# Poissons Ratio (x) = 0.35037 -0.12076
# Poissons Ratio (y) = 0.94472 0.62755
# Poissons Ratio (z) = -0.61024 1.17611
#
# Static dielectric constant tensor:
#      x y z
#    x 1.696510 0.000000 -0.007040 
#    y 0.000000 1.595100 0.000000 
#    z -0.007040 0.000000 1.645070 
# 
# From -- ./inp_files/115068.got.cif
#   From: 2010.05.17/outbox.cif.g08.bks.cpg/sg15_58_cif.got.tgz:115068.got - 2010.06.03 18:47:42.
