data_PCOD9290186
_publ_section_title
;
Structure prediction by ZEFSAII (Michael W. Deem and Ramdas Pophale) SiO2 
 PCOD9290186
Probable space group: C 2/C
;
_chemical_formula_sum "Si O2"
_cell_formula_units_Z 52
_cell_length_a 8.178818
_cell_length_b 15.853031
_cell_length_c 24.551853
_cell_angle_alpha 90.000000
_cell_angle_beta 55.118113
_cell_angle_gamma 90.000000
_cell_volume 2611.422587
_symmetry_space_group_name_H-M "C 2/C"
_symmetry_group_IT_number 15
_symmetry_cell_setting 'monoclinic'
loop_
_space_group_symop_operation_xyz
x,y,z
-x,y,1/2-z
-x,-y,-z
x,-y,1/2+z
1/2+x,1/2+y,z
1/2-x,1/2+y,1/2-z
1/2-x,1/2-y,-z
1/2+x,1/2-y,1/2+z
loop_
_atom_site_type_symbol
_atom_site_label
_atom_site_fract_x
_atom_site_fract_y
_atom_site_fract_z
Si Si1 0.849770 0.466640 0.574473
Si Si2 0.151200 0.335255 0.268269
Si Si3 0.274675 0.598920 0.145451
Si Si4 0.442552 0.512342 0.697276
Si Si5 0.183962 0.843051 0.527152
Si Si6 0.000000 0.282208 0.750000
Si Si7 0.619580 0.048418 0.605334
O O1 0.645488 0.518651 0.623075
O O2 0.784669 0.376097 0.564096
O O3 0.000000 0.500000 0.500000
O O4 0.970543 0.480459 0.606384
O O5 0.291406 0.410396 0.218607
O O6 0.310883 0.272154 0.265143
O O7 0.000000 0.302895 0.250000
O O8 0.010913 0.380520 0.339799
O O9 0.340101 0.572348 0.194139
O O10 0.450065 0.648042 0.081918
O O11 0.083449 0.657324 0.186869
O O12 0.244978 0.509189 0.122043
O O13 0.500000 0.508118 0.750000
O O14 0.250000 0.750000 0.500000
O O15 0.252006 0.906106 0.465918
#
# Coordination Sequence:
#
# PCOD9290186 Si02
#       7
#     8   8   8   8   8   4   8
#     4   9  20  36  62  93 127 169 216 263 331 398
#     4  12  23  41  68  99 133 170 217 279 339 391
#     4  11  24  41  63  93 128 171 221 271 317 409
#     4  11  20  38  68  94 126 173 222 268 332 395
#     4  10  22  41  63  91 128 167 213 273 336 387
#     4  12  26  42  60  96 140 170 214 274 336 384
#     4  11  20  41  67  91 124 168 221 264 327 399
#
# _framework density 19.912520000000001
#
# number of rings (size 3 to 8) (size 9 to 14) (size 15 to 20)
#    0.000    1.231    3.846    2.308    0.000    1.846 
#    5.538    0.769    0.000    0.000    0.000    0.000 
#    0.000    0.000    0.000    0.000    0.000    0.000 
#
# Total GULP energy -144993.439209 kJ/mol
# GULP energy per Si atom -5576.670739 kJ/mol
# Density = 1.986720 g / cm^3
# Si number density = 19.912520 Si / 1000 Ang^3
#
#
#
# Elastic Constant Matrix: (Units=GPa)
#
#
# Indices 1 2 3 4 5 6 
#
# 1 94.8264 28.0617 33.8357 -0.0001 2.2733 0.0000
# 2 28.0617 84.7331 43.4267 -0.0001 -5.2684 0.0000
# 3 33.8357 43.4267 105.5122 -0.0002 -25.4899 0.0001
# 4 -0.0001 -0.0001 -0.0002 36.5848 0.0001 -10.0430
# 5 2.2733 -5.2684 -25.4899 0.0001 35.4697 0.0000
# 6 0.0000 0.0000 0.0001 -10.0430 0.0000 16.9658
#
#
#
# Elastic Compliance Matrix: (Units=1/GPa)
#
#
# Indices 1 2 3 4 5 6 
#
# 1 0.012826 -0.002388 -0.004132 0.000000 -0.004146 0.000000
# 2 -0.002388 0.015612 -0.006126 0.000000 -0.001931 0.000000
# 3 -0.004132 -0.006126 0.015935 0.000000 0.010806 0.000000
# 4 0.000000 0.000000 0.000000 0.032637 0.000000 0.019320
# 5 -0.004146 -0.001931 0.010806 0.000000 0.035938 0.000000
# 6 0.000000 0.000000 0.000000 0.019320 0.000000 0.070379
#
#
# Mechanical properties :
#
#
# Convention : Reuss Voigt Hill
#
# Bulk Modulus (GPa) = 52.40883 55.07998 53.74440
# Shear Modulus (GPa) = 23.25806 29.78723 26.52264
#
# Velocity S-wave (km/s) = 3.42133 3.87189 3.65356
# Velocity P-wave (km/s) = 6.47950 6.90722 6.69678
#
# Compressibility (1/GPa) = 0.01908075
#
# Stress axis : x y z
#
# Youngs Moduli (GPa) = 77.96720 64.05170 62.75630
#
# Poissons Ratio (x) = 0.15294 0.25930
# Poissons Ratio (y) = 0.18617 0.38447
# Poissons Ratio (z) = 0.32215 0.39241
#
# Static dielectric constant tensor:
#      x y z
#    x 1.775800 0.000000 0.006340 
#    y 0.000000 1.688930 0.000000 
#    z 0.006340 0.000000 1.698250 
# 
# From -- ./inp_files/288615.got.cif
#   From: 2010.05.17/outbox.cif.g08.bks.cpg/sg15_145_cif.got.tgz:288615.got - 2010.06.03 18:47:42.
