data_PCOD9290014
_publ_section_title
;
Structure prediction by ZEFSAII (Michael W. Deem and Ramdas Pophale) SiO2 
 PCOD9290014
Probable space group: C 2/C
;
_chemical_formula_sum "Si O2"
_cell_formula_units_Z 56
_cell_length_a 13.450136
_cell_length_b 12.669940
_cell_length_c 32.465648
_cell_angle_alpha 90.000000
_cell_angle_beta 26.254473
_cell_angle_gamma 90.000000
_cell_volume 2447.371447
_symmetry_space_group_name_H-M "C 2/C"
_symmetry_group_IT_number 15
_symmetry_cell_setting 'monoclinic'
loop_
_space_group_symop_operation_xyz
x,y,z
-x,y,1/2-z
-x,-y,-z
x,-y,1/2+z
1/2+x,1/2+y,z
1/2-x,1/2+y,1/2-z
1/2-x,1/2-y,-z
1/2+x,1/2-y,1/2+z
loop_
_atom_site_type_symbol
_atom_site_label
_atom_site_fract_x
_atom_site_fract_y
_atom_site_fract_z
Si Si1 0.751272 0.611834 0.112008
Si Si2 0.168853 0.609283 0.572440
Si Si3 0.580518 0.906616 0.412688
Si Si4 0.727799 0.041060 0.642556
Si Si5 0.994793 0.777165 0.082813
Si Si6 0.339802 0.291785 0.726063
Si Si7 0.342733 0.327362 0.636601
O O1 0.765463 0.496045 0.125585
O O2 0.886914 0.695212 0.089879
O O3 0.494708 0.642415 0.199408
O O4 0.881616 0.610847 0.019821
O O5 0.226480 0.555901 0.594159
O O6 0.390889 0.653753 0.468274
O O7 0.028982 0.550497 0.589045
O O8 0.008352 0.704090 0.645874
O O9 0.697187 0.793800 0.361130
O O10 0.500000 0.082267 0.750000
O O11 0.932754 0.107724 0.586913
O O12 0.740622 0.917371 0.646344
O O13 0.858226 0.761763 0.175682
O O14 0.250000 0.750000 0.000000
O O15 0.268785 0.350914 0.710916
#
# Coordination Sequence:
#
# PCOD9290014 Si02
#       7
#     8   8   8   8   8   8   8
#     4  11  21  43  77 103 143 188 242 292 359 438
#     4  11  20  44  76 102 143 192 235 290 361 437
#     4  10  22  40  73 111 141 188 237 288 362 428
#     4  12  25  46  74 104 150 194 242 292 364 440
#     4  12  27  46  71 109 141 189 247 307 359 425
#     4  11  21  47  76 100 143 189 244 291 360 436
#     4  11  23  43  72 113 142 189 238 299 360 434
#
# _framework density 22.881691
#
# number of rings (size 3 to 8) (size 9 to 14) (size 15 to 20)
#    0.000    0.857    5.714    1.714    2.000    1.143 
#    5.143    1.429    9.429    0.000    0.000    0.000 
#    0.000    0.000    0.000    0.000    0.000    0.000 
#
# Total GULP energy -156672.774218 kJ/mol
# GULP energy per Si atom -5595.456222 kJ/mol
# Density = 2.282961 g / cm^3
# Si number density = 22.881691 Si / 1000 Ang^3
#
#
#
# Elastic Constant Matrix: (Units=GPa)
#
#
# Indices 1 2 3 4 5 6 
#
# 1 136.3332 52.1151 33.3238 -0.0070 27.7718 0.0037
# 2 52.1151 94.3715 7.3909 0.0004 -3.4754 -0.0004
# 3 33.3238 7.3909 95.9991 -0.0330 8.5357 0.0196
# 4 -0.0070 0.0004 -0.0330 18.3559 0.0143 6.7824
# 5 27.7718 -3.4754 8.5357 0.0143 39.0180 -0.0014
# 6 0.0037 -0.0004 0.0196 6.7824 -0.0014 35.3540
#
#
#
# Elastic Compliance Matrix: (Units=1/GPa)
#
#
# Indices 1 2 3 4 5 6 
#
# 1 0.012585 -0.007041 -0.003033 0.000007 -0.008921 -0.000001
# 2 -0.007041 0.014651 0.000769 -0.000007 0.006148 0.000002
# 3 -0.003033 0.000769 0.011435 0.000024 -0.000274 -0.000011
# 4 0.000007 -0.000007 0.000024 0.058635 -0.000033 -0.011249
# 5 -0.008921 0.006148 -0.000274 -0.000033 0.032587 0.000009
# 6 -0.000001 0.000002 -0.000011 -0.011249 0.000009 0.030443
#
#
# Mechanical properties :
#
#
# Convention : Reuss Voigt Hill
#
# Bulk Modulus (GPa) = 49.84733 56.92925 53.38829
# Shear Modulus (GPa) = 26.93493 34.13719 30.53606
#
# Velocity S-wave (km/s) = 3.43467 3.86670 3.65707
# Velocity P-wave (km/s) = 6.12873 6.69843 6.41991
#
# Compressibility (1/GPa) = 0.02006125
#
# Stress axis : x y z
#
# Youngs Moduli (GPa) = 79.45814 68.25546 87.45201
#
# Poissons Ratio (x) = 0.48059 0.26527
# Poissons Ratio (y) = 0.55946 -0.06729
# Poissons Ratio (z) = 0.24102 -0.05252
#
# Static dielectric constant tensor:
#      x y z
#    x 1.898950 0.000000 -0.004340 
#    y 0.000000 1.849780 0.000000 
#    z -0.004340 0.000000 1.871310 
# 
# From -- ./inp_files/311302.got.cif
#   From: 2010.05.17/outbox.cif.g08.bks.cpg/sg15_156_cif.got.tgz:311302.got - 2010.06.03 18:47:42.
