data_PCOD9290140
_publ_section_title
;
Structure prediction by ZEFSAII (Michael W. Deem and Ramdas Pophale) SiO2 
 PCOD9290140
Probable space group: C 2/C
;
_chemical_formula_sum "Si O2"
_cell_formula_units_Z 48
_cell_length_a 25.150330
_cell_length_b 12.076212
_cell_length_c 14.974653
_cell_angle_alpha 90.000000
_cell_angle_beta 28.638416
_cell_angle_gamma 90.000000
_cell_volume 2179.821219
_symmetry_space_group_name_H-M "C 2/C"
_symmetry_group_IT_number 15
_symmetry_cell_setting 'monoclinic'
loop_
_space_group_symop_operation_xyz
x,y,z
-x,y,1/2-z
-x,-y,-z
x,-y,1/2+z
1/2+x,1/2+y,z
1/2-x,1/2+y,1/2-z
1/2-x,1/2-y,-z
1/2+x,1/2-y,1/2+z
loop_
_atom_site_type_symbol
_atom_site_label
_atom_site_fract_x
_atom_site_fract_y
_atom_site_fract_z
Si Si1 0.144458 0.392707 0.853152
Si Si2 0.363728 0.802528 0.448122
Si Si3 0.874338 0.262444 0.779822
Si Si4 0.060885 0.506095 0.756295
Si Si5 0.827636 0.950201 0.005799
Si Si6 0.487715 0.532549 0.623026
O O1 0.134660 0.279325 0.813099
O O2 0.219975 0.478484 0.688423
O O3 0.184067 0.362036 0.893475
O O4 0.025797 0.445632 0.046055
O O5 0.500000 0.782075 0.250000
O O6 0.313183 0.681238 0.522758
O O7 0.351229 0.894727 0.389492
O O8 0.910192 0.381883 0.762747
O O9 0.960726 0.164162 0.671437
O O10 0.750000 0.250000 0.000000
O O11 0.000000 0.497603 0.750000
O O12 0.881736 0.982912 0.831467
O O13 0.911939 0.987641 0.962401
O O14 0.500000 0.500000 0.500000
#
# Coordination Sequence:
#
# PCOD9290140 Si02
#       6
#     8   8   8   8   8   8
#     4  10  22  41  62  95 124 170 217 270 338 392
#     4   9  19  40  66  85 123 170 207 261 322 404
#     4  12  24  40  64  92 134 168 220 276 323 400
#     4   9  23  41  65  91 125 171 216 264 337 394
#     4  11  22  43  67  97 133 171 224 276 341 398
#     4  11  25  40  66  98 134 173 224 274 340 398
#
# _framework density 22.020154000000002
#
# number of rings (size 3 to 8) (size 9 to 14) (size 15 to 20)
#    0.000    2.000    3.333    1.500    4.667    6.667 
#    0.000    0.833    0.000    0.000    0.000    0.000 
#    0.000    0.000    0.000    0.000    0.000    0.000 
#
# Total GULP energy -133828.235951 kJ/mol
# GULP energy per Si atom -5576.176498 kJ/mol
# Density = 2.197003 g / cm^3
# Si number density = 22.020154 Si / 1000 Ang^3
#
#
#
# Elastic Constant Matrix: (Units=GPa)
#
#
# Indices 1 2 3 4 5 6 
#
# 1 61.7772 28.1117 42.7389 0.0000 14.1715 0.0000
# 2 28.1117 183.9014 45.6581 0.0000 8.7369 0.0000
# 3 42.7389 45.6581 104.9286 0.0000 41.3430 0.0000
# 4 0.0000 0.0000 0.0000 41.8230 0.0000 4.1458
# 5 14.1715 8.7369 41.3430 0.0000 30.6580 0.0000
# 6 0.0000 0.0000 0.0000 4.1458 0.0000 25.6304
#
#
#
# Elastic Compliance Matrix: (Units=1/GPa)
#
#
# Indices 1 2 3 4 5 6 
#
# 1 0.022994 -0.001134 -0.010267 0.000000 0.003540 0.000000
# 2 -0.001134 0.006382 -0.003851 0.000000 0.003899 0.000000
# 3 -0.010267 -0.003851 0.027921 0.000000 -0.031809 0.000000
# 4 0.000000 0.000000 0.000000 0.024300 0.000000 -0.003931
# 5 0.003540 0.003899 -0.031809 0.000000 0.072766 0.000000
# 6 0.000000 0.000000 0.000000 -0.003931 0.000000 0.039652
#
#
# Mechanical properties :
#
#
# Convention : Reuss Voigt Hill
#
# Bulk Modulus (GPa) = 37.32415 64.84715 51.08565
# Shear Modulus (GPa) = 21.41778 35.22886 28.32332
#
# Velocity S-wave (km/s) = 3.12211 4.00415 3.59032
# Velocity P-wave (km/s) = 5.47572 7.13376 6.35901
#
# Compressibility (1/GPa) = 0.02679231
#
# Stress axis : x y z
#
# Youngs Moduli (GPa) = 43.48910 156.69000 35.81511
#
# Poissons Ratio (x) = 0.17770 0.36771
# Poissons Ratio (y) = 0.04932 0.13794
# Poissons Ratio (z) = 0.44650 0.60349
#
# Static dielectric constant tensor:
#      x y z
#    x 1.941610 0.000000 -0.014050 
#    y 0.000000 1.846520 0.000000 
#    z -0.014050 0.000000 1.812890 
# 
# From -- ./inp_files/181704.got.cif
#   From: 2010.05.17/outbox.cif.g08.bks.cpg/sg15_91_cif.got.tgz:181704.got - 2010.06.03 18:47:42.
