data_PCOD9290355
_publ_section_title
;
Structure prediction by ZEFSAII (Michael W. Deem and Ramdas Pophale) SiO2 
 PCOD9290355
Probable space group: C 2/C
;
_chemical_formula_sum "Si O2"
_cell_formula_units_Z 52
_cell_length_a 20.675066
_cell_length_b 17.507130
_cell_length_c 9.564857
_cell_angle_alpha 90.000000
_cell_angle_beta 134.581143
_cell_angle_gamma 90.000000
_cell_volume 2465.909470
_symmetry_space_group_name_H-M "C 2/C"
_symmetry_group_IT_number 15
_symmetry_cell_setting 'monoclinic'
loop_
_space_group_symop_operation_xyz
x,y,z
-x,y,1/2-z
-x,-y,-z
x,-y,1/2+z
1/2+x,1/2+y,z
1/2-x,1/2+y,1/2-z
1/2-x,1/2-y,-z
1/2+x,1/2-y,1/2+z
loop_
_atom_site_type_symbol
_atom_site_label
_atom_site_fract_x
_atom_site_fract_y
_atom_site_fract_z
Si Si1 0.155908 0.083195 0.685850
Si Si2 0.277595 0.844176 0.169189
Si Si3 0.106110 0.944131 0.421577
Si Si4 0.020534 0.613457 0.561078
Si Si5 0.500000 0.023947 0.250000
Si Si6 0.973485 0.224064 0.047749
Si Si7 0.833917 0.176955 0.272651
O O1 0.252591 0.100833 0.760325
O O2 0.149138 0.051491 0.832367
O O3 0.105123 0.164493 0.605829
O O4 0.107698 0.023234 0.509417
O O5 0.375605 0.861174 0.253881
O O6 0.279751 0.755443 0.218799
O O7 0.205719 0.853660 0.934465
O O8 0.164399 0.884652 0.602145
O O9 0.000000 0.920857 0.250000
O O10 0.017513 0.588555 0.396852
O O11 0.000291 0.543468 0.630442
O O12 0.957091 0.686847 0.493024
O O13 0.000000 0.216610 0.250000
O O14 0.061553 0.199127 0.093662
#
# Coordination Sequence:
#
# PCOD9290355 Si02
#       7
#     8   8   8   8   4   8   8
#     4  12  25  40  66  95 138 172 223 269 337 390
#     4  10  23  42  63  97 131 173 209 275 332 398
#     4  12  25  41  64  99 131 176 225 279 325 395
#     4  10  23  41  69  93 127 165 221 269 332 381
#     4  10  22  44  66  96 122 168 220 276 312 398
#     4  11  20  38  66  93 121 174 215 259 318 405
#     4  10  22  41  65  92 132 169 223 263 327 394
#
# _framework density 21.087554999999998
#
# number of rings (size 3 to 8) (size 9 to 14) (size 15 to 20)
#    0.000    1.231    3.846    1.846    0.000    5.538 
#    0.000    3.077    0.000    0.000    0.000    0.000 
#    0.000    0.000    0.000    0.000    0.000    0.000 
#
# Total GULP energy -144758.845401 kJ/mol
# GULP energy per Si atom -5567.647900 kJ/mol
# Density = 2.103956 g / cm^3
# Si number density = 21.087555 Si / 1000 Ang^3
#
#
#
# Elastic Constant Matrix: (Units=GPa)
#
#
# Indices 1 2 3 4 5 6 
#
# 1 53.9951 6.5916 25.1003 0.0000 -13.2778 0.0000
# 2 6.5916 79.6939 30.7273 0.0000 -10.2842 0.0000
# 3 25.1003 30.7273 59.3078 0.0000 -25.5527 0.0000
# 4 0.0000 0.0000 0.0000 35.7630 0.0000 -15.6079
# 5 -13.2778 -10.2842 -25.5527 0.0000 42.2770 0.0000
# 6 0.0000 0.0000 0.0000 -15.6079 0.0000 -25.7246
#
#
#
# Elastic Compliance Matrix: (Units=1/GPa)
#
#
# Indices 1 2 3 4 5 6 
#
# 1 0.023487 0.002286 -0.010421 0.000000 0.001634 0.000000
# 2 0.002286 0.015972 -0.009815 0.000000 -0.001329 0.000000
# 3 -0.010421 -0.009815 0.032339 0.000000 0.013886 0.000000
# 4 0.000000 0.000000 0.000000 0.022108 0.000000 -0.013413
# 5 0.001634 -0.001329 0.013886 0.000000 0.032236 0.000000
# 6 0.000000 0.000000 0.000000 -0.013413 0.000000 -0.030735
#
#
# Mechanical properties :
#
#
# Convention : Reuss Voigt Hill
#
# Bulk Modulus (GPa) = 27.85586 35.31501 31.58544
# Shear Modulus (GPa) = 34.89842 19.16826 27.03334
#
# Velocity S-wave (km/s) = 4.07250 3.01821 3.58433
# Velocity P-wave (km/s) = 5.94575 5.37860 5.66927
#
# Compressibility (1/GPa) = 0.03589909
#
# Stress axis : x y z
#
# Youngs Moduli (GPa) = 42.57650 62.61043 30.92212
#
# Poissons Ratio (x) = -0.14313 0.32222
# Poissons Ratio (y) = -0.09733 0.30350
# Poissons Ratio (z) = 0.44367 0.61453
#
# Static dielectric constant tensor:
#      x y z
#    x 1.798700 0.000000 0.026030 
#    y 0.000000 1.795710 0.000000 
#    z 0.026030 0.000000 1.737700 
# 
# From -- ./inp_files/57068.got.cif
#   From: 2010.05.17/outbox.cif.g08.bks.cpg/sg15_29_cif.got.tgz:57068.got - 2010.06.03 18:47:42.
