data_PCOD9290405
_publ_section_title
;
Structure prediction by ZEFSAII (Michael W. Deem and Ramdas Pophale) SiO2 
 PCOD9290405
Probable space group: C 2/C
;
_chemical_formula_sum "Si O2"
_cell_formula_units_Z 32
_cell_length_a 6.759117
_cell_length_b 13.542095
_cell_length_c 15.116193
_cell_angle_alpha 90.000000
_cell_angle_beta 76.091357
_cell_angle_gamma 90.000000
_cell_volume 1343.056967
_symmetry_space_group_name_H-M "C 2/C"
_symmetry_group_IT_number 15
_symmetry_cell_setting 'monoclinic'
loop_
_space_group_symop_operation_xyz
x,y,z
-x,y,1/2-z
-x,-y,-z
x,-y,1/2+z
1/2+x,1/2+y,z
1/2-x,1/2+y,1/2-z
1/2-x,1/2-y,-z
1/2+x,1/2-y,1/2+z
loop_
_atom_site_type_symbol
_atom_site_label
_atom_site_fract_x
_atom_site_fract_y
_atom_site_fract_z
Si Si1 0.236864 0.192015 0.240132
Si Si2 0.788888 0.551779 0.595778
Si Si3 0.500000 0.370163 0.250000
Si Si4 0.000000 0.475154 0.750000
Si Si5 0.876702 0.339565 0.529938
O O1 0.308449 0.297246 0.265944
O O2 0.312839 0.099787 0.289140
O O3 0.359260 0.182824 0.135169
O O4 0.000000 0.187477 0.250000
O O5 0.561360 0.567937 0.657762
O O6 0.928381 0.531532 0.669480
O O7 0.789179 0.452315 0.536331
O O8 0.897502 0.641957 0.533052
O O9 0.750000 0.250000 0.500000
#
# Coordination Sequence:
#
# PCOD9290405 Si02
#       5
#     8   8   4   4   8
#     4  10  22  43  68  93 130 178 224 271 329 398
#     4  10  23  42  64  98 135 170 224 277 333 403
#     4  11  24  40  67  98 130 176 219 272 332 399
#     4   9  22  40  65  92 130 172 223 274 326 395
#     4  10  22  41  65  96 132 174 222 275 334 397
#
# _framework density 23.826241
#
# number of rings (size 3 to 8) (size 9 to 14) (size 15 to 20)
#    0.000    2.000    0.000    1.500   12.250    1.000 
#    0.000    7.500    0.000    0.000    0.000    0.000 
#    0.000    0.000    0.000    0.000    0.000    0.000 
#
# Total GULP energy -89235.611938 kJ/mol
# GULP energy per Si atom -5577.225746 kJ/mol
# Density = 2.377201 g / cm^3
# Si number density = 23.826241 Si / 1000 Ang^3
#
#
#
# Elastic Constant Matrix: (Units=GPa)
#
#
# Indices 1 2 3 4 5 6 
#
# 1 103.7759 44.0270 8.6357 0.0000 -11.4569 0.0000
# 2 44.0270 114.9015 35.4612 0.0000 -12.7025 0.0000
# 3 8.6357 35.4612 97.7390 0.0000 -23.0346 0.0000
# 4 0.0000 0.0000 0.0000 -66.7267 0.0000 131.8047
# 5 -11.4569 -12.7025 -23.0346 0.0000 41.9347 0.0000
# 6 0.0000 0.0000 0.0000 131.8047 0.0000 -185.4702
#
#
#
# Elastic Compliance Matrix: (Units=1/GPa)
#
#
# Indices 1 2 3 4 5 6 
#
# 1 0.011765 -0.004609 0.001219 0.000000 0.002488 0.000000
# 2 -0.004609 0.011656 -0.003775 0.000000 0.000198 0.000000
# 3 0.001219 -0.003775 0.012983 0.000000 0.006321 0.000000
# 4 0.000000 0.000000 0.000000 0.037119 0.000000 0.026378
# 5 0.002488 0.000198 0.006321 0.000000 0.028058 0.000000
# 6 0.000000 0.000000 0.000000 0.026378 0.000000 0.013354
#
#
# Mechanical properties :
#
#
# Convention : Reuss Voigt Hill
#
# Bulk Modulus (GPa) = 45.30321 54.74048 50.02184
# Shear Modulus (GPa) = 36.59695 -26.83292 4.88201
#
# Velocity S-wave (km/s) = 3.92343 -3.35952 1.43299
# Velocity P-wave (km/s) = 6.29124 2.82423 4.87626
#
# Compressibility (1/GPa) = 0.02207349
#
# Stress axis : x y z
#
# Youngs Moduli (GPa) = 84.99946 85.79141 77.02370
#
# Poissons Ratio (x) = 0.39543 -0.09390
# Poissons Ratio (y) = 0.39178 0.29078
# Poissons Ratio (z) = -0.10362 0.32388
#
# Static dielectric constant tensor:
#      x y z
#    x 1.924910 0.000000 0.029230 
#    y 0.000000 2.045270 0.000000 
#    z 0.029230 0.000000 2.332610 
# 
# From -- ./inp_files/183741.got.cif
#   From: 2010.05.17/outbox.cif.g08.bks.cpg/sg15_92_cif.got.tgz:183741.got - 2010.06.03 18:47:42.
