data_PCOD9290717
_publ_section_title
;
Structure prediction by ZEFSAII (Michael W. Deem and Ramdas Pophale) SiO2 
 PCOD9290717
Probable space group: C 2/C
;
_chemical_formula_sum "Si O2"
_cell_formula_units_Z 52
_cell_length_a 20.218882
_cell_length_b 18.517902
_cell_length_c 5.610095
_cell_angle_alpha 90.000000
_cell_angle_beta 99.079978
_cell_angle_gamma 90.000000
_cell_volume 2074.161705
_symmetry_space_group_name_H-M "C 2/C"
_symmetry_group_IT_number 15
_symmetry_cell_setting 'monoclinic'
loop_
_space_group_symop_operation_xyz
x,y,z
-x,y,1/2-z
-x,-y,-z
x,-y,1/2+z
1/2+x,1/2+y,z
1/2-x,1/2+y,1/2-z
1/2-x,1/2-y,-z
1/2+x,1/2-y,1/2+z
loop_
_atom_site_type_symbol
_atom_site_label
_atom_site_fract_x
_atom_site_fract_y
_atom_site_fract_z
Si Si1 0.673079 0.288741 0.188911
Si Si2 0.878606 0.329403 0.117789
Si Si3 0.973157 0.581744 0.478395
Si Si4 0.000000 0.225681 0.250000
Si Si5 0.199022 0.042489 0.145385
Si Si6 0.296115 0.848849 0.479493
Si Si7 0.566566 0.620969 0.900406
O O1 0.682030 0.227680 0.398033
O O2 0.735641 0.340887 0.254074
O O3 0.608608 0.337204 0.218007
O O4 0.672679 0.236468 0.961809
O O5 0.895196 0.395390 0.948140
O O6 0.859945 0.367938 0.354131
O O7 0.942681 0.277523 0.116873
O O8 0.000000 0.605612 0.750000
O O9 0.000000 0.500000 0.500000
O O10 0.000000 0.614943 0.250000
O O11 0.964386 0.178015 0.431430
O O12 0.258400 0.101364 0.148997
O O13 0.124057 0.075940 0.070309
O O14 0.205389 0.993152 0.909691
O O15 0.500000 0.583541 0.750000
#
# Coordination Sequence:
#
# PCOD9290717 Si02
#       7
#     8   8   8   4   8   8   8
#     4  10  22  41  69 104 138 172 233 290 366 417
#     4  12  23  38  72  99 145 180 233 286 362 419
#     4  10  24  44  62  93 139 185 228 274 326 404
#     4  12  24  38  68 114 142 176 236 292 374 442
#     4  11  29  53  73 101 144 192 251 297 344 425
#     4  10  24  45  68 101 135 184 230 297 353 414
#     4  11  24  43  72 107 144 183 230 302 368 434
#
# _framework density 25.070367999999998
#
# number of rings (size 3 to 8) (size 9 to 14) (size 15 to 20)
#    0.000    1.231    3.846    0.462    8.615    0.615 
#    5.538    0.000    0.000    0.000    0.000    0.000 
#    0.000    0.000    0.000    0.000    0.000    0.000 
#
# Total GULP energy -144804.311203 kJ/mol
# GULP energy per Si atom -5569.396585 kJ/mol
# Density = 2.501331 g / cm^3
# Si number density = 25.070368 Si / 1000 Ang^3
#
#
#
# Elastic Constant Matrix: (Units=GPa)
#
#
# Indices 1 2 3 4 5 6 
#
# 1 100.2927 7.0279 9.6210 0.0000 -12.2178 0.0000
# 2 7.0279 39.1640 2.1952 0.0000 -2.5820 0.0000
# 3 9.6210 2.1952 83.8959 0.0000 -15.3198 0.0000
# 4 0.0000 0.0000 0.0000 11.9288 0.0000 4.0235
# 5 -12.2178 -2.5820 -15.3198 0.0000 43.0017 0.0000
# 6 0.0000 0.0000 0.0000 4.0235 0.0000 -1.8453
#
#
#
# Elastic Compliance Matrix: (Units=1/GPa)
#
#
# Indices 1 2 3 4 5 6 
#
# 1 0.010474 -0.001668 -0.000676 0.000000 0.002635 0.000000
# 2 -0.001668 0.025914 -0.000309 0.000000 0.000972 0.000000
# 3 -0.000676 -0.000309 0.012799 0.000000 0.004349 0.000000
# 4 0.000000 0.000000 0.000000 0.048305 0.000000 0.105326
# 5 0.002635 0.000972 0.004349 0.000000 0.025611 0.000000
# 6 0.000000 0.000000 0.000000 0.105326 0.000000 -0.312271
#
#
# Mechanical properties :
#
#
# Convention : Reuss Voigt Hill
#
# Bulk Modulus (GPa) = 22.78931 29.00454 25.89693
# Shear Modulus (GPa) = -29.54497 24.25094 -2.64701
#
# Velocity S-wave (km/s) = -3.43663 3.11354 -1.02865
# Velocity P-wave (km/s) = 2.57630 4.95176 2.99020
#
# Compressibility (1/GPa) = 0.04388022
#
# Stress axis : x y z
#
# Youngs Moduli (GPa) = 95.47877 38.58867 78.12890
#
# Poissons Ratio (x) = 0.06436 0.05284
# Poissons Ratio (y) = 0.15924 0.02417
# Poissons Ratio (z) = 0.06458 0.01194
#
# Static dielectric constant tensor:
#      x y z
#    x 2.248650 0.000000 0.204480 
#    y 0.000000 2.330340 0.000000 
#    z 0.204480 0.000000 2.121920 
# 
# From -- ./inp_files/13375.got.cif
#   From: 2010.05.17/outbox.cif.g08.bks.cpg/sg15_7_cif.got.tgz:13375.got - 2010.06.03 18:47:42.
