data_PCOD9290535
_publ_section_title
;
Structure prediction by ZEFSAII (Michael W. Deem and Ramdas Pophale) SiO2 
 PCOD9290535
Probable space group: C 2/C
;
_chemical_formula_sum "Si O2"
_cell_formula_units_Z 48
_cell_length_a 19.028256
_cell_length_b 23.245307
_cell_length_c 5.484123
_cell_angle_alpha 90.000000
_cell_angle_beta 131.077532
_cell_angle_gamma 90.000000
_cell_volume 1828.562287
_symmetry_space_group_name_H-M "C 2/C"
_symmetry_group_IT_number 15
_symmetry_cell_setting 'monoclinic'
loop_
_space_group_symop_operation_xyz
x,y,z
-x,y,1/2-z
-x,-y,-z
x,-y,1/2+z
1/2+x,1/2+y,z
1/2-x,1/2+y,1/2-z
1/2-x,1/2-y,-z
1/2+x,1/2-y,1/2+z
loop_
_atom_site_type_symbol
_atom_site_label
_atom_site_fract_x
_atom_site_fract_y
_atom_site_fract_z
Si Si1 0.871502 0.976289 0.832475
Si Si2 0.844878 0.476236 0.191313
Si Si3 0.610224 0.144266 0.480345
Si Si4 0.748619 0.317862 0.574126
Si Si5 0.896909 0.770334 0.894062
Si Si6 0.897492 0.869018 0.585407
O O1 0.762546 0.993623 0.595941
O O2 0.875720 0.910614 0.759316
O O3 0.910117 0.011641 0.688144
O O4 0.886530 0.511608 0.517101
O O5 0.846607 0.410433 0.286044
O O6 0.500000 0.135034 0.250000
O O7 0.651466 0.158191 0.302961
O O8 0.628276 0.203680 0.666128
O O9 0.750000 0.250000 0.500000
O O10 0.686855 0.306300 0.674587
O O11 0.683959 0.366773 0.295790
O O12 0.000000 0.776442 0.250000
O O13 0.905162 0.801166 0.657187
O O14 0.000000 0.888115 0.750000
#
# Coordination Sequence:
#
# PCOD9290535 Si02
#       6
#     8   8   8   8   8   8
#     4  10  24  43  66  99 137 182 234 289 345 413
#     4  10  22  44  70  97 133 181 236 289 347 412
#     4  10  22  43  66 100 135 179 232 287 346 413
#     4  10  22  42  65  96 137 179 220 281 344 412
#     4  10  22  41  67 100 142 175 225 281 346 419
#     4  12  24  40  70 102 135 181 230 280 348 421
#
# _framework density 26.250132000000001
#
# number of rings (size 3 to 8) (size 9 to 14) (size 15 to 20)
#    0.000    1.667    3.333    0.000    2.333    5.333 
#    6.000    0.000    0.000    0.000    0.000    0.000 
#    0.000    0.000    0.000    0.000    0.000    0.000 
#
# Total GULP energy -133878.549005 kJ/mol
# GULP energy per Si atom -5578.272875 kJ/mol
# Density = 2.619039 g / cm^3
# Si number density = 26.250132 Si / 1000 Ang^3
#
#
#
# Elastic Constant Matrix: (Units=GPa)
#
#
# Indices 1 2 3 4 5 6 
#
# 1 125.8105 2.4010 55.6025 0.0000 28.1912 0.0000
# 2 2.4010 120.9009 31.3973 0.0000 -5.9343 0.0000
# 3 55.6025 31.3973 96.2465 0.0000 9.4669 0.0000
# 4 0.0000 0.0000 0.0000 32.8755 0.0000 -11.8996
# 5 28.1912 -5.9343 9.4669 0.0000 29.5465 0.0000
# 6 0.0000 0.0000 0.0000 -11.8996 0.0000 28.0654
#
#
#
# Elastic Compliance Matrix: (Units=1/GPa)
#
#
# Indices 1 2 3 4 5 6 
#
# 1 0.013340 0.001061 -0.007044 0.000000 -0.010258 0.000000
# 2 0.001061 0.009360 -0.003873 0.000000 0.002109 0.000000
# 3 -0.007044 -0.003873 0.015631 0.000000 0.000934 0.000000
# 4 0.000000 0.000000 0.000000 0.035932 0.000000 0.015235
# 5 -0.010258 0.002109 0.000934 0.000000 0.043757 0.000000
# 6 0.000000 0.000000 0.000000 0.015235 0.000000 0.042091
#
#
# Mechanical properties :
#
#
# Convention : Reuss Voigt Hill
#
# Bulk Modulus (GPa) = 53.71272 57.97327 55.84300
# Shear Modulus (GPa) = 26.87768 35.00130 30.93949
#
# Velocity S-wave (km/s) = 3.20333 3.65550 3.43686
# Velocity P-wave (km/s) = 5.84705 6.32059 6.08843
#
# Compressibility (1/GPa) = 0.01861756
#
# Stress axis : x y z
#
# Youngs Moduli (GPa) = 74.96429 106.84206 63.97627
#
# Poissons Ratio (x) = -0.11333 0.45062
# Poissons Ratio (y) = -0.07952 0.24781
# Poissons Ratio (z) = 0.52801 0.41385
#
# Static dielectric constant tensor:
#      x y z
#    x 2.388190 0.000000 -0.096020 
#    y 0.000000 2.010650 0.000000 
#    z -0.096020 0.000000 2.261850 
# 
# From -- ./inp_files/13622.got.cif
#   From: 2010.05.17/outbox.cif.g08.bks.cpg/sg15_7_cif.got.tgz:13622.got - 2010.06.03 18:47:42.
