data_PCOD9290381
_publ_section_title
;
Structure prediction by ZEFSAII (Michael W. Deem and Ramdas Pophale) SiO2 
 PCOD9290381
Probable space group: C 2/C
;
_chemical_formula_sum "Si O2"
_cell_formula_units_Z 44
_cell_length_a 30.454287
_cell_length_b 12.303267
_cell_length_c 19.102995
_cell_angle_alpha 90.000000
_cell_angle_beta 16.470025
_cell_angle_gamma 90.000000
_cell_volume 2029.291226
_symmetry_space_group_name_H-M "C 2/C"
_symmetry_group_IT_number 15
_symmetry_cell_setting 'monoclinic'
loop_
_space_group_symop_operation_xyz
x,y,z
-x,y,1/2-z
-x,-y,-z
x,-y,1/2+z
1/2+x,1/2+y,z
1/2-x,1/2+y,1/2-z
1/2-x,1/2-y,-z
1/2+x,1/2-y,1/2+z
loop_
_atom_site_type_symbol
_atom_site_label
_atom_site_fract_x
_atom_site_fract_y
_atom_site_fract_z
Si Si1 0.613684 0.704930 0.754799
Si Si2 0.500000 0.636160 0.250000
Si Si3 0.813262 0.991242 0.275838
Si Si4 0.933362 0.610538 0.066363
Si Si5 0.627620 0.447045 0.961168
Si Si6 0.141143 0.318569 0.118403
O O1 0.750000 0.750000 0.500000
O O2 0.708398 0.627854 0.663072
O O3 0.536590 0.795248 0.922329
O O4 0.492141 0.639544 0.890438
O O5 0.457250 0.553225 0.377386
O O6 0.621444 0.726976 0.088243
O O7 0.775540 0.010371 0.253263
O O8 0.721705 0.077133 0.462002
O O9 0.000000 0.000000 0.000000
O O10 0.748885 0.596852 0.333062
O O11 0.000000 0.500000 0.000000
O O12 0.007311 0.642679 0.877548
O O13 0.250000 0.250000 0.000000
#
# Coordination Sequence:
#
# PCOD9290381 Si02
#       6
#     8   4   8   8   8   8
#     4  11  23  44  70 100 138 183 231 288 354 430
#     4  12  24  42  70  98 130 178 232 286 350 428
#     4  10  22  41  65  94 130 172 221 282 352 419
#     4  12  26  43  68 102 140 185 236 293 360 438
#     4  11  24  44  65  97 137 179 228 289 358 423
#     4  12  23  41  66  96 129 172 228 287 344 421
#
# _framework density 21.682447
#
# number of rings (size 3 to 8) (size 9 to 14) (size 15 to 20)
#    0.000    0.727    0.000    9.818    0.000    2.909 
#    0.000    3.636    0.000    0.000    0.000    0.000 
#    0.000    0.000    0.000    0.000    0.000    0.000 
#
# Total GULP energy -122625.857409 kJ/mol
# GULP energy per Si atom -5573.902610 kJ/mol
# Density = 2.163310 g / cm^3
# Si number density = 21.682447 Si / 1000 Ang^3
#
#
#
# Elastic Constant Matrix: (Units=GPa)
#
#
# Indices 1 2 3 4 5 6 
#
# 1 86.2979 47.2927 14.5391 0.0003 -3.9170 -0.0001
# 2 47.2927 167.7557 50.3993 0.0003 13.3236 -0.0002
# 3 14.5391 50.3993 80.2602 0.0005 22.7221 -0.0002
# 4 0.0003 0.0003 0.0005 45.9178 -0.0003 11.2529
# 5 -3.9170 13.3236 22.7221 -0.0003 47.5456 0.0001
# 6 -0.0001 -0.0002 -0.0002 11.2529 0.0001 60.3906
#
#
#
# Elastic Compliance Matrix: (Units=1/GPa)
#
#
# Indices 1 2 3 4 5 6 
#
# 1 0.013987 -0.003903 -0.000831 0.000000 0.002643 0.000000
# 2 -0.003903 0.008438 -0.004430 0.000000 -0.000569 0.000000
# 3 -0.000831 -0.004430 0.017416 0.000000 -0.007150 0.000000
# 4 0.000000 0.000000 0.000000 0.022820 0.000000 -0.004252
# 5 0.002643 -0.000569 -0.007150 0.000000 0.024827 0.000000
# 6 0.000000 0.000000 0.000000 -0.004252 0.000000 0.017351
#
#
# Mechanical properties :
#
#
# Convention : Reuss Voigt Hill
#
# Bulk Modulus (GPa) = 46.48654 62.08623 54.28639
# Shear Modulus (GPa) = 38.36167 45.57631 41.96899
#
# Velocity S-wave (km/s) = 4.21081 4.58972 4.40434
# Velocity P-wave (km/s) = 6.71770 7.53551 7.13832
#
# Compressibility (1/GPa) = 0.02151160
#
# Stress axis : x y z
#
# Youngs Moduli (GPa) = 71.49572 118.51637 57.41769
#
# Poissons Ratio (x) = 0.46262 0.04771
# Poissons Ratio (y) = 0.27908 0.25438
# Poissons Ratio (z) = 0.05941 0.52506
#
# Static dielectric constant tensor:
#      x y z
#    x 1.735600 0.000000 -0.010520 
#    y 0.000000 1.859870 0.000000 
#    z -0.010520 0.000000 1.795750 
# 
# From -- ./inp_files/225119.got.cif
#   From: 2010.05.17/outbox.cif.g08.bks.cpg/sg15_113_cif.got.tgz:225119.got - 2010.06.03 18:47:42.
