data_PCOD9290815
_publ_section_title
;
Structure prediction by ZEFSAII (Michael W. Deem and Ramdas Pophale) SiO2 
 PCOD9290815
Probable space group: C 2/C
;
_chemical_formula_sum "Si O2"
_cell_formula_units_Z 32
_cell_length_a 10.292930
_cell_length_b 10.405868
_cell_length_c 26.334300
_cell_angle_alpha 90.000000
_cell_angle_beta 153.408227
_cell_angle_gamma 90.000000
_cell_volume 1262.580182
_symmetry_space_group_name_H-M "C 2/C"
_symmetry_group_IT_number 15
_symmetry_cell_setting 'monoclinic'
loop_
_space_group_symop_operation_xyz
x,y,z
-x,y,1/2-z
-x,-y,-z
x,-y,1/2+z
1/2+x,1/2+y,z
1/2-x,1/2+y,1/2-z
1/2-x,1/2-y,-z
1/2+x,1/2-y,1/2+z
loop_
_atom_site_type_symbol
_atom_site_label
_atom_site_fract_x
_atom_site_fract_y
_atom_site_fract_z
Si Si1 0.871999 0.621250 0.104102
Si Si2 0.092403 0.779208 0.651542
Si Si3 0.930566 0.447578 0.031617
Si Si4 0.231959 0.635029 0.874039
O O1 0.599534 0.816101 0.106063
O O2 0.793898 0.514359 0.119614
O O3 0.107810 0.707117 0.214389
O O4 0.006044 0.549469 0.102039
O O5 0.914818 0.912553 0.582318
O O6 0.876428 0.708046 0.614472
O O7 0.438748 0.325271 0.021821
O O8 0.000000 0.500000 0.000000
O O9 0.000000 0.663575 0.750000
#
# Coordination Sequence:
#
# PCOD9290815 Si02
#       4
#     8   8   8   8
#     4  10  22  44  71  97 140 192 240 297 369 444
#     4  10  23  45  68 106 146 184 251 306 363 439
#     4  10  23  45  71 104 147 192 240 305 367 441
#     4  10  22  41  70  98 137 193 239 295 370 438
#
# _framework density 25.344925
#
# number of rings (size 3 to 8) (size 9 to 14) (size 15 to 20)
#    0.000    2.000    0.000    1.500    3.500    3.000 
#   13.500    0.000    0.000    0.000    0.000    0.000 
#    0.000    0.000    0.000    0.000    0.000    0.000 
#
# Total GULP energy -89591.095407 kJ/mol
# GULP energy per Si atom -5599.443463 kJ/mol
# Density = 2.528724 g / cm^3
# Si number density = 25.344925 Si / 1000 Ang^3
#
#
#
# Elastic Constant Matrix: (Units=GPa)
#
#
# Indices 1 2 3 4 5 6 
#
# 1 140.8625 48.7533 63.3259 0.0001 -16.9984 0.0000
# 2 48.7533 75.7487 57.4721 0.0001 -2.1304 0.0000
# 3 63.3259 57.4721 231.8728 0.0001 -5.2742 0.0001
# 4 0.0001 0.0001 0.0001 45.7087 0.0001 -17.9955
# 5 -16.9984 -2.1304 -5.2742 0.0001 44.3526 0.0001
# 6 0.0000 0.0000 0.0001 -17.9955 0.0001 27.8806
#
#
#
# Elastic Compliance Matrix: (Units=1/GPa)
#
#
# Indices 1 2 3 4 5 6 
#
# 1 0.009937 -0.005296 -0.001324 0.000000 0.003397 0.000000
# 2 -0.005296 0.019085 -0.003319 0.000000 -0.001507 0.000000
# 3 -0.001324 -0.003319 0.005497 0.000000 -0.000013 0.000000
# 4 0.000000 0.000000 0.000000 0.029331 0.000000 0.018932
# 5 0.003397 -0.001507 -0.000013 0.000000 0.023774 0.000000
# 6 0.000000 0.000000 0.000000 0.018932 0.000000 0.048087
#
#
# Mechanical properties :
#
#
# Convention : Reuss Voigt Hill
#
# Bulk Modulus (GPa) = 68.29377 87.50963 77.90170
# Shear Modulus (GPa) = 31.15880 42.18389 36.67135
#
# Velocity S-wave (km/s) = 3.51007 4.08412 3.80793
# Velocity P-wave (km/s) = 6.59027 7.53940 7.08076
#
# Compressibility (1/GPa) = 0.01464263
#
# Stress axis : x y z
#
# Youngs Moduli (GPa) = 100.63333 52.39629 181.93241
#
# Poissons Ratio (x) = 0.27747 0.24089
# Poissons Ratio (y) = 0.53291 0.60375
# Poissons Ratio (z) = 0.13324 0.17388
#
# Static dielectric constant tensor:
#      x y z
#    x 1.972190 0.000000 0.022830 
#    y 0.000000 2.158210 0.000000 
#    z 0.022830 0.000000 1.998200 
# 
# From -- ./inp_files/263399.got.cif
#   From: 2010.05.17/outbox.cif.g08.bks.cpg/sg15_132_cif.got.tgz:263399.got - 2010.06.03 18:47:42.
