data_PCOD9290507
_publ_section_title
;
Structure prediction by ZEFSAII (Michael W. Deem and Ramdas Pophale) SiO2 
 PCOD9290507
Probable space group: C 2/C
;
_chemical_formula_sum "Si O2"
_cell_formula_units_Z 60
_cell_length_a 8.950363
_cell_length_b 10.853791
_cell_length_c 27.740759
_cell_angle_alpha 90.000000
_cell_angle_beta 107.567455
_cell_angle_gamma 90.000000
_cell_volume 2569.202889
_symmetry_space_group_name_H-M "C 2/C"
_symmetry_group_IT_number 15
_symmetry_cell_setting 'monoclinic'
loop_
_space_group_symop_operation_xyz
x,y,z
-x,y,1/2-z
-x,-y,-z
x,-y,1/2+z
1/2+x,1/2+y,z
1/2-x,1/2+y,1/2-z
1/2-x,1/2-y,-z
1/2+x,1/2-y,1/2+z
loop_
_atom_site_type_symbol
_atom_site_label
_atom_site_fract_x
_atom_site_fract_y
_atom_site_fract_z
Si Si1 0.500000 0.514078 0.250000
Si Si2 0.117272 0.926115 0.161443
Si Si3 0.027026 0.404235 0.547901
Si Si4 0.091845 0.174905 0.495479
Si Si5 0.200849 0.313546 0.714585
Si Si6 0.250971 0.705915 0.427237
Si Si7 0.342529 0.840658 0.683249
Si Si8 0.330642 0.468344 0.062425
O O1 0.533919 0.438073 0.205264
O O2 0.652027 0.597491 0.276114
O O3 0.245361 0.033155 0.171400
O O4 0.990712 0.949993 0.107573
O O5 0.198035 0.792997 0.174118
O O6 0.045820 0.258867 0.536724
O O7 0.199449 0.454508 0.579734
O O8 0.000000 0.500000 0.500000
O O9 0.876926 0.396655 0.568610
O O10 0.250000 0.250000 0.500000
O O11 0.142094 0.036565 0.486095
O O12 0.935413 0.181217 0.447861
O O13 0.204716 0.273700 0.771634
O O14 0.026531 0.370817 0.696652
O O15 0.205799 0.736287 0.367963
O O16 0.234839 0.833564 0.454146
#
# Coordination Sequence:
#
# PCOD9290507 Si02
#       8
#     4   8   8   8   8   8   8   8
#     4  10  24  38  66  92 132 172 214 266 322 398
#     4  11  22  41  65  98 130 174 215 267 331 386
#     4  11  25  45  67  98 132 179 228 277 343 399
#     4  10  23  45  67  99 134 173 224 279 340 406
#     4  10  22  42  63  94 135 171 214 267 327 391
#     4  12  23  44  71  96 137 175 222 284 330 405
#     4  10  22  41  66  97 130 169 221 264 330 394
#     4  11  24  41  68  97 135 170 225 277 334 402
#
# _framework density 23.353548
#
# number of rings (size 3 to 8) (size 9 to 14) (size 15 to 20)
#    0.000    1.333    4.000    1.200    1.867    2.667 
#    4.800    4.000    0.000    0.000    0.000    0.000 
#    0.000    0.000    0.000    0.000    0.000    0.000 
#
# Total GULP energy -167238.069458 kJ/mol
# GULP energy per Si atom -5574.602315 kJ/mol
# Density = 2.330039 g / cm^3
# Si number density = 23.353548 Si / 1000 Ang^3
#
#
#
# Elastic Constant Matrix: (Units=GPa)
#
#
# Indices 1 2 3 4 5 6 
#
# 1 95.7283 17.9603 26.2249 0.0000 16.2399 0.0000
# 2 17.9603 81.2788 31.7073 0.0000 2.2189 0.0000
# 3 26.2249 31.7073 79.3266 0.0000 19.9196 0.0000
# 4 0.0000 0.0000 0.0000 36.1792 0.0000 6.9231
# 5 16.2399 2.2189 19.9196 0.0000 31.9196 0.0000
# 6 0.0000 0.0000 0.0000 6.9231 0.0000 43.0001
#
#
#
# Elastic Compliance Matrix: (Units=1/GPa)
#
#
# Indices 1 2 3 4 5 6 
#
# 1 0.012159 -0.001721 -0.002144 0.000000 -0.004728 0.000000
# 2 -0.001721 0.015085 -0.006424 0.000000 0.003836 0.000000
# 3 -0.002144 -0.006424 0.018376 0.000000 -0.009930 0.000000
# 4 0.000000 0.000000 0.000000 0.028519 0.000000 -0.004592
# 5 -0.004728 0.003836 -0.009930 0.000000 0.039665 0.000000
# 6 0.000000 0.000000 0.000000 -0.004592 0.000000 0.023995
#
#
# Mechanical properties :
#
#
# Convention : Reuss Voigt Hill
#
# Bulk Modulus (GPa) = 39.93397 45.34654 42.64026
# Shear Modulus (GPa) = 29.98971 34.24918 32.11944
#
# Velocity S-wave (km/s) = 3.58741 3.83371 3.71260
# Velocity P-wave (km/s) = 5.85629 6.24948 6.05608
#
# Compressibility (1/GPa) = 0.02504134
#
# Stress axis : x y z
#
# Youngs Moduli (GPa) = 82.24554 66.29155 54.41819
#
# Poissons Ratio (x) = 0.11410 0.11669
# Poissons Ratio (y) = 0.14155 0.34957
# Poissons Ratio (z) = 0.17637 0.42584
#
# Static dielectric constant tensor:
#      x y z
#    x 1.988870 0.000000 -0.060580 
#    y 0.000000 1.920100 0.000000 
#    z -0.060580 0.000000 1.976850 
# 
# From -- ./inp_files/307523.got.cif
#   From: 2010.05.17/outbox.cif.g08.bks.cpg/sg15_154_cif.got.tgz:307523.got - 2010.06.03 18:47:42.
