data_PCOD9290509
_publ_section_title
;
Structure prediction by ZEFSAII (Michael W. Deem and Ramdas Pophale) SiO2 
 PCOD9290509
Probable space group: C 2/C
;
_chemical_formula_sum "Si O2"
_cell_formula_units_Z 44
_cell_length_a 6.941052
_cell_length_b 19.547596
_cell_length_c 18.843962
_cell_angle_alpha 90.000000
_cell_angle_beta 132.591714
_cell_angle_gamma 90.000000
_cell_volume 1882.277787
_symmetry_space_group_name_H-M "C 2/C"
_symmetry_group_IT_number 15
_symmetry_cell_setting 'monoclinic'
loop_
_space_group_symop_operation_xyz
x,y,z
-x,y,1/2-z
-x,-y,-z
x,-y,1/2+z
1/2+x,1/2+y,z
1/2-x,1/2+y,1/2-z
1/2-x,1/2-y,-z
1/2+x,1/2-y,1/2+z
loop_
_atom_site_type_symbol
_atom_site_label
_atom_site_fract_x
_atom_site_fract_y
_atom_site_fract_z
Si Si1 0.710197 0.131819 0.151690
Si Si2 0.148591 0.748264 0.393264
Si Si3 0.452245 0.890868 0.160641
Si Si4 0.500000 0.634306 0.750000
Si Si5 0.101037 0.155755 0.455192
Si Si6 0.828883 0.456012 0.637768
O O1 0.596289 0.196287 0.166655
O O2 0.738383 0.152893 0.077035
O O3 0.497277 0.072858 0.113748
O O4 0.000000 0.112540 0.250000
O O5 0.250000 0.750000 0.500000
O O6 0.382915 0.714011 0.406831
O O7 0.064744 0.817587 0.333934
O O8 0.500000 0.860627 0.250000
O O9 0.738241 0.907058 0.200627
O O10 0.302028 0.962676 0.130344
O O11 0.293683 0.841600 0.069969
O O12 0.938039 0.085226 0.421496
O O13 0.000000 0.438981 0.750000
#
# Coordination Sequence:
#
# PCOD9290509 Si02
#       6
#     8   8   8   4   8   8
#     4  11  22  38  68  94 124 168 211 274 326 378
#     4  11  25  42  62  93 131 166 224 269 316 393
#     4  11  26  43  65  93 135 175 216 268 332 390
#     4  12  26  42  64  96 134 176 218 266 328 392
#     4  11  23  42  68  96 125 174 220 271 329 385
#     4  10  22  41  66  97 131 164 218 274 325 395
#
# _framework density 23.375934000000001
#
# number of rings (size 3 to 8) (size 9 to 14) (size 15 to 20)
#    0.000    1.091    1.818    3.818    3.818    8.727 
#    0.000    0.000    0.000    0.000    0.000    0.000 
#    0.000    0.000    0.000    0.000    0.000    0.000 
#
# Total GULP energy -123207.070086 kJ/mol
# GULP energy per Si atom -5600.321368 kJ/mol
# Density = 2.332273 g / cm^3
# Si number density = 23.375934 Si / 1000 Ang^3
#
#
#
# Elastic Constant Matrix: (Units=GPa)
#
#
# Indices 1 2 3 4 5 6 
#
# 1 114.4437 12.9587 13.3162 0.0000 -9.8385 0.0000
# 2 12.9587 48.0745 6.3230 0.0000 -3.1356 0.0000
# 3 13.3162 6.3230 89.9992 0.0000 -20.6207 0.0000
# 4 0.0000 0.0000 0.0000 22.8083 0.0000 6.7086
# 5 -9.8385 -3.1356 -20.6207 0.0000 40.6485 0.0000
# 6 0.0000 0.0000 0.0000 6.7086 0.0000 23.9801
#
#
#
# Elastic Compliance Matrix: (Units=1/GPa)
#
#
# Indices 1 2 3 4 5 6 
#
# 1 0.009233 -0.002273 -0.000831 0.000000 0.001638 0.000000
# 2 -0.002273 0.021589 -0.001047 0.000000 0.000584 0.000000
# 3 -0.000831 -0.001047 0.012722 0.000000 0.006172 0.000000
# 4 0.000000 0.000000 0.000000 0.047775 0.000000 -0.013365
# 5 0.001638 0.000584 0.006172 0.000000 0.028174 0.000000
# 6 0.000000 0.000000 0.000000 -0.013365 0.000000 0.045440
#
#
# Mechanical properties :
#
#
# Convention : Reuss Voigt Hill
#
# Bulk Modulus (GPa) = 28.37430 35.30147 31.83789
# Shear Modulus (GPa) = 27.02977 32.14869 29.58923
#
# Velocity S-wave (km/s) = 3.40414 3.71251 3.56167
# Velocity P-wave (km/s) = 5.25505 5.78890 5.52842
#
# Compressibility (1/GPa) = 0.03524315
#
# Stress axis : x y z
#
# Youngs Moduli (GPa) = 108.31006 46.31900 78.60525
#
# Poissons Ratio (x) = 0.10526 0.06533
# Poissons Ratio (y) = 0.24614 0.08227
# Poissons Ratio (z) = 0.09002 0.04848
#
# Static dielectric constant tensor:
#      x y z
#    x 1.861930 0.000000 -0.013950 
#    y 0.000000 1.851650 0.000000 
#    z -0.013950 0.000000 1.900380 
# 
# From -- ./inp_files/129372.got.cif
#   From: 2010.05.17/outbox.cif.g08.bks.cpg/sg15_65_cif.got.tgz:129372.got - 2010.06.03 18:47:42.
