data_PCOD9290696
_publ_section_title
;
Structure prediction by ZEFSAII (Michael W. Deem and Ramdas Pophale) SiO2 
 PCOD9290696
Probable space group: C 2/C
;
_chemical_formula_sum "Si O2"
_cell_formula_units_Z 44
_cell_length_a 11.028252
_cell_length_b 21.992217
_cell_length_c 9.990592
_cell_angle_alpha 90.000000
_cell_angle_beta 51.228862
_cell_angle_gamma 90.000000
_cell_volume 1889.159189
_symmetry_space_group_name_H-M "C 2/C"
_symmetry_group_IT_number 15
_symmetry_cell_setting 'monoclinic'
loop_
_space_group_symop_operation_xyz
x,y,z
-x,y,1/2-z
-x,-y,-z
x,-y,1/2+z
1/2+x,1/2+y,z
1/2-x,1/2+y,1/2-z
1/2-x,1/2-y,-z
1/2+x,1/2-y,1/2+z
loop_
_atom_site_type_symbol
_atom_site_label
_atom_site_fract_x
_atom_site_fract_y
_atom_site_fract_z
Si Si1 0.342135 0.729132 0.804182
Si Si2 0.643922 0.124006 0.853822
Si Si3 0.671355 0.937164 0.612671
Si Si4 0.318814 0.846298 0.652489
Si Si5 0.500000 0.357534 0.750000
Si Si6 0.364897 0.458796 0.031524
O O1 0.500000 0.698417 0.750000
O O2 0.243069 0.685691 0.775827
O O3 0.382731 0.789559 0.693030
O O4 0.250000 0.750000 0.000000
O O5 0.731729 0.069402 0.718748
O O6 0.658759 0.110059 0.001765
O O7 0.459310 0.132689 0.957719
O O8 0.500000 0.963215 0.750000
O O9 0.714281 0.901258 0.719248
O O10 0.781130 0.992156 0.495500
O O11 0.156923 0.826544 0.695877
O O12 0.561608 0.401895 0.592170
O O13 0.500000 0.500000 0.000000
#
# Coordination Sequence:
#
# PCOD9290696 Si02
#       6
#     8   8   8   8   4   8
#     4  12  23  44  77 106 136 173 240 300 344 405
#     4  11  26  43  75 101 137 182 238 291 349 410
#     4  10  22  41  68  98 134 174 235 287 336 402
#     4  11  24  47  65 107 138 184 226 288 352 414
#     4  12  28  44  66  96 154 180 234 288 350 432
#     4  12  26  44  66 102 140 187 234 280 351 420
#
# _framework density 23.290783000000001
#
# number of rings (size 3 to 8) (size 9 to 14) (size 15 to 20)
#    0.000    0.727    5.455    1.636    7.636    1.455 
#    0.000    3.636    0.000    0.000    0.000    0.000 
#    0.000    0.000    0.000    0.000    0.000    0.000 
#
# Total GULP energy -122926.530371 kJ/mol
# GULP energy per Si atom -5587.569562 kJ/mol
# Density = 2.323777 g / cm^3
# Si number density = 23.290783 Si / 1000 Ang^3
#
#
#
# Elastic Constant Matrix: (Units=GPa)
#
#
# Indices 1 2 3 4 5 6 
#
# 1 86.5907 7.7301 16.9359 0.0000 -32.1611 0.0000
# 2 7.7301 65.4725 6.8226 0.0000 -9.7981 0.0000
# 3 16.9359 6.8226 80.4039 0.0000 -18.4866 0.0000
# 4 0.0000 0.0000 0.0000 26.7658 0.0000 -7.5535
# 5 -32.1611 -9.7981 -18.4866 0.0000 30.6361 0.0000
# 6 0.0000 0.0000 0.0000 -7.5535 0.0000 23.5831
#
#
#
# Elastic Compliance Matrix: (Units=1/GPa)
#
#
# Indices 1 2 3 4 5 6 
#
# 1 0.018998 0.000769 0.000668 0.000000 0.020592 0.000000
# 2 0.000769 0.016076 -0.000184 0.000000 0.005838 0.000000
# 3 0.000668 -0.000184 0.014467 0.000000 0.009372 0.000000
# 4 0.000000 0.000000 0.000000 0.041074 0.000000 0.013156
# 5 0.020592 0.005838 0.009372 0.000000 0.061781 0.000000
# 6 0.000000 0.000000 0.000000 0.013156 0.000000 0.046617
#
#
# Mechanical properties :
#
#
# Convention : Reuss Voigt Hill
#
# Bulk Modulus (GPa) = 19.21372 32.82716 26.02044
# Shear Modulus (GPa) = 23.38042 29.59556 26.48799
#
# Velocity S-wave (km/s) = 3.17179 3.56855 3.37601
# Velocity P-wave (km/s) = 4.65630 5.57714 5.13739
#
# Compressibility (1/GPa) = 0.05204615
#
# Stress axis : x y z
#
# Youngs Moduli (GPa) = 52.63835 62.20616 69.12301
#
# Poissons Ratio (x) = -0.04784 -0.04616
# Poissons Ratio (y) = -0.04048 0.01271
# Poissons Ratio (z) = -0.03515 0.01144
#
# Static dielectric constant tensor:
#      x y z
#    x 1.967970 0.000000 -0.094690 
#    y 0.000000 1.837360 0.000000 
#    z -0.094690 0.000000 1.981700 
# 
# From -- ./inp_files/31857.got.cif
#   From: 2010.05.17/outbox.cif.g08.bks.cpg/sg15_16_cif.got.tgz:31857.got - 2010.06.03 18:47:42.
