data_PCOD9290614
_publ_section_title
;
Structure prediction by ZEFSAII (Michael W. Deem and Ramdas Pophale) SiO2 
 PCOD9290614
Probable space group: C 2/C
;
_chemical_formula_sum "Si O2"
_cell_formula_units_Z 52
_cell_length_a 25.718381
_cell_length_b 18.560150
_cell_length_c 5.499383
_cell_angle_alpha 90.000000
_cell_angle_beta 108.243380
_cell_angle_gamma 90.000000
_cell_volume 2493.111236
_symmetry_space_group_name_H-M "C 2/C"
_symmetry_group_IT_number 15
_symmetry_cell_setting 'monoclinic'
loop_
_space_group_symop_operation_xyz
x,y,z
-x,y,1/2-z
-x,-y,-z
x,-y,1/2+z
1/2+x,1/2+y,z
1/2-x,1/2+y,1/2-z
1/2-x,1/2-y,-z
1/2+x,1/2-y,1/2+z
loop_
_atom_site_type_symbol
_atom_site_label
_atom_site_fract_x
_atom_site_fract_y
_atom_site_fract_z
Si Si1 0.949992 0.804103 0.824950
Si Si2 0.618811 0.534238 0.888266
Si Si3 0.065954 0.540715 0.335172
Si Si4 0.757584 0.705549 0.757546
Si Si5 0.120023 0.305335 0.948933
Si Si6 0.642332 0.670528 0.674420
Si Si7 0.000000 0.077194 0.750000
O O1 0.904315 0.842353 0.591368
O O2 0.000000 0.768159 0.750000
O O3 0.918654 0.744161 0.937341
O O4 0.980410 0.867211 0.014942
O O5 0.639598 0.498516 0.669344
O O6 0.632069 0.618894 0.887706
O O7 0.552958 0.530285 0.770045
O O8 0.082160 0.504368 0.617280
O O9 0.090703 0.620329 0.349013
O O10 0.000000 0.545395 0.250000
O O11 0.750000 0.750000 0.500000
O O12 0.703892 0.655634 0.679738
O O13 0.750000 0.750000 0.000000
O O14 0.819931 0.678675 0.851080
O O15 0.132532 0.253267 0.737924
#
# Coordination Sequence:
#
# PCOD9290614 Si02
#       7
#     8   8   8   8   8   8   4
#     4  12  22  36  65  99 133 166 219 281 332 383
#     4  12  26  41  61  88 134 182 220 268 327 383
#     4  10  25  44  64  98 137 171 211 267 344 419
#     4  10  22  41  67  99 128 168 219 281 332 384
#     4  11  24  42  71  96 130 176 222 277 339 404
#     4  11  24  42  65  96 133 169 232 276 327 395
#     4  12  24  40  56  96 130 184 216 278 320 404
#
# _framework density 20.857472000000001
#
# number of rings (size 3 to 8) (size 9 to 14) (size 15 to 20)
#    0.000    0.923    4.615    1.385    5.385    0.615 
#    0.000    1.538    0.000    0.000    0.000    0.000 
#    0.000    0.000    0.000    0.000    0.000    0.000 
#
# Total GULP energy -145181.020227 kJ/mol
# GULP energy per Si atom -5583.885393 kJ/mol
# Density = 2.081000 g / cm^3
# Si number density = 20.857472 Si / 1000 Ang^3
#
#
#
# Elastic Constant Matrix: (Units=GPa)
#
#
# Indices 1 2 3 4 5 6 
#
# 1 75.1311 9.0380 27.3743 0.0000 -3.2188 0.0000
# 2 9.0380 96.8875 30.5983 0.0000 -15.3894 0.0000
# 3 27.3743 30.5983 106.4939 0.0000 -9.8839 0.0000
# 4 0.0000 0.0000 0.0000 29.4014 0.0000 -2.1458
# 5 -3.2188 -15.3894 -9.8839 0.0000 29.0493 0.0000
# 6 0.0000 0.0000 0.0000 -2.1458 0.0000 19.5332
#
#
#
# Elastic Compliance Matrix: (Units=1/GPa)
#
#
# Indices 1 2 3 4 5 6 
#
# 1 0.014691 -0.000155 -0.003705 0.000000 0.000285 0.000000
# 2 -0.000155 0.012123 -0.002942 0.000000 0.005404 0.000000
# 3 -0.003705 -0.002942 0.011364 0.000000 0.001897 0.000000
# 4 0.000000 0.000000 0.000000 0.034287 0.000000 0.003767
# 5 0.000285 0.005404 0.001897 0.000000 0.037964 0.000000
# 6 0.000000 0.000000 0.000000 0.003767 0.000000 0.051609
#
#
# Mechanical properties :
#
#
# Convention : Reuss Voigt Hill
#
# Bulk Modulus (GPa) = 40.69363 45.83710 43.26537
# Shear Modulus (GPa) = 27.19849 29.69693 28.44771
#
# Velocity S-wave (km/s) = 3.61503 3.77742 3.69712
# Velocity P-wave (km/s) = 6.08090 6.40697 6.24606
#
# Compressibility (1/GPa) = 0.02457387
#
# Stress axis : x y z
#
# Youngs Moduli (GPa) = 68.06894 82.48641 87.99680
#
# Poissons Ratio (x) = 0.01278 0.32606
# Poissons Ratio (y) = 0.01055 0.25888
# Poissons Ratio (z) = 0.25222 0.24266
#
# Static dielectric constant tensor:
#      x y z
#    x 1.820850 0.000000 -0.024780 
#    y 0.000000 1.742090 0.000000 
#    z -0.024780 0.000000 1.793520 
# 
# From -- ./inp_files/17103.got.cif
#   From: 2010.05.17/outbox.cif.g08.bks.cpg/sg15_9_cif.got.tgz:17103.got - 2010.06.03 18:47:42.
