data_PCOD9290568
_publ_section_title
;
Structure prediction by ZEFSAII (Michael W. Deem and Ramdas Pophale) SiO2 
 PCOD9290568
Probable space group: C 2/C
;
_chemical_formula_sum "Si O2"
_cell_formula_units_Z 64
_cell_length_a 20.539009
_cell_length_b 11.900118
_cell_length_c 26.419118
_cell_angle_alpha 90.000000
_cell_angle_beta 150.277135
_cell_angle_gamma 90.000000
_cell_volume 3201.549414
_symmetry_space_group_name_H-M "C 2/C"
_symmetry_group_IT_number 15
_symmetry_cell_setting 'monoclinic'
loop_
_space_group_symop_operation_xyz
x,y,z
-x,y,1/2-z
-x,-y,-z
x,-y,1/2+z
1/2+x,1/2+y,z
1/2-x,1/2+y,1/2-z
1/2-x,1/2-y,-z
1/2+x,1/2-y,1/2+z
loop_
_atom_site_type_symbol
_atom_site_label
_atom_site_fract_x
_atom_site_fract_y
_atom_site_fract_z
Si Si1 0.414178 0.033147 0.571710
Si Si2 0.347286 0.043067 0.635002
Si Si3 0.326182 0.789179 0.857296
Si Si4 0.885383 0.949023 0.824723
Si Si5 0.582651 0.091356 0.524383
Si Si6 0.630218 0.281172 0.998098
Si Si7 0.189442 0.432251 0.784055
Si Si8 0.686172 0.318347 0.250769
O O1 0.349837 0.991874 0.580542
O O2 0.394997 0.165320 0.548398
O O3 0.361582 0.966832 0.487702
O O4 0.569033 0.005228 0.680765
O O5 0.500000 0.067585 0.750000
O O6 0.262607 0.155139 0.572689
O O7 0.293853 0.970137 0.646341
O O8 0.227307 0.894050 0.787109
O O9 0.471172 0.818873 0.934804
O O10 0.268626 0.706289 0.776355
O O11 0.348978 0.746580 0.928665
O O12 0.816695 0.949412 0.834136
O O13 0.010704 0.868444 0.910288
O O14 0.909594 0.074886 0.820598
O O15 0.690920 0.143042 0.633226
O O16 0.500000 0.000000 0.500000
O O17 0.147993 0.301448 0.749414
#
# Coordination Sequence:
#
# PCOD9290568 Si02
#       8
#     8   8   8   8   8   8   8   8
#     4  11  22  44  68  93 131 179 227 264 338 409
#     4  10  25  45  67  94 130 183 227 270 332 406
#     4  11  22  35  63  96 135 172 207 279 343 396
#     4  11  23  36  64 103 140 163 217 292 338 394
#     4  12  20  39  65  96 131 174 216 265 346 395
#     4  12  25  39  71 103 134 170 222 285 345 401
#     4  10  22  41  67  93 137 179 219 270 338 400
#     4  11  22  37  62  97 134 172 220 274 330 402
#
# _framework density 19.990321000000002
#
# number of rings (size 3 to 8) (size 9 to 14) (size 15 to 20)
#    0.000    1.000    5.000    2.625    7.000    3.000 
#    0.000    0.625    5.500    0.000    0.000    0.000 
#    0.000    0.000    0.000    0.000    0.000    0.000 
#
# Total GULP energy -178600.338115 kJ/mol
# GULP energy per Si atom -5581.260566 kJ/mol
# Density = 1.994482 g / cm^3
# Si number density = 19.990321 Si / 1000 Ang^3
#
#
#
# Elastic Constant Matrix: (Units=GPa)
#
#
# Indices 1 2 3 4 5 6 
#
# 1 72.9860 40.9500 51.5371 -0.0001 -19.0661 -0.0007
# 2 40.9500 107.5258 44.0579 0.0007 -11.3873 0.0008
# 3 51.5371 44.0579 79.2050 0.0014 -24.0689 0.0012
# 4 -0.0001 0.0007 0.0014 23.4785 0.0003 12.3138
# 5 -19.0661 -11.3873 -24.0689 0.0003 28.9506 -0.0002
# 6 -0.0007 0.0008 0.0012 12.3138 -0.0002 -0.0676
#
#
#
# Elastic Compliance Matrix: (Units=1/GPa)
#
#
# Indices 1 2 3 4 5 6 
#
# 1 0.027027 -0.004110 -0.013892 0.000003 0.004633 -0.000004
# 2 -0.004110 0.012698 -0.004942 -0.000001 -0.001821 0.000001
# 3 -0.013892 -0.004942 0.028156 -0.000003 0.012316 0.000002
# 4 0.000003 -0.000001 -0.000003 0.000441 0.000000 0.080368
# 5 0.004633 -0.001821 0.012316 0.000000 0.047116 -0.000002
# 6 -0.000004 0.000001 0.000002 0.080368 -0.000002 -0.153236
#
#
# Mechanical properties :
#
#
# Convention : Reuss Voigt Hill
#
# Bulk Modulus (GPa) = 45.46938 59.20076 52.33507
# Shear Modulus (GPa) = 324.24867 18.68373 171.46620
#
# Velocity S-wave (km/s) = 12.74970 3.06050 9.27151
# Velocity P-wave (km/s) = 15.47692 6.49368 11.86809
#
# Compressibility (1/GPa) = 0.02199282
#
# Stress axis : x y z
#
# Youngs Moduli (GPa) = 37.00015 78.75563 35.51645
#
# Poissons Ratio (x) = 0.32371 0.49338
# Poissons Ratio (y) = 0.15208 0.17552
# Poissons Ratio (z) = 0.51399 0.38921
#
# Static dielectric constant tensor:
#      x y z
#    x 1.730670 0.000000 -0.015660 
#    y 0.000000 1.783700 0.000000 
#    z -0.015660 0.000000 1.716570 
# 
# From -- ./inp_files/300850.got.cif
#   From: 2010.05.17/outbox.cif.g08.bks.cpg/sg15_151_cif.got.tgz:300850.got - 2010.06.03 18:47:42.
