data_PCOD9290922
_publ_section_title
;
Structure prediction by ZEFSAII (Michael W. Deem and Ramdas Pophale) SiO2 
 PCOD9290922
Probable space group: C 2/C
;
_chemical_formula_sum "Si O2"
_cell_formula_units_Z 56
_cell_length_a 11.659067
_cell_length_b 8.435462
_cell_length_c 24.502214
_cell_angle_alpha 90.000000
_cell_angle_beta 110.546296
_cell_angle_gamma 90.000000
_cell_volume 2256.494407
_symmetry_space_group_name_H-M "C 2/C"
_symmetry_group_IT_number 15
_symmetry_cell_setting 'monoclinic'
loop_
_space_group_symop_operation_xyz
x,y,z
-x,y,1/2-z
-x,-y,-z
x,-y,1/2+z
1/2+x,1/2+y,z
1/2-x,1/2+y,1/2-z
1/2-x,1/2-y,-z
1/2+x,1/2-y,1/2+z
loop_
_atom_site_type_symbol
_atom_site_label
_atom_site_fract_x
_atom_site_fract_y
_atom_site_fract_z
Si Si1 0.000000 0.823230 0.750000
Si Si2 0.052947 0.695186 0.102742
Si Si3 0.000000 0.308175 0.750000
Si Si4 0.394473 0.625240 0.997581
Si Si5 0.860146 0.449667 0.177567
Si Si6 0.849189 0.914634 0.282336
Si Si7 0.768046 0.628241 0.060747
Si Si8 0.057624 0.619163 0.555655
O O1 0.081943 0.721428 0.805729
O O2 0.082567 0.928340 0.724290
O O3 0.904002 0.694956 0.072747
O O4 0.115279 0.768761 0.058647
O O5 0.095004 0.813084 0.157888
O O6 0.088757 0.507890 0.107895
O O7 0.971010 0.426287 0.696597
O O8 0.880970 0.200230 0.737295
O O9 0.281818 0.506398 0.990130
O O10 0.500000 0.500000 0.000000
O O11 0.450755 0.750123 0.050340
O O12 0.784706 0.458765 0.221342
O O13 0.778025 0.518299 0.116124
O O14 0.672099 0.771084 0.055842
O O15 0.000000 0.500000 0.500000
#
# Coordination Sequence:
#
# PCOD9290922 Si02
#       8
#     4   8   4   8   8   8   8   8
#     4  10  26  42  64  96 128 166 224 258 326 392
#     4  11  22  40  64  94 126 168 214 261 320 382
#     4  10  22  42  60  92 126 158 212 260 320 380
#     4   9  20  41  60  89 128 161 211 260 314 382
#     4  11  22  42  63  93 124 168 212 262 320 383
#     4  11  22  42  63  91 127 169 205 267 319 378
#     4  11  22  40  66  93 127 168 211 267 315 388
#     4   9  22  41  62  93 127 166 210 261 319 385
#
# _framework density 24.817256
#
# number of rings (size 3 to 8) (size 9 to 14) (size 15 to 20)
#    0.000    1.714    2.857    0.857    0.000    8.000 
#    2.571    0.000    0.000    0.000    0.000    0.000 
#    0.000    0.000    0.000    0.000    0.000    0.000 
#
# Total GULP energy -156046.383054 kJ/mol
# GULP energy per Si atom -5573.085109 kJ/mol
# Density = 2.476077 g / cm^3
# Si number density = 24.817256 Si / 1000 Ang^3
#
#
#
# Elastic Constant Matrix: (Units=GPa)
#
#
# Indices 1 2 3 4 5 6 
#
# 1 107.5600 50.3912 0.4664 0.0000 12.3198 0.0000
# 2 50.3912 182.3935 44.6865 0.0000 9.5263 0.0000
# 3 0.4664 44.6865 54.0173 0.0000 0.2582 0.0000
# 4 0.0000 0.0000 0.0000 -23.8381 0.0000 61.0133
# 5 12.3198 9.5263 0.2582 0.0000 26.2812 0.0000
# 6 0.0000 0.0000 0.0000 61.0133 0.0000 0.0061
#
#
#
# Elastic Compliance Matrix: (Units=1/GPa)
#
#
# Indices 1 2 3 4 5 6 
#
# 1 0.011478 -0.003686 0.002969 0.000000 -0.004073 0.000000
# 2 -0.003686 0.008220 -0.006762 0.000000 -0.001185 0.000000
# 3 0.002969 -0.006762 0.024077 0.000000 0.000823 0.000000
# 4 0.000000 0.000000 0.000000 -0.000002 0.000000 0.016389
# 5 -0.004073 -0.001185 0.000823 0.000000 0.040381 0.000000
# 6 0.000000 0.000000 0.000000 0.016389 0.000000 0.006403
#
#
# Mechanical properties :
#
#
# Convention : Reuss Voigt Hill
#
# Bulk Modulus (GPa) = 34.70146 59.45101 47.07624
# Shear Modulus (GPa) = 43.43293 17.05164 30.24228
#
# Velocity S-wave (km/s) = 4.18797 2.62408 3.49463
# Velocity P-wave (km/s) = 6.11544 5.76095 5.94084
#
# Compressibility (1/GPa) = 0.02881723
#
# Stress axis : x y z
#
# Youngs Moduli (GPa) = 87.12630 121.66014 41.53305
#
# Poissons Ratio (x) = 0.44841 -0.12333
# Poissons Ratio (y) = 0.32113 0.28086
# Poissons Ratio (z) = -0.25872 0.82270
#
# Static dielectric constant tensor:
#      x y z
#    x 1.932720 0.000000 -0.013900 
#    y 0.000000 1.979760 0.000000 
#    z -0.013900 0.000000 2.247200 
# 
# From -- ./inp_files/291662.got.cif
#   From: 2010.05.17/outbox.cif.g08.bks.cpg/sg15_146_cif.got.tgz:291662.got - 2010.06.03 18:47:42.
