data_PCOD9290983
_publ_section_title
;
Structure prediction by ZEFSAII (Michael W. Deem and Ramdas Pophale) SiO2 
 PCOD9290983
Probable space group: C 2/C
;
_chemical_formula_sum "Si O2"
_cell_formula_units_Z 40
_cell_length_a 6.373490
_cell_length_b 26.557344
_cell_length_c 10.589919
_cell_angle_alpha 90.000000
_cell_angle_beta 93.866806
_cell_angle_gamma 90.000000
_cell_volume 1788.400549
_symmetry_space_group_name_H-M "C 2/C"
_symmetry_group_IT_number 15
_symmetry_cell_setting 'monoclinic'
loop_
_space_group_symop_operation_xyz
x,y,z
-x,y,1/2-z
-x,-y,-z
x,-y,1/2+z
1/2+x,1/2+y,z
1/2-x,1/2+y,1/2-z
1/2-x,1/2-y,-z
1/2+x,1/2-y,1/2+z
loop_
_atom_site_type_symbol
_atom_site_label
_atom_site_fract_x
_atom_site_fract_y
_atom_site_fract_z
Si Si1 0.500000 0.870339 0.250000
Si Si2 0.500000 0.707743 0.250000
Si Si3 0.601111 0.441332 0.891517
Si Si4 0.064548 0.714581 0.937897
Si Si5 0.614305 0.142245 0.133742
Si Si6 0.167502 0.058129 0.870418
O O1 0.370093 0.830143 0.157405
O O2 0.642050 0.906313 0.167077
O O3 0.577002 0.746241 0.144063
O O4 0.313949 0.674223 0.189746
O O5 0.500000 0.430231 0.750000
O O6 0.790482 0.404588 0.934501
O O7 0.694857 0.497586 0.882619
O O8 0.430566 0.431835 0.994952
O O9 0.250000 0.750000 0.000000
O O10 0.976694 0.681278 0.048427
O O11 0.500000 0.121550 0.250000
O O12 0.000000 0.064917 0.750000
#
# Coordination Sequence:
#
# PCOD9290983 Si02
#       6
#     4   4   8   8   8   8
#     4  11  22  40  74  96 124 182 220 269 332 402
#     4   9  20  42  58  82 128 166 206 275 328 370
#     4  10  22  42  62  92 138 173 209 278 333 381
#     4   9  21  41  61  92 129 162 221 275 327 383
#     4  11  22  36  62  92 121 168 217 261 320 393
#     4  10  23  43  64  95 133 174 221 269 329 396
#
# _framework density 22.366354999999999
#
# number of rings (size 3 to 8) (size 9 to 14) (size 15 to 20)
#    0.000    2.000    1.000    1.200    4.200    0.800 
#    0.000   29.000    0.000    0.000    0.000    0.000 
#    0.000    0.000    0.000    0.000    0.000    0.000 
#
# Total GULP energy -111379.282707 kJ/mol
# GULP energy per Si atom -5568.964135 kJ/mol
# Density = 2.231545 g / cm^3
# Si number density = 22.366355 Si / 1000 Ang^3
#
#
#
# Elastic Constant Matrix: (Units=GPa)
#
#
# Indices 1 2 3 4 5 6 
#
# 1 43.9254 64.2902 30.8012 0.0000 -11.0891 0.0000
# 2 64.2902 136.6134 61.2205 0.0000 -16.9631 0.0000
# 3 30.8012 61.2205 117.7495 0.0000 -8.3222 0.0000
# 4 0.0000 0.0000 0.0000 60.1358 0.0000 23.7807
# 5 -11.0891 -16.9631 -8.3222 0.0000 28.2700 0.0000
# 6 0.0000 0.0000 0.0000 23.7807 0.0000 48.8433
#
#
#
# Elastic Compliance Matrix: (Units=1/GPa)
#
#
# Indices 1 2 3 4 5 6 
#
# 1 0.075407 -0.033667 -0.001591 0.000000 0.008909 0.000000
# 2 -0.033667 0.025131 -0.004215 0.000000 0.000633 0.000000
# 3 -0.001591 -0.004215 0.011108 0.000000 0.000117 0.000000
# 4 0.000000 0.000000 0.000000 0.020594 0.000000 -0.010027
# 5 0.008909 0.000633 0.000117 0.000000 0.039282 0.000000
# 6 0.000000 0.000000 0.000000 -0.010027 0.000000 0.025355
#
#
# Mechanical properties :
#
#
# Convention : Reuss Voigt Hill
#
# Bulk Modulus (GPa) = 30.58099 67.87913 49.23006
# Shear Modulus (GPa) = 17.43844 36.91492 27.17668
#
# Velocity S-wave (km/s) = 2.79529 4.06700 3.48957
# Velocity P-wave (km/s) = 4.91128 7.24352 6.18827
#
# Compressibility (1/GPa) = 0.03270005
#
# Stress axis : x y z
#
# Youngs Moduli (GPa) = 13.26145 39.79165 90.02199
#
# Poissons Ratio (x) = 1.33967 0.14324
# Poissons Ratio (y) = 0.44647 0.37941
# Poissons Ratio (z) = 0.02110 0.16771
#
# Static dielectric constant tensor:
#      x y z
#    x 1.828430 0.000000 0.020400 
#    y 0.000000 1.813960 0.000000 
#    z 0.020400 0.000000 1.926750 
# 
# From -- ./inp_files/73232.got.cif
#   From: 2010.05.17/outbox.cif.g08.bks.cpg/sg15_37_cif.got.tgz:73232.got - 2010.06.03 18:47:42.
