data_PCOD9290819
_publ_section_title
;
Structure prediction by ZEFSAII (Michael W. Deem and Ramdas Pophale) SiO2 
 PCOD9290819
Probable space group: C 2/C
;
_chemical_formula_sum "Si O2"
_cell_formula_units_Z 48
_cell_length_a 30.223251
_cell_length_b 14.394953
_cell_length_c 14.826442
_cell_angle_alpha 90.000000
_cell_angle_beta 159.496495
_cell_angle_gamma 90.000000
_cell_volume 2259.356270
_symmetry_space_group_name_H-M "C 2/C"
_symmetry_group_IT_number 15
_symmetry_cell_setting 'monoclinic'
loop_
_space_group_symop_operation_xyz
x,y,z
-x,y,1/2-z
-x,-y,-z
x,-y,1/2+z
1/2+x,1/2+y,z
1/2-x,1/2+y,1/2-z
1/2-x,1/2-y,-z
1/2+x,1/2-y,1/2+z
loop_
_atom_site_type_symbol
_atom_site_label
_atom_site_fract_x
_atom_site_fract_y
_atom_site_fract_z
Si Si1 0.138865 0.879311 0.557327
Si Si2 0.121824 0.756142 0.701238
Si Si3 0.618005 0.327425 0.183698
Si Si4 0.210228 0.622295 0.337352
Si Si5 0.708903 0.940042 0.104187
Si Si6 0.558679 0.939686 0.003726
O O1 0.129605 0.801083 0.616300
O O2 0.228796 0.858586 0.643858
O O3 0.206732 0.967589 0.731968
O O4 0.000000 0.897311 0.250000
O O5 0.077040 0.650303 0.600133
O O6 0.030888 0.822985 0.586862
O O7 0.250000 0.750000 0.000000
O O8 0.676527 0.390299 0.375227
O O9 0.649888 0.218546 0.254067
O O10 0.692251 0.361898 0.237948
O O11 0.115342 0.535623 0.151009
O O12 0.644768 0.923723 0.078604
O O13 0.587435 0.947198 0.806248
#
# Coordination Sequence:
#
# PCOD9290819 Si02
#       6
#     8   8   8   8   8   8
#     4  11  24  46  69  96 140 180 224 281 349 406
#     4  12  28  43  68 104 138 182 226 287 344 408
#     4  11  23  40  67 101 136 174 227 282 345 401
#     4  10  22  41  70  99 129 183 225 280 339 408
#     4  10  24  42  73 100 131 182 228 279 339 409
#     4  10  23  45  69  97 138 178 230 275 339 411
#
# _framework density 21.244989
#
# number of rings (size 3 to 8) (size 9 to 14) (size 15 to 20)
#    0.000    1.333    1.667    3.000    7.000    4.667 
#    0.000    1.667    0.000    0.000    0.000    0.000 
#    0.000    0.000    0.000    0.000    0.000    0.000 
#
# Total GULP energy -133996.496164 kJ/mol
# GULP energy per Si atom -5583.187340 kJ/mol
# Density = 2.119663 g / cm^3
# Si number density = 21.244989 Si / 1000 Ang^3
#
#
#
# Elastic Constant Matrix: (Units=GPa)
#
#
# Indices 1 2 3 4 5 6 
#
# 1 86.3804 41.0060 47.0403 0.0000 14.2063 0.0000
# 2 41.0060 113.8920 67.4426 0.0000 4.2682 0.0000
# 3 47.0403 67.4426 161.5910 0.0000 3.5144 0.0000
# 4 0.0000 0.0000 0.0000 23.2605 0.0000 -1.1934
# 5 14.2063 4.2682 3.5144 0.0000 29.0980 0.0000
# 6 0.0000 0.0000 0.0000 -1.1934 0.0000 42.3974
#
#
#
# Elastic Compliance Matrix: (Units=1/GPa)
#
#
# Indices 1 2 3 4 5 6 
#
# 1 0.016137 -0.003795 -0.002962 0.000000 -0.006964 0.000000
# 2 -0.003795 0.012592 -0.004162 0.000000 0.000508 0.000000
# 3 -0.002962 -0.004162 0.008766 0.000000 0.000998 0.000000
# 4 0.000000 0.000000 0.000000 0.043054 0.000000 0.001212
# 5 -0.006964 0.000508 0.000998 0.000000 0.037571 0.000000
# 6 0.000000 0.000000 0.000000 0.001212 0.000000 0.023620
#
#
# Mechanical properties :
#
#
# Convention : Reuss Voigt Hill
#
# Bulk Modulus (GPa) = 63.86918 74.76012 69.31465
# Shear Modulus (GPa) = 29.62144 32.70947 31.16545
#
# Velocity S-wave (km/s) = 3.73806 3.92807 3.83424
# Velocity P-wave (km/s) = 6.98278 7.47254 7.23181
#
# Compressibility (1/GPa) = 0.01565700
#
# Stress axis : x y z
#
# Youngs Moduli (GPa) = 61.97110 79.41582 114.07596
#
# Poissons Ratio (x) = 0.30136 0.33792
# Poissons Ratio (y) = 0.23517 0.47476
# Poissons Ratio (z) = 0.18357 0.33051
#
# Static dielectric constant tensor:
#      x y z
#    x 1.810180 0.000000 0.032000 
#    y 0.000000 1.767360 0.000000 
#    z 0.032000 0.000000 1.769380 
# 
# From -- ./inp_files/182519.got.cif
#   From: 2010.05.17/outbox.cif.g08.bks.cpg/sg15_92_cif.got.tgz:182519.got - 2010.06.03 18:47:42.
