data_PCOD9290320
_publ_section_title
;
Structure prediction by ZEFSAII (Michael W. Deem and Ramdas Pophale) SiO2 
 PCOD9290320
Probable space group: C 2/C
;
_chemical_formula_sum "Si O2"
_cell_formula_units_Z 48
_cell_length_a 9.427131
_cell_length_b 22.349072
_cell_length_c 11.953054
_cell_angle_alpha 90.000000
_cell_angle_beta 61.574904
_cell_angle_gamma 90.000000
_cell_volume 2214.747463
_symmetry_space_group_name_H-M "C 2/C"
_symmetry_group_IT_number 15
_symmetry_cell_setting 'monoclinic'
loop_
_space_group_symop_operation_xyz
x,y,z
-x,y,1/2-z
-x,-y,-z
x,-y,1/2+z
1/2+x,1/2+y,z
1/2-x,1/2+y,1/2-z
1/2-x,1/2-y,-z
1/2+x,1/2-y,1/2+z
loop_
_atom_site_type_symbol
_atom_site_label
_atom_site_fract_x
_atom_site_fract_y
_atom_site_fract_z
Si Si1 0.214231 0.876331 0.981405
Si Si2 0.500000 0.439630 0.250000
Si Si3 0.980632 0.638167 0.549442
Si Si4 0.625890 0.274891 0.864305
Si Si5 0.332124 0.511675 0.131408
Si Si6 0.292389 0.303650 0.900984
Si Si7 0.000000 0.445393 0.250000
O O1 0.187439 0.809158 0.949366
O O2 0.197396 0.918444 0.879338
O O3 0.086827 0.898431 0.123815
O O4 0.386582 0.883022 0.975732
O O5 0.373045 0.483432 0.236280
O O6 0.920435 0.706131 0.596947
O O7 0.947675 0.596780 0.667221
O O8 0.172400 0.641981 0.463125
O O9 0.473990 0.313194 0.873534
O O10 0.736811 0.278717 0.712899
O O11 0.162501 0.481748 0.157015
O O12 0.500000 0.500000 0.000000
O O13 0.250000 0.250000 0.000000
#
# Coordination Sequence:
#
# PCOD9290320 Si02
#       7
#     8   4   8   8   8   8   4
#     4  11  24  42  67 100 138 179 235 292 358 408
#     4  10  22  48  67  97 132 184 228 294 358 432
#     4  11  23  40  69 102 136 180 234 281 359 428
#     4  10  22  41  65 104 141 185 226 284 352 431
#     4  10  25  46  70 101 134 182 242 291 357 423
#     4   9  20  38  61  94 140 181 223 273 339 419
#     4  12  24  46  75  97 142 188 238 302 348 442
#
# _framework density 21.672898
#
# number of rings (size 3 to 8) (size 9 to 14) (size 15 to 20)
#    0.000    1.667    1.667    2.500    4.667    6.667 
#    3.000    0.000    0.000    0.000    0.000    0.000 
#    0.000    0.000    0.000    0.000    0.000    0.000 
#
# Total GULP energy -133769.231596 kJ/mol
# GULP energy per Si atom -5573.717983 kJ/mol
# Density = 2.162357 g / cm^3
# Si number density = 21.672898 Si / 1000 Ang^3
#
#
#
# Elastic Constant Matrix: (Units=GPa)
#
#
# Indices 1 2 3 4 5 6 
#
# 1 90.6961 30.2135 11.7498 0.0000 6.5577 0.0000
# 2 30.2135 93.2358 26.3467 0.0000 3.3218 0.0000
# 3 11.7498 26.3467 70.3082 0.0000 10.4393 0.0000
# 4 0.0000 0.0000 0.0000 28.0018 0.0000 5.2918
# 5 6.5577 3.3218 10.4393 0.0000 30.7648 0.0000
# 6 0.0000 0.0000 0.0000 5.2918 0.0000 43.4694
#
#
#
# Elastic Compliance Matrix: (Units=1/GPa)
#
#
# Indices 1 2 3 4 5 6 
#
# 1 0.012518 -0.003891 -0.000316 0.000000 -0.002141 0.000000
# 2 -0.003891 0.013207 -0.004434 0.000000 0.000908 0.000000
# 3 -0.000316 -0.004434 0.016697 0.000000 -0.005120 0.000000
# 4 0.000000 0.000000 0.000000 0.036553 0.000000 -0.004450
# 5 -0.002141 0.000908 -0.005120 0.000000 0.034600 0.000000
# 6 0.000000 0.000000 0.000000 -0.004450 0.000000 0.023546
#
#
# Mechanical properties :
#
#
# Convention : Reuss Voigt Hill
#
# Bulk Modulus (GPa) = 39.77549 43.42891 41.60220
# Shear Modulus (GPa) = 30.71576 32.84255 31.77916
#
# Velocity S-wave (km/s) = 3.76871 3.89700 3.83340
# Velocity P-wave (km/s) = 6.10983 6.35065 6.23140
#
# Compressibility (1/GPa) = 0.02514111
#
# Stress axis : x y z
#
# Youngs Moduli (GPa) = 79.88673 75.71833 59.88924
#
# Poissons Ratio (x) = 0.29461 0.01893
# Poissons Ratio (y) = 0.31083 0.26552
# Poissons Ratio (z) = 0.02525 0.33570
#
# Static dielectric constant tensor:
#      x y z
#    x 1.836330 0.000000 -0.103600 
#    y 0.000000 1.743570 0.000000 
#    z -0.103600 0.000000 1.878680 
# 
# From -- ./inp_files/79803.got.cif
#   From: 2010.05.17/outbox.cif.g08.bks.cpg/sg15_40_cif.got.tgz:79803.got - 2010.06.03 18:47:42.
