data_PCOD9290984
_publ_section_title
;
Structure prediction by ZEFSAII (Michael W. Deem and Ramdas Pophale) SiO2 
 PCOD9290984
Probable space group: C 2/C
;
_chemical_formula_sum "Si O2"
_cell_formula_units_Z 44
_cell_length_a 24.369013
_cell_length_b 11.738410
_cell_length_c 12.205279
_cell_angle_alpha 90.000000
_cell_angle_beta 147.854495
_cell_angle_gamma 90.000000
_cell_volume 1857.653383
_symmetry_space_group_name_H-M "C 2/C"
_symmetry_group_IT_number 15
_symmetry_cell_setting 'monoclinic'
loop_
_space_group_symop_operation_xyz
x,y,z
-x,y,1/2-z
-x,-y,-z
x,-y,1/2+z
1/2+x,1/2+y,z
1/2-x,1/2+y,1/2-z
1/2-x,1/2-y,-z
1/2+x,1/2-y,1/2+z
loop_
_atom_site_type_symbol
_atom_site_label
_atom_site_fract_x
_atom_site_fract_y
_atom_site_fract_z
Si Si1 0.227663 0.119584 0.988350
Si Si2 0.425976 0.990357 0.750516
Si Si3 0.638421 0.117774 0.591122
Si Si4 0.903058 0.145017 0.521398
Si Si5 0.629146 0.401784 0.091124
Si Si6 0.000000 0.708320 0.750000
O O1 0.183063 0.124469 0.033536
O O2 0.152748 0.093089 0.760503
O O3 0.250000 0.250000 0.000000
O O4 0.325713 0.036208 0.153599
O O5 0.391629 0.914826 0.585683
O O6 0.438683 0.118797 0.725057
O O7 0.537898 0.942049 0.976979
O O8 0.631014 0.251062 0.611887
O O9 0.761395 0.094928 0.789858
O O10 0.000000 0.192446 0.750000
O O11 0.930148 0.020512 0.525515
O O12 0.568378 0.292086 0.942130
#
# Coordination Sequence:
#
# PCOD9290984 Si02
#       6
#     8   8   8   8   8   4
#     4  11  22  41  70  97 125 166 227 261 317 394
#     4   9  19  38  65  93 124 169 214 262 314 384
#     4   9  18  36  65  90 121 170 210 254 322 377
#     4  12  22  42  65  94 132 166 215 267 325 381
#     4  11  24  39  66  96 133 172 207 272 323 374
#     4  10  22  42  62  92 144 168 210 268 326 372
#
# _framework density 23.685797999999998
#
# number of rings (size 3 to 8) (size 9 to 14) (size 15 to 20)
#    0.000    1.818    6.364    0.000    7.636    0.727 
#    0.000    6.364    0.000    0.000    0.000    0.000 
#    0.000    0.000    0.000    0.000    0.000    0.000 
#
# Total GULP energy -122582.373059 kJ/mol
# GULP energy per Si atom -5571.926048 kJ/mol
# Density = 2.363189 g / cm^3
# Si number density = 23.685798 Si / 1000 Ang^3
#
#
#
# Elastic Constant Matrix: (Units=GPa)
#
#
# Indices 1 2 3 4 5 6 
#
# 1 51.3587 12.8377 -5.1542 0.0000 21.9346 0.0000
# 2 12.8377 164.3038 45.8585 0.0000 -3.7576 0.0000
# 3 -5.1542 45.8585 95.6852 0.0000 2.0316 0.0000
# 4 0.0000 0.0000 0.0000 55.8090 0.0000 9.0764
# 5 21.9346 -3.7576 2.0316 0.0000 27.1113 0.0000
# 6 0.0000 0.0000 0.0000 9.0764 0.0000 7.5901
#
#
#
# Elastic Compliance Matrix: (Units=1/GPa)
#
#
# Indices 1 2 3 4 5 6 
#
# 1 0.032750 -0.004435 0.004472 0.000000 -0.027447 0.000000
# 2 -0.004435 0.007668 -0.004019 0.000000 0.004952 0.000000
# 3 0.004472 -0.004019 0.012727 0.000000 -0.005129 0.000000
# 4 0.000000 0.000000 0.000000 0.022244 0.000000 -0.026600
# 5 -0.027447 0.004952 -0.005129 0.000000 0.060162 0.000000
# 6 0.000000 0.000000 0.000000 -0.026600 0.000000 0.163559
#
#
# Mechanical properties :
#
#
# Convention : Reuss Voigt Hill
#
# Bulk Modulus (GPa) = 22.13262 46.49240 34.31251
# Shear Modulus (GPa) = 15.52153 35.28913 25.40533
#
# Velocity S-wave (km/s) = 2.56268 3.86409 3.27861
# Velocity P-wave (km/s) = 4.25687 6.29124 5.37125
#
# Compressibility (1/GPa) = 0.04518217
#
# Stress axis : x y z
#
# Youngs Moduli (GPa) = 30.53399 130.41613 78.57386
#
# Poissons Ratio (x) = 0.57838 -0.35141
# Poissons Ratio (y) = 0.13542 0.31578
# Poissons Ratio (z) = -0.13656 0.52413
#
# Static dielectric constant tensor:
#      x y z
#    x 2.077360 0.000000 -0.053060 
#    y 0.000000 1.914900 0.000000 
#    z -0.053060 0.000000 2.087360 
# 
# From -- ./inp_files/177686.got.cif
#   From: 2010.05.17/outbox.cif.g08.bks.cpg/sg15_89_cif.got.tgz:177686.got - 2010.06.03 18:47:42.
