data_PCOD9290366
_publ_section_title
;
Structure prediction by ZEFSAII (Michael W. Deem and Ramdas Pophale) SiO2 
 PCOD9290366
Probable space group: C 2/C
;
_chemical_formula_sum "Si O2"
_cell_formula_units_Z 52
_cell_length_a 8.863812
_cell_length_b 16.184611
_cell_length_c 19.283880
_cell_angle_alpha 90.000000
_cell_angle_beta 113.419921
_cell_angle_gamma 90.000000
_cell_volume 2538.507378
_symmetry_space_group_name_H-M "C 2/C"
_symmetry_group_IT_number 15
_symmetry_cell_setting 'monoclinic'
loop_
_space_group_symop_operation_xyz
x,y,z
-x,y,1/2-z
-x,-y,-z
x,-y,1/2+z
1/2+x,1/2+y,z
1/2-x,1/2+y,1/2-z
1/2-x,1/2-y,-z
1/2+x,1/2-y,1/2+z
loop_
_atom_site_type_symbol
_atom_site_label
_atom_site_fract_x
_atom_site_fract_y
_atom_site_fract_z
Si Si1 0.812953 0.675085 0.966572
Si Si2 0.000000 0.348920 0.250000
Si Si3 0.697043 0.653966 0.790414
Si Si4 0.044949 0.052551 0.941788
Si Si5 0.862026 0.031022 0.178694
Si Si6 0.304015 0.158957 0.441337
Si Si7 0.761071 0.653738 0.590970
O O1 0.762240 0.683500 0.877077
O O2 0.724350 0.592675 0.977787
O O3 0.750000 0.750000 0.000000
O O4 0.005214 0.672574 0.011905
O O5 0.829630 0.315441 0.256822
O O6 0.907970 0.384568 0.164036
O O7 0.500000 0.674588 0.750000
O O8 0.700880 0.552628 0.795215
O O9 0.912279 0.125693 0.909178
O O10 0.042606 0.999636 0.872159
O O11 0.000000 0.000000 0.000000
O O12 0.728779 0.093543 0.124936
O O13 0.000000 0.074342 0.250000
O O14 0.220296 0.246804 0.408058
O O15 0.249346 0.128844 0.507819
#
# Coordination Sequence:
#
# PCOD9290366 Si02
#       7
#     8   4   8   8   8   8   8
#     4  11  22  41  65  93 133 170 218 275 330 398
#     4  12  22  40  68  94 130 174 226 274 332 410
#     4  10  23  42  66  97 130 176 221 274 341 399
#     4  11  22  41  67  92 129 176 212 266 339 397
#     4  10  22  41  65  93 132 168 216 275 333 396
#     4  11  23  40  62  96 130 165 220 275 330 393
#     4  11  23  39  63  97 125 170 222 266 329 405
#
# _framework density 20.484479
#
# number of rings (size 3 to 8) (size 9 to 14) (size 15 to 20)
#    0.000    1.231    4.615    2.769    1.077    3.692 
#    0.000    0.000    0.000    0.000    0.000    0.000 
#    0.000    0.000    0.000    0.000    0.000    0.000 
#
# Total GULP energy -144854.718632 kJ/mol
# GULP energy per Si atom -5571.335332 kJ/mol
# Density = 2.043785 g / cm^3
# Si number density = 20.484479 Si / 1000 Ang^3
#
#
#
# Elastic Constant Matrix: (Units=GPa)
#
#
# Indices 1 2 3 4 5 6 
#
# 1 116.0555 10.5349 29.4682 0.0000 -1.3184 0.0000
# 2 10.5349 31.2650 35.6365 0.0000 0.6000 0.0000
# 3 29.4682 35.6365 103.1963 0.0000 14.8561 0.0000
# 4 0.0000 0.0000 0.0000 12.0333 0.0000 -3.8297
# 5 -1.3184 0.6000 14.8561 0.0000 40.7334 0.0000
# 6 0.0000 0.0000 0.0000 -3.8297 0.0000 24.8714
#
#
#
# Elastic Compliance Matrix: (Units=1/GPa)
#
#
# Indices 1 2 3 4 5 6 
#
# 1 0.009360 0.000149 -0.002921 0.000000 0.001366 0.000000
# 2 0.000149 0.054270 -0.019704 0.000000 0.006392 0.000000
# 3 -0.002921 -0.019704 0.018259 0.000000 -0.006464 0.000000
# 4 0.000000 0.000000 0.000000 0.087385 0.000000 0.013456
# 5 0.001366 0.006392 -0.006464 0.000000 0.026857 0.000000
# 6 0.000000 0.000000 0.000000 0.013456 0.000000 0.042279
#
#
# Mechanical properties :
#
#
# Convention : Reuss Voigt Hill
#
# Bulk Modulus (GPa) = 27.07195 44.64402 35.85798
# Shear Modulus (GPa) = 16.91046 27.18610 22.04828
#
# Velocity S-wave (km/s) = 2.87631 3.64697 3.28432
# Velocity P-wave (km/s) = 4.92701 6.29088 5.65025
#
# Compressibility (1/GPa) = 0.03693861
#
# Stress axis : x y z
#
# Youngs Moduli (GPa) = 106.83485 18.42626 54.76699
#
# Poissons Ratio (x) = -0.00275 0.15998
# Poissons Ratio (y) = -0.01595 1.07912
# Poissons Ratio (z) = 0.31207 0.36307
#
# Static dielectric constant tensor:
#      x y z
#    x 1.692000 0.000000 -0.016700 
#    y 0.000000 1.826380 0.000000 
#    z -0.016700 0.000000 1.793720 
# 
# From -- ./inp_files/190583.got.cif
#   From: 2010.05.17/outbox.cif.g08.bks.cpg/sg15_96_cif.got.tgz:190583.got - 2010.06.03 18:47:42.
