data_PCOD9290730
_publ_section_title
;
Structure prediction by ZEFSAII (Michael W. Deem and Ramdas Pophale) SiO2 
 PCOD9290730
Probable space group: C 2/C
;
_chemical_formula_sum "Si O2"
_cell_formula_units_Z 48
_cell_length_a 22.120095
_cell_length_b 8.541249
_cell_length_c 9.944434
_cell_angle_alpha 90.000000
_cell_angle_beta 103.300263
_cell_angle_gamma 90.000000
_cell_volume 1828.439695
_symmetry_space_group_name_H-M "C 2/C"
_symmetry_group_IT_number 15
_symmetry_cell_setting 'monoclinic'
loop_
_space_group_symop_operation_xyz
x,y,z
-x,y,1/2-z
-x,-y,-z
x,-y,1/2+z
1/2+x,1/2+y,z
1/2-x,1/2+y,1/2-z
1/2-x,1/2-y,-z
1/2+x,1/2-y,1/2+z
loop_
_atom_site_type_symbol
_atom_site_label
_atom_site_fract_x
_atom_site_fract_y
_atom_site_fract_z
Si Si1 0.368590 0.831745 0.292985
Si Si2 0.671214 0.972278 0.491105
Si Si3 0.429099 0.491379 0.038253
Si Si4 0.811775 0.009098 0.157342
Si Si5 0.000000 0.253372 0.750000
Si Si6 0.116238 0.226637 0.660707
Si Si7 0.000000 0.759407 0.750000
O O1 0.333479 0.667536 0.245480
O O2 0.441408 0.822522 0.291150
O O3 0.358282 0.884133 0.440910
O O4 0.337979 0.956414 0.172969
O O5 0.743019 0.970135 0.567370
O O6 0.637058 0.822764 0.541587
O O7 0.360379 0.490997 0.061549
O O8 0.463635 0.340685 0.112492
O O9 0.467898 0.631427 0.123887
O O10 0.418205 0.557455 0.883692
O O11 0.822083 0.842485 0.238123
O O12 0.061045 0.321662 0.706906
#
# Coordination Sequence:
#
# PCOD9290730 Si02
#       7
#     8   8   8   8   4   8   4
#     4  11  25  45  65  95 135 181 215 275 327 397
#     4  12  25  44  66  97 135 180 222 265 335 394
#     4   9  18  37  65  93 121 168 213 276 330 378
#     4  10  22  41  69  92 127 168 226 274 329 384
#     4   9  20  33  58 100 126 150 222 276 326 378
#     4  11  21  40  66  96 123 174 218 277 328 384
#     4   9  18  41  66  88 128 172 220 258 334 390
#
# _framework density 26.251891000000001
#
# number of rings (size 3 to 8) (size 9 to 14) (size 15 to 20)
#    0.000    1.667    3.333    3.000    2.333    1.333 
#    9.000    1.667    0.000    0.000    0.000    0.000 
#    0.000    0.000    0.000    0.000    0.000    0.000 
#
# Total GULP energy -134085.605887 kJ/mol
# GULP energy per Si atom -5586.900245 kJ/mol
# Density = 2.619214 g / cm^3
# Si number density = 26.251891 Si / 1000 Ang^3
#
#
#
# Elastic Constant Matrix: (Units=GPa)
#
#
# Indices 1 2 3 4 5 6 
#
# 1 146.0783 28.2135 19.2133 0.0000 33.4286 0.0000
# 2 28.2135 80.3488 24.9425 0.0000 19.3921 0.0000
# 3 19.2133 24.9425 65.9068 0.0000 11.2471 0.0000
# 4 0.0000 0.0000 0.0000 40.4846 0.0000 3.9887
# 5 33.4286 19.3921 11.2471 0.0000 36.0038 0.0000
# 6 0.0000 0.0000 0.0000 3.9887 0.0000 27.8707
#
#
#
# Elastic Compliance Matrix: (Units=1/GPa)
#
#
# Indices 1 2 3 4 5 6 
#
# 1 0.008856 -0.001042 -0.000929 0.000000 -0.007371 0.000000
# 2 -0.001042 0.015702 -0.004606 0.000000 -0.006051 0.000000
# 3 -0.000929 -0.004606 0.017552 0.000000 -0.002139 0.000000
# 4 0.000000 0.000000 0.000000 0.025054 0.000000 -0.003586
# 5 -0.007371 -0.006051 -0.002139 0.000000 0.038546 0.000000
# 6 0.000000 0.000000 0.000000 -0.003586 0.000000 0.036393
#
#
# Mechanical properties :
#
#
# Convention : Reuss Voigt Hill
#
# Bulk Modulus (GPa) = 34.53677 48.56361 41.55019
# Shear Modulus (GPa) = 30.31965 35.53613 32.92789
#
# Velocity S-wave (km/s) = 3.40214 3.68320 3.54546
# Velocity P-wave (km/s) = 5.34951 6.05204 5.71159
#
# Compressibility (1/GPa) = 0.02895464
#
# Stress axis : x y z
#
# Youngs Moduli (GPa) = 112.91879 63.68678 56.97324
#
# Poissons Ratio (x) = 0.06637 0.05295
# Poissons Ratio (y) = 0.11768 0.26242
# Poissons Ratio (z) = 0.10495 0.29334
#
# Static dielectric constant tensor:
#      x y z
#    x 2.075660 0.000000 -0.056540 
#    y 0.000000 2.182060 0.000000 
#    z -0.056540 0.000000 2.151970 
# 
# From -- ./inp_files/110551.got.cif
#   From: 2010.05.17/outbox.cif.g08.bks.cpg/sg15_56_cif.got.tgz:110551.got - 2010.06.03 18:47:42.
