data_PCOD9290821
_publ_section_title
;
Structure prediction by ZEFSAII (Michael W. Deem and Ramdas Pophale) SiO2 
 PCOD9290821
Probable space group: C 2/C
;
_chemical_formula_sum "Si O2"
_cell_formula_units_Z 32
_cell_length_a 12.244505
_cell_length_b 17.586222
_cell_length_c 9.848964
_cell_angle_alpha 90.000000
_cell_angle_beta 33.256228
_cell_angle_gamma 90.000000
_cell_volume 1163.025433
_symmetry_space_group_name_H-M "C 2/C"
_symmetry_group_IT_number 15
_symmetry_cell_setting 'monoclinic'
loop_
_space_group_symop_operation_xyz
x,y,z
-x,y,1/2-z
-x,-y,-z
x,-y,1/2+z
1/2+x,1/2+y,z
1/2-x,1/2+y,1/2-z
1/2-x,1/2-y,-z
1/2+x,1/2-y,1/2+z
loop_
_atom_site_type_symbol
_atom_site_label
_atom_site_fract_x
_atom_site_fract_y
_atom_site_fract_z
Si Si1 0.175082 0.561147 0.785340
Si Si2 0.829007 0.187025 0.021563
Si Si3 0.117601 0.733941 0.743357
Si Si4 0.783180 0.543129 0.459467
O O1 0.126733 0.644457 0.776293
O O2 0.320684 0.519028 0.526567
O O3 0.275898 0.565695 0.827963
O O4 0.000000 0.500000 0.000000
O O5 0.750000 0.250000 0.000000
O O6 0.891023 0.217944 0.103183
O O7 0.676408 0.117854 0.175826
O O8 0.000000 0.151367 0.750000
O O9 0.369582 0.754787 0.451061
O O10 0.000000 0.503611 0.250000
#
# Coordination Sequence:
#
# PCOD9290821 Si02
#       4
#     8   8   8   8
#     4  10  22  41  70  99 133 181 234 279 341 417
#     4  12  25  44  70  99 136 182 230 281 349 420
#     4  12  27  43  69 105 143 179 232 293 355 412
#     4  10  22  41  71  99 132 175 235 283 340 415
#
# _framework density 27.514444000000001
#
# number of rings (size 3 to 8) (size 9 to 14) (size 15 to 20)
#    0.000    1.000    2.500    4.500   14.000    0.000 
#    0.000    2.500    0.000    0.000    0.000    0.000 
#    0.000    0.000    0.000    0.000    0.000    0.000 
#
# Total GULP energy -89104.917331 kJ/mol
# GULP energy per Si atom -5569.057333 kJ/mol
# Density = 2.745182 g / cm^3
# Si number density = 27.514444 Si / 1000 Ang^3
#
#
#
# Elastic Constant Matrix: (Units=GPa)
#
#
# Indices 1 2 3 4 5 6 
#
# 1 313.8022 113.2050 86.2980 -0.0083 49.9861 0.0096
# 2 113.2050 212.2802 53.2778 0.0003 24.4236 0.0051
# 3 86.2980 53.2778 152.2681 -0.0059 29.0861 0.0152
# 4 -0.0083 0.0003 -0.0059 21.4379 0.0073 20.6459
# 5 49.9861 24.4236 29.0861 0.0073 58.3461 -0.0115
# 6 0.0096 0.0051 0.0152 20.6459 -0.0115 44.8733
#
#
#
# Elastic Compliance Matrix: (Units=1/GPa)
#
#
# Indices 1 2 3 4 5 6 
#
# 1 0.004655 -0.001814 -0.001533 0.000006 -0.002465 -0.000003
# 2 -0.001814 0.005976 -0.000975 -0.000001 -0.000461 0.000001
# 3 -0.001533 -0.000975 0.008232 0.000010 -0.002383 -0.000007
# 4 0.000006 -0.000001 0.000010 0.083761 -0.000027 -0.038538
# 5 -0.002465 -0.000461 -0.002383 -0.000027 0.020632 0.000019
# 6 -0.000003 0.000001 -0.000007 -0.038538 0.000019 0.040016
#
#
# Mechanical properties :
#
#
# Convention : Reuss Voigt Hill
#
# Bulk Modulus (GPa) = 97.84563 131.54578 114.69570
# Shear Modulus (GPa) = 28.51897 53.30276 40.91087
#
# Velocity S-wave (km/s) = 3.22298 4.40621 3.86020
# Velocity P-wave (km/s) = 7.03483 8.59068 7.85139
#
# Compressibility (1/GPa) = 0.01022018
#
# Stress axis : x y z
#
# Youngs Moduli (GPa) = 214.80420 167.33634 121.47394
#
# Poissons Ratio (x) = 0.30361 0.18620
# Poissons Ratio (y) = 0.38973 0.11838
# Poissons Ratio (z) = 0.32925 0.16308
#
# Static dielectric constant tensor:
#      x y z
#    x 2.423060 -0.000030 -0.135350 
#    y -0.000030 1.855780 0.000040 
#    z -0.135350 0.000040 2.761080 
# 
# From -- ./inp_files/98040.got.cif
#   From: 2010.05.17/outbox.cif.g08.bks.cpg/sg15_50_cif.got.tgz:98040.got - 2010.06.03 18:47:42.
