data_PCOD9290167
_publ_section_title
;
Structure prediction by ZEFSAII (Michael W. Deem and Ramdas Pophale) SiO2 
 PCOD9290167
Probable space group: C 2/C
;
_chemical_formula_sum "Si O2"
_cell_formula_units_Z 64
_cell_length_a 19.724767
_cell_length_b 17.797644
_cell_length_c 22.813125
_cell_angle_alpha 90.000000
_cell_angle_beta 160.499750
_cell_angle_gamma 90.000000
_cell_volume 2673.374401
_symmetry_space_group_name_H-M "C 2/C"
_symmetry_group_IT_number 15
_symmetry_cell_setting 'monoclinic'
loop_
_space_group_symop_operation_xyz
x,y,z
-x,y,1/2-z
-x,-y,-z
x,-y,1/2+z
1/2+x,1/2+y,z
1/2-x,1/2+y,1/2-z
1/2-x,1/2-y,-z
1/2+x,1/2-y,1/2+z
loop_
_atom_site_type_symbol
_atom_site_label
_atom_site_fract_x
_atom_site_fract_y
_atom_site_fract_z
Si Si1 0.779448 0.273005 0.793767
Si Si2 0.642157 0.664968 0.546763
Si Si3 0.990393 0.100206 0.304963
Si Si4 0.297713 0.835572 0.370710
Si Si5 0.786411 0.998773 0.862631
Si Si6 0.768723 0.824366 0.052682
Si Si7 0.280132 0.966800 0.563984
Si Si8 0.377098 0.004566 0.959666
O O1 0.586725 0.320631 0.615640
O O2 0.815957 0.209733 0.773109
O O3 0.739102 0.230981 0.822868
O O4 0.968115 0.327215 0.957178
O O5 0.594575 0.651337 0.439703
O O6 0.737086 0.587204 0.643885
O O7 0.000000 0.139102 0.250000
O O8 0.130776 0.026031 0.412737
O O9 0.770104 0.065218 0.144284
O O10 0.299570 0.803114 0.437722
O O11 0.240543 0.921401 0.337114
O O12 0.804013 0.954897 0.938579
O O13 0.566308 0.977362 0.656938
O O14 0.000000 0.000000 0.000000
O O15 0.000000 0.846912 0.250000
O O16 0.750000 0.750000 0.000000
O O17 0.681564 0.893529 0.944352
O O18 0.500000 0.004415 0.750000
O O19 0.500000 0.000000 0.000000
#
# Coordination Sequence:
#
# PCOD9290167 Si02
#       8
#     8   8   8   8   8   8   8   8
#     4  10  22  41  63  87 124 163 212 268 315 387
#     4  10  23  41  63  92 124 164 208 264 327 380
#     4  11  23  42  67  96 129 167 212 266 329 392
#     4  11  22  38  60  87 119 167 211 257 321 377
#     4  11  23  39  65  97 127 166 219 272 321 381
#     4  12  25  39  56  85 125 171 216 258 314 385
#     4  11  23  41  62  89 128 170 212 267 322 380
#     4  12  23  39  65  97 129 164 211 270 325 382
#
# _framework density 23.939782000000001
#
# number of rings (size 3 to 8) (size 9 to 14) (size 15 to 20)
#    0.000    1.000    0.000    8.250    0.000    5.000 
#    0.000    0.625    0.000    0.750    0.000    0.000 
#    0.000    0.000    0.000    0.000    0.000    0.000 
#
# Total GULP energy -178556.191762 kJ/mol
# GULP energy per Si atom -5579.880993 kJ/mol
# Density = 2.388529 g / cm^3
# Si number density = 23.939782 Si / 1000 Ang^3
#
#
#
# Elastic Constant Matrix: (Units=GPa)
#
#
# Indices 1 2 3 4 5 6 
#
# 1 136.4936 35.4389 13.7744 0.0320 -20.2657 0.0203
# 2 35.4389 68.7471 16.5018 -0.0654 -11.6735 0.1294
# 3 13.7744 16.5018 101.1818 0.0587 -1.0427 0.1485
# 4 0.0320 -0.0654 0.0587 -10.7834 0.0176 38.9129
# 5 -20.2657 -11.6735 -1.0427 0.0176 38.8169 0.0097
# 6 0.0203 0.1294 0.1485 38.9129 0.0097 -35.0406
#
#
#
# Elastic Compliance Matrix: (Units=1/GPa)
#
#
# Indices 1 2 3 4 5 6 
#
# 1 0.008901 -0.003868 -0.000545 -0.000005 0.003469 -0.000016
# 2 -0.003868 0.017644 -0.002318 -0.000023 0.003224 0.000029
# 3 -0.000545 -0.002318 0.010328 -0.000064 -0.000704 -0.000036
# 4 -0.000005 -0.000023 -0.000064 0.030836 -0.000034 0.034244
# 5 0.003469 0.003224 -0.000704 -0.000034 0.028524 -0.000019
# 6 -0.000016 0.000029 -0.000036 0.034244 -0.000019 0.009490
#
#
# Mechanical properties :
#
#
# Convention : Reuss Voigt Hill
#
# Bulk Modulus (GPa) = 42.71570 48.65030 45.68300
# Shear Modulus (GPa) = 39.37356 14.64575 27.00965
#
# Velocity S-wave (km/s) = 4.05988 2.47609 3.36256
# Velocity P-wave (km/s) = 6.31336 5.34236 5.84805
#
# Compressibility (1/GPa) = 0.02341059
#
# Stress axis : x y z
#
# Youngs Moduli (GPa) = 112.34948 56.67654 96.82200
#
# Poissons Ratio (x) = 0.21925 0.05277
# Poissons Ratio (y) = 0.43462 0.22441
# Poissons Ratio (z) = 0.06123 0.13136
#
# Static dielectric constant tensor:
#      x y z
#    x 1.881380 0.001330 0.042670 
#    y 0.001330 1.739830 -0.000740 
#    z 0.042670 -0.000740 1.830910 
# 
# From -- ./inp_files/280538.got.cif
#   From: 2010.05.17/outbox.cif.g08.bks.cpg/sg15_141_cif.got.tgz:280538.got - 2010.06.03 18:47:42.
