data_PCOD9290665
_publ_section_title
;
Structure prediction by ZEFSAII (Michael W. Deem and Ramdas Pophale) SiO2 
 PCOD9290665
Probable space group: C 2/C
;
_chemical_formula_sum "Si O2"
_cell_formula_units_Z 56
_cell_length_a 17.984504
_cell_length_b 13.335315
_cell_length_c 18.034966
_cell_angle_alpha 90.000000
_cell_angle_beta 142.613238
_cell_angle_gamma 90.000000
_cell_volume 2626.293811
_symmetry_space_group_name_H-M "C 2/C"
_symmetry_group_IT_number 15
_symmetry_cell_setting 'monoclinic'
loop_
_space_group_symop_operation_xyz
x,y,z
-x,y,1/2-z
-x,-y,-z
x,-y,1/2+z
1/2+x,1/2+y,z
1/2-x,1/2+y,1/2-z
1/2-x,1/2-y,-z
1/2+x,1/2-y,1/2+z
loop_
_atom_site_type_symbol
_atom_site_label
_atom_site_fract_x
_atom_site_fract_y
_atom_site_fract_z
Si Si1 0.657969 0.583432 0.162630
Si Si2 0.603827 0.479103 0.974461
Si Si3 0.291471 0.040013 0.890244
Si Si4 0.861361 0.342276 0.998793
Si Si5 0.380003 0.317728 0.624027
Si Si6 0.537449 0.224058 0.507744
Si Si7 0.965189 0.159538 0.801241
O O1 0.525404 0.559463 0.094136
O O2 0.755871 0.540059 0.297481
O O3 0.637951 0.697479 0.120599
O O4 0.675701 0.518877 0.102220
O O5 0.665385 0.391958 0.976359
O O6 0.566416 0.572691 0.894163
O O7 0.393069 0.120872 0.951548
O O8 0.166864 0.103267 0.806921
O O9 0.349701 0.962041 0.994804
O O10 0.719601 0.307080 0.891578
O O11 0.915326 0.285738 0.113187
O O12 0.933979 0.298585 0.986708
O O13 0.500000 0.369327 0.750000
O O14 0.479923 0.271941 0.386810
O O15 0.000000 0.209046 0.750000
#
# Coordination Sequence:
#
# PCOD9290665 Si02
#       7
#     8   8   8   8   8   8   8
#     4   9  19  35  62  95 121 165 216 261 322 378
#     4   9  16  35  62  94 125 156 216 268 306 389
#     4  11  24  40  68  92 130 174 211 275 324 389
#     4  11  25  40  61  99 132 170 216 264 326 385
#     4  11  22  39  66  94 136 170 211 270 321 392
#     4  11  24  42  65  98 132 163 225 265 319 406
#     4  10  22  41  68  95 122 169 218 273 327 378
#
# _framework density 21.322824000000001
#
# number of rings (size 3 to 8) (size 9 to 14) (size 15 to 20)
#    0.000    1.714    1.429    4.286    2.000    0.571 
#    2.571    0.714    0.000    0.000    0.000    0.000 
#    0.000    0.000    0.000    0.000    0.000    0.000 
#
# Total GULP energy -156123.412319 kJ/mol
# GULP energy per Si atom -5575.836154 kJ/mol
# Density = 2.127429 g / cm^3
# Si number density = 21.322824 Si / 1000 Ang^3
#
#
#
# Elastic Constant Matrix: (Units=GPa)
#
#
# Indices 1 2 3 4 5 6 
#
# 1 127.3085 64.5742 46.4813 0.0000 -15.5610 0.0000
# 2 64.5742 131.9216 37.9862 0.0000 -11.8465 0.0000
# 3 46.4813 37.9862 38.3083 0.0000 -10.6785 0.0000
# 4 0.0000 0.0000 0.0000 26.5689 0.0000 2.5470
# 5 -15.5610 -11.8465 -10.6785 0.0000 12.9020 0.0000
# 6 0.0000 0.0000 0.0000 2.5470 0.0000 23.9816
#
#
#
# Elastic Compliance Matrix: (Units=1/GPa)
#
#
# Indices 1 2 3 4 5 6 
#
# 1 0.014987 -0.002891 -0.014323 0.000000 0.003566 0.000000
# 2 -0.002891 0.011185 -0.007399 0.000000 0.000659 0.000000
# 3 -0.014323 -0.007399 0.057340 0.000000 0.023389 0.000000
# 4 0.000000 0.000000 0.000000 0.038025 0.000000 -0.004039
# 5 0.003566 0.000659 0.023389 0.000000 0.101772 0.000000
# 6 0.000000 0.000000 0.000000 -0.004039 0.000000 0.042128
#
#
# Mechanical properties :
#
#
# Convention : Reuss Voigt Hill
#
# Bulk Modulus (GPa) = 29.16789 66.18020 47.67404
# Shear Modulus (GPa) = 15.33304 22.59027 18.96166
#
# Velocity S-wave (km/s) = 2.68450 3.25844 2.98529
# Velocity P-wave (km/s) = 4.82883 6.72764 5.85571
#
# Compressibility (1/GPa) = 0.03428428
#
# Stress axis : x y z
#
# Youngs Moduli (GPa) = 66.72474 89.40271 17.43976
#
# Poissons Ratio (x) = 0.25850 0.24980
# Poissons Ratio (y) = 0.19293 0.12904
# Poissons Ratio (z) = 0.95572 0.66153
#
# Static dielectric constant tensor:
#      x y z
#    x 1.789260 0.000000 -0.034690 
#    y 0.000000 1.780900 0.000000 
#    z -0.034690 0.000000 1.830010 
# 
# From -- ./inp_files/210671.got.cif
#   From: 2010.05.17/outbox.cif.g08.bks.cpg/sg15_106_cif.got.tgz:210671.got - 2010.06.03 18:47:42.
