data_PCOD9290313
_publ_section_title
;
Structure prediction by ZEFSAII (Michael W. Deem and Ramdas Pophale) SiO2 
 PCOD9290313
Probable space group: C 2/C
;
_chemical_formula_sum "Si O2"
_cell_formula_units_Z 48
_cell_length_a 11.772780
_cell_length_b 19.071560
_cell_length_c 14.154642
_cell_angle_alpha 90.000000
_cell_angle_beta 42.886237
_cell_angle_gamma 90.000000
_cell_volume 2162.822660
_symmetry_space_group_name_H-M "C 2/C"
_symmetry_group_IT_number 15
_symmetry_cell_setting 'monoclinic'
loop_
_space_group_symop_operation_xyz
x,y,z
-x,y,1/2-z
-x,-y,-z
x,-y,1/2+z
1/2+x,1/2+y,z
1/2-x,1/2+y,1/2-z
1/2-x,1/2-y,-z
1/2+x,1/2-y,1/2+z
loop_
_atom_site_type_symbol
_atom_site_label
_atom_site_fract_x
_atom_site_fract_y
_atom_site_fract_z
Si Si1 0.500000 0.104744 0.250000
Si Si2 0.750406 0.956408 0.455941
Si Si3 0.330830 0.611071 0.407403
Si Si4 0.000000 0.164739 0.750000
Si Si5 0.082651 0.717156 0.350211
Si Si6 0.549527 0.884177 0.431541
Si Si7 0.816059 0.689944 0.825717
O O1 0.373068 0.056735 0.382944
O O2 0.599007 0.154468 0.264011
O O3 0.635297 0.948572 0.432603
O O4 0.865465 0.888918 0.372981
O O5 0.848548 0.027634 0.414711
O O6 0.500000 0.631797 0.250000
O O7 0.149046 0.610233 0.465805
O O8 0.295797 0.658715 0.521250
O O9 0.960390 0.215874 0.686985
O O10 0.942248 0.685361 0.506126
O O11 0.230333 0.744342 0.327123
O O12 0.646522 0.868792 0.276189
O O13 0.000000 0.708404 0.750000
#
# Coordination Sequence:
#
# PCOD9290313 Si02
#       7
#     4   8   8   4   8   8   8
#     4   9  24  38  72  98 128 171 210 278 332 387
#     4  11  22  45  66 100 129 170 220 271 332 384
#     4  11  25  45  64  96 132 175 222 266 321 390
#     4  11  22  40  74  96 132 165 218 286 322 383
#     4  10  22  41  65 102 130 164 219 268 329 385
#     4  10  23  42  69  96 130 177 209 273 327 389
#     4  10  23  42  68  95 131 178 214 266 324 389
#
# _framework density 22.193221999999999
#
# number of rings (size 3 to 8) (size 9 to 14) (size 15 to 20)
#    0.000    1.667    2.500    0.500    5.833    6.667 
#    3.000    1.667    0.000    0.000    0.000    0.000 
#    0.000    0.000    0.000    0.000    0.000    0.000 
#
# Total GULP energy -133957.554756 kJ/mol
# GULP energy per Si atom -5581.564782 kJ/mol
# Density = 2.214271 g / cm^3
# Si number density = 22.193222 Si / 1000 Ang^3
#
#
#
# Elastic Constant Matrix: (Units=GPa)
#
#
# Indices 1 2 3 4 5 6 
#
# 1 67.3964 8.6418 23.1345 0.0002 16.5878 0.0000
# 2 8.6418 74.2541 23.8840 0.0001 9.1878 0.0000
# 3 23.1345 23.8840 160.3706 -0.0001 12.2984 0.0000
# 4 0.0002 0.0001 -0.0001 12.8585 0.0000 -18.4853
# 5 16.5878 9.1878 12.2984 0.0000 24.3607 0.0001
# 6 0.0000 0.0000 0.0000 -18.4853 0.0001 8.5050
#
#
#
# Elastic Compliance Matrix: (Units=1/GPa)
#
#
# Indices 1 2 3 4 5 6 
#
# 1 0.018287 -0.000145 -0.001733 0.000000 -0.011523 0.000000
# 2 -0.000145 0.014624 -0.001812 0.000000 -0.004502 0.000000
# 3 -0.001733 -0.001812 0.006879 0.000000 -0.001610 0.000000
# 4 0.000000 0.000000 0.000000 -0.036605 0.000000 -0.079560
# 5 -0.011523 -0.004502 -0.001610 0.000000 0.051406 0.000000
# 6 0.000000 0.000000 0.000000 -0.079560 0.000000 -0.055343
#
#
# Mechanical properties :
#
#
# Convention : Reuss Voigt Hill
#
# Bulk Modulus (GPa) = 30.85435 45.92685 38.39060
# Shear Modulus (GPa) = 286.84925 25.56890 156.20907
#
# Velocity S-wave (km/s) = 11.38119 3.39795 8.39873
# Velocity P-wave (km/s) = 13.66167 6.01114 10.55403
#
# Compressibility (1/GPa) = 0.03241034
#
# Stress axis : x y z
#
# Youngs Moduli (GPa) = 54.68384 68.38083 145.37473
#
# Poissons Ratio (x) = 0.00993 0.25190
# Poissons Ratio (y) = 0.00794 0.26338
# Poissons Ratio (z) = 0.09475 0.12389
#
# Static dielectric constant tensor:
#      x y z
#    x 1.892990 0.000000 -0.004860 
#    y 0.000000 1.841700 0.000000 
#    z -0.004860 0.000000 1.784200 
# 
# From -- ./inp_files/147394.got.cif
#   From: 2010.05.17/outbox.cif.g08.bks.cpg/sg15_74_cif.got.tgz:147394.got - 2010.06.03 18:47:42.
