data_PCOD9290287
_publ_section_title
;
Structure prediction by ZEFSAII (Michael W. Deem and Ramdas Pophale) SiO2 
 PCOD9290287
Probable space group: C 2/C
;
_chemical_formula_sum "Si O2"
_cell_formula_units_Z 52
_cell_length_a 16.998827
_cell_length_b 9.164085
_cell_length_c 16.395151
_cell_angle_alpha 90.000000
_cell_angle_beta 119.612579
_cell_angle_gamma 90.000000
_cell_volume 2220.426280
_symmetry_space_group_name_H-M "C 2/C"
_symmetry_group_IT_number 15
_symmetry_cell_setting 'monoclinic'
loop_
_space_group_symop_operation_xyz
x,y,z
-x,y,1/2-z
-x,-y,-z
x,-y,1/2+z
1/2+x,1/2+y,z
1/2-x,1/2+y,1/2-z
1/2-x,1/2-y,-z
1/2+x,1/2-y,1/2+z
loop_
_atom_site_type_symbol
_atom_site_label
_atom_site_fract_x
_atom_site_fract_y
_atom_site_fract_z
Si Si1 0.013080 0.368892 0.115309
Si Si2 0.378997 0.379978 0.003477
Si Si3 0.000000 0.425069 0.750000
Si Si4 0.628200 0.879665 0.593209
Si Si5 0.653586 0.709329 0.763088
Si Si6 0.285321 0.101716 0.962979
Si Si7 0.558170 0.446000 0.646389
O O1 0.967045 0.467906 0.160719
O O2 0.090693 0.476768 0.121182
O O3 0.044356 0.217719 0.169497
O O4 0.953448 0.323185 0.005683
O O5 0.284369 0.419195 0.998826
O O6 0.464392 0.463552 0.087072
O O7 0.374752 0.204188 0.019743
O O8 0.391534 0.423049 0.915333
O O9 0.920241 0.319983 0.738885
O O10 0.667866 0.768624 0.678717
O O11 0.696240 0.944065 0.563086
O O12 0.735979 0.694626 0.866304
O O13 0.615870 0.546802 0.734698
#
# Coordination Sequence:
#
# PCOD9290287 Si02
#       7
#     8   8   4   8   8   8   8
#     4  10  22  41  68  95 131 175 231 277 335 415
#     4  10  23  39  69  94 131 173 227 279 339 402
#     4  10  24  42  66 102 128 182 228 286 330 420
#     4  10  22  41  64  96 133 179 223 277 347 408
#     4  11  25  40  69  97 138 177 227 281 349 402
#     4  11  24  40  65 100 135 179 218 294 343 408
#     4  11  22  45  69  98 124 183 226 283 336 429
#
# _framework density 23.418925999999999
#
# number of rings (size 3 to 8) (size 9 to 14) (size 15 to 20)
#    0.000    1.538    1.538    2.769   10.769    1.846 
#    0.000    4.615    0.000    0.000    0.000    0.000 
#    0.000    0.000    0.000    0.000    0.000    0.000 
#
# Total GULP energy -145247.492734 kJ/mol
# GULP energy per Si atom -5586.442028 kJ/mol
# Density = 2.336562 g / cm^3
# Si number density = 23.418926 Si / 1000 Ang^3
#
#
#
# Elastic Constant Matrix: (Units=GPa)
#
#
# Indices 1 2 3 4 5 6 
#
# 1 90.1897 30.3201 19.3884 0.0000 -21.3072 0.0000
# 2 30.3201 132.3065 38.9585 0.0000 -4.7032 0.0000
# 3 19.3884 38.9585 54.5514 0.0000 -4.4362 0.0000
# 4 0.0000 0.0000 0.0000 24.2465 0.0000 -9.6564
# 5 -21.3072 -4.7032 -4.4362 0.0000 25.8561 0.0000
# 6 0.0000 0.0000 0.0000 -9.6564 0.0000 35.4678
#
#
#
# Elastic Compliance Matrix: (Units=1/GPa)
#
#
# Indices 1 2 3 4 5 6 
#
# 1 0.015200 -0.002226 -0.002867 0.000000 0.011629 0.000000
# 2 -0.002226 0.009905 -0.006374 0.000000 -0.001126 0.000000
# 3 -0.002867 -0.006374 0.023950 0.000000 0.000587 0.000000
# 4 0.000000 0.000000 0.000000 0.046259 0.000000 0.012594
# 5 0.011629 -0.001126 0.000587 0.000000 0.048154 0.000000
# 6 0.000000 0.000000 0.000000 0.012594 0.000000 0.031624
#
#
# Mechanical properties :
#
#
# Convention : Reuss Voigt Hill
#
# Bulk Modulus (GPa) = 38.28343 50.48684 44.38513
# Shear Modulus (GPa) = 24.18576 29.67279 26.92927
#
# Velocity S-wave (km/s) = 3.21712 3.56342 3.39469
# Velocity P-wave (km/s) = 5.49386 6.20770 5.86166
#
# Compressibility (1/GPa) = 0.02612096
#
# Stress axis : x y z
#
# Youngs Moduli (GPa) = 65.79138 100.95696 41.75289
#
# Poissons Ratio (x) = 0.22469 0.11971
# Poissons Ratio (y) = 0.14643 0.26615
# Poissons Ratio (z) = 0.18863 0.64355
#
# Static dielectric constant tensor:
#      x y z
#    x 1.918750 0.000000 -0.005640 
#    y 0.000000 1.890690 0.000000 
#    z -0.005640 0.000000 1.923330 
# 
# From -- ./inp_files/209230.got.cif
#   From: 2010.05.17/outbox.cif.g08.bks.cpg/sg15_105_cif.got.tgz:209230.got - 2010.06.03 18:47:42.
