data_PCOD9290943
_publ_section_title
;
Structure prediction by ZEFSAII (Michael W. Deem and Ramdas Pophale) SiO2 
 PCOD9290943
Probable space group: C 2/C
;
_chemical_formula_sum "Si O2"
_cell_formula_units_Z 40
_cell_length_a 9.574925
_cell_length_b 10.873805
_cell_length_c 22.799530
_cell_angle_alpha 90.000000
_cell_angle_beta 125.805759
_cell_angle_gamma 90.000000
_cell_volume 1925.157907
_symmetry_space_group_name_H-M "C 2/C"
_symmetry_group_IT_number 15
_symmetry_cell_setting 'monoclinic'
loop_
_space_group_symop_operation_xyz
x,y,z
-x,y,1/2-z
-x,-y,-z
x,-y,1/2+z
1/2+x,1/2+y,z
1/2-x,1/2+y,1/2-z
1/2-x,1/2-y,-z
1/2+x,1/2-y,1/2+z
loop_
_atom_site_type_symbol
_atom_site_label
_atom_site_fract_x
_atom_site_fract_y
_atom_site_fract_z
Si Si1 0.084053 0.681199 0.712410
Si Si2 0.326809 0.797011 0.387622
Si Si3 0.111634 0.104481 0.997492
Si Si4 0.957185 0.795257 0.340174
Si Si5 0.503983 0.026739 0.387338
O O1 0.096143 0.757166 0.654501
O O2 0.281696 0.646731 0.774228
O O3 0.000000 0.735391 0.750000
O O4 0.980187 0.559167 0.666918
O O5 0.386871 0.721853 0.458750
O O6 0.394581 0.937229 0.402467
O O7 0.120347 0.792067 0.336928
O O8 0.308762 0.059504 0.041942
O O9 0.030789 0.138788 0.915794
O O10 0.000000 0.000000 0.000000
O O11 0.916662 0.654448 0.348541
#
# Coordination Sequence:
#
# PCOD9290943 Si02
#       5
#     8   8   8   8   8
#     4  10  22  42  61  95 131 169 217 274 330 391
#     4   9  22  43  65  92 127 174 219 261 339 390
#     4  11  23  40  67  98 130 175 214 277 337 393
#     4  11  22  41  68  95 129 172 227 270 332 402
#     4   9  22  41  64  92 128 171 218 269 330 393
#
# _framework density 20.777515999999999
#
# number of rings (size 3 to 8) (size 9 to 14) (size 15 to 20)
#    1.200    0.800    0.000    4.200    0.000    8.800 
#    7.200    0.000    0.000    0.000    0.000    0.000 
#    0.000    0.000    0.000    0.000    0.000    0.000 
#
# Total GULP energy -111494.213294 kJ/mol
# GULP energy per Si atom -5574.710665 kJ/mol
# Density = 2.073023 g / cm^3
# Si number density = 20.777516 Si / 1000 Ang^3
#
#
#
# Elastic Constant Matrix: (Units=GPa)
#
#
# Indices 1 2 3 4 5 6 
#
# 1 61.2181 23.6252 7.2167 0.0000 -17.4001 0.0000
# 2 23.6252 72.9056 -2.9071 0.0000 2.0990 0.0000
# 3 7.2167 -2.9071 70.6146 0.0000 0.3062 0.0000
# 4 0.0000 0.0000 0.0000 10.6602 0.0000 -4.6794
# 5 -17.4001 2.0990 0.3062 0.0000 23.7299 0.0000
# 6 0.0000 0.0000 0.0000 -4.6794 0.0000 36.5045
#
#
#
# Elastic Compliance Matrix: (Units=1/GPa)
#
#
# Indices 1 2 3 4 5 6 
#
# 1 0.025815 -0.009058 -0.003097 0.000000 0.019770 0.000000
# 2 -0.009058 0.016953 0.001659 0.000000 -0.008163 0.000000
# 3 -0.003097 0.001659 0.014557 0.000000 -0.002605 0.000000
# 4 0.000000 0.000000 0.000000 0.099400 0.000000 0.012742
# 5 0.019770 -0.008163 -0.002605 0.000000 0.057393 0.000000
# 6 0.000000 0.000000 0.000000 0.012742 0.000000 0.029027
#
#
# Mechanical properties :
#
#
# Convention : Reuss Voigt Hill
#
# Bulk Modulus (GPa) = 27.52282 28.95642 28.23962
# Shear Modulus (GPa) = 18.09963 25.96582 22.03273
#
# Velocity S-wave (km/s) = 2.95467 3.53896 3.25993
# Velocity P-wave (km/s) = 4.99152 5.53765 5.27167
#
# Compressibility (1/GPa) = 0.03633349
#
# Stress axis : x y z
#
# Youngs Moduli (GPa) = 38.73702 58.98720 68.69319
#
# Poissons Ratio (x) = 0.53431 0.21274
# Poissons Ratio (y) = 0.35088 -0.11397
# Poissons Ratio (z) = 0.11996 -0.09786
#
# Static dielectric constant tensor:
#      x y z
#    x 1.805770 0.000000 -0.030270 
#    y 0.000000 1.744930 0.000000 
#    z -0.030270 0.000000 1.759800 
# 
# From -- ./inp_files/230002.got.cif
#   From: 2010.05.17/outbox.cif.g08.bks.cpg/sg15_116_cif.got.tgz:230002.got - 2010.06.03 18:47:42.
