data_PCOD9290244
_publ_section_title
;
Structure prediction by ZEFSAII (Michael W. Deem and Ramdas Pophale) SiO2 
 PCOD9290244
Probable space group: C 2/C
;
_chemical_formula_sum "Si O2"
_cell_formula_units_Z 48
_cell_length_a 6.138939
_cell_length_b 24.750109
_cell_length_c 14.996337
_cell_angle_alpha 90.000000
_cell_angle_beta 101.485924
_cell_angle_gamma 90.000000
_cell_volume 2232.903865
_symmetry_space_group_name_H-M "C 2/C"
_symmetry_group_IT_number 15
_symmetry_cell_setting 'monoclinic'
loop_
_space_group_symop_operation_xyz
x,y,z
-x,y,1/2-z
-x,-y,-z
x,-y,1/2+z
1/2+x,1/2+y,z
1/2-x,1/2+y,1/2-z
1/2-x,1/2-y,-z
1/2+x,1/2-y,1/2+z
loop_
_atom_site_type_symbol
_atom_site_label
_atom_site_fract_x
_atom_site_fract_y
_atom_site_fract_z
Si Si1 0.000000 0.014609 0.750000
Si Si2 0.567238 0.916903 0.158047
Si Si3 0.700447 0.720515 0.086278
Si Si4 0.336695 0.662469 0.159897
Si Si5 0.500000 0.232276 0.250000
Si Si6 0.297849 0.490981 0.914596
Si Si7 0.442646 0.115090 0.036433
O O1 0.898871 0.981642 0.824372
O O2 0.799371 0.051335 0.693494
O O3 0.500000 0.893669 0.250000
O O4 0.371072 0.958872 0.113562
O O5 0.583680 0.879366 0.072304
O O6 0.462287 0.705147 0.106205
O O7 0.805224 0.661083 0.077167
O O8 0.829717 0.758002 0.168429
O O9 0.750000 0.750000 0.000000
O O10 0.500000 0.640225 0.250000
O O11 0.160633 0.695927 0.203221
O O12 0.197985 0.621183 0.088622
O O13 0.154619 0.441722 0.940285
O O14 0.500000 0.500000 0.000000
#
# Coordination Sequence:
#
# PCOD9290244 Si02
#       7
#     4   8   8   8   4   8   8
#     4  10  22  42  59  90 136 168 216 271 324 392
#     4  10  23  42  60  88 128 170 215 270 321 388
#     4  10  22  41  64  91 125 166 209 267 329 390
#     4   9  20  41  62  92 131 163 209 274 324 391
#     4   8  18  40  59  90 124 156 206 265 320 388
#     4  11  23  41  62  89 130 170 216 271 328 396
#     4  11  23  39  64  96 122 171 220 259 334 394
#
# _framework density 21.496670000000002
#
# number of rings (size 3 to 8) (size 9 to 14) (size 15 to 20)
#    0.000    2.000    1.667    0.500    2.333    2.667 
#   36.000    5.000    0.000    0.000    0.000    0.000 
#    0.000    0.000    0.000    0.000    0.000    0.000 
#
# Total GULP energy -133795.328478 kJ/mol
# GULP energy per Si atom -5574.805353 kJ/mol
# Density = 2.144774 g / cm^3
# Si number density = 21.496670 Si / 1000 Ang^3
#
#
#
# Elastic Constant Matrix: (Units=GPa)
#
#
# Indices 1 2 3 4 5 6 
#
# 1 128.5563 16.0798 65.2813 0.0000 -2.8982 0.0000
# 2 16.0798 8.5247 10.4862 0.0000 1.2834 0.0000
# 3 65.2813 10.4862 160.4564 0.0000 -6.9090 0.0000
# 4 0.0000 0.0000 0.0000 31.2696 0.0000 -14.0159
# 5 -2.8982 1.2834 -6.9090 0.0000 49.4796 0.0000
# 6 0.0000 0.0000 0.0000 -14.0159 0.0000 -8.3851
#
#
#
# Elastic Compliance Matrix: (Units=1/GPa)
#
#
# Indices 1 2 3 4 5 6 
#
# 1 0.011898 -0.018076 -0.003631 0.000000 0.000659 0.000000
# 2 -0.018076 0.156026 -0.003081 0.000000 -0.005536 0.000000
# 3 -0.003631 -0.003081 0.007953 0.000000 0.000978 0.000000
# 4 0.000000 0.000000 0.000000 0.018282 0.000000 -0.030559
# 5 0.000659 -0.005536 0.000978 0.000000 0.020529 0.000000
# 6 0.000000 0.000000 0.000000 -0.030559 0.000000 -0.068178
#
#
# Mechanical properties :
#
#
# Convention : Reuss Voigt Hill
#
# Bulk Modulus (GPa) = 7.91758 53.47021 30.69390
# Shear Modulus (GPa) = 20.99192 28.18547 24.58870
#
# Velocity S-wave (km/s) = 3.12832 3.62492 3.38574
# Velocity P-wave (km/s) = 4.09142 6.51519 5.44001
#
# Compressibility (1/GPa) = 0.12630122
#
# Stress axis : x y z
#
# Youngs Moduli (GPa) = 84.04480 6.40919 125.73881
#
# Poissons Ratio (x) = 0.11585 0.45658
# Poissons Ratio (y) = 1.51920 0.38738
# Poissons Ratio (z) = 0.30518 0.01975
#
# Static dielectric constant tensor:
#      x y z
#    x 1.789080 0.000000 0.062640 
#    y 0.000000 1.133610 0.000000 
#    z 0.062640 0.000000 1.848380 
# 
# From -- ./inp_files/130511.got.cif
#   From: 2010.05.17/outbox.cif.g08.bks.cpg/sg15_66_cif.got.tgz:130511.got - 2010.06.03 18:47:42.
