data_PCOD9290597
_publ_section_title
;
Structure prediction by ZEFSAII (Michael W. Deem and Ramdas Pophale) SiO2 
 PCOD9290597
Probable space group: C 2/C
;
_chemical_formula_sum "Si O2"
_cell_formula_units_Z 56
_cell_length_a 17.279167
_cell_length_b 20.864851
_cell_length_c 15.070811
_cell_angle_alpha 90.000000
_cell_angle_beta 149.078625
_cell_angle_gamma 90.000000
_cell_volume 2792.033658
_symmetry_space_group_name_H-M "C 2/C"
_symmetry_group_IT_number 15
_symmetry_cell_setting 'monoclinic'
loop_
_space_group_symop_operation_xyz
x,y,z
-x,y,1/2-z
-x,-y,-z
x,-y,1/2+z
1/2+x,1/2+y,z
1/2-x,1/2+y,1/2-z
1/2-x,1/2-y,-z
1/2+x,1/2-y,1/2+z
loop_
_atom_site_type_symbol
_atom_site_label
_atom_site_fract_x
_atom_site_fract_y
_atom_site_fract_z
Si Si1 0.841004 0.104833 0.639515
Si Si2 0.372231 0.920464 0.937069
Si Si3 0.215498 0.540042 0.770799
Si Si4 0.842078 0.696576 0.141444
Si Si5 0.667083 0.990547 0.426874
Si Si6 0.728359 0.292843 0.726352
Si Si7 0.122427 0.164018 0.634301
O O1 0.727282 0.129380 0.453408
O O2 0.842660 0.148554 0.727886
O O3 0.000000 0.106163 0.750000
O O4 0.781632 0.034139 0.595624
O O5 0.305184 0.850652 0.854498
O O6 0.288998 0.974386 0.792551
O O7 0.550233 0.928343 0.089872
O O8 0.359348 0.933477 0.029655
O O9 0.224883 0.523972 0.884980
O O10 0.339881 0.594472 0.871462
O O11 0.816929 0.705038 0.219636
O O12 0.000000 0.700731 0.250000
O O13 0.750000 0.750000 0.000000
O O14 0.500000 0.019942 0.250000
O O15 0.766928 0.220005 0.793575
O O16 0.550446 0.310418 0.542962
#
# Coordination Sequence:
#
# PCOD9290597 Si02
#       7
#     8   8   8   8   8   8   8
#     4  12  23  38  58  94 130 167 208 262 317 385
#     4  10  22  41  67  97 128 170 216 266 323 383
#     4  10  22  41  69  96 128 169 218 266 322 385
#     4  12  23  35  56  84 124 166 206 248 316 384
#     4  10  22  43  67  96 129 169 214 267 322 383
#     4  12  25  41  62  92 132 173 215 271 320 387
#     4  12  25  41  62  93 133 171 220 265 325 381
#
# _framework density 20.057065000000001
#
# number of rings (size 3 to 8) (size 9 to 14) (size 15 to 20)
#    0.000    0.857    4.286    3.429    2.000    1.714 
#    0.000    0.714    0.000    0.000    0.000    0.000 
#    0.000    0.000    0.000    0.000    0.000    0.000 
#
# Total GULP energy -156132.024251 kJ/mol
# GULP energy per Si atom -5576.143723 kJ/mol
# Density = 2.001141 g / cm^3
# Si number density = 20.057065 Si / 1000 Ang^3
#
#
#
# Elastic Constant Matrix: (Units=GPa)
#
#
# Indices 1 2 3 4 5 6 
#
# 1 75.4040 25.7748 30.0147 0.0000 5.5752 0.0000
# 2 25.7748 93.8579 37.8672 0.0000 9.2309 0.0000
# 3 30.0147 37.8672 69.2571 0.0000 8.3949 0.0000
# 4 0.0000 0.0000 0.0000 -80.0489 0.0000 46.4011
# 5 5.5752 9.2309 8.3949 0.0000 30.3877 0.0000
# 6 0.0000 0.0000 0.0000 46.4011 0.0000 11.7795
#
#
#
# Elastic Compliance Matrix: (Units=1/GPa)
#
#
# Indices 1 2 3 4 5 6 
#
# 1 0.016357 -0.002046 -0.005879 0.000000 -0.000755 0.000000
# 2 -0.002046 0.014064 -0.006550 0.000000 -0.002087 0.000000
# 3 -0.005879 -0.006550 0.020896 0.000000 -0.002704 0.000000
# 4 0.000000 0.000000 0.000000 -0.003805 0.000000 0.014987
# 5 -0.000755 -0.002087 -0.002704 0.000000 0.034428 0.000000
# 6 0.000000 0.000000 0.000000 0.014987 0.000000 0.025856
#
#
# Mechanical properties :
#
#
# Convention : Reuss Voigt Hill
#
# Bulk Modulus (GPa) = 44.70706 47.31469 46.01087
# Shear Modulus (GPa) = 34.67382 2.08115 18.37748
#
# Velocity S-wave (km/s) = 4.16234 1.01974 3.03026
# Velocity P-wave (km/s) = 6.74081 5.00277 5.93575
#
# Compressibility (1/GPa) = 0.02236783
#
# Stress axis : x y z
#
# Youngs Moduli (GPa) = 61.13566 71.10261 47.85645
#
# Poissons Ratio (x) = 0.14546 0.28133
# Poissons Ratio (y) = 0.12507 0.31347
# Poissons Ratio (z) = 0.35940 0.46573
#
# Static dielectric constant tensor:
#      x y z
#    x 1.790610 0.000000 -0.011580 
#    y 0.000000 1.803420 0.000000 
#    z -0.011580 0.000000 1.729870 
# 
# From -- ./inp_files/50128.got.cif
#   From: 2010.05.17/outbox.cif.g08.bks.cpg/sg15_26_cif.got.tgz:50128.got - 2010.06.03 18:47:42.
