data_PCOD9290839
_publ_section_title
;
Structure prediction by ZEFSAII (Michael W. Deem and Ramdas Pophale) SiO2 
 PCOD9290839
Probable space group: C 2/C
;
_chemical_formula_sum "Si O2"
_cell_formula_units_Z 20
_cell_length_a 9.487016
_cell_length_b 20.621939
_cell_length_c 5.401073
_cell_angle_alpha 90.000000
_cell_angle_beta 57.564063
_cell_angle_gamma 90.000000
_cell_volume 891.820278
_symmetry_space_group_name_H-M "C 2/C"
_symmetry_group_IT_number 15
_symmetry_cell_setting 'monoclinic'
loop_
_space_group_symop_operation_xyz
x,y,z
-x,y,1/2-z
-x,-y,-z
x,-y,1/2+z
1/2+x,1/2+y,z
1/2-x,1/2+y,1/2-z
1/2-x,1/2-y,-z
1/2+x,1/2-y,1/2+z
loop_
_atom_site_type_symbol
_atom_site_label
_atom_site_fract_x
_atom_site_fract_y
_atom_site_fract_z
Si Si1 0.895735 0.233166 0.604966
Si Si2 0.500000 0.457824 0.750000
Si Si3 0.185695 0.362784 0.047162
O O1 0.834703 0.307393 0.644112
O O2 0.743716 0.182784 0.721997
O O3 0.000000 0.220262 0.750000
O O4 0.000000 0.222891 0.250000
O O5 0.500000 0.500000 0.500000
O O6 0.666792 0.413985 0.615605
O O7 0.000000 0.391393 0.250000
#
# Coordination Sequence:
#
# PCOD9290839 Si02
#       3
#     8   4   8
#     4  10  22  41  71 110 146 172 216 298 361 411
#     4  12  30  50  70  96 144 194 236 286 334 412
#     4  10  24  45  73 106 140 182 235 284 352 416
#
# _framework density 22.426044000000001
#
# number of rings (size 3 to 8) (size 9 to 14) (size 15 to 20)
#    0.000    1.600    2.000    0.000    5.600   22.400 
#    0.000    0.000    0.000    0.000    0.000    0.000 
#    0.000    0.000    0.000    0.000    0.000    0.000 
#
# Total GULP energy -55858.292923 kJ/mol
# GULP energy per Si atom -5585.829292 kJ/mol
# Density = 2.237500 g / cm^3
# Si number density = 22.426044 Si / 1000 Ang^3
#
#
#
# Elastic Constant Matrix: (Units=GPa)
#
#
# Indices 1 2 3 4 5 6 
#
# 1 251.3714 79.7370 93.3230 0.0000 -9.8228 0.0000
# 2 79.7370 121.2347 53.8089 0.0000 -22.2797 0.0000
# 3 93.3230 53.8089 138.5166 0.0000 3.6315 0.0000
# 4 0.0000 0.0000 0.0000 8.2873 0.0000 -16.1937
# 5 -9.8228 -22.2797 3.6315 0.0000 65.4950 0.0000
# 6 0.0000 0.0000 0.0000 -16.1937 0.0000 54.8611
#
#
#
# Elastic Compliance Matrix: (Units=1/GPa)
#
#
# Indices 1 2 3 4 5 6 
#
# 1 0.005897 -0.002509 -0.003003 0.000000 0.000197 0.000000
# 2 -0.002509 0.011967 -0.003060 0.000000 0.003864 0.000000
# 3 -0.003003 -0.003060 0.010486 0.000000 -0.002073 0.000000
# 4 0.000000 0.000000 0.000000 0.285118 0.000000 0.084160
# 5 0.000197 0.003864 -0.002073 0.000000 0.016727 0.000000
# 6 0.000000 0.000000 0.000000 0.084160 0.000000 0.043070
#
#
# Mechanical properties :
#
#
# Convention : Reuss Voigt Hill
#
# Bulk Modulus (GPa) = 89.24342 107.20673 98.22508
# Shear Modulus (GPa) = 12.68574 44.67894 28.68234
#
# Velocity S-wave (km/s) = 2.38096 4.46834 3.58016
# Velocity P-wave (km/s) = 6.88764 8.63306 7.80927
#
# Compressibility (1/GPa) = 0.01120531
#
# Stress axis : x y z
#
# Youngs Moduli (GPa) = 169.58344 83.56471 95.36841
#
# Poissons Ratio (x) = 0.20967 0.28642
# Poissons Ratio (y) = 0.42550 0.29178
# Poissons Ratio (z) = 0.50932 0.25567
#
# Static dielectric constant tensor:
#      x y z
#    x 1.924900 0.000000 -0.100620 
#    y 0.000000 1.835490 0.000000 
#    z -0.100620 0.000000 1.970520 
# 
# From -- ./inp_files/1146.got.cif
#   From: 2010.05.17/outbox.cif.g08.bks.cpg/sg15_1_cif.got.tgz:1146.got - 2010.06.03 18:47:42.
