data_PCOD9290397
_publ_section_title
;
Structure prediction by ZEFSAII (Michael W. Deem and Ramdas Pophale) SiO2 
 PCOD9290397
Probable space group: C 2/C
;
_chemical_formula_sum "Si O2"
_cell_formula_units_Z 64
_cell_length_a 15.235217
_cell_length_b 24.222691
_cell_length_c 13.708600
_cell_angle_alpha 90.000000
_cell_angle_beta 35.257191
_cell_angle_gamma 90.000000
_cell_volume 2920.292369
_symmetry_space_group_name_H-M "C 2/C"
_symmetry_group_IT_number 15
_symmetry_cell_setting 'monoclinic'
loop_
_space_group_symop_operation_xyz
x,y,z
-x,y,1/2-z
-x,-y,-z
x,-y,1/2+z
1/2+x,1/2+y,z
1/2-x,1/2+y,1/2-z
1/2-x,1/2-y,-z
1/2+x,1/2-y,1/2+z
loop_
_atom_site_type_symbol
_atom_site_label
_atom_site_fract_x
_atom_site_fract_y
_atom_site_fract_z
Si Si1 0.319125 0.304910 0.390900
Si Si2 0.049175 0.510216 0.343249
Si Si3 0.756113 0.894311 0.581032
Si Si4 0.216522 0.035236 0.612453
Si Si5 0.733781 0.414143 0.311654
Si Si6 0.067683 0.919381 0.791394
Si Si7 0.847038 0.821051 0.680469
Si Si8 0.191584 0.205476 0.830999
O O1 0.500000 0.313058 0.250000
O O2 0.250000 0.250000 0.500000
O O3 0.213311 0.353627 0.530788
O O4 0.309703 0.300345 0.284450
O O5 0.141315 0.567051 0.244201
O O6 0.158246 0.457417 0.230462
O O7 0.000000 0.500000 0.500000
O O8 0.891167 0.518216 0.430072
O O9 0.847584 0.938237 0.429993
O O10 0.824369 0.850340 0.595291
O O11 0.222721 0.072205 0.705501
O O12 0.137177 0.979156 0.715522
O O13 0.565081 0.421967 0.507817
O O14 0.778442 0.350064 0.286729
O O15 0.181941 0.871869 0.721092
O O16 0.000000 0.902023 0.750000
O O17 0.751620 0.767000 0.792186
O O18 0.021546 0.801518 0.525296
#
# Coordination Sequence:
#
# PCOD9290397 Si02
#       8
#     8   8   8   8   8   8   8   8
#     4  12  23  40  61  98 142 178 215 262 329 419
#     4  10  23  41  58  92 132 179 228 266 313 383
#     4  12  23  38  66  97 140 175 208 269 334 406
#     4  11  23  40  65  97 134 173 220 267 339 400
#     4  10  22  41  65  95 131 170 222 279 329 394
#     4  11  25  44  67  92 125 172 226 281 330 391
#     4  11  25  44  66  96 133 170 223 269 332 398
#     4  11  22  42  64  95 133 174 212 270 329 397
#
# _framework density 21.915614999999999
#
# number of rings (size 3 to 8) (size 9 to 14) (size 15 to 20)
#    0.000    1.000    3.750    3.000    0.000    8.500 
#    2.250    2.500    0.000    1.500    0.000    0.000 
#    0.000    0.000    0.000    0.000    0.000    0.000 
#
# Total GULP energy -178549.293368 kJ/mol
# GULP energy per Si atom -5579.665418 kJ/mol
# Density = 2.186573 g / cm^3
# Si number density = 21.915615 Si / 1000 Ang^3
#
#
#
# Elastic Constant Matrix: (Units=GPa)
#
#
# Indices 1 2 3 4 5 6 
#
# 1 24.1796 19.6098 -4.7991 -0.0040 4.1446 0.0029
# 2 19.6098 179.9640 45.8014 -0.0160 -7.6685 0.0234
# 3 -4.7991 45.8014 78.0778 -0.0124 -1.4415 0.0216
# 4 -0.0040 -0.0160 -0.0124 35.3981 0.0059 12.5597
# 5 4.1446 -7.6685 -1.4415 0.0059 23.9544 -0.0140
# 6 0.0029 0.0234 0.0216 12.5597 -0.0140 33.0810
#
#
#
# Elastic Compliance Matrix: (Units=1/GPa)
#
#
# Indices 1 2 3 4 5 6 
#
# 1 0.051235 -0.007993 0.007636 0.000011 -0.010964 -0.000013
# 2 -0.007993 0.007863 -0.005037 0.000000 0.003597 0.000000
# 3 0.007636 -0.005037 0.016196 0.000009 -0.001959 -0.000012
# 4 0.000011 0.000000 0.000009 0.032648 -0.000017 -0.012395
# 5 -0.010964 0.003597 -0.001959 -0.000017 0.044677 0.000025
# 6 -0.000013 0.000000 -0.000012 -0.012395 0.000025 0.034935
#
#
# Mechanical properties :
#
#
# Convention : Reuss Voigt Hill
#
# Bulk Modulus (GPa) = 15.50305 44.82731 30.16518
# Shear Modulus (GPa) = 22.74337 33.26066 28.00201
#
# Velocity S-wave (km/s) = 3.22494 3.89995 3.57840
# Velocity P-wave (km/s) = 4.57781 6.38580 5.55584
#
# Compressibility (1/GPa) = 0.06450344
#
# Stress axis : x y z
#
# Youngs Moduli (GPa) = 19.51806 127.17847 61.74400
#
# Poissons Ratio (x) = 1.01657 -0.47146
# Poissons Ratio (y) = 0.15601 0.31103
# Poissons Ratio (z) = -0.14903 0.64065
#
# Static dielectric constant tensor:
#      x y z
#    x 1.890330 0.000000 -0.003270 
#    y 0.000000 1.859350 0.000010 
#    z -0.003270 0.000010 1.849120 
# 
# From -- ./inp_files/164213.got.cif
#   From: 2010.05.17/outbox.cif.g08.bks.cpg/sg15_83_cif.got.tgz:164213.got - 2010.06.03 18:47:42.
