data_PCOD9290159
_publ_section_title
;
Structure prediction by ZEFSAII (Michael W. Deem and Ramdas Pophale) SiO2 
 PCOD9290159
Probable space group: C 2/C
;
_chemical_formula_sum "Si O2"
_cell_formula_units_Z 64
_cell_length_a 18.700411
_cell_length_b 13.905245
_cell_length_c 11.291726
_cell_angle_alpha 90.000000
_cell_angle_beta 93.130552
_cell_angle_gamma 90.000000
_cell_volume 2931.848621
_symmetry_space_group_name_H-M "C 2/C"
_symmetry_group_IT_number 15
_symmetry_cell_setting 'monoclinic'
loop_
_space_group_symop_operation_xyz
x,y,z
-x,y,1/2-z
-x,-y,-z
x,-y,1/2+z
1/2+x,1/2+y,z
1/2-x,1/2+y,1/2-z
1/2-x,1/2-y,-z
1/2+x,1/2-y,1/2+z
loop_
_atom_site_type_symbol
_atom_site_label
_atom_site_fract_x
_atom_site_fract_y
_atom_site_fract_z
Si Si1 0.673569 0.447787 0.314665
Si Si2 0.967336 0.134215 0.574318
Si Si3 0.279084 0.804714 0.185894
Si Si4 0.538504 0.850008 0.918314
Si Si5 0.905144 0.552164 0.290701
Si Si6 0.269536 0.102434 0.430425
Si Si7 0.427674 0.836733 0.302580
Si Si8 0.061070 0.040231 0.158890
O O1 0.601868 0.398071 0.358076
O O2 0.726705 0.367734 0.265706
O O3 0.709828 0.519042 0.413017
O O4 0.639790 0.519354 0.213523
O O5 0.987562 0.241585 0.606354
O O6 0.032139 0.060033 0.599293
O O7 0.943158 0.123438 0.437097
O O8 0.250369 0.701758 0.138642
O O9 0.354716 0.785998 0.257029
O O10 0.286611 0.868083 0.066433
O O11 0.596787 0.879945 0.825227
O O12 0.471942 0.917126 0.878796
O O13 0.563717 0.851984 0.055759
O O14 0.836218 0.559992 0.365249
O O15 0.917077 0.444113 0.249608
O O16 0.500000 0.796623 0.250000
O O17 0.000000 0.060954 0.250000
#
# Coordination Sequence:
#
# PCOD9290159 Si02
#       8
#     8   8   8   8   8   8   8   8
#     4  11  22  42  69  92 138 171 216 275 330 394
#     4  10  22  41  63 101 126 173 217 271 326 387
#     4  11  26  44  67  98 132 178 225 268 333 399
#     4  11  25  40  71  97 126 168 227 273 325 392
#     4  11  24  43  69  94 131 172 216 275 334 391
#     4  11  25  45  66  98 134 178 220 266 338 397
#     4  12  25  46  67  97 132 172 222 278 330 387
#     4   9  21  39  64  91 136 168 214 265 333 384
#
# _framework density 21.829231
#
# number of rings (size 3 to 8) (size 9 to 14) (size 15 to 20)
#    0.000    1.250    2.500    2.625   10.500    0.500 
#   11.250    1.250    0.000    0.000    0.000    0.000 
#    0.000    0.000    0.000    0.000    0.000    0.000 
#
# Total GULP energy -178863.304238 kJ/mol
# GULP energy per Si atom -5589.478257 kJ/mol
# Density = 2.177955 g / cm^3
# Si number density = 21.829231 Si / 1000 Ang^3
#
#
#
# Elastic Constant Matrix: (Units=GPa)
#
#
# Indices 1 2 3 4 5 6 
#
# 1 78.0711 -11.8414 7.1881 0.0000 13.5173 0.0000
# 2 -11.8414 69.2063 -12.3298 0.0000 5.1787 0.0000
# 3 7.1881 -12.3298 88.7351 0.0000 20.7042 0.0000
# 4 0.0000 0.0000 0.0000 25.7836 0.0000 2.6830
# 5 13.5173 5.1787 20.7042 0.0000 25.0194 0.0000
# 6 0.0000 0.0000 0.0000 2.6830 0.0000 15.2965
#
#
#
# Elastic Compliance Matrix: (Units=1/GPa)
#
#
# Indices 1 2 3 4 5 6 
#
# 1 0.014976 0.003627 0.001678 0.000000 -0.010230 0.000000
# 2 0.003627 0.016436 0.004016 0.000000 -0.008685 0.000000
# 3 0.001678 0.004016 0.014992 0.000000 -0.014144 0.000000
# 4 0.000000 0.000000 0.000000 0.039505 0.000000 -0.006929
# 5 -0.010230 -0.008685 -0.014144 0.000000 0.058998 0.000000
# 6 0.000000 0.000000 0.000000 -0.006929 0.000000 0.066590
#
#
# Mechanical properties :
#
#
# Convention : Reuss Voigt Hill
#
# Bulk Modulus (GPa) = 15.37396 22.44959 18.91178
# Shear Modulus (GPa) = 23.30608 30.08626 26.69617
#
# Velocity S-wave (km/s) = 3.27104 3.71651 3.50087
# Velocity P-wave (km/s) = 4.61784 5.35940 5.00238
#
# Compressibility (1/GPa) = 0.06504503
#
# Stress axis : x y z
#
# Youngs Moduli (GPa) = 66.77479 60.84365 66.70307
#
# Poissons Ratio (x) = -0.22067 -0.11191
# Poissons Ratio (y) = -0.24218 -0.26791
# Poissons Ratio (z) = -0.11203 -0.24437
#
# Static dielectric constant tensor:
#      x y z
#    x 1.773730 0.000000 0.009850 
#    y 0.000000 1.798660 0.000000 
#    z 0.009850 0.000000 1.830330 
# 
# From -- ./inp_files/105722.got.cif
#   From: 2010.05.17/outbox.cif.g08.bks.cpg/sg15_53_cif.got.tgz:105722.got - 2010.06.03 18:47:42.
