data_PCOD9290637
_publ_section_title
;
Structure prediction by ZEFSAII (Michael W. Deem and Ramdas Pophale) SiO2 
 PCOD9290637
Probable space group: C 2/C
;
_chemical_formula_sum "Si O2"
_cell_formula_units_Z 36
_cell_length_a 13.327860
_cell_length_b 17.465906
_cell_length_c 9.985235
_cell_angle_alpha 90.000000
_cell_angle_beta 46.605157
_cell_angle_gamma 90.000000
_cell_volume 1688.989877
_symmetry_space_group_name_H-M "C 2/C"
_symmetry_group_IT_number 15
_symmetry_cell_setting 'monoclinic'
loop_
_space_group_symop_operation_xyz
x,y,z
-x,y,1/2-z
-x,-y,-z
x,-y,1/2+z
1/2+x,1/2+y,z
1/2-x,1/2+y,1/2-z
1/2-x,1/2-y,-z
1/2+x,1/2-y,1/2+z
loop_
_atom_site_type_symbol
_atom_site_label
_atom_site_fract_x
_atom_site_fract_y
_atom_site_fract_z
Si Si1 0.599778 0.273234 0.940792
Si Si2 0.124592 0.559007 0.354879
Si Si3 0.839635 0.290814 0.535085
Si Si4 0.500000 0.169689 0.250000
Si Si5 0.078885 0.049902 0.534387
O O1 0.751409 0.267031 0.744259
O O2 0.492080 0.241785 0.926541
O O3 0.596954 0.223732 0.076024
O O4 0.567497 0.360530 0.007334
O O5 0.157320 0.615360 0.453848
O O6 0.067206 0.616748 0.297898
O O7 0.000000 0.500000 0.500000
O O8 0.261115 0.528329 0.151708
O O9 0.750000 0.250000 0.500000
O O10 0.000000 0.038329 0.750000
O O11 0.000000 0.000000 0.500000
#
# Coordination Sequence:
#
# PCOD9290637 Si02
#       5
#     8   8   8   4   8
#     4  10  22  41  70  97 131 182 234 286 341 424
#     4  10  25  45  68 102 141 189 228 295 361 429
#     4  10  22  41  68 103 135 177 230 293 353 418
#     4  10  22  44  74  98 132 178 246 280 342 424
#     4  11  26  43  67 100 141 188 236 295 359 423
#
# _framework density 21.314516000000001
#
# number of rings (size 3 to 8) (size 9 to 14) (size 15 to 20)
#    0.000    1.778    1.111    0.667    6.222    8.000 
#    8.000    0.000    0.000    0.000    0.000    0.000 
#    0.000    0.000    0.000    0.000    0.000    0.000 
#
# Total GULP energy -100207.331536 kJ/mol
# GULP energy per Si atom -5567.073974 kJ/mol
# Density = 2.126600 g / cm^3
# Si number density = 21.314516 Si / 1000 Ang^3
#
#
#
# Elastic Constant Matrix: (Units=GPa)
#
#
# Indices 1 2 3 4 5 6 
#
# 1 76.8505 40.8187 37.7643 0.0000 -8.1709 0.0000
# 2 40.8187 73.4333 57.2177 0.0000 -1.4078 0.0000
# 3 37.7643 57.2177 132.7187 0.0000 -21.4224 0.0000
# 4 0.0000 0.0000 0.0000 35.3675 0.0000 5.1933
# 5 -8.1709 -1.4078 -21.4224 0.0000 50.6062 0.0000
# 6 0.0000 0.0000 0.0000 5.1933 0.0000 18.8352
#
#
#
# Elastic Compliance Matrix: (Units=1/GPa)
#
#
# Indices 1 2 3 4 5 6 
#
# 1 0.018879 -0.009896 -0.000706 0.000000 0.002474 0.000000
# 2 -0.009896 0.026256 -0.009277 0.000000 -0.004795 0.000000
# 3 -0.000706 -0.009277 0.012531 0.000000 0.004933 0.000000
# 4 0.000000 0.000000 0.000000 0.029468 0.000000 -0.008125
# 5 0.002474 -0.004795 0.004933 0.000000 0.022115 0.000000
# 6 0.000000 0.000000 0.000000 -0.008125 0.000000 0.055332
#
#
# Mechanical properties :
#
#
# Convention : Reuss Voigt Hill
#
# Bulk Modulus (GPa) = 55.84596 61.62267 58.73431
# Shear Modulus (GPa) = 23.77465 30.77521 27.27493
#
# Velocity S-wave (km/s) = 3.34341 3.80394 3.58109
# Velocity P-wave (km/s) = 6.41579 6.94746 6.68691
#
# Compressibility (1/GPa) = 0.01790640
#
# Stress axis : x y z
#
# Youngs Moduli (GPa) = 52.96988 38.08717 79.79956
#
# Poissons Ratio (x) = 0.37693 0.05633
# Poissons Ratio (y) = 0.52421 0.74032
# Poissons Ratio (z) = 0.03739 0.35334
#
# Static dielectric constant tensor:
#      x y z
#    x 1.497020 0.000000 0.352660 
#    y 0.000000 2.182290 0.000000 
#    z 0.352660 0.000000 1.458620 
# 
# From -- ./inp_files/38901.got.cif
#   From: 2010.05.17/outbox.cif.g08.bks.cpg/sg15_20_cif.got.tgz:38901.got - 2010.06.03 18:47:42.
