data_PCOD9290697
_publ_section_title
;
Structure prediction by ZEFSAII (Michael W. Deem and Ramdas Pophale) SiO2 
 PCOD9290697
Probable space group: C 2/C
;
_chemical_formula_sum "Si O2"
_cell_formula_units_Z 32
_cell_length_a 5.399815
_cell_length_b 23.885921
_cell_length_c 10.795146
_cell_angle_alpha 90.000000
_cell_angle_beta 74.311583
_cell_angle_gamma 90.000000
_cell_volume 1340.483000
_symmetry_space_group_name_H-M "C 2/C"
_symmetry_group_IT_number 15
_symmetry_cell_setting 'monoclinic'
loop_
_space_group_symop_operation_xyz
x,y,z
-x,y,1/2-z
-x,-y,-z
x,-y,1/2+z
1/2+x,1/2+y,z
1/2-x,1/2+y,1/2-z
1/2-x,1/2-y,-z
1/2+x,1/2-y,1/2+z
loop_
_atom_site_type_symbol
_atom_site_label
_atom_site_fract_x
_atom_site_fract_y
_atom_site_fract_z
Si Si1 0.000000 0.637011 0.750000
Si Si2 0.113292 0.882286 0.886380
Si Si3 0.594386 0.715082 0.917850
Si Si4 0.561803 0.065542 0.486633
Si Si5 0.000000 0.694017 0.250000
O O1 0.232968 0.680996 0.704951
O O2 0.006828 0.598206 0.625064
O O3 0.251290 0.844582 0.761176
O O4 0.356302 0.913596 0.913512
O O5 0.038380 0.835618 0.995792
O O6 0.861556 0.921806 0.909852
O O7 0.445227 0.763998 0.868888
O O8 0.750000 0.750000 0.000000
O O9 0.500000 0.000000 0.500000
#
# Coordination Sequence:
#
# PCOD9290697 Si02
#       5
#     4   8   8   8   4
#     4  10  22  41  68  98 134 179 228 284 346 410
#     4  11  25  43  67 101 134 175 232 278 337 419
#     4  11  22  40  66 100 139 183 224 275 346 427
#     4  11  25  47  69  96 131 177 233 289 340 403
#     4  12  22  39  66 100 142 179 214 284 348 408
#
# _framework density 23.87199
#
# number of rings (size 3 to 8) (size 9 to 14) (size 15 to 20)
#    0.000    1.000    0.000    7.500    0.000    7.000 
#    0.000    5.000    0.000    0.000    0.000    0.000 
#    0.000    0.000    0.000    0.000    0.000    0.000 
#
# Total GULP energy -89321.531818 kJ/mol
# GULP energy per Si atom -5582.595739 kJ/mol
# Density = 2.381766 g / cm^3
# Si number density = 23.871990 Si / 1000 Ang^3
#
#
#
# Elastic Constant Matrix: (Units=GPa)
#
#
# Indices 1 2 3 4 5 6 
#
# 1 155.2666 89.2529 12.2226 0.0000 -16.5660 0.0000
# 2 89.2529 186.3246 33.0616 0.0000 -13.9585 0.0000
# 3 12.2226 33.0616 48.7821 0.0000 -11.5886 0.0000
# 4 0.0000 0.0000 0.0000 34.6375 0.0000 4.0799
# 5 -16.5660 -13.9585 -11.5886 0.0000 49.3836 0.0000
# 6 0.0000 0.0000 0.0000 4.0799 0.0000 52.4295
#
#
#
# Elastic Compliance Matrix: (Units=1/GPa)
#
#
# Indices 1 2 3 4 5 6 
#
# 1 0.009110 -0.004422 0.001211 0.000000 0.002090 0.000000
# 2 -0.004422 0.008277 -0.004552 0.000000 -0.000212 0.000000
# 3 0.001211 -0.004552 0.024434 0.000000 0.004853 0.000000
# 4 0.000000 0.000000 0.000000 0.029138 0.000000 -0.002267
# 5 0.002090 -0.000212 0.004853 0.000000 0.022030 0.000000
# 6 0.000000 0.000000 0.000000 -0.002267 0.000000 0.019250
#
#
# Mechanical properties :
#
#
# Convention : Reuss Voigt Hill
#
# Bulk Modulus (GPa) = 38.03032 73.27198 55.65115
# Shear Modulus (GPa) = 36.62195 44.34587 40.48391
#
# Velocity S-wave (km/s) = 3.92100 4.31473 4.12257
# Velocity P-wave (km/s) = 6.03859 7.45539 6.78408
#
# Compressibility (1/GPa) = 0.02629481
#
# Stress axis : x y z
#
# Youngs Moduli (GPa) = 109.76544 120.81380 40.92659
#
# Poissons Ratio (x) = 0.53428 -0.04957
# Poissons Ratio (y) = 0.48542 0.18630
# Poissons Ratio (z) = -0.13294 0.54996
#
# Static dielectric constant tensor:
#      x y z
#    x 2.168810 0.000000 -0.137190 
#    y 0.000000 1.792550 0.000000 
#    z -0.137190 0.000000 2.161010 
# 
# From -- ./inp_files/71967.got.cif
#   From: 2010.05.17/outbox.cif.g08.bks.cpg/sg15_36_cif.got.tgz:71967.got - 2010.06.03 18:47:42.
