data_PCOD9290746
_publ_section_title
;
Structure prediction by ZEFSAII (Michael W. Deem and Ramdas Pophale) SiO2 
 PCOD9290746
Probable space group: C 2/C
;
_chemical_formula_sum "Si O2"
_cell_formula_units_Z 40
_cell_length_a 13.061060
_cell_length_b 7.451723
_cell_length_c 17.750097
_cell_angle_alpha 90.000000
_cell_angle_beta 107.724518
_cell_angle_gamma 90.000000
_cell_volume 1645.565258
_symmetry_space_group_name_H-M "C 2/C"
_symmetry_group_IT_number 15
_symmetry_cell_setting 'monoclinic'
loop_
_space_group_symop_operation_xyz
x,y,z
-x,y,1/2-z
-x,-y,-z
x,-y,1/2+z
1/2+x,1/2+y,z
1/2-x,1/2+y,1/2-z
1/2-x,1/2-y,-z
1/2+x,1/2-y,1/2+z
loop_
_atom_site_type_symbol
_atom_site_label
_atom_site_fract_x
_atom_site_fract_y
_atom_site_fract_z
Si Si1 0.780802 0.828796 0.864742
Si Si2 0.669099 0.579390 0.493088
Si Si3 0.887237 0.610015 0.691627
Si Si4 0.612735 0.518964 0.812843
Si Si5 0.490501 0.833485 0.053457
O O1 0.617906 0.490156 0.904066
O O2 0.703685 0.666416 0.824996
O O3 0.900633 0.749171 0.887816
O O4 0.784101 0.913848 0.950385
O O5 0.750000 0.750000 0.500000
O O6 0.569263 0.680507 0.509176
O O7 0.781090 0.497355 0.687044
O O8 0.000000 0.541659 0.750000
O O9 0.919051 0.611485 0.609962
O O10 0.867231 0.816072 0.711697
O O11 0.500000 0.574016 0.750000
O O12 0.500000 0.000000 0.000000
#
# Coordination Sequence:
#
# PCOD9290746 Si02
#       5
#     8   8   8   8   8
#     4  12  23  42  71  98 131 184 233 277 358 417
#     4  11  21  43  68  96 140 183 226 287 351 408
#     4  10  24  49  66  96 147 181 224 296 360 410
#     4  10  22  41  69  96 136 182 223 282 356 415
#     4  11  25  41  67 108 131 175 244 287 339 429
#
# _framework density 24.307756999999999
#
# number of rings (size 3 to 8) (size 9 to 14) (size 15 to 20)
#    0.000    1.200    4.000    3.000    2.800    0.000 
#   10.800    0.000    0.000    0.000    0.000    0.000 
#    0.000    0.000    0.000    0.000    0.000    0.000 
#
# Total GULP energy -111446.140066 kJ/mol
# GULP energy per Si atom -5572.307003 kJ/mol
# Density = 2.425243 g / cm^3
# Si number density = 24.307757 Si / 1000 Ang^3
#
#
#
# Elastic Constant Matrix: (Units=GPa)
#
#
# Indices 1 2 3 4 5 6 
#
# 1 130.4283 78.6660 47.4091 0.0000 44.5324 0.0000
# 2 78.6660 133.6652 36.0201 0.0000 9.3569 0.0000
# 3 47.4091 36.0201 132.2736 0.0000 30.1534 0.0000
# 4 0.0000 0.0000 0.0000 39.1872 0.0000 19.4890
# 5 44.5324 9.3569 30.1534 0.0000 51.2388 0.0000
# 6 0.0000 0.0000 0.0000 19.4890 0.0000 36.4992
#
#
#
# Elastic Compliance Matrix: (Units=1/GPa)
#
#
# Indices 1 2 3 4 5 6 
#
# 1 0.018587 -0.009740 -0.000846 0.000000 -0.013878 0.000000
# 2 -0.009740 0.013179 -0.001708 0.000000 0.007064 0.000000
# 3 -0.000846 -0.001708 0.009343 0.000000 -0.004451 0.000000
# 4 0.000000 0.000000 0.000000 0.034745 0.000000 -0.018552
# 5 -0.013878 0.007064 -0.004451 0.000000 0.032908 0.000000
# 6 0.000000 0.000000 0.000000 -0.018552 0.000000 0.037304
#
#
# Mechanical properties :
#
#
# Convention : Reuss Voigt Hill
#
# Bulk Modulus (GPa) = 60.52610 80.06193 70.29402
# Shear Modulus (GPa) = 28.38293 41.00318 34.69306
#
# Velocity S-wave (km/s) = 3.42080 4.11157 3.78198
# Velocity P-wave (km/s) = 6.36839 7.45307 6.93198
#
# Compressibility (1/GPa) = 0.01652180
#
# Stress axis : x y z
#
# Youngs Moduli (GPa) = 53.79987 75.87605 107.02979
#
# Poissons Ratio (x) = 0.73901 0.09056
# Poissons Ratio (y) = 0.52400 0.18284
# Poissons Ratio (z) = 0.04552 0.12962
#
# Static dielectric constant tensor:
#      x y z
#    x 2.007890 0.000000 -0.026410 
#    y 0.000000 2.020520 0.000000 
#    z -0.026410 0.000000 1.801110 
# 
# From -- ./inp_files/290610.got.cif
#   From: 2010.05.17/outbox.cif.g08.bks.cpg/sg15_146_cif.got.tgz:290610.got - 2010.06.03 18:47:42.
