data_PCOD9290690
_publ_section_title
;
Structure prediction by ZEFSAII (Michael W. Deem and Ramdas Pophale) SiO2 
 PCOD9290690
Probable space group: C 2/C
;
_chemical_formula_sum "Si O2"
_cell_formula_units_Z 52
_cell_length_a 15.456335
_cell_length_b 25.953503
_cell_length_c 5.265349
_cell_angle_alpha 90.000000
_cell_angle_beta 87.127316
_cell_angle_gamma 90.000000
_cell_volume 2109.519650
_symmetry_space_group_name_H-M "C 2/C"
_symmetry_group_IT_number 15
_symmetry_cell_setting 'monoclinic'
loop_
_space_group_symop_operation_xyz
x,y,z
-x,y,1/2-z
-x,-y,-z
x,-y,1/2+z
1/2+x,1/2+y,z
1/2-x,1/2+y,1/2-z
1/2-x,1/2-y,-z
1/2+x,1/2-y,1/2+z
loop_
_atom_site_type_symbol
_atom_site_label
_atom_site_fract_x
_atom_site_fract_y
_atom_site_fract_z
Si Si1 0.388995 0.228275 0.063007
Si Si2 0.552450 0.882960 0.977589
Si Si3 0.000000 0.802660 0.750000
Si Si4 0.841213 0.525176 0.858469
Si Si5 0.322328 0.361718 0.734064
Si Si6 0.757404 0.192732 0.758796
Si Si7 0.147965 0.017490 0.332442
O O1 0.416776 0.171716 0.135692
O O2 0.467796 0.264930 0.977012
O O3 0.333628 0.216861 0.813032
O O4 0.324673 0.259593 0.253465
O O5 0.500000 0.875587 0.250000
O O6 0.500000 0.907122 0.750000
O O7 0.632041 0.919208 0.046343
O O8 0.081872 0.837432 0.811590
O O9 0.875627 0.486879 0.072890
O O10 0.738648 0.514606 0.850307
O O11 0.264028 0.340102 0.512228
O O12 0.329998 0.422954 0.710916
O O13 0.288390 0.341420 0.010973
O O14 0.101037 0.007170 0.601651
#
# Coordination Sequence:
#
# PCOD9290690 Si02
#       7
#     8   8   4   8   8   8   8
#     4  10  24  44  68 102 141 181 228 277 335 407
#     4  12  27  41  65  96 139 180 221 269 344 407
#     4  10  24  46  68 104 146 174 216 288 348 408
#     4  10  23  41  64  89 126 176 222 279 322 385
#     4  11  24  44  74 103 136 182 223 280 347 398
#     4  10  25  42  71 100 138 179 236 274 329 409
#     4  10  22  41  68  98 127 169 228 279 328 389
#
# _framework density 24.650162999999999
#
# number of rings (size 3 to 8) (size 9 to 14) (size 15 to 20)
#    0.000    1.538    0.769    1.846   10.769   10.462 
#    0.000    0.769    0.000    0.000    0.000    0.000 
#    0.000    0.000    0.000    0.000    0.000    0.000 
#
# Total GULP energy -145595.734760 kJ/mol
# GULP energy per Si atom -5599.835952 kJ/mol
# Density = 2.459406 g / cm^3
# Si number density = 24.650163 Si / 1000 Ang^3
#
#
#
# Elastic Constant Matrix: (Units=GPa)
#
#
# Indices 1 2 3 4 5 6 
#
# 1 94.4473 40.9654 20.4647 0.0000 3.9438 0.0000
# 2 40.9654 127.0351 24.7858 0.0000 -3.6118 0.0000
# 3 20.4647 24.7858 167.8870 0.0000 2.5203 0.0000
# 4 0.0000 0.0000 0.0000 29.9723 0.0000 -3.0757
# 5 3.9438 -3.6118 2.5203 0.0000 16.9861 0.0000
# 6 0.0000 0.0000 0.0000 -3.0757 0.0000 20.1902
#
#
#
# Elastic Compliance Matrix: (Units=1/GPa)
#
#
# Indices 1 2 3 4 5 6 
#
# 1 0.012678 -0.004017 -0.000897 0.000000 -0.003665 0.000000
# 2 -0.004017 0.009440 -0.000950 0.000000 0.003081 0.000000
# 3 -0.000897 -0.000950 0.006220 0.000000 -0.000917 0.000000
# 4 0.000000 0.000000 0.000000 0.033894 0.000000 0.005163
# 5 -0.003665 0.003081 -0.000917 0.000000 0.060514 0.000000
# 6 0.000000 0.000000 0.000000 0.005163 0.000000 0.050316
#
#
# Mechanical properties :
#
#
# Convention : Reuss Voigt Hill
#
# Bulk Modulus (GPa) = 60.21131 62.42235 61.31683
# Shear Modulus (GPa) = 26.27057 33.63995 29.95526
#
# Velocity S-wave (km/s) = 3.26810 3.69819 3.48978
# Velocity P-wave (km/s) = 6.22254 6.60407 6.41614
#
# Compressibility (1/GPa) = 0.01660818
#
# Stress axis : x y z
#
# Youngs Moduli (GPa) = 78.87775 105.92828 160.77662
#
# Poissons Ratio (x) = 0.42556 0.14426
# Poissons Ratio (y) = 0.31688 0.15278
# Poissons Ratio (z) = 0.07077 0.10066
#
# Static dielectric constant tensor:
#      x y z
#    x 1.988200 0.000000 -0.013110 
#    y 0.000000 1.922620 0.000000 
#    z -0.013110 0.000000 2.020070 
# 
# From -- ./inp_files/11307.got.cif
#   From: 2010.05.17/outbox.cif.g08.bks.cpg/sg15_6_cif.got.tgz:11307.got - 2010.06.03 18:47:42.
