data_PCOD9290662
_publ_section_title
;
Structure prediction by ZEFSAII (Michael W. Deem and Ramdas Pophale) SiO2 
 PCOD9290662
Probable space group: C 2/C
;
_chemical_formula_sum "Si O2"
_cell_formula_units_Z 40
_cell_length_a 10.508498
_cell_length_b 7.857517
_cell_length_c 26.496250
_cell_angle_alpha 90.000000
_cell_angle_beta 52.218489
_cell_angle_gamma 90.000000
_cell_volume 1729.144781
_symmetry_space_group_name_H-M "C 2/C"
_symmetry_group_IT_number 15
_symmetry_cell_setting 'monoclinic'
loop_
_space_group_symop_operation_xyz
x,y,z
-x,y,1/2-z
-x,-y,-z
x,-y,1/2+z
1/2+x,1/2+y,z
1/2-x,1/2+y,1/2-z
1/2-x,1/2-y,-z
1/2+x,1/2-y,1/2+z
loop_
_atom_site_type_symbol
_atom_site_label
_atom_site_fract_x
_atom_site_fract_y
_atom_site_fract_z
Si Si1 0.740838 0.430726 0.473915
Si Si2 0.681610 0.470286 0.703397
Si Si3 0.916513 0.026868 0.088516
Si Si4 0.932457 0.568938 0.568813
Si Si5 0.671117 0.072199 0.729941
O O1 0.750000 0.250000 0.500000
O O2 0.676048 0.425530 0.432916
O O3 0.603377 0.529244 0.539211
O O4 0.923626 0.491555 0.429024
O O5 0.500000 0.540308 0.750000
O O6 0.764750 0.497429 0.629338
O O7 0.673611 0.271195 0.716930
O O8 0.794474 0.549609 0.719364
O O9 0.915259 0.226546 0.073681
O O10 0.821840 0.007882 0.163255
O O11 0.000000 0.500000 0.500000
O O12 0.500000 0.004476 0.750000
#
# Coordination Sequence:
#
# PCOD9290662 Si02
#       5
#     8   8   8   8   8
#     4   9  21  39  63  95 135 169 219 273 340 397
#     4  11  27  45  69 101 136 182 229 288 346 412
#     4  10  22  41  68  94 130 182 220 278 343 402
#     4  11  25  41  65 101 140 171 226 281 341 413
#     4  11  25  46  72  96 140 180 234 284 348 410
#
# _framework density 23.132823999999999
#
# number of rings (size 3 to 8) (size 9 to 14) (size 15 to 20)
#    0.000    1.600    0.000    2.400   11.200    8.800 
#    0.000    0.000    0.000    0.000    0.000    0.000 
#    0.000    0.000    0.000    0.000    0.000    0.000 
#
# Total GULP energy -111763.503489 kJ/mol
# GULP energy per Si atom -5588.175174 kJ/mol
# Density = 2.308017 g / cm^3
# Si number density = 23.132824 Si / 1000 Ang^3
#
#
#
# Elastic Constant Matrix: (Units=GPa)
#
#
# Indices 1 2 3 4 5 6 
#
# 1 101.9651 4.3019 34.4603 0.0000 -17.3673 0.0000
# 2 4.3019 66.3877 10.3953 0.0000 3.5296 0.0000
# 3 34.4603 10.3953 152.8567 0.0000 -16.9635 0.0000
# 4 0.0000 0.0000 0.0000 35.4804 0.0000 6.4197
# 5 -17.3673 3.5296 -16.9635 0.0000 40.1234 0.0000
# 6 0.0000 0.0000 0.0000 6.4197 0.0000 19.2621
#
#
#
# Elastic Compliance Matrix: (Units=1/GPa)
#
#
# Indices 1 2 3 4 5 6 
#
# 1 0.011211 -0.000623 -0.002036 0.000000 0.004047 0.000000
# 2 -0.000623 0.015394 -0.001140 0.000000 -0.002106 0.000000
# 3 -0.002036 -0.001140 0.007336 0.000000 0.002321 0.000000
# 4 0.000000 0.000000 0.000000 0.029993 0.000000 -0.009996
# 5 0.004047 -0.002106 0.002321 0.000000 0.027841 0.000000
# 6 0.000000 0.000000 0.000000 -0.009996 0.000000 0.055247
#
#
# Mechanical properties :
#
#
# Convention : Reuss Voigt Hill
#
# Bulk Modulus (GPa) = 37.96076 46.61384 42.28730
# Shear Modulus (GPa) = 30.59955 37.10997 33.85476
#
# Velocity S-wave (km/s) = 3.64094 4.00961 3.82971
# Velocity P-wave (km/s) = 5.84130 6.45215 6.15431
#
# Compressibility (1/GPa) = 0.02634299
#
# Stress axis : x y z
#
# Youngs Moduli (GPa) = 89.19915 64.96084 136.31144
#
# Poissons Ratio (x) = 0.04046 0.27753
# Poissons Ratio (y) = 0.05555 0.15542
# Poissons Ratio (z) = 0.18161 0.07407
#
# Static dielectric constant tensor:
#      x y z
#    x 1.964840 0.000000 -0.009320 
#    y 0.000000 1.881470 0.000000 
#    z -0.009320 0.000000 1.914120 
# 
# From -- ./inp_files/291002.got.cif
#   From: 2010.05.17/outbox.cif.g08.bks.cpg/sg15_146_cif.got.tgz:291002.got - 2010.06.03 18:47:42.
