data_PCOD9290166
_publ_section_title
;
Structure prediction by ZEFSAII (Michael W. Deem and Ramdas Pophale) SiO2 
 PCOD9290166
Probable space group: C 2/C
;
_chemical_formula_sum "Si O2"
_cell_formula_units_Z 64
_cell_length_a 11.503839
_cell_length_b 8.818917
_cell_length_c 29.434490
_cell_angle_alpha 90.000000
_cell_angle_beta 85.554454
_cell_angle_gamma 90.000000
_cell_volume 2977.186219
_symmetry_space_group_name_H-M "C 2/C"
_symmetry_group_IT_number 15
_symmetry_cell_setting 'monoclinic'
loop_
_space_group_symop_operation_xyz
x,y,z
-x,y,1/2-z
-x,-y,-z
x,-y,1/2+z
1/2+x,1/2+y,z
1/2-x,1/2+y,1/2-z
1/2-x,1/2-y,-z
1/2+x,1/2-y,1/2+z
loop_
_atom_site_type_symbol
_atom_site_label
_atom_site_fract_x
_atom_site_fract_y
_atom_site_fract_z
Si Si1 0.413978 0.754324 0.387317
Si Si2 0.841474 0.727169 0.083974
Si Si3 0.072282 0.504529 0.351487
Si Si4 0.902537 0.204934 0.490370
Si Si5 0.619067 0.518970 0.366660
Si Si6 0.023767 0.792514 0.301751
Si Si7 0.209787 0.793307 0.131367
Si Si8 0.150374 0.850957 0.027430
O O1 0.279980 0.710946 0.385129
O O2 0.419467 0.784401 0.441269
O O3 0.503515 0.620036 0.374253
O O4 0.460977 0.895212 0.357146
O O5 0.929124 0.609882 0.103569
O O6 0.880010 0.898525 0.092643
O O7 0.826263 0.711576 0.031110
O O8 0.072037 0.623664 0.310530
O O9 0.187541 0.402657 0.353189
O O10 0.028238 0.209920 0.511718
O O11 0.863093 0.030337 0.483628
O O12 0.608872 0.417295 0.321744
O O13 0.729822 0.627846 0.367913
O O14 0.000000 0.818419 0.250000
O O15 0.903582 0.802161 0.333844
O O16 0.175136 0.833702 0.080620
O O17 0.250000 0.750000 0.000000
#
# Coordination Sequence:
#
# PCOD9290166 Si02
#       8
#     8   8   8   8   8   8   8   8
#     4  11  22  39  59  85 124 165 203 251 302 353
#     4  11  21  36  58  85 122 163 205 254 296 348
#     4  10  23  40  61  88 118 158 203 244 305 374
#     4  11  22  33  53  89 124 163 219 255 289 354
#     4  10  22  41  63  87 116 157 203 243 305 375
#     4  11  24  43  67  93 120 151 195 255 315 372
#     4  11  22  41  64  87 124 164 199 250 305 357
#     4  11  21  36  60  89 126 170 210 254 300 347
#
# _framework density 21.496808000000001
#
# number of rings (size 3 to 8) (size 9 to 14) (size 15 to 20)
#    0.000    1.250    0.000    8.625    0.000    2.500 
#    0.000    2.500    0.000    0.000    0.000    0.000 
#    0.000    0.000    0.000    0.000    0.000    0.000 
#
# Total GULP energy -178892.462553 kJ/mol
# GULP energy per Si atom -5590.389455 kJ/mol
# Density = 2.144788 g / cm^3
# Si number density = 21.496808 Si / 1000 Ang^3
#
#
#
# Elastic Constant Matrix: (Units=GPa)
#
#
# Indices 1 2 3 4 5 6 
#
# 1 86.4681 35.7007 17.9652 0.0000 -1.6462 0.0000
# 2 35.7007 57.4495 -3.4903 0.0000 -1.3551 0.0000
# 3 17.9652 -3.4903 106.1074 0.0000 14.1791 0.0000
# 4 0.0000 0.0000 0.0000 16.5119 0.0000 8.3259
# 5 -1.6462 -1.3551 14.1791 0.0000 24.5473 0.0000
# 6 0.0000 0.0000 0.0000 8.3259 0.0000 39.4949
#
#
#
# Elastic Compliance Matrix: (Units=1/GPa)
#
#
# Indices 1 2 3 4 5 6 
#
# 1 0.016689 -0.010524 -0.003515 0.000000 0.002569 0.000000
# 2 -0.010524 0.024089 0.002699 0.000000 -0.000935 0.000000
# 3 -0.003515 0.002699 0.010966 0.000000 -0.006421 0.000000
# 4 0.000000 0.000000 0.000000 0.067766 0.000000 -0.014286
# 5 0.002569 -0.000935 -0.006421 0.000000 0.044567 0.000000
# 6 0.000000 0.000000 0.000000 -0.014286 0.000000 0.028331
#
#
# Mechanical properties :
#
#
# Convention : Reuss Voigt Hill
#
# Bulk Modulus (GPa) = 34.40676 38.93068 36.66872
# Shear Modulus (GPa) = 22.24428 29.43411 25.83920
#
# Velocity S-wave (km/s) = 3.22028 3.70433 3.47075
# Velocity P-wave (km/s) = 5.46509 6.03700 5.75815
#
# Compressibility (1/GPa) = 0.02906406
#
# Stress axis : x y z
#
# Youngs Moduli (GPa) = 59.91823 41.51345 91.18752
#
# Poissons Ratio (x) = 0.43690 0.32054
# Poissons Ratio (y) = 0.63059 -0.24613
# Poissons Ratio (z) = 0.21062 -0.11205
#
# Static dielectric constant tensor:
#      x y z
#    x 1.861360 0.000000 -0.007460 
#    y 0.000000 1.809050 0.000000 
#    z -0.007460 0.000000 1.736470 
# 
# From -- ./inp_files/310309.got.cif
#   From: 2010.05.17/outbox.cif.g08.bks.cpg/sg15_156_cif.got.tgz:310309.got - 2010.06.03 18:47:42.
