data_PCOD9290299
_publ_section_title
;
Structure prediction by ZEFSAII (Michael W. Deem and Ramdas Pophale) SiO2 
 PCOD9290299
Probable space group: C 2/C
;
_chemical_formula_sum "Si O2"
_cell_formula_units_Z 56
_cell_length_a 11.108302
_cell_length_b 30.130448
_cell_length_c 14.951175
_cell_angle_alpha 90.000000
_cell_angle_beta 32.042429
_cell_angle_gamma 90.000000
_cell_volume 2654.926815
_symmetry_space_group_name_H-M "C 2/C"
_symmetry_group_IT_number 15
_symmetry_cell_setting 'monoclinic'
loop_
_space_group_symop_operation_xyz
x,y,z
-x,y,1/2-z
-x,-y,-z
x,-y,1/2+z
1/2+x,1/2+y,z
1/2-x,1/2+y,1/2-z
1/2-x,1/2-y,-z
1/2+x,1/2-y,1/2+z
loop_
_atom_site_type_symbol
_atom_site_label
_atom_site_fract_x
_atom_site_fract_y
_atom_site_fract_z
Si Si1 0.818013 0.199422 0.657114
Si Si2 0.500000 0.090052 0.250000
Si Si3 0.040952 0.624074 0.619311
Si Si4 0.000000 0.102075 0.250000
Si Si5 0.523060 0.720921 0.134293
Si Si6 0.412334 0.635051 0.904735
Si Si7 0.655199 0.546211 0.321251
Si Si8 0.299392 0.446149 0.195021
O O1 0.615633 0.165248 0.811084
O O2 0.699109 0.247491 0.741563
O O3 0.916674 0.194055 0.493857
O O4 0.021613 0.180998 0.588770
O O5 0.342844 0.120905 0.411656
O O6 0.342361 0.062239 0.278078
O O7 0.295256 0.627040 0.427740
O O8 0.000000 0.624836 0.750000
O O9 0.944139 0.576501 0.650691
O O10 0.123252 0.075057 0.252675
O O11 0.500000 0.703345 0.250000
O O12 0.750000 0.750000 0.000000
O O13 0.500000 0.639738 0.750000
O O14 0.547811 0.591685 0.855677
O O15 0.699794 0.495268 0.266520
O O16 0.413133 0.548417 0.525594
#
# Coordination Sequence:
#
# PCOD9290299 Si02
#       8
#     8   4   8   4   8   8   8   8
#     4  10  22  43  65 100 135 166 221 265 339 408
#     4  10  24  44  64  90 140 182 232 266 344 398
#     4  11  22  41  58  94 136 167 205 281 327 397
#     4  12  26  38  66 100 128 174 240 266 346 388
#     4   9  18  40  68 100 130 167 202 266 341 410
#     4  10  23  44  66  92 130 185 222 277 332 403
#     4  10  22  41  64  98 128 183 227 286 329 400
#     4   9  21  40  64  89 138 172 223 281 340 383
#
# _framework density 21.092859000000001
#
# number of rings (size 3 to 8) (size 9 to 14) (size 15 to 20)
#    0.000    2.000    1.429    1.286    6.000    1.714 
#   15.429    0.714    0.000    0.000    0.000    0.000 
#    0.000    0.000    0.000    0.000    0.000    0.000 
#
# Total GULP energy -155946.196276 kJ/mol
# GULP energy per Si atom -5569.507010 kJ/mol
# Density = 2.104485 g / cm^3
# Si number density = 21.092859 Si / 1000 Ang^3
#
#
#
# Elastic Constant Matrix: (Units=GPa)
#
#
# Indices 1 2 3 4 5 6 
#
# 1 34.1273 20.1138 9.5067 0.0000 8.6517 0.0000
# 2 20.1138 78.6450 41.1734 0.0000 -0.3598 0.0000
# 3 9.5067 41.1734 137.9064 0.0000 1.6311 0.0000
# 4 0.0000 0.0000 0.0000 28.3909 0.0000 5.5129
# 5 8.6517 -0.3598 1.6311 0.0000 36.5199 0.0000
# 6 0.0000 0.0000 0.0000 5.5129 0.0000 5.3409
#
#
#
# Elastic Compliance Matrix: (Units=1/GPa)
#
#
# Indices 1 2 3 4 5 6 
#
# 1 0.037215 -0.009803 0.000467 0.000000 -0.008934 0.000000
# 2 -0.009803 0.017658 -0.004628 0.000000 0.002703 0.000000
# 3 0.000467 -0.004628 0.008607 0.000000 -0.000541 0.000000
# 4 0.000000 0.000000 0.000000 0.044052 0.000000 -0.045471
# 5 -0.008934 0.002703 -0.000541 0.000000 0.029550 0.000000
# 6 0.000000 0.000000 0.000000 -0.045471 0.000000 0.234170
#
#
# Mechanical properties :
#
#
# Convention : Reuss Voigt Hill
#
# Bulk Modulus (GPa) = 28.12838 43.58516 35.85677
# Shear Modulus (GPa) = 12.16457 26.04266 19.10361
#
# Velocity S-wave (km/s) = 2.40409 3.51760 3.01274
# Velocity P-wave (km/s) = 4.59028 6.09970 5.39801
#
# Compressibility (1/GPa) = 0.03555128
#
# Stress axis : x y z
#
# Youngs Moduli (GPa) = 26.87120 56.63180 116.18094
#
# Poissons Ratio (x) = 0.55517 -0.05427
# Poissons Ratio (y) = 0.26342 0.53770
# Poissons Ratio (z) = -0.01255 0.26210
#
# Static dielectric constant tensor:
#      x y z
#    x 1.886650 0.000000 0.001630 
#    y 0.000000 1.811900 0.000000 
#    z 0.001630 0.000000 1.795310 
# 
# From -- ./inp_files/149290.got.cif
#   From: 2010.05.17/outbox.cif.g08.bks.cpg/sg15_75_cif.got.tgz:149290.got - 2010.06.03 18:47:42.
