data_PCOD9290716
_publ_section_title
;
Structure prediction by ZEFSAII (Michael W. Deem and Ramdas Pophale) SiO2 
 PCOD9290716
Probable space group: C 2/C
;
_chemical_formula_sum "Si O2"
_cell_formula_units_Z 56
_cell_length_a 9.845361
_cell_length_b 28.076870
_cell_length_c 10.252317
_cell_angle_alpha 90.000000
_cell_angle_beta 110.161907
_cell_angle_gamma 90.000000
_cell_volume 2660.354657
_symmetry_space_group_name_H-M "C 2/C"
_symmetry_group_IT_number 15
_symmetry_cell_setting 'monoclinic'
loop_
_space_group_symop_operation_xyz
x,y,z
-x,y,1/2-z
-x,-y,-z
x,-y,1/2+z
1/2+x,1/2+y,z
1/2-x,1/2+y,1/2-z
1/2-x,1/2-y,-z
1/2+x,1/2-y,1/2+z
loop_
_atom_site_type_symbol
_atom_site_label
_atom_site_fract_x
_atom_site_fract_y
_atom_site_fract_z
Si Si1 0.280664 0.173068 0.700940
Si Si2 0.754948 0.928204 0.258147
Si Si3 0.510362 0.671341 0.040900
Si Si4 0.554312 0.566795 0.444394
Si Si5 0.500000 0.249079 0.750000
Si Si6 0.210372 0.357881 0.021806
Si Si7 0.500000 0.101585 0.250000
Si Si8 0.745060 0.465314 0.772212
O O1 0.318761 0.116829 0.689600
O O2 0.114361 0.179730 0.607781
O O3 0.374176 0.213017 0.664350
O O4 0.309641 0.178103 0.864739
O O5 0.901947 0.934665 0.389373
O O6 0.761572 0.905582 0.116593
O O7 0.695677 0.981156 0.226400
O O8 0.457601 0.622787 0.093975
O O9 0.531106 0.715425 0.142231
O O10 0.660719 0.658911 0.025016
O O11 0.399708 0.543562 0.362271
O O12 0.680348 0.543759 0.396337
O O13 0.071063 0.368099 0.889512
O O14 0.629494 0.070258 0.231169
#
# Coordination Sequence:
#
# PCOD9290716 Si02
#       8
#     8   8   8   8   4   8   4   8
#     4   9  24  44  67  98 133 174 226 279 341 418
#     4   9  23  42  69  92 138 186 227 283 335 407
#     4  11  22  44  74  96 136 177 226 291 340 407
#     4  10  22  41  69 103 135 177 244 274 336 403
#     4  12  24  43  70 110 132 170 229 288 360 410
#     4  10  24  46  65  95 136 185 219 284 350 405
#     4  12  26  41  66  98 150 178 237 280 348 400
#     4  11  23  38  64 105 139 185 231 282 331 401
#
# _framework density 21.049824999999998
#
# number of rings (size 3 to 8) (size 9 to 14) (size 15 to 20)
#    0.857    0.857    1.429    2.143    2.000    8.571 
#    2.571    0.000    0.000    0.000    0.000    0.000 
#    0.000    0.000    0.000    0.000    0.000    0.000 
#
# Total GULP energy -156059.364941 kJ/mol
# GULP energy per Si atom -5573.548748 kJ/mol
# Density = 2.100191 g / cm^3
# Si number density = 21.049825 Si / 1000 Ang^3
#
#
#
# Elastic Constant Matrix: (Units=GPa)
#
#
# Indices 1 2 3 4 5 6 
#
# 1 53.1444 1.1662 18.3481 0.0000 20.8682 0.0000
# 2 1.1662 92.6795 9.3478 0.0000 11.0313 0.0000
# 3 18.3481 9.3478 116.8809 0.0000 14.7870 0.0000
# 4 0.0000 0.0000 0.0000 39.5871 0.0000 -6.1544
# 5 20.8682 11.0313 14.7870 0.0000 16.0458 0.0000
# 6 0.0000 0.0000 0.0000 -6.1544 0.0000 34.6625
#
#
#
# Elastic Compliance Matrix: (Units=1/GPa)
#
#
# Indices 1 2 3 4 5 6 
#
# 1 0.041748 0.006470 0.000408 0.000000 -0.059120 0.000000
# 2 0.006470 0.012755 0.000156 0.000000 -0.017328 0.000000
# 3 0.000408 0.000156 0.009690 0.000000 -0.009568 0.000000
# 4 0.000000 0.000000 0.000000 0.025978 0.000000 0.004612
# 5 -0.059120 -0.017328 -0.009568 0.000000 0.159940 0.000000
# 6 0.000000 0.000000 0.000000 0.004612 0.000000 0.029669
#
#
# Mechanical properties :
#
#
# Convention : Reuss Voigt Hill
#
# Bulk Modulus (GPa) = 12.77740 35.60322 24.19031
# Shear Modulus (GPa) = 17.13516 33.64857 25.39187
#
# Velocity S-wave (km/s) = 2.85621 4.00249 3.47691
# Velocity P-wave (km/s) = 4.11832 6.18954 5.25694
#
# Compressibility (1/GPa) = 0.07826320
#
# Stress axis : x y z
#
# Youngs Moduli (GPa) = 23.95303 78.39950 103.20348
#
# Poissons Ratio (x) = -0.50727 -0.04214
# Poissons Ratio (y) = -0.15498 -0.01614
# Poissons Ratio (z) = -0.00978 -0.01226
#
# Static dielectric constant tensor:
#      x y z
#    x 1.764530 0.000000 -0.012870 
#    y 0.000000 1.779020 0.000000 
#    z -0.012870 0.000000 1.791540 
# 
# From -- ./inp_files/81475.got.cif
#   From: 2010.05.17/outbox.cif.g08.bks.cpg/sg15_41_cif.got.tgz:81475.got - 2010.06.03 18:47:42.
