data_PCOD9290950
_publ_section_title
;
Structure prediction by ZEFSAII (Michael W. Deem and Ramdas Pophale) SiO2 
 PCOD9290950
Probable space group: C 2/C
;
_chemical_formula_sum "Si O2"
_cell_formula_units_Z 56
_cell_length_a 5.244814
_cell_length_b 25.351012
_cell_length_c 22.494392
_cell_angle_alpha 90.000000
_cell_angle_beta 51.196645
_cell_angle_gamma 90.000000
_cell_volume 2330.800145
_symmetry_space_group_name_H-M "C 2/C"
_symmetry_group_IT_number 15
_symmetry_cell_setting 'monoclinic'
loop_
_space_group_symop_operation_xyz
x,y,z
-x,y,1/2-z
-x,-y,-z
x,-y,1/2+z
1/2+x,1/2+y,z
1/2-x,1/2+y,1/2-z
1/2-x,1/2-y,-z
1/2+x,1/2-y,1/2+z
loop_
_atom_site_type_symbol
_atom_site_label
_atom_site_fract_x
_atom_site_fract_y
_atom_site_fract_z
Si Si1 0.304731 0.083911 0.429685
Si Si2 0.885795 0.499781 0.200721
Si Si3 0.616413 0.806826 0.933860
Si Si4 0.208046 0.652319 0.169256
Si Si5 0.876752 0.336595 0.094723
Si Si6 0.863083 0.753991 0.175014
Si Si7 0.364966 0.406667 0.097493
O O1 0.453353 0.138233 0.435284
O O2 0.132206 0.109466 0.397503
O O3 0.068040 0.064228 0.515382
O O4 0.534366 0.041146 0.364729
O O5 0.500000 0.488854 0.250000
O O6 0.000000 0.517541 0.250000
O O7 0.108083 0.447960 0.160177
O O8 0.540380 0.752790 0.909664
O O9 0.988866 0.812450 0.858575
O O10 0.564525 0.808875 0.011866
O O11 0.000000 0.625023 0.250000
O O12 0.948326 0.694811 0.183138
O O13 0.631398 0.294752 0.159808
O O14 0.629793 0.381404 0.103846
O O15 0.147593 0.361146 0.098210
O O16 0.500000 0.768568 0.250000
#
# Coordination Sequence:
#
# PCOD9290950 Si02
#       7
#     8   8   8   8   8   8   8
#     4  10  24  42  70 100 132 175 218 273 347 402
#     4  12  28  46  72 105 135 173 220 276 339 400
#     4  10  22  42  62 100 133 172 222 282 330 399
#     4  11  21  37  65  96 140 168 221 280 340 393
#     4  11  25  44  70  95 131 185 231 271 328 390
#     4  11  24  38  60  96 133 181 224 278 333 393
#     4  11  25  49  69  97 135 177 228 277 324 394
#
# _framework density 24.026081999999999
#
# number of rings (size 3 to 8) (size 9 to 14) (size 15 to 20)
#    0.000    1.143    2.857    2.143    6.000    2.286 
#    0.000    3.571    0.000    0.000    0.000    0.000 
#    0.000    0.000    0.000    0.000    0.000    0.000 
#
# Total GULP energy -156192.071018 kJ/mol
# GULP energy per Si atom -5578.288251 kJ/mol
# Density = 2.397140 g / cm^3
# Si number density = 24.026082 Si / 1000 Ang^3
#
#
#
# Elastic Constant Matrix: (Units=GPa)
#
#
# Indices 1 2 3 4 5 6 
#
# 1 60.5465 2.2147 14.0716 0.0000 -13.6217 0.0000
# 2 2.2147 68.6399 32.4749 0.0000 6.5444 0.0000
# 3 14.0716 32.4749 116.7184 0.0000 -11.3448 0.0000
# 4 0.0000 0.0000 0.0000 7.1654 0.0000 35.2918
# 5 -13.6217 6.5444 -11.3448 0.0000 32.1102 0.0000
# 6 0.0000 0.0000 0.0000 35.2918 0.0000 -186.5154
#
#
#
# Elastic Compliance Matrix: (Units=1/GPa)
#
#
# Indices 1 2 3 4 5 6 
#
# 1 0.018544 -0.000699 -0.001307 0.000000 0.007547 0.000000
# 2 -0.000699 0.017704 -0.005407 0.000000 -0.005815 0.000000
# 3 -0.001307 -0.005407 0.010648 0.000000 0.004309 0.000000
# 4 0.000000 0.000000 0.000000 0.072238 0.000000 0.013669
# 5 0.007547 -0.005815 0.004309 0.000000 0.037052 0.000000
# 6 0.000000 0.000000 0.000000 0.013669 0.000000 -0.002775
#
#
# Mechanical properties :
#
#
# Convention : Reuss Voigt Hill
#
# Bulk Modulus (GPa) = 31.18283 38.15857 34.67070
# Shear Modulus (GPa) = 27.94431 -16.30505 5.81963
#
# Velocity S-wave (km/s) = 3.41410 -2.60790 1.55803
# Velocity P-wave (km/s) = 5.34307 2.61695 4.20695
#
# Compressibility (1/GPa) = 0.03206893
#
# Stress axis : x y z
#
# Youngs Moduli (GPa) = 53.92687 56.48507 93.91032
#
# Poissons Ratio (x) = 0.03950 0.12279
# Poissons Ratio (y) = 0.03771 0.50774
# Poissons Ratio (z) = 0.07051 0.30540
#
# Static dielectric constant tensor:
#      x y z
#    x 2.078360 0.000000 0.126780 
#    y 0.000000 1.921540 0.000000 
#    z 0.126780 0.000000 1.969680 
# 
# From -- ./inp_files/186112.got.cif
#   From: 2010.05.17/outbox.cif.g08.bks.cpg/sg15_94_cif.got.tgz:186112.got - 2010.06.03 18:47:42.
