data_PCOD9290543
_publ_section_title
;
Structure prediction by ZEFSAII (Michael W. Deem and Ramdas Pophale) SiO2 
 PCOD9290543
Probable space group: C 2/C
;
_chemical_formula_sum "Si O2"
_cell_formula_units_Z 48
_cell_length_a 8.011207
_cell_length_b 24.582138
_cell_length_c 11.080511
_cell_angle_alpha 90.000000
_cell_angle_beta 64.026083
_cell_angle_gamma 90.000000
_cell_volume 1961.706151
_symmetry_space_group_name_H-M "C 2/C"
_symmetry_group_IT_number 15
_symmetry_cell_setting 'monoclinic'
loop_
_space_group_symop_operation_xyz
x,y,z
-x,y,1/2-z
-x,-y,-z
x,-y,1/2+z
1/2+x,1/2+y,z
1/2-x,1/2+y,1/2-z
1/2-x,1/2-y,-z
1/2+x,1/2-y,1/2+z
loop_
_atom_site_type_symbol
_atom_site_label
_atom_site_fract_x
_atom_site_fract_y
_atom_site_fract_z
Si Si1 0.500000 0.150260 0.750000
Si Si2 0.261261 0.746742 0.644381
Si Si3 0.000000 0.488450 0.750000
Si Si4 0.500000 0.344899 0.750000
Si Si5 0.634907 0.891835 0.569903
Si Si6 0.222130 0.588851 0.473941
Si Si7 0.500000 0.206449 0.250000
Si Si8 0.211514 0.027885 0.643742
O O1 0.657079 0.195070 0.734827
O O2 0.620759 0.113564 0.621703
O O3 0.250000 0.750000 0.500000
O O4 0.453611 0.754630 0.651092
O O5 0.161089 0.801515 0.721270
O O6 0.853789 0.444528 0.849099
O O7 0.872156 0.520484 0.694510
O O8 0.581871 0.382718 0.618501
O O9 0.425480 0.894689 0.582576
O O10 0.642931 0.836508 0.639964
O O11 0.763769 0.911941 0.420306
O O12 0.248481 0.524299 0.455857
O O13 0.000000 0.021630 0.750000
#
# Coordination Sequence:
#
# PCOD9290543 Si02
#       8
#     4   8   4   4   8   8   4   8
#     4  11  24  42  76 106 140 193 252 315 383 450
#     4  11  23  44  73 106 141 193 255 313 386 458
#     4   9  20  39  64  95 138 194 237 307 362 423
#     4  11  20  40  72 100 139 196 253 294 379 464
#     4  10  22  41  67 104 143 195 245 298 369 450
#     4  11  21  42  72 105 147 200 242 309 383 443
#     4  11  22  45  76  99 149 195 244 320 378 443
#     4  11  24  42  72 106 152 196 253 301 370 457
#
# _framework density 24.468495999999998
#
# number of rings (size 3 to 8) (size 9 to 14) (size 15 to 20)
#    0.000    1.333    4.167    2.000    0.000    4.000 
#    0.000   10.833    9.167    0.000    0.000    0.000 
#    0.000    0.000    0.000    0.000    0.000    0.000 
#
# Total GULP energy -133655.178306 kJ/mol
# GULP energy per Si atom -5568.965763 kJ/mol
# Density = 2.441281 g / cm^3
# Si number density = 24.468496 Si / 1000 Ang^3
#
#
#
# Elastic Constant Matrix: (Units=GPa)
#
#
# Indices 1 2 3 4 5 6 
#
# 1 63.7609 52.6456 59.6044 0.0000 0.0832 0.0000
# 2 52.6456 131.6727 71.4104 0.0000 -3.1296 0.0000
# 3 59.6044 71.4104 146.0607 0.0000 -11.3014 0.0000
# 4 0.0000 0.0000 0.0000 6.3711 0.0000 18.8097
# 5 0.0832 -3.1296 -11.3014 0.0000 37.3128 0.0000
# 6 0.0000 0.0000 0.0000 18.8097 0.0000 11.3152
#
#
#
# Elastic Compliance Matrix: (Units=1/GPa)
#
#
# Indices 1 2 3 4 5 6 
#
# 1 0.030064 -0.007219 -0.009002 0.000000 -0.003399 0.000000
# 2 -0.007219 0.012085 -0.002952 0.000000 0.000136 0.000000
# 3 -0.009002 -0.002952 0.012232 0.000000 0.003477 0.000000
# 4 0.000000 0.000000 0.000000 -0.040165 0.000000 0.066769
# 5 -0.003399 0.000136 0.003477 0.000000 0.027873 0.000000
# 6 0.000000 0.000000 0.000000 0.066769 0.000000 -0.022615
#
#
# Mechanical properties :
#
#
# Convention : Reuss Voigt Hill
#
# Bulk Modulus (GPa) = 62.36304 78.75723 70.56014
# Shear Modulus (GPa) = 79.15915 21.52208 50.34061
#
# Velocity S-wave (km/s) = 5.69400 2.96899 4.54074
# Velocity P-wave (km/s) = 8.29285 6.63403 7.50938
#
# Compressibility (1/GPa) = 0.01603514
#
# Stress axis : x y z
#
# Youngs Moduli (GPa) = 33.26291 82.74656 81.74998
#
# Poissons Ratio (x) = 0.59733 0.73591
# Poissons Ratio (y) = 0.24012 0.24134
# Poissons Ratio (z) = 0.29943 0.24428
#
# Static dielectric constant tensor:
#      x y z
#    x 2.210430 0.000000 0.057220 
#    y 0.000000 1.964590 0.000000 
#    z 0.057220 0.000000 2.104600 
# 
# From -- ./inp_files/80608.got.cif
#   From: 2010.05.17/outbox.cif.g08.bks.cpg/sg15_41_cif.got.tgz:80608.got - 2010.06.03 18:47:42.
