data_PCOD9290461
_publ_section_title
;
Structure prediction by ZEFSAII (Michael W. Deem and Ramdas Pophale) SiO2 
 PCOD9290461
Probable space group: C 2/C
;
_chemical_formula_sum "Si O2"
_cell_formula_units_Z 40
_cell_length_a 17.868098
_cell_length_b 4.849313
_cell_length_c 19.657221
_cell_angle_alpha 90.000000
_cell_angle_beta 106.805347
_cell_angle_gamma 90.000000
_cell_volume 1630.516989
_symmetry_space_group_name_H-M "C 2/C"
_symmetry_group_IT_number 15
_symmetry_cell_setting 'monoclinic'
loop_
_space_group_symop_operation_xyz
x,y,z
-x,y,1/2-z
-x,-y,-z
x,-y,1/2+z
1/2+x,1/2+y,z
1/2-x,1/2+y,1/2-z
1/2-x,1/2-y,-z
1/2+x,1/2-y,1/2+z
loop_
_atom_site_type_symbol
_atom_site_label
_atom_site_fract_x
_atom_site_fract_y
_atom_site_fract_z
Si Si1 0.839502 0.672916 0.013453
Si Si2 0.058289 0.577508 0.576729
Si Si3 0.156569 0.834493 0.185153
Si Si4 0.912395 0.829994 0.602821
Si Si5 0.665708 0.834947 0.280488
O O1 0.857219 0.359707 0.039891
O O2 0.891943 0.859513 0.077419
O O3 0.750000 0.750000 0.000000
O O4 0.870331 0.721730 0.944892
O O5 0.092325 0.305747 0.621108
O O6 0.000000 0.500000 0.500000
O O7 0.001290 0.750913 0.610014
O O8 0.243153 0.793984 0.176575
O O9 0.155250 0.647518 0.253516
O O10 0.151025 0.144947 0.210427
O O11 0.889134 0.755385 0.673016
#
# Coordination Sequence:
#
# PCOD9290461 Si02
#       5
#     8   8   8   8   8
#     4  11  23  40  66  94 128 172 215 259 313 383
#     4  10  24  43  64  95 131 167 205 261 325 382
#     4  10  22  41  66  92 125 164 215 263 311 379
#     4  11  23  41  63  94 131 164 212 265 321 381
#     4  10  22  41  66  94 121 167 217 264 312 369
#
# _framework density 24.532095000000002
#
# number of rings (size 3 to 8) (size 9 to 14) (size 15 to 20)
#    0.000    1.600    0.000    3.600    0.000   12.000 
#    0.000    2.000    0.000    0.000    0.000    0.000 
#    0.000    0.000    0.000    0.000    0.000    0.000 
#
# Total GULP energy -112057.723289 kJ/mol
# GULP energy per Si atom -5602.886164 kJ/mol
# Density = 2.447626 g / cm^3
# Si number density = 24.532095 Si / 1000 Ang^3
#
#
#
# Elastic Constant Matrix: (Units=GPa)
#
#
# Indices 1 2 3 4 5 6 
#
# 1 182.0402 6.9755 52.1584 -0.0001 -18.2481 0.0000
# 2 6.9755 63.4001 -15.0532 0.0002 1.8716 -0.0003
# 3 52.1584 -15.0532 73.1697 0.0000 -14.0217 0.0000
# 4 -0.0001 0.0002 0.0000 37.4615 -0.0001 5.9921
# 5 -18.2481 1.8716 -14.0217 -0.0001 66.0186 0.0001
# 6 0.0000 -0.0003 0.0000 5.9921 0.0001 32.3971
#
#
#
# Elastic Compliance Matrix: (Units=1/GPa)
#
#
# Indices 1 2 3 4 5 6 
#
# 1 0.007212 -0.002102 -0.005400 0.000000 0.000906 0.000000
# 2 -0.002102 0.017200 0.005037 0.000000 0.000001 0.000000
# 3 -0.005400 0.005037 0.019013 0.000000 0.002403 0.000000
# 4 0.000000 0.000000 0.000000 0.027508 0.000000 -0.005088
# 5 0.000906 0.000001 0.002403 0.000000 0.015908 0.000000
# 6 0.000000 0.000000 0.000000 -0.005088 0.000000 0.031808
#
#
# Mechanical properties :
#
#
# Convention : Reuss Voigt Hill
#
# Bulk Modulus (GPa) = 25.97700 45.19682 35.58691
# Shear Modulus (GPa) = 36.65425 45.47738 41.06582
#
# Velocity S-wave (km/s) = 3.86960 4.31024 4.09585
# Velocity P-wave (km/s) = 5.52965 6.57529 6.07501
#
# Compressibility (1/GPa) = 0.03849560
#
# Stress axis : x y z
#
# Youngs Moduli (GPa) = 138.66120 58.13900 52.59605
#
# Poissons Ratio (x) = 0.12223 0.28401
# Poissons Ratio (y) = 0.29151 -0.26495
# Poissons Ratio (z) = 0.74873 -0.29287
#
# Static dielectric constant tensor:
#      x y z
#    x 1.924480 0.000000 0.017710 
#    y 0.000000 1.904510 0.000000 
#    z 0.017710 0.000000 1.989150 
# 
# From -- ./inp_files/208092.got.cif
#   From: 2010.05.17/outbox.cif.g08.bks.cpg/sg15_105_cif.got.tgz:208092.got - 2010.06.03 18:47:42.
