data_PCOD9290841
_publ_section_title
;
Structure prediction by ZEFSAII (Michael W. Deem and Ramdas Pophale) SiO2 
 PCOD9290841
Probable space group: C 2/C
;
_chemical_formula_sum "Si O2"
_cell_formula_units_Z 48
_cell_length_a 26.031296
_cell_length_b 8.595021
_cell_length_c 18.576012
_cell_angle_alpha 90.000000
_cell_angle_beta 31.690664
_cell_angle_gamma 90.000000
_cell_volume 2183.382909
_symmetry_space_group_name_H-M "C 2/C"
_symmetry_group_IT_number 15
_symmetry_cell_setting 'monoclinic'
loop_
_space_group_symop_operation_xyz
x,y,z
-x,y,1/2-z
-x,-y,-z
x,-y,1/2+z
1/2+x,1/2+y,z
1/2-x,1/2+y,1/2-z
1/2-x,1/2-y,-z
1/2+x,1/2-y,1/2+z
loop_
_atom_site_type_symbol
_atom_site_label
_atom_site_fract_x
_atom_site_fract_y
_atom_site_fract_z
Si Si1 0.317734 0.333450 0.757985
Si Si2 0.536916 0.263764 0.541824
Si Si3 0.771459 0.812955 0.272632
Si Si4 0.851675 0.182907 0.450074
Si Si5 0.447379 0.961505 0.245131
Si Si6 0.752203 0.622340 0.436861
O O1 0.431779 0.327591 0.642742
O O2 0.296810 0.222579 0.714443
O O3 0.280186 0.506566 0.784102
O O4 0.247245 0.266132 0.903996
O O5 0.618690 0.266827 0.383357
O O6 0.583565 0.349413 0.555718
O O7 0.520657 0.093053 0.595648
O O8 0.736397 0.704144 0.379371
O O9 0.903483 0.304401 0.335234
O O10 0.822187 0.016015 0.455648
O O11 0.500000 0.044024 0.250000
O O12 0.360249 0.051120 0.312274
O O13 0.750000 0.750000 0.500000
#
# Coordination Sequence:
#
# PCOD9290841 Si02
#       6
#     8   8   8   8   8   8
#     4  11  22  44  67  93 132 168 218 273 320 390
#     4  10  22  41  71  91 128 169 214 267 322 384
#     4  11  25  41  64  99 124 172 217 263 337 381
#     4  10  22  44  70  95 125 175 219 259 328 387
#     4  10  22  43  67  96 129 172 219 263 327 384
#     4  12  25  43  65  95 135 171 215 270 323 384
#
# _framework density 21.984233
#
# number of rings (size 3 to 8) (size 9 to 14) (size 15 to 20)
#    0.000    1.333    1.667    4.000    2.333    0.667 
#   12.000    0.000    0.000    0.000    0.000    0.000 
#    0.000    0.000    0.000    0.000    0.000    0.000 
#
# Total GULP energy -134201.881780 kJ/mol
# GULP energy per Si atom -5591.745074 kJ/mol
# Density = 2.193420 g / cm^3
# Si number density = 21.984233 Si / 1000 Ang^3
#
#
#
# Elastic Constant Matrix: (Units=GPa)
#
#
# Indices 1 2 3 4 5 6 
#
# 1 75.4091 13.6061 14.7267 0.0003 -21.3521 0.0000
# 2 13.6061 64.9428 12.2452 0.0002 0.4247 -0.0001
# 3 14.7267 12.2452 74.1218 0.0002 -0.6156 -0.0004
# 4 0.0003 0.0002 0.0002 13.6669 -0.0005 0.1010
# 5 -21.3521 0.4247 -0.6156 -0.0005 47.6299 0.0002
# 6 0.0000 -0.0001 -0.0004 0.1010 0.0002 36.2480
#
#
#
# Elastic Compliance Matrix: (Units=1/GPa)
#
#
# Indices 1 2 3 4 5 6 
#
# 1 0.016407 -0.002975 -0.002707 0.000000 0.007346 0.000000
# 2 -0.002975 0.016434 -0.002136 0.000000 -0.001508 0.000000
# 3 -0.002707 -0.002136 0.014374 0.000000 -0.001009 0.000000
# 4 0.000000 0.000000 0.000000 0.073171 0.000001 -0.000204
# 5 0.007346 -0.001508 -0.001009 0.000001 0.024289 0.000000
# 6 0.000000 0.000000 0.000000 -0.000204 0.000000 0.027588
#
#
# Mechanical properties :
#
#
# Convention : Reuss Voigt Hill
#
# Bulk Modulus (GPa) = 31.66830 32.84776 32.25803
# Shear Modulus (GPa) = 25.19837 31.10202 28.15020
#
# Velocity S-wave (km/s) = 3.38923 3.76539 3.58225
# Velocity P-wave (km/s) = 5.45455 5.82049 5.64049
#
# Compressibility (1/GPa) = 0.03157732
#
# Stress axis : x y z
#
# Youngs Moduli (GPa) = 60.95105 60.84898 69.57128
#
# Poissons Ratio (x) = 0.18102 0.18834
# Poissons Ratio (y) = 0.18132 0.14864
# Poissons Ratio (z) = 0.16501 0.13000
#
# Static dielectric constant tensor:
#      x y z
#    x 1.898350 0.000000 -0.109020 
#    y 0.000000 1.830660 0.000000 
#    z -0.109020 0.000000 1.996330 
# 
# From -- ./inp_files/257128.got.cif
#   From: 2010.05.17/outbox.cif.g08.bks.cpg/sg15_129_cif.got.tgz:257128.got - 2010.06.03 18:47:42.
