data_PCOD9290409
_publ_section_title
;
Structure prediction by ZEFSAII (Michael W. Deem and Ramdas Pophale) SiO2 
 PCOD9290409
Probable space group: C 2/C
;
_chemical_formula_sum "Si O2"
_cell_formula_units_Z 64
_cell_length_a 9.914261
_cell_length_b 22.487418
_cell_length_c 22.523577
_cell_angle_alpha 90.000000
_cell_angle_beta 144.478101
_cell_angle_gamma 90.000000
_cell_volume 2917.587954
_symmetry_space_group_name_H-M "C 2/C"
_symmetry_group_IT_number 15
_symmetry_cell_setting 'monoclinic'
loop_
_space_group_symop_operation_xyz
x,y,z
-x,y,1/2-z
-x,-y,-z
x,-y,1/2+z
1/2+x,1/2+y,z
1/2-x,1/2+y,1/2-z
1/2-x,1/2-y,-z
1/2+x,1/2-y,1/2+z
loop_
_atom_site_type_symbol
_atom_site_label
_atom_site_fract_x
_atom_site_fract_y
_atom_site_fract_z
Si Si1 0.218748 0.484064 0.515917
Si Si2 0.298217 0.643289 0.226480
Si Si3 0.546639 0.410257 0.543472
Si Si4 0.951327 0.464678 0.811495
Si Si5 0.584215 0.695590 0.422892
Si Si6 0.737244 0.086346 0.814153
Si Si7 0.436014 0.405810 0.162249
Si Si8 0.952918 0.373708 0.976586
O O1 0.395424 0.449758 0.535021
O O2 0.351207 0.538329 0.593414
O O3 0.111922 0.441424 0.528039
O O4 0.025471 0.509154 0.401871
O O5 0.500000 0.630929 0.250000
O O6 0.238309 0.586698 0.245967
O O7 0.377928 0.696293 0.298830
O O8 0.081963 0.646522 0.103876
O O9 0.811223 0.434511 0.629998
O O10 0.518180 0.343170 0.559020
O O11 0.413778 0.415857 0.432684
O O12 0.845687 0.521478 0.739720
O O13 0.750000 0.750000 0.500000
O O14 0.773354 0.658256 0.454359
O O15 0.500000 0.116580 0.750000
O O16 0.851460 0.118977 0.799223
O O17 0.500000 0.426278 0.250000
O O18 0.217529 0.362798 0.088402
#
# Coordination Sequence:
#
# PCOD9290409 Si02
#       8
#     8   8   8   8   8   8   8   8
#     4  11  21  35  59  96 145 186 214 267 324 410
#     4  10  23  38  68  98 127 172 226 281 341 404
#     4  11  24  42  62  95 139 182 229 282 340 414
#     4  12  23  37  61 101 148 182 226 260 322 429
#     4  10  25  47  72  93 122 168 237 316 360 393
#     4  12  25  37  60  94 148 191 220 258 336 418
#     4  12  25  36  60  96 146 188 222 260 327 409
#     4  10  22  41  65  96 134 175 234 279 335 415
#
# _framework density 21.935928000000001
#
# number of rings (size 3 to 8) (size 9 to 14) (size 15 to 20)
#    0.000    1.000    3.750    2.250   10.500    0.000 
#    0.000    1.875    2.750    3.750    0.000    0.000 
#    0.000    0.000    0.000    0.000    0.000    0.000 
#
# Total GULP energy -178597.514489 kJ/mol
# GULP energy per Si atom -5581.172328 kJ/mol
# Density = 2.188600 g / cm^3
# Si number density = 21.935928 Si / 1000 Ang^3
#
#
#
# Elastic Constant Matrix: (Units=GPa)
#
#
# Indices 1 2 3 4 5 6 
#
# 1 107.8990 -5.9280 35.1882 -0.0005 -13.6124 -0.0006
# 2 -5.9280 42.0385 29.9829 0.0000 -17.5904 -0.0004
# 3 35.1882 29.9829 124.1789 -0.0010 -26.9625 -0.0014
# 4 -0.0005 0.0000 -0.0010 25.3279 -0.0009 6.0499
# 5 -13.6124 -17.5904 -26.9625 -0.0009 41.2588 -0.0010
# 6 -0.0006 -0.0004 -0.0014 6.0499 -0.0010 14.3662
#
#
#
# Elastic Compliance Matrix: (Units=1/GPa)
#
#
# Indices 1 2 3 4 5 6 
#
# 1 0.011306 0.005879 -0.003810 0.000000 0.003747 0.000001
# 2 0.005879 0.034974 -0.007519 0.000000 0.011937 0.000001
# 3 -0.003810 -0.007519 0.011629 0.000000 0.003137 0.000001
# 4 0.000000 0.000000 0.000000 0.043898 0.000001 -0.018486
# 5 0.003747 0.011937 0.003137 0.000001 0.032613 0.000003
# 6 0.000001 0.000001 0.000001 -0.018486 0.000003 0.077393
#
#
# Mechanical properties :
#
#
# Convention : Reuss Voigt Hill
#
# Bulk Modulus (GPa) = 21.27135 43.62250 32.44693
# Shear Modulus (GPa) = 20.97479 30.51547 25.74513
#
# Velocity S-wave (km/s) = 3.09558 3.73382 3.42958
# Velocity P-wave (km/s) = 4.74288 6.20629 5.52326
#
# Compressibility (1/GPa) = 0.04701158
#
# Stress axis : x y z
#
# Youngs Moduli (GPa) = 88.44756 28.59243 85.99230
#
# Poissons Ratio (x) = -0.16811 0.32761
# Poissons Ratio (y) = -0.52003 0.64654
# Poissons Ratio (z) = 0.33696 0.21498
#
# Static dielectric constant tensor:
#      x y z
#    x 1.895070 0.000000 0.024570 
#    y 0.000000 1.859710 0.000000 
#    z 0.024570 0.000000 1.924330 
# 
# From -- ./inp_files/271210.got.cif
#   From: 2010.05.17/outbox.cif.g08.bks.cpg/sg15_136_cif.got.tgz:271210.got - 2010.06.03 18:47:42.
