data_PCOD9290679
_publ_section_title
;
Structure prediction by ZEFSAII (Michael W. Deem and Ramdas Pophale) SiO2 
 PCOD9290679
Probable space group: C 2/C
;
_chemical_formula_sum "Si O2"
_cell_formula_units_Z 60
_cell_length_a 5.218784
_cell_length_b 18.934254
_cell_length_c 25.366980
_cell_angle_alpha 90.000000
_cell_angle_beta 90.476506
_cell_angle_gamma 90.000000
_cell_volume 2506.520542
_symmetry_space_group_name_H-M "C 2/C"
_symmetry_group_IT_number 15
_symmetry_cell_setting 'monoclinic'
loop_
_space_group_symop_operation_xyz
x,y,z
-x,y,1/2-z
-x,-y,-z
x,-y,1/2+z
1/2+x,1/2+y,z
1/2-x,1/2+y,1/2-z
1/2-x,1/2-y,-z
1/2+x,1/2-y,1/2+z
loop_
_atom_site_type_symbol
_atom_site_label
_atom_site_fract_x
_atom_site_fract_y
_atom_site_fract_z
Si Si1 0.517635 0.138280 0.097844
Si Si2 0.676077 0.722859 0.557252
Si Si3 0.468837 0.629389 0.341005
Si Si4 0.214138 0.110985 0.714888
Si Si5 0.250933 0.015952 0.465575
Si Si6 0.070773 0.714060 0.654873
Si Si7 0.947494 0.099429 0.609013
Si Si8 0.500000 0.482683 0.750000
O O1 0.477517 0.217394 0.076568
O O2 0.239430 0.109200 0.113818
O O3 0.730535 0.138653 0.144336
O O4 0.678099 0.093115 0.055805
O O5 0.750000 0.750000 0.500000
O O6 0.899317 0.725311 0.601607
O O7 0.580083 0.642400 0.561288
O O8 0.370971 0.707602 0.324456
O O9 0.460960 0.568942 0.298201
O O10 0.418582 0.167742 0.697224
O O11 0.000000 0.150854 0.750000
O O12 0.132445 0.078673 0.657372
O O13 0.230677 0.040614 0.751537
O O14 0.783881 0.035950 0.585040
O O15 0.500000 0.000000 0.500000
O O16 0.000000 0.000000 0.500000
O O17 0.292122 0.662004 0.636832
#
# Coordination Sequence:
#
# PCOD9290679 Si02
#       8
#     8   8   8   8   8   8   8   4
#     4  11  24  45  67  98 143 177 232 293 357 412
#     4  10  22  41  68  96 138 184 235 291 353 433
#     4  11  24  46  68 102 137 182 228 296 356 423
#     4   9  23  44  69 100 137 183 241 289 367 427
#     4  12  28  43  67 102 139 189 236 291 360 427
#     4  10  23  42  68 101 137 182 233 297 356 430
#     4  11  23  42  69  98 141 183 240 296 357 433
#     4  10  24  46  72 102 136 186 240 292 366 442
#
# _framework density 23.937563999999998
#
# number of rings (size 3 to 8) (size 9 to 14) (size 15 to 20)
#    0.400    1.067    1.333    2.400    7.467    3.733 
#    2.400    0.000    0.000    0.000    0.000    0.000 
#    0.000    0.000    0.000    0.000    0.000    0.000 
#
# Total GULP energy -167293.108908 kJ/mol
# GULP energy per Si atom -5576.436964 kJ/mol
# Density = 2.388308 g / cm^3
# Si number density = 23.937564 Si / 1000 Ang^3
#
#
#
# Elastic Constant Matrix: (Units=GPa)
#
#
# Indices 1 2 3 4 5 6 
#
# 1 84.0326 8.3553 21.1224 0.0000 -17.7331 0.0000
# 2 8.3553 117.4651 27.5112 0.0000 -17.5363 0.0000
# 3 21.1224 27.5112 104.8930 0.0000 -18.9205 0.0000
# 4 0.0000 0.0000 0.0000 48.6551 0.0000 -11.8822
# 5 -17.7331 -17.5363 -18.9205 0.0000 32.7468 0.0000
# 6 0.0000 0.0000 0.0000 -11.8822 0.0000 4.7298
#
#
#
# Elastic Compliance Matrix: (Units=1/GPa)
#
#
# Indices 1 2 3 4 5 6 
#
# 1 0.013684 0.000411 -0.001660 0.000000 0.006672 0.000000
# 2 0.000411 0.009549 -0.001814 0.000000 0.004288 0.000000
# 3 -0.001660 -0.001814 0.011170 0.000000 0.004584 0.000000
# 4 0.000000 0.000000 0.000000 0.053178 0.000000 0.133594
# 5 0.006672 0.004288 0.004584 0.000000 0.039095 0.000000
# 6 0.000000 0.000000 0.000000 0.133594 0.000000 0.547040
#
#
# Mechanical properties :
#
#
# Convention : Reuss Voigt Hill
#
# Bulk Modulus (GPa) = 35.36236 46.70762 41.03499
# Shear Modulus (GPa) = 7.25407 33.85313 20.55360
#
# Velocity S-wave (km/s) = 1.74270 3.76470 2.93342
# Velocity P-wave (km/s) = 4.34214 6.20096 5.35285
#
# Compressibility (1/GPa) = 0.02827865
#
# Stress axis : x y z
#
# Youngs Moduli (GPa) = 73.07590 104.72397 89.52266
#
# Poissons Ratio (x) = -0.04309 0.14862
# Poissons Ratio (y) = -0.03007 0.16238
# Poissons Ratio (z) = 0.12132 0.18995
#
# Static dielectric constant tensor:
#      x y z
#    x 2.125090 0.000000 0.189710 
#    y 0.000000 1.887130 0.000000 
#    z 0.189710 0.000000 1.465970 
# 
# From -- ./inp_files/286377.got.cif
#   From: 2010.05.17/outbox.cif.g08.bks.cpg/sg15_144_cif.got.tgz:286377.got - 2010.06.03 18:47:42.
