data_PCOD9290385
_publ_section_title
;
Structure prediction by ZEFSAII (Michael W. Deem and Ramdas Pophale) SiO2 
 PCOD9290385
Probable space group: C 2/C
;
_chemical_formula_sum "Si O2"
_cell_formula_units_Z 60
_cell_length_a 8.921412
_cell_length_b 11.635445
_cell_length_c 27.452540
_cell_angle_alpha 90.000000
_cell_angle_beta 98.900799
_cell_angle_gamma 90.000000
_cell_volume 2815.382979
_symmetry_space_group_name_H-M "C 2/C"
_symmetry_group_IT_number 15
_symmetry_cell_setting 'monoclinic'
loop_
_space_group_symop_operation_xyz
x,y,z
-x,y,1/2-z
-x,-y,-z
x,-y,1/2+z
1/2+x,1/2+y,z
1/2-x,1/2+y,1/2-z
1/2-x,1/2-y,-z
1/2+x,1/2-y,1/2+z
loop_
_atom_site_type_symbol
_atom_site_label
_atom_site_fract_x
_atom_site_fract_y
_atom_site_fract_z
Si Si1 0.685075 0.646800 0.813433
Si Si2 0.289364 0.697617 0.929780
Si Si3 0.344524 0.934253 0.981975
Si Si4 0.530621 0.193994 0.835557
Si Si5 0.704669 0.975569 0.275739
Si Si6 0.457389 0.476471 0.053917
Si Si7 0.006630 0.942086 0.654352
Si Si8 0.000000 0.675765 0.250000
O O1 0.714209 0.603156 0.759803
O O2 0.608839 0.544088 0.839039
O O3 0.565295 0.749746 0.798203
O O4 0.853743 0.676443 0.841050
O O5 0.338972 0.827927 0.944003
O O6 0.158001 0.687955 0.883494
O O7 0.443619 0.631029 0.924220
O O8 0.219723 0.629907 0.972946
O O9 0.223300 0.027722 0.957040
O O10 0.500000 0.000000 0.000000
O O11 0.581576 0.099857 0.798801
O O12 0.535987 0.326563 0.819295
O O13 0.635588 0.087020 0.245537
O O14 0.828200 0.019672 0.320262
O O15 0.500419 0.574548 0.095506
O O16 0.500000 0.500000 0.000000
#
# Coordination Sequence:
#
# PCOD9290385 Si02
#       8
#     8   8   8   8   8   8   8   4
#     4  12  27  42  67  99 132 174 226 281 330 399
#     4  10  22  41  65  94 134 172 218 270 334 399
#     4  10  22  41  66  97 131 172 221 275 330 396
#     4  12  25  41  69  98 132 178 220 273 338 399
#     4  12  25  44  67  96 135 181 219 273 344 401
#     4  10  22  44  68  97 137 174 214 276 337 391
#     4  12  25  43  69 101 135 175 229 277 330 403
#     4  12  24  44  64  98 138 172 224 278 330 398
#
# _framework density 21.311488000000001
#
# number of rings (size 3 to 8) (size 9 to 14) (size 15 to 20)
#    0.000    0.800    6.667    0.000    3.733    1.600 
#    0.000    4.000    0.000    0.000    0.000    0.000 
#    0.000    0.000    0.000    0.000    0.000    0.000 
#
# Total GULP energy -167385.553556 kJ/mol
# GULP energy per Si atom -5579.518452 kJ/mol
# Density = 2.126298 g / cm^3
# Si number density = 21.311488 Si / 1000 Ang^3
#
#
#
# Elastic Constant Matrix: (Units=GPa)
#
#
# Indices 1 2 3 4 5 6 
#
# 1 145.7072 69.2110 41.1083 0.0000 47.0787 0.0000
# 2 69.2110 121.0692 30.0116 0.0000 15.8317 0.0000
# 3 41.1083 30.0116 68.8021 0.0000 33.3528 0.0000
# 4 0.0000 0.0000 0.0000 23.9755 0.0000 9.3644
# 5 47.0787 15.8317 33.3528 0.0000 43.7366 0.0000
# 6 0.0000 0.0000 0.0000 9.3644 0.0000 38.0163
#
#
#
# Elastic Compliance Matrix: (Units=1/GPa)
#
#
# Indices 1 2 3 4 5 6 
#
# 1 0.014040 -0.006507 0.001006 0.000000 -0.013524 0.000000
# 2 -0.006507 0.012282 -0.004299 0.000000 0.005837 0.000000
# 3 0.001006 -0.004299 0.024716 0.000000 -0.018375 0.000000
# 4 0.000000 0.000000 0.000000 0.046149 0.000000 -0.011368
# 5 -0.013524 0.005837 -0.018375 0.000000 0.049321 0.000000
# 6 0.000000 0.000000 0.000000 -0.011368 0.000000 0.029105
#
#
# Mechanical properties :
#
#
# Convention : Reuss Voigt Hill
#
# Bulk Modulus (GPa) = 31.80898 68.47115 50.14006
# Shear Modulus (GPa) = 24.30809 34.16219 29.23514
#
# Velocity S-wave (km/s) = 3.38096 4.00808 3.70780
# Velocity P-wave (km/s) = 5.49539 7.32244 6.47369
#
# Compressibility (1/GPa) = 0.03143766
#
# Stress axis : x y z
#
# Youngs Moduli (GPa) = 71.22553 81.42016 40.45948
#
# Poissons Ratio (x) = 0.52980 -0.04070
# Poissons Ratio (y) = 0.46346 0.17394
# Poissons Ratio (z) = -0.07164 0.35003
#
# Static dielectric constant tensor:
#      x y z
#    x 1.777750 0.000000 0.004450 
#    y 0.000000 1.787470 0.000000 
#    z 0.004450 0.000000 1.835530 
# 
# From -- ./inp_files/307192.got.cif
#   From: 2010.05.17/outbox.cif.g08.bks.cpg/sg15_154_cif.got.tgz:307192.got - 2010.06.03 18:47:42.
