data_PCOD9290327
_publ_section_title
;
Structure prediction by ZEFSAII (Michael W. Deem and Ramdas Pophale) SiO2 
 PCOD9290327
Probable space group: C 2/C
;
_chemical_formula_sum "Si O2"
_cell_formula_units_Z 60
_cell_length_a 19.972092
_cell_length_b 20.845455
_cell_length_c 9.228699
_cell_angle_alpha 90.000000
_cell_angle_beta 135.764130
_cell_angle_gamma 90.000000
_cell_volume 2680.343619
_symmetry_space_group_name_H-M "C 2/C"
_symmetry_group_IT_number 15
_symmetry_cell_setting 'monoclinic'
loop_
_space_group_symop_operation_xyz
x,y,z
-x,y,1/2-z
-x,-y,-z
x,-y,1/2+z
1/2+x,1/2+y,z
1/2-x,1/2+y,1/2-z
1/2-x,1/2-y,-z
1/2+x,1/2-y,1/2+z
loop_
_atom_site_type_symbol
_atom_site_label
_atom_site_fract_x
_atom_site_fract_y
_atom_site_fract_z
Si Si1 0.110141 0.197562 0.469618
Si Si2 0.750126 0.643549 0.900600
Si Si3 0.612135 0.822725 0.627459
Si Si4 0.630864 0.079040 0.926293
Si Si5 0.500000 0.965538 0.750000
Si Si6 0.192230 0.002404 0.738137
Si Si7 0.103618 0.932179 0.834712
Si Si8 0.585416 0.147117 0.570903
O O1 0.146409 0.167673 0.680707
O O2 0.140354 0.270332 0.550257
O O3 0.141466 0.141539 0.404987
O O4 0.000000 0.205790 0.250000
O O5 0.735998 0.566746 0.878627
O O6 0.827753 0.667392 0.899935
O O7 0.799831 0.666733 0.125756
O O8 0.587120 0.886815 0.499280
O O9 0.510584 0.809532 0.553945
O O10 0.629164 0.127606 0.791703
O O11 0.576107 0.013990 0.800062
O O12 0.733487 0.055062 0.135409
O O13 0.452307 0.918109 0.562154
O O14 0.169933 0.025281 0.542564
O O15 0.103430 0.970144 0.684657
O O16 0.000000 0.930053 0.750000
#
# Coordination Sequence:
#
# PCOD9290327 Si02
#       8
#     8   8   8   8   4   8   8   8
#     4  10  23  44  63  86 122 170 217 265 313 373
#     4  11  23  40  68  95 127 165 214 270 324 384
#     4  12  23  41  62  93 130 177 217 258 316 385
#     4  12  23  34  60  95 136 172 207 256 319 399
#     4  12  22  34  58  94 138 164 208 248 322 384
#     4  11  21  38  63  96 126 160 206 266 326 384
#     4  10  22  41  65  89 120 162 213 272 326 367
#     4  12  22  39  60  97 134 175 208 260 320 390
#
# _framework density 22.385190000000001
#
# number of rings (size 3 to 8) (size 9 to 14) (size 15 to 20)
#    0.000    0.800    4.000    4.400    1.867    0.000 
#    0.000    7.333    0.000   14.400    0.000    0.000 
#    0.000    0.000    0.000    0.000    0.000    0.000 
#
# Total GULP energy -167124.670451 kJ/mol
# GULP energy per Si atom -5570.822348 kJ/mol
# Density = 2.233424 g / cm^3
# Si number density = 22.385190 Si / 1000 Ang^3
#
#
#
# Elastic Constant Matrix: (Units=GPa)
#
#
# Indices 1 2 3 4 5 6 
#
# 1 47.6863 8.1690 3.2096 0.0000 5.8179 0.0000
# 2 8.1690 68.8128 22.7322 0.0000 -8.7567 0.0000
# 3 3.2096 22.7322 125.7686 0.0000 0.0069 0.0000
# 4 0.0000 0.0000 0.0000 32.5510 0.0000 8.4636
# 5 5.8179 -8.7567 0.0069 0.0000 26.9232 0.0000
# 6 0.0000 0.0000 0.0000 8.4636 0.0000 10.1937
#
#
#
# Elastic Compliance Matrix: (Units=1/GPa)
#
#
# Indices 1 2 3 4 5 6 
#
# 1 0.022275 -0.003414 0.000049 0.000000 -0.005924 0.000000
# 2 -0.003414 0.016690 -0.002930 0.000000 0.006167 0.000000
# 3 0.000049 -0.002930 0.008479 0.000000 -0.000966 0.000000
# 4 0.000000 0.000000 0.000000 0.039179 0.000000 -0.032529
# 5 -0.005924 0.006167 -0.000966 0.000000 0.040429 0.000000
# 6 0.000000 0.000000 0.000000 -0.032529 0.000000 0.125108
#
#
# Mechanical properties :
#
#
# Convention : Reuss Voigt Hill
#
# Bulk Modulus (GPa) = 28.69118 34.49881 31.59500
# Shear Modulus (GPa) = 18.09179 27.81072 22.95126
#
# Velocity S-wave (km/s) = 2.84598 3.52855 3.20548
# Velocity P-wave (km/s) = 4.86254 5.66090 5.27684
#
# Compressibility (1/GPa) = 0.03485392
#
# Stress axis : x y z
#
# Youngs Moduli (GPa) = 44.89394 59.91549 117.93172
#
# Poissons Ratio (x) = 0.20457 -0.00578
# Poissons Ratio (y) = 0.15328 0.34553
# Poissons Ratio (z) = -0.00220 0.17555
#
# Static dielectric constant tensor:
#      x y z
#    x 1.983690 0.000000 0.054430 
#    y 0.000000 1.842100 0.000000 
#    z 0.054430 0.000000 1.827150 
# 
# From -- ./inp_files/58107.got.cif
#   From: 2010.05.17/outbox.cif.g08.bks.cpg/sg15_30_cif.got.tgz:58107.got - 2010.06.03 18:47:42.
