data_PCOD9290546
_publ_section_title
;
Structure prediction by ZEFSAII (Michael W. Deem and Ramdas Pophale) SiO2 
 PCOD9290546
Probable space group: C 2/C
;
_chemical_formula_sum "Si O2"
_cell_formula_units_Z 60
_cell_length_a 15.098231
_cell_length_b 5.417193
_cell_length_c 29.173632
_cell_angle_alpha 90.000000
_cell_angle_beta 68.971807
_cell_angle_gamma 90.000000
_cell_volume 2227.206681
_symmetry_space_group_name_H-M "C 2/C"
_symmetry_group_IT_number 15
_symmetry_cell_setting 'monoclinic'
loop_
_space_group_symop_operation_xyz
x,y,z
-x,y,1/2-z
-x,-y,-z
x,-y,1/2+z
1/2+x,1/2+y,z
1/2-x,1/2+y,1/2-z
1/2-x,1/2-y,-z
1/2+x,1/2-y,1/2+z
loop_
_atom_site_type_symbol
_atom_site_label
_atom_site_fract_x
_atom_site_fract_y
_atom_site_fract_z
Si Si1 0.835839 0.002177 0.998269
Si Si2 0.371534 0.658589 0.083810
Si Si3 0.035698 0.884732 0.101414
Si Si4 0.185676 0.729144 0.265490
Si Si5 0.912505 0.790917 0.837777
Si Si6 0.296903 0.163525 0.137773
Si Si7 0.112173 0.562839 0.556426
Si Si8 0.000000 0.430507 0.750000
O O1 0.881850 0.175872 0.027483
O O2 0.724952 0.994141 0.027737
O O3 0.892389 0.743893 0.986691
O O4 0.859667 0.076973 0.941466
O O5 0.465253 0.587358 0.094323
O O6 0.321005 0.898710 0.112590
O O7 0.314929 0.401095 0.102743
O O8 0.022966 0.624383 0.078549
O O9 0.046273 0.945625 0.152641
O O10 0.246575 0.984926 0.252973
O O11 0.148033 0.707683 0.324851
O O12 0.096945 0.712237 0.246674
O O13 0.889273 0.657683 0.890360
O O14 0.978804 0.617500 0.795979
O O15 0.814376 0.831571 0.830337
#
# Coordination Sequence:
#
# PCOD9290546 Si02
#       8
#     8   8   8   8   8   8   8   4
#     4  10  22  41  67 106 144 204 251 310 381 458
#     4  12  27  44  75 107 154 203 248 317 390 460
#     4  11  25  41  72 106 151 192 263 317 381 471
#     4  12  28  54  81 119 160 205 270 338 405 485
#     4  11  25  49  73 111 147 203 258 323 391 475
#     4  12  27  51  75 108 157 202 253 322 395 467
#     4  10  22  42  70 104 147 197 255 314 382 460
#     4  12  28  52  86 118 158 212 270 334 416 484
#
# _framework density 26.939571999999998
#
# number of rings (size 3 to 8) (size 9 to 14) (size 15 to 20)
#    0.000    0.800    2.667    3.200    7.467    1.067 
#    0.000    0.000    0.000    0.000    0.000    0.000 
#    0.000    0.000    0.000    0.000    0.000    0.000 
#
# Total GULP energy -167435.697741 kJ/mol
# GULP energy per Si atom -5581.189925 kJ/mol
# Density = 2.687826 g / cm^3
# Si number density = 26.939572 Si / 1000 Ang^3
#
#
#
# Elastic Constant Matrix: (Units=GPa)
#
#
# Indices 1 2 3 4 5 6 
#
# 1 119.7171 19.9247 5.9187 -0.0006 3.3392 -0.0005
# 2 19.9247 119.8163 -9.0189 -0.0017 -20.8212 -0.0005
# 3 5.9187 -9.0189 30.2331 -0.0018 -6.2681 0.0018
# 4 -0.0006 -0.0017 -0.0018 36.2544 -0.0003 -8.0592
# 5 3.3392 -20.8212 -6.2681 -0.0003 37.4416 -0.0002
# 6 -0.0005 -0.0005 0.0018 -8.0592 -0.0002 26.7430
#
#
#
# Elastic Compliance Matrix: (Units=1/GPa)
#
#
# Indices 1 2 3 4 5 6 
#
# 1 0.008919 -0.002129 -0.002892 0.000000 -0.002463 0.000000
# 2 -0.002129 0.010228 0.004855 0.000001 0.006691 0.000000
# 3 -0.002892 0.004855 0.036988 0.000002 0.009150 -0.000002
# 4 0.000000 0.000001 0.000002 0.029563 0.000001 0.008909
# 5 -0.002463 0.006691 0.009150 0.000001 0.032180 0.000000
# 6 0.000000 0.000000 -0.000002 0.008909 0.000000 0.040078
#
#
# Mechanical properties :
#
#
# Convention : Reuss Voigt Hill
#
# Bulk Modulus (GPa) = 17.91996 33.71284 25.81640
# Shear Modulus (GPa) = 28.26623 36.95057 32.60840
#
# Velocity S-wave (km/s) = 3.24272 3.70754 3.48289
# Velocity P-wave (km/s) = 4.54826 5.55601 5.07720
#
# Compressibility (1/GPa) = 0.05580369
#
# Stress axis : x y z
#
# Youngs Moduli (GPa) = 112.11969 97.76820 27.03590
#
# Poissons Ratio (x) = 0.20814 0.07819
# Poissons Ratio (y) = 0.23870 -0.13126
# Poissons Ratio (z) = 0.32424 -0.47468
#
# Static dielectric constant tensor:
#      x y z
#    x 2.132710 0.000000 -0.075200 
#    y 0.000000 2.956120 0.000000 
#    z -0.075200 0.000000 2.136470 
# 
# From -- ./inp_files/315065.got.cif
#   From: 2010.05.17/outbox.cif.g08.bks.cpg/sg15_158_cif.got.tgz:315065.got - 2010.06.03 18:47:42.
