data_PCOD9290765
_publ_section_title
;
Structure prediction by ZEFSAII (Michael W. Deem and Ramdas Pophale) SiO2 
 PCOD9290765
Probable space group: C 2/C
;
_chemical_formula_sum "Si O2"
_cell_formula_units_Z 36
_cell_length_a 18.533641
_cell_length_b 5.301258
_cell_length_c 19.542409
_cell_angle_alpha 90.000000
_cell_angle_beta 125.644851
_cell_angle_gamma 90.000000
_cell_volume 1560.337553
_symmetry_space_group_name_H-M "C 2/C"
_symmetry_group_IT_number 15
_symmetry_cell_setting 'monoclinic'
loop_
_space_group_symop_operation_xyz
x,y,z
-x,y,1/2-z
-x,-y,-z
x,-y,1/2+z
1/2+x,1/2+y,z
1/2-x,1/2+y,1/2-z
1/2-x,1/2-y,-z
1/2+x,1/2-y,1/2+z
loop_
_atom_site_type_symbol
_atom_site_label
_atom_site_fract_x
_atom_site_fract_y
_atom_site_fract_z
Si Si1 0.007615 0.960707 0.114436
Si Si2 0.381410 0.121430 0.112494
Si Si3 0.261060 0.966078 0.421565
Si Si4 0.000000 0.257826 0.250000
Si Si5 0.647621 0.449841 0.076732
O O1 0.017606 0.103298 0.191053
O O2 0.965145 0.692080 0.111421
O O3 0.931197 0.081380 0.023506
O O4 0.097039 0.944936 0.120769
O O5 0.339259 0.376728 0.120443
O O6 0.416194 0.937173 0.188709
O O7 0.306037 0.010080 0.021611
O O8 0.307084 0.720093 0.412423
O O9 0.284600 0.219041 0.394774
#
# Coordination Sequence:
#
# PCOD9290765 Si02
#       5
#     8   8   8   4   8
#     4  10  23  38  67  96 131 174 224 275 337 404
#     4  10  23  38  67  96 131 174 224 275 337 404
#     4  10  22  41  69  99 128 170 231 279 323 395
#     4  12  22  40  64  98 136 184 216 288 342 420
#     4  10  22  41  69  99 128 170 231 279 323 395
#
# _framework density 23.071929000000001
#
# number of rings (size 3 to 8) (size 9 to 14) (size 15 to 20)
#    0.000    1.778    2.222    0.667    6.222    5.333 
#    0.000    0.000    9.778    0.000    0.000    0.000 
#    0.000    0.000    0.000    0.000    0.000    0.000 
#
# Total GULP energy -100750.465450 kJ/mol
# GULP energy per Si atom -5597.248081 kJ/mol
# Density = 2.301942 g / cm^3
# Si number density = 23.071929 Si / 1000 Ang^3
#
#
#
# Elastic Constant Matrix: (Units=GPa)
#
#
# Indices 1 2 3 4 5 6 
#
# 1 136.6234 48.5886 41.6108 0.0002 -27.4332 -0.0003
# 2 48.5886 115.5245 39.0240 0.0003 -6.2909 0.0001
# 3 41.6108 39.0240 98.9286 0.0000 -20.9742 -0.0001
# 4 0.0002 0.0003 0.0000 30.0271 0.0000 7.8101
# 5 -27.4332 -6.2909 -20.9742 0.0000 27.3877 0.0001
# 6 -0.0003 0.0001 -0.0001 7.8101 0.0001 35.0093
#
#
#
# Elastic Compliance Matrix: (Units=1/GPa)
#
#
# Indices 1 2 3 4 5 6 
#
# 1 0.010799 -0.003650 -0.001178 0.000000 0.009076 0.000000
# 2 -0.003650 0.011237 -0.003731 0.000000 -0.003932 0.000000
# 3 -0.001178 -0.003731 0.013901 0.000000 0.008608 0.000000
# 4 0.000000 0.000000 0.000000 0.035355 0.000000 -0.007887
# 5 0.009076 -0.003932 0.008608 0.000000 0.051293 0.000000
# 6 0.000000 0.000000 0.000000 -0.007887 0.000000 0.030323
#
#
# Mechanical properties :
#
#
# Convention : Reuss Voigt Hill
#
# Bulk Modulus (GPa) = 53.13875 67.72480 60.43178
# Shear Modulus (GPa) = 28.36088 33.27503 30.81795
#
# Velocity S-wave (km/s) = 3.50985 3.80179 3.65873
# Velocity P-wave (km/s) = 6.28547 6.97775 6.64064
#
# Compressibility (1/GPa) = 0.01881866
#
# Stress axis : x y z
#
# Youngs Moduli (GPa) = 92.60516 88.98790 71.93791
#
# Poissons Ratio (x) = 0.32477 0.08476
# Poissons Ratio (y) = 0.33797 0.26843
# Poissons Ratio (z) = 0.10911 0.33205
#
# Static dielectric constant tensor:
#      x y z
#    x 1.870290 0.000000 0.024420 
#    y 0.000000 1.896920 0.000000 
#    z 0.024420 0.000000 1.851880 
# 
# From -- ./inp_files/184146.got.cif
#   From: 2010.05.17/outbox.cif.g08.bks.cpg/sg15_93_cif.got.tgz:184146.got - 2010.06.03 18:47:42.
