data_PCOD9290820
_publ_section_title
;
Structure prediction by ZEFSAII (Michael W. Deem and Ramdas Pophale) SiO2 
 PCOD9290820
Probable space group: C 2/C
;
_chemical_formula_sum "Si O2"
_cell_formula_units_Z 56
_cell_length_a 11.359536
_cell_length_b 27.710025
_cell_length_c 7.446818
_cell_angle_alpha 90.000000
_cell_angle_beta 77.763007
_cell_angle_gamma 90.000000
_cell_volume 2290.798694
_symmetry_space_group_name_H-M "C 2/C"
_symmetry_group_IT_number 15
_symmetry_cell_setting 'monoclinic'
loop_
_space_group_symop_operation_xyz
x,y,z
-x,y,1/2-z
-x,-y,-z
x,-y,1/2+z
1/2+x,1/2+y,z
1/2-x,1/2+y,1/2-z
1/2-x,1/2-y,-z
1/2+x,1/2-y,1/2+z
loop_
_atom_site_type_symbol
_atom_site_label
_atom_site_fract_x
_atom_site_fract_y
_atom_site_fract_z
Si Si1 0.205345 0.987715 0.352850
Si Si2 0.876782 0.272548 0.015090
Si Si3 0.777443 0.302011 0.419051
Si Si4 0.894034 0.461232 0.536925
Si Si5 0.487105 0.323590 0.970643
Si Si6 0.517480 0.139877 0.523031
Si Si7 0.974774 0.930875 0.538351
O O1 0.277380 0.019469 0.182065
O O2 0.134777 0.033065 0.472344
O O3 0.321938 0.956251 0.374189
O O4 0.093076 0.950400 0.395629
O O5 0.858609 0.287645 0.226141
O O6 0.965487 0.227070 0.966750
O O7 0.925145 0.325370 0.944516
O O8 0.750000 0.250000 0.000000
O O9 0.750000 0.250000 0.500000
O O10 0.651644 0.328041 0.425692
O O11 0.856091 0.332236 0.529215
O O12 0.959143 0.412221 0.564763
O O13 0.000000 0.500000 0.500000
O O14 0.500000 0.318923 0.750000
O O15 0.549153 0.374663 0.995930
O O16 0.500000 0.133032 0.750000
O O17 0.000000 0.934789 0.750000
#
# Coordination Sequence:
#
# PCOD9290820 Si02
#       7
#     8   8   8   8   8   8   8
#     4  11  23  43  65  99 129 175 222 284 342 397
#     4  11  24  41  63  99 139 167 214 276 335 389
#     4  11  20  39  67  90 124 174 220 260 312 404
#     4  12  25  42  67  95 137 178 231 278 334 408
#     4  11  21  39  66  97 121 173 226 260 321 411
#     4  10  22  43  67  94 130 185 225 264 328 400
#     4  10  22  41  70  99 132 168 225 286 342 397
#
# _framework density 24.445620999999999
#
# number of rings (size 3 to 8) (size 9 to 14) (size 15 to 20)
#    0.000    1.143    4.286    2.571    2.000    2.857 
#    0.000    2.857    0.000    0.000    0.000    0.000 
#    0.000    0.000    0.000    0.000    0.000    0.000 
#
# Total GULP energy -155929.693678 kJ/mol
# GULP energy per Si atom -5568.917631 kJ/mol
# Density = 2.438998 g / cm^3
# Si number density = 24.445621 Si / 1000 Ang^3
#
#
#
# Elastic Constant Matrix: (Units=GPa)
#
#
# Indices 1 2 3 4 5 6 
#
# 1 130.1818 66.6430 -0.5016 0.0000 -15.9116 0.0000
# 2 66.6430 220.0124 18.0588 0.0000 -4.9338 0.0000
# 3 -0.5016 18.0588 73.6690 0.0000 -13.8033 0.0000
# 4 0.0000 0.0000 0.0000 49.2487 0.0000 8.2759
# 5 -15.9116 -4.9338 -13.8033 0.0000 25.4056 0.0000
# 6 0.0000 0.0000 0.0000 8.2759 0.0000 51.3427
#
#
#
# Elastic Compliance Matrix: (Units=1/GPa)
#
#
# Indices 1 2 3 4 5 6 
#
# 1 0.010108 -0.003081 0.002113 0.000000 0.006880 0.000000
# 2 -0.003081 0.005580 -0.001723 0.000000 -0.001782 0.000000
# 3 0.002113 -0.001723 0.015805 0.000000 0.009576 0.000000
# 4 0.000000 0.000000 0.000000 0.020870 0.000000 -0.003364
# 5 0.006880 -0.001782 0.009576 0.000000 0.048527 0.000000
# 6 0.000000 0.000000 0.000000 -0.003364 0.000000 0.020019
#
#
# Mechanical properties :
#
#
# Convention : Reuss Voigt Hill
#
# Bulk Modulus (GPa) = 38.29624 65.80707 52.05165
# Shear Modulus (GPa) = 37.03850 47.84360 42.44105
#
# Velocity S-wave (km/s) = 3.89670 4.42876 4.17122
# Velocity P-wave (km/s) = 5.99546 7.28904 6.67367
#
# Compressibility (1/GPa) = 0.02611223
#
# Stress axis : x y z
#
# Youngs Moduli (GPa) = 98.93302 179.21624 63.27044
#
# Poissons Ratio (x) = 0.55214 -0.13370
# Poissons Ratio (y) = 0.30480 0.10899
# Poissons Ratio (z) = -0.20907 0.30873
#
# Static dielectric constant tensor:
#      x y z
#    x 1.902820 0.000000 0.136900 
#    y 0.000000 1.991870 0.000000 
#    z 0.136900 0.000000 2.246360 
# 
# From -- ./inp_files/34208.got.cif
#   From: 2010.05.17/outbox.cif.g08.bks.cpg/sg15_18_cif.got.tgz:34208.got - 2010.06.03 18:47:42.
