data_PCOD9290421
_publ_section_title
;
Structure prediction by ZEFSAII (Michael W. Deem and Ramdas Pophale) SiO2 
 PCOD9290421
Probable space group: C 2/C
;
_chemical_formula_sum "Si O2"
_cell_formula_units_Z 56
_cell_length_a 11.423043
_cell_length_b 17.623684
_cell_length_c 11.366332
_cell_angle_alpha 90.000000
_cell_angle_beta 80.518710
_cell_angle_gamma 90.000000
_cell_volume 2256.967200
_symmetry_space_group_name_H-M "C 2/C"
_symmetry_group_IT_number 15
_symmetry_cell_setting 'monoclinic'
loop_
_space_group_symop_operation_xyz
x,y,z
-x,y,1/2-z
-x,-y,-z
x,-y,1/2+z
1/2+x,1/2+y,z
1/2-x,1/2+y,1/2-z
1/2-x,1/2-y,-z
1/2+x,1/2-y,1/2+z
loop_
_atom_site_type_symbol
_atom_site_label
_atom_site_fract_x
_atom_site_fract_y
_atom_site_fract_z
Si Si1 0.903818 0.953071 0.369042
Si Si2 0.436265 0.070426 0.881745
Si Si3 0.727200 0.606726 0.032856
Si Si4 0.765618 0.203659 0.116664
Si Si5 0.159929 0.418619 0.478274
Si Si6 0.007879 0.186844 0.006308
Si Si7 0.906117 0.317512 0.673525
O O1 0.769621 0.921648 0.368049
O O2 0.000000 0.968487 0.250000
O O3 0.965834 0.887934 0.438754
O O4 0.856848 0.031846 0.437362
O O5 0.500000 0.050098 0.750000
O O6 0.541797 0.112279 0.935741
O O7 0.310715 0.113444 0.903159
O O8 0.387934 0.998078 0.963114
O O9 0.822817 0.622026 0.120854
O O10 0.632854 0.673286 0.045280
O O11 0.685850 0.231654 0.234431
O O12 0.750000 0.250000 0.000000
O O13 0.714441 0.122848 0.082342
O O14 0.903851 0.199059 0.117034
O O15 0.023643 0.257789 0.917430
O O16 0.000000 0.352410 0.750000
#
# Coordination Sequence:
#
# PCOD9290421 Si02
#       7
#     8   8   8   8   8   8   8
#     4  10  23  42  73 100 141 190 238 298 370 430
#     4  10  22  41  65  97 139 180 226 296 366 425
#     4  11  26  45  69 111 140 187 245 306 370 445
#     4  11  24  42  70  94 134 189 242 289 364 437
#     4   9  22  42  62  98 132 176 242 286 350 446
#     4  11  25  47  69 105 146 185 250 302 367 449
#     4  12  25  46  73 102 144 194 238 307 367 446
#
# _framework density 24.812058
#
# number of rings (size 3 to 8) (size 9 to 14) (size 15 to 20)
#    0.000    1.429    1.429    2.143    6.000    4.000 
#    0.000    0.000    0.000    0.000    0.000    0.000 
#    0.000    0.000    0.000    0.000    0.000    0.000 
#
# Total GULP energy -156146.964291 kJ/mol
# GULP energy per Si atom -5576.677296 kJ/mol
# Density = 2.475558 g / cm^3
# Si number density = 24.812058 Si / 1000 Ang^3
#
#
#
# Elastic Constant Matrix: (Units=GPa)
#
#
# Indices 1 2 3 4 5 6 
#
# 1 182.7345 43.6209 71.3289 0.0000 -47.2822 0.0000
# 2 43.6209 80.3408 29.4893 0.0000 5.3597 0.0000
# 3 71.3289 29.4893 114.3371 0.0000 -49.3256 0.0000
# 4 0.0000 0.0000 0.0000 13.2740 0.0000 -5.1068
# 5 -47.2822 5.3597 -49.3256 0.0000 62.7152 0.0000
# 6 0.0000 0.0000 0.0000 -5.1068 0.0000 36.1600
#
#
#
# Elastic Compliance Matrix: (Units=1/GPa)
#
#
# Indices 1 2 3 4 5 6 
#
# 1 0.008663 -0.004332 -0.001982 0.000000 0.005342 0.000000
# 2 -0.004332 0.017588 -0.005889 0.000000 -0.009401 0.000000
# 3 -0.001982 -0.005889 0.016761 0.000000 0.012192 0.000000
# 4 0.000000 0.000000 0.000000 0.079664 0.000000 0.011251
# 5 0.005342 -0.009401 0.012192 0.000000 0.030365 0.000000
# 6 0.000000 0.000000 0.000000 0.011251 0.000000 0.029244
#
#
# Mechanical properties :
#
#
# Convention : Reuss Voigt Hill
#
# Bulk Modulus (GPa) = 53.75085 74.03226 63.89156
# Shear Modulus (GPa) = 23.48604 37.96139 30.72372
#
# Velocity S-wave (km/s) = 3.07996 3.91571 3.52271
# Velocity P-wave (km/s) = 5.86160 7.09547 6.50785
#
# Compressibility (1/GPa) = 0.01860436
#
# Stress axis : x y z
#
# Youngs Moduli (GPa) = 115.43962 56.85702 59.66208
#
# Poissons Ratio (x) = 0.24631 0.11826
# Poissons Ratio (y) = 0.50010 0.35137
# Poissons Ratio (z) = 0.22882 0.33485
#
# Static dielectric constant tensor:
#      x y z
#    x 2.012770 0.000000 -0.017420 
#    y 0.000000 2.113140 0.000000 
#    z -0.017420 0.000000 2.045430 
# 
# From -- ./inp_files/89570.got.cif
#   From: 2010.05.17/outbox.cif.g08.bks.cpg/sg15_45_cif.got.tgz:89570.got - 2010.06.03 18:47:42.
