data_PCOD9290139
_publ_section_title
;
Structure prediction by ZEFSAII (Michael W. Deem and Ramdas Pophale) SiO2 
 PCOD9290139
Probable space group: C 2/C
;
_chemical_formula_sum "Si O2"
_cell_formula_units_Z 44
_cell_length_a 17.113622
_cell_length_b 10.037539
_cell_length_c 14.779793
_cell_angle_alpha 90.000000
_cell_angle_beta 58.072461
_cell_angle_gamma 90.000000
_cell_volume 2154.769103
_symmetry_space_group_name_H-M "C 2/C"
_symmetry_group_IT_number 15
_symmetry_cell_setting 'monoclinic'
loop_
_space_group_symop_operation_xyz
x,y,z
-x,y,1/2-z
-x,-y,-z
x,-y,1/2+z
1/2+x,1/2+y,z
1/2-x,1/2+y,1/2-z
1/2-x,1/2-y,-z
1/2+x,1/2-y,1/2+z
loop_
_atom_site_type_symbol
_atom_site_label
_atom_site_fract_x
_atom_site_fract_y
_atom_site_fract_z
Si Si1 0.962491 0.066091 0.673564
Si Si2 0.839625 0.303871 0.233641
Si Si3 0.079142 0.466064 0.024906
Si Si4 0.993942 0.193864 0.465496
Si Si5 0.000000 0.421629 0.250000
Si Si6 0.746000 0.526270 0.188006
O O1 0.000000 0.099442 0.750000
O O2 0.973305 0.168027 0.583384
O O3 0.009149 0.935355 0.597564
O O4 0.855935 0.031413 0.756109
O O5 0.902532 0.250809 0.111612
O O6 0.792425 0.445017 0.242101
O O7 0.768292 0.185064 0.294924
O O8 0.917018 0.331199 0.261988
O O9 0.181765 0.504272 0.935870
O O10 0.041399 0.509819 0.144397
O O11 0.000000 0.500000 0.000000
O O12 0.074632 0.305296 0.029283
#
# Coordination Sequence:
#
# PCOD9290139 Si02
#       6
#     8   8   8   8   4   8
#     4  10  22  41  62  94 130 172 213 264 331 398
#     4  10  22  41  69  98 132 173 217 274 327 394
#     4  11  21  41  64  93 126 164 218 274 321 374
#     4   9  20  40  65  85 132 168 208 271 327 378
#     4  10  22  42  68  96 128 178 220 266 330 398
#     4  11  22  40  66  98 134 165 225 274 326 384
#
# _framework density 20.419820999999999
#
# number of rings (size 3 to 8) (size 9 to 14) (size 15 to 20)
#    0.000    1.818    3.636    1.091   11.455    0.727 
#   11.455    0.909    0.000    0.000    0.000    0.000 
#    0.000    0.000    0.000    0.000    0.000    0.000 
#
# Total GULP energy -122529.946189 kJ/mol
# GULP energy per Si atom -5569.543009 kJ/mol
# Density = 2.037334 g / cm^3
# Si number density = 20.419821 Si / 1000 Ang^3
#
#
#
# Elastic Constant Matrix: (Units=GPa)
#
#
# Indices 1 2 3 4 5 6 
#
# 1 81.6893 17.7770 45.9813 0.0000 6.7184 0.0000
# 2 17.7770 23.7154 -3.1429 0.0000 1.3879 0.0000
# 3 45.9813 -3.1429 166.3334 0.0000 3.1462 0.0000
# 4 0.0000 0.0000 0.0000 23.4847 0.0000 -8.6376
# 5 6.7184 1.3879 3.1462 0.0000 32.4119 0.0000
# 6 0.0000 0.0000 0.0000 -8.6376 0.0000 23.7356
#
#
#
# Elastic Compliance Matrix: (Units=1/GPa)
#
#
# Indices 1 2 3 4 5 6 
#
# 1 0.018659 -0.014540 -0.005381 0.000000 -0.002723 0.000000
# 2 -0.014540 0.053720 0.005030 0.000000 0.000225 0.000000
# 3 -0.005381 0.005030 0.007592 0.000000 0.000163 0.000000
# 4 0.000000 0.000000 0.000000 0.049161 0.000000 0.017890
# 5 -0.002723 0.000225 0.000163 0.000000 0.031392 0.000000
# 6 0.000000 0.000000 0.000000 0.017890 0.000000 0.048641
#
#
# Mechanical properties :
#
#
# Convention : Reuss Voigt Hill
#
# Bulk Modulus (GPa) = 19.92537 43.66322 31.79429
# Shear Modulus (GPa) = 19.55607 30.00127 24.77867
#
# Velocity S-wave (km/s) = 3.09803 3.83720 3.48726
# Velocity P-wave (km/s) = 4.75143 6.40791 5.64081
#
# Compressibility (1/GPa) = 0.05018729
#
# Stress axis : x y z
#
# Youngs Moduli (GPa) = 53.59441 18.61518 131.72480
#
# Poissons Ratio (x) = 0.27067 0.70885
# Poissons Ratio (y) = 0.77928 -0.66262
# Poissons Ratio (z) = 0.28841 -0.09364
#
# Static dielectric constant tensor:
#      x y z
#    x 1.692820 0.000000 0.013360 
#    y 0.000000 1.828840 0.000000 
#    z 0.013360 0.000000 1.796070 
# 
# From -- ./inp_files/151751.got.cif
#   From: 2010.05.17/outbox.cif.g08.bks.cpg/sg15_76_cif.got.tgz:151751.got - 2010.06.03 18:47:42.
