data_PCOD9290478
_publ_section_title
;
Structure prediction by ZEFSAII (Michael W. Deem and Ramdas Pophale) SiO2 
 PCOD9290478
Probable space group: C 2/C
;
_chemical_formula_sum "Si O2"
_cell_formula_units_Z 56
_cell_length_a 10.288715
_cell_length_b 28.868208
_cell_length_c 10.599804
_cell_angle_alpha 90.000000
_cell_angle_beta 128.205024
_cell_angle_gamma 90.000000
_cell_volume 2473.957845
_symmetry_space_group_name_H-M "C 2/C"
_symmetry_group_IT_number 15
_symmetry_cell_setting 'monoclinic'
loop_
_space_group_symop_operation_xyz
x,y,z
-x,y,1/2-z
-x,-y,-z
x,-y,1/2+z
1/2+x,1/2+y,z
1/2-x,1/2+y,1/2-z
1/2-x,1/2-y,-z
1/2+x,1/2-y,1/2+z
loop_
_atom_site_type_symbol
_atom_site_label
_atom_site_fract_x
_atom_site_fract_y
_atom_site_fract_z
Si Si1 0.656413 0.467294 0.083390
Si Si2 0.298882 0.523798 0.618828
Si Si3 0.813988 0.804055 0.799298
Si Si4 0.366859 0.850132 0.017691
Si Si5 0.111236 0.138785 0.590231
Si Si6 0.838731 0.620564 0.946039
Si Si7 0.500000 0.812610 0.750000
Si Si8 0.000000 0.268605 0.250000
O O1 0.760787 0.479132 0.271517
O O2 0.581486 0.415911 0.051574
O O3 0.500000 0.500000 0.000000
O O4 0.736919 0.481786 0.998402
O O5 0.500000 0.527941 0.750000
O O6 0.222555 0.572772 0.529899
O O7 0.750294 0.846135 0.673367
O O8 0.655313 0.786741 0.781829
O O9 0.866826 0.765372 0.731145
O O10 0.964701 0.825476 0.970569
O O11 0.255980 0.855509 0.073946
O O12 0.513748 0.884820 0.069140
O O13 0.450746 0.800982 0.103017
O O14 0.187427 0.142327 0.775607
O O15 0.913599 0.654960 0.093459
#
# Coordination Sequence:
#
# PCOD9290478 Si02
#       8
#     8   8   8   8   8   8   4   4
#     4   9  20  35  61  97 133 172 233 283 320 404
#     4   9  19  37  62  94 131 179 234 276 336 401
#     4  11  25  40  68 104 130 174 225 281 339 419
#     4  11  22  42  69  99 133 170 221 289 327 400
#     4  11  21  41  72 100 127 180 238 272 336 398
#     4  10  22  41  66  93 138 180 215 280 343 405
#     4  10  26  44  60  97 144 168 219 284 356 402
#     4  12  22  44  76  97 134 176 233 274 348 406
#
# _framework density 22.635794000000001
#
# number of rings (size 3 to 8) (size 9 to 14) (size 15 to 20)
#    0.000    1.714    2.857    0.429    6.000    3.429 
#    2.571    3.571    4.714    0.000    0.000    0.000 
#    0.000    0.000    0.000    0.000    0.000    0.000 
#
# Total GULP energy -156101.276835 kJ/mol
# GULP energy per Si atom -5575.045601 kJ/mol
# Density = 2.258427 g / cm^3
# Si number density = 22.635794 Si / 1000 Ang^3
#
#
#
# Elastic Constant Matrix: (Units=GPa)
#
#
# Indices 1 2 3 4 5 6 
#
# 1 105.9637 22.5522 3.5310 0.0000 0.1875 0.0000
# 2 22.5522 36.3160 14.7960 0.0000 2.0308 0.0000
# 3 3.5310 14.7960 68.9096 0.0000 11.4493 0.0000
# 4 0.0000 0.0000 0.0000 28.4069 0.0000 -33.1925
# 5 0.1875 2.0308 11.4493 0.0000 17.0636 0.0000
# 6 0.0000 0.0000 0.0000 -33.1925 0.0000 93.5870
#
#
#
# Elastic Compliance Matrix: (Units=1/GPa)
#
#
# Indices 1 2 3 4 5 6 
#
# 1 0.010935 -0.007190 0.000969 0.000000 0.000085 0.000000
# 2 -0.007190 0.034915 -0.007261 0.000000 0.000795 0.000000
# 3 0.000969 -0.007261 0.017872 0.000000 -0.011138 0.000000
# 4 0.000000 0.000000 0.000000 0.060116 0.000000 0.021321
# 5 0.000085 0.000795 -0.011138 0.000000 0.065982 0.000000
# 6 0.000000 0.000000 0.000000 0.021321 0.000000 0.018247
#
#
# Mechanical properties :
#
#
# Convention : Reuss Voigt Hill
#
# Bulk Modulus (GPa) = 27.20445 32.54973 29.87709
# Shear Modulus (GPa) = 20.21979 39.16553 29.69266
#
# Velocity S-wave (km/s) = 2.99200 4.16414 3.62575
# Velocity P-wave (km/s) = 4.89699 6.12626 5.54579
#
# Compressibility (1/GPa) = 0.03675869
#
# Stress axis : x y z
#
# Youngs Moduli (GPa) = 91.44896 28.64106 55.95461
#
# Poissons Ratio (x) = 0.20594 -0.05424
# Poissons Ratio (y) = 0.65755 0.40626
# Poissons Ratio (z) = -0.08865 0.20795
#
# Static dielectric constant tensor:
#      x y z
#    x 1.919950 0.000000 -0.042550 
#    y 0.000000 1.978760 0.000000 
#    z -0.042550 0.000000 1.888770 
# 
# From -- ./inp_files/92138.got.cif
#   From: 2010.05.17/outbox.cif.g08.bks.cpg/sg15_47_cif.got.tgz:92138.got - 2010.06.03 18:47:42.
