data_PCOD9290466
_publ_section_title
;
Structure prediction by ZEFSAII (Michael W. Deem and Ramdas Pophale) SiO2 
 PCOD9290466
Probable space group: C 2/C
;
_chemical_formula_sum "Si O2"
_cell_formula_units_Z 32
_cell_length_a 13.518874
_cell_length_b 4.761478
_cell_length_c 19.564012
_cell_angle_alpha 90.000000
_cell_angle_beta 101.554331
_cell_angle_gamma 90.000000
_cell_volume 1233.811859
_symmetry_space_group_name_H-M "C 2/C"
_symmetry_group_IT_number 15
_symmetry_cell_setting 'monoclinic'
loop_
_space_group_symop_operation_xyz
x,y,z
-x,y,1/2-z
-x,-y,-z
x,-y,1/2+z
1/2+x,1/2+y,z
1/2-x,1/2+y,1/2-z
1/2-x,1/2-y,-z
1/2+x,1/2-y,1/2+z
loop_
_atom_site_type_symbol
_atom_site_label
_atom_site_fract_x
_atom_site_fract_y
_atom_site_fract_z
Si Si1 0.874430 0.012658 0.907366
Si Si2 0.838007 0.802124 0.116371
Si Si3 0.819711 0.307524 0.761822
Si Si4 0.417364 0.801998 0.054444
O O1 0.868469 0.195196 0.837453
O O2 0.773847 0.825679 0.902218
O O3 0.885466 0.213326 0.974487
O O4 0.970410 0.808493 0.917878
O O5 0.876112 0.752018 0.198710
O O6 0.902346 0.625270 0.070529
O O7 0.846881 0.124621 0.096885
O O8 0.785145 0.628981 0.759478
#
# Coordination Sequence:
#
# PCOD9290466 Si02
#       4
#     8   8   8   8
#     4  10  24  44  66  96 133 165 213 268 316 377
#     4  11  23  43  65  94 130 169 212 261 319 379
#     4  10  22  41  66  92 128 173 210 260 322 374
#     4  11  25  41  69  98 125 170 214 261 322 378
#
# _framework density 25.935886
#
# number of rings (size 3 to 8) (size 9 to 14) (size 15 to 20)
#    0.000    1.500    0.000    4.500    0.000   15.000 
#    0.000    7.500    0.000    0.000    0.000    0.000 
#    0.000    0.000    0.000    0.000    0.000    0.000 
#
# Total GULP energy -89879.408203 kJ/mol
# GULP energy per Si atom -5617.463013 kJ/mol
# Density = 2.587686 g / cm^3
# Si number density = 25.935886 Si / 1000 Ang^3
#
#
#
# Elastic Constant Matrix: (Units=GPa)
#
#
# Indices 1 2 3 4 5 6 
#
# 1 96.6355 9.8697 33.8173 0.0000 0.2510 0.0000
# 2 9.8697 89.3997 8.0437 0.0000 -5.7302 0.0000
# 3 33.8173 8.0437 163.2444 0.0000 3.1726 0.0000
# 4 0.0000 0.0000 0.0000 47.5555 0.0000 -13.1697
# 5 0.2510 -5.7302 3.1726 0.0000 27.6198 0.0000
# 6 0.0000 0.0000 0.0000 -13.1697 0.0000 28.5882
#
#
#
# Elastic Compliance Matrix: (Units=1/GPa)
#
#
# Indices 1 2 3 4 5 6 
#
# 1 0.011252 -0.001041 -0.002279 0.000000 -0.000056 0.000000
# 2 -0.001041 0.011493 -0.000398 0.000000 0.002440 0.000000
# 3 -0.002279 -0.000398 0.006633 0.000000 -0.000824 0.000000
# 4 0.000000 0.000000 0.000000 0.024103 0.000000 0.011104
# 5 -0.000056 0.002440 -0.000824 0.000000 0.036807 0.000000
# 6 0.000000 0.000000 0.000000 0.011104 0.000000 0.040095
#
#
# Mechanical properties :
#
#
# Convention : Reuss Voigt Hill
#
# Bulk Modulus (GPa) = 45.57203 50.30456 47.93829
# Shear Modulus (GPa) = 34.45132 40.58929 37.52030
#
# Velocity S-wave (km/s) = 3.64857 3.96028 3.80762
# Velocity P-wave (km/s) = 5.94631 6.35213 6.15257
#
# Compressibility (1/GPa) = 0.02194329
#
# Stress axis : x y z
#
# Youngs Moduli (GPa) = 88.87318 87.01094 150.75164
#
# Poissons Ratio (x) = 0.09056 0.34349
# Poissons Ratio (y) = 0.09250 0.06001
# Poissons Ratio (z) = 0.20250 0.03464
#
# Static dielectric constant tensor:
#      x y z
#    x 2.041700 0.000000 -0.015440 
#    y 0.000000 1.924490 0.000000 
#    z -0.015440 0.000000 2.019090 
# 
# From -- ./inp_files/201863.got.cif
#   From: 2010.05.17/outbox.cif.g08.bks.cpg/sg15_101_cif.got.tgz:201863.got - 2010.06.03 18:47:42.
