data_PCOD9290808
_publ_section_title
;
Structure prediction by ZEFSAII (Michael W. Deem and Ramdas Pophale) SiO2 
 PCOD9290808
Probable space group: C 2/C
;
_chemical_formula_sum "Si O2"
_cell_formula_units_Z 40
_cell_length_a 15.151521
_cell_length_b 11.467119
_cell_length_c 10.829435
_cell_angle_alpha 90.000000
_cell_angle_beta 69.439572
_cell_angle_gamma 90.000000
_cell_volume 1761.702003
_symmetry_space_group_name_H-M "C 2/C"
_symmetry_group_IT_number 15
_symmetry_cell_setting 'monoclinic'
loop_
_space_group_symop_operation_xyz
x,y,z
-x,y,1/2-z
-x,-y,-z
x,-y,1/2+z
1/2+x,1/2+y,z
1/2-x,1/2+y,1/2-z
1/2-x,1/2-y,-z
1/2+x,1/2-y,1/2+z
loop_
_atom_site_type_symbol
_atom_site_label
_atom_site_fract_x
_atom_site_fract_y
_atom_site_fract_z
Si Si1 0.287464 0.725037 0.284964
Si Si2 0.734843 0.126912 0.072932
Si Si3 0.003573 0.217397 0.381660
Si Si4 0.554938 0.978273 0.099047
Si Si5 0.334800 0.403145 0.019748
O O1 0.220276 0.655159 0.224694
O O2 0.385927 0.744100 0.161909
O O3 0.305986 0.651109 0.400276
O O4 0.238710 0.845468 0.348414
O O5 0.651415 0.049559 0.056231
O O6 0.750000 0.250000 0.000000
O O7 0.823986 0.040778 0.021822
O O8 0.000000 0.155184 0.250000
O O9 0.943495 0.337217 0.396423
O O10 0.939994 0.139674 0.501125
O O11 0.500000 0.014441 0.250000
O O12 0.500000 0.000000 0.000000
#
# Coordination Sequence:
#
# PCOD9290808 Si02
#       5
#     8   8   8   8   8
#     4  10  22  43  70  99 134 180 233 283 347 418
#     4  12  27  41  66 103 138 172 236 295 344 420
#     4   9  19  41  68  96 129 184 231 271 346 426
#     4  11  24  41  69  99 138 180 236 293 349 420
#     4  10  22  41  70  94 135 187 223 280 357 413
#
# _framework density 22.705317000000001
#
# number of rings (size 3 to 8) (size 9 to 14) (size 15 to 20)
#    0.000    1.600    0.000    6.000    8.400    0.800 
#    0.000    3.000    0.000    0.000    0.000    0.000 
#    0.000    0.000    0.000    0.000    0.000    0.000 
#
# Total GULP energy -111629.395725 kJ/mol
# GULP energy per Si atom -5581.469786 kJ/mol
# Density = 2.265364 g / cm^3
# Si number density = 22.705317 Si / 1000 Ang^3
#
#
#
# Elastic Constant Matrix: (Units=GPa)
#
#
# Indices 1 2 3 4 5 6 
#
# 1 115.9942 44.8127 52.1398 0.0000 -17.1549 0.0000
# 2 44.8127 145.6375 42.6147 0.0000 -27.5747 0.0000
# 3 52.1398 42.6147 75.0625 0.0000 -2.7583 0.0000
# 4 0.0000 0.0000 0.0000 25.8587 0.0000 -1.3762
# 5 -17.1549 -27.5747 -2.7583 0.0000 48.4821 0.0000
# 6 0.0000 0.0000 0.0000 -1.3762 0.0000 23.5995
#
#
#
# Elastic Compliance Matrix: (Units=1/GPa)
#
#
# Indices 1 2 3 4 5 6 
#
# 1 0.013420 -0.000877 -0.008686 0.000000 0.003756 0.000000
# 2 -0.000877 0.009363 -0.004532 0.000000 0.004757 0.000000
# 3 -0.008686 -0.004532 0.021766 0.000000 -0.004413 0.000000
# 4 0.000000 0.000000 0.000000 0.038792 0.000000 0.002262
# 5 0.003756 0.004757 -0.004413 0.000000 0.024410 0.000000
# 6 0.000000 0.000000 0.000000 0.002262 0.000000 0.042506
#
#
# Mechanical properties :
#
#
# Convention : Reuss Voigt Hill
#
# Bulk Modulus (GPa) = 61.12383 68.42541 64.77462
# Shear Modulus (GPa) = 27.18898 32.72984 29.95941
#
# Velocity S-wave (km/s) = 3.46420 3.80084 3.63642
# Velocity P-wave (km/s) = 6.55590 7.03303 6.79865
#
# Compressibility (1/GPa) = 0.01636023
#
# Stress axis : x y z
#
# Youngs Moduli (GPa) = 74.51834 106.80503 45.94274
#
# Poissons Ratio (x) = 0.09362 0.39905
# Poissons Ratio (y) = 0.06532 0.20820
# Poissons Ratio (z) = 0.64725 0.48402
#
# Static dielectric constant tensor:
#      x y z
#    x 2.001320 0.000000 0.025000 
#    y 0.000000 1.853150 0.000000 
#    z 0.025000 0.000000 1.976260 
# 
# From -- ./inp_files/94867.got.cif
#   From: 2010.05.17/outbox.cif.g08.bks.cpg/sg15_48_cif.got.tgz:94867.got - 2010.06.03 18:47:42.
