data_PCOD9290296
_publ_section_title
;
Structure prediction by ZEFSAII (Michael W. Deem and Ramdas Pophale) SiO2 
 PCOD9290296
Probable space group: C 2/C
;
_chemical_formula_sum "Si O2"
_cell_formula_units_Z 24
_cell_length_a 5.128637
_cell_length_b 22.518107
_cell_length_c 9.351703
_cell_angle_alpha 90.000000
_cell_angle_beta 116.073667
_cell_angle_gamma 90.000000
_cell_volume 970.089814
_symmetry_space_group_name_H-M "C 2/C"
_symmetry_group_IT_number 15
_symmetry_cell_setting 'monoclinic'
loop_
_space_group_symop_operation_xyz
x,y,z
-x,y,1/2-z
-x,-y,-z
x,-y,1/2+z
1/2+x,1/2+y,z
1/2-x,1/2+y,1/2-z
1/2-x,1/2-y,-z
1/2+x,1/2-y,1/2+z
loop_
_atom_site_type_symbol
_atom_site_label
_atom_site_fract_x
_atom_site_fract_y
_atom_site_fract_z
Si Si1 0.153516 0.761728 0.646184
Si Si2 0.184361 0.041893 0.147326
Si Si3 0.316740 0.646664 0.573397
O O1 0.500000 0.772341 0.750000
O O2 0.098910 0.691908 0.601158
O O3 0.038963 0.801907 0.489332
O O4 0.000000 0.782049 0.750000
O O5 0.500000 0.013461 0.250000
O O6 0.000000 0.053390 0.250000
O O7 0.260218 0.098444 0.063619
O O8 0.000000 0.000000 0.000000
O O9 0.500000 0.620502 0.750000
#
# Coordination Sequence:
#
# PCOD9290296 Si02
#       3
#     8   8   8
#     4  10  22  41  64  97 139 182 225 271 336 410
#     4  12  27  49  74 101 137 181 234 289 347 413
#     4  10  23  40  67 101 138 179 226 282 341 405
#
# _framework density 24.739975999999999
#
# number of rings (size 3 to 8) (size 9 to 14) (size 15 to 20)
#    0.000    1.333    0.000    4.000    0.000   18.667 
#    0.000    3.333    0.000    0.000    0.000    0.000 
#    0.000    0.000    0.000    0.000    0.000    0.000 
#
# Total GULP energy -66915.719044 kJ/mol
# GULP energy per Si atom -5576.309920 kJ/mol
# Density = 2.468367 g / cm^3
# Si number density = 24.739976 Si / 1000 Ang^3
#
#
#
# Elastic Constant Matrix: (Units=GPa)
#
#
# Indices 1 2 3 4 5 6 
#
# 1 166.5295 -1.7979 73.8149 0.0000 8.1306 0.0000
# 2 -1.7979 59.1755 20.6996 0.0000 13.2919 0.0000
# 3 73.8149 20.6996 188.6481 0.0000 -20.8460 0.0000
# 4 0.0000 0.0000 0.0000 31.9091 0.0000 -8.1616
# 5 8.1306 13.2919 -20.8460 0.0000 49.0099 0.0000
# 6 0.0000 0.0000 0.0000 -8.1616 0.0000 -0.7982
#
#
#
# Elastic Compliance Matrix: (Units=1/GPa)
#
#
# Indices 1 2 3 4 5 6 
#
# 1 0.007848 0.002327 -0.003714 0.000000 -0.003513 0.000000
# 2 0.002327 0.020029 -0.003936 0.000000 -0.007492 0.000000
# 3 -0.003714 -0.003936 0.007736 0.000000 0.004974 0.000000
# 4 0.000000 0.000000 0.000000 0.008668 0.000000 -0.088634
# 5 -0.003513 -0.007492 0.004974 0.000000 0.025134 0.000000
# 6 0.000000 0.000000 0.000000 -0.088634 0.000000 -0.346531
#
#
# Mechanical properties :
#
#
# Convention : Reuss Voigt Hill
#
# Bulk Modulus (GPa) = 40.05480 66.64292 53.34886
# Shear Modulus (GPa) = -19.36886 37.46660 9.04887
#
# Velocity S-wave (km/s) = -2.80107 3.89577 1.91456
# Velocity P-wave (km/s) = 2.40087 6.87254 5.14762
#
# Compressibility (1/GPa) = 0.02496580
#
# Stress axis : x y z
#
# Youngs Moduli (GPa) = 127.42235 49.92684 129.27050
#
# Poissons Ratio (x) = -0.11617 0.48014
# Poissons Ratio (y) = -0.29648 0.50882
# Poissons Ratio (z) = 0.47328 0.19651
#
# Static dielectric constant tensor:
#      x y z
#    x 2.032820 0.000000 0.032820 
#    y 0.000000 2.030740 0.000000 
#    z 0.032820 0.000000 2.135540 
# 
# From -- ./inp_files/19563.got.cif
#   From: 2010.05.17/outbox.cif.g08.bks.cpg/sg15_10_cif.got.tgz:19563.got - 2010.06.03 18:47:42.
