data_PCOD9290718
_publ_section_title
;
Structure prediction by ZEFSAII (Michael W. Deem and Ramdas Pophale) SiO2 
 PCOD9290718
Probable space group: C 2/C
;
_chemical_formula_sum "Si O2"
_cell_formula_units_Z 44
_cell_length_a 7.165795
_cell_length_b 18.667035
_cell_length_c 13.217746
_cell_angle_alpha 90.000000
_cell_angle_beta 72.372499
_cell_angle_gamma 90.000000
_cell_volume 1685.041978
_symmetry_space_group_name_H-M "C 2/C"
_symmetry_group_IT_number 15
_symmetry_cell_setting 'monoclinic'
loop_
_space_group_symop_operation_xyz
x,y,z
-x,y,1/2-z
-x,-y,-z
x,-y,1/2+z
1/2+x,1/2+y,z
1/2-x,1/2+y,1/2-z
1/2-x,1/2-y,-z
1/2+x,1/2-y,1/2+z
loop_
_atom_site_type_symbol
_atom_site_label
_atom_site_fract_x
_atom_site_fract_y
_atom_site_fract_z
Si Si1 0.500000 0.284523 0.250000
Si Si2 0.803327 0.934633 0.723077
Si Si3 0.475044 0.228887 0.472462
Si Si4 0.589775 0.926603 0.946314
Si Si5 0.263415 0.896959 0.275833
Si Si6 0.036179 0.876615 0.521014
O O1 0.543871 0.239665 0.344262
O O2 0.685852 0.338336 0.209242
O O3 0.617569 0.916007 0.822474
O O4 0.000000 0.907525 0.750000
O O5 0.833300 0.904618 0.603959
O O6 0.788234 0.020408 0.734040
O O7 0.250000 0.250000 0.500000
O O8 0.507636 0.148014 0.501128
O O9 0.555080 0.290992 0.534888
O O10 0.809523 0.928897 0.952330
O O11 0.500000 0.000000 0.000000
O O12 0.500000 0.891485 0.250000
O O13 0.114849 0.881651 0.394103
#
# Coordination Sequence:
#
# PCOD9290718 Si02
#       6
#     4   8   8   8   8   8
#     4  10  26  48  66 112 152 184 252 302 370 430
#     4  10  22  41  69 104 151 186 238 314 360 437
#     4  11  27  45  74 100 149 194 239 310 363 443
#     4  11  25  46  72 107 143 188 248 299 370 448
#     4  11  22  41  75 107 148 196 242 301 372 437
#     4  10  24  45  69 105 144 191 246 299 372 429
#
# _framework density 26.112107000000002
#
# number of rings (size 3 to 8) (size 9 to 14) (size 15 to 20)
#    0.000    1.455    0.909    2.182    7.636    4.364 
#    0.000    0.909    0.000    0.000    0.000    0.000 
#    0.000    0.000    0.000    0.000    0.000    0.000 
#
# Total GULP energy -122695.929940 kJ/mol
# GULP energy per Si atom -5577.087725 kJ/mol
# Density = 2.605267 g / cm^3
# Si number density = 26.112107 Si / 1000 Ang^3
#
#
#
# Elastic Constant Matrix: (Units=GPa)
#
#
# Indices 1 2 3 4 5 6 
#
# 1 82.7337 22.4913 33.4348 0.0000 -20.1405 0.0000
# 2 22.4913 198.1617 51.4577 0.0000 -28.3189 0.0000
# 3 33.4348 51.4577 160.1190 0.0000 -28.9686 0.0000
# 4 0.0000 0.0000 0.0000 12.5569 0.0000 11.5311
# 5 -20.1405 -28.3189 -28.9686 0.0000 42.1821 0.0000
# 6 0.0000 0.0000 0.0000 11.5311 0.0000 23.3595
#
#
#
# Elastic Compliance Matrix: (Units=1/GPa)
#
#
# Indices 1 2 3 4 5 6 
#
# 1 0.014233 -0.000372 -0.001905 0.000000 0.005238 0.000000
# 2 -0.000372 0.005829 -0.001279 0.000000 0.002857 0.000000
# 3 -0.001905 -0.001279 0.007690 0.000000 0.003513 0.000000
# 4 0.000000 0.000000 0.000000 0.145671 0.000000 -0.071908
# 5 0.005238 0.002857 0.003513 0.000000 0.030539 0.000000
# 6 0.000000 0.000000 0.000000 -0.071908 0.000000 0.078305
#
#
# Mechanical properties :
#
#
# Convention : Reuss Voigt Hill
#
# Bulk Modulus (GPa) = 48.44891 72.86464 60.65677
# Shear Modulus (GPa) = 16.87718 37.86174 27.36946
#
# Velocity S-wave (km/s) = 2.54507 3.81198 3.24103
# Velocity P-wave (km/s) = 5.21833 6.88041 6.10619
#
# Compressibility (1/GPa) = 0.02064030
#
# Stress axis : x y z
#
# Youngs Moduli (GPa) = 70.25924 171.55572 130.04646
#
# Poissons Ratio (x) = 0.06387 0.24771
# Poissons Ratio (y) = 0.02616 0.16627
# Poissons Ratio (z) = 0.13383 0.21934
#
# Static dielectric constant tensor:
#      x y z
#    x 2.168460 0.000000 0.009160 
#    y 0.000000 2.039690 0.000000 
#    z 0.009160 0.000000 2.636650 
# 
# From -- ./inp_files/134715.got.cif
#   From: 2010.05.17/outbox.cif.g08.bks.cpg/sg15_68_cif.got.tgz:134715.got - 2010.06.03 18:47:42.
