data_PCOD9290814
_publ_section_title
;
Structure prediction by ZEFSAII (Michael W. Deem and Ramdas Pophale) SiO2 
 PCOD9290814
Probable space group: C 2/C
;
_chemical_formula_sum "Si O2"
_cell_formula_units_Z 56
_cell_length_a 15.278689
_cell_length_b 20.958788
_cell_length_c 8.131824
_cell_angle_alpha 90.000000
_cell_angle_beta 96.310167
_cell_angle_gamma 90.000000
_cell_volume 2588.219090
_symmetry_space_group_name_H-M "C 2/C"
_symmetry_group_IT_number 15
_symmetry_cell_setting 'monoclinic'
loop_
_space_group_symop_operation_xyz
x,y,z
-x,y,1/2-z
-x,-y,-z
x,-y,1/2+z
1/2+x,1/2+y,z
1/2-x,1/2+y,1/2-z
1/2-x,1/2-y,-z
1/2+x,1/2-y,1/2+z
loop_
_atom_site_type_symbol
_atom_site_label
_atom_site_fract_x
_atom_site_fract_y
_atom_site_fract_z
Si Si1 0.177975 0.447206 0.001162
Si Si2 0.769550 0.322905 0.058997
Si Si3 0.869893 0.018417 0.408914
Si Si4 0.237520 0.178202 0.943704
Si Si5 0.542195 0.629466 0.931332
Si Si6 0.612352 0.600839 0.414389
Si Si7 0.599566 0.069077 0.834232
O O1 0.271781 0.472639 0.958940
O O2 0.107811 0.500817 0.929457
O O3 0.190443 0.371367 0.964208
O O4 0.162589 0.444390 0.191763
O O5 0.744230 0.325138 0.247054
O O6 0.859222 0.367099 0.070476
O O7 0.750000 0.250000 0.000000
O O8 0.701157 0.360446 0.930972
O O9 0.935177 0.054509 0.546641
O O10 0.886989 0.054664 0.242108
O O11 0.882722 0.943436 0.421209
O O12 0.138474 0.159201 0.974198
O O13 0.250000 0.250000 0.000000
O O14 0.500000 0.648419 0.750000
O O15 0.472915 0.642989 0.063178
O O16 0.500000 0.080186 0.750000
#
# Coordination Sequence:
#
# PCOD9290814 Si02
#       7
#     8   8   8   8   8   8   8
#     4  10  22  41  70  97 133 180 221 282 352 407
#     4  11  26  44  66  94 135 185 225 280 350 415
#     4  11  23  38  67 100 139 179 215 275 347 417
#     4  10  24  46  68  95 137 182 228 275 341 422
#     4  11  22  41  66  99 135 173 218 278 334 404
#     4  12  23  41  66 102 140 174 229 276 344 420
#     4  11  23  44  69 103 133 169 235 302 343 409
#
# _framework density 21.636500000000002
#
# number of rings (size 3 to 8) (size 9 to 14) (size 15 to 20)
#    0.000    1.143    2.857    3.000    6.000    0.000 
#    5.143    0.714    0.000    0.000    0.000    0.000 
#    0.000    0.000    0.000    0.000    0.000    0.000 
#
# Total GULP energy -155972.982441 kJ/mol
# GULP energy per Si atom -5570.463659 kJ/mol
# Density = 2.158725 g / cm^3
# Si number density = 21.636500 Si / 1000 Ang^3
#
#
#
# Elastic Constant Matrix: (Units=GPa)
#
#
# Indices 1 2 3 4 5 6 
#
# 1 101.1301 44.9750 24.1907 0.0000 10.6762 0.0000
# 2 44.9750 159.2050 29.3621 0.0000 26.7885 0.0000
# 3 24.1907 29.3621 80.8046 0.0000 -5.2651 0.0000
# 4 0.0000 0.0000 0.0000 28.1691 0.0000 -25.1382
# 5 10.6762 26.7885 -5.2651 0.0000 28.9335 0.0000
# 6 0.0000 0.0000 0.0000 -25.1382 0.0000 -93.0419
#
#
#
# Elastic Compliance Matrix: (Units=1/GPa)
#
#
# Indices 1 2 3 4 5 6 
#
# 1 0.011923 -0.002379 -0.002882 0.000000 -0.002722 0.000000
# 2 -0.002379 0.008827 -0.003006 0.000000 -0.007842 0.000000
# 3 -0.002882 -0.003006 0.014757 0.000000 0.006532 0.000000
# 4 0.000000 0.000000 0.000000 0.028603 0.000000 -0.007728
# 5 -0.002722 -0.007842 0.006532 0.000000 0.044016 0.000000
# 6 0.000000 0.000000 0.000000 -0.007728 0.000000 -0.008660
#
#
# Mechanical properties :
#
#
# Convention : Reuss Voigt Hill
#
# Bulk Modulus (GPa) = 52.71012 59.79948 56.25480
# Shear Modulus (GPa) = 40.87473 8.98626 24.93050
#
# Velocity S-wave (km/s) = 4.35116 2.04017 3.39815
# Velocity P-wave (km/s) = 7.04684 5.76611 6.43840
#
# Compressibility (1/GPa) = 0.01897169
#
# Stress axis : x y z
#
# Youngs Moduli (GPa) = 83.87230 113.28603 67.76647
#
# Poissons Ratio (x) = 0.26946 0.19533
# Poissons Ratio (y) = 0.19950 0.20374
# Poissons Ratio (z) = 0.24175 0.34059
#
# Static dielectric constant tensor:
#      x y z
#    x 1.865420 0.000000 -0.009670 
#    y 0.000000 1.832040 0.000000 
#    z -0.009670 0.000000 1.857160 
# 
# From -- ./inp_files/41270.got.cif
#   From: 2010.05.17/outbox.cif.g08.bks.cpg/sg15_21_cif.got.tgz:41270.got - 2010.06.03 18:47:42.
