data_PCOD9290420
_publ_section_title
;
Structure prediction by ZEFSAII (Michael W. Deem and Ramdas Pophale) SiO2 
 PCOD9290420
Probable space group: C 2/C
;
_chemical_formula_sum "Si O2"
_cell_formula_units_Z 48
_cell_length_a 18.746801
_cell_length_b 13.601148
_cell_length_c 24.821727
_cell_angle_alpha 90.000000
_cell_angle_beta 160.828127
_cell_angle_gamma 90.000000
_cell_volume 2078.460868
_symmetry_space_group_name_H-M "C 2/C"
_symmetry_group_IT_number 15
_symmetry_cell_setting 'monoclinic'
loop_
_space_group_symop_operation_xyz
x,y,z
-x,y,1/2-z
-x,-y,-z
x,-y,1/2+z
1/2+x,1/2+y,z
1/2-x,1/2+y,1/2-z
1/2-x,1/2-y,-z
1/2+x,1/2-y,1/2+z
loop_
_atom_site_type_symbol
_atom_site_label
_atom_site_fract_x
_atom_site_fract_y
_atom_site_fract_z
Si Si1 0.565730 0.412047 0.622074
Si Si2 0.629972 0.585895 0.287159
Si Si3 0.125116 0.756598 0.190392
Si Si4 0.511932 0.207937 0.819305
Si Si5 0.252544 0.416725 0.302263
Si Si6 0.216783 0.869651 0.367649
O O1 0.508724 0.428576 0.643341
O O2 0.666417 0.307000 0.679519
O O3 0.369672 0.435655 0.442577
O O4 0.752583 0.487686 0.737402
O O5 0.500000 0.586753 0.250000
O O6 0.671470 0.704171 0.309924
O O7 0.766113 0.484707 0.388760
O O8 0.468925 0.868128 0.336474
O O9 0.106340 0.840428 0.131643
O O10 0.914389 0.686787 0.037830
O O11 0.500000 0.167898 0.750000
O O12 0.750000 0.250000 0.000000
O O13 0.333215 0.310082 0.223161
O O14 0.000000 0.868298 0.250000
#
# Coordination Sequence:
#
# PCOD9290420 Si02
#       6
#     8   8   8   8   8   8
#     4  11  23  43  69 102 135 178 227 282 342 406
#     4  10  22  41  65  97 136 170 221 279 332 403
#     4  12  23  44  70  98 133 180 226 280 341 404
#     4  11  24  42  67  97 137 177 218 277 345 406
#     4  11  24  42  69 100 139 176 228 281 341 410
#     4  11  25  44  66  99 136 177 226 281 338 407
#
# _framework density 23.094010999999998
#
# number of rings (size 3 to 8) (size 9 to 14) (size 15 to 20)
#    0.000    1.000    5.000    1.500    0.000    4.667 
#    0.000    0.833    0.000    0.000    0.000    0.000 
#    0.000    0.000    0.000    0.000    0.000    0.000 
#
# Total GULP energy -133885.811392 kJ/mol
# GULP energy per Si atom -5578.575475 kJ/mol
# Density = 2.304145 g / cm^3
# Si number density = 23.094011 Si / 1000 Ang^3
#
#
#
# Elastic Constant Matrix: (Units=GPa)
#
#
# Indices 1 2 3 4 5 6 
#
# 1 139.8598 23.8754 20.6099 -0.0027 -20.3922 0.0032
# 2 23.8754 111.2929 2.4506 0.0114 1.3007 -0.0099
# 3 20.6099 2.4506 78.8308 -0.0516 4.6536 -0.0009
# 4 -0.0027 0.0114 -0.0516 25.4562 -0.0016 -1.5776
# 5 -20.3922 1.3007 4.6536 -0.0016 23.7241 0.0074
# 6 0.0032 -0.0099 -0.0009 -1.5776 0.0074 42.1225
#
#
#
# Elastic Compliance Matrix: (Units=1/GPa)
#
#
# Indices 1 2 3 4 5 6 
#
# 1 0.009154 -0.002001 -0.002835 -0.000004 0.008534 -0.000003
# 2 -0.002001 0.009433 0.000366 -0.000004 -0.002309 0.000003
# 3 -0.002835 0.000366 0.013719 0.000027 -0.005148 0.000003
# 4 -0.000004 -0.000004 0.000027 0.039375 -0.000006 0.001475
# 5 0.008534 -0.002309 -0.005148 -0.000006 0.050623 -0.000010
# 6 -0.000003 0.000003 0.000003 0.001475 -0.000010 0.023795
#
#
# Mechanical properties :
#
#
# Convention : Reuss Voigt Hill
#
# Bulk Modulus (GPa) = 42.79529 47.09503 44.94516
# Shear Modulus (GPa) = 30.70743 37.13042 33.91892
#
# Velocity S-wave (km/s) = 3.65042 4.01408 3.83656
# Velocity P-wave (km/s) = 6.02815 6.47463 6.25537
#
# Compressibility (1/GPa) = 0.02336706
#
# Stress axis : x y z
#
# Youngs Moduli (GPa) = 109.24665 106.00525 72.89139
#
# Poissons Ratio (x) = 0.21212 0.20663
# Poissons Ratio (y) = 0.21860 -0.02669
# Poissons Ratio (z) = 0.30968 -0.03882
#
# Static dielectric constant tensor:
#      x y z
#    x 1.830730 0.000010 0.043390 
#    y 0.000010 1.957170 -0.000030 
#    z 0.043390 -0.000030 1.946610 
# 
# From -- ./inp_files/277889.got.cif
#   From: 2010.05.17/outbox.cif.g08.bks.cpg/sg15_139_cif.got.tgz:277889.got - 2010.06.03 18:47:42.
