data_PCOD9290877
_publ_section_title
;
Structure prediction by ZEFSAII (Michael W. Deem and Ramdas Pophale) SiO2 
 PCOD9290877
Probable space group: C 2/C
;
_chemical_formula_sum "Si O2"
_cell_formula_units_Z 56
_cell_length_a 13.954464
_cell_length_b 17.702539
_cell_length_c 11.188632
_cell_angle_alpha 90.000000
_cell_angle_beta 69.660641
_cell_angle_gamma 90.000000
_cell_volume 2591.592098
_symmetry_space_group_name_H-M "C 2/C"
_symmetry_group_IT_number 15
_symmetry_cell_setting 'monoclinic'
loop_
_space_group_symop_operation_xyz
x,y,z
-x,y,1/2-z
-x,-y,-z
x,-y,1/2+z
1/2+x,1/2+y,z
1/2-x,1/2+y,1/2-z
1/2-x,1/2-y,-z
1/2+x,1/2-y,1/2+z
loop_
_atom_site_type_symbol
_atom_site_label
_atom_site_fract_x
_atom_site_fract_y
_atom_site_fract_z
Si Si1 0.047860 0.419358 0.099577
Si Si2 0.285623 0.330192 0.583113
Si Si3 0.388830 0.734417 0.814571
Si Si4 0.356846 0.075360 0.536355
Si Si5 0.744354 0.659173 0.997649
Si Si6 0.667939 0.414607 0.289082
Si Si7 0.390984 0.583382 0.239117
O O1 0.000000 0.435222 0.250000
O O2 0.960772 0.390510 0.045906
O O3 0.103497 0.494973 0.027650
O O4 0.137710 0.360679 0.070750
O O5 0.352466 0.277711 0.466605
O O6 0.206492 0.281294 0.696373
O O7 0.209088 0.382703 0.537351
O O8 0.364600 0.376359 0.626586
O O9 0.500000 0.769707 0.750000
O O10 0.388298 0.651891 0.757615
O O11 0.278674 0.071742 0.680646
O O12 0.694771 0.616374 0.133188
O O13 0.750000 0.750000 0.000000
O O14 0.684397 0.619411 0.913244
O O15 0.613918 0.494485 0.290512
O O16 0.500000 0.601288 0.250000
#
# Coordination Sequence:
#
# PCOD9290877 Si02
#       7
#     8   8   8   8   8   8   8
#     4  11  22  41  70 109 143 185 231 291 363 437
#     4  10  24  45  68 102 142 177 240 295 349 445
#     4  10  23  44  72 101 136 185 230 293 368 422
#     4  10  22  41  73 104 139 181 231 296 361 422
#     4  12  27  46  70 106 149 190 240 302 365 431
#     4  11  23  45  71 101 143 183 243 294 351 434
#     4  12  28  47  71 102 141 194 247 298 361 422
#
# _framework density 21.608339000000001
#
# number of rings (size 3 to 8) (size 9 to 14) (size 15 to 20)
#    0.000    1.143    2.857    2.143    4.000    4.000 
#    5.143    0.000    0.000    0.000    0.000    0.000 
#    0.000    0.000    0.000    0.000    0.000    0.000 
#
# Total GULP energy -156328.663453 kJ/mol
# GULP energy per Si atom -5583.166552 kJ/mol
# Density = 2.155916 g / cm^3
# Si number density = 21.608339 Si / 1000 Ang^3
#
#
#
# Elastic Constant Matrix: (Units=GPa)
#
#
# Indices 1 2 3 4 5 6 
#
# 1 119.6250 26.9588 15.6771 0.0000 7.8982 0.0000
# 2 26.9588 79.6617 9.4542 0.0000 20.6032 0.0000
# 3 15.6771 9.4542 60.5141 0.0000 9.3763 0.0000
# 4 0.0000 0.0000 0.0000 24.8832 0.0000 2.4911
# 5 7.8982 20.6032 9.3763 0.0000 28.5847 0.0000
# 6 0.0000 0.0000 0.0000 2.4911 0.0000 12.1525
#
#
#
# Elastic Compliance Matrix: (Units=1/GPa)
#
#
# Indices 1 2 3 4 5 6 
#
# 1 0.009271 -0.002960 -0.001973 0.000000 0.000219 0.000000
# 2 -0.002960 0.016405 -0.000096 0.000000 -0.010975 0.000000
# 3 -0.001973 -0.000096 0.017864 0.000000 -0.005246 0.000000
# 4 0.000000 0.000000 0.000000 0.041030 0.000000 -0.008411
# 5 0.000219 -0.010975 -0.005246 0.000000 0.044554 0.000000
# 6 0.000000 0.000000 0.000000 -0.008411 0.000000 0.084012
#
#
# Mechanical properties :
#
#
# Convention : Reuss Voigt Hill
#
# Bulk Modulus (GPa) = 29.86696 40.44234 35.15465
# Shear Modulus (GPa) = 21.33535 26.97146 24.15340
#
# Velocity S-wave (km/s) = 3.14565 3.53682 3.34695
# Velocity P-wave (km/s) = 5.20052 5.95277 5.58932
#
# Compressibility (1/GPa) = 0.03348182
#
# Stress axis : x y z
#
# Youngs Moduli (GPa) = 107.86777 60.95868 55.97864
#
# Poissons Ratio (x) = 0.18043 0.11046
# Poissons Ratio (y) = 0.31927 0.00535
# Poissons Ratio (z) = 0.21285 0.00583
#
# Static dielectric constant tensor:
#      x y z
#    x 1.800090 0.000000 0.030140 
#    y 0.000000 1.857440 0.000000 
#    z 0.030140 0.000000 1.822690 
# 
# From -- ./inp_files/98671.got.cif
#   From: 2010.05.17/outbox.cif.g08.bks.cpg/sg15_50_cif.got.tgz:98671.got - 2010.06.03 18:47:42.
