data_PCOD9290681
_publ_section_title
;
Structure prediction by ZEFSAII (Michael W. Deem and Ramdas Pophale) SiO2 
 PCOD9290681
Probable space group: C 2/C
;
_chemical_formula_sum "Si O2"
_cell_formula_units_Z 48
_cell_length_a 9.105539
_cell_length_b 26.397688
_cell_length_c 14.242089
_cell_angle_alpha 90.000000
_cell_angle_beta 39.765134
_cell_angle_gamma 90.000000
_cell_volume 2189.688105
_symmetry_space_group_name_H-M "C 2/C"
_symmetry_group_IT_number 15
_symmetry_cell_setting 'monoclinic'
loop_
_space_group_symop_operation_xyz
x,y,z
-x,y,1/2-z
-x,-y,-z
x,-y,1/2+z
1/2+x,1/2+y,z
1/2-x,1/2+y,1/2-z
1/2-x,1/2-y,-z
1/2+x,1/2-y,1/2+z
loop_
_atom_site_type_symbol
_atom_site_label
_atom_site_fract_x
_atom_site_fract_y
_atom_site_fract_z
Si Si1 0.493914 0.275670 0.362599
Si Si2 0.748579 0.024251 0.358617
Si Si3 0.092143 0.381446 0.053043
Si Si4 0.742795 0.911831 0.680848
Si Si5 0.238444 0.183110 0.188211
Si Si6 0.149369 0.877945 0.379912
O O1 0.500000 0.286793 0.250000
O O2 0.681842 0.234741 0.303463
O O3 0.533842 0.326979 0.399329
O O4 0.250000 0.250000 0.500000
O O5 0.735997 0.073729 0.433161
O O6 0.744313 0.043094 0.254017
O O7 0.000000 0.999184 0.250000
O O8 0.500000 0.000000 0.500000
O O9 0.219970 0.366743 0.086195
O O10 0.837434 0.396342 0.212121
O O11 0.086535 0.337128 0.978288
O O12 0.500000 0.908613 0.750000
O O13 0.776210 0.860399 0.725469
O O14 0.946781 0.916084 0.505785
O O15 0.000000 0.188309 0.250000
#
# Coordination Sequence:
#
# PCOD9290681 Si02
#       6
#     8   8   8   8   8   8
#     4  12  26  40  57  98 141 181 237 292 335 387
#     4  11  24  49  74 105 140 173 226 286 355 436
#     4  10  22  41  68  97 128 181 230 284 345 414
#     4  11  22  43  69  98 133 182 223 274 348 414
#     4  11  21  39  65  90 133 183 234 279 332 401
#     4  11  22  40  65  95 136 179 230 282 338 408
#
# _framework density 21.920929000000001
#
# number of rings (size 3 to 8) (size 9 to 14) (size 15 to 20)
#    0.000    1.000    3.333    4.500    2.333    3.333 
#    3.000    1.667    0.000    0.000    0.000    0.000 
#    0.000    0.000    0.000    0.000    0.000    0.000 
#
# Total GULP energy -134202.391814 kJ/mol
# GULP energy per Si atom -5591.766326 kJ/mol
# Density = 2.187104 g / cm^3
# Si number density = 21.920929 Si / 1000 Ang^3
#
#
#
# Elastic Constant Matrix: (Units=GPa)
#
#
# Indices 1 2 3 4 5 6 
#
# 1 132.6163 21.0864 45.7911 0.0000 -19.6759 0.0000
# 2 21.0864 27.9814 16.2818 0.0000 -4.7894 0.0000
# 3 45.7911 16.2818 172.7046 0.0000 -14.7275 0.0000
# 4 0.0000 0.0000 0.0000 4.8511 0.0000 -13.3601
# 5 -19.6759 -4.7894 -14.7275 0.0000 42.6574 0.0000
# 6 0.0000 0.0000 0.0000 -13.3601 0.0000 18.3744
#
#
#
# Elastic Compliance Matrix: (Units=1/GPa)
#
#
# Indices 1 2 3 4 5 6 
#
# 1 0.009495 -0.005615 -0.001719 0.000000 0.003156 0.000000
# 2 -0.005615 0.041536 -0.002319 0.000000 0.001273 0.000000
# 3 -0.001719 -0.002319 0.006568 0.000000 0.001214 0.000000
# 4 0.000000 0.000000 0.000000 -0.205632 0.000000 -0.149516
# 5 0.003156 0.001273 0.001214 0.000000 0.025460 0.000000
# 6 0.000000 0.000000 0.000000 -0.149516 0.000000 -0.054290
#
#
# Mechanical properties :
#
#
# Convention : Reuss Voigt Hill
#
# Bulk Modulus (GPa) = 26.11339 55.51343 40.81341
# Shear Modulus (GPa) = -34.53234 29.85281 -2.33977
#
# Velocity S-wave (km/s) = -3.97333 3.69432 -1.03426
# Velocity P-wave (km/s) = 3.01851 6.60126 4.15122
#
# Compressibility (1/GPa) = 0.03829452
#
# Stress axis : x y z
#
# Youngs Moduli (GPa) = 105.31702 24.07531 152.24930
#
# Poissons Ratio (x) = 0.13518 0.26173
# Poissons Ratio (y) = 0.59135 0.35299
# Poissons Ratio (z) = 0.18105 0.05582
#
# Static dielectric constant tensor:
#      x y z
#    x 1.788780 0.000000 -0.042080 
#    y 0.000000 1.790580 0.000000 
#    z -0.042080 0.000000 1.008650 
# 
# From -- ./inp_files/139369.got.cif
#   From: 2010.05.17/outbox.cif.g08.bks.cpg/sg15_70_cif.got.tgz:139369.got - 2010.06.03 18:47:42.
