data_PCOD9290363
_publ_section_title
;
Structure prediction by ZEFSAII (Michael W. Deem and Ramdas Pophale) SiO2 
 PCOD9290363
Probable space group: C 2/C
;
_chemical_formula_sum "Si O2"
_cell_formula_units_Z 48
_cell_length_a 20.377340
_cell_length_b 16.092409
_cell_length_c 14.543570
_cell_angle_alpha 90.000000
_cell_angle_beta 26.020733
_cell_angle_gamma 90.000000
_cell_volume 2092.201963
_symmetry_space_group_name_H-M "C 2/C"
_symmetry_group_IT_number 15
_symmetry_cell_setting 'monoclinic'
loop_
_space_group_symop_operation_xyz
x,y,z
-x,y,1/2-z
-x,-y,-z
x,-y,1/2+z
1/2+x,1/2+y,z
1/2-x,1/2+y,1/2-z
1/2-x,1/2-y,-z
1/2+x,1/2-y,1/2+z
loop_
_atom_site_type_symbol
_atom_site_label
_atom_site_fract_x
_atom_site_fract_y
_atom_site_fract_z
Si Si1 0.690939 0.522549 0.606287
Si Si2 0.566286 0.089779 0.884512
Si Si3 0.302448 0.110335 0.090589
Si Si4 0.622844 0.256338 0.903081
Si Si5 0.304122 0.697967 0.844526
Si Si6 0.158411 0.991382 0.941603
O O1 0.782756 0.442913 0.523600
O O2 0.749818 0.602782 0.585833
O O3 0.693006 0.550034 0.497038
O O4 0.518575 0.499050 0.844067
O O5 0.745016 0.075059 0.664437
O O6 0.472474 0.114456 0.912170
O O7 0.547328 0.168548 0.973835
O O8 0.500000 0.000000 0.000000
O O9 0.210812 0.196612 0.210693
O O10 0.220682 0.057070 0.275343
O O11 0.483413 0.308980 0.116148
O O12 0.741728 0.241675 0.833046
O O13 0.250000 0.750000 0.000000
#
# Coordination Sequence:
#
# PCOD9290363 Si02
#       6
#     8   8   8   8   8   8
#     4  11  24  40  69  97 128 177 219 269 337 402
#     4  10  23  41  64  91 132 174 218 270 329 393
#     4  11  22  42  65  96 134 174 218 273 333 397
#     4  12  24  41  65  97 130 179 221 273 337 394
#     4  12  25  40  63  98 138 171 216 277 340 402
#     4  10  22  41  65  93 129 169 222 270 323 399
#
# _framework density 22.942333999999999
#
# number of rings (size 3 to 8) (size 9 to 14) (size 15 to 20)
#    0.000    1.000    3.333    4.000    7.000    0.667 
#    3.000    0.833    0.000    0.000    0.000    0.000 
#    0.000    0.000    0.000    0.000    0.000    0.000 
#
# Total GULP energy -133985.111312 kJ/mol
# GULP energy per Si atom -5582.712971 kJ/mol
# Density = 2.289012 g / cm^3
# Si number density = 22.942334 Si / 1000 Ang^3
#
#
#
# Elastic Constant Matrix: (Units=GPa)
#
#
# Indices 1 2 3 4 5 6 
#
# 1 73.1455 18.2546 15.5344 0.0001 -15.8929 -0.0001
# 2 18.2546 94.5224 14.2393 0.0001 -2.6996 -0.0002
# 3 15.5344 14.2393 76.4836 0.0000 -6.3930 -0.0002
# 4 0.0001 0.0001 0.0000 34.2340 -0.0002 -3.4506
# 5 -15.8929 -2.6996 -6.3930 -0.0002 26.9545 0.0002
# 6 -0.0001 -0.0002 -0.0002 -3.4506 0.0002 25.0256
#
#
#
# Elastic Compliance Matrix: (Units=1/GPa)
#
#
# Indices 1 2 3 4 5 6 
#
# 1 0.016770 -0.002655 -0.002150 0.000000 0.009112 0.000000
# 2 -0.002655 0.011315 -0.001636 0.000000 -0.000820 0.000000
# 3 -0.002150 -0.001636 0.013973 0.000000 0.001882 0.000000
# 4 0.000000 0.000000 0.000000 0.029622 0.000000 0.004084
# 5 0.009112 -0.000820 0.001882 0.000000 0.042837 0.000000
# 6 0.000000 0.000000 0.000000 0.004084 0.000000 0.040522
#
#
# Mechanical properties :
#
#
# Convention : Reuss Voigt Hill
#
# Bulk Modulus (GPa) = 34.27328 37.80090 36.03709
# Shear Modulus (GPa) = 28.14557 30.31771 29.23164
#
# Velocity S-wave (km/s) = 3.50636 3.63915 3.57338
# Velocity P-wave (km/s) = 5.60037 5.84553 5.72426
#
# Compressibility (1/GPa) = 0.02917725
#
# Stress axis : x y z
#
# Youngs Moduli (GPa) = 59.62862 88.37669 71.56473
#
# Poissons Ratio (x) = 0.23461 0.15389
# Poissons Ratio (y) = 0.15829 0.11708
# Poissons Ratio (z) = 0.12822 0.14458
#
# Static dielectric constant tensor:
#      x y z
#    x 1.919500 0.000000 0.060000 
#    y 0.000000 1.900430 0.000000 
#    z 0.060000 0.000000 1.924460 
# 
# From -- ./inp_files/163192.got.cif
#   From: 2010.05.17/outbox.cif.g08.bks.cpg/sg15_82_cif.got.tgz:163192.got - 2010.06.03 18:47:42.
