data_PCOD9290415
_publ_section_title
;
Structure prediction by ZEFSAII (Michael W. Deem and Ramdas Pophale) SiO2 
 PCOD9290415
Probable space group: C 2/C
;
_chemical_formula_sum "Si O2"
_cell_formula_units_Z 60
_cell_length_a 23.110177
_cell_length_b 13.565990
_cell_length_c 8.990399
_cell_angle_alpha 90.000000
_cell_angle_beta 111.713892
_cell_angle_gamma 90.000000
_cell_volume 2618.602011
_symmetry_space_group_name_H-M "C 2/C"
_symmetry_group_IT_number 15
_symmetry_cell_setting 'monoclinic'
loop_
_space_group_symop_operation_xyz
x,y,z
-x,y,1/2-z
-x,-y,-z
x,-y,1/2+z
1/2+x,1/2+y,z
1/2-x,1/2+y,1/2-z
1/2-x,1/2-y,-z
1/2+x,1/2-y,1/2+z
loop_
_atom_site_type_symbol
_atom_site_label
_atom_site_fract_x
_atom_site_fract_y
_atom_site_fract_z
Si Si1 0.393831 0.184999 0.343728
Si Si2 0.081225 0.102401 0.083563
Si Si3 0.522979 0.204936 0.608121
Si Si4 0.121715 0.450666 0.188576
Si Si5 0.280887 0.370655 0.849967
Si Si6 0.000000 0.009183 0.750000
Si Si7 0.298378 0.166448 0.493463
Si Si8 0.814962 0.334539 0.500525
O O1 0.465162 0.210023 0.440525
O O2 0.354916 0.215175 0.452958
O O3 0.358999 0.221655 0.163141
O O4 0.386567 0.067016 0.319939
O O5 0.152451 0.079924 0.110195
O O6 0.075239 0.218735 0.106486
O O7 0.050251 0.051984 0.199449
O O8 0.038207 0.072088 0.905193
O O9 0.500000 0.232811 0.750000
O O10 0.554559 0.098880 0.649939
O O11 0.169752 0.401851 0.351969
O O12 0.145538 0.412897 0.052217
O O13 0.239337 0.394247 0.667350
O O14 0.240560 0.386835 0.960338
O O15 0.289270 0.251436 0.869860
O O16 0.250000 0.250000 0.500000
#
# Coordination Sequence:
#
# PCOD9290415 Si02
#       8
#     8   8   8   8   8   4   8   8
#     4  11  26  41  66 105 141 177 222 287 347 399
#     4  11  23  48  69 101 132 177 227 290 347 409
#     4  12  24  42  73  99 136 189 229 271 355 431
#     4  12  23  45  68 100 143 174 233 286 333 411
#     4  10  22  43  68  95 131 172 232 267 342 410
#     4  10  26  46  72  98 138 164 228 304 340 394
#     4  11  21  42  68  93 131 188 222 271 336 402
#     4  10  22  41  65  97 132 172 221 285 323 410
#
# _framework density 22.912990000000001
#
# number of rings (size 3 to 8) (size 9 to 14) (size 15 to 20)
#    0.000    1.067    4.667    1.200    1.867    0.533 
#    9.600    1.333    0.000    0.000    0.000    0.000 
#    0.000    0.000    0.000    0.000    0.000    0.000 
#
# Total GULP energy -167766.247072 kJ/mol
# GULP energy per Si atom -5592.208236 kJ/mol
# Density = 2.286084 g / cm^3
# Si number density = 22.912990 Si / 1000 Ang^3
#
#
#
# Elastic Constant Matrix: (Units=GPa)
#
#
# Indices 1 2 3 4 5 6 
#
# 1 118.0767 -0.2924 39.7530 0.0000 4.6327 0.0000
# 2 -0.2924 29.7862 3.9546 0.0000 -5.3998 0.0000
# 3 39.7530 3.9546 104.9405 0.0000 -3.9665 0.0000
# 4 0.0000 0.0000 0.0000 15.5576 0.0000 2.6468
# 5 4.6327 -5.3998 -3.9665 0.0000 40.3834 0.0000
# 6 0.0000 0.0000 0.0000 2.6468 0.0000 32.1112
#
#
#
# Elastic Compliance Matrix: (Units=1/GPa)
#
#
# Indices 1 2 3 4 5 6 
#
# 1 0.009799 0.000335 -0.003780 0.000000 -0.001451 0.000000
# 2 0.000335 0.034551 -0.001260 0.000000 0.004458 0.000000
# 3 -0.003780 -0.001260 0.011060 0.000000 0.001351 0.000000
# 4 0.000000 0.000000 0.000000 0.065191 0.000000 -0.005373
# 5 -0.001451 0.004458 0.001351 0.000000 0.025658 0.000000
# 6 0.000000 0.000000 0.000000 -0.005373 0.000000 0.031585
#
#
# Mechanical properties :
#
#
# Convention : Reuss Voigt Hill
#
# Bulk Modulus (GPa) = 21.73903 37.73707 29.73805
# Shear Modulus (GPa) = 24.68069 31.56966 28.12518
#
# Velocity S-wave (km/s) = 3.28555 3.71591 3.50734
# Velocity P-wave (km/s) = 4.88891 5.90899 5.42298
#
# Compressibility (1/GPa) = 0.04600022
#
# Stress axis : x y z
#
# Youngs Moduli (GPa) = 102.04823 28.94239 90.41965
#
# Poissons Ratio (x) = -0.00970 0.34175
# Poissons Ratio (y) = -0.03419 0.11397
# Poissons Ratio (z) = 0.38570 0.03648
#
# Static dielectric constant tensor:
#      x y z
#    x 1.892800 0.000000 -0.019840 
#    y 0.000000 1.854760 0.000000 
#    z -0.019840 0.000000 1.855460 
# 
# From -- ./inp_files/61963.got.cif
#   From: 2010.05.17/outbox.cif.g08.bks.cpg/sg15_31_cif.got.tgz:61963.got - 2010.06.03 18:47:42.
