data_PCOD9290003
_publ_section_title
;
Structure prediction by ZEFSAII (Michael W. Deem and Ramdas Pophale) SiO2 
 PCOD9290003
Probable space group: C 2/C
;
_chemical_formula_sum "Si O2"
_cell_formula_units_Z 60
_cell_length_a 10.784611
_cell_length_b 9.382252
_cell_length_c 28.825290
_cell_angle_alpha 90.000000
_cell_angle_beta 83.432287
_cell_angle_gamma 90.000000
_cell_volume 2897.515443
_symmetry_space_group_name_H-M "C 2/C"
_symmetry_group_IT_number 15
_symmetry_cell_setting 'monoclinic'
loop_
_space_group_symop_operation_xyz
x,y,z
-x,y,1/2-z
-x,-y,-z
x,-y,1/2+z
1/2+x,1/2+y,z
1/2-x,1/2+y,1/2-z
1/2-x,1/2-y,-z
1/2+x,1/2-y,1/2+z
loop_
_atom_site_type_symbol
_atom_site_label
_atom_site_fract_x
_atom_site_fract_y
_atom_site_fract_z
Si Si1 0.604269 0.492064 0.320008
Si Si2 0.826525 0.768149 0.101617
Si Si3 0.000000 0.808331 0.250000
Si Si4 0.844511 0.011350 0.373228
Si Si5 0.284159 0.960140 0.923979
Si Si6 0.324072 0.197105 0.335558
Si Si7 0.025179 0.655295 0.017865
Si Si8 0.996640 0.907552 0.546678
O O1 0.629146 0.369876 0.358195
O O2 0.599708 0.409737 0.271570
O O3 0.464119 0.545775 0.336091
O O4 0.703642 0.618830 0.318984
O O5 0.761834 0.629090 0.125289
O O6 0.934572 0.717327 0.061911
O O7 0.729220 0.868144 0.076410
O O8 0.929001 0.719275 0.292329
O O9 0.899701 0.031901 0.423007
O O10 0.803355 0.851926 0.360696
O O11 0.360509 0.908798 0.875879
O O12 0.339838 0.871162 0.964278
O O13 0.139382 0.917743 0.924602
O O14 0.000696 0.751250 0.974204
O O15 0.000000 0.500000 0.000000
O O16 0.000000 0.000000 0.500000
#
# Coordination Sequence:
#
# PCOD9290003 Si02
#       8
#     8   8   4   8   8   8   8   8
#     4  10  22  47  65  98 128 166 205 263 334 393
#     4  11  24  43  63  92 135 171 218 271 320 381
#     4  10  22  40  72  96 128 154 208 270 324 406
#     4  11  23  40  67  91 126 174 215 266 317 377
#     4  11  23  43  63  89 134 178 214 274 325 383
#     4  10  22  42  71  93 126 168 212 260 334 393
#     4  12  26  37  57  96 132 174 232 271 313 370
#     4  12  22  40  64  89 131 181 223 269 319 372
#
# _framework density 20.707397
#
# number of rings (size 3 to 8) (size 9 to 14) (size 15 to 20)
#    0.000    1.067    4.000    3.600    3.733    4.267 
#    0.000    2.667    0.000    1.600    0.000    0.000 
#    0.000    0.000    0.000    0.000    0.000    0.000 
#
# Total GULP energy -167292.601553 kJ/mol
# GULP energy per Si atom -5576.420052 kJ/mol
# Density = 2.066027 g / cm^3
# Si number density = 20.707397 Si / 1000 Ang^3
#
#
#
# Elastic Constant Matrix: (Units=GPa)
#
#
# Indices 1 2 3 4 5 6 
#
# 1 72.6790 37.5665 22.3218 0.0000 10.2277 0.0000
# 2 37.5665 135.8434 33.3711 0.0000 -2.4156 0.0000
# 3 22.3218 33.3711 80.2540 0.0000 7.4182 0.0000
# 4 0.0000 0.0000 0.0000 33.1010 0.0000 -2.1974
# 5 10.2277 -2.4156 7.4182 0.0000 23.2650 0.0000
# 6 0.0000 0.0000 0.0000 -2.1974 0.0000 39.2791
#
#
#
# Elastic Compliance Matrix: (Units=1/GPa)
#
#
# Indices 1 2 3 4 5 6 
#
# 1 0.017882 -0.004488 -0.002409 0.000000 -0.007559 0.000000
# 2 -0.004488 0.009416 -0.003029 0.000000 0.003917 0.000000
# 3 -0.002409 -0.003029 0.014756 0.000000 -0.003961 0.000000
# 4 0.000000 0.000000 0.000000 0.030323 0.000000 0.001696
# 5 -0.007559 0.003917 -0.003961 0.000000 0.047976 0.000000
# 6 0.000000 0.000000 0.000000 0.001696 0.000000 0.025554
#
#
# Mechanical properties :
#
#
# Convention : Reuss Voigt Hill
#
# Bulk Modulus (GPa) = 45.03936 52.81059 48.92497
# Shear Modulus (GPa) = 28.87489 32.16348 30.51919
#
# Velocity S-wave (km/s) = 3.73825 3.94539 3.84321
# Velocity P-wave (km/s) = 6.35848 6.80539 6.58573
#
# Compressibility (1/GPa) = 0.02220280
#
# Stress axis : x y z
#
# Youngs Moduli (GPa) = 55.92067 106.19859 67.76830
#
# Poissons Ratio (x) = 0.47661 0.16325
# Poissons Ratio (y) = 0.25097 0.20529
# Poissons Ratio (z) = 0.13471 0.32170
#
# Static dielectric constant tensor:
#      x y z
#    x 1.879100 0.000000 0.166550 
#    y 0.000000 2.188840 0.000000 
#    z 0.166550 0.000000 2.079120 
# 
# From -- ./inp_files/310276.got.cif
#   From: 2010.05.17/outbox.cif.g08.bks.cpg/sg15_156_cif.got.tgz:310276.got - 2010.06.03 18:47:42.
