data_PCOD9290040
_publ_section_title
;
Structure prediction by ZEFSAII (Michael W. Deem and Ramdas Pophale) SiO2 
 PCOD9290040
Probable space group: C 2/C
;
_chemical_formula_sum "Si O2"
_cell_formula_units_Z 60
_cell_length_a 18.572129
_cell_length_b 11.860559
_cell_length_c 12.993095
_cell_angle_alpha 90.000000
_cell_angle_beta 100.210236
_cell_angle_gamma 90.000000
_cell_volume 2816.741023
_symmetry_space_group_name_H-M "C 2/C"
_symmetry_group_IT_number 15
_symmetry_cell_setting 'monoclinic'
loop_
_space_group_symop_operation_xyz
x,y,z
-x,y,1/2-z
-x,-y,-z
x,-y,1/2+z
1/2+x,1/2+y,z
1/2-x,1/2+y,1/2-z
1/2-x,1/2-y,-z
1/2+x,1/2-y,1/2+z
loop_
_atom_site_type_symbol
_atom_site_label
_atom_site_fract_x
_atom_site_fract_y
_atom_site_fract_z
Si Si1 0.053356 0.148501 0.915955
Si Si2 0.568181 0.583952 0.319594
Si Si3 0.791054 0.872346 0.937394
Si Si4 0.200868 0.364376 0.114258
Si Si5 0.071336 0.458697 0.580192
Si Si6 0.000000 0.329854 0.750000
Si Si7 0.825779 0.056698 0.798387
Si Si8 0.406655 0.716018 0.978909
O O1 0.051376 0.243847 0.827318
O O2 0.993071 0.190742 0.981433
O O3 0.033268 0.025317 0.868484
O O4 0.133433 0.130759 0.980446
O O5 0.500000 0.647377 0.250000
O O6 0.619382 0.527709 0.246721
O O7 0.609591 0.657871 0.415845
O O8 0.802219 0.768160 0.863081
O O9 0.784317 0.986507 0.874499
O O10 0.724532 0.863772 0.000111
O O11 0.129341 0.440666 0.108168
O O12 0.267742 0.407109 0.199044
O O13 0.044354 0.406543 0.681683
O O14 0.105261 0.349777 0.530015
O O15 0.000000 0.500000 0.500000
O O16 0.867314 0.154855 0.872149
#
# Coordination Sequence:
#
# PCOD9290040 Si02
#       8
#     8   8   8   8   8   4   8   8
#     4  11  18  38  67 100 126 174 222 275 323 393
#     4  12  20  36  63 101 137 168 219 278 341 395
#     4  11  25  44  67  95 135 174 232 277 332 414
#     4  11  26  44  69  92 132 183 223 278 339 412
#     4  11  26  49  68  99 132 178 232 281 342 404
#     4  10  22  40  78  96 132 178 236 272 334 410
#     4  12  23  40  64 103 132 174 220 276 346 407
#     4  11  23  40  68  99 140 175 222 286 335 406
#
# _framework density 21.301212
#
# number of rings (size 3 to 8) (size 9 to 14) (size 15 to 20)
#    0.000    0.800    4.667    3.600    1.867    2.133 
#    6.000    1.333    0.000    0.000    0.000    0.000 
#    0.000    0.000    0.000    0.000    0.000    0.000 
#
# Total GULP energy -167620.356319 kJ/mol
# GULP energy per Si atom -5587.345211 kJ/mol
# Density = 2.125273 g / cm^3
# Si number density = 21.301212 Si / 1000 Ang^3
#
#
#
# Elastic Constant Matrix: (Units=GPa)
#
#
# Indices 1 2 3 4 5 6 
#
# 1 31.7196 20.0288 18.9617 0.0000 11.8713 0.0000
# 2 20.0288 98.9653 25.4327 0.0000 -1.5943 0.0000
# 3 18.9617 25.4327 73.7077 0.0000 3.2491 0.0000
# 4 0.0000 0.0000 0.0000 27.9576 0.0000 -14.8059
# 5 11.8713 -1.5943 3.2491 0.0000 15.8663 0.0000
# 6 0.0000 0.0000 0.0000 -14.8059 0.0000 22.6236
#
#
#
# Elastic Compliance Matrix: (Units=1/GPa)
#
#
# Indices 1 2 3 4 5 6 
#
# 1 0.060769 -0.010425 -0.010076 0.000000 -0.044452 0.000000
# 2 -0.010425 0.012934 -0.002202 0.000000 0.009551 0.000000
# 3 -0.010076 -0.002202 0.016748 0.000000 0.003888 0.000000
# 4 0.000000 0.000000 0.000000 0.054741 0.000000 0.035825
# 5 -0.044452 0.009551 0.003888 0.000000 0.096450 0.000000
# 6 0.000000 0.000000 0.000000 0.035825 0.000000 0.067647
#
#
# Mechanical properties :
#
#
# Convention : Reuss Voigt Hill
#
# Bulk Modulus (GPa) = 22.20057 37.02654 29.61356
# Shear Modulus (GPa) = 13.52407 22.62078 18.07243
#
# Velocity S-wave (km/s) = 2.52245 3.26229 2.91593
# Velocity P-wave (km/s) = 4.35069 5.62229 5.02686
#
# Compressibility (1/GPa) = 0.04504388
#
# Stress axis : x y z
#
# Youngs Moduli (GPa) = 16.45565 77.31455 59.70960
#
# Poissons Ratio (x) = 0.80602 0.60166
# Poissons Ratio (y) = 0.17155 0.13148
# Poissons Ratio (z) = 0.16582 0.17025
#
# Static dielectric constant tensor:
#      x y z
#    x 1.807200 0.000000 0.055400 
#    y 0.000000 1.825710 0.000000 
#    z 0.055400 0.000000 1.921980 
# 
# From -- ./inp_files/161378.got.cif
#   From: 2010.05.17/outbox.cif.g08.bks.cpg/sg15_81_cif.got.tgz:161378.got - 2010.06.03 18:47:42.
