data_PCOD9290966
_publ_section_title
;
Structure prediction by ZEFSAII (Michael W. Deem and Ramdas Pophale) SiO2 
 PCOD9290966
Probable space group: C 2/C
;
_chemical_formula_sum "Si O2"
_cell_formula_units_Z 40
_cell_length_a 20.115878
_cell_length_b 13.195660
_cell_length_c 12.143788
_cell_angle_alpha 90.000000
_cell_angle_beta 37.590543
_cell_angle_gamma 90.000000
_cell_volume 1966.366027
_symmetry_space_group_name_H-M "C 2/C"
_symmetry_group_IT_number 15
_symmetry_cell_setting 'monoclinic'
loop_
_space_group_symop_operation_xyz
x,y,z
-x,y,1/2-z
-x,-y,-z
x,-y,1/2+z
1/2+x,1/2+y,z
1/2-x,1/2+y,1/2-z
1/2-x,1/2-y,-z
1/2+x,1/2-y,1/2+z
loop_
_atom_site_type_symbol
_atom_site_label
_atom_site_fract_x
_atom_site_fract_y
_atom_site_fract_z
Si Si1 0.153664 0.830916 0.132384
Si Si2 0.798072 0.996105 0.762878
Si Si3 0.371465 0.146108 0.923055
Si Si4 0.921074 0.815350 0.516720
Si Si5 0.742688 0.159530 0.658609
O O1 0.117193 0.847303 0.054991
O O2 0.048514 0.791412 0.338792
O O3 0.188627 0.932318 0.148979
O O4 0.250000 0.750000 0.000000
O O5 0.892684 0.911634 0.630252
O O6 0.790474 0.068985 0.667709
O O7 0.686815 0.932219 0.918643
O O8 0.500000 0.135231 0.750000
O O9 0.315896 0.127815 0.877263
O O10 0.335648 0.258866 0.006185
O O11 0.848381 0.721513 0.652304
#
# Coordination Sequence:
#
# PCOD9290966 Si02
#       5
#     8   8   8   8   8
#     4  11  22  39  61  92 123 157 205 251 296 360
#     4  11  22  40  63  89 124 159 200 251 302 359
#     4  10  24  41  62  91 122 158 204 247 298 366
#     4  10  23  39  62  91 122 161 203 247 305 358
#     4  10  22  42  62  90 122 160 202 247 304 359
#
# _framework density 20.342092000000001
#
# number of rings (size 3 to 8) (size 9 to 14) (size 15 to 20)
#    0.000    1.600    2.000    1.800    2.800    2.400 
#    7.200    0.000    0.000    0.000    0.000    0.000 
#    0.000    0.000    0.000    0.000    0.000    0.000 
#
# Total GULP energy -111782.914385 kJ/mol
# GULP energy per Si atom -5589.145719 kJ/mol
# Density = 2.029579 g / cm^3
# Si number density = 20.342092 Si / 1000 Ang^3
#
#
#
# Elastic Constant Matrix: (Units=GPa)
#
#
# Indices 1 2 3 4 5 6 
#
# 1 41.6437 11.8048 12.0988 0.0000 -0.0685 0.0000
# 2 11.8048 41.8863 18.8172 0.0000 0.5727 0.0000
# 3 12.0988 18.8172 103.6251 0.0000 -21.8571 0.0000
# 4 0.0000 0.0000 0.0000 32.9166 0.0000 14.7266
# 5 -0.0685 0.5727 -21.8571 0.0000 38.3751 0.0000
# 6 0.0000 0.0000 0.0000 14.7266 0.0000 28.1803
#
#
#
# Elastic Compliance Matrix: (Units=1/GPa)
#
#
# Indices 1 2 3 4 5 6 
#
# 1 0.026471 -0.006484 -0.002140 0.000000 -0.001075 0.000000
# 2 -0.006484 0.028003 -0.005022 0.000000 -0.003290 0.000000
# 3 -0.002140 -0.005022 0.012305 0.000000 0.007080 0.000000
# 4 0.000000 0.000000 0.000000 0.039650 0.000000 -0.020721
# 5 -0.001075 -0.003290 0.007080 0.000000 0.030138 0.000000
# 6 0.000000 0.000000 0.000000 -0.020721 0.000000 0.046314
#
#
# Mechanical properties :
#
#
# Convention : Reuss Voigt Hill
#
# Bulk Modulus (GPa) = 25.32474 30.28854 27.80664
# Shear Modulus (GPa) = 22.38782 29.52334 25.95558
#
# Velocity S-wave (km/s) = 3.32108 3.81378 3.57593
# Velocity P-wave (km/s) = 5.21369 5.85791 5.54516
#
# Compressibility (1/GPa) = 0.03948708
#
# Stress axis : x y z
#
# Youngs Moduli (GPa) = 37.77681 35.71097 81.26647
#
# Poissons Ratio (x) = 0.23156 0.17390
# Poissons Ratio (y) = 0.24496 0.40810
# Poissons Ratio (z) = 0.08084 0.17933
#
# Static dielectric constant tensor:
#      x y z
#    x 1.715020 0.000000 0.013290 
#    y 0.000000 1.692210 0.000000 
#    z 0.013290 0.000000 1.736500 
# 
# From -- ./inp_files/95992.got.cif
#   From: 2010.05.17/outbox.cif.g08.bks.cpg/sg15_48_cif.got.tgz:95992.got - 2010.06.03 18:47:42.
