data_PCOD9290694
_publ_section_title
;
Structure prediction by ZEFSAII (Michael W. Deem and Ramdas Pophale) SiO2 
 PCOD9290694
Probable space group: C 2/C
;
_chemical_formula_sum "Si O2"
_cell_formula_units_Z 56
_cell_length_a 8.909695
_cell_length_b 25.720157
_cell_length_c 11.038245
_cell_angle_alpha 90.000000
_cell_angle_beta 73.396700
_cell_angle_gamma 90.000000
_cell_volume 2424.045363
_symmetry_space_group_name_H-M "C 2/C"
_symmetry_group_IT_number 15
_symmetry_cell_setting 'monoclinic'
loop_
_space_group_symop_operation_xyz
x,y,z
-x,y,1/2-z
-x,-y,-z
x,-y,1/2+z
1/2+x,1/2+y,z
1/2-x,1/2+y,1/2-z
1/2-x,1/2-y,-z
1/2+x,1/2-y,1/2+z
loop_
_atom_site_type_symbol
_atom_site_label
_atom_site_fract_x
_atom_site_fract_y
_atom_site_fract_z
Si Si1 0.863608 0.182646 0.181273
Si Si2 0.051628 0.074372 0.377639
Si Si3 0.599131 0.799679 0.355243
Si Si4 0.346975 0.950685 0.932396
Si Si5 0.236759 0.559480 0.562655
Si Si6 0.095154 0.362443 0.908541
Si Si7 0.687111 0.397854 0.199092
O O1 0.921833 0.134498 0.086041
O O2 0.849295 0.240361 0.134537
O O3 0.705193 0.163165 0.282523
O O4 0.000000 0.187182 0.250000
O O5 0.221948 0.049741 0.351424
O O6 0.000000 0.074421 0.250000
O O7 0.914902 0.047317 0.483573
O O8 0.500000 0.803335 0.250000
O O9 0.497345 0.819457 0.492701
O O10 0.743768 0.839576 0.318065
O O11 0.481186 0.908023 0.887420
O O12 0.379749 0.011855 0.935890
O O13 0.249014 0.930218 0.070360
O O14 0.197228 0.607716 0.485592
O O15 0.236364 0.576230 0.700543
O O16 0.500000 0.399161 0.250000
#
# Coordination Sequence:
#
# PCOD9290694 Si02
#       7
#     8   8   8   8   8   8   8
#     4  10  22  42  70  97 133 184 227 279 341 411
#     4  11  23  43  66 100 133 173 235 270 329 414
#     4  10  22  41  68  98 131 179 229 277 347 400
#     4  11  27  41  67 103 136 179 227 281 341 399
#     4  12  23  42  71  95 137 187 219 279 339 404
#     4  11  23  46  64 104 140 170 232 288 333 409
#     4  11  24  43  65 102 142 174 229 280 337 412
#
# _framework density 23.101877000000002
#
# number of rings (size 3 to 8) (size 9 to 14) (size 15 to 20)
#    0.000    1.143    5.714    0.857    2.000    4.000 
#    2.571    4.286    0.000    0.000    0.000    0.000 
#    0.000    0.000    0.000    0.000    0.000    0.000 
#
# Total GULP energy -156647.316037 kJ/mol
# GULP energy per Si atom -5594.547001 kJ/mol
# Density = 2.304930 g / cm^3
# Si number density = 23.101877 Si / 1000 Ang^3
#
#
#
# Elastic Constant Matrix: (Units=GPa)
#
#
# Indices 1 2 3 4 5 6 
#
# 1 86.1569 27.2421 36.1820 0.0000 -18.3744 0.0000
# 2 27.2421 155.9500 34.2074 0.0000 -16.6789 0.0000
# 3 36.1820 34.2074 80.6498 0.0000 -12.1090 0.0000
# 4 0.0000 0.0000 0.0000 0.6561 0.0000 4.5925
# 5 -18.3744 -16.6789 -12.1090 0.0000 35.6166 0.0000
# 6 0.0000 0.0000 0.0000 4.5925 0.0000 24.4768
#
#
#
# Elastic Compliance Matrix: (Units=1/GPa)
#
#
# Indices 1 2 3 4 5 6 
#
# 1 0.015489 -0.000842 -0.005744 0.000000 0.005643 0.000000
# 2 -0.000842 0.007319 -0.002399 0.000000 0.002177 0.000000
# 3 -0.005744 -0.002399 0.016208 0.000000 0.001423 0.000000
# 4 0.000000 0.000000 0.000000 -4.864187 0.000000 0.912647
# 5 0.005643 0.002177 0.001423 0.000000 0.032491 0.000000
# 6 0.000000 0.000000 0.000000 0.912647 0.000000 -0.130381
#
#
# Mechanical properties :
#
#
# Convention : Reuss Voigt Hill
#
# Bulk Modulus (GPa) = 47.52083 57.55774 52.53929
# Shear Modulus (GPa) = -1.02081 27.15824 13.06872
#
# Velocity S-wave (km/s) = -0.66546 3.43240 2.38102
# Velocity P-wave (km/s) = 4.47486 6.37788 5.50916
#
# Compressibility (1/GPa) = 0.02104340
#
# Stress axis : x y z
#
# Youngs Moduli (GPa) = 64.56241 136.63867 61.69872
#
# Poissons Ratio (x) = 0.11506 0.35442
# Poissons Ratio (y) = 0.05437 0.14805
# Poissons Ratio (z) = 0.37087 0.32786
#
# Static dielectric constant tensor:
#      x y z
#    x 1.916110 0.000000 0.016410 
#    y 0.000000 1.890400 0.000000 
#    z 0.016410 0.000000 1.844010 
# 
# From -- ./inp_files/81255.got.cif
#   From: 2010.05.17/outbox.cif.g08.bks.cpg/sg15_41_cif.got.tgz:81255.got - 2010.06.03 18:47:42.
