data_PCOD9290165
_publ_section_title
;
Structure prediction by ZEFSAII (Michael W. Deem and Ramdas Pophale) SiO2 
 PCOD9290165
Probable space group: C 2/C
;
_chemical_formula_sum "Si O2"
_cell_formula_units_Z 40
_cell_length_a 16.564773
_cell_length_b 7.203427
_cell_length_c 13.882012
_cell_angle_alpha 90.000000
_cell_angle_beta 97.829183
_cell_angle_gamma 90.000000
_cell_volume 1641.004755
_symmetry_space_group_name_H-M "C 2/C"
_symmetry_group_IT_number 15
_symmetry_cell_setting 'monoclinic'
loop_
_space_group_symop_operation_xyz
x,y,z
-x,y,1/2-z
-x,-y,-z
x,-y,1/2+z
1/2+x,1/2+y,z
1/2-x,1/2+y,1/2-z
1/2-x,1/2-y,-z
1/2+x,1/2-y,1/2+z
loop_
_atom_site_type_symbol
_atom_site_label
_atom_site_fract_x
_atom_site_fract_y
_atom_site_fract_z
Si Si1 0.615569 0.935375 0.880032
Si Si2 0.171615 0.491848 0.683127
Si Si3 0.694992 0.405749 0.439580
Si Si4 0.887408 0.757829 0.477903
Si Si5 0.019675 0.721141 0.648998
O O1 0.672062 0.975115 0.797609
O O2 0.617191 0.718752 0.898666
O O3 0.642652 0.069288 0.971852
O O4 0.527025 0.022414 0.848885
O O5 0.258096 0.517573 0.646392
O O6 0.126266 0.309311 0.632538
O O7 0.113664 0.670942 0.652206
O O8 0.750000 0.250000 0.500000
O O9 0.668188 0.571278 0.503192
O O10 0.974200 0.794945 0.545832
O O11 0.000000 0.814393 0.750000
#
# Coordination Sequence:
#
# PCOD9290165 Si02
#       5
#     8   8   8   8   8
#     4   9  23  40  62  88 124 157 209 250 304 366
#     4  11  21  39  69  85 123 169 200 256 315 358
#     4  12  24  39  62  93 125 157 211 255 303 373
#     4  10  22  41  63  86 131 159 201 252 315 356
#     4   8  18  41  64  86 122 164 203 253 304 363
#
# _framework density 24.375311
#
# number of rings (size 3 to 8) (size 9 to 14) (size 15 to 20)
#    1.200    0.800    2.000    1.200    2.800    0.000 
#    0.000    7.000    0.000    0.000    0.000    0.000 
#    0.000    0.000    0.000    0.000    0.000    0.000 
#
# Total GULP energy -111522.926157 kJ/mol
# GULP energy per Si atom -5576.146308 kJ/mol
# Density = 2.431983 g / cm^3
# Si number density = 24.375311 Si / 1000 Ang^3
#
#
#
# Elastic Constant Matrix: (Units=GPa)
#
#
# Indices 1 2 3 4 5 6 
#
# 1 31.8805 7.7632 -1.8521 0.0000 -3.7069 0.0000
# 2 7.7632 63.9184 -0.1365 0.0000 -12.8778 0.0000
# 3 -1.8521 -0.1365 58.7490 0.0000 -13.6795 0.0000
# 4 0.0000 0.0000 0.0000 13.8514 0.0000 -5.2000
# 5 -3.7069 -12.8778 -13.6795 0.0000 28.6636 0.0000
# 6 0.0000 0.0000 0.0000 -5.2000 0.0000 13.2993
#
#
#
# Elastic Compliance Matrix: (Units=1/GPa)
#
#
# Indices 1 2 3 4 5 6 
#
# 1 0.032689 -0.003226 0.001879 0.000000 0.003675 0.000000
# 2 -0.003226 0.017747 0.001911 0.000000 0.008468 0.000000
# 3 0.001879 0.001911 0.019510 0.000000 0.010413 0.000000
# 4 0.000000 0.000000 0.000000 0.084615 0.000000 0.033084
# 5 0.003675 0.008468 0.010413 0.000000 0.044137 0.000000
# 6 0.000000 0.000000 0.000000 0.033084 0.000000 0.088128
#
#
# Mechanical properties :
#
#
# Convention : Reuss Voigt Hill
#
# Bulk Modulus (GPa) = 14.06979 18.45523 16.26251
# Shear Modulus (GPa) = 16.16094 21.08109 18.62101
#
# Velocity S-wave (km/s) = 2.57768 2.94403 2.76693
# Velocity P-wave (km/s) = 3.82674 4.37540 4.11024
#
# Compressibility (1/GPa) = 0.07107426
#
# Stress axis : x y z
#
# Youngs Moduli (GPa) = 30.59120 56.34775 51.25643
#
# Poissons Ratio (x) = 0.18177 -0.09630
# Poissons Ratio (y) = 0.09868 -0.09797
# Poissons Ratio (z) = -0.05747 -0.10770
#
# Static dielectric constant tensor:
#      x y z
#    x 2.009990 0.000000 0.055750 
#    y 0.000000 1.897000 0.000000 
#    z 0.055750 0.000000 2.019720 
# 
# From -- ./inp_files/170566.got.cif
#   From: 2010.05.17/outbox.cif.g08.bks.cpg/sg15_86_cif.got.tgz:170566.got - 2010.06.03 18:47:42.
