data_PCOD9290888
_publ_section_title
;
Structure prediction by ZEFSAII (Michael W. Deem and Ramdas Pophale) SiO2 
 PCOD9290888
Probable space group: C 2/C
;
_chemical_formula_sum "Si O2"
_cell_formula_units_Z 24
_cell_length_a 13.135536
_cell_length_b 8.867105
_cell_length_c 21.759555
_cell_angle_alpha 90.000000
_cell_angle_beta 158.746963
_cell_angle_gamma 90.000000
_cell_volume 918.697685
_symmetry_space_group_name_H-M "C 2/C"
_symmetry_group_IT_number 15
_symmetry_cell_setting 'monoclinic'
loop_
_space_group_symop_operation_xyz
x,y,z
-x,y,1/2-z
-x,-y,-z
x,-y,1/2+z
1/2+x,1/2+y,z
1/2-x,1/2+y,1/2-z
1/2-x,1/2-y,-z
1/2+x,1/2-y,1/2+z
loop_
_atom_site_type_symbol
_atom_site_label
_atom_site_fract_x
_atom_site_fract_y
_atom_site_fract_z
Si Si1 0.298647 0.700210 0.392282
Si Si2 0.714500 0.513565 0.413721
Si Si3 0.309358 0.529722 0.799211
O O1 0.295839 0.871946 0.415479
O O2 0.567554 0.629967 0.576944
O O3 0.293295 0.638203 0.319814
O O4 0.000000 0.638645 0.250000
O O5 0.500000 0.608026 0.250000
O O6 0.535714 0.463688 0.372180
O O7 0.004350 0.573902 0.602874
#
# Coordination Sequence:
#
# PCOD9290888 Si02
#       3
#     8   8   8
#     4  10  22  41  74  96 134 194 217 273 354 400
#     4  11  24  42  71 100 138 182 226 281 342 401
#     4  11  22  42  71 101 138 178 233 277 336 413
#
# _framework density 26.123936
#
# number of rings (size 3 to 8) (size 9 to 14) (size 15 to 20)
#    0.000    1.333    3.333    2.000    4.667    0.000 
#    0.000    1.667   14.667    0.000    0.000    0.000 
#    0.000    0.000    0.000    0.000    0.000    0.000 
#
# Total GULP energy -67114.019404 kJ/mol
# GULP energy per Si atom -5592.834950 kJ/mol
# Density = 2.606448 g / cm^3
# Si number density = 26.123936 Si / 1000 Ang^3
#
#
#
# Elastic Constant Matrix: (Units=GPa)
#
#
# Indices 1 2 3 4 5 6 
#
# 1 86.9505 37.0278 18.7973 0.0022 -8.6994 -0.0002
# 2 37.0278 71.0406 40.4161 0.0111 8.8273 0.0014
# 3 18.7973 40.4161 259.5391 0.0488 -5.5230 -0.0061
# 4 0.0022 0.0111 0.0488 20.4857 0.0051 7.3366
# 5 -8.6994 8.8273 -5.5230 0.0051 43.9857 -0.0010
# 6 -0.0002 0.0014 -0.0061 7.3366 -0.0010 18.5720
#
#
#
# Elastic Compliance Matrix: (Units=1/GPa)
#
#
# Indices 1 2 3 4 5 6 
#
# 1 0.015774 -0.009053 0.000373 0.000001 0.004984 0.000001
# 2 -0.009053 0.021169 -0.002777 -0.000001 -0.006387 -0.000002
# 3 0.000373 -0.002777 0.004283 -0.000011 0.001169 0.000006
# 4 0.000001 -0.000001 -0.000011 0.056859 -0.000008 -0.022461
# 5 0.004984 -0.006387 0.001169 -0.000008 0.025149 0.000005
# 6 0.000001 -0.000002 0.000006 -0.022461 0.000005 0.062717
#
#
# Mechanical properties :
#
#
# Convention : Reuss Voigt Hill
#
# Bulk Modulus (GPa) = 54.60730 67.77919 61.19324
# Shear Modulus (GPa) = 23.25924 38.02796 30.64360
#
# Velocity S-wave (km/s) = 2.98710 3.81947 3.42864
# Velocity P-wave (km/s) = 5.73110 6.74186 6.25693
#
# Compressibility (1/GPa) = 0.01831257
#
# Stress axis : x y z
#
# Youngs Moduli (GPa) = 63.39519 47.23961 233.47018
#
# Poissons Ratio (x) = 0.42768 -0.08718
# Poissons Ratio (y) = 0.57395 0.64827
# Poissons Ratio (z) = -0.02367 0.13117
#
# Static dielectric constant tensor:
#      x y z
#    x 2.011720 0.000000 -0.001200 
#    y 0.000000 2.277820 0.000000 
#    z -0.001200 0.000000 2.049430 
# 
# From -- ./inp_files/27466.got.cif
#   From: 2010.05.17/outbox.cif.g08.bks.cpg/sg15_14_cif.got.tgz:27466.got - 2010.06.03 18:47:42.
