data_PCOD9290915
_publ_section_title
;
Structure prediction by ZEFSAII (Michael W. Deem and Ramdas Pophale) SiO2 
 PCOD9290915
Probable space group: C 2/C
;
_chemical_formula_sum "Si O2"
_cell_formula_units_Z 44
_cell_length_a 5.307622
_cell_length_b 18.785104
_cell_length_c 20.211677
_cell_angle_alpha 90.000000
_cell_angle_beta 59.592885
_cell_angle_gamma 90.000000
_cell_volume 1738.002031
_symmetry_space_group_name_H-M "C 2/C"
_symmetry_group_IT_number 15
_symmetry_cell_setting 'monoclinic'
loop_
_space_group_symop_operation_xyz
x,y,z
-x,y,1/2-z
-x,-y,-z
x,-y,1/2+z
1/2+x,1/2+y,z
1/2-x,1/2+y,1/2-z
1/2-x,1/2-y,-z
1/2+x,1/2-y,1/2+z
loop_
_atom_site_type_symbol
_atom_site_label
_atom_site_fract_x
_atom_site_fract_y
_atom_site_fract_z
Si Si1 0.953714 0.052516 0.609505
Si Si2 0.000000 0.039596 0.750000
Si Si3 0.822374 0.694320 0.841482
Si Si4 0.870940 0.368674 0.966879
Si Si5 0.481695 0.930118 0.821952
Si Si6 0.148783 0.257359 0.422943
O O1 0.716071 0.113661 0.626031
O O2 0.037778 0.074978 0.673731
O O3 0.218907 0.065704 0.524445
O O4 0.820309 0.973489 0.625980
O O5 0.281738 0.990927 0.721500
O O6 0.496418 0.725029 0.874185
O O7 0.000000 0.692296 0.750000
O O8 0.001129 0.737944 0.872063
O O9 0.634868 0.319029 0.959930
O O10 0.065767 0.392865 0.879440
O O11 0.981291 0.316135 0.009426
O O12 0.500000 0.887252 0.750000
#
# Coordination Sequence:
#
# PCOD9290915 Si02
#       6
#     8   4   8   8   8   8
#     4  10  23  39  69  95 130 175 224 285 335 408
#     4  10  22  42  60 106 134 166 232 276 350 404
#     4  11  23  42  71  98 138 176 230 278 342 396
#     4  10  23  44  68  93 137 176 227 276 344 395
#     4  10  22  43  64  98 133 175 223 283 337 410
#     4  10  25  45  64 104 134 181 228 282 325 412
#
# _framework density 25.316424000000001
#
# number of rings (size 3 to 8) (size 9 to 14) (size 15 to 20)
#    0.000    1.818    0.000    2.727   10.182    8.727 
#   21.273    0.000    0.000    0.000    0.000    0.000 
#    0.000    0.000    0.000    0.000    0.000    0.000 
#
# Total GULP energy -122993.492675 kJ/mol
# GULP energy per Si atom -5590.613303 kJ/mol
# Density = 2.525880 g / cm^3
# Si number density = 25.316424 Si / 1000 Ang^3
#
#
#
# Elastic Constant Matrix: (Units=GPa)
#
#
# Indices 1 2 3 4 5 6 
#
# 1 92.8949 -0.2819 13.7282 0.0000 4.5779 0.0000
# 2 -0.2819 42.7829 18.4042 0.0000 -1.6867 0.0000
# 3 13.7282 18.4042 170.4660 0.0000 6.6272 0.0000
# 4 0.0000 0.0000 0.0000 -13.9965 0.0000 -5.9307
# 5 4.5779 -1.6867 6.6272 0.0000 34.0103 0.0000
# 6 0.0000 0.0000 0.0000 -5.9307 0.0000 -1.0886
#
#
#
# Elastic Compliance Matrix: (Units=1/GPa)
#
#
# Indices 1 2 3 4 5 6 
#
# 1 0.010959 0.000398 -0.000876 0.000000 -0.001285 0.000000
# 2 0.000398 0.024630 -0.002757 0.000000 0.001705 0.000000
# 3 -0.000876 -0.002757 0.006283 0.000000 -0.001243 0.000000
# 4 0.000000 0.000000 0.000000 0.054606 0.000000 -0.297484
# 5 -0.001285 0.001705 -0.001243 0.000000 0.029903 0.000000
# 6 0.000000 0.000000 0.000000 -0.297484 0.000000 0.702065
#
#
# Mechanical properties :
#
#
# Convention : Reuss Voigt Hill
#
# Bulk Modulus (GPa) = 28.24722 41.09388 34.67055
# Shear Modulus (GPa) = 5.90518 22.07126 13.98822
#
# Velocity S-wave (km/s) = 1.52892 2.95586 2.35316
# Velocity P-wave (km/s) = 3.78136 5.28363 4.59432
#
# Compressibility (1/GPa) = 0.03540171
#
# Stress axis : x y z
#
# Youngs Moduli (GPa) = 91.25109 40.60109 159.16403
#
# Poissons Ratio (x) = -0.01617 0.13936
# Poissons Ratio (y) = -0.03634 0.43889
# Poissons Ratio (z) = 0.07990 0.11196
#
# Static dielectric constant tensor:
#      x y z
#    x 2.044870 0.000000 0.014880 
#    y 0.000000 2.042710 0.000000 
#    z 0.014880 0.000000 2.102940 
# 
# From -- ./inp_files/184808.got.cif
#   From: 2010.05.17/outbox.cif.g08.bks.cpg/sg15_93_cif.got.tgz:184808.got - 2010.06.03 18:47:42.
