data_PCOD9290521
_publ_section_title
;
Structure prediction by ZEFSAII (Michael W. Deem and Ramdas Pophale) SiO2 
 PCOD9290521
Probable space group: C 2/C
;
_chemical_formula_sum "Si O2"
_cell_formula_units_Z 32
_cell_length_a 25.749914
_cell_length_b 5.477446
_cell_length_c 21.144109
_cell_angle_alpha 90.000000
_cell_angle_beta 155.614303
_cell_angle_gamma 90.000000
_cell_volume 1231.300484
_symmetry_space_group_name_H-M "C 2/C"
_symmetry_group_IT_number 15
_symmetry_cell_setting 'monoclinic'
loop_
_space_group_symop_operation_xyz
x,y,z
-x,y,1/2-z
-x,-y,-z
x,-y,1/2+z
1/2+x,1/2+y,z
1/2-x,1/2+y,1/2-z
1/2-x,1/2-y,-z
1/2+x,1/2-y,1/2+z
loop_
_atom_site_type_symbol
_atom_site_label
_atom_site_fract_x
_atom_site_fract_y
_atom_site_fract_z
Si Si1 0.226283 0.675804 0.683960
Si Si2 0.073353 0.780392 0.897896
Si Si3 0.472504 0.426090 0.397582
Si Si4 0.354045 0.770291 0.561213
O O1 0.236744 0.410518 0.730202
O O2 0.333386 0.677886 0.748681
O O3 0.080777 0.726976 0.505685
O O4 0.147470 0.529101 0.976124
O O5 0.000000 0.778006 0.750000
O O6 0.989058 0.854569 0.865263
O O7 0.162299 0.014549 0.992871
O O8 0.500000 0.500000 0.500000
O O9 0.500000 0.763371 0.750000
O O10 0.250000 0.750000 0.500000
#
# Coordination Sequence:
#
# PCOD9290521 Si02
#       4
#     8   8   8   8
#     4  10  22  41  66  98 137 182 231 288 348 411
#     4  10  23  42  68  99 134 179 227 281 342 409
#     4  10  23  44  69  99 138 182 232 287 347 412
#     4  10  22  43  67  96 133 173 220 276 338 406
#
# _framework density 25.988783000000002
#
# number of rings (size 3 to 8) (size 9 to 14) (size 15 to 20)
#    0.000    2.000    0.000    1.500    0.000   12.000 
#    0.000   25.000    0.000    0.000    0.000    0.000 
#    0.000    0.000    0.000    0.000    0.000    0.000 
#
# Total GULP energy -89317.311816 kJ/mol
# GULP energy per Si atom -5582.331988 kJ/mol
# Density = 2.592963 g / cm^3
# Si number density = 25.988783 Si / 1000 Ang^3
#
#
#
# Elastic Constant Matrix: (Units=GPa)
#
#
# Indices 1 2 3 4 5 6 
#
# 1 221.2557 91.6323 57.9982 -0.0002 36.8651 0.0001
# 2 91.6323 243.3827 51.5780 0.0048 22.7270 0.0001
# 3 57.9982 51.5780 161.2912 0.0017 32.8523 0.0004
# 4 -0.0002 0.0048 0.0017 40.1433 0.0008 -12.7073
# 5 36.8651 22.7270 32.8523 0.0008 60.7835 0.0002
# 6 0.0001 0.0001 0.0004 -12.7073 0.0002 42.4560
#
#
#
# Elastic Compliance Matrix: (Units=1/GPa)
#
#
# Indices 1 2 3 4 5 6 
#
# 1 0.005934 -0.001785 -0.001085 0.000000 -0.002345 0.000000
# 2 -0.001785 0.004999 -0.000895 -0.000001 -0.000303 0.000000
# 3 -0.001085 -0.000895 0.007500 0.000000 -0.003061 0.000000
# 4 0.000000 -0.000001 0.000000 0.027518 0.000000 0.008236
# 5 -0.002345 -0.000303 -0.003061 0.000000 0.019641 0.000000
# 6 0.000000 0.000000 0.000000 0.008236 0.000000 0.026019
#
#
# Mechanical properties :
#
#
# Convention : Reuss Voigt Hill
#
# Bulk Modulus (GPa) = 91.72785 114.26074 102.99429
# Shear Modulus (GPa) = 48.64941 56.99129 52.82035
#
# Velocity S-wave (km/s) = 4.33128 4.68794 4.51314
# Velocity P-wave (km/s) = 7.77079 8.56523 8.17766
#
# Compressibility (1/GPa) = 0.01090181
#
# Stress axis : x y z
#
# Youngs Moduli (GPa) = 168.51412 200.04817 133.33639
#
# Poissons Ratio (x) = 0.35713 0.14472
# Poissons Ratio (y) = 0.30083 0.11933
# Poissons Ratio (z) = 0.18290 0.17903
#
# Static dielectric constant tensor:
#      x y z
#    x 2.537110 -0.000010 -0.308240 
#    y -0.000010 2.090290 0.000010 
#    z -0.308240 0.000010 2.149400 
# 
# From -- ./inp_files/115460.got.cif
#   From: 2010.05.17/outbox.cif.g08.bks.cpg/sg15_58_cif.got.tgz:115460.got - 2010.06.03 18:47:42.
