data_PCOD9290123
_publ_section_title
;
Structure prediction by ZEFSAII (Michael W. Deem and Ramdas Pophale) SiO2 
 PCOD9290123
Probable space group: C 2/C
;
_chemical_formula_sum "Si O2"
_cell_formula_units_Z 52
_cell_length_a 34.249101
_cell_length_b 8.268159
_cell_length_c 15.304308
_cell_angle_alpha 90.000000
_cell_angle_beta 36.334536
_cell_angle_gamma 90.000000
_cell_volume 2567.788272
_symmetry_space_group_name_H-M "C 2/C"
_symmetry_group_IT_number 15
_symmetry_cell_setting 'monoclinic'
loop_
_space_group_symop_operation_xyz
x,y,z
-x,y,1/2-z
-x,-y,-z
x,-y,1/2+z
1/2+x,1/2+y,z
1/2-x,1/2+y,1/2-z
1/2-x,1/2-y,-z
1/2+x,1/2-y,1/2+z
loop_
_atom_site_type_symbol
_atom_site_label
_atom_site_fract_x
_atom_site_fract_y
_atom_site_fract_z
Si Si1 0.304079 0.438810 0.484814
Si Si2 0.935412 0.131441 0.197840
Si Si3 0.275289 0.064553 0.540421
Si Si4 0.500000 0.876674 0.750000
Si Si5 0.334150 0.561087 0.614746
Si Si6 0.889991 0.632105 0.922823
Si Si7 0.545176 0.370126 0.032803
O O1 0.372445 0.516755 0.329111
O O2 0.306001 0.244406 0.482966
O O3 0.248414 0.481890 0.514013
O O4 0.294079 0.507747 0.600315
O O5 0.931228 0.273654 0.274858
O O6 0.934344 0.189118 0.100005
O O7 0.000589 0.028009 0.097758
O O8 0.211800 0.071420 0.718094
O O9 0.326089 0.940417 0.490713
O O10 0.497501 0.759354 0.837849
O O11 0.435743 0.988319 0.873376
O O12 0.367306 0.733959 0.533644
O O13 0.391211 0.428520 0.527762
#
# Coordination Sequence:
#
# PCOD9290123 Si02
#       7
#     8   8   8   4   8   8   8
#     4  10  22  41  62  89 128 164 208 248 308 365
#     4  10  22  42  64  91 120 169 203 253 308 371
#     4  11  22  41  62  95 126 165 201 258 305 368
#     4  12  24  42  62  96 120 162 204 264 308 360
#     4  11  22  41  65  94 121 171 204 253 305 373
#     4  11  24  40  63  94 127 156 210 256 307 361
#     4  11  22  41  67  87 125 162 209 249 313 369
#
# _framework density 20.250892
#
# number of rings (size 3 to 8) (size 9 to 14) (size 15 to 20)
#    0.000    1.231    1.538    5.538    0.000    3.077 
#   11.077    0.000    0.000    0.000    0.000    0.000 
#    0.000    0.000    0.000    0.000    0.000    0.000 
#
# Total GULP energy -145368.256211 kJ/mol
# GULP energy per Si atom -5591.086777 kJ/mol
# Density = 2.020480 g / cm^3
# Si number density = 20.250892 Si / 1000 Ang^3
#
#
#
# Elastic Constant Matrix: (Units=GPa)
#
#
# Indices 1 2 3 4 5 6 
#
# 1 83.5259 16.8633 4.4888 0.0000 10.0237 0.0000
# 2 16.8633 37.9509 2.6094 0.0001 11.1144 -0.0003
# 3 4.4888 2.6094 26.0789 0.0000 15.1278 0.0000
# 4 0.0000 0.0001 0.0000 3.0064 0.0001 -24.9065
# 5 10.0237 11.1144 15.1278 0.0001 25.3225 0.0001
# 6 0.0000 -0.0003 0.0000 -24.9065 0.0001 16.9805
#
#
#
# Elastic Compliance Matrix: (Units=1/GPa)
#
#
# Indices 1 2 3 4 5 6 
#
# 1 0.013358 -0.005036 -0.000016 0.000000 -0.003068 0.000000
# 2 -0.005036 0.033033 0.007369 0.000000 -0.016908 0.000000
# 3 -0.000016 0.007369 0.060422 0.000000 -0.039325 0.000000
# 4 0.000000 0.000000 0.000000 -0.029828 0.000000 -0.043751
# 5 -0.003068 -0.016908 -0.039325 0.000000 0.071619 0.000000
# 6 0.000000 0.000000 0.000000 -0.043751 0.000000 -0.005281
#
#
# Mechanical properties :
#
#
# Convention : Reuss Voigt Hill
#
# Bulk Modulus (GPa) = 8.97280 21.71985 15.34633
# Shear Modulus (GPa) = 28.43544 17.30150 22.86847
#
# Velocity S-wave (km/s) = 3.75127 2.92611 3.36409
# Velocity P-wave (km/s) = 4.81697 4.70795 4.76277
#
# Compressibility (1/GPa) = 0.11144791
#
# Stress axis : x y z
#
# Youngs Moduli (GPa) = 74.86104 30.27322 16.55024
#
# Poissons Ratio (x) = 0.15246 0.00026
# Poissons Ratio (y) = 0.37700 -0.12197
# Poissons Ratio (z) = 0.00118 -0.22310
#
# Static dielectric constant tensor:
#      x y z
#    x 1.725550 0.000000 0.001430 
#    y 0.000000 1.698350 0.000000 
#    z 0.001430 0.000000 1.689450 
# 
# From -- ./inp_files/181041.got.cif
#   From: 2010.05.17/outbox.cif.g08.bks.cpg/sg15_91_cif.got.tgz:181041.got - 2010.06.03 18:47:42.
