data_PCOD9290561
_publ_section_title
;
Structure prediction by ZEFSAII (Michael W. Deem and Ramdas Pophale) SiO2 
 PCOD9290561
Probable space group: C 2/C
;
_chemical_formula_sum "Si O2"
_cell_formula_units_Z 56
_cell_length_a 10.403490
_cell_length_b 14.284240
_cell_length_c 17.767453
_cell_angle_alpha 90.000000
_cell_angle_beta 64.023120
_cell_angle_gamma 90.000000
_cell_volume 2373.597000
_symmetry_space_group_name_H-M "C 2/C"
_symmetry_group_IT_number 15
_symmetry_cell_setting 'monoclinic'
loop_
_space_group_symop_operation_xyz
x,y,z
-x,y,1/2-z
-x,-y,-z
x,-y,1/2+z
1/2+x,1/2+y,z
1/2-x,1/2+y,1/2-z
1/2-x,1/2-y,-z
1/2+x,1/2-y,1/2+z
loop_
_atom_site_type_symbol
_atom_site_label
_atom_site_fract_x
_atom_site_fract_y
_atom_site_fract_z
Si Si1 0.118693 0.471285 0.583685
Si Si2 0.745020 0.743635 0.702122
Si Si3 0.256487 0.601408 0.453906
Si Si4 0.700757 0.926788 0.806604
Si Si5 0.117746 0.744811 0.090091
Si Si6 0.472894 0.734103 0.476010
Si Si7 0.174055 0.583391 0.707792
O O1 0.202527 0.496699 0.486820
O O2 0.128682 0.365174 0.607836
O O3 0.195345 0.546601 0.618121
O O4 0.946859 0.474394 0.624451
O O5 0.682560 0.836600 0.757835
O O6 0.637268 0.705284 0.664878
O O7 0.784844 0.678726 0.762559
O O8 0.888170 0.757219 0.613736
O O9 0.287747 0.603298 0.357098
O O10 0.386529 0.646400 0.465771
O O11 0.122285 0.671297 0.505365
O O12 0.754772 0.007048 0.738129
O O13 0.250000 0.750000 0.000000
O O14 0.997249 0.772955 0.060475
O O15 0.000000 0.576817 0.750000
#
# Coordination Sequence:
#
# PCOD9290561 Si02
#       7
#     8   8   8   8   8   8   8
#     4  11  22  41  64 102 131 174 234 284 337 418
#     4  11  24  42  68 100 142 184 226 290 354 414
#     4  11  24  39  70 101 137 176 234 287 341 412
#     4  11  23  39  69 103 136 174 228 290 343 413
#     4  10  22  41  67  92 135 184 229 273 350 419
#     4  10  23  42  65 101 136 184 229 281 350 418
#     4  10  23  39  66  98 134 174 226 284 339 405
#
# _framework density 23.592884999999999
#
# number of rings (size 3 to 8) (size 9 to 14) (size 15 to 20)
#    0.000    1.429    2.857    2.143   10.000    0.000 
#    0.000    2.857    3.143    1.714    0.000    0.000 
#    0.000    0.000    0.000    0.000    0.000    0.000 
#
# Total GULP energy -155927.819024 kJ/mol
# GULP energy per Si atom -5568.850679 kJ/mol
# Density = 2.353919 g / cm^3
# Si number density = 23.592885 Si / 1000 Ang^3
#
#
#
# Elastic Constant Matrix: (Units=GPa)
#
#
# Indices 1 2 3 4 5 6 
#
# 1 88.8542 30.0305 50.6673 0.0000 34.9761 0.0000
# 2 30.0305 45.2830 27.4845 0.0000 19.1303 0.0000
# 3 50.6673 27.4845 107.0494 0.0000 26.5284 0.0000
# 4 0.0000 0.0000 0.0000 41.8805 0.0000 4.5247
# 5 34.9761 19.1303 26.5284 0.0000 41.5016 0.0000
# 6 0.0000 0.0000 0.0000 4.5247 0.0000 25.6602
#
#
#
# Elastic Compliance Matrix: (Units=1/GPa)
#
#
# Indices 1 2 3 4 5 6 
#
# 1 0.020820 -0.005601 -0.005594 0.000000 -0.011389 0.000000
# 2 -0.005601 0.031021 -0.003493 0.000000 -0.007346 0.000000
# 3 -0.005594 -0.003493 0.013449 0.000000 -0.002272 0.000000
# 4 0.000000 0.000000 0.000000 0.024341 0.000000 -0.004292
# 5 -0.011389 -0.007346 -0.002272 0.000000 0.038533 0.000000
# 6 0.000000 0.000000 0.000000 -0.004292 0.000000 0.039728
#
#
# Mechanical properties :
#
#
# Convention : Reuss Voigt Hill
#
# Bulk Modulus (GPa) = 27.84358 50.83902 39.34130
# Shear Modulus (GPa) = 23.89600 30.67542 27.28571
#
# Velocity S-wave (km/s) = 3.18598 3.60974 3.40446
# Velocity P-wave (km/s) = 5.03600 6.24250 5.67142
#
# Compressibility (1/GPa) = 0.03591492
#
# Stress axis : x y z
#
# Youngs Moduli (GPa) = 48.02986 32.23587 74.35416
#
# Poissons Ratio (x) = 0.18054 0.41594
# Poissons Ratio (y) = 0.26900 0.25973
# Poissons Ratio (z) = 0.26868 0.11261
#
# Static dielectric constant tensor:
#      x y z
#    x 2.030820 0.000000 -0.023480 
#    y 0.000000 1.912510 0.000000 
#    z -0.023480 0.000000 1.978620 
# 
# From -- ./inp_files/197776.got.cif
#   From: 2010.05.17/outbox.cif.g08.bks.cpg/sg15_99_cif.got.tgz:197776.got - 2010.06.03 18:47:42.
