data_PCOD9290305
_publ_section_title
;
Structure prediction by ZEFSAII (Michael W. Deem and Ramdas Pophale) SiO2 
 PCOD9290305
Probable space group: C 2/C
;
_chemical_formula_sum "Si O2"
_cell_formula_units_Z 52
_cell_length_a 9.385794
_cell_length_b 31.046240
_cell_length_c 13.569479
_cell_angle_alpha 90.000000
_cell_angle_beta 142.976389
_cell_angle_gamma 90.000000
_cell_volume 2380.913534
_symmetry_space_group_name_H-M "C 2/C"
_symmetry_group_IT_number 15
_symmetry_cell_setting 'monoclinic'
loop_
_space_group_symop_operation_xyz
x,y,z
-x,y,1/2-z
-x,-y,-z
x,-y,1/2+z
1/2+x,1/2+y,z
1/2-x,1/2+y,1/2-z
1/2-x,1/2-y,-z
1/2+x,1/2-y,1/2+z
loop_
_atom_site_type_symbol
_atom_site_label
_atom_site_fract_x
_atom_site_fract_y
_atom_site_fract_z
Si Si1 0.487384 0.911801 0.573746
Si Si2 0.324709 0.999604 0.806633
Si Si3 0.500000 0.069718 0.750000
Si Si4 0.451510 0.697389 0.417922
Si Si5 0.500000 0.543430 0.750000
Si Si6 0.790832 0.364578 0.984790
Si Si7 0.000000 0.347948 0.750000
Si Si8 0.870338 0.709201 0.783312
O O1 0.626713 0.951459 0.702350
O O2 0.671120 0.892493 0.593693
O O3 0.410596 0.877948 0.612850
O O4 0.237138 0.928615 0.391331
O O5 0.390518 0.037390 0.768943
O O6 0.059133 0.010757 0.693571
O O7 0.500000 0.000000 0.000000
O O8 0.671577 0.101896 0.904713
O O9 0.577142 0.666792 0.404137
O O10 0.200958 0.679499 0.309680
O O11 0.607027 0.699035 0.603373
O O12 0.419998 0.746026 0.363387
O O13 0.009315 0.331067 0.097556
O O14 0.000000 0.712848 0.750000
#
# Coordination Sequence:
#
# PCOD9290305 Si02
#       8
#     8   8   4   8   4   8   4   8
#     4  11  26  48  64 106 142 183 235 288 350 412
#     4  10  22  41  64  99 138 178 229 280 347 401
#     4  12  19  40  72 104 131 181 234 282 337 416
#     4  11  26  45  70 103 141 182 229 289 354 415
#     4  10  22  42  75  90 139 185 226 289 344 408
#     4  11  22  42  79 101 133 182 246 283 338 422
#     4  12  31  44  65 106 146 178 232 289 357 412
#     4  10  22  43  72 102 135 179 234 286 347 411
#
# _framework density 21.840357000000001
#
# number of rings (size 3 to 8) (size 9 to 14) (size 15 to 20)
#    0.000    1.231    5.385    2.308    8.615    1.846 
#    0.000    3.846    0.000    0.000    0.000    0.000 
#    0.000    0.000    0.000    0.000    0.000    0.000 
#
# Total GULP energy -145051.680166 kJ/mol
# GULP energy per Si atom -5578.910776 kJ/mol
# Density = 2.179065 g / cm^3
# Si number density = 21.840357 Si / 1000 Ang^3
#
#
#
# Elastic Constant Matrix: (Units=GPa)
#
#
# Indices 1 2 3 4 5 6 
#
# 1 65.2435 32.6704 8.9731 0.0000 -1.9585 0.0000
# 2 32.6704 145.5649 26.3741 0.0000 0.4572 0.0000
# 3 8.9731 26.3741 41.1496 0.0000 10.5203 0.0000
# 4 0.0000 0.0000 0.0000 32.9271 0.0000 -17.5365
# 5 -1.9585 0.4572 10.5203 0.0000 23.1457 0.0000
# 6 0.0000 0.0000 0.0000 -17.5365 0.0000 26.9951
#
#
#
# Elastic Compliance Matrix: (Units=1/GPa)
#
#
# Indices 1 2 3 4 5 6 
#
# 1 0.017474 -0.003532 -0.002198 0.000000 0.002548 0.000000
# 2 -0.003532 0.008605 -0.005233 0.000000 0.001910 0.000000
# 3 -0.002198 -0.005233 0.031858 0.000000 -0.014563 0.000000
# 4 0.000000 0.000000 0.000000 0.046436 0.000000 0.030166
# 5 0.002548 0.001910 -0.014563 0.000000 0.050002 0.000000
# 6 0.000000 0.000000 0.000000 0.030166 0.000000 0.056640
#
#
# Mechanical properties :
#
#
# Convention : Reuss Voigt Hill
#
# Bulk Modulus (GPa) = 27.76909 43.11034 35.43971
# Shear Modulus (GPa) = 20.41281 28.87627 24.64454
#
# Velocity S-wave (km/s) = 3.06050 3.64009 3.36280
# Velocity P-wave (km/s) = 5.02305 6.11953 5.59820
#
# Compressibility (1/GPa) = 0.03601126
#
# Stress axis : x y z
#
# Youngs Moduli (GPa) = 57.22636 116.21710 31.38912
#
# Poissons Ratio (x) = 0.41044 0.06900
# Poissons Ratio (y) = 0.20210 0.16426
# Poissons Ratio (z) = 0.12580 0.60817
#
# Static dielectric constant tensor:
#      x y z
#    x 1.834360 0.000000 -0.048370 
#    y 0.000000 1.851630 0.000000 
#    z -0.048370 0.000000 1.955300 
# 
# From -- ./inp_files/139916.got.cif
#   From: 2010.05.17/outbox.cif.g08.bks.cpg/sg15_70_cif.got.tgz:139916.got - 2010.06.03 18:47:42.
