data_PCOD9290208
_publ_section_title
;
Structure prediction by ZEFSAII (Michael W. Deem and Ramdas Pophale) SiO2 
 PCOD9290208
Probable space group: C 2/C
;
_chemical_formula_sum "Si O2"
_cell_formula_units_Z 60
_cell_length_a 28.700568
_cell_length_b 8.842098
_cell_length_c 10.255670
_cell_angle_alpha 90.000000
_cell_angle_beta 83.190596
_cell_angle_gamma 90.000000
_cell_volume 2584.255868
_symmetry_space_group_name_H-M "C 2/C"
_symmetry_group_IT_number 15
_symmetry_cell_setting 'monoclinic'
loop_
_space_group_symop_operation_xyz
x,y,z
-x,y,1/2-z
-x,-y,-z
x,-y,1/2+z
1/2+x,1/2+y,z
1/2-x,1/2+y,1/2-z
1/2-x,1/2-y,-z
1/2+x,1/2-y,1/2+z
loop_
_atom_site_type_symbol
_atom_site_label
_atom_site_fract_x
_atom_site_fract_y
_atom_site_fract_z
Si Si1 0.640463 0.328808 0.844796
Si Si2 0.433789 0.212999 0.042389
Si Si3 0.359261 0.715027 0.774328
Si Si4 0.717727 0.585450 0.855279
Si Si5 0.000000 0.221899 0.750000
Si Si6 0.189241 0.293404 0.095700
Si Si7 0.627931 0.960940 0.524340
Si Si8 0.924150 0.973483 0.433524
O O1 0.687575 0.429622 0.857951
O O2 0.646999 0.274148 0.694917
O O3 0.637250 0.171223 0.920856
O O4 0.594530 0.414817 0.918037
O O5 0.387490 0.274696 0.131459
O O6 0.470577 0.192286 0.148132
O O7 0.419516 0.055576 0.981206
O O8 0.442731 0.355374 0.944109
O O9 0.306392 0.681311 0.752605
O O10 0.380187 0.580059 0.856828
O O11 0.369435 0.872634 0.840655
O O12 0.773082 0.617258 0.827582
O O13 0.708563 0.657511 0.001344
O O14 0.034997 0.121338 0.650302
O O15 0.169584 0.419879 0.006683
#
# Coordination Sequence:
#
# PCOD9290208 Si02
#       8
#     8   8   8   8   4   8   8   8
#     4  11  25  43  70  99 140 197 236 289 368 417
#     4  11  21  44  66 100 142 178 231 295 360 426
#     4  10  22  41  63  95 134 181 234 289 347 423
#     4  11  25  43  64  98 139 188 250 293 348 416
#     4  10  24  42  78 110 146 180 240 304 340 452
#     4  11  26  41  64 100 141 188 241 301 347 415
#     4  11  24  41  66 100 137 185 232 292 362 420
#     4  10  22  43  72 104 137 188 241 283 362 422
#
# _framework density 23.217516
#
# number of rings (size 3 to 8) (size 9 to 14) (size 15 to 20)
#    0.000    1.333    2.667    1.200    7.467    1.600 
#    0.000    6.000    0.000   10.400    0.000    0.000 
#    0.000    0.000    0.000    0.000    0.000    0.000 
#
# Total GULP energy -167280.363774 kJ/mol
# GULP energy per Si atom -5576.012126 kJ/mol
# Density = 2.316467 g / cm^3
# Si number density = 23.217516 Si / 1000 Ang^3
#
#
#
# Elastic Constant Matrix: (Units=GPa)
#
#
# Indices 1 2 3 4 5 6 
#
# 1 109.6085 36.8463 6.6695 0.0000 32.8003 0.0000
# 2 36.8463 131.9310 20.3510 0.0000 15.1369 0.0000
# 3 6.6695 20.3510 50.4087 0.0000 -5.3548 0.0000
# 4 0.0000 0.0000 0.0000 30.9252 0.0000 13.5373
# 5 32.8003 15.1369 -5.3548 0.0000 46.1209 0.0000
# 6 0.0000 0.0000 0.0000 13.5373 0.0000 20.4811
#
#
#
# Elastic Compliance Matrix: (Units=1/GPa)
#
#
# Indices 1 2 3 4 5 6 
#
# 1 0.012476 -0.002282 -0.001612 0.000000 -0.008311 0.000000
# 2 -0.002282 0.008954 -0.003496 0.000000 -0.001722 0.000000
# 3 -0.001612 -0.003496 0.021977 0.000000 0.004845 0.000000
# 4 0.000000 0.000000 0.000000 0.045501 0.000000 -0.030075
# 5 -0.008311 -0.001722 0.004845 0.000000 0.028720 0.000000
# 6 0.000000 0.000000 0.000000 -0.030075 0.000000 0.068704
#
#
# Mechanical properties :
#
#
# Convention : Reuss Voigt Hill
#
# Bulk Modulus (GPa) = 34.93251 46.63132 40.78191
# Shear Modulus (GPa) = 23.73564 34.71086 29.22325
#
# Velocity S-wave (km/s) = 3.20084 3.87076 3.55163
# Velocity P-wave (km/s) = 5.36087 6.33286 5.86703
#
# Compressibility (1/GPa) = 0.02862663
#
# Stress axis : x y z
#
# Youngs Moduli (GPa) = 80.15683 111.68412 45.50173
#
# Poissons Ratio (x) = 0.25487 0.07335
# Poissons Ratio (y) = 0.18292 0.15906
# Poissons Ratio (z) = 0.12922 0.39042
#
# Static dielectric constant tensor:
#      x y z
#    x 1.921580 0.000000 0.056270 
#    y 0.000000 1.939740 0.000000 
#    z 0.056270 0.000000 1.948420 
# 
# From -- ./inp_files/125563.got.cif
#   From: 2010.05.17/outbox.cif.g08.bks.cpg/sg15_63_cif.got.tgz:125563.got - 2010.06.03 18:47:42.
