data_PCOD9290801
_publ_section_title
;
Structure prediction by ZEFSAII (Michael W. Deem and Ramdas Pophale) SiO2 
 PCOD9290801
Probable space group: C 2/C
;
_chemical_formula_sum "Si O2"
_cell_formula_units_Z 52
_cell_length_a 11.198686
_cell_length_b 16.468852
_cell_length_c 14.247108
_cell_angle_alpha 90.000000
_cell_angle_beta 72.027396
_cell_angle_gamma 90.000000
_cell_volume 2499.371732
_symmetry_space_group_name_H-M "C 2/C"
_symmetry_group_IT_number 15
_symmetry_cell_setting 'monoclinic'
loop_
_space_group_symop_operation_xyz
x,y,z
-x,y,1/2-z
-x,-y,-z
x,-y,1/2+z
1/2+x,1/2+y,z
1/2-x,1/2+y,1/2-z
1/2-x,1/2-y,-z
1/2+x,1/2-y,1/2+z
loop_
_atom_site_type_symbol
_atom_site_label
_atom_site_fract_x
_atom_site_fract_y
_atom_site_fract_z
Si Si1 0.050516 0.452154 0.633513
Si Si2 0.315452 0.337275 0.900710
Si Si3 0.859232 0.733792 0.398117
Si Si4 0.693893 0.996553 0.925726
Si Si5 0.500000 0.218734 0.750000
Si Si6 0.381018 0.298575 0.088812
Si Si7 0.274567 0.846866 0.205161
O O1 0.098392 0.359111 0.624977
O O2 0.159063 0.497246 0.545214
O O3 0.000000 0.476085 0.750000
O O4 0.929973 0.464675 0.597128
O O5 0.297273 0.429549 0.876984
O O6 0.402633 0.278467 0.821150
O O7 0.183114 0.289152 0.920863
O O8 0.374180 0.339473 0.989609
O O9 0.750000 0.750000 0.500000
O O10 0.796312 0.768460 0.319492
O O11 0.982890 0.782603 0.400635
O O12 0.731215 0.081961 0.869676
O O13 0.579386 0.167523 0.805686
O O14 0.297637 0.353997 0.178807
#
# Coordination Sequence:
#
# PCOD9290801 Si02
#       7
#     8   8   8   8   4   8   8
#     4  11  25  41  69  94 138 175 232 271 339 389
#     4  10  22  43  67  97 136 170 229 271 336 395
#     4  12  22  43  67  99 130 180 225 272 324 420
#     4  11  25  43  65 105 133 174 222 296 323 401
#     4  10  24  44  68  96 130 192 212 274 332 422
#     4  10  22  41  70  93 130 186 223 267 331 416
#     4  11  24  42  70  96 137 167 232 272 338 395
#
# _framework density 20.805226999999999
#
# number of rings (size 3 to 8) (size 9 to 14) (size 15 to 20)
#    0.000    1.231    3.077    2.308    5.385    2.462 
#    2.769    0.769    0.000    0.000    0.000    0.000 
#    0.000    0.000    0.000    0.000    0.000    0.000 
#
# Total GULP energy -145022.415861 kJ/mol
# GULP energy per Si atom -5577.785225 kJ/mol
# Density = 2.075787 g / cm^3
# Si number density = 20.805227 Si / 1000 Ang^3
#
#
#
# Elastic Constant Matrix: (Units=GPa)
#
#
# Indices 1 2 3 4 5 6 
#
# 1 92.4179 16.6982 -1.5092 0.0000 6.4462 0.0000
# 2 16.6982 69.9814 11.1852 0.0000 1.6139 0.0000
# 3 -1.5092 11.1852 78.9025 0.0000 9.8379 0.0000
# 4 0.0000 0.0000 0.0000********** 0.000011984.9154
# 5 6.4462 1.6139 9.8379 0.0000 28.1046 0.0000
# 6 0.0000 0.0000 0.000011984.9154 0.0000-2133.3498
#
#
#
# Elastic Compliance Matrix: (Units=1/GPa)
#
#
# Indices 1 2 3 4 5 6 
#
# 1 0.011548 -0.002846 0.000977 0.000000 -0.002827 0.000000
# 2 -0.002846 0.015323 -0.002299 0.000000 0.000578 0.000000
# 3 0.000977 -0.002299 0.013625 0.000000 -0.004861 0.000000
# 4 0.000000 0.000000 0.000000 0.001163 0.000000 0.006535
# 5 -0.002827 0.000578 -0.004861 0.000000 0.037898 0.000000
# 6 0.000000 0.000000 0.000000 0.006535 0.000000 0.036247
#
#
# Mechanical properties :
#
#
# Convention : Reuss Voigt Hill
#
# Bulk Modulus (GPa) = 31.09556 32.67226 31.88391
# Shear Modulus (GPa) = 37.07566 -13700.77807 -6831.85120
#
# Velocity S-wave (km/s) = 4.22600 -81.23764 -57.36591
# Velocity P-wave (km/s) = 6.22821 93.72122 66.12441
#
# Compressibility (1/GPa) = 0.03215893
#
# Stress axis : x y z
#
# Youngs Moduli (GPa) = 86.59616 65.26246 73.39707
#
# Poissons Ratio (x) = 0.18576 -0.07170
# Poissons Ratio (y) = 0.24648 0.16871
# Poissons Ratio (z) = -0.08459 0.15001
#
# Static dielectric constant tensor:
#      x y z
#    x 1.803210 0.000000 0.004670 
#    y 0.000000 1.591260 0.000000 
#    z 0.004670 0.000000 1.861590 
# 
# From -- ./inp_files/144168.got.cif
#   From: 2010.05.17/outbox.cif.g08.bks.cpg/sg15_73_cif.got.tgz:144168.got - 2010.06.03 18:47:42.
