data_PCOD9290194
_publ_section_title
;
Structure prediction by ZEFSAII (Michael W. Deem and Ramdas Pophale) SiO2 
 PCOD9290194
Probable space group: C 2/C
;
_chemical_formula_sum "Si O2"
_cell_formula_units_Z 48
_cell_length_a 14.501621
_cell_length_b 27.121874
_cell_length_c 11.095001
_cell_angle_alpha 90.000000
_cell_angle_beta 151.756671
_cell_angle_gamma 90.000000
_cell_volume 2065.018854
_symmetry_space_group_name_H-M "C 2/C"
_symmetry_group_IT_number 15
_symmetry_cell_setting 'monoclinic'
loop_
_space_group_symop_operation_xyz
x,y,z
-x,y,1/2-z
-x,-y,-z
x,-y,1/2+z
1/2+x,1/2+y,z
1/2-x,1/2+y,1/2-z
1/2-x,1/2-y,-z
1/2+x,1/2-y,1/2+z
loop_
_atom_site_type_symbol
_atom_site_label
_atom_site_fract_x
_atom_site_fract_y
_atom_site_fract_z
Si Si1 0.174513 0.283460 0.303786
Si Si2 0.240712 0.964487 0.524730
Si Si3 0.882255 0.138890 0.898245
Si Si4 0.768353 0.147213 0.506325
Si Si5 0.790028 0.975572 0.279946
Si Si6 0.737508 0.808561 0.733144
O O1 0.250000 0.250000 0.500000
O O2 0.323662 0.325980 0.439816
O O3 0.161509 0.243174 0.181496
O O4 0.035962 0.308150 0.428992
O O5 0.302985 0.907561 0.609567
O O6 0.302503 0.979685 0.460363
O O7 0.000000 0.964358 0.250000
O O8 0.298754 0.997242 0.706097
O O9 0.757409 0.155112 0.636173
O O10 0.830005 0.081890 0.854842
O O11 0.109471 0.149209 0.130346
O O12 0.689410 0.185028 0.318234
O O13 0.000000 0.147454 0.750000
O O14 0.000000 0.000000 0.500000
#
# Coordination Sequence:
#
# PCOD9290194 Si02
#       6
#     8   8   8   8   8   8
#     4  12  26  43  60  87 124 171 218 268 325 392
#     4   8  14  28  52  85 127 158 205 261 316 379
#     4  10  22  41  63  93 130 168 212 268 331 385
#     4   8  17  36  60  91 124 159 208 266 323 378
#     4   9  16  32  57  91 125 166 210 266 319 392
#     4  11  22  41  64  85 120 168 212 267 321 382
#
# _framework density 23.244339
#
# number of rings (size 3 to 8) (size 9 to 14) (size 15 to 20)
#    0.000    2.333    1.667    3.500    0.000    1.333 
#   15.000    0.000    0.000    4.000    0.000    9.333 
#    0.000    0.000    0.000    0.000    0.000    0.000 
#
# Total GULP energy -134034.014954 kJ/mol
# GULP energy per Si atom -5584.750623 kJ/mol
# Density = 2.319143 g / cm^3
# Si number density = 23.244339 Si / 1000 Ang^3
#
#
#
# Elastic Constant Matrix: (Units=GPa)
#
#
# Indices 1 2 3 4 5 6 
#
# 1 99.1739 45.8098 56.5287 0.0000 -9.4982 0.0000
# 2 45.8098 94.5225 72.4791 0.0000 -37.5840 0.0000
# 3 56.5287 72.4791 138.0992 0.0000 -21.3269 0.0000
# 4 0.0000 0.0000 0.0000 28.3496 0.0000 -24.3333
# 5 -9.4982 -37.5840 -21.3269 0.0000 40.1623 0.0000
# 6 0.0000 0.0000 0.0000 -24.3333 0.0000 28.5051
#
#
#
# Elastic Compliance Matrix: (Units=1/GPa)
#
#
# Indices 1 2 3 4 5 6 
#
# 1 0.014378 -0.005963 -0.003368 0.000000 -0.003969 0.000000
# 2 -0.005963 0.029075 -0.009624 0.000000 0.020688 0.000000
# 3 -0.003368 -0.009624 0.013243 0.000000 -0.002770 0.000000
# 4 0.000000 0.000000 0.000000 0.131970 0.000000 0.112656
# 5 -0.003969 0.020688 -0.002770 0.000000 0.041849 0.000000
# 6 0.000000 0.000000 0.000000 0.112656 0.000000 0.131250
#
#
# Mechanical properties :
#
#
# Convention : Reuss Voigt Hill
#
# Bulk Modulus (GPa) = 53.23490 75.71455 64.47473
# Shear Modulus (GPa) = 12.31719 29.86861 21.09290
#
# Velocity S-wave (km/s) = 2.30445 3.58856 3.01565
# Velocity P-wave (km/s) = 5.48021 7.05793 6.31851
#
# Compressibility (1/GPa) = 0.01878467
#
# Stress axis : x y z
#
# Youngs Moduli (GPa) = 69.55199 34.39431 75.51182
#
# Poissons Ratio (x) = 0.20510 0.25436
# Poissons Ratio (y) = 0.41476 0.72669
# Poissons Ratio (z) = 0.23429 0.33099
#
# Static dielectric constant tensor:
#      x y z
#    x 2.002900 0.000000 -0.005580 
#    y 0.000000 1.806680 0.000000 
#    z -0.005580 0.000000 1.951600 
# 
# From -- ./inp_files/113989.got.cif
#   From: 2010.05.17/outbox.cif.g08.bks.cpg/sg15_57_cif.got.tgz:113989.got - 2010.06.03 18:47:42.
