data_PCOD9290053
_publ_section_title
;
Structure prediction by ZEFSAII (Michael W. Deem and Ramdas Pophale) SiO2 
 PCOD9290053
Probable space group: C 2/C
;
_chemical_formula_sum "Si O2"
_cell_formula_units_Z 48
_cell_length_a 20.923489
_cell_length_b 14.768896
_cell_length_c 7.423441
_cell_angle_alpha 90.000000
_cell_angle_beta 98.930073
_cell_angle_gamma 90.000000
_cell_volume 2266.161952
_symmetry_space_group_name_H-M "C 2/C"
_symmetry_group_IT_number 15
_symmetry_cell_setting 'monoclinic'
loop_
_space_group_symop_operation_xyz
x,y,z
-x,y,1/2-z
-x,-y,-z
x,-y,1/2+z
1/2+x,1/2+y,z
1/2-x,1/2+y,1/2-z
1/2-x,1/2-y,-z
1/2+x,1/2-y,1/2+z
loop_
_atom_site_type_symbol
_atom_site_label
_atom_site_fract_x
_atom_site_fract_y
_atom_site_fract_z
Si Si1 0.292163 0.931237 0.911345
Si Si2 0.157174 0.872649 0.912558
Si Si3 0.103339 0.210996 0.020740
Si Si4 0.667930 0.871984 0.189517
Si Si5 0.296654 0.257120 0.248640
Si Si6 0.983308 0.897440 0.535848
O O1 0.215908 0.943528 0.926553
O O2 0.292944 0.852122 0.760150
O O3 0.321791 0.028021 0.882201
O O4 0.329967 0.889910 0.097083
O O5 0.134934 0.845556 0.701665
O O6 0.094008 0.895212 0.000794
O O7 0.187964 0.791924 0.042719
O O8 0.106892 0.314571 0.093930
O O9 0.032361 0.169615 0.954924
O O10 0.147870 0.210560 0.863539
O O11 0.729688 0.807392 0.170322
O O12 0.000000 0.876819 0.750000
O O13 0.000000 0.000000 0.500000
#
# Coordination Sequence:
#
# PCOD9290053 Si02
#       6
#     8   8   8   8   8   8
#     4  11  22  37  63  94 127 164 206 260 320 376
#     4  10  22  41  58  90 129 163 208 259 307 370
#     4  11  22  39  60  85 126 169 210 253 312 370
#     4  11  22  37  59  93 128 162 207 260 319 371
#     4  11  22  38  63  88 126 164 204 264 317 374
#     4  10  25  40  62  91 125 171 209 253 302 373
#
# _framework density 21.181187999999999
#
# number of rings (size 3 to 8) (size 9 to 14) (size 15 to 20)
#    0.000    1.333    3.333    2.500    7.000    2.667 
#    0.000    0.000    0.000    1.000    4.333    0.000 
#    0.000    0.000    0.000    0.000    0.000    0.000 
#
# Total GULP energy -133928.387150 kJ/mol
# GULP energy per Si atom -5580.349465 kJ/mol
# Density = 2.113298 g / cm^3
# Si number density = 21.181188 Si / 1000 Ang^3
#
#
#
# Elastic Constant Matrix: (Units=GPa)
#
#
# Indices 1 2 3 4 5 6 
#
# 1 108.1410 46.8577 12.5660 0.0000 -19.0614 0.0000
# 2 46.8577 135.4392 14.7436 0.0000 -12.2374 0.0000
# 3 12.5660 14.7436 77.6871 0.0000 -6.8128 0.0000
# 4 0.0000 0.0000 0.0000 28.2897 0.0000 -3.8865
# 5 -19.0614 -12.2374 -6.8128 0.0000 26.4707 0.0000
# 6 0.0000 0.0000 0.0000 -3.8865 0.0000 32.6338
#
#
#
# Elastic Compliance Matrix: (Units=1/GPa)
#
#
# Indices 1 2 3 4 5 6 
#
# 1 0.012045 -0.003470 -0.000685 0.000000 0.006893 0.000000
# 2 -0.003470 0.008811 -0.000995 0.000000 0.001319 0.000000
# 3 -0.000685 -0.000995 0.013390 0.000000 0.002493 0.000000
# 4 0.000000 0.000000 0.000000 0.035937 0.000000 0.004280
# 5 0.006893 0.001319 0.002493 0.000000 0.043993 0.000000
# 6 0.000000 0.000000 0.000000 0.004280 0.000000 0.031153
#
#
# Mechanical properties :
#
#
# Convention : Reuss Voigt Hill
#
# Bulk Modulus (GPa) = 41.76040 52.17800 46.96920
# Shear Modulus (GPa) = 30.56007 33.95218 32.25613
#
# Velocity S-wave (km/s) = 3.80253 4.00802 3.90663
# Velocity P-wave (km/s) = 6.24801 6.79018 6.52473
#
# Compressibility (1/GPa) = 0.02394613
#
# Stress axis : x y z
#
# Youngs Moduli (GPa) = 83.01952 113.48997 74.67985
#
# Poissons Ratio (x) = 0.39380 0.05118
# Poissons Ratio (y) = 0.28807 0.07433
# Poissons Ratio (z) = 0.05689 0.11296
#
# Static dielectric constant tensor:
#      x y z
#    x 1.822360 0.000000 0.014680 
#    y 0.000000 1.774250 0.000000 
#    z 0.014680 0.000000 1.854700 
# 
# From -- ./inp_files/54963.got.cif
#   From: 2010.05.17/outbox.cif.g08.bks.cpg/sg15_28_cif.got.tgz:54963.got - 2010.06.03 18:47:42.
