data_PCOD9290533
_publ_section_title
;
Structure prediction by ZEFSAII (Michael W. Deem and Ramdas Pophale) SiO2 
 PCOD9290533
Probable space group: C 2/C
;
_chemical_formula_sum "Si O2"
_cell_formula_units_Z 36
_cell_length_a 7.988927
_cell_length_b 16.081871
_cell_length_c 16.844540
_cell_angle_alpha 90.000000
_cell_angle_beta 45.992017
_cell_angle_gamma 90.000000
_cell_volume 1556.538368
_symmetry_space_group_name_H-M "C 2/C"
_symmetry_group_IT_number 15
_symmetry_cell_setting 'monoclinic'
loop_
_space_group_symop_operation_xyz
x,y,z
-x,y,1/2-z
-x,-y,-z
x,-y,1/2+z
1/2+x,1/2+y,z
1/2-x,1/2+y,1/2-z
1/2-x,1/2-y,-z
1/2+x,1/2-y,1/2+z
loop_
_atom_site_type_symbol
_atom_site_label
_atom_site_fract_x
_atom_site_fract_y
_atom_site_fract_z
Si Si1 0.500000 0.727315 0.250000
Si Si2 0.151568 0.839471 0.548060
Si Si3 0.523920 0.022427 0.899088
Si Si4 0.149269 0.083652 0.469989
Si Si5 0.373125 0.350913 0.212809
O O1 0.375783 0.663170 0.349805
O O2 0.684152 0.787743 0.235412
O O3 0.250000 0.750000 0.500000
O O4 0.913465 0.854993 0.580279
O O5 0.338308 0.902960 0.453412
O O6 0.750119 0.063970 0.786045
O O7 0.415077 0.944296 0.889284
O O8 0.500000 0.000000 0.000000
O O9 0.052848 0.122693 0.584015
O O10 0.000000 0.000000 0.500000
O O11 0.500000 0.316221 0.250000
#
# Coordination Sequence:
#
# PCOD9290533 Si02
#       5
#     4   8   8   8   8
#     4  12  24  46  68 102 142 188 230 294 344 414
#     4  11  22  42  70  96 136 183 229 283 348 409
#     4  11  23  42  68 102 138 174 228 295 340 412
#     4  10  22  41  67 100 135 179 231 284 348 413
#     4  12  23  42  73 100 140 190 230 280 371 407
#
# _framework density 23.128243000000001
#
# number of rings (size 3 to 8) (size 9 to 14) (size 15 to 20)
#    0.000    0.889    6.667    1.333    0.000    3.556 
#    4.000    3.333    0.000    0.000    0.000    0.000 
#    0.000    0.000    0.000    0.000    0.000    0.000 
#
# Total GULP energy -100472.086566 kJ/mol
# GULP energy per Si atom -5581.782587 kJ/mol
# Density = 2.307560 g / cm^3
# Si number density = 23.128243 Si / 1000 Ang^3
#
#
#
# Elastic Constant Matrix: (Units=GPa)
#
#
# Indices 1 2 3 4 5 6 
#
# 1 132.8745 38.7819 -1.2014 -0.0005 11.1490 0.0008
# 2 38.7819 57.7397 -0.4595 -0.0003 0.8921 0.0005
# 3 -1.2014 -0.4595 61.2023 -0.0003 5.8499 0.0004
# 4 -0.0005 -0.0003 -0.0003 31.9582 0.0001 14.6279
# 5 11.1490 0.8921 5.8499 0.0001 29.7417 -0.0002
# 6 0.0008 0.0005 0.0004 14.6279 -0.0002 40.7437
#
#
#
# Elastic Compliance Matrix: (Units=1/GPa)
#
#
# Indices 1 2 3 4 5 6 
#
# 1 0.009715 -0.006467 0.000481 0.000000 -0.003542 0.000000
# 2 -0.006467 0.021634 -0.000137 0.000000 0.001802 0.000000
# 3 0.000481 -0.000137 0.016678 0.000000 -0.003457 0.000000
# 4 0.000000 0.000000 0.000000 0.037444 0.000000 -0.013443
# 5 -0.003542 0.001802 -0.003457 0.000000 0.035577 0.000000
# 6 0.000000 0.000000 0.000000 -0.013443 0.000000 0.029370
#
#
# Mechanical properties :
#
#
# Convention : Reuss Voigt Hill
#
# Bulk Modulus (GPa) = 27.94763 36.22873 32.08818
# Shear Modulus (GPa) = 28.63856 34.80173 31.72015
#
# Velocity S-wave (km/s) = 3.52270 3.88329 3.70738
# Velocity P-wave (km/s) = 5.35312 5.98372 5.67718
#
# Compressibility (1/GPa) = 0.03578121
#
# Stress axis : x y z
#
# Youngs Moduli (GPa) = 102.93493 46.22441 59.95904
#
# Poissons Ratio (x) = 0.29892 -0.02882
# Poissons Ratio (y) = 0.66564 0.00820
# Poissons Ratio (z) = -0.04948 0.00632
#
# Static dielectric constant tensor:
#      x y z
#    x 1.959800 0.000000 -0.030220 
#    y 0.000000 1.879450 0.000000 
#    z -0.030220 0.000000 1.859000 
# 
# From -- ./inp_files/132914.got.cif
#   From: 2010.05.17/outbox.cif.g08.bks.cpg/sg15_67_cif.got.tgz:132914.got - 2010.06.03 18:47:42.
