data_PCOD9290630
_publ_section_title
;
Structure prediction by ZEFSAII (Michael W. Deem and Ramdas Pophale) SiO2 
 PCOD9290630
Probable space group: C 2/C
;
_chemical_formula_sum "Si O2"
_cell_formula_units_Z 56
_cell_length_a 15.683446
_cell_length_b 22.342922
_cell_length_c 18.244003
_cell_angle_alpha 90.000000
_cell_angle_beta 21.710958
_cell_angle_gamma 90.000000
_cell_volume 2364.910090
_symmetry_space_group_name_H-M "C 2/C"
_symmetry_group_IT_number 15
_symmetry_cell_setting 'monoclinic'
loop_
_space_group_symop_operation_xyz
x,y,z
-x,y,1/2-z
-x,-y,-z
x,-y,1/2+z
1/2+x,1/2+y,z
1/2-x,1/2+y,1/2-z
1/2-x,1/2-y,-z
1/2+x,1/2-y,1/2+z
loop_
_atom_site_type_symbol
_atom_site_label
_atom_site_fract_x
_atom_site_fract_y
_atom_site_fract_z
Si Si1 0.178205 0.670129 0.005118
Si Si2 0.669222 0.701946 0.460524
Si Si3 0.921332 0.547020 0.476835
Si Si4 0.468998 0.711047 0.351908
Si Si5 0.291943 0.321773 0.141348
Si Si6 0.374121 0.063168 0.779589
Si Si7 0.883630 0.025247 0.167137
O O1 0.336467 0.684112 0.949280
O O2 0.205316 0.603349 0.956338
O O3 0.909244 0.673910 0.243148
O O4 0.196527 0.726170 0.935670
O O5 0.460340 0.683713 0.575425
O O6 0.752294 0.520996 0.673507
O O7 0.996007 0.493824 0.360617
O O8 0.169808 0.566832 0.312718
O O9 0.500000 0.676252 0.250000
O O10 0.250000 0.750000 0.500000
O O11 0.428275 0.671788 0.455640
O O12 0.649067 0.761268 0.238248
O O13 0.145861 0.382644 0.262639
O O14 0.500000 0.087712 0.750000
O O15 0.120757 0.046288 0.012625
O O16 0.000000 0.000000 0.000000
#
# Coordination Sequence:
#
# PCOD9290630 Si02
#       7
#     8   8   8   8   8   8   8
#     4  10  22  44  67 104 144 185 247 298 365 445
#     4  10  22  41  68 101 143 191 240 303 370 427
#     4  10  22  46  73 105 142 193 243 305 371 435
#     4   9  19  37  62  92 130 182 236 295 366 417
#     4  11  21  41  64 102 142 185 239 302 362 439
#     4  11  24  42  67 105 148 189 238 294 368 443
#     4   9  21  46  70 103 136 181 245 299 368 426
#
# _framework density 23.679546999999999
#
# number of rings (size 3 to 8) (size 9 to 14) (size 15 to 20)
#    0.000    2.000    0.000    3.000    2.000    0.571 
#   28.286    2.857    0.000    0.000    0.000    0.000 
#    0.000    0.000    0.000    0.000    0.000    0.000 
#
# Total GULP energy -156241.220104 kJ/mol
# GULP energy per Si atom -5580.043575 kJ/mol
# Density = 2.362565 g / cm^3
# Si number density = 23.679547 Si / 1000 Ang^3
#
#
#
# Elastic Constant Matrix: (Units=GPa)
#
#
# Indices 1 2 3 4 5 6 
#
# 1 155.2864 52.2852 41.6747 0.0352 -34.7234 -0.0112
# 2 52.2852 128.9967 25.6581 0.0894 1.7423 -0.0270
# 3 41.6747 25.6581 94.9862 0.2464 -10.7007 -0.0816
# 4 0.0352 0.0894 0.2464 25.9196 -0.0487 0.1861
# 5 -34.7234 1.7423 -10.7007 -0.0487 46.6740 0.0207
# 6 -0.0112 -0.0270 -0.0816 0.1861 0.0207 50.0708
#
#
#
# Elastic Compliance Matrix: (Units=1/GPa)
#
#
# Indices 1 2 3 4 5 6 
#
# 1 0.009883 -0.003583 -0.002592 0.000037 0.006892 -0.000007
# 2 -0.003583 0.009523 -0.001376 -0.000021 -0.003337 0.000004
# 3 -0.002592 -0.001376 0.012139 -0.000106 0.000906 0.000018
# 4 0.000037 -0.000021 -0.000106 0.038583 0.000044 -0.000144
# 5 0.006892 -0.003337 0.000906 0.000044 0.026885 -0.000010
# 6 -0.000007 0.000004 0.000018 -0.000144 -0.000010 0.019972
#
#
# Mechanical properties :
#
#
# Convention : Reuss Voigt Hill
#
# Bulk Modulus (GPa) = 60.81719 68.72281 64.77000
# Shear Modulus (GPa) = 36.34535 41.84297 39.09416
#
# Velocity S-wave (km/s) = 3.92201 4.20819 4.06762
# Velocity P-wave (km/s) = 6.80064 7.25926 7.03369
#
# Compressibility (1/GPa) = 0.01644272
#
# Stress axis : x y z
#
# Youngs Moduli (GPa) = 101.18459 105.00491 82.37849
#
# Poissons Ratio (x) = 0.37627 0.21351
# Poissons Ratio (y) = 0.36258 0.11337
# Poissons Ratio (z) = 0.26225 0.14450
#
# Static dielectric constant tensor:
#      x y z
#    x 1.965610 0.000570 0.028690 
#    y 0.000570 1.953780 0.000350 
#    z 0.028690 0.000350 2.051700 
# 
# From -- ./inp_files/250004.got.cif
#   From: 2010.05.17/outbox.cif.g08.bks.cpg/sg15_126_cif.got.tgz:250004.got - 2010.06.03 18:47:42.
