data_PCOD9290885
_publ_section_title
;
Structure prediction by ZEFSAII (Michael W. Deem and Ramdas Pophale) SiO2 
 PCOD9290885
Probable space group: C 2/C
;
_chemical_formula_sum "Si O2"
_cell_formula_units_Z 56
_cell_length_a 8.994522
_cell_length_b 12.561286
_cell_length_c 21.083922
_cell_angle_alpha 90.000000
_cell_angle_beta 120.952439
_cell_angle_gamma 90.000000
_cell_volume 2042.892898
_symmetry_space_group_name_H-M "C 2/C"
_symmetry_group_IT_number 15
_symmetry_cell_setting 'monoclinic'
loop_
_space_group_symop_operation_xyz
x,y,z
-x,y,1/2-z
-x,-y,-z
x,-y,1/2+z
1/2+x,1/2+y,z
1/2-x,1/2+y,1/2-z
1/2-x,1/2-y,-z
1/2+x,1/2-y,1/2+z
loop_
_atom_site_type_symbol
_atom_site_label
_atom_site_fract_x
_atom_site_fract_y
_atom_site_fract_z
Si Si1 0.472410 0.557834 0.425999
Si Si2 0.500000 0.763838 0.750000
Si Si3 0.000000 0.089506 0.250000
Si Si4 0.619031 0.054888 0.838405
Si Si5 0.491531 0.165890 0.103427
Si Si6 0.791150 0.116130 0.548988
Si Si7 0.783374 0.413919 0.333647
Si Si8 0.837552 0.790830 0.608139
O O1 0.500000 0.500000 0.500000
O O2 0.171905 0.602795 0.462164
O O3 0.592235 0.484366 0.408157
O O4 0.574033 0.670591 0.439028
O O5 0.493763 0.826236 0.816202
O O6 0.328826 0.687639 0.716224
O O7 0.010338 0.167349 0.311850
O O8 0.159385 0.009855 0.285912
O O9 0.500000 0.071696 0.750000
O O10 0.775850 0.971620 0.863218
O O11 0.465914 0.036004 0.854255
O O12 0.689513 0.167508 0.880606
O O13 0.419241 0.285464 0.071016
O O14 0.661501 0.155000 0.096367
O O15 0.679772 0.126766 0.587264
#
# Coordination Sequence:
#
# PCOD9290885 Si02
#       8
#     8   4   4   8   8   8   8   8
#     4  12  29  49  73 112 162 201 269 333 389 489
#     4   9  20  40  70 116 145 194 267 340 388 496
#     4  11  22  44  72 110 135 188 253 312 378 488
#     4  12  26  48  80 115 155 208 261 337 406 475
#     4  10  22  41  74 106 145 200 258 319 401 484
#     4  10  22  46  71 103 145 201 252 317 395 480
#     4  10  22  42  79  99 151 200 249 323 414 455
#     4  12  25  44  79 109 150 203 262 318 409 478
#
# _framework density 27.412108
#
# number of rings (size 3 to 8) (size 9 to 14) (size 15 to 20)
#    0.000    1.143    3.571    1.714    4.000    5.714 
#    0.000    0.000    4.714    0.000    0.000    0.000 
#    0.000    0.000    0.000    0.000    0.000    0.000 
#
# Total GULP energy -156301.700983 kJ/mol
# GULP energy per Si atom -5582.203607 kJ/mol
# Density = 2.734972 g / cm^3
# Si number density = 27.412108 Si / 1000 Ang^3
#
#
#
# Elastic Constant Matrix: (Units=GPa)
#
#
# Indices 1 2 3 4 5 6 
#
# 1 181.5506 69.0889 54.8928 0.0000 11.8923 0.0000
# 2 69.0889 55.4474 5.8240 0.0000 7.1116 0.0000
# 3 54.8928 5.8240 156.6744 0.0000 11.3039 0.0000
# 4 0.0000 0.0000 0.0000 16.5121 0.0000 -7.2451
# 5 11.8923 7.1116 11.3039 0.0000 26.9550 0.0000
# 6 0.0000 0.0000 0.0000 -7.2451 0.0000 30.5768
#
#
#
# Elastic Compliance Matrix: (Units=1/GPa)
#
#
# Indices 1 2 3 4 5 6 
#
# 1 0.012358 -0.015013 -0.003778 0.000000 0.000093 0.000000
# 2 -0.015013 0.036924 0.004241 0.000000 -0.004897 0.000000
# 3 -0.003778 0.004241 0.007744 0.000000 -0.002699 0.000000
# 4 0.000000 0.000000 0.000000 0.067589 0.000000 0.016015
# 5 0.000093 -0.004897 -0.002699 0.000000 0.039481 0.000000
# 6 0.000000 0.000000 0.000000 0.016015 0.000000 0.036499
#
#
# Mechanical properties :
#
#
# Convention : Reuss Voigt Hill
#
# Bulk Modulus (GPa) = 35.81122 72.58709 54.19916
# Shear Modulus (GPa) = 20.92018 32.39989 26.66003
#
# Velocity S-wave (km/s) = 2.76556 3.44169 3.12198
# Velocity P-wave (km/s) = 4.82598 6.50623 5.72805
#
# Compressibility (1/GPa) = 0.02792421
#
# Stress axis : x y z
#
# Youngs Moduli (GPa) = 80.92239 27.08255 129.13996
#
# Poissons Ratio (x) = 0.40659 0.48793
# Poissons Ratio (y) = 1.21488 -0.54764
# Poissons Ratio (z) = 0.30575 -0.11485
#
# Static dielectric constant tensor:
#      x y z
#    x 2.273530 0.000000 -0.102380 
#    y 0.000000 2.460970 0.000000 
#    z -0.102380 0.000000 2.227510 
# 
# From -- ./inp_files/264999.got.cif
#   From: 2010.05.17/outbox.cif.g08.bks.cpg/sg15_133_cif.got.tgz:264999.got - 2010.06.03 18:47:42.
