data_PCOD9290283
_publ_section_title
;
Structure prediction by ZEFSAII (Michael W. Deem and Ramdas Pophale) SiO2 
 PCOD9290283
Probable space group: C 2/C
;
_chemical_formula_sum "Si O2"
_cell_formula_units_Z 40
_cell_length_a 16.764947
_cell_length_b 7.758682
_cell_length_c 25.660296
_cell_angle_alpha 90.000000
_cell_angle_beta 145.059235
_cell_angle_gamma 90.000000
_cell_volume 1911.618235
_symmetry_space_group_name_H-M "C 2/C"
_symmetry_group_IT_number 15
_symmetry_cell_setting 'monoclinic'
loop_
_space_group_symop_operation_xyz
x,y,z
-x,y,1/2-z
-x,-y,-z
x,-y,1/2+z
1/2+x,1/2+y,z
1/2-x,1/2+y,1/2-z
1/2-x,1/2-y,-z
1/2+x,1/2-y,1/2+z
loop_
_atom_site_type_symbol
_atom_site_label
_atom_site_fract_x
_atom_site_fract_y
_atom_site_fract_z
Si Si1 0.351162 0.842022 0.464184
Si Si2 0.900112 0.967343 0.495360
Si Si3 0.423704 0.685833 0.315227
Si Si4 0.202286 0.184354 0.417049
Si Si5 0.860415 0.509740 0.855527
O O1 0.318599 0.646018 0.461067
O O2 0.354331 0.870053 0.403589
O O3 0.251316 0.989567 0.433602
O O4 0.506927 0.886073 0.566959
O O5 0.792411 0.810509 0.428631
O O6 0.000000 0.000000 0.500000
O O7 0.996836 0.919428 0.596299
O O8 0.536670 0.699823 0.329849
O O9 0.283170 0.590756 0.225061
O O10 0.387128 0.870249 0.320141
O O11 0.250000 0.250000 0.500000
#
# Coordination Sequence:
#
# PCOD9290283 Si02
#       5
#     8   8   8   8   8
#     4  11  21  41  70  91 127 175 213 261 330 393
#     4  11  20  40  71  95 123 170 216 264 324 401
#     4  11  23  42  63  96 133 164 221 274 317 383
#     4  10  22  41  64  96 131 165 212 270 326 384
#     4  11  22  40  64  95 128 172 214 264 326 381
#
# _framework density 20.924681
#
# number of rings (size 3 to 8) (size 9 to 14) (size 15 to 20)
#    0.000    1.200    6.000    2.400    0.000    4.000 
#    3.600    0.000    0.000    0.000    0.000    0.000 
#    0.000    0.000    0.000    0.000    0.000    0.000 
#
# Total GULP energy -111826.549423 kJ/mol
# GULP energy per Si atom -5591.327471 kJ/mol
# Density = 2.087706 g / cm^3
# Si number density = 20.924681 Si / 1000 Ang^3
#
#
#
# Elastic Constant Matrix: (Units=GPa)
#
#
# Indices 1 2 3 4 5 6 
#
# 1 104.7502 28.8411 41.0444 0.0000 27.5319 0.0000
# 2 28.8411 109.4586 34.5373 0.0000 12.9038 0.0000
# 3 41.0444 34.5373 107.6614 0.0000 30.7627 0.0000
# 4 0.0000 0.0000 0.0000 19.9293 0.0000 6.4175
# 5 27.5319 12.9038 30.7627 0.0000 35.4152 0.0000
# 6 0.0000 0.0000 0.0000 6.4175 0.0000 41.2627
#
#
#
# Elastic Compliance Matrix: (Units=1/GPa)
#
#
# Indices 1 2 3 4 5 6 
#
# 1 0.012860 -0.001820 -0.002197 0.000000 -0.007426 0.000000
# 2 -0.001820 0.010458 -0.002629 0.000000 -0.000112 0.000000
# 3 -0.002197 -0.002629 0.013578 0.000000 -0.009128 0.000000
# 4 0.000000 0.000000 0.000000 0.052823 0.000000 -0.008215
# 5 -0.007426 -0.000112 -0.009128 0.000000 0.041979 0.000000
# 6 0.000000 0.000000 0.000000 -0.008215 0.000000 0.025513
#
#
# Mechanical properties :
#
#
# Convention : Reuss Voigt Hill
#
# Bulk Modulus (GPa) = 42.36590 58.96842 50.66716
# Shear Modulus (GPa) = 28.03149 33.81794 30.92472
#
# Velocity S-wave (km/s) = 3.66408 4.02453 3.84853
# Velocity P-wave (km/s) = 6.17992 7.05962 6.63437
#
# Compressibility (1/GPa) = 0.02360389
#
# Stress axis : x y z
#
# Youngs Moduli (GPa) = 77.75858 95.61917 73.65086
#
# Poissons Ratio (x) = 0.17401 0.16182
# Poissons Ratio (y) = 0.14151 0.19364
# Poissons Ratio (z) = 0.17084 0.25140
#
# Static dielectric constant tensor:
#      x y z
#    x 1.805920 0.000000 -0.010870 
#    y 0.000000 1.758920 0.000000 
#    z -0.010870 0.000000 1.741430 
# 
# From -- ./inp_files/202846.got.cif
#   From: 2010.05.17/outbox.cif.g08.bks.cpg/sg15_102_cif.got.tgz:202846.got - 2010.06.03 18:47:42.
