data_PCOD9290495
_publ_section_title
;
Structure prediction by ZEFSAII (Michael W. Deem and Ramdas Pophale) SiO2 
 PCOD9290495
Probable space group: C 2/C
;
_chemical_formula_sum "Si O2"
_cell_formula_units_Z 36
_cell_length_a 7.737379
_cell_length_b 21.265499
_cell_length_c 8.058266
_cell_angle_alpha 90.000000
_cell_angle_beta 91.831358
_cell_angle_gamma 90.000000
_cell_volume 1325.223601
_symmetry_space_group_name_H-M "C 2/C"
_symmetry_group_IT_number 15
_symmetry_cell_setting 'monoclinic'
loop_
_space_group_symop_operation_xyz
x,y,z
-x,y,1/2-z
-x,-y,-z
x,-y,1/2+z
1/2+x,1/2+y,z
1/2-x,1/2+y,1/2-z
1/2-x,1/2-y,-z
1/2+x,1/2-y,1/2+z
loop_
_atom_site_type_symbol
_atom_site_label
_atom_site_fract_x
_atom_site_fract_y
_atom_site_fract_z
Si Si1 0.727502 0.972483 0.032888
Si Si2 0.500000 0.604938 0.750000
Si Si3 0.500000 0.894474 0.250000
Si Si4 0.500000 0.811316 0.750000
Si Si5 0.708597 0.707383 0.658513
Si Si6 0.802965 0.904615 0.692981
O O1 0.551327 0.943538 0.105643
O O2 0.863668 0.938014 0.156685
O O3 0.788186 0.044445 0.046157
O O4 0.745774 0.945601 0.851097
O O5 0.561906 0.655797 0.613434
O O6 0.649089 0.842038 0.279087
O O7 0.645556 0.757260 0.798077
O O8 0.638951 0.857335 0.666910
O O9 0.750000 0.750000 0.500000
O O10 0.000000 0.883591 0.750000
#
# Coordination Sequence:
#
# PCOD9290495 Si02
#       6
#     8   4   4   4   8   8
#     4  11  24  45  68 104 134 183 236 275 354 405
#     4   9  22  40  64  96 134 173 226 278 328 411
#     4  10  23  42  74  96 135 184 224 292 338 406
#     4  11  27  42  64 108 133 177 234 270 346 411
#     4  10  22  41  66  95 134 176 222 279 335 402
#     4  12  27  44  71 101 143 182 227 289 339 416
#
# _framework density 27.165225
#
# number of rings (size 3 to 8) (size 9 to 14) (size 15 to 20)
#    0.000    1.333    1.111    2.667    4.667    5.333 
#    0.000    6.667    0.000    0.000    0.000    0.000 
#    0.000    0.000    0.000    0.000    0.000    0.000 
#
# Total GULP energy -100225.707041 kJ/mol
# GULP energy per Si atom -5568.094836 kJ/mol
# Density = 2.710340 g / cm^3
# Si number density = 27.165225 Si / 1000 Ang^3
#
#
#
# Elastic Constant Matrix: (Units=GPa)
#
#
# Indices 1 2 3 4 5 6 
#
# 1 120.5600 53.5180 0.0295 0.0000 -11.3563 0.0000
# 2 53.5180 205.0696 11.6979 0.0000 -14.5428 0.0000
# 3 0.0295 11.6979 54.8634 0.0000 -3.7135 0.0000
# 4 0.0000 0.0000 0.0000 40.7662 0.0000 -19.9747
# 5 -11.3563 -14.5428 -3.7135 0.0000 31.9575 0.0000
# 6 0.0000 0.0000 0.0000 -19.9747 0.0000 53.2778
#
#
#
# Elastic Compliance Matrix: (Units=1/GPa)
#
#
# Indices 1 2 3 4 5 6 
#
# 1 0.009571 -0.002365 0.000662 0.000000 0.002402 0.000000
# 2 -0.002365 0.005671 -0.001099 0.000000 0.001612 0.000000
# 3 0.000662 -0.001099 0.018589 0.000000 0.001895 0.000000
# 4 0.000000 0.000000 0.000000 0.030050 0.000000 0.011266
# 5 0.002402 0.001612 0.001895 0.000000 0.033099 0.000000
# 6 0.000000 0.000000 0.000000 0.011266 0.000000 0.022993
#
#
# Mechanical properties :
#
#
# Convention : Reuss Voigt Hill
#
# Bulk Modulus (GPa) = 35.42795 56.77600 46.10197
# Shear Modulus (GPa) = 37.04078 46.21680 41.62879
#
# Velocity S-wave (km/s) = 3.69662 4.12918 3.91887
# Velocity P-wave (km/s) = 5.59374 6.60902 6.12246
#
# Compressibility (1/GPa) = 0.02822630
#
# Stress axis : x y z
#
# Youngs Moduli (GPa) = 104.48677 176.34670 53.79443
#
# Poissons Ratio (x) = 0.41708 -0.03560
# Poissons Ratio (y) = 0.24712 0.05910
# Poissons Ratio (z) = -0.06914 0.19375
#
# Static dielectric constant tensor:
#      x y z
#    x 2.464720 0.000000 -0.215360 
#    y 0.000000 2.085500 0.000000 
#    z -0.215360 0.000000 2.038350 
# 
# From -- ./inp_files/22580.got.cif
#   From: 2010.05.17/outbox.cif.g08.bks.cpg/sg15_12_cif.got.tgz:22580.got - 2010.06.03 18:47:42.
