data_PCOD9290515
_publ_section_title
;
Structure prediction by ZEFSAII (Michael W. Deem and Ramdas Pophale) SiO2 
 PCOD9290515
Probable space group: C 2/C
;
_chemical_formula_sum "Si O2"
_cell_formula_units_Z 36
_cell_length_a 12.597000
_cell_length_b 5.118687
_cell_length_c 23.008287
_cell_angle_alpha 90.000000
_cell_angle_beta 117.021559
_cell_angle_gamma 90.000000
_cell_volume 1321.622948
_symmetry_space_group_name_H-M "C 2/C"
_symmetry_group_IT_number 15
_symmetry_cell_setting 'monoclinic'
loop_
_space_group_symop_operation_xyz
x,y,z
-x,y,1/2-z
-x,-y,-z
x,-y,1/2+z
1/2+x,1/2+y,z
1/2-x,1/2+y,1/2-z
1/2-x,1/2-y,-z
1/2+x,1/2-y,1/2+z
loop_
_atom_site_type_symbol
_atom_site_label
_atom_site_fract_x
_atom_site_fract_y
_atom_site_fract_z
Si Si1 0.466008 0.407409 0.564112
Si Si2 0.789273 0.375327 0.402465
Si Si3 0.250000 0.750000 0.000000
Si Si4 0.936552 0.419700 0.630546
Si Si5 0.695433 0.135520 0.211646
O O1 0.584438 0.255086 0.580486
O O2 0.361477 0.412730 0.491927
O O3 0.475482 0.680519 0.597869
O O4 0.393316 0.180312 0.585073
O O5 0.777493 0.489041 0.463760
O O6 0.675095 0.190087 0.363000
O O7 0.780463 0.596889 0.350537
O O8 0.061562 0.468161 0.693199
O O9 0.715358 0.432415 0.235132
#
# Coordination Sequence:
#
# PCOD9290515 Si02
#       5
#     8   8   4   8   8
#     4  10  22  41  66  98 134 170 214 266 323 391
#     4  10  23  44  68  97 134 171 216 272 324 387
#     4  10  22  42  70 100 130 174 216 264 330 388
#     4  10  23  43  67  96 128 172 220 265 328 386
#     4  11  24  45  69  95 131 174 220 271 324 384
#
# _framework density 27.239236999999999
#
# number of rings (size 3 to 8) (size 9 to 14) (size 15 to 20)
#    0.000    1.778    0.000    3.333    0.000   15.111 
#    0.000   28.889    0.000    0.000    0.000    0.000 
#    0.000    0.000    0.000    0.000    0.000    0.000 
#
# Total GULP energy -100472.549361 kJ/mol
# GULP energy per Si atom -5581.808298 kJ/mol
# Density = 2.717724 g / cm^3
# Si number density = 27.239237 Si / 1000 Ang^3
#
#
#
# Elastic Constant Matrix: (Units=GPa)
#
#
# Indices 1 2 3 4 5 6 
#
# 1 119.9644 27.7508 37.5359 0.0000 30.4950 0.0000
# 2 27.7508 147.1769 18.8399 0.0000 -4.0936 0.0000
# 3 37.5359 18.8399 60.5901 0.0000 2.7975 0.0000
# 4 0.0000 0.0000 0.0000 50.9005 0.0000 -5.5294
# 5 30.4950 -4.0936 2.7975 0.0000 41.8170 0.0000
# 6 0.0000 0.0000 0.0000 -5.5294 0.0000 67.6992
#
#
#
# Elastic Compliance Matrix: (Units=1/GPa)
#
#
# Indices 1 2 3 4 5 6 
#
# 1 0.013484 -0.001869 -0.007332 0.000000 -0.009525 0.000000
# 2 -0.001869 0.007365 -0.001232 0.000000 0.002166 0.000000
# 3 -0.007332 -0.001232 0.021254 0.000000 0.003805 0.000000
# 4 0.000000 0.000000 0.000000 0.019822 0.000000 0.001619
# 5 -0.009525 0.002166 0.003805 0.000000 0.030818 0.000000
# 6 0.000000 0.000000 0.000000 0.001619 0.000000 0.014903
#
#
# Mechanical properties :
#
#
# Convention : Reuss Voigt Hill
#
# Bulk Modulus (GPa) = 47.08992 55.10942 51.09967
# Shear Modulus (GPa) = 36.87543 48.32367 42.59955
#
# Velocity S-wave (km/s) = 3.68334 4.21651 3.95891
# Velocity P-wave (km/s) = 5.95100 6.63181 6.30061
#
# Compressibility (1/GPa) = 0.02123597
#
# Stress axis : x y z
#
# Youngs Moduli (GPa) = 74.16363 135.77903 47.04927
#
# Poissons Ratio (x) = 0.25374 0.34498
# Poissons Ratio (y) = 0.13859 0.05798
# Poissons Ratio (z) = 0.54380 0.16733
#
# Static dielectric constant tensor:
#      x y z
#    x 2.580350 0.000000 0.571920 
#    y 0.000000 2.168600 0.000000 
#    z 0.571920 0.000000 2.930530 
# 
# From -- ./inp_files/290636.got.cif
#   From: 2010.05.17/outbox.cif.g08.bks.cpg/sg15_146_cif.got.tgz:290636.got - 2010.06.03 18:47:42.
