data_PCOD9290079
_publ_section_title
;
Structure prediction by ZEFSAII (Michael W. Deem and Ramdas Pophale) SiO2 
 PCOD9290079
Probable space group: C 2/C
;
_chemical_formula_sum "Si O2"
_cell_formula_units_Z 44
_cell_length_a 8.034768
_cell_length_b 16.827150
_cell_length_c 15.789014
_cell_angle_alpha 90.000000
_cell_angle_beta 108.893807
_cell_angle_gamma 90.000000
_cell_volume 2019.692756
_symmetry_space_group_name_H-M "C 2/C"
_symmetry_group_IT_number 15
_symmetry_cell_setting 'monoclinic'
loop_
_space_group_symop_operation_xyz
x,y,z
-x,y,1/2-z
-x,-y,-z
x,-y,1/2+z
1/2+x,1/2+y,z
1/2-x,1/2+y,1/2-z
1/2-x,1/2-y,-z
1/2+x,1/2-y,1/2+z
loop_
_atom_site_type_symbol
_atom_site_label
_atom_site_fract_x
_atom_site_fract_y
_atom_site_fract_z
Si Si1 0.047478 0.875017 0.898666
Si Si2 0.661856 0.017931 0.966274
Si Si3 0.299209 0.662646 0.698599
Si Si4 0.500000 0.744241 0.250000
Si Si5 0.186649 0.970378 0.177480
Si Si6 0.611497 0.634730 0.962325
O O1 0.217230 0.916879 0.967233
O O2 0.089964 0.813513 0.832946
O O3 0.915025 0.944748 0.841339
O O4 0.958424 0.828246 0.962897
O O5 0.774166 0.938018 0.986397
O O6 0.650531 0.032640 0.862668
O O7 0.500000 0.000000 0.000000
O O8 0.500000 0.690355 0.750000
O O9 0.285433 0.569350 0.725880
O O10 0.282012 0.675323 0.595298
O O11 0.150467 0.705951 0.727863
O O12 0.052329 0.907484 0.112031
#
# Coordination Sequence:
#
# PCOD9290079 Si02
#       6
#     8   8   8   4   8   8
#     4   9  20  39  58  90 121 159 195 257 313 346
#     4   9  17  32  60  94 112 146 209 259 289 356
#     4  10  22  41  61  85 121 165 203 247 303 375
#     4  12  26  38  60  92 132 156 200 248 314 362
#     4   8  17  36  62  83 111 154 202 244 300 354
#     4   8  17  36  61  80 113 157 201 246 301 353
#
# _framework density 21.785492000000001
#
# number of rings (size 3 to 8) (size 9 to 14) (size 15 to 20)
#    0.000    2.909    0.000    2.182    8.909    0.727 
#    6.545    8.182    0.000    0.000    0.000    0.000 
#    0.000    0.000    0.000    0.000    0.000    0.000 
#
# Total GULP energy -122508.002770 kJ/mol
# GULP energy per Si atom -5568.545580 kJ/mol
# Density = 2.173591 g / cm^3
# Si number density = 21.785492 Si / 1000 Ang^3
#
#
#
# Elastic Constant Matrix: (Units=GPa)
#
#
# Indices 1 2 3 4 5 6 
#
# 1 92.4422 30.0714 40.5800 0.0000 -36.2901 0.0000
# 2 30.0714 51.7187 27.1980 0.0000 -14.7157 0.0000
# 3 40.5800 27.1980 95.6672 0.0000 -43.4787 0.0000
# 4 0.0000 0.0000 0.0000 3.2547 0.0000 -8.7726
# 5 -36.2901 -14.7157 -43.4787 0.0000 38.8125 0.0000
# 6 0.0000 0.0000 0.0000 -8.7726 0.0000 18.5245
#
#
#
# Elastic Compliance Matrix: (Units=1/GPa)
#
#
# Indices 1 2 3 4 5 6 
#
# 1 0.019081 -0.007130 0.001656 0.000000 0.016993 0.000000
# 2 -0.007130 0.025550 -0.005840 0.000000 -0.003522 0.000000
# 3 0.001656 -0.005840 0.022629 0.000000 0.024684 0.000000
# 4 0.000000 0.000000 0.000000 -1.111417 0.000000 -0.526333
# 5 0.016993 -0.003522 0.024684 0.000000 0.067970 0.000000
# 6 0.000000 0.000000 0.000000 -0.526333 0.000000 -0.195273
#
#
# Mechanical properties :
#
#
# Convention : Reuss Voigt Hill
#
# Bulk Modulus (GPa) = 22.40526 48.39186 35.39856
# Shear Modulus (GPa) = -4.40935 21.58358 8.58712
#
# Velocity S-wave (km/s) = -1.42421 3.15100 1.98752
# Velocity P-wave (km/s) = 2.75723 5.95815 4.64230
#
# Compressibility (1/GPa) = 0.04463237
#
# Stress axis : x y z
#
# Youngs Moduli (GPa) = 52.40844 39.13842 44.19119
#
# Poissons Ratio (x) = 0.27907 -0.07320
# Poissons Ratio (y) = 0.37370 0.25807
# Poissons Ratio (z) = -0.08681 0.22856
#
# Static dielectric constant tensor:
#      x y z
#    x 1.783030 0.000000 -0.057250 
#    y 0.000000 1.791300 0.000000 
#    z -0.057250 0.000000 1.905590 
# 
# From -- ./inp_files/134460.got.cif
#   From: 2010.05.17/outbox.cif.g08.bks.cpg/sg15_68_cif.got.tgz:134460.got - 2010.06.03 18:47:42.
