data_PCOD9290602
_publ_section_title
;
Structure prediction by ZEFSAII (Michael W. Deem and Ramdas Pophale) SiO2 
 PCOD9290602
Probable space group: C 2/C
;
_chemical_formula_sum "Si O2"
_cell_formula_units_Z 40
_cell_length_a 32.857431
_cell_length_b 7.624636
_cell_length_c 16.732889
_cell_angle_alpha 90.000000
_cell_angle_beta 156.024374
_cell_angle_gamma 90.000000
_cell_volume 1703.420043
_symmetry_space_group_name_H-M "C 2/C"
_symmetry_group_IT_number 15
_symmetry_cell_setting 'monoclinic'
loop_
_space_group_symop_operation_xyz
x,y,z
-x,y,1/2-z
-x,-y,-z
x,-y,1/2+z
1/2+x,1/2+y,z
1/2-x,1/2+y,1/2-z
1/2-x,1/2-y,-z
1/2+x,1/2-y,1/2+z
loop_
_atom_site_type_symbol
_atom_site_label
_atom_site_fract_x
_atom_site_fract_y
_atom_site_fract_z
Si Si1 0.493081 0.275722 0.421881
Si Si2 0.294572 0.514060 0.434682
Si Si3 0.470463 0.665553 0.341728
Si Si4 0.366057 0.163305 0.962348
Si Si5 0.250000 0.250000 0.000000
Si Si6 0.000000 0.610695 0.750000
O O1 0.521153 0.480096 0.454305
O O2 0.535782 0.232566 0.586123
O O3 0.547510 0.173875 0.449349
O O4 0.373153 0.263420 0.207029
O O5 0.365200 0.386760 0.613117
O O6 0.354737 0.655405 0.488939
O O7 0.231003 0.397310 0.259561
O O8 0.232780 0.629826 0.387405
O O9 0.525193 0.771107 0.371179
O O10 0.402686 0.011000 0.087597
#
# Coordination Sequence:
#
# PCOD9290602 Si02
#       6
#     8   8   8   8   4   4
#     4  10  23  44  69  96 135 180 222 278 335 394
#     4  11  25  43  66  99 136 175 222 278 336 404
#     4  10  22  41  67  97 134 174 220 274 335 399
#     4  12  26  43  68  99 136 178 222 277 338 401
#     4  10  22  42  66  96 132 174 224 270 326 394
#     4  12  22  38  66  96 130 176 220 270 330 398
#
# _framework density 23.48217
#
# number of rings (size 3 to 8) (size 9 to 14) (size 15 to 20)
#    0.000    1.200    0.000    6.000    0.000   10.400 
#    0.000    4.000    0.000    0.000    0.000    0.000 
#    0.000    0.000    0.000    0.000    0.000    0.000 
#
# Total GULP energy -111345.105556 kJ/mol
# GULP energy per Si atom -5567.255278 kJ/mol
# Density = 2.342872 g / cm^3
# Si number density = 23.482170 Si / 1000 Ang^3
#
#
#
# Elastic Constant Matrix: (Units=GPa)
#
#
# Indices 1 2 3 4 5 6 
#
# 1 112.2043 43.6274 40.9921 0.0000 -8.3842 0.0000
# 2 43.6274 46.3245 26.8523 0.0000 2.2707 0.0000
# 3 40.9921 26.8523 119.2406 0.0000 -21.3520 0.0000
# 4 0.0000 0.0000 0.0000 15.3707 0.0000 -3.5501
# 5 -8.3842 2.2707 -21.3520 0.0000 41.2815 0.0000
# 6 0.0000 0.0000 0.0000 -3.5501 0.0000 35.4898
#
#
#
# Elastic Compliance Matrix: (Units=1/GPa)
#
#
# Indices 1 2 3 4 5 6 
#
# 1 0.014848 -0.013190 -0.001613 0.000000 0.002907 0.000000
# 2 -0.013190 0.037399 -0.005219 0.000000 -0.007436 0.000000
# 3 -0.001613 -0.005219 0.011141 0.000000 0.005722 0.000000
# 4 0.000000 0.000000 0.000000 0.066598 0.000000 0.006662
# 5 0.002907 -0.007436 0.005722 0.000000 0.028183 0.000000
# 6 0.000000 0.000000 0.000000 0.006662 0.000000 0.028844
#
#
# Mechanical properties :
#
#
# Convention : Reuss Voigt Hill
#
# Bulk Modulus (GPa) = 42.84117 55.63477 49.23797
# Shear Modulus (GPa) = 21.29131 29.51492 25.40311
#
# Velocity S-wave (km/s) = 3.01441 3.54914 3.29265
# Velocity P-wave (km/s) = 5.51356 6.36702 5.95560
#
# Compressibility (1/GPa) = 0.02334203
#
# Stress axis : x y z
#
# Youngs Moduli (GPa) = 67.35071 26.73869 89.75942
#
# Poissons Ratio (x) = 0.35270 0.14482
# Poissons Ratio (y) = 0.88839 0.46845
# Poissons Ratio (z) = 0.10866 0.13955
#
# Static dielectric constant tensor:
#      x y z
#    x 1.909690 0.000000 -0.020270 
#    y 0.000000 1.916160 0.000000 
#    z -0.020270 0.000000 1.894990 
# 
# From -- ./inp_files/181299.got.cif
#   From: 2010.05.17/outbox.cif.g08.bks.cpg/sg15_91_cif.got.tgz:181299.got - 2010.06.03 18:47:42.
