data_PCOD9290011
_publ_section_title
;
Structure prediction by ZEFSAII (Michael W. Deem and Ramdas Pophale) SiO2 
 PCOD9290011
Probable space group: C 2/C
;
_chemical_formula_sum "Si O2"
_cell_formula_units_Z 60
_cell_length_a 18.258089
_cell_length_b 5.127757
_cell_length_c 30.495491
_cell_angle_alpha 90.000000
_cell_angle_beta 111.513379
_cell_angle_gamma 90.000000
_cell_volume 2656.172816
_symmetry_space_group_name_H-M "C 2/C"
_symmetry_group_IT_number 15
_symmetry_cell_setting 'monoclinic'
loop_
_space_group_symop_operation_xyz
x,y,z
-x,y,1/2-z
-x,-y,-z
x,-y,1/2+z
1/2+x,1/2+y,z
1/2-x,1/2+y,1/2-z
1/2-x,1/2-y,-z
1/2+x,1/2-y,1/2+z
loop_
_atom_site_type_symbol
_atom_site_label
_atom_site_fract_x
_atom_site_fract_y
_atom_site_fract_z
Si Si1 0.059969 0.194960 0.192388
Si Si2 0.538278 0.249479 0.985529
Si Si3 0.750159 0.836361 0.872756
Si Si4 0.528956 0.967942 0.607950
Si Si5 0.218441 0.981001 0.219672
Si Si6 0.835964 0.326815 0.923899
Si Si7 0.500000 0.010747 0.250000
Si Si8 0.072796 0.826814 0.346499
O O1 0.077364 0.392673 0.157123
O O2 0.064164 0.331252 0.240180
O O3 0.123500 0.968169 0.202699
O O4 0.969485 0.106463 0.166443
O O5 0.629079 0.224890 0.019988
O O6 0.500000 0.500000 0.000000
O O7 0.512722 0.193450 0.930288
O O8 0.500000 0.000000 0.000000
O O9 0.759469 0.903899 0.823183
O O10 0.770126 0.113151 0.899444
O O11 0.809035 0.619074 0.905886
O O12 0.665020 0.714941 0.863793
O O13 0.589068 0.794330 0.592608
O O14 0.462567 0.798496 0.617161
O O15 0.253833 0.701365 0.239482
O O16 0.537272 0.180604 0.296329
#
# Coordination Sequence:
#
# PCOD9290011 Si02
#       8
#     8   8   8   8   8   8   4   8
#     4  11  24  42  69  95 136 180 231 281 338 407
#     4  10  22  40  73 104 132 171 230 281 338 406
#     4  12  26  44  67  99 139 178 222 279 353 395
#     4  10  23  43  69 101 128 180 228 279 337 416
#     4  12  27  42  67  97 132 174 229 285 338 396
#     4  11  23  45  70 100 135 174 223 287 337 401
#     4  10  24  42  64  92 128 178 240 268 334 388
#     4  11  26  42  68  94 138 183 228 279 340 417
#
# _framework density 22.588892000000001
#
# number of rings (size 3 to 8) (size 9 to 14) (size 15 to 20)
#    0.000    1.067    1.333    4.400   14.933    0.000 
#    0.000    1.333    0.000    0.000    0.000    0.000 
#    0.000    0.000    0.000    0.000    0.000    0.000 
#
# Total GULP energy -167673.517911 kJ/mol
# GULP energy per Si atom -5589.117264 kJ/mol
# Density = 2.253748 g / cm^3
# Si number density = 22.588892 Si / 1000 Ang^3
#
#
#
# Elastic Constant Matrix: (Units=GPa)
#
#
# Indices 1 2 3 4 5 6 
#
# 1 66.4196 -16.2746 6.8599 0.0001 8.6535 -0.0001
# 2 -16.2746 92.4696 11.0517 0.0001 1.0805 0.0002
# 3 6.8599 11.0517 50.3178 0.0000 0.5711 -0.0001
# 4 0.0001 0.0001 0.0000 33.2183 0.0000 8.8702
# 5 8.6535 1.0805 0.5711 0.0000 25.0265 -0.0001
# 6 -0.0001 0.0002 -0.0001 8.8702 -0.0001 30.8459
#
#
#
# Elastic Compliance Matrix: (Units=1/GPa)
#
#
# Indices 1 2 3 4 5 6 
#
# 1 0.016977 0.003416 -0.002997 0.000000 -0.005949 0.000000
# 2 0.003416 0.011798 -0.003038 0.000000 -0.001621 0.000000
# 3 -0.002997 -0.003038 0.020942 0.000000 0.000690 0.000000
# 4 0.000000 0.000000 0.000000 0.032608 0.000000 -0.009377
# 5 -0.005949 -0.001621 0.000690 0.000000 0.042069 0.000000
# 6 0.000000 0.000000 0.000000 -0.009377 0.000000 0.035116
#
#
# Mechanical properties :
#
#
# Convention : Reuss Voigt Hill
#
# Bulk Modulus (GPa) = 22.48355 23.60899 23.04627
# Shear Modulus (GPa) = 27.84352 31.65614 29.74983
#
# Velocity S-wave (km/s) = 3.51468 3.74759 3.63300
# Velocity P-wave (km/s) = 5.14253 5.40372 5.27474
#
# Compressibility (1/GPa) = 0.04447697
#
# Stress axis : x y z
#
# Youngs Moduli (GPa) = 58.90169 84.76277 47.75130
#
# Poissons Ratio (x) = -0.28953 0.14312
# Poissons Ratio (y) = -0.20119 0.14509
# Poissons Ratio (z) = 0.17654 0.25755
#
# Static dielectric constant tensor:
#      x y z
#    x 1.851190 0.000000 0.032250 
#    y 0.000000 1.832060 0.000000 
#    z 0.032250 0.000000 1.922520 
# 
# From -- ./inp_files/315115.got.cif
#   From: 2010.05.17/outbox.cif.g08.bks.cpg/sg15_158_cif.got.tgz:315115.got - 2010.06.03 18:47:42.
