data_PCOD9290121
_publ_section_title
;
Structure prediction by ZEFSAII (Michael W. Deem and Ramdas Pophale) SiO2 
 PCOD9290121
Probable space group: C 2/C
;
_chemical_formula_sum "Si O2"
_cell_formula_units_Z 56
_cell_length_a 27.662351
_cell_length_b 11.268009
_cell_length_c 9.610820
_cell_angle_alpha 90.000000
_cell_angle_beta 110.330298
_cell_angle_gamma 90.000000
_cell_volume 2809.073530
_symmetry_space_group_name_H-M "C 2/C"
_symmetry_group_IT_number 15
_symmetry_cell_setting 'monoclinic'
loop_
_space_group_symop_operation_xyz
x,y,z
-x,y,1/2-z
-x,-y,-z
x,-y,1/2+z
1/2+x,1/2+y,z
1/2-x,1/2+y,1/2-z
1/2-x,1/2-y,-z
1/2+x,1/2-y,1/2+z
loop_
_atom_site_type_symbol
_atom_site_label
_atom_site_fract_x
_atom_site_fract_y
_atom_site_fract_z
Si Si1 0.599743 0.878119 0.265403
Si Si2 0.701062 0.275627 0.544522
Si Si3 0.201062 0.775626 0.857603
Si Si4 0.635447 0.500000 0.385447
Si Si5 0.400258 0.121881 0.065917
Si Si6 0.452103 0.331002 0.292256
Si Si7 0.452103 0.668998 0.111949
O O1 0.657631 0.825528 0.330585
O O2 0.566137 0.782698 0.316946
O O3 0.596032 0.000000 0.346032
O O4 0.586485 0.887208 0.086486
O O5 0.750000 0.250000 0.500000
O O6 0.720061 0.274784 0.720061
O O7 0.671949 0.400546 0.489519
O O8 0.657631 0.174474 0.484679
O O9 0.171948 0.900545 0.854378
O O10 0.250000 0.750000 0.000000
O O11 0.595482 0.423464 0.253343
O O12 0.595481 0.576535 0.437620
O O13 0.433863 0.217302 0.184670
O O14 0.500000 0.376612 0.250000
O O15 0.466231 0.304017 0.466231
O O16 0.500000 0.623390 0.250000
#
# Coordination Sequence:
#
# PCOD9290121 Si02
#       7
#     8   8   8   8   8   8   8
#     4  10  22  41  62  89 125 164 210 259 309 368
#     4  10  23  40  61  90 122 161 207 255 308 366
#     4  10  23  40  61  90 122 161 207 255 308 366
#     4  10  23  42  64  92 124 164 207 256 306 368
#     4  10  22  41  62  89 125 164 210 259 309 368
#     4  11  23  40  65  94 126 164 206 256 313 371
#     4  11  23  40  65  94 126 164 206 256 313 371
#
# _framework density 19.935397999999999
#
# number of rings (size 3 to 8) (size 9 to 14) (size 15 to 20)
#    0.000    1.714    0.000    3.000    2.000   12.000 
#    0.000    2.857    0.000    0.000    0.000    0.000 
#    0.000    0.000    0.000    0.000    0.000    0.000 
#
# Total GULP energy -156234.751463 kJ/mol
# GULP energy per Si atom -5579.812552 kJ/mol
# Density = 1.989002 g / cm^3
# Si number density = 19.935398 Si / 1000 Ang^3
#
#
#
# Elastic Constant Matrix: (Units=GPa)
#
#
# Indices 1 2 3 4 5 6 
#
# 1 122.2142 54.9139 93.1950 0.0000 -13.2652 0.0000
# 2 54.9139 152.7686 74.9647 0.0000 -8.2513 0.0000
# 3 93.1950 74.9647 200.8450 0.0000 -19.0950 0.0000
# 4 0.0000 0.0000 0.0000 2.3020 0.0000 2.7078
# 5 -13.2652 -8.2513 -19.0950 0.0000 33.0253 0.0000
# 6 0.0000 0.0000 0.0000 2.7078 0.0000 8.8809
#
#
#
# Elastic Compliance Matrix: (Units=1/GPa)
#
#
# Indices 1 2 3 4 5 6 
#
# 1 0.013306 -0.002130 -0.005208 0.000000 0.001801 0.000000
# 2 -0.002130 0.008357 -0.002131 0.000000 0.000000 0.000000
# 3 -0.005208 -0.002131 0.008403 0.000000 0.002234 0.000000
# 4 0.000000 0.000000 0.000000 0.677322 0.000000 -0.206517
# 5 0.001801 0.000000 0.002234 0.000000 0.032295 0.000000
# 6 0.000000 0.000000 0.000000 -0.206517 0.000000 0.175569
#
#
# Mechanical properties :
#
#
# Convention : Reuss Voigt Hill
#
# Bulk Modulus (GPa) = 89.85648 102.44164 96.14906
# Shear Modulus (GPa) = 5.33106 25.69193 15.51149
#
# Velocity S-wave (km/s) = 1.63706 3.59382 2.79245
# Velocity P-wave (km/s) = 6.98176 8.28970 7.66368
#
# Compressibility (1/GPa) = 0.01112886
#
# Stress axis : x y z
#
# Youngs Moduli (GPa) = 75.15165 119.65744 119.00053
#
# Poissons Ratio (x) = 0.25489 0.61976
# Poissons Ratio (y) = 0.16009 0.25357
# Poissons Ratio (z) = 0.39139 0.25497
#
# Static dielectric constant tensor:
#      x y z
#    x 1.713940 0.000000 0.011660 
#    y 0.000000 1.741050 0.000000 
#    z 0.011660 0.000000 1.685600 
# 
# From -- ./inp_files/65521.got.cif
#   From: 2010.05.17/outbox.cif.g08.bks.cpg/sg15_33_cif.got.tgz:65521.got - 2010.06.03 18:47:42.
