data_PCOD9290752
_publ_section_title
;
Structure prediction by ZEFSAII (Michael W. Deem and Ramdas Pophale) SiO2 
 PCOD9290752
Probable space group: C 2/C
;
_chemical_formula_sum "Si O2"
_cell_formula_units_Z 60
_cell_length_a 24.839264
_cell_length_b 16.032599
_cell_length_c 19.110235
_cell_angle_alpha 90.000000
_cell_angle_beta 159.868452
_cell_angle_gamma 90.000000
_cell_volume 2619.329757
_symmetry_space_group_name_H-M "C 2/C"
_symmetry_group_IT_number 15
_symmetry_cell_setting 'monoclinic'
loop_
_space_group_symop_operation_xyz
x,y,z
-x,y,1/2-z
-x,-y,-z
x,-y,1/2+z
1/2+x,1/2+y,z
1/2-x,1/2+y,1/2-z
1/2-x,1/2-y,-z
1/2+x,1/2-y,1/2+z
loop_
_atom_site_type_symbol
_atom_site_label
_atom_site_fract_x
_atom_site_fract_y
_atom_site_fract_z
Si Si1 0.265463 0.389718 0.830680
Si Si2 0.329111 0.269389 0.023006
Si Si3 0.000000 0.114303 0.250000
Si Si4 0.865376 0.584310 0.028031
Si Si5 0.207667 0.300180 0.377517
Si Si6 0.638934 0.654201 0.198095
Si Si7 0.951250 0.011412 0.320666
Si Si8 0.551101 0.931580 0.451678
O O1 0.357888 0.338363 0.881709
O O2 0.107549 0.417263 0.599847
O O3 0.239575 0.335582 0.867066
O O4 0.384779 0.464869 0.989846
O O5 0.500000 0.304563 0.250000
O O6 0.350614 0.183790 0.005981
O O7 0.250000 0.250000 0.000000
O O8 0.122811 0.170734 0.441649
O O9 0.084824 0.059608 0.295157
O O10 0.926887 0.528057 0.039499
O O11 0.000000 0.569090 0.250000
O O12 0.693826 0.549299 0.839504
O O13 0.250000 0.250000 0.500000
O O14 0.120909 0.238556 0.218365
O O15 0.105398 0.383691 0.258684
O O16 0.531949 0.579757 0.096730
O O17 0.813184 0.617590 0.426413
#
# Coordination Sequence:
#
# PCOD9290752 Si02
#       8
#     8   8   4   8   8   8   8   8
#     4  10  24  45  68 102 135 177 243 290 359 435
#     4  11  25  46  73 104 135 189 242 309 361 429
#     4  12  26  36  66 104 134 186 228 296 346 418
#     4  10  22  41  69  97 135 182 234 286 365 422
#     4  12  22  42  65 102 144 176 234 282 345 434
#     4   9  22  41  67  99 137 186 224 284 357 421
#     4  11  22  42  68 100 138 181 237 290 355 433
#     4   9  23  41  65  98 133 183 224 292 352 422
#
# _framework density 22.906624000000001
#
# number of rings (size 3 to 8) (size 9 to 14) (size 15 to 20)
#    0.800    0.800    1.333    2.800    4.667    2.133 
#    2.400    0.667    0.000    0.000    0.000    0.000 
#    0.000    0.000    0.000    0.000    0.000    0.000 
#
# Total GULP energy -167528.742002 kJ/mol
# GULP energy per Si atom -5584.291400 kJ/mol
# Density = 2.285449 g / cm^3
# Si number density = 22.906624 Si / 1000 Ang^3
#
#
#
# Elastic Constant Matrix: (Units=GPa)
#
#
# Indices 1 2 3 4 5 6 
#
# 1 82.8929 28.0224 12.4000 0.0005 -13.6824 0.0005
# 2 28.0224 88.8307 35.9696 0.0008 -11.4505 0.0008
# 3 12.4000 35.9696 84.4843 0.0009 -5.4583 0.0012
# 4 0.0005 0.0008 0.0009 25.0126 0.0010 0.2344
# 5 -13.6824 -11.4505 -5.4583 0.0010 22.2595 0.0009
# 6 0.0005 0.0008 0.0012 0.2344 0.0009 34.1698
#
#
#
# Elastic Compliance Matrix: (Units=1/GPa)
#
#
# Indices 1 2 3 4 5 6 
#
# 1 0.014458 -0.003604 -0.000135 0.000000 0.007000 0.000000
# 2 -0.003604 0.015242 -0.005687 0.000000 0.004231 0.000000
# 3 -0.000135 -0.005687 0.014310 0.000000 0.000500 0.000000
# 4 0.000000 0.000000 0.000000 0.039982 -0.000002 -0.000274
# 5 0.007000 0.004231 0.000500 -0.000002 0.051526 -0.000002
# 6 0.000000 0.000000 0.000000 -0.000274 -0.000002 0.029268
#
#
# Mechanical properties :
#
#
# Convention : Reuss Voigt Hill
#
# Bulk Modulus (GPa) = 39.74965 45.44353 42.59659
# Shear Modulus (GPa) = 26.03825 28.27611 27.15718
#
# Velocity S-wave (km/s) = 3.37517 3.51723 3.44693
# Velocity P-wave (km/s) = 5.70786 6.03127 5.87179
#
# Compressibility (1/GPa) = 0.02515745
#
# Stress axis : x y z
#
# Youngs Moduli (GPa) = 69.16753 65.60612 69.88072
#
# Poissons Ratio (x) = 0.23642 0.00947
# Poissons Ratio (y) = 0.24925 0.39743
# Poissons Ratio (z) = 0.00937 0.37312
#
# Static dielectric constant tensor:
#      x y z
#    x 2.044180 0.000000 -0.051000 
#    y 0.000000 1.884080 0.000000 
#    z -0.051000 0.000000 1.874610 
# 
# From -- ./inp_files/257896.got.cif
#   From: 2010.05.17/outbox.cif.g08.bks.cpg/sg15_129_cif.got.tgz:257896.got - 2010.06.03 18:47:42.
