data_PCOD9290380
_publ_section_title
;
Structure prediction by ZEFSAII (Michael W. Deem and Ramdas Pophale) SiO2 
 PCOD9290380
Probable space group: C 2/C
;
_chemical_formula_sum "Si O2"
_cell_formula_units_Z 40
_cell_length_a 13.116277
_cell_length_b 29.137534
_cell_length_c 13.349332
_cell_angle_alpha 90.000000
_cell_angle_beta 157.446457
_cell_angle_gamma 90.000000
_cell_volume 1956.775855
_symmetry_space_group_name_H-M "C 2/C"
_symmetry_group_IT_number 15
_symmetry_cell_setting 'monoclinic'
loop_
_space_group_symop_operation_xyz
x,y,z
-x,y,1/2-z
-x,-y,-z
x,-y,1/2+z
1/2+x,1/2+y,z
1/2-x,1/2+y,1/2-z
1/2-x,1/2-y,-z
1/2+x,1/2-y,1/2+z
loop_
_atom_site_type_symbol
_atom_site_label
_atom_site_fract_x
_atom_site_fract_y
_atom_site_fract_z
Si Si1 0.500000 0.571638 0.250000
Si Si2 0.732552 0.638309 0.614527
Si Si3 0.353173 0.128171 0.343160
Si Si4 0.500000 0.218821 0.750000
Si Si5 0.233089 0.029338 0.260041
Si Si6 0.432034 0.221898 0.306274
O O1 0.707038 0.604662 0.496110
O O2 0.644367 0.543523 0.292724
O O3 0.422248 0.646317 0.357348
O O4 0.892380 0.684445 0.736647
O O5 0.901442 0.618178 0.859202
O O6 0.272496 0.077168 0.235247
O O7 0.434443 0.169348 0.344224
O O8 0.250000 0.250000 0.500000
O O9 0.500000 0.000000 0.500000
O O10 0.000000 0.000000 0.000000
O O11 0.500000 0.222411 0.250000
O O12 0.650457 0.252619 0.561040
#
# Coordination Sequence:
#
# PCOD9290380 Si02
#       6
#     4   8   8   4   8   8
#     4  10  23  46  68  88 132 174 214 268 335 410
#     4  11  23  39  63  87 118 178 206 246 326 381
#     4  11  23  41  65  92 126 163 222 268 313 404
#     4  12  23  34  50  86 128 152 200 254 293 352
#     4  11  24  42  66  97 128 167 224 270 338 403
#     4  10  22  41  65  94 129 174 218 270 339 396
#
# _framework density 20.441789
#
# number of rings (size 3 to 8) (size 9 to 14) (size 15 to 20)
#    0.000    1.200    0.000    7.800    0.000    8.800 
#    3.600    0.000    0.000    0.000    0.000    0.000 
#    0.000    0.000    0.000    0.000    0.000    0.000 
#
# Total GULP energy -111675.847182 kJ/mol
# GULP energy per Si atom -5583.792359 kJ/mol
# Density = 2.039526 g / cm^3
# Si number density = 20.441789 Si / 1000 Ang^3
#
#
#
# Elastic Constant Matrix: (Units=GPa)
#
#
# Indices 1 2 3 4 5 6 
#
# 1 44.4212 36.7070 38.0010 0.0000 3.8246 0.0000
# 2 36.7070 166.8908 66.4171 0.0000 -4.5453 0.0000
# 3 38.0010 66.4171 183.6556 0.0000 4.5779 0.0002
# 4 0.0000 0.0000 0.0000 41.6336 0.0000 6.2854
# 5 3.8246 -4.5453 4.5779 0.0000 24.8150 0.0000
# 6 0.0000 0.0000 0.0002 6.2854 0.0000 51.7205
#
#
#
# Elastic Compliance Matrix: (Units=1/GPa)
#
#
# Indices 1 2 3 4 5 6 
#
# 1 0.031005 -0.005197 -0.004413 0.000000 -0.004916 0.000000
# 2 -0.005197 0.007947 -0.001864 0.000000 0.002600 0.000000
# 3 -0.004413 -0.001864 0.007056 0.000000 -0.000963 0.000000
# 4 0.000000 0.000000 0.000000 0.024468 0.000000 -0.002973
# 5 -0.004916 0.002600 -0.000963 0.000000 0.041710 0.000000
# 6 0.000000 0.000000 0.000000 -0.002973 0.000000 0.019696
#
#
# Mechanical properties :
#
#
# Convention : Reuss Voigt Hill
#
# Bulk Modulus (GPa) = 43.36387 75.24642 59.30514
# Shear Modulus (GPa) = 30.76592 40.55664 35.66128
#
# Velocity S-wave (km/s) = 3.88371 4.45905 4.18129
# Velocity P-wave (km/s) = 6.43197 7.96247 7.23779
#
# Compressibility (1/GPa) = 0.02306067
#
# Stress axis : x y z
#
# Youngs Moduli (GPa) = 32.25283 125.82611 141.72072
#
# Poissons Ratio (x) = 0.65391 0.62547
# Poissons Ratio (y) = 0.16762 0.26411
# Poissons Ratio (z) = 0.14235 0.23449
#
# Static dielectric constant tensor:
#      x y z
#    x 1.768120 0.000000 -0.018710 
#    y 0.000000 1.791240 0.000000 
#    z -0.018710 0.000000 1.830890 
# 
# From -- ./inp_files/157287.got.cif
#   From: 2010.05.17/outbox.cif.g08.bks.cpg/sg15_79_cif.got.tgz:157287.got - 2010.06.03 18:47:42.
