data_PCOD9290845
_publ_section_title
;
Structure prediction by ZEFSAII (Michael W. Deem and Ramdas Pophale) SiO2 
 PCOD9290845
Probable space group: C 2/C
;
_chemical_formula_sum "Si O2"
_cell_formula_units_Z 56
_cell_length_a 17.731261
_cell_length_b 17.249727
_cell_length_c 8.180757
_cell_angle_alpha 90.000000
_cell_angle_beta 104.038269
_cell_angle_gamma 90.000000
_cell_volume 2427.431780
_symmetry_space_group_name_H-M "C 2/C"
_symmetry_group_IT_number 15
_symmetry_cell_setting 'monoclinic'
loop_
_space_group_symop_operation_xyz
x,y,z
-x,y,1/2-z
-x,-y,-z
x,-y,1/2+z
1/2+x,1/2+y,z
1/2-x,1/2+y,1/2-z
1/2-x,1/2-y,-z
1/2+x,1/2-y,1/2+z
loop_
_atom_site_type_symbol
_atom_site_label
_atom_site_fract_x
_atom_site_fract_y
_atom_site_fract_z
Si Si1 0.505249 0.411068 0.448125
Si Si2 0.233806 0.022587 0.280260
Si Si3 0.587339 0.119926 0.332241
Si Si4 0.826374 0.847294 0.944681
Si Si5 0.162018 0.114452 0.538919
Si Si6 0.091581 0.483998 0.095234
Si Si7 0.202139 0.251445 0.747188
O O1 0.500000 0.407156 0.250000
O O2 0.500000 0.500000 0.500000
O O3 0.585596 0.371383 0.538029
O O4 0.429510 0.374695 0.487258
O O5 0.225639 0.076354 0.113483
O O6 0.183065 0.069567 0.385086
O O7 0.320496 0.015529 0.397859
O O8 0.196066 0.942728 0.198851
O O9 0.500000 0.148117 0.250000
O O10 0.590989 0.029777 0.270406
O O11 0.643766 0.177159 0.261374
O O12 0.599955 0.105036 0.533096
O O13 0.788503 0.784187 0.806664
O O14 0.815663 0.807915 0.114180
O O15 0.194193 0.200088 0.583010
O O16 0.000000 0.500000 0.000000
#
# Coordination Sequence:
#
# PCOD9290845 Si02
#       7
#     8   8   8   8   8   8   8
#     4  12  24  43  69 105 138 182 244 296 351 428
#     4  12  24  45  70 104 136 191 238 292 351 429
#     4  10  22  41  71  98 130 172 229 285 347 417
#     4  11  25  43  68  95 145 180 240 289 350 429
#     4  12  26  41  72 101 144 186 238 295 361 428
#     4  10  22  43  68  99 130 176 233 286 337 422
#     4  11  25  46  66 103 138 190 226 290 366 428
#
# _framework density 23.069649999999999
#
# number of rings (size 3 to 8) (size 9 to 14) (size 15 to 20)
#    0.000    0.857    4.286    2.571    6.000    0.571 
#    0.000    0.000    0.000    0.000    0.000    0.000 
#    0.000    0.000    0.000    0.000    0.000    0.000 
#
# Total GULP energy -155903.014807 kJ/mol
# GULP energy per Si atom -5567.964815 kJ/mol
# Density = 2.301714 g / cm^3
# Si number density = 23.069650 Si / 1000 Ang^3
#
#
#
# Elastic Constant Matrix: (Units=GPa)
#
#
# Indices 1 2 3 4 5 6 
#
# 1 180.0843 50.5915 56.5811 0.0000 25.8519 0.0000
# 2 50.5915 107.6400 35.3673 0.0000 5.7252 0.0000
# 3 56.5811 35.3673 74.4757 0.0000 9.0334 0.0000
# 4 0.0000 0.0000 0.0000 24.1092 0.0000 3.8786
# 5 25.8519 5.7252 9.0334 0.0000 41.3333 0.0000
# 6 0.0000 0.0000 0.0000 3.8786 0.0000 39.0121
#
#
#
# Elastic Compliance Matrix: (Units=1/GPa)
#
#
# Indices 1 2 3 4 5 6 
#
# 1 0.008177 -0.002076 -0.004768 0.000000 -0.003785 0.000000
# 2 -0.002076 0.011541 -0.003973 0.000000 0.000568 0.000000
# 3 -0.004768 -0.003973 0.019011 0.000000 -0.000623 0.000000
# 4 0.000000 0.000000 0.000000 0.042152 0.000000 -0.004191
# 5 -0.003785 0.000568 -0.000623 0.000000 0.026618 0.000000
# 6 0.000000 0.000000 0.000000 -0.004191 0.000000 0.026050
#
#
# Mechanical properties :
#
#
# Convention : Reuss Voigt Hill
#
# Bulk Modulus (GPa) = 58.48708 71.91997 65.20353
# Shear Modulus (GPa) = 31.07885 35.53494 33.30689
#
# Velocity S-wave (km/s) = 3.67437 3.92897 3.80380
# Velocity P-wave (km/s) = 6.58853 7.19897 6.90050
#
# Compressibility (1/GPa) = 0.01709779
#
# Stress axis : x y z
#
# Youngs Moduli (GPa) = 122.28778 86.64898 52.59978
#
# Poissons Ratio (x) = 0.17984 0.25079
# Poissons Ratio (y) = 0.25381 0.20896
# Poissons Ratio (z) = 0.58305 0.34422
#
# Static dielectric constant tensor:
#      x y z
#    x 1.843460 0.000000 -0.060020 
#    y 0.000000 1.917610 0.000000 
#    z -0.060020 0.000000 1.979870 
# 
# From -- ./inp_files/49150.got.cif
#   From: 2010.05.17/outbox.cif.g08.bks.cpg/sg15_25_cif.got.tgz:49150.got - 2010.06.03 18:47:42.
