data_PCOD9290779
_publ_section_title
;
Structure prediction by ZEFSAII (Michael W. Deem and Ramdas Pophale) SiO2 
 PCOD9290779
Probable space group: C 2/C
;
_chemical_formula_sum "Si O2"
_cell_formula_units_Z 28
_cell_length_a 5.979208
_cell_length_b 17.285869
_cell_length_c 12.684917
_cell_angle_alpha 90.000000
_cell_angle_beta 61.389297
_cell_angle_gamma 90.000000
_cell_volume 1150.970948
_symmetry_space_group_name_H-M "C 2/C"
_symmetry_group_IT_number 15
_symmetry_cell_setting 'monoclinic'
loop_
_space_group_symop_operation_xyz
x,y,z
-x,y,1/2-z
-x,-y,-z
x,-y,1/2+z
1/2+x,1/2+y,z
1/2-x,1/2+y,1/2-z
1/2-x,1/2-y,-z
1/2+x,1/2-y,1/2+z
loop_
_atom_site_type_symbol
_atom_site_label
_atom_site_fract_x
_atom_site_fract_y
_atom_site_fract_z
Si Si1 0.473657 0.418697 0.919892
Si Si2 0.606611 0.597046 0.609294
Si Si3 0.000000 0.337542 0.750000
Si Si4 0.102988 0.696743 0.448557
O O1 0.370082 0.505252 0.925976
O O2 0.307193 0.369266 0.879616
O O3 0.767001 0.395262 0.833406
O O4 0.425440 0.385773 0.049703
O O5 0.500000 0.600074 0.750000
O O6 0.855685 0.651010 0.547444
O O7 0.034621 0.280949 0.843681
O O8 0.250000 0.750000 0.500000
#
# Coordination Sequence:
#
# PCOD9290779 Si02
#       4
#     8   8   4   8
#     4  10  22  43  68 103 137 184 236 288 350 416
#     4  10  22  41  70 101 137 180 238 293 344 416
#     4  10  22  42  70  98 140 192 228 294 350 424
#     4  11  24  44  66 103 141 186 234 286 356 423
#
# _framework density 24.327285
#
# number of rings (size 3 to 8) (size 9 to 14) (size 15 to 20)
#    0.000    1.714    0.000    3.429    0.000   10.286 
#   15.429    0.000    0.000    0.000    0.000    0.000 
#    0.000    0.000    0.000    0.000    0.000    0.000 
#
# Total GULP energy -77942.214907 kJ/mol
# GULP energy per Si atom -5567.301065 kJ/mol
# Density = 2.427192 g / cm^3
# Si number density = 24.327285 Si / 1000 Ang^3
#
#
#
# Elastic Constant Matrix: (Units=GPa)
#
#
# Indices 1 2 3 4 5 6 
#
# 1 123.3688 77.0604 83.9384 0.0000 24.6790 0.0000
# 2 77.0604 120.8308 38.3388 0.0000 23.7263 0.0000
# 3 83.9384 38.3388 175.2278 0.0000 62.3993 0.0000
# 4 0.0000 0.0000 0.0000 18.9559 0.0000 -4.2304
# 5 24.6790 23.7263 62.3993 0.0000 34.1742 0.0000
# 6 0.0000 0.0000 0.0000 -4.2304 0.0000 -44.3667
#
#
#
# Elastic Compliance Matrix: (Units=1/GPa)
#
#
# Indices 1 2 3 4 5 6 
#
# 1 0.023474 -0.014246 -0.016047 0.000000 0.022240 0.000000
# 2 -0.014246 0.018265 0.010521 0.000000 -0.021604 0.000000
# 3 -0.016047 0.010521 0.027349 0.000000 -0.045654 0.000000
# 4 0.000000 0.000000 0.000000 0.051655 0.000000 -0.004925
# 5 0.022240 -0.021604 -0.045654 0.000000 0.111560 0.000000
# 6 0.000000 0.000000 0.000000 -0.004925 0.000000 -0.022070
#
#
# Mechanical properties :
#
#
# Convention : Reuss Voigt Hill
#
# Bulk Modulus (GPa) = 33.84758 90.90030 62.37394
# Shear Modulus (GPa) = 19.25849 16.42532 17.84191
#
# Velocity S-wave (km/s) = 2.81667 2.60124 2.71109
# Velocity P-wave (km/s) = 4.95195 6.81679 5.95779
#
# Compressibility (1/GPa) = 0.02954421
#
# Stress axis : x y z
#
# Youngs Moduli (GPa) = 42.60119 54.74892 36.56384
#
# Poissons Ratio (x) = 0.77994 0.58675
# Poissons Ratio (y) = 0.60688 -0.38469
# Poissons Ratio (z) = 0.68363 -0.57601
#
# Static dielectric constant tensor:
#      x y z
#    x 2.010050 0.000000 0.051610 
#    y 0.000000 2.127270 0.000000 
#    z 0.051610 0.000000 1.989550 
# 
# From -- ./inp_files/128079.got.cif
#   From: 2010.05.17/outbox.cif.g08.bks.cpg/sg15_65_cif.got.tgz:128079.got - 2010.06.03 18:47:42.
