data_PCOD9290444
_publ_section_title
;
Structure prediction by ZEFSAII (Michael W. Deem and Ramdas Pophale) SiO2 
 PCOD9290444
Probable space group: C 2/C
;
_chemical_formula_sum "Si O2"
_cell_formula_units_Z 44
_cell_length_a 12.178220
_cell_length_b 7.555554
_cell_length_c 21.229266
_cell_angle_alpha 90.000000
_cell_angle_beta 85.502996
_cell_angle_gamma 90.000000
_cell_volume 1947.359089
_symmetry_space_group_name_H-M "C 2/C"
_symmetry_group_IT_number 15
_symmetry_cell_setting 'monoclinic'
loop_
_space_group_symop_operation_xyz
x,y,z
-x,y,1/2-z
-x,-y,-z
x,-y,1/2+z
1/2+x,1/2+y,z
1/2-x,1/2+y,1/2-z
1/2-x,1/2-y,-z
1/2+x,1/2-y,1/2+z
loop_
_atom_site_type_symbol
_atom_site_label
_atom_site_fract_x
_atom_site_fract_y
_atom_site_fract_z
Si Si1 0.500000 0.889796 0.250000
Si Si2 0.434067 0.694309 0.612497
Si Si3 0.141857 0.388765 0.659252
Si Si4 0.790723 0.284474 0.426952
Si Si5 0.491441 0.205689 0.523763
Si Si6 0.874027 0.202905 0.144308
O O1 0.454655 0.788109 0.191457
O O2 0.394715 0.996931 0.279753
O O3 0.528087 0.794593 0.646035
O O4 0.312671 0.784815 0.609353
O O5 0.487635 0.684133 0.540192
O O6 0.404927 0.504310 0.641210
O O7 0.185076 0.516919 0.600485
O O8 0.246996 0.270463 0.669331
O O9 0.750000 0.250000 0.500000
O O10 0.916221 0.225232 0.430315
O O11 0.385298 0.226090 0.571942
O O12 0.500000 0.000000 0.500000
#
# Coordination Sequence:
#
# PCOD9290444 Si02
#       6
#     4   8   8   8   8   8
#     4  12  26  48  68  92 138 180 238 276 336 414
#     4  10  22  41  66 102 141 166 226 283 342 406
#     4  11  24  46  67  99 129 185 227 277 349 402
#     4   9  19  37  67  98 135 172 216 271 336 402
#     4  11  19  42  70 102 142 178 217 278 347 409
#     4  11  26  44  68 102 134 179 229 281 338 406
#
# _framework density 22.594701000000001
#
# number of rings (size 3 to 8) (size 9 to 14) (size 15 to 20)
#    0.000    1.455    3.636    0.545    0.000    5.818 
#   13.091    0.000    0.000    0.000    0.000    0.000 
#    0.000    0.000    0.000    0.000    0.000    0.000 
#
# Total GULP energy -122498.868011 kJ/mol
# GULP energy per Si atom -5568.130364 kJ/mol
# Density = 2.254327 g / cm^3
# Si number density = 22.594701 Si / 1000 Ang^3
#
#
#
# Elastic Constant Matrix: (Units=GPa)
#
#
# Indices 1 2 3 4 5 6 
#
# 1 116.1109 22.3514 24.1528 0.0000 -9.4016 0.0000
# 2 22.3514 35.3756 14.2608 0.0000 -9.9831 0.0000
# 3 24.1528 14.2608 82.2809 0.0000 -9.4519 0.0000
# 4 0.0000 0.0000 0.0000 25.3145 0.0000 -11.8960
# 5 -9.4016 -9.9831 -9.4519 0.0000 25.5494 0.0000
# 6 0.0000 0.0000 0.0000 -11.8960 0.0000 33.4122
#
#
#
# Elastic Compliance Matrix: (Units=1/GPa)
#
#
# Indices 1 2 3 4 5 6 
#
# 1 0.010120 -0.005355 -0.001938 0.000000 0.000915 0.000000
# 2 -0.005355 0.036103 -0.003437 0.000000 0.010865 0.000000
# 3 -0.001938 -0.003437 0.013662 0.000000 0.002998 0.000000
# 4 0.000000 0.000000 0.000000 0.047440 0.000000 0.016890
# 5 0.000915 0.010865 0.002998 0.000000 0.044831 0.000000
# 6 0.000000 0.000000 0.000000 0.016890 0.000000 0.035943
#
#
# Mechanical properties :
#
#
# Convention : Reuss Voigt Hill
#
# Bulk Modulus (GPa) = 26.02396 39.47750 32.75073
# Shear Modulus (GPa) = 22.48513 28.38870 25.43692
#
# Velocity S-wave (km/s) = 3.15802 3.54846 3.35892
# Velocity P-wave (km/s) = 4.98400 5.85651 5.43778
#
# Compressibility (1/GPa) = 0.03842613
#
# Stress axis : x y z
#
# Youngs Moduli (GPa) = 98.80989 27.69822 73.19348
#
# Poissons Ratio (x) = 0.14833 0.14181
# Poissons Ratio (y) = 0.52915 0.25159
# Poissons Ratio (z) = 0.19145 0.09521
#
# Static dielectric constant tensor:
#      x y z
#    x 1.953650 0.000000 0.003630 
#    y 0.000000 1.926980 0.000000 
#    z 0.003630 0.000000 1.907900 
# 
# From -- ./inp_files/236108.got.cif
#   From: 2010.05.17/outbox.cif.g08.bks.cpg/sg15_119_cif.got.tgz:236108.got - 2010.06.03 18:47:42.
