data_PCOD9290569
_publ_section_title
;
Structure prediction by ZEFSAII (Michael W. Deem and Ramdas Pophale) SiO2 
 PCOD9290569
Probable space group: C 2/C
;
_chemical_formula_sum "Si O2"
_cell_formula_units_Z 44
_cell_length_a 8.148302
_cell_length_b 21.780237
_cell_length_c 11.164291
_cell_angle_alpha 90.000000
_cell_angle_beta 92.243675
_cell_angle_gamma 90.000000
_cell_volume 1979.829507
_symmetry_space_group_name_H-M "C 2/C"
_symmetry_group_IT_number 15
_symmetry_cell_setting 'monoclinic'
loop_
_space_group_symop_operation_xyz
x,y,z
-x,y,1/2-z
-x,-y,-z
x,-y,1/2+z
1/2+x,1/2+y,z
1/2-x,1/2+y,1/2-z
1/2-x,1/2-y,-z
1/2+x,1/2-y,1/2+z
loop_
_atom_site_type_symbol
_atom_site_label
_atom_site_fract_x
_atom_site_fract_y
_atom_site_fract_z
Si Si1 0.358673 0.907147 0.481673
Si Si2 0.073766 0.704868 0.379757
Si Si3 0.961514 0.229097 0.380669
Si Si4 0.006126 0.099317 0.034214
Si Si5 0.000000 0.437233 0.250000
Si Si6 0.285159 0.490200 0.388429
O O1 0.429215 0.867999 0.593165
O O2 0.169631 0.884413 0.460377
O O3 0.467159 0.899459 0.368609
O O4 0.332266 0.977534 0.517120
O O5 0.994149 0.735185 0.495977
O O6 0.264605 0.722977 0.379081
O O7 0.000000 0.720788 0.250000
O O8 0.037825 0.160461 0.396053
O O9 0.000000 0.254493 0.250000
O O10 0.869966 0.069747 0.945549
O O11 0.075596 0.043178 0.118689
O O12 0.167338 0.475427 0.275273
#
# Coordination Sequence:
#
# PCOD9290569 Si02
#       6
#     8   8   8   8   4   8
#     4   9  21  38  58  87 121 165 202 254 311 372
#     4  10  23  44  63  90 129 165 206 264 318 371
#     4  10  22  41  67  94 120 163 217 261 310 376
#     4   8  19  42  57  87 125 165 207 253 310 379
#     4  12  22  32  60  94 126 160 200 266 306 376
#     4   9  20  38  57  87 124 165 207 249 311 377
#
# _framework density 22.224136000000001
#
# number of rings (size 3 to 8) (size 9 to 14) (size 15 to 20)
#    1.091    1.455    0.000    0.545    2.545    4.364 
#    9.818    0.000    0.000    0.000    0.000    0.000 
#    0.000    0.000    0.000    0.000    0.000    0.000 
#
# Total GULP energy -122533.674394 kJ/mol
# GULP energy per Si atom -5569.712472 kJ/mol
# Density = 2.217355 g / cm^3
# Si number density = 22.224136 Si / 1000 Ang^3
#
#
#
# Elastic Constant Matrix: (Units=GPa)
#
#
# Indices 1 2 3 4 5 6 
#
# 1 24.2734 15.6912 26.9671 0.0000 -5.1953 0.0000
# 2 15.6912 57.9251 44.1589 0.0000 8.1603 0.0000
# 3 26.9671 44.1589 140.5082 0.0000 1.8134 0.0000
# 4 0.0000 0.0000 0.0000 21.5612 0.0000 4.9403
# 5 -5.1953 8.1603 1.8134 0.0000 51.5771 0.0000
# 6 0.0000 0.0000 0.0000 4.9403 0.0000 6.2920
#
#
#
# Elastic Compliance Matrix: (Units=1/GPa)
#
#
# Indices 1 2 3 4 5 6 
#
# 1 0.058827 -0.011007 -0.007934 0.000000 0.007946 0.000000
# 2 -0.011007 0.025353 -0.005792 0.000000 -0.004916 0.000000
# 3 -0.007934 -0.005792 0.010463 0.000000 -0.000251 0.000000
# 4 0.000000 0.000000 0.000000 0.056554 0.000000 -0.044405
# 5 0.007946 -0.004916 -0.000251 0.000000 0.020976 0.000000
# 6 0.000000 0.000000 0.000000 -0.044405 0.000000 0.193796
#
#
# Mechanical properties :
#
#
# Convention : Reuss Voigt Hill
#
# Bulk Modulus (GPa) = 22.13429 44.03791 33.08610
# Shear Modulus (GPa) = 11.61454 24.94538 18.27996
#
# Velocity S-wave (km/s) = 2.28855 3.35393 2.87109
# Velocity P-wave (km/s) = 4.11879 5.90396 5.09025
#
# Compressibility (1/GPa) = 0.04517877
#
# Stress axis : x y z
#
# Youngs Moduli (GPa) = 16.99889 39.44238 95.57194
#
# Poissons Ratio (x) = 0.43413 0.75825
# Poissons Ratio (y) = 0.18710 0.55357
# Poissons Ratio (z) = 0.13487 0.22846
#
# Static dielectric constant tensor:
#      x y z
#    x 1.863320 0.000000 -0.000290 
#    y 0.000000 1.893540 0.000000 
#    z -0.000290 0.000000 1.809820 
# 
# From -- ./inp_files/81900.got.cif
#   From: 2010.05.17/outbox.cif.g08.bks.cpg/sg15_41_cif.got.tgz:81900.got - 2010.06.03 18:47:42.
