data_PCOD9290762
_publ_section_title
;
Structure prediction by ZEFSAII (Michael W. Deem and Ramdas Pophale) SiO2 
 PCOD9290762
Probable space group: C 2/C
;
_chemical_formula_sum "Si O2"
_cell_formula_units_Z 64
_cell_length_a 12.409360
_cell_length_b 14.401157
_cell_length_c 28.919575
_cell_angle_alpha 90.000000
_cell_angle_beta 37.817736
_cell_angle_gamma 90.000000
_cell_volume 3168.885547
_symmetry_space_group_name_H-M "C 2/C"
_symmetry_group_IT_number 15
_symmetry_cell_setting 'monoclinic'
loop_
_space_group_symop_operation_xyz
x,y,z
-x,y,1/2-z
-x,-y,-z
x,-y,1/2+z
1/2+x,1/2+y,z
1/2-x,1/2+y,1/2-z
1/2-x,1/2-y,-z
1/2+x,1/2-y,1/2+z
loop_
_atom_site_type_symbol
_atom_site_label
_atom_site_fract_x
_atom_site_fract_y
_atom_site_fract_z
Si Si1 0.243360 0.846138 0.031406
Si Si2 0.959566 0.441666 0.614761
Si Si3 0.200570 0.222522 0.168856
Si Si4 0.312092 0.737351 0.181102
Si Si5 0.163820 0.128217 0.811289
Si Si6 0.202913 0.193966 0.062738
Si Si7 0.066220 0.619450 0.935991
Si Si8 0.120807 0.451671 0.751933
O O1 0.357155 0.859767 0.039578
O O2 0.043949 0.861378 0.113919
O O3 0.250000 0.750000 0.000000
O O4 0.339441 0.919431 0.965915
O O5 0.835315 0.353669 0.644142
O O6 0.887322 0.526203 0.607830
O O7 0.959430 0.458048 0.669546
O O8 0.244639 0.318925 0.177682
O O9 0.230120 0.236604 0.104382
O O10 0.000000 0.195863 0.250000
O O11 0.242394 0.814836 0.240862
O O12 0.493050 0.684597 0.133573
O O13 0.362872 0.794733 0.118443
O O14 0.173824 0.654698 0.224286
O O15 0.216148 0.021426 0.797564
O O16 0.250000 0.250000 0.000000
O O17 0.353277 0.115793 0.011277
O O18 0.000000 0.482197 0.750000
#
# Coordination Sequence:
#
# PCOD9290762 Si02
#       8
#     8   8   8   8   8   8   8   8
#     4  12  25  44  72 103 149 186 234 291 363 420
#     4  12  25  46  68 109 137 185 239 293 350 429
#     4  12  22  42  74  97 139 187 236 289 352 418
#     4  11  24  45  69 102 140 181 241 293 350 423
#     4  12  25  45  71 103 140 187 236 289 357 426
#     4  10  22  41  69  98 135 179 232 284 354 413
#     4  11  25  43  73 100 143 187 232 294 356 419
#     4  12  28  47  72 102 144 185 236 298 356 421
#
# _framework density 20.196375
#
# number of rings (size 3 to 8) (size 9 to 14) (size 15 to 20)
#    0.000    0.500    6.250    0.750    5.250    1.000 
#    0.000    0.625    0.000    0.000    0.000    0.000 
#    0.000    0.000    0.000    0.000    0.000    0.000 
#
# Total GULP energy -178405.595128 kJ/mol
# GULP energy per Si atom -5575.174848 kJ/mol
# Density = 2.015041 g / cm^3
# Si number density = 20.196375 Si / 1000 Ang^3
#
#
#
# Elastic Constant Matrix: (Units=GPa)
#
#
# Indices 1 2 3 4 5 6 
#
# 1 92.8467 16.6726 50.6083 0.0001 11.2912 0.0000
# 2 16.6726 87.8448 17.4065 0.0000 6.7242 0.0000
# 3 50.6083 17.4065 114.6976 -0.0005 5.6435 0.0005
# 4 0.0001 0.0000 -0.0005 35.7354 0.0001 -1.1504
# 5 11.2912 6.7242 5.6435 0.0001 41.3943 -0.0002
# 6 0.0000 0.0000 0.0005 -1.1504 -0.0002 15.7456
#
#
#
# Elastic Compliance Matrix: (Units=1/GPa)
#
#
# Indices 1 2 3 4 5 6 
#
# 1 0.014722 -0.001350 -0.006146 0.000000 -0.002959 0.000000
# 2 -0.001350 0.011977 -0.001152 0.000000 -0.001420 0.000000
# 3 -0.006146 -0.001152 0.011591 0.000000 0.000283 0.000000
# 4 0.000000 0.000000 0.000000 0.028049 0.000000 0.002049
# 5 -0.002959 -0.001420 0.000283 0.000000 0.025157 0.000000
# 6 0.000000 0.000000 0.000000 0.002049 0.000000 0.063659
#
#
# Mechanical properties :
#
#
# Convention : Reuss Voigt Hill
#
# Bulk Modulus (GPa) = 47.62997 51.64044 49.63520
# Shear Modulus (GPa) = 27.86289 32.62185 30.24237
#
# Velocity S-wave (km/s) = 3.71832 4.02336 3.87384
# Velocity P-wave (km/s) = 6.48608 6.87080 6.68121
#
# Compressibility (1/GPa) = 0.02099518
#
# Stress axis : x y z
#
# Youngs Moduli (GPa) = 67.92340 83.49375 86.27301
#
# Poissons Ratio (x) = 0.11272 0.53020
# Poissons Ratio (y) = 0.09170 0.09939
# Poissons Ratio (z) = 0.41743 0.09619
#
# Static dielectric constant tensor:
#      x y z
#    x 1.752490 0.000000 0.002900 
#    y 0.000000 1.721420 0.000000 
#    z 0.002900 0.000000 1.766400 
# 
# From -- ./inp_files/198364.got.cif
#   From: 2010.05.17/outbox.cif.g08.bks.cpg/sg15_100_cif.got.tgz:198364.got - 2010.06.03 18:47:42.
