data_PCOD9290809
_publ_section_title
;
Structure prediction by ZEFSAII (Michael W. Deem and Ramdas Pophale) SiO2 
 PCOD9290809
Probable space group: C 2/C
;
_chemical_formula_sum "Si O2"
_cell_formula_units_Z 52
_cell_length_a 17.530162
_cell_length_b 25.429842
_cell_length_c 9.679438
_cell_angle_alpha 90.000000
_cell_angle_beta 142.192994
_cell_angle_gamma 90.000000
_cell_volume 2645.104331
_symmetry_space_group_name_H-M "C 2/C"
_symmetry_group_IT_number 15
_symmetry_cell_setting 'monoclinic'
loop_
_space_group_symop_operation_xyz
x,y,z
-x,y,1/2-z
-x,-y,-z
x,-y,1/2+z
1/2+x,1/2+y,z
1/2-x,1/2+y,1/2-z
1/2-x,1/2-y,-z
1/2+x,1/2-y,1/2+z
loop_
_atom_site_type_symbol
_atom_site_label
_atom_site_fract_x
_atom_site_fract_y
_atom_site_fract_z
Si Si1 0.429919 0.348160 0.871239
Si Si2 0.000000 0.457486 0.250000
Si Si3 0.500000 0.600487 0.750000
Si Si4 0.000000 0.081470 0.250000
Si Si5 0.664237 0.511041 0.855866
Si Si6 0.312889 0.978969 0.304791
Si Si7 0.399296 0.764051 0.233382
Si Si8 0.176267 0.621848 0.842096
O O1 0.531743 0.378439 0.921047
O O2 0.445994 0.285581 0.888578
O O3 0.303133 0.362933 0.605456
O O4 0.431787 0.367246 0.031407
O O5 0.899686 0.416936 0.167144
O O6 0.068377 0.495194 0.455892
O O7 0.590552 0.562148 0.794902
O O8 0.909012 0.040320 0.196751
O O9 0.698174 0.509073 0.744648
O O10 0.787177 0.508757 0.124880
O O11 0.312517 0.916584 0.274328
O O12 0.500000 0.765488 0.250000
O O13 0.393688 0.823247 0.284186
O O14 0.250000 0.750000 0.000000
#
# Coordination Sequence:
#
# PCOD9290809 Si02
#       8
#     8   4   4   4   8   8   8   8
#     4  11  22  41  64  93 125 161 219 268 327 382
#     4  12  22  39  63  85 123 168 206 256 318 384
#     4  11  24  36  61  93 132 166 195 264 340 392
#     4  11  18  37  64  90 123 172 205 264 318 396
#     4  11  23  36  58  91 132 164 205 255 330 398
#     4  12  23  40  57  92 129 166 214 261 314 392
#     4  10  22  41  70  96 120 169 232 274 323 382
#     4  11  23  41  64  89 124 170 216 264 315 388
#
# _framework density 19.65896
#
# number of rings (size 3 to 8) (size 9 to 14) (size 15 to 20)
#    0.000    0.923    4.615    3.231    0.000    2.462 
#    0.000    0.769    0.000    4.615    0.000    0.000 
#    0.000    0.000    0.000    0.000    0.000    0.000 
#
# Total GULP energy -144827.017518 kJ/mol
# GULP energy per Si atom -5570.269905 kJ/mol
# Density = 1.961422 g / cm^3
# Si number density = 19.658960 Si / 1000 Ang^3
#
#
#
# Elastic Constant Matrix: (Units=GPa)
#
#
# Indices 1 2 3 4 5 6 
#
# 1 92.9246 35.0908 2.9153 0.0000 -2.1902 0.0000
# 2 35.0908 176.4550 47.0903 0.0000 -7.7404 0.0000
# 3 2.9153 47.0903 53.6593 0.0000 -2.8478 0.0000
# 4 0.0000 0.0000 0.0000 12.5035 0.0000 2.5430
# 5 -2.1902 -7.7404 -2.8478 0.0000 31.4771 0.0000
# 6 0.0000 0.0000 0.0000 2.5430 0.0000 26.5868
#
#
#
# Elastic Compliance Matrix: (Units=1/GPa)
#
#
# Indices 1 2 3 4 5 6 
#
# 1 0.011777 -0.002824 0.001854 0.000000 0.000293 0.000000
# 2 -0.002824 0.008126 -0.006915 0.000000 0.001176 0.000000
# 3 0.001854 -0.006915 0.024639 0.000000 0.000658 0.000000
# 4 0.000000 0.000000 0.000000 0.081565 0.000000 -0.007802
# 5 0.000293 0.001176 0.000658 0.000000 0.032138 0.000000
# 6 0.000000 0.000000 0.000000 -0.007802 0.000000 0.038359
#
#
# Mechanical properties :
#
#
# Convention : Reuss Voigt Hill
#
# Bulk Modulus (GPa) = 34.75737 54.80351 44.78044
# Shear Modulus (GPa) = 22.52625 29.97632 26.25128
#
# Velocity S-wave (km/s) = 3.38872 3.90913 3.65819
# Velocity P-wave (km/s) = 5.74715 6.95073 6.37740
#
# Compressibility (1/GPa) = 0.02877087
#
# Stress axis : x y z
#
# Youngs Moduli (GPa) = 84.91482 123.06547 40.58628
#
# Poissons Ratio (x) = 0.34752 -0.07524
# Poissons Ratio (y) = 0.23979 0.28066
# Poissons Ratio (z) = -0.15742 0.85102
#
# Static dielectric constant tensor:
#      x y z
#    x 1.842200 0.000000 0.087310 
#    y 0.000000 1.690510 0.000000 
#    z 0.087310 0.000000 1.750990 
# 
# From -- ./inp_files/33767.got.cif
#   From: 2010.05.17/outbox.cif.g08.bks.cpg/sg15_17_cif.got.tgz:33767.got - 2010.06.03 18:47:42.
