data_PCOD9290336
_publ_section_title
;
Structure prediction by ZEFSAII (Michael W. Deem and Ramdas Pophale) SiO2 
 PCOD9290336
Probable space group: C 2/C
;
_chemical_formula_sum "Si O2"
_cell_formula_units_Z 48
_cell_length_a 12.170320
_cell_length_b 8.167467
_cell_length_c 23.001533
_cell_angle_alpha 90.000000
_cell_angle_beta 120.382810
_cell_angle_gamma 90.000000
_cell_volume 1972.370840
_symmetry_space_group_name_H-M "C 2/C"
_symmetry_group_IT_number 15
_symmetry_cell_setting 'monoclinic'
loop_
_space_group_symop_operation_xyz
x,y,z
-x,y,1/2-z
-x,-y,-z
x,-y,1/2+z
1/2+x,1/2+y,z
1/2-x,1/2+y,1/2-z
1/2-x,1/2-y,-z
1/2+x,1/2-y,1/2+z
loop_
_atom_site_type_symbol
_atom_site_label
_atom_site_fract_x
_atom_site_fract_y
_atom_site_fract_z
Si Si1 0.204733 0.214677 0.309107
Si Si2 0.950701 0.678288 0.007018
Si Si3 0.972095 0.301467 0.841332
Si Si4 0.888796 0.831782 0.537371
Si Si5 0.990092 0.664230 0.827677
Si Si6 0.311783 0.409890 0.111554
O O1 0.337510 0.279336 0.320412
O O2 0.104207 0.210031 0.229448
O O3 0.128370 0.327024 0.334238
O O4 0.225892 0.046607 0.350634
O O5 0.956066 0.672779 0.077801
O O6 0.809600 0.691265 0.942921
O O7 0.000000 0.500000 0.000000
O O8 0.047930 0.816198 0.008858
O O9 0.941498 0.480700 0.808805
O O10 0.073932 0.198592 0.832863
O O11 0.750000 0.750000 0.500000
O O12 0.985787 0.721837 0.601077
O O13 0.867835 0.994224 0.569787
#
# Coordination Sequence:
#
# PCOD9290336 Si02
#       6
#     8   8   8   8   8   8
#     4  10  23  44  63  90 132 175 217 270 327 385
#     4  12  20  39  69 100 136 168 208 276 332 388
#     4  12  24  42  69  99 130 172 224 270 330 398
#     4  11  20  38  66  94 130 171 207 264 333 386
#     4  10  22  41  65  90 127 173 217 267 328 388
#     4  11  24  40  66 100 131 172 222 267 326 400
#
# _framework density 24.336196000000001
#
# number of rings (size 3 to 8) (size 9 to 14) (size 15 to 20)
#    0.000    1.000    5.000    1.500    0.000    6.000 
#    0.000   11.667    0.000    0.000    0.000    0.000 
#    0.000    0.000    0.000    0.000    0.000    0.000 
#
# Total GULP energy -134220.257699 kJ/mol
# GULP energy per Si atom -5592.510737 kJ/mol
# Density = 2.428081 g / cm^3
# Si number density = 24.336196 Si / 1000 Ang^3
#
#
#
# Elastic Constant Matrix: (Units=GPa)
#
#
# Indices 1 2 3 4 5 6 
#
# 1 107.4748 7.5319 7.4294 0.0000 31.5951 0.0000
# 2 7.5319 45.5837 -0.3567 0.0000 8.1544 0.0000
# 3 7.4294 -0.3567 81.4709 0.0000 11.8870 0.0000
# 4 0.0000 0.0000 0.0000 17.8658 0.0000 6.5151
# 5 31.5951 8.1544 11.8870 0.0000 36.0687 0.0000
# 6 0.0000 0.0000 0.0000 6.5151 0.0000 34.1628
#
#
#
# Elastic Compliance Matrix: (Units=1/GPa)
#
#
# Indices 1 2 3 4 5 6 
#
# 1 0.012550 -0.000078 0.000480 0.000000 -0.011134 0.000000
# 2 -0.000078 0.022925 0.000897 0.000000 -0.005410 0.000000
# 3 0.000480 0.000897 0.012948 0.000000 -0.004890 0.000000
# 4 0.000000 0.000000 0.000000 0.060156 0.000000 -0.011472
# 5 -0.011134 -0.005410 -0.004890 0.000000 0.040312 0.000000
# 6 0.000000 0.000000 0.000000 -0.011472 0.000000 0.031459
#
#
# Mechanical properties :
#
#
# Convention : Reuss Voigt Hill
#
# Bulk Modulus (GPa) = 19.60017 29.30429 24.45223
# Shear Modulus (GPa) = 25.67242 32.28112 28.97677
#
# Velocity S-wave (km/s) = 3.25146 3.64602 3.45438
# Velocity P-wave (km/s) = 4.70822 5.45822 5.09704
#
# Compressibility (1/GPa) = 0.05101997
#
# Stress axis : x y z
#
# Youngs Moduli (GPa) = 79.68197 43.61973 77.23202
#
# Poissons Ratio (x) = 0.00341 -0.03705
# Poissons Ratio (y) = 0.00623 -0.06927
# Poissons Ratio (z) = -0.03822 -0.03912
#
# Static dielectric constant tensor:
#      x y z
#    x 1.933360 0.000000 -0.027190 
#    y 0.000000 2.030390 0.000000 
#    z -0.027190 0.000000 1.952560 
# 
# From -- ./inp_files/291299.got.cif
#   From: 2010.05.17/outbox.cif.g08.bks.cpg/sg15_146_cif.got.tgz:291299.got - 2010.06.03 18:47:42.
