data_PCOD9290998
_publ_section_title
;
Structure prediction by ZEFSAII (Michael W. Deem and Ramdas Pophale) SiO2 
 PCOD9290998
Probable space group: C 2/C
;
_chemical_formula_sum "Si O2"
_cell_formula_units_Z 36
_cell_length_a 7.396077
_cell_length_b 27.084069
_cell_length_c 9.520401
_cell_angle_alpha 90.000000
_cell_angle_beta 88.361441
_cell_angle_gamma 90.000000
_cell_volume 1906.307500
_symmetry_space_group_name_H-M "C 2/C"
_symmetry_group_IT_number 15
_symmetry_cell_setting 'monoclinic'
loop_
_space_group_symop_operation_xyz
x,y,z
-x,y,1/2-z
-x,-y,-z
x,-y,1/2+z
1/2+x,1/2+y,z
1/2-x,1/2+y,1/2-z
1/2-x,1/2-y,-z
1/2+x,1/2-y,1/2+z
loop_
_atom_site_type_symbol
_atom_site_label
_atom_site_fract_x
_atom_site_fract_y
_atom_site_fract_z
Si Si1 0.011119 0.058179 0.025379
Si Si2 0.836688 0.691706 0.653428
Si Si3 0.282222 0.094218 0.251764
Si Si4 0.816681 0.701392 0.328844
Si Si5 0.500000 0.375263 0.250000
O O1 0.827589 0.074304 0.110854
O O2 0.181249 0.070016 0.122234
O O3 0.031857 0.089617 0.883246
O O4 0.000000 0.000000 0.000000
O O5 0.860391 0.683864 0.486397
O O6 0.808452 0.750827 0.666366
O O7 0.665580 0.660608 0.708470
O O8 0.000000 0.677018 0.750000
O O9 0.500000 0.086787 0.250000
O O10 0.247534 0.153224 0.249645
O O11 0.000000 0.717672 0.250000
#
# Coordination Sequence:
#
# PCOD9290998 Si02
#       5
#     8   8   8   8   4
#     4  11  25  45  69  93 128 173 223 275 329 381
#     4  11  25  39  63  98 134 176 213 266 322 388
#     4  10  23  43  68  96 126 173 216 266 326 396
#     4  10  22  42  62  96 133 173 222 251 327 397
#     4  12  24  42  62 102 134 162 218 278 324 378
#
# _framework density 18.884675000000001
#
# number of rings (size 3 to 8) (size 9 to 14) (size 15 to 20)
#    0.000    1.333    3.333    1.333    9.333    1.778 
#    0.000    2.222    0.000    0.000    0.000    0.000 
#    0.000    0.000    0.000    0.000    0.000    0.000 
#
# Total GULP energy -100501.603482 kJ/mol
# GULP energy per Si atom -5583.422416 kJ/mol
# Density = 1.884169 g / cm^3
# Si number density = 18.884675 Si / 1000 Ang^3
#
#
#
# Elastic Constant Matrix: (Units=GPa)
#
#
# Indices 1 2 3 4 5 6 
#
# 1 110.9588 29.4683 61.1040 0.0000 2.0089 0.0000
# 2 29.4683 107.0223 32.7081 0.0000 18.1774 0.0000
# 3 61.1040 32.7081 135.3757 0.0000 3.9859 0.0000
# 4 0.0000 0.0000 0.0000 26.2938 0.0000 3.4638
# 5 2.0089 18.1774 3.9859 0.0000 28.5244 0.0000
# 6 0.0000 0.0000 0.0000 3.4638 0.0000 18.9806
#
#
#
# Elastic Compliance Matrix: (Units=1/GPa)
#
#
# Indices 1 2 3 4 5 6 
#
# 1 0.012349 -0.002030 -0.005117 0.000000 0.001139 0.000000
# 2 -0.002030 0.011609 -0.001682 0.000000 -0.007020 0.000000
# 3 -0.005117 -0.001682 0.010102 0.000000 0.000021 0.000000
# 4 0.000000 0.000000 0.000000 0.038969 0.000000 -0.007111
# 5 0.001139 -0.007020 0.000021 0.000000 0.039448 0.000000
# 6 0.000000 0.000000 0.000000 -0.007111 0.000000 0.053983
#
#
# Mechanical properties :
#
#
# Convention : Reuss Voigt Hill
#
# Bulk Modulus (GPa) = 60.96576 66.65751 63.81163
# Shear Modulus (GPa) = 26.37345 30.09819 28.23582
#
# Velocity S-wave (km/s) = 3.74110 3.99656 3.87094
# Velocity P-wave (km/s) = 7.14244 7.52798 7.33774
#
# Compressibility (1/GPa) = 0.01640265
#
# Stress axis : x y z
#
# Youngs Moduli (GPa) = 80.98077 86.13919 98.98820
#
# Poissons Ratio (x) = 0.17484 0.50651
# Poissons Ratio (y) = 0.16437 0.16650
# Poissons Ratio (z) = 0.41437 0.14489
#
# Static dielectric constant tensor:
#      x y z
#    x 1.648040 0.000000 -0.004630 
#    y 0.000000 1.639520 0.000000 
#    z -0.004630 0.000000 1.655950 
# 
# From -- ./inp_files/23075.got.cif
#   From: 2010.05.17/outbox.cif.g08.bks.cpg/sg15_12_cif.got.tgz:23075.got - 2010.06.03 18:47:42.
