data_PCOD9290767
_publ_section_title
;
Structure prediction by ZEFSAII (Michael W. Deem and Ramdas Pophale) SiO2 
 PCOD9290767
Probable space group: C 2/C
;
_chemical_formula_sum "Si O2"
_cell_formula_units_Z 64
_cell_length_a 29.519158
_cell_length_b 11.373141
_cell_length_c 18.131289
_cell_angle_alpha 90.000000
_cell_angle_beta 28.459326
_cell_angle_gamma 90.000000
_cell_volume 2900.732396
_symmetry_space_group_name_H-M "C 2/C"
_symmetry_group_IT_number 15
_symmetry_cell_setting 'monoclinic'
loop_
_space_group_symop_operation_xyz
x,y,z
-x,y,1/2-z
-x,-y,-z
x,-y,1/2+z
1/2+x,1/2+y,z
1/2-x,1/2+y,1/2-z
1/2-x,1/2-y,-z
1/2+x,1/2-y,1/2+z
loop_
_atom_site_type_symbol
_atom_site_label
_atom_site_fract_x
_atom_site_fract_y
_atom_site_fract_z
Si Si1 0.760772 0.541337 0.267574
Si Si2 0.360169 0.156774 0.247068
Si Si3 0.240464 0.011117 0.516857
Si Si4 0.144999 0.585730 0.514990
Si Si5 0.626739 0.271000 0.916253
Si Si6 0.942679 0.908228 0.134506
Si Si7 0.734950 0.324822 0.395791
Si Si8 0.485317 0.915930 0.853641
O O1 0.851515 0.572355 0.188372
O O2 0.778220 0.548680 0.156378
O O3 0.695924 0.656143 0.369338
O O4 0.713162 0.423695 0.365427
O O5 0.266131 0.124865 0.430063
O O6 0.384580 0.290788 0.189669
O O7 0.439904 0.109961 0.189709
O O8 0.137783 0.026087 0.701930
O O9 0.322462 0.987940 0.460425
O O10 0.244776 0.898140 0.456555
O O11 0.157643 0.722717 0.512111
O O12 0.046377 0.548897 0.618016
O O13 0.671300 0.240181 0.772027
O O14 0.530111 0.345279 0.051121
O O15 0.607093 0.147699 0.982013
O O16 0.000000 0.000000 0.000000
O O17 0.500000 0.864897 0.750000
#
# Coordination Sequence:
#
# PCOD9290767 Si02
#       8
#     8   8   8   8   8   8   8   8
#     4  10  22  41  69  99 131 180 231 283 350 419
#     4  10  24  42  69 101 137 180 236 289 341 420
#     4  11  23  43  72  98 141 180 238 278 358 414
#     4  11  22  39  68  94 138 179 227 282 347 419
#     4  10  23  42  68  96 140 175 230 286 345 412
#     4  11  24  42  67 106 139 181 227 292 349 412
#     4  10  22  43  66 100 133 184 224 286 350 415
#     4  11  22  41  64 102 132 177 231 288 340 402
#
# _framework density 22.063393000000001
#
# number of rings (size 3 to 8) (size 9 to 14) (size 15 to 20)
#    0.000    1.500    2.500    2.250    1.750    6.500 
#    2.250    2.500    0.000    0.000    0.000    0.000 
#    0.000    0.000    0.000    0.000    0.000    0.000 
#
# Total GULP energy -178183.620959 kJ/mol
# GULP energy per Si atom -5568.238155 kJ/mol
# Density = 2.201318 g / cm^3
# Si number density = 22.063393 Si / 1000 Ang^3
#
#
#
# Elastic Constant Matrix: (Units=GPa)
#
#
# Indices 1 2 3 4 5 6 
#
# 1 75.4557 36.9788 12.1451 0.0000 10.0933 0.0000
# 2 36.9788 113.1572 26.2026 -0.0001 5.0750 0.0000
# 3 12.1451 26.2026 78.1505 0.0000 5.2729 0.0000
# 4 0.0000 -0.0001 0.0000 14.7080 0.0000 22.1811
# 5 10.0933 5.0750 5.2729 0.0000 27.1772 0.0000
# 6 0.0000 0.0000 0.0000 22.1811 0.0000 21.5671
#
#
#
# Elastic Compliance Matrix: (Units=1/GPa)
#
#
# Indices 1 2 3 4 5 6 
#
# 1 0.016486 -0.005037 -0.000531 0.000000 -0.005079 0.000000
# 2 -0.005037 0.011158 -0.002983 0.000000 0.000366 0.000000
# 3 -0.000531 -0.002983 0.014011 0.000000 -0.001964 0.000000
# 4 0.000000 0.000000 0.000000 -0.123386 0.000000 0.126899
# 5 -0.005079 0.000366 -0.001964 0.000000 0.038995 0.000000
# 6 0.000000 0.000000 0.000000 0.126899 0.000000 -0.084145
#
#
# Mechanical properties :
#
#
# Convention : Reuss Voigt Hill
#
# Bulk Modulus (GPa) = 40.72659 46.37959 43.55309
# Shear Modulus (GPa) = -49.21447 25.45291 -11.88078
#
# Velocity S-wave (km/s) = -4.72804 3.40019 -2.32304
# Velocity P-wave (km/s) = 3.36257 6.04001 3.54788
#
# Compressibility (1/GPa) = 0.02455398
#
# Stress axis : x y z
#
# Youngs Moduli (GPa) = 60.65733 89.62533 71.37287
#
# Poissons Ratio (x) = 0.45143 0.03787
# Poissons Ratio (y) = 0.30552 0.21290
# Poissons Ratio (z) = 0.03218 0.26734
#
# Static dielectric constant tensor:
#      x y z
#    x 1.825140 0.000000 0.013670 
#    y 0.000000 1.858140 0.000000 
#    z 0.013670 0.000000 1.975300 
# 
# From -- ./inp_files/225176.got.cif
#   From: 2010.05.17/outbox.cif.g08.bks.cpg/sg15_113_cif.got.tgz:225176.got - 2010.06.03 18:47:42.
