data_PCOD9290452
_publ_section_title
;
Structure prediction by ZEFSAII (Michael W. Deem and Ramdas Pophale) SiO2 
 PCOD9290452
Probable space group: C 2/C
;
_chemical_formula_sum "Si O2"
_cell_formula_units_Z 48
_cell_length_a 9.970197
_cell_length_b 25.327114
_cell_length_c 11.985718
_cell_angle_alpha 90.000000
_cell_angle_beta 144.558592
_cell_angle_gamma 90.000000
_cell_volume 1755.028728
_symmetry_space_group_name_H-M "C 2/C"
_symmetry_group_IT_number 15
_symmetry_cell_setting 'monoclinic'
loop_
_space_group_symop_operation_xyz
x,y,z
-x,y,1/2-z
-x,-y,-z
x,-y,1/2+z
1/2+x,1/2+y,z
1/2-x,1/2+y,1/2-z
1/2-x,1/2-y,-z
1/2+x,1/2-y,1/2+z
loop_
_atom_site_type_symbol
_atom_site_label
_atom_site_fract_x
_atom_site_fract_y
_atom_site_fract_z
Si Si1 0.790021 0.401247 0.336952
Si Si2 0.092254 0.804489 0.103706
Si Si3 0.000000 0.447100 0.250000
Si Si4 0.110050 0.708584 0.977682
Si Si5 0.243090 0.110018 0.211190
Si Si6 0.000000 0.119918 0.250000
Si Si7 0.399357 0.475678 0.046464
O O1 0.631462 0.348177 0.228428
O O2 0.883380 0.414963 0.273960
O O3 0.003613 0.391164 0.564000
O O4 0.636402 0.452410 0.263229
O O5 0.047402 0.741853 0.049781
O O6 0.364855 0.804919 0.259455
O O7 0.886278 0.833793 0.897546
O O8 0.192984 0.484464 0.438446
O O9 0.279991 0.658707 0.091415
O O10 0.250000 0.750000 0.000000
O O11 0.072578 0.086862 0.192200
O O12 0.226016 0.076924 0.087625
O O13 0.500000 0.500000 0.000000
#
# Coordination Sequence:
#
# PCOD9290452 Si02
#       7
#     8   8   4   8   8   4   8
#     4  10  23  38  59  81 118 153 198 233 290 344
#     4  11  22  34  47  79 121 161 192 227 260 333
#     4  10  22  41  66  80 110 152 194 253 300 338
#     4  12  20  29  47  76 121 161 198 213 258 345
#     4  11  23  35  53  78 113 153 195 234 279 337
#     4  12  22  29  52  78 114 166 190 217 278 330
#     4   9  22  41  56  83 111 140 194 250 290 349
#
# _framework density 27.349981
#
# number of rings (size 3 to 8) (size 9 to 14) (size 15 to 20)
#    0.000    1.333    5.000    0.000    9.333    2.667 
#    0.000    5.833    0.000    0.000    0.000    0.000 
#    0.000   48.000    0.000    1.000    0.000    0.000 
#
# Total GULP energy -133678.142752 kJ/mol
# GULP energy per Si atom -5569.922615 kJ/mol
# Density = 2.728773 g / cm^3
# Si number density = 27.349981 Si / 1000 Ang^3
#
#
#
# Elastic Constant Matrix: (Units=GPa)
#
#
# Indices 1 2 3 4 5 6 
#
# 1 87.8541 32.5290 10.3023 0.0000 21.0400 0.0000
# 2 32.5290 110.3513 74.4384 0.0000 15.1568 0.0000
# 3 10.3023 74.4384 264.1288 0.0000 7.6933 0.0000
# 4 0.0000 0.0000 0.0000 65.5443 0.0000 6.7773
# 5 21.0400 15.1568 7.6933 0.0000 17.9888 0.0000
# 6 0.0000 0.0000 0.0000 6.7773 0.0000 15.8235
#
#
#
# Elastic Compliance Matrix: (Units=1/GPa)
#
#
# Indices 1 2 3 4 5 6 
#
# 1 0.016496 -0.002987 0.000696 0.000000 -0.017075 0.000000
# 2 -0.002987 0.013060 -0.003388 0.000000 -0.006062 0.000000
# 3 0.000696 -0.003388 0.004713 0.000000 0.000025 0.000000
# 4 0.000000 0.000000 0.000000 0.015964 0.000000 -0.006837
# 5 -0.017075 -0.006062 0.000025 0.000000 0.080659 0.000000
# 6 0.000000 0.000000 0.000000 -0.006837 0.000000 0.066126
#
#
# Mechanical properties :
#
#
# Convention : Reuss Voigt Hill
#
# Bulk Modulus (GPa) = 43.64546 77.43039 60.53792
# Shear Modulus (GPa) = 23.14686 42.87560 33.01123
#
# Velocity S-wave (km/s) = 2.91232 3.96367 3.47795
# Velocity P-wave (km/s) = 5.22509 7.02282 6.18957
#
# Compressibility (1/GPa) = 0.02291189
#
# Stress axis : x y z
#
# Youngs Moduli (GPa) = 60.62049 76.56887 212.18410
#
# Poissons Ratio (x) = 0.22868 -0.14760
# Poissons Ratio (y) = 0.18105 0.71880
# Poissons Ratio (z) = -0.04217 0.25939
#
# Static dielectric constant tensor:
#      x y z
#    x 2.385450 0.000000 -0.195410 
#    y 0.000000 2.312680 0.000000 
#    z -0.195410 0.000000 2.284540 
# 
# From -- ./inp_files/148864.got.cif
#   From: 2010.05.17/outbox.cif.g08.bks.cpg/sg15_75_cif.got.tgz:148864.got - 2010.06.03 18:47:42.
