data_PCOD9290882
_publ_section_title
;
Structure prediction by ZEFSAII (Michael W. Deem and Ramdas Pophale) SiO2 
 PCOD9290882
Probable space group: C 2/C
;
_chemical_formula_sum "Si O2"
_cell_formula_units_Z 40
_cell_length_a 18.519646
_cell_length_b 17.051083
_cell_length_c 11.710197
_cell_angle_alpha 90.000000
_cell_angle_beta 26.925349
_cell_angle_gamma 90.000000
_cell_volume 1674.492825
_symmetry_space_group_name_H-M "C 2/C"
_symmetry_group_IT_number 15
_symmetry_cell_setting 'monoclinic'
loop_
_space_group_symop_operation_xyz
x,y,z
-x,y,1/2-z
-x,-y,-z
x,-y,1/2+z
1/2+x,1/2+y,z
1/2-x,1/2+y,1/2-z
1/2-x,1/2-y,-z
1/2+x,1/2-y,1/2+z
loop_
_atom_site_type_symbol
_atom_site_label
_atom_site_fract_x
_atom_site_fract_y
_atom_site_fract_z
Si Si1 0.650477 0.841559 0.874644
Si Si2 0.666265 0.831410 0.587296
Si Si3 0.151356 0.845231 0.387115
Si Si4 0.876139 0.441646 0.238273
Si Si5 0.869047 0.060526 0.230533
O O1 0.646133 0.860307 0.744566
O O2 0.672490 0.748954 0.868118
O O3 0.478862 0.873354 0.153391
O O4 0.781840 0.894961 0.750096
O O5 0.500000 0.825409 0.750000
O O6 0.750000 0.750000 0.500000
O O7 0.790454 0.866458 0.322902
O O8 0.969692 0.872320 0.654879
O O9 0.263119 0.897808 0.308267
O O10 0.237775 0.475211 0.001834
O O11 0.000000 0.500000 0.000000
O O12 0.000000 0.000000 0.000000
#
# Coordination Sequence:
#
# PCOD9290882 Si02
#       5
#     8   8   8   8   8
#     4  11  25  47  79 112 150 198 258 318 380 450
#     4  10  22  41  73 115 151 195 245 311 387 450
#     4  11  25  46  77 113 149 194 260 320 377 449
#     4  12  27  50  76 105 155 208 247 312 392 460
#     4  12  29  48  74 112 154 204 254 314 386 459
#
# _framework density 23.887830000000001
#
# number of rings (size 3 to 8) (size 9 to 14) (size 15 to 20)
#    0.000    0.800    2.000    3.600   11.200    4.800 
#    0.000    0.000    0.000    0.000    0.000    0.000 
#    0.000    0.000    0.000    0.000    0.000    0.000 
#
# Total GULP energy -111748.752101 kJ/mol
# GULP energy per Si atom -5587.437605 kJ/mol
# Density = 2.383346 g / cm^3
# Si number density = 23.887830 Si / 1000 Ang^3
#
#
#
# Elastic Constant Matrix: (Units=GPa)
#
#
# Indices 1 2 3 4 5 6 
#
# 1 171.4755 59.1135 59.7706 0.0002 -11.5319 -0.0001
# 2 59.1135 139.6246 61.8307 0.0004 10.5253 -0.0001
# 3 59.7706 61.8307 142.0743 0.0016 8.4006 -0.0002
# 4 0.0002 0.0004 0.0016 37.5864 0.0000 -1.0628
# 5 -11.5319 10.5253 8.4006 0.0000 58.4790 0.0001
# 6 -0.0001 -0.0001 -0.0002 -1.0628 0.0001 36.3169
#
#
#
# Elastic Compliance Matrix: (Units=1/GPa)
#
#
# Indices 1 2 3 4 5 6 
#
# 1 0.007602 -0.002370 -0.002300 0.000000 0.002256 0.000000
# 2 -0.002370 0.009675 -0.003109 0.000000 -0.001762 0.000000
# 3 -0.002300 -0.003109 0.009433 0.000000 -0.001249 0.000000
# 4 0.000000 0.000000 0.000000 0.026627 0.000000 0.000779
# 5 0.002256 -0.001762 -0.001249 0.000000 0.018042 0.000000
# 6 0.000000 0.000000 0.000000 0.000779 0.000000 0.027558
#
#
# Mechanical properties :
#
#
# Convention : Reuss Voigt Hill
#
# Bulk Modulus (GPa) = 89.67396 90.51156 90.09276
# Shear Modulus (GPa) = 42.29594 44.64045 43.46820
#
# Velocity S-wave (km/s) = 4.21242 4.32760 4.27040
# Velocity P-wave (km/s) = 7.82818 7.93368 7.88111
#
# Compressibility (1/GPa) = 0.01115151
#
# Stress axis : x y z
#
# Youngs Moduli (GPa) = 131.53916 103.35625 106.00695
#
# Poissons Ratio (x) = 0.24496 0.24384
# Poissons Ratio (y) = 0.31176 0.32962
# Poissons Ratio (z) = 0.30257 0.32138
#
# Static dielectric constant tensor:
#      x y z
#    x 2.364630 0.000000 0.109220 
#    y 0.000000 1.903910 0.000000 
#    z 0.109220 0.000000 1.981680 
# 
# From -- ./inp_files/163411.got.cif
#   From: 2010.05.17/outbox.cif.g08.bks.cpg/sg15_82_cif.got.tgz:163411.got - 2010.06.03 18:47:42.
