data_PCOD9290987
_publ_section_title
;
Structure prediction by ZEFSAII (Michael W. Deem and Ramdas Pophale) SiO2 
 PCOD9290987
Probable space group: C 2/C
;
_chemical_formula_sum "Si O2"
_cell_formula_units_Z 40
_cell_length_a 5.000066
_cell_length_b 33.994551
_cell_length_c 12.340410
_cell_angle_alpha 90.000000
_cell_angle_beta 58.428651
_cell_angle_gamma 90.000000
_cell_volume 1787.098730
_symmetry_space_group_name_H-M "C 2/C"
_symmetry_group_IT_number 15
_symmetry_cell_setting 'monoclinic'
loop_
_space_group_symop_operation_xyz
x,y,z
-x,y,1/2-z
-x,-y,-z
x,-y,1/2+z
1/2+x,1/2+y,z
1/2-x,1/2+y,1/2-z
1/2-x,1/2-y,-z
1/2+x,1/2-y,1/2+z
loop_
_atom_site_type_symbol
_atom_site_label
_atom_site_fract_x
_atom_site_fract_y
_atom_site_fract_z
Si Si1 0.000000 0.960928 0.250000
Si Si2 0.625548 0.629504 0.050986
Si Si3 0.000000 0.253908 0.750000
Si Si4 0.841408 0.319442 0.169778
Si Si5 0.859847 0.422505 0.973093
Si Si6 0.000000 0.806030 0.750000
Si Si7 0.000000 0.517521 0.250000
O O1 0.222432 0.989042 0.272269
O O2 0.788512 0.937078 0.381833
O O3 0.367919 0.611022 0.027373
O O4 0.488588 0.664318 0.151941
O O5 0.792254 0.594890 0.082882
O O6 0.918072 0.651046 0.933364
O O7 0.244285 0.223128 0.641616
O O8 0.194278 0.279201 0.795183
O O9 0.500000 0.339434 0.250000
O O10 0.000000 0.309475 0.250000
O O11 0.891345 0.455996 0.874853
#
# Coordination Sequence:
#
# PCOD9290987 Si02
#       7
#     4   8   4   8   8   4   4
#     4  12  26  44  74 104 130 181 226 271 322 410
#     4  12  26  42  68  97 138 174 223 278 334 405
#     4  10  22  42  64  94 130 177 230 281 336 390
#     4  10  22  42  62  94 128 172 222 284 331 381
#     4  12  26  44  71 102 138 179 220 275 339 399
#     4  12  24  43  64  97 130 181 230 269 344 405
#     4  12  24  49  70 101 144 173 220 271 336 399
#
# _framework density 22.382646999999999
#
# number of rings (size 3 to 8) (size 9 to 14) (size 15 to 20)
#    0.600    0.000    1.000    7.200    4.200    1.600 
#    0.000    0.000    0.000    0.000    0.000    0.000 
#    0.000    0.000    0.000    0.000    0.000    0.000 
#
# Total GULP energy -111748.235958 kJ/mol
# GULP energy per Si atom -5587.411798 kJ/mol
# Density = 2.233170 g / cm^3
# Si number density = 22.382647 Si / 1000 Ang^3
#
#
#
# Elastic Constant Matrix: (Units=GPa)
#
#
# Indices 1 2 3 4 5 6 
#
# 1 91.6609 7.5943 -13.4044 0.0000 8.9672 0.0000
# 2 7.5943 67.1883 4.1853 0.0000 12.4523 0.0000
# 3 -13.4044 4.1853 44.5667 0.0000 2.4280 0.0000
# 4 0.0000 0.0000 0.0000 662.2040 0.0000 905.3269
# 5 8.9672 12.4523 2.4280 0.0000 21.7748 0.0000
# 6 0.0000 0.0000 0.0000 905.3269 0.0000 1233.8527
#
#
#
# Elastic Compliance Matrix: (Units=1/GPa)
#
#
# Indices 1 2 3 4 5 6 
#
# 1 0.012035 -0.000678 0.003956 0.000000 -0.005009 0.000000
# 2 -0.000678 0.016735 -0.001277 0.000000 -0.009149 0.000000
# 3 0.003956 -0.001277 0.023943 0.000000 -0.003569 0.000000
# 4 0.000000 0.000000 0.000000 -0.482968 0.000000 0.354373
# 5 -0.005009 -0.009149 -0.003569 0.000000 0.053617 0.000000
# 6 0.000000 0.000000 0.000000 0.354373 0.000000 -0.259207
#
#
# Mechanical properties :
#
#
# Convention : Reuss Voigt Hill
#
# Bulk Modulus (GPa) = 17.63236 22.24070 19.93653
# Shear Modulus (GPa) = -8.05229 397.23566 194.59169
#
# Velocity S-wave (km/s) = -1.89878 13.33642 9.33420
# Velocity P-wave (km/s) = 1.75717 15.71957 11.18465
#
# Compressibility (1/GPa) = 0.05671392
#
# Stress axis : x y z
#
# Youngs Moduli (GPa) = 83.09376 59.75386 41.76660
#
# Poissons Ratio (x) = 0.04053 -0.16524
# Poissons Ratio (y) = 0.05637 0.05335
# Poissons Ratio (z) = -0.32874 0.07632
#
# Static dielectric constant tensor:
#      x y z
#    x 1.768930 0.000000 0.026680 
#    y 0.000000 1.842260 0.000000 
#    z 0.026680 0.000000 1.832910 
# 
# From -- ./inp_files/130269.got.cif
#   From: 2010.05.17/outbox.cif.g08.bks.cpg/sg15_66_cif.got.tgz:130269.got - 2010.06.03 18:47:42.
