data_PCOD9290994
_publ_section_title
;
Structure prediction by ZEFSAII (Michael W. Deem and Ramdas Pophale) SiO2 
 PCOD9290994
Probable space group: C 2/C
;
_chemical_formula_sum "Si O2"
_cell_formula_units_Z 48
_cell_length_a 12.369458
_cell_length_b 15.301714
_cell_length_c 12.634237
_cell_angle_alpha 90.000000
_cell_angle_beta 47.290362
_cell_angle_gamma 90.000000
_cell_volume 1757.151543
_symmetry_space_group_name_H-M "C 2/C"
_symmetry_group_IT_number 15
_symmetry_cell_setting 'monoclinic'
loop_
_space_group_symop_operation_xyz
x,y,z
-x,y,1/2-z
-x,-y,-z
x,-y,1/2+z
1/2+x,1/2+y,z
1/2-x,1/2+y,1/2-z
1/2-x,1/2-y,-z
1/2+x,1/2-y,1/2+z
loop_
_atom_site_type_symbol
_atom_site_label
_atom_site_fract_x
_atom_site_fract_y
_atom_site_fract_z
Si Si1 0.874587 0.384955 0.970740
Si Si2 0.586364 0.719816 0.092772
Si Si3 0.708410 0.097284 0.293419
Si Si4 0.257492 0.561374 0.504851
Si Si5 0.917616 0.793399 0.508136
Si Si6 0.807244 0.087486 0.699417
O O1 0.886208 0.280808 0.941313
O O2 0.794947 0.383856 0.136863
O O3 0.777561 0.457381 0.972542
O O4 0.042364 0.417670 0.862879
O O5 0.500000 0.751380 0.250000
O O6 0.524358 0.751473 0.023804
O O7 0.750000 0.750000 0.000000
O O8 0.585965 0.613066 0.096252
O O9 0.698872 0.093065 0.428782
O O10 0.783419 0.174073 0.173154
O O11 0.815924 0.016211 0.200345
O O12 0.216661 0.597309 0.649077
O O13 0.032288 0.868380 0.394612
#
# Coordination Sequence:
#
# PCOD9290994 Si02
#       6
#     8   8   8   8   8   8
#     4  11  24  41  66  97 136 177 222 280 339 409
#     4  11  23  39  64  98 135 169 218 284 342 397
#     4  11  22  41  64  95 133 176 227 281 337 404
#     4  10  22  42  62  95 134 175 219 273 339 402
#     4  11  23  41  63  99 137 171 222 289 341 399
#     4  10  23  40  67  95 130 181 225 275 342 405
#
# _framework density 27.316938
#
# number of rings (size 3 to 8) (size 9 to 14) (size 15 to 20)
#    0.000    1.333    1.667    4.500    4.667    2.667 
#    0.000    0.833    0.000    4.000    0.000    1.167 
#    0.000    0.000    0.000    0.000    0.000    0.000 
#
# Total GULP energy -133778.333072 kJ/mol
# GULP energy per Si atom -5574.097211 kJ/mol
# Density = 2.725476 g / cm^3
# Si number density = 27.316938 Si / 1000 Ang^3
#
#
#
# Elastic Constant Matrix: (Units=GPa)
#
#
# Indices 1 2 3 4 5 6 
#
# 1 94.0699 64.9771 28.3614 0.0000 -7.9473 0.0000
# 2 64.9771 141.0982 25.2165 0.0000 -18.7707 0.0000
# 3 28.3614 25.2165 145.5772 0.0000 -16.2435 0.0000
# 4 0.0000 0.0000 0.0000 14.6014 0.0000 -20.8829
# 5 -7.9473 -18.7707 -16.2435 0.0000 33.8859 0.0000
# 6 0.0000 0.0000 0.0000 -20.8829 0.0000 50.7166
#
#
#
# Elastic Compliance Matrix: (Units=1/GPa)
#
#
# Indices 1 2 3 4 5 6 
#
# 1 0.016130 -0.007225 -0.002024 0.000000 -0.001189 0.000000
# 2 -0.007225 0.011000 -0.000007 0.000000 0.004396 0.000000
# 3 -0.002024 -0.000007 0.007619 0.000000 0.003173 0.000000
# 4 0.000000 0.000000 0.000000 0.166592 0.000000 0.068596
# 5 -0.001189 0.004396 0.003173 0.000000 0.033188 0.000000
# 6 0.000000 0.000000 0.000000 0.068596 0.000000 0.047962
#
#
# Mechanical properties :
#
#
# Convention : Reuss Voigt Hill
#
# Bulk Modulus (GPa) = 61.58491 68.65060 65.11775
# Shear Modulus (GPa) = 16.31765 37.32013 26.81889
#
# Velocity S-wave (km/s) = 2.44672 3.70021 3.13672
# Velocity P-wave (km/s) = 5.52951 6.59099 6.08344
#
# Compressibility (1/GPa) = 0.01623774
#
# Stress axis : x y z
#
# Youngs Moduli (GPa) = 61.99457 90.90574 131.25325
#
# Poissons Ratio (x) = 0.65677 0.26563
# Poissons Ratio (y) = 0.44789 0.00098
# Poissons Ratio (z) = 0.12546 0.00068
#
# Static dielectric constant tensor:
#      x y z
#    x 1.646400 0.000000 -0.214620 
#    y 0.000000 2.393980 0.000000 
#    z -0.214620 0.000000 1.972970 
# 
# From -- ./inp_files/155084.got.cif
#   From: 2010.05.17/outbox.cif.g08.bks.cpg/sg15_78_cif.got.tgz:155084.got - 2010.06.03 18:47:42.
