data_PCOD9290567
_publ_section_title
;
Structure prediction by ZEFSAII (Michael W. Deem and Ramdas Pophale) SiO2 
 PCOD9290567
Probable space group: C 2/C
;
_chemical_formula_sum "Si O2"
_cell_formula_units_Z 56
_cell_length_a 8.676488
_cell_length_b 11.704772
_cell_length_c 24.955960
_cell_angle_alpha 90.000000
_cell_angle_beta 109.105637
_cell_angle_gamma 90.000000
_cell_volume 2394.830281
_symmetry_space_group_name_H-M "C 2/C"
_symmetry_group_IT_number 15
_symmetry_cell_setting 'monoclinic'
loop_
_space_group_symop_operation_xyz
x,y,z
-x,y,1/2-z
-x,-y,-z
x,-y,1/2+z
1/2+x,1/2+y,z
1/2-x,1/2+y,1/2-z
1/2-x,1/2-y,-z
1/2+x,1/2-y,1/2+z
loop_
_atom_site_type_symbol
_atom_site_label
_atom_site_fract_x
_atom_site_fract_y
_atom_site_fract_z
Si Si1 0.506460 0.021765 0.369229
Si Si2 0.050018 0.900539 0.388638
Si Si3 0.772262 0.194183 0.417839
Si Si4 0.342212 0.808461 0.769493
Si Si5 0.708328 0.164849 0.838809
Si Si6 0.534279 0.628955 0.163711
Si Si7 0.627074 0.916677 0.041300
O O1 0.647897 0.092441 0.417308
O O2 0.392106 0.109082 0.324463
O O3 0.595425 0.943909 0.335090
O O4 0.413449 0.941183 0.400421
O O5 0.875097 0.860496 0.390264
O O6 0.145448 0.788411 0.379189
O O7 0.183154 0.948241 0.446059
O O8 0.028829 0.000041 0.343245
O O9 0.893922 0.147657 0.387492
O O10 0.873838 0.279345 0.468514
O O11 0.500000 0.798063 0.750000
O O12 0.278708 0.690105 0.787967
O O13 0.186715 0.856357 0.720330
O O14 0.602260 0.275466 0.841806
O O15 0.500000 0.000000 0.000000
#
# Coordination Sequence:
#
# PCOD9290567 Si02
#       7
#     8   8   8   8   8   8   8
#     4  12  23  46  70  96 145 179 228 290 338 415
#     4  10  22  41  67  93 137 168 225 280 338 404
#     4  10  22  44  67  96 136 172 222 286 331 414
#     4  12  24  42  65 102 139 183 234 271 342 412
#     4  12  23  40  67  96 135 182 222 277 338 400
#     4  12  23  41  64 101 136 181 226 271 341 407
#     4  10  24  47  74 100 132 182 230 292 360 400
#
# _framework density 23.383704000000002
#
# number of rings (size 3 to 8) (size 9 to 14) (size 15 to 20)
#    0.857    0.000    5.714    1.286    0.000    4.000 
#    0.000    5.714    0.000    0.000    0.000    0.000 
#    0.000    0.000    0.000    0.000    0.000    0.000 
#
# Total GULP energy -156202.394332 kJ/mol
# GULP energy per Si atom -5578.656940 kJ/mol
# Density = 2.333048 g / cm^3
# Si number density = 23.383704 Si / 1000 Ang^3
#
#
#
# Elastic Constant Matrix: (Units=GPa)
#
#
# Indices 1 2 3 4 5 6 
#
# 1 131.1762 41.2889 25.0872 0.0000 21.8772 0.0000
# 2 41.2889 107.5202 7.1263 0.0000 1.4042 0.0000
# 3 25.0872 7.1263 41.0963 0.0000 12.9454 0.0000
# 4 0.0000 0.0000 0.0000 14.3120 0.0000 -1.0036
# 5 21.8772 1.4042 12.9454 0.0000 32.5674 0.0000
# 6 0.0000 0.0000 0.0000 -1.0036 0.0000 50.3343
#
#
#
# Elastic Compliance Matrix: (Units=1/GPa)
#
#
# Indices 1 2 3 4 5 6 
#
# 1 0.010430 -0.003666 -0.004086 0.000000 -0.005224 0.000000
# 2 -0.003666 0.010700 -0.000283 0.000000 0.002114 0.000000
# 3 -0.004086 -0.000283 0.029731 0.000000 -0.009061 0.000000
# 4 0.000000 0.000000 0.000000 0.069969 0.000000 0.001395
# 5 -0.005224 0.002114 -0.009061 0.000000 0.037726 0.000000
# 6 0.000000 0.000000 0.000000 0.001395 0.000000 0.019895
#
#
# Mechanical properties :
#
#
# Convention : Reuss Voigt Hill
#
# Bulk Modulus (GPa) = 28.74388 47.42196 38.08292
# Shear Modulus (GPa) = 24.25810 33.19541 28.72676
#
# Velocity S-wave (km/s) = 3.22435 3.77184 3.50879
# Velocity P-wave (km/s) = 5.11673 6.26841 5.72162
#
# Compressibility (1/GPa) = 0.03479002
#
# Stress axis : x y z
#
# Youngs Moduli (GPa) = 95.87779 93.46146 33.63547
#
# Poissons Ratio (x) = 0.34265 0.13742
# Poissons Ratio (y) = 0.35151 0.00953
# Poissons Ratio (z) = 0.39172 0.02647
#
# Static dielectric constant tensor:
#      x y z
#    x 1.880190 0.000000 0.034640 
#    y 0.000000 1.883980 0.000000 
#    z 0.034640 0.000000 1.988850 
# 
# From -- ./inp_files/307237.got.cif
#   From: 2010.05.17/outbox.cif.g08.bks.cpg/sg15_154_cif.got.tgz:307237.got - 2010.06.03 18:47:42.
