data_PCOD9290835
_publ_section_title
;
Structure prediction by ZEFSAII (Michael W. Deem and Ramdas Pophale) SiO2 
 PCOD9290835
Probable space group: C 2/C
;
_chemical_formula_sum "Si O2"
_cell_formula_units_Z 52
_cell_length_a 13.755377
_cell_length_b 18.899556
_cell_length_c 16.965455
_cell_angle_alpha 90.000000
_cell_angle_beta 30.492376
_cell_angle_gamma 90.000000
_cell_volume 2238.001455
_symmetry_space_group_name_H-M "C 2/C"
_symmetry_group_IT_number 15
_symmetry_cell_setting 'monoclinic'
loop_
_space_group_symop_operation_xyz
x,y,z
-x,y,1/2-z
-x,-y,-z
x,-y,1/2+z
1/2+x,1/2+y,z
1/2-x,1/2+y,1/2-z
1/2-x,1/2-y,-z
1/2+x,1/2-y,1/2+z
loop_
_atom_site_type_symbol
_atom_site_label
_atom_site_fract_x
_atom_site_fract_y
_atom_site_fract_z
Si Si1 0.883527 0.472596 0.960402
Si Si2 0.500000 0.069638 0.750000
Si Si3 0.967387 0.889376 0.522315
Si Si4 0.425372 0.797797 0.411102
Si Si5 0.302362 0.498093 0.245283
Si Si6 0.665782 0.756677 0.871287
Si Si7 0.054203 0.328835 0.794534
O O1 0.859355 0.513602 0.893604
O O2 0.094329 0.494972 0.847542
O O3 0.906069 0.389416 0.925444
O O4 0.736912 0.488429 0.134276
O O5 0.513280 0.129857 0.672780
O O6 0.924856 0.933786 0.631433
O O7 0.757864 0.867398 0.639452
O O8 0.085151 0.818555 0.454630
O O9 0.084804 0.934566 0.376540
O O10 0.250000 0.750000 0.500000
O O11 0.395259 0.815357 0.523733
O O12 0.608964 0.748068 0.280008
O O13 0.588149 0.773900 0.840200
O O14 0.000000 0.294903 0.750000
#
# Coordination Sequence:
#
# PCOD9290835 Si02
#       7
#     8   4   8   8   8   8   8
#     4  10  22  41  71 105 136 195 240 298 364 428
#     4  12  24  40  72 102 154 178 244 300 358 428
#     4  10  22  43  70 104 143 187 244 302 363 426
#     4  12  26  46  71 108 145 191 242 303 370 446
#     4   9  21  41  72  99 137 190 246 297 361 438
#     4  12  25  45  73 106 146 198 238 301 379 436
#     4  11  25  46  71 103 148 192 250 302 357 437
#
# _framework density 23.235016999999999
#
# number of rings (size 3 to 8) (size 9 to 14) (size 15 to 20)
#    0.000    1.231    3.846    0.923    8.615    0.615 
#    0.000    0.769    0.000    0.000    0.000    0.000 
#    0.000    0.000    0.000    0.000    0.000    0.000 
#
# Total GULP energy -145061.369251 kJ/mol
# GULP energy per Si atom -5579.283433 kJ/mol
# Density = 2.318213 g / cm^3
# Si number density = 23.235017 Si / 1000 Ang^3
#
#
#
# Elastic Constant Matrix: (Units=GPa)
#
#
# Indices 1 2 3 4 5 6 
#
# 1 76.6634 32.6102 56.3042 -0.0039 6.8368 -0.0069
# 2 32.6102 100.2639 56.4454 -0.0111 13.6268 -0.0023
# 3 56.3042 56.4454 158.9855 -0.0220 40.6308 0.0043
# 4 -0.0039 -0.0111 -0.0220 16.4980 0.0070 3.2265
# 5 6.8368 13.6268 40.6308 0.0070 20.9594 0.0020
# 6 -0.0069 -0.0023 0.0043 3.2265 0.0020 28.1584
#
#
#
# Elastic Compliance Matrix: (Units=1/GPa)
#
#
# Indices 1 2 3 4 5 6 
#
# 1 0.020194 -0.003036 -0.009701 -0.000018 0.014192 0.000007
# 2 -0.003036 0.012931 -0.003211 0.000004 -0.001191 0.000000
# 3 -0.009701 -0.003211 0.018874 0.000035 -0.031336 -0.000007
# 4 -0.000018 0.000004 0.000035 0.062003 -0.000086 -0.007105
# 5 0.014192 -0.001191 -0.031336 -0.000086 0.104602 0.000011
# 6 0.000007 0.000000 -0.000007 -0.007105 0.000011 0.036327
#
#
# Mechanical properties :
#
#
# Convention : Reuss Voigt Hill
#
# Bulk Modulus (GPa) = 49.74374 69.62580 59.68477
# Shear Modulus (GPa) = 17.03410 25.82669 21.43040
#
# Velocity S-wave (km/s) = 2.71056 3.33760 3.04029
# Velocity P-wave (km/s) = 5.59031 6.69953 6.16990
#
# Compressibility (1/GPa) = 0.02010303
#
# Stress axis : x y z
#
# Youngs Moduli (GPa) = 49.51858 77.33478 52.98332
#
# Poissons Ratio (x) = 0.23476 0.51400
# Poissons Ratio (y) = 0.15032 0.17015
# Poissons Ratio (z) = 0.48039 0.24835
#
# Static dielectric constant tensor:
#      x y z
#    x 1.956560 -0.000010 0.023050 
#    y -0.000010 1.877600 0.000020 
#    z 0.023050 0.000020 1.978640 
# 
# From -- ./inp_files/206779.got.cif
#   From: 2010.05.17/outbox.cif.g08.bks.cpg/sg15_104_cif.got.tgz:206779.got - 2010.06.03 18:47:42.
