data_PCOD9290145
_publ_section_title
;
Structure prediction by ZEFSAII (Michael W. Deem and Ramdas Pophale) SiO2 
 PCOD9290145
Probable space group: C 2/C
;
_chemical_formula_sum "Si O2"
_cell_formula_units_Z 40
_cell_length_a 11.738699
_cell_length_b 7.741084
_cell_length_c 17.682516
_cell_angle_alpha 90.000000
_cell_angle_beta 72.664968
_cell_angle_gamma 90.000000
_cell_volume 1533.831283
_symmetry_space_group_name_H-M "C 2/C"
_symmetry_group_IT_number 15
_symmetry_cell_setting 'monoclinic'
loop_
_space_group_symop_operation_xyz
x,y,z
-x,y,1/2-z
-x,-y,-z
x,-y,1/2+z
1/2+x,1/2+y,z
1/2-x,1/2+y,1/2-z
1/2-x,1/2-y,-z
1/2+x,1/2-y,1/2+z
loop_
_atom_site_type_symbol
_atom_site_label
_atom_site_fract_x
_atom_site_fract_y
_atom_site_fract_z
Si Si1 0.457638 0.355774 0.951056
Si Si2 0.704937 0.419626 0.636905
Si Si3 0.873793 0.996470 0.192963
Si Si4 0.622443 0.976203 0.178013
Si Si5 0.962421 0.643728 0.092770
O O1 0.333332 0.428426 0.942724
O O2 0.541899 0.357987 0.860967
O O3 0.500000 0.500000 0.000000
O O4 0.465678 0.191271 0.003166
O O5 0.630857 0.517911 0.715802
O O6 0.841587 0.466694 0.623072
O O7 0.672166 0.217658 0.656987
O O8 0.739936 0.053684 0.194367
O O9 0.923513 0.819481 0.146293
O O10 0.500000 0.978904 0.250000
O O11 0.579504 0.068969 0.109529
#
# Coordination Sequence:
#
# PCOD9290145 Si02
#       5
#     8   8   8   8   8
#     4  10  22  41  62  95 132 177 223 270 338 397
#     4  11  22  43  67  92 134 175 223 277 330 397
#     4  10  22  42  67  96 130 179 219 272 335 397
#     4  11  22  40  65  99 129 168 231 278 329 394
#     4  10  23  41  67  97 131 174 220 278 336 393
#
# _framework density 26.078488
#
# number of rings (size 3 to 8) (size 9 to 14) (size 15 to 20)
#    0.000    1.600    2.000    2.400    0.000    4.800 
#    0.000    0.000    0.000    0.000    0.000    0.000 
#    0.000    0.000    0.000    0.000    0.000    0.000 
#
# Total GULP energy -111744.391738 kJ/mol
# GULP energy per Si atom -5587.219587 kJ/mol
# Density = 2.601913 g / cm^3
# Si number density = 26.078488 Si / 1000 Ang^3
#
#
#
# Elastic Constant Matrix: (Units=GPa)
#
#
# Indices 1 2 3 4 5 6 
#
# 1 132.6786 11.1764 5.4025 0.0000 13.0753 0.0000
# 2 11.1764 42.6289 16.1083 0.0000 -0.5860 0.0000
# 3 5.4025 16.1083 98.4410 0.0000 18.5056 0.0000
# 4 0.0000 0.0000 0.0000 39.9875 0.0000 0.8556
# 5 13.0753 -0.5860 18.5056 0.0000 45.4000 0.0000
# 6 0.0000 0.0000 0.0000 0.8556 0.0000 34.2049
#
#
#
# Elastic Compliance Matrix: (Units=1/GPa)
#
#
# Indices 1 2 3 4 5 6 
#
# 1 0.007957 -0.002272 0.000402 0.000000 -0.002485 0.000000
# 2 -0.002272 0.025850 -0.004647 0.000000 0.002882 0.000000
# 3 0.000402 -0.004647 0.011837 0.000000 -0.005001 0.000000
# 4 0.000000 0.000000 0.000000 0.025021 0.000000 -0.000626
# 5 -0.002485 0.002882 -0.005001 0.000000 0.024818 0.000000
# 6 0.000000 0.000000 0.000000 -0.000626 0.000000 0.029251
#
#
# Mechanical properties :
#
#
# Convention : Reuss Voigt Hill
#
# Bulk Modulus (GPa) = 30.66614 37.68032 34.17323
# Shear Modulus (GPa) = 33.63894 39.98922 36.81408
#
# Velocity S-wave (km/s) = 3.59543 3.92014 3.76129
# Velocity P-wave (km/s) = 5.38710 5.91356 5.65646
#
# Compressibility (1/GPa) = 0.03260925
#
# Stress axis : x y z
#
# Youngs Moduli (GPa) = 125.67665 38.68526 84.48262
#
# Poissons Ratio (x) = 0.08791 -0.03399
# Poissons Ratio (y) = 0.28558 0.39259
# Poissons Ratio (z) = -0.05056 0.17977
#
# Static dielectric constant tensor:
#      x y z
#    x 2.119340 0.000000 0.053850 
#    y 0.000000 2.125360 0.000000 
#    z 0.053850 0.000000 2.116070 
# 
# From -- ./inp_files/195052.got.cif
#   From: 2010.05.17/outbox.cif.g08.bks.cpg/sg15_98_cif.got.tgz:195052.got - 2010.06.03 18:47:42.
