data_PCOD9290019
_publ_section_title
;
Structure prediction by ZEFSAII (Michael W. Deem and Ramdas Pophale) SiO2 
 PCOD9290019
Probable space group: C 2/C
;
_chemical_formula_sum "Si O2"
_cell_formula_units_Z 52
_cell_length_a 15.191226
_cell_length_b 14.193229
_cell_length_c 17.666404
_cell_angle_alpha 90.000000
_cell_angle_beta 145.267090
_cell_angle_gamma 90.000000
_cell_volume 2170.240136
_symmetry_space_group_name_H-M "C 2/C"
_symmetry_group_IT_number 15
_symmetry_cell_setting 'monoclinic'
loop_
_space_group_symop_operation_xyz
x,y,z
-x,y,1/2-z
-x,-y,-z
x,-y,1/2+z
1/2+x,1/2+y,z
1/2-x,1/2+y,1/2-z
1/2-x,1/2-y,-z
1/2+x,1/2-y,1/2+z
loop_
_atom_site_type_symbol
_atom_site_label
_atom_site_fract_x
_atom_site_fract_y
_atom_site_fract_z
Si Si1 0.970060 0.998836 0.881779
Si Si2 0.000000 0.885346 0.250000
Si Si3 0.000000 0.726625 0.750000
Si Si4 0.716469 0.069640 0.965825
Si Si5 0.283627 0.351249 0.678431
Si Si6 0.772333 0.744196 0.133665
Si Si7 0.000000 0.418106 0.750000
Si Si8 0.919936 0.198680 0.892864
O O1 0.831439 0.922671 0.779435
O O2 0.942096 0.085255 0.920850
O O3 0.962327 0.053524 0.795471
O O4 0.140264 0.956387 0.987099
O O5 0.852828 0.817843 0.133371
O O6 0.863251 0.661656 0.624580
O O7 0.938367 0.791483 0.773233
O O8 0.590754 0.986106 0.871711
O O9 0.756236 0.092663 0.080789
O O10 0.150279 0.274309 0.598253
O O11 0.870503 0.648698 0.195134
O O12 0.807437 0.785395 0.241760
O O13 0.592534 0.731410 0.995642
#
# Coordination Sequence:
#
# PCOD9290019 Si02
#       8
#     8   4   4   8   8   8   4   8
#     4  11  21  44  71 105 135 193 244 297 353 433
#     4   9  19  37  71  98 136 190 248 282 354 438
#     4  11  25  41  71 106 134 194 242 308 340 442
#     4  11  22  42  74 103 137 181 257 296 349 434
#     4  12  25  46  73 102 147 195 242 294 372 439
#     4  10  23  42  67 106 151 194 237 306 375 425
#     4  10  22  40  74 106 136 188 258 302 346 438
#     4  11  27  43  69 109 157 188 235 313 379 427
#
# _framework density 23.960483
#
# number of rings (size 3 to 8) (size 9 to 14) (size 15 to 20)
#    0.000    1.231    4.615    0.462    4.308    1.846 
#    5.538    5.385    0.000    0.000    0.000    0.000 
#    0.000    0.000    0.000    0.000    0.000    0.000 
#
# Total GULP energy -145364.455347 kJ/mol
# GULP energy per Si atom -5590.940590 kJ/mol
# Density = 2.390595 g / cm^3
# Si number density = 23.960483 Si / 1000 Ang^3
#
#
#
# Elastic Constant Matrix: (Units=GPa)
#
#
# Indices 1 2 3 4 5 6 
#
# 1 97.9290 30.3241 28.2499 0.0002 19.9163 -0.0001
# 2 30.3241 108.4646 38.6298 0.0007 31.6039 0.0002
# 3 28.2499 38.6298 93.0896 0.0017 15.8533 -0.0005
# 4 0.0002 0.0007 0.0017 50.4777 0.0003 -17.0759
# 5 19.9163 31.6039 15.8533 0.0003 33.6417 -0.0003
# 6 -0.0001 0.0002 -0.0005 -17.0759 -0.0003 130.8518
#
#
#
# Elastic Compliance Matrix: (Units=1/GPa)
#
#
# Indices 1 2 3 4 5 6 
#
# 1 0.012282 -0.001086 -0.002405 0.000000 -0.005118 0.000000
# 2 -0.001086 0.013948 -0.003627 0.000000 -0.010750 0.000000
# 3 -0.002405 -0.003627 0.013215 0.000000 -0.001396 0.000000
# 4 0.000000 0.000000 0.000000 0.020726 0.000000 0.002705
# 5 -0.005118 -0.010750 -0.001396 0.000000 0.043512 0.000000
# 6 0.000000 0.000000 0.000000 0.002705 0.000000 0.007995
#
#
# Mechanical properties :
#
#
# Convention : Reuss Voigt Hill
#
# Bulk Modulus (GPa) = 39.67025 54.87676 47.27351
# Shear Modulus (GPa) = 37.22519 56.47954 46.85237
#
# Velocity S-wave (km/s) = 3.94586 4.86036 4.42679
# Velocity P-wave (km/s) = 6.11165 7.37904 6.77504
#
# Compressibility (1/GPa) = 0.02520780
#
# Stress axis : x y z
#
# Youngs Moduli (GPa) = 81.41733 71.69716 75.67020
#
# Poissons Ratio (x) = 0.07787 0.18199
# Poissons Ratio (y) = 0.08843 0.27449
# Poissons Ratio (z) = 0.19581 0.26008
#
# Static dielectric constant tensor:
#      x y z
#    x 1.953900 0.000000 -0.074240 
#    y 0.000000 1.984740 0.000000 
#    z -0.074240 0.000000 1.916130 
# 
# From -- ./inp_files/249148.got.cif
#   From: 2010.05.17/outbox.cif.g08.bks.cpg/sg15_125_cif.got.tgz:249148.got - 2010.06.03 18:47:42.
