data_PCOD9290226
_publ_section_title
;
Structure prediction by ZEFSAII (Michael W. Deem and Ramdas Pophale) SiO2 
 PCOD9290226
Probable space group: C 2/C
;
_chemical_formula_sum "Si O2"
_cell_formula_units_Z 48
_cell_length_a 5.021240
_cell_length_b 33.735045
_cell_length_c 15.005529
_cell_angle_alpha 90.000000
_cell_angle_beta 67.999825
_cell_angle_gamma 90.000000
_cell_volume 2356.724999
_symmetry_space_group_name_H-M "C 2/C"
_symmetry_group_IT_number 15
_symmetry_cell_setting 'monoclinic'
loop_
_space_group_symop_operation_xyz
x,y,z
-x,y,1/2-z
-x,-y,-z
x,-y,1/2+z
1/2+x,1/2+y,z
1/2-x,1/2+y,1/2-z
1/2-x,1/2-y,-z
1/2+x,1/2-y,1/2+z
loop_
_atom_site_type_symbol
_atom_site_label
_atom_site_fract_x
_atom_site_fract_y
_atom_site_fract_z
Si Si1 0.391156 0.653419 0.364966
Si Si2 0.880571 0.397439 0.865741
Si Si3 0.257768 0.470762 0.495925
Si Si4 0.311152 0.331912 0.184030
Si Si5 0.000727 0.220659 0.495849
Si Si6 0.818600 0.078424 0.684378
O O1 0.500000 0.659546 0.250000
O O2 0.558227 0.617224 0.390284
O O3 0.492653 0.690781 0.411468
O O4 0.065407 0.637105 0.392821
O O5 0.000000 0.402445 0.750000
O O6 0.874697 0.438263 0.920219
O O7 0.500000 0.500000 0.500000
O O8 0.454486 0.445812 0.402441
O O9 0.000000 0.500000 0.500000
O O10 0.500000 0.330784 0.250000
O O11 0.268241 0.377079 0.154767
O O12 0.000000 0.315969 0.250000
O O13 0.438644 0.306780 0.088480
O O14 0.250000 0.250000 0.500000
O O15 0.750000 0.250000 0.500000
O O16 0.500000 0.061691 0.750000
O O17 0.000000 0.084227 0.750000
#
# Coordination Sequence:
#
# PCOD9290226 Si02
#       6
#     8   8   8   8   8   8
#     4  10  22  42  66  90 120 167 219 262 309 379
#     4  10  22  42  66  89 121 168 218 264 312 380
#     4  12  25  39  62  97 132 166 205 265 335 390
#     4  10  22  41  64  89 122 167 214 257 306 377
#     4  12  25  39  62  95 128 162 200 259 327 380
#     4  10  22  41  64  88 119 164 212 255 303 372
#
# _framework density 20.367246999999999
#
# number of rings (size 3 to 8) (size 9 to 14) (size 15 to 20)
#    0.000    1.333    0.000    5.000    0.000    8.000 
#    0.000    0.000    0.000    0.000    0.000    0.000 
#    0.000    0.000    0.000    0.000    0.000    0.000 
#
# Total GULP energy -133687.988460 kJ/mol
# GULP energy per Si atom -5570.332852 kJ/mol
# Density = 2.032089 g / cm^3
# Si number density = 20.367247 Si / 1000 Ang^3
#
#
#
# Elastic Constant Matrix: (Units=GPa)
#
#
# Indices 1 2 3 4 5 6 
#
# 1 158.1664 39.7991 40.1450 0.0000 0.1119 0.0000
# 2 39.7991 116.5562 62.4206 0.0000 11.1879 0.0000
# 3 40.1450 62.4206 91.1273 0.0000 8.5907 0.0000
# 4 0.0000 0.0000 0.0000 -124.0431 0.0000 -59.9060
# 5 0.1119 11.1879 8.5907 0.0000 30.0949 0.0000
# 6 0.0000 0.0000 0.0000 -59.9060 0.0000 20.3373
#
#
#
# Elastic Compliance Matrix: (Units=1/GPa)
#
#
# Indices 1 2 3 4 5 6 
#
# 1 0.007262 -0.001293 -0.002421 0.000000 0.001145 0.000000
# 2 -0.001293 0.013959 -0.008739 0.000000 -0.002690 0.000000
# 3 -0.002421 -0.008739 0.018209 0.000000 -0.001940 0.000000
# 4 0.000000 0.000000 0.000000 -0.003328 0.000000 -0.009802
# 5 0.001145 -0.002690 -0.001940 0.000000 0.034778 0.000000
# 6 0.000000 0.000000 0.000000 -0.009802 0.000000 0.020297
#
#
# Mechanical properties :
#
#
# Convention : Reuss Voigt Hill
#
# Bulk Modulus (GPa) = 68.85048 72.28657 70.56853
# Shear Modulus (GPa) = 41.34844 0.17684 20.76264
#
# Velocity S-wave (km/s) = 4.51060 0.29498 3.19629
# Velocity P-wave (km/s) = 7.81059 5.97366 6.95305
#
# Compressibility (1/GPa) = 0.01452423
#
# Stress axis : x y z
#
# Youngs Moduli (GPa) = 137.71257 71.63811 54.91740
#
# Poissons Ratio (x) = 0.09260 0.13298
# Poissons Ratio (y) = 0.17800 0.47991
# Poissons Ratio (z) = 0.33347 0.62602
#
# Static dielectric constant tensor:
#      x y z
#    x 1.678710 0.000000 -0.051460 
#    y 0.000000 1.731390 0.000000 
#    z -0.051460 0.000000 1.608840 
# 
# From -- ./inp_files/130590.got.cif
#   From: 2010.05.17/outbox.cif.g08.bks.cpg/sg15_66_cif.got.tgz:130590.got - 2010.06.03 18:47:42.
