data_PCOD9290318
_publ_section_title
;
Structure prediction by ZEFSAII (Michael W. Deem and Ramdas Pophale) SiO2 
 PCOD9290318
Probable space group: C 2/C
;
_chemical_formula_sum "Si O2"
_cell_formula_units_Z 36
_cell_length_a 16.465285
_cell_length_b 14.255775
_cell_length_c 5.563577
_cell_angle_alpha 90.000000
_cell_angle_beta 82.878676
_cell_angle_gamma 90.000000
_cell_volume 1295.838843
_symmetry_space_group_name_H-M "C 2/C"
_symmetry_group_IT_number 15
_symmetry_cell_setting 'monoclinic'
loop_
_space_group_symop_operation_xyz
x,y,z
-x,y,1/2-z
-x,-y,-z
x,-y,1/2+z
1/2+x,1/2+y,z
1/2-x,1/2+y,1/2-z
1/2-x,1/2-y,-z
1/2+x,1/2-y,1/2+z
loop_
_atom_site_type_symbol
_atom_site_label
_atom_site_fract_x
_atom_site_fract_y
_atom_site_fract_z
Si Si1 0.748403 0.522732 0.809031
Si Si2 0.000000 0.938673 0.250000
Si Si3 0.911750 0.605449 0.257380
Si Si4 0.814976 0.715352 0.667519
Si Si5 0.925569 0.206297 0.460991
O O1 0.705342 0.509644 0.567792
O O2 0.833741 0.462241 0.754033
O O3 0.773719 0.629945 0.820039
O O4 0.068833 0.862282 0.312619
O O5 0.000000 0.000000 0.500000
O O6 0.889784 0.666454 0.500281
O O7 0.000000 0.556605 0.250000
O O8 0.922162 0.686298 0.054300
O O9 0.750000 0.750000 0.500000
O O10 0.846856 0.798400 0.819942
O O11 0.000000 0.189680 0.250000
#
# Coordination Sequence:
#
# PCOD9290318 Si02
#       5
#     8   4   8   8   8
#     4  10  22  41  65 103 148 187 245 303 367 459
#     4  12  26  46  76 110 150 198 276 338 380 470
#     4  11  22  40  74 110 147 193 251 317 388 466
#     4  11  25  44  69 108 159 208 251 318 399 480
#     4  12  22  45  76 112 150 200 261 325 404 463
#
# _framework density 27.781230999999998
#
# number of rings (size 3 to 8) (size 9 to 14) (size 15 to 20)
#    0.000    0.889    6.667    0.000    0.000    5.333 
#    0.000    4.444    0.000    0.000    0.000    0.000 
#    0.000    0.000    0.000    0.000    0.000    0.000 
#
# Total GULP energy -100795.293713 kJ/mol
# GULP energy per Si atom -5599.738540 kJ/mol
# Density = 2.771800 g / cm^3
# Si number density = 27.781231 Si / 1000 Ang^3
#
#
#
# Elastic Constant Matrix: (Units=GPa)
#
#
# Indices 1 2 3 4 5 6 
#
# 1 87.7553 51.9806 71.4638 0.0000 -4.5569 0.0000
# 2 51.9806 137.0991 64.4075 0.0000 12.4504 0.0000
# 3 71.4638 64.4075 233.0445 0.0000 11.4801 0.0000
# 4 0.0000 0.0000 0.0000 76.1234 0.0000 -2.3210
# 5 -4.5569 12.4504 11.4801 0.0000 57.1783 0.0000
# 6 0.0000 0.0000 0.0000 -2.3210 0.0000 38.5752
#
#
#
# Elastic Compliance Matrix: (Units=1/GPa)
#
#
# Indices 1 2 3 4 5 6 
#
# 1 0.018139 -0.005168 -0.004303 0.000000 0.003435 0.000000
# 2 -0.005168 0.009963 -0.001052 0.000000 -0.002370 0.000000
# 3 -0.004303 -0.001052 0.005966 0.000000 -0.001312 0.000000
# 4 0.000000 0.000000 0.000000 0.013161 0.000000 0.000792
# 5 0.003435 -0.002370 -0.001312 0.000000 0.018542 0.000000
# 6 0.000000 0.000000 0.000000 0.000792 0.000000 0.025971
#
#
# Mechanical properties :
#
#
# Convention : Reuss Voigt Hill
#
# Bulk Modulus (GPa) = 76.79440 92.62252 84.70846
# Shear Modulus (GPa) = 42.68803 52.37852 47.53327
#
# Velocity S-wave (km/s) = 3.92417 4.34682 4.14089
# Velocity P-wave (km/s) = 6.94512 7.65542 7.30891
#
# Compressibility (1/GPa) = 0.01302178
#
# Stress axis : x y z
#
# Youngs Moduli (GPa) = 55.12925 100.37405 167.61471
#
# Poissons Ratio (x) = 0.51870 0.72132
# Poissons Ratio (y) = 0.28489 0.17633
# Poissons Ratio (z) = 0.23725 0.10560
#
# Static dielectric constant tensor:
#      x y z
#    x 2.226790 0.000000 0.018380 
#    y 0.000000 2.139050 0.000000 
#    z 0.018380 0.000000 2.266260 
# 
# From -- ./inp_files/9935.got.cif
#   From: 2010.05.17/outbox.cif.g08.bks.cpg/sg15_5_cif.got.tgz:9935.got - 2010.06.03 18:47:42.
