data_PCOD9290557
_publ_section_title
;
Structure prediction by ZEFSAII (Michael W. Deem and Ramdas Pophale) SiO2 
 PCOD9290557
Probable space group: C 2/C
;
_chemical_formula_sum "Si O2"
_cell_formula_units_Z 40
_cell_length_a 17.849769
_cell_length_b 7.725600
_cell_length_c 16.347517
_cell_angle_alpha 90.000000
_cell_angle_beta 135.937005
_cell_angle_gamma 90.000000
_cell_volume 1567.768034
_symmetry_space_group_name_H-M "C 2/C"
_symmetry_group_IT_number 15
_symmetry_cell_setting 'monoclinic'
loop_
_space_group_symop_operation_xyz
x,y,z
-x,y,1/2-z
-x,-y,-z
x,-y,1/2+z
1/2+x,1/2+y,z
1/2-x,1/2+y,1/2-z
1/2-x,1/2-y,-z
1/2+x,1/2-y,1/2+z
loop_
_atom_site_type_symbol
_atom_site_label
_atom_site_fract_x
_atom_site_fract_y
_atom_site_fract_z
Si Si1 0.386016 0.626354 0.188251
Si Si2 0.833896 0.120413 0.497009
Si Si3 0.678877 0.712120 0.593474
Si Si4 0.091542 0.459388 0.007128
Si Si5 0.680168 0.318690 0.276864
O O1 0.500000 0.696135 0.250000
O O2 0.301887 0.760579 0.160291
O O3 0.402690 0.469917 0.266413
O O4 0.335227 0.508202 0.075223
O O5 0.911796 0.289322 0.553386
O O6 0.713849 0.191072 0.377937
O O7 0.859230 0.983844 0.445363
O O8 0.660638 0.759759 0.673675
O O9 0.615373 0.852009 0.488086
O O10 0.203668 0.413260 0.140730
O O11 0.000000 0.500000 0.000000
#
# Coordination Sequence:
#
# PCOD9290557 Si02
#       5
#     8   8   8   8   8
#     4  11  24  42  65  99 136 174 224 278 335 389
#     4  10  22  41  67  91 135 172 214 276 336 378
#     4  11  22  43  66  95 131 176 222 269 331 403
#     4   9  22  37  63  96 129 165 226 261 334 390
#     4   9  22  41  66  91 136 172 216 272 334 391
#
# _framework density 25.51398
#
# number of rings (size 3 to 8) (size 9 to 14) (size 15 to 20)
#    1.200    0.800    0.000    3.600    2.800    2.400 
#    0.000    1.000    0.000    0.000    0.000    0.000 
#    0.000    0.000    0.000    0.000    0.000    0.000 
#
# Total GULP energy -111374.510602 kJ/mol
# GULP energy per Si atom -5568.725530 kJ/mol
# Density = 2.545591 g / cm^3
# Si number density = 25.513980 Si / 1000 Ang^3
#
#
#
# Elastic Constant Matrix: (Units=GPa)
#
#
# Indices 1 2 3 4 5 6 
#
# 1 113.4470 0.7215 11.3485 0.0000 7.7783 0.0000
# 2 0.7215 95.9800 -0.3429 0.0000 8.9378 0.0000
# 3 11.3485 -0.3429 50.1305 0.0000 -11.9367 0.0000
# 4 0.0000 0.0000 0.0000 29.5621 0.0000 -11.8650
# 5 7.7783 8.9378 -11.9367 0.0000 29.6348 0.0000
# 6 0.0000 0.0000 0.0000 -11.8650 0.0000 37.7194
#
#
#
# Elastic Compliance Matrix: (Units=1/GPa)
#
#
# Indices 1 2 3 4 5 6 
#
# 1 0.009372 0.000268 -0.003014 0.000000 -0.003755 0.000000
# 2 0.000268 0.010755 -0.000859 0.000000 -0.003660 0.000000
# 3 -0.003014 -0.000859 0.023089 0.000000 0.010350 0.000000
# 4 0.000000 0.000000 0.000000 0.038715 0.000000 0.012178
# 5 -0.003755 -0.003660 0.010350 0.000000 0.040002 0.000000
# 6 0.000000 0.000000 0.000000 0.012178 0.000000 0.030342
#
#
# Mechanical properties :
#
#
# Convention : Reuss Voigt Hill
#
# Bulk Modulus (GPa) = 27.77226 31.44574 29.60900
# Shear Modulus (GPa) = 29.15704 35.90530 32.53117
#
# Velocity S-wave (km/s) = 3.38418 3.75544 3.57463
# Velocity P-wave (km/s) = 5.11654 5.58177 5.35421
#
# Compressibility (1/GPa) = 0.03600715
#
# Stress axis : x y z
#
# Youngs Moduli (GPa) = 106.70200 92.98384 43.31113
#
# Poissons Ratio (x) = -0.02496 0.13053
# Poissons Ratio (y) = -0.02864 0.03719
# Poissons Ratio (z) = 0.32158 0.07984
#
# Static dielectric constant tensor:
#      x y z
#    x 2.073160 0.000000 -0.033340 
#    y 0.000000 2.197140 0.000000 
#    z -0.033340 0.000000 2.087550 
# 
# From -- ./inp_files/202835.got.cif
#   From: 2010.05.17/outbox.cif.g08.bks.cpg/sg15_102_cif.got.tgz:202835.got - 2010.06.03 18:47:42.
