data_PCOD9290921
_publ_section_title
;
Structure prediction by ZEFSAII (Michael W. Deem and Ramdas Pophale) SiO2 
 PCOD9290921
Probable space group: C 2/C
;
_chemical_formula_sum "Si O2"
_cell_formula_units_Z 56
_cell_length_a 7.649069
_cell_length_b 24.770491
_cell_length_c 15.893864
_cell_angle_alpha 90.000000
_cell_angle_beta 70.866359
_cell_angle_gamma 90.000000
_cell_volume 2845.067877
_symmetry_space_group_name_H-M "C 2/C"
_symmetry_group_IT_number 15
_symmetry_cell_setting 'monoclinic'
loop_
_space_group_symop_operation_xyz
x,y,z
-x,y,1/2-z
-x,-y,-z
x,-y,1/2+z
1/2+x,1/2+y,z
1/2-x,1/2+y,1/2-z
1/2-x,1/2-y,-z
1/2+x,1/2-y,1/2+z
loop_
_atom_site_type_symbol
_atom_site_label
_atom_site_fract_x
_atom_site_fract_y
_atom_site_fract_z
Si Si1 0.708922 0.132696 0.751870
Si Si2 0.185993 0.742824 0.267316
Si Si3 0.699566 0.443566 0.412923
Si Si4 0.443882 0.349297 0.666332
Si Si5 0.194182 0.300582 0.953085
Si Si6 0.199769 0.066342 0.435217
Si Si7 0.445689 0.106146 0.550409
O O1 0.500000 0.137490 0.750000
O O2 0.786861 0.193081 0.738751
O O3 0.803119 0.092154 0.671314
O O4 0.694990 0.110813 0.848987
O O5 0.351797 0.709076 0.198596
O O6 0.164132 0.722130 0.365144
O O7 0.000000 0.728239 0.250000
O O8 0.730727 0.507052 0.392054
O O9 0.503410 0.436007 0.489813
O O10 0.873240 0.424967 0.443206
O O11 0.500000 0.371067 0.750000
O O12 0.629302 0.339843 0.583773
O O13 0.310281 0.388390 0.635585
O O14 0.250000 0.250000 0.000000
O O15 0.022185 0.334260 0.015329
O O16 0.348607 0.080505 0.484182
#
# Coordination Sequence:
#
# PCOD9290921 Si02
#       7
#     8   8   8   8   8   8   8
#     4  10  22  42  61  92 132 169 209 264 330 381
#     4  11  23  37  60  94 129 165 218 262 316 394
#     4  10  23  44  62  94 131 170 211 275 321 384
#     4  10  22  42  60  91 128 169 208 268 325 381
#     4  11  21  38  63  88 128 172 210 266 327 379
#     4  11  23  42  68  92 127 169 224 265 326 387
#     4  11  22  40  68  95 126 171 216 270 320 391
#
# _framework density 19.683185999999999
#
# number of rings (size 3 to 8) (size 9 to 14) (size 15 to 20)
#    0.000    1.429    1.429    5.143    2.000    0.000 
#    5.143   12.143    0.000    0.000    0.000    0.000 
#    0.000    0.000    0.000    0.000    0.000    0.000 
#
# Total GULP energy -156411.979442 kJ/mol
# GULP energy per Si atom -5586.142123 kJ/mol
# Density = 1.963839 g / cm^3
# Si number density = 19.683186 Si / 1000 Ang^3
#
#
#
# Elastic Constant Matrix: (Units=GPa)
#
#
# Indices 1 2 3 4 5 6 
#
# 1 67.0234 30.0088 27.8548 0.0000 11.1731 0.0000
# 2 30.0088 123.6144 57.8132 0.0000 5.5812 0.0000
# 3 27.8548 57.8132 78.6342 0.0000 8.5022 0.0000
# 4 0.0000 0.0000 0.0000 26.6279 0.0000 -3.8809
# 5 11.1731 5.5812 8.5022 0.0000 17.4409 0.0000
# 6 0.0000 0.0000 0.0000 -3.8809 0.0000 -8.1915
#
#
#
# Elastic Compliance Matrix: (Units=1/GPa)
#
#
# Indices 1 2 3 4 5 6 
#
# 1 0.019258 -0.002342 -0.004061 0.000000 -0.009608 0.000000
# 2 -0.002342 0.012618 -0.008628 0.000000 0.001668 0.000000
# 3 -0.004061 -0.008628 0.021027 0.000000 -0.004888 0.000000
# 4 0.000000 0.000000 0.000000 0.035129 0.000000 -0.016643
# 5 -0.009608 0.001668 -0.004888 0.000000 0.065341 0.000000
# 6 0.000000 0.000000 0.000000 -0.016643 0.000000 -0.114192
#
#
# Mechanical properties :
#
#
# Convention : Reuss Voigt Hill
#
# Bulk Modulus (GPa) = 43.77914 55.62508 49.70211
# Shear Modulus (GPa) = 65.05587 17.41513 41.23550
#
# Velocity S-wave (km/s) = 5.75528 2.97774 4.58204
# Velocity P-wave (km/s) = 8.15196 6.33594 7.30064
#
# Compressibility (1/GPa) = 0.02284193
#
# Stress axis : x y z
#
# Youngs Moduli (GPa) = 51.92564 79.25184 47.55679
#
# Poissons Ratio (x) = 0.18561 0.19314
# Poissons Ratio (y) = 0.12161 0.41031
# Poissons Ratio (z) = 0.21088 0.68377
#
# Static dielectric constant tensor:
#      x y z
#    x 1.672930 0.000000 -0.003830 
#    y 0.000000 1.686360 0.000000 
#    z -0.003830 0.000000 1.664400 
# 
# From -- ./inp_files/137261.got.cif
#   From: 2010.05.17/outbox.cif.g08.bks.cpg/sg15_69_cif.got.tgz:137261.got - 2010.06.03 18:47:42.
