data_PCOD9290379
_publ_section_title
;
Structure prediction by ZEFSAII (Michael W. Deem and Ramdas Pophale) SiO2 
 PCOD9290379
Probable space group: C 2/C
;
_chemical_formula_sum "Si O2"
_cell_formula_units_Z 64
_cell_length_a 12.029975
_cell_length_b 7.749053
_cell_length_c 29.553842
_cell_angle_alpha 90.000000
_cell_angle_beta 86.894233
_cell_angle_gamma 90.000000
_cell_volume 2750.989623
_symmetry_space_group_name_H-M "C 2/C"
_symmetry_group_IT_number 15
_symmetry_cell_setting 'monoclinic'
loop_
_space_group_symop_operation_xyz
x,y,z
-x,y,1/2-z
-x,-y,-z
x,-y,1/2+z
1/2+x,1/2+y,z
1/2-x,1/2+y,1/2-z
1/2-x,1/2-y,-z
1/2+x,1/2-y,1/2+z
loop_
_atom_site_type_symbol
_atom_site_label
_atom_site_fract_x
_atom_site_fract_y
_atom_site_fract_z
Si Si1 0.610274 0.939134 0.770684
Si Si2 0.368222 0.305985 0.390700
Si Si3 0.605391 0.517604 0.885323
Si Si4 0.234467 0.654069 0.690286
Si Si5 0.653279 0.644757 0.978474
Si Si6 0.134080 0.375968 0.414900
Si Si7 0.401836 0.745532 0.990647
Si Si8 0.956639 0.469776 0.353160
O O1 0.500000 0.851965 0.750000
O O2 0.701593 0.815668 0.790501
O O3 0.672202 0.054570 0.732212
O O4 0.550752 0.042112 0.812550
O O5 0.478249 0.420869 0.386752
O O6 0.254293 0.413657 0.390538
O O7 0.361593 0.218750 0.440870
O O8 0.387855 0.150335 0.355106
O O9 0.668804 0.548771 0.837418
O O10 0.664403 0.627016 0.924041
O O11 0.611125 0.320854 0.900193
O O12 0.135285 0.674701 0.655460
O O13 0.534972 0.735815 0.989531
O O14 0.750000 0.750000 0.000000
O O15 0.638510 0.449657 0.997220
O O16 0.136224 0.373001 0.469004
O O17 0.029181 0.474891 0.397033
#
# Coordination Sequence:
#
# PCOD9290379 Si02
#       8
#     8   8   8   8   8   8   8   8
#     4  10  25  47  70  97 129 163 206 270 334 399
#     4  11  22  42  62  91 139 176 219 270 315 375
#     4  10  22  41  65  94 129 174 214 266 328 381
#     4  11  23  47  71  95 132 160 213 271 329 397
#     4   9  19  36  62  90 133 175 219 271 318 373
#     4  11  24  40  65  95 134 177 221 269 317 375
#     4   9  21  37  56  95 130 176 231 264 307 380
#     4  11  25  42  67  99 131 166 213 270 326 392
#
# _framework density 23.264354000000001
#
# number of rings (size 3 to 8) (size 9 to 14) (size 15 to 20)
#    0.000    1.750    2.500    1.125    3.500    3.500 
#    2.250    0.000    0.000    0.000    0.000    0.000 
#    0.000    0.000    0.000    0.000    0.000    0.000 
#
# Total GULP energy -178900.539160 kJ/mol
# GULP energy per Si atom -5590.641849 kJ/mol
# Density = 2.321140 g / cm^3
# Si number density = 23.264354 Si / 1000 Ang^3
#
#
#
# Elastic Constant Matrix: (Units=GPa)
#
#
# Indices 1 2 3 4 5 6 
#
# 1 160.3754 40.9084 31.4024 0.0000 7.6015 0.0000
# 2 40.9084 38.3390 4.6148 0.0000 -0.7654 0.0000
# 3 31.4024 4.6148 53.6290 0.0000 -22.2984 0.0000
# 4 0.0000 0.0000 0.0000 22.7532 0.0000 4.9948
# 5 7.6015 -0.7654 -22.2984 0.0000 45.8891 0.0000
# 6 0.0000 0.0000 0.0000 4.9948 0.0000 43.4283
#
#
#
# Elastic Compliance Matrix: (Units=1/GPa)
#
#
# Indices 1 2 3 4 5 6 
#
# 1 0.010738 -0.010639 -0.007752 0.000000 -0.005723 0.000000
# 2 -0.010639 0.036922 0.005065 0.000000 0.004839 0.000000
# 3 -0.007752 0.005065 0.029223 0.000000 0.015569 0.000000
# 4 0.000000 0.000000 0.000000 0.045088 0.000000 -0.005186
# 5 -0.005723 0.004839 0.015569 0.000000 0.030385 0.000000
# 6 0.000000 0.000000 0.000000 -0.005186 0.000000 0.023623
#
#
# Mechanical properties :
#
#
# Convention : Reuss Voigt Hill
#
# Bulk Modulus (GPa) = 19.90804 45.13273 32.52039
# Shear Modulus (GPa) = 22.79185 34.10864 28.45025
#
# Velocity S-wave (km/s) = 3.13340 3.83317 3.50081
# Velocity P-wave (km/s) = 4.65476 6.24764 5.50907
#
# Compressibility (1/GPa) = 0.05023095
#
# Stress axis : x y z
#
# Youngs Moduli (GPa) = 93.12454 27.08400 34.21937
#
# Poissons Ratio (x) = 0.28815 0.26526
# Poissons Ratio (y) = 0.99076 -0.17331
# Poissons Ratio (z) = 0.72189 -0.13717
#
# Static dielectric constant tensor:
#      x y z
#    x 1.890530 0.000000 0.030700 
#    y 0.000000 1.857320 0.000000 
#    z 0.030700 0.000000 1.924300 
# 
# From -- ./inp_files/310326.got.cif
#   From: 2010.05.17/outbox.cif.g08.bks.cpg/sg15_156_cif.got.tgz:310326.got - 2010.06.03 18:47:42.
