data_PCOD9290239
_publ_section_title
;
Structure prediction by ZEFSAII (Michael W. Deem and Ramdas Pophale) SiO2 
 PCOD9290239
Probable space group: C 2/C
;
_chemical_formula_sum "Si O2"
_cell_formula_units_Z 56
_cell_length_a 10.571142
_cell_length_b 20.630441
_cell_length_c 20.406238
_cell_angle_alpha 90.000000
_cell_angle_beta 38.773478
_cell_angle_gamma 90.000000
_cell_volume 2786.995353
_symmetry_space_group_name_H-M "C 2/C"
_symmetry_group_IT_number 15
_symmetry_cell_setting 'monoclinic'
loop_
_space_group_symop_operation_xyz
x,y,z
-x,y,1/2-z
-x,-y,-z
x,-y,1/2+z
1/2+x,1/2+y,z
1/2-x,1/2+y,1/2-z
1/2-x,1/2-y,-z
1/2+x,1/2-y,1/2+z
loop_
_atom_site_type_symbol
_atom_site_label
_atom_site_fract_x
_atom_site_fract_y
_atom_site_fract_z
Si Si1 0.401392 0.118966 0.220299
Si Si2 0.643346 0.603305 0.635778
Si Si3 0.421083 0.021590 0.458203
Si Si4 0.465031 0.739643 0.879829
Si Si5 0.526983 0.118028 0.566898
Si Si6 0.022562 0.858289 0.665600
Si Si7 0.391164 0.788615 0.234491
O O1 0.500000 0.097600 0.250000
O O2 0.477136 0.076769 0.127478
O O3 0.475054 0.193963 0.181212
O O4 0.157824 0.117804 0.309409
O O5 0.500000 0.575578 0.750000
O O6 0.694061 0.548664 0.561590
O O7 0.552317 0.672023 0.651918
O O8 0.866254 0.619331 0.572722
O O9 0.500000 0.000000 0.500000
O O10 0.458660 0.953438 0.407348
O O11 0.659354 0.725828 0.846281
O O12 0.250000 0.750000 0.000000
O O13 0.433213 0.169497 0.654034
O O14 0.752472 0.130352 0.450635
O O15 0.990759 0.781145 0.682845
O O16 0.000000 0.883665 0.750000
O O17 0.500000 0.823096 0.250000
#
# Coordination Sequence:
#
# PCOD9290239 Si02
#       7
#     8   8   8   8   8   8   8
#     4  11  24  42  65 101 131 170 222 283 338 385
#     4  11  21  39  65  96 122 164 222 275 327 388
#     4  10  23  41  64  93 129 177 224 270 328 416
#     4  11  22  39  68  95 132 164 216 281 339 396
#     4  11  23  39  62  89 125 168 217 260 323 395
#     4  10  22  41  64  90 127 169 215 266 328 403
#     4  10  23  39  59  92 126 168 211 266 336 398
#
# _framework density 20.093323000000002
#
# number of rings (size 3 to 8) (size 9 to 14) (size 15 to 20)
#    0.000    1.429    2.857    2.571    6.000    4.571 
#    0.000    0.714    0.000    0.000    0.000    0.000 
#    0.000    0.000    0.000    0.000    0.000    0.000 
#
# Total GULP energy -155889.542093 kJ/mol
# GULP energy per Si atom -5567.483646 kJ/mol
# Density = 2.004759 g / cm^3
# Si number density = 20.093323 Si / 1000 Ang^3
#
#
#
# Elastic Constant Matrix: (Units=GPa)
#
#
# Indices 1 2 3 4 5 6 
#
# 1 98.8332 13.7776 32.1050 -0.0015 -12.2071 0.0037
# 2 13.7776 63.4664 -1.1048 -0.0098 -5.5577 0.0100
# 3 32.1050 -1.1048 106.5201 0.0039 -29.2340 0.0003
# 4 -0.0015 -0.0098 0.0039 -5.6908 0.0026 17.1687
# 5 -12.2071 -5.5577 -29.2340 0.0026 31.5546 -0.0055
# 6 0.0037 0.0100 0.0003 17.1687 -0.0055 8.3834
#
#
#
# Elastic Compliance Matrix: (Units=1/GPa)
#
#
# Indices 1 2 3 4 5 6 
#
# 1 0.011651 -0.002493 -0.003246 -0.000001 0.001061 0.000000
# 2 -0.002493 0.016664 0.001965 -0.000010 0.003791 0.000005
# 3 -0.003246 0.001965 0.013593 0.000004 0.011684 -0.000003
# 4 -0.000001 -0.000010 0.000004 -0.024479 0.000013 0.050132
# 5 0.001061 0.003791 0.011684 0.000013 0.043594 -0.000003
# 6 0.000000 0.000005 -0.000003 0.050132 -0.000003 0.016617
#
#
# Mechanical properties :
#
#
# Convention : Reuss Voigt Hill
#
# Bulk Modulus (GPa) = 29.10493 39.81949 34.46221
# Shear Modulus (GPa) = 51.73737 21.78556 36.76147
#
# Velocity S-wave (km/s) = 5.07981 3.29632 4.28195
# Velocity P-wave (km/s) = 6.99444 5.86071 6.45253
#
# Compressibility (1/GPa) = 0.03435844
#
# Stress axis : x y z
#
# Youngs Moduli (GPa) = 85.82851 60.01078 73.56564
#
# Poissons Ratio (x) = 0.14960 0.23883
# Poissons Ratio (y) = 0.21396 -0.14452
# Poissons Ratio (z) = 0.27864 -0.11789
#
# Static dielectric constant tensor:
#      x y z
#    x 2.404870 -0.000020 0.191550 
#    y -0.000020 1.757960 0.000000 
#    z 0.191550 0.000000 1.780250 
# 
# From -- ./inp_files/270899.got.cif
#   From: 2010.05.17/outbox.cif.g08.bks.cpg/sg15_136_cif.got.tgz:270899.got - 2010.06.03 18:47:42.
