data_PCOD9290733
_publ_section_title
;
Structure prediction by ZEFSAII (Michael W. Deem and Ramdas Pophale) SiO2 
 PCOD9290733
Probable space group: C 2/C
;
_chemical_formula_sum "Si O2"
_cell_formula_units_Z 40
_cell_length_a 22.328307
_cell_length_b 9.965359
_cell_length_c 14.258606
_cell_angle_alpha 90.000000
_cell_angle_beta 30.301245
_cell_angle_gamma 90.000000
_cell_volume 1600.762533
_symmetry_space_group_name_H-M "C 2/C"
_symmetry_group_IT_number 15
_symmetry_cell_setting 'monoclinic'
loop_
_space_group_symop_operation_xyz
x,y,z
-x,y,1/2-z
-x,-y,-z
x,-y,1/2+z
1/2+x,1/2+y,z
1/2-x,1/2+y,1/2-z
1/2-x,1/2-y,-z
1/2+x,1/2-y,1/2+z
loop_
_atom_site_type_symbol
_atom_site_label
_atom_site_fract_x
_atom_site_fract_y
_atom_site_fract_z
Si Si1 0.830952 0.336571 0.246682
Si Si2 0.233748 0.618412 0.160876
Si Si3 0.361029 0.840323 0.429286
Si Si4 0.225143 0.104693 0.604282
Si Si5 0.965168 0.896228 0.464140
O O1 0.843833 0.492030 0.200378
O O2 0.694556 0.278865 0.432312
O O3 0.851427 0.318681 0.330647
O O4 0.923168 0.241773 0.069202
O O5 0.205182 0.620290 0.087609
O O6 0.230513 0.780187 0.175903
O O7 0.360741 0.576181 0.032254
O O8 0.500000 0.866586 0.250000
O O9 0.275458 0.964598 0.573184
O O10 0.092110 0.107529 0.744072
O O11 0.000000 0.000000 0.500000
#
# Coordination Sequence:
#
# PCOD9290733 Si02
#       5
#     8   8   8   8   8
#     4  10  24  41  64 104 129 180 226 278 342 407
#     4  10  25  43  70  95 140 179 229 281 340 411
#     4  10  22  41  69  93 138 174 227 278 337 409
#     4  10  23  47  67 102 127 182 231 275 347 409
#     4  12  25  41  68 101 142 175 225 285 347 407
#
# _framework density 24.988091000000001
#
# number of rings (size 3 to 8) (size 9 to 14) (size 15 to 20)
#    0.000    1.600    2.000    0.600    5.600    5.600 
#    0.000    0.000    0.000    0.000    0.000    0.000 
#    0.000    0.000    0.000    0.000    0.000    0.000 
#
# Total GULP energy -111383.731408 kJ/mol
# GULP energy per Si atom -5569.186570 kJ/mol
# Density = 2.493122 g / cm^3
# Si number density = 24.988091 Si / 1000 Ang^3
#
#
#
# Elastic Constant Matrix: (Units=GPa)
#
#
# Indices 1 2 3 4 5 6 
#
# 1 95.7281 30.9176 9.6306 0.0000 -2.7527 0.0000
# 2 30.9176 149.2820 19.2041 0.0000 2.9006 0.0000
# 3 9.6306 19.2041 68.8405 0.0000 -15.6676 0.0000
# 4 0.0000 0.0000 0.0000 33.3363 0.0000 5.0409
# 5 -2.7527 2.9006 -15.6676 0.0000 44.3108 0.0000
# 6 0.0000 0.0000 0.0000 5.0409 0.0000 16.7189
#
#
#
# Elastic Compliance Matrix: (Units=1/GPa)
#
#
# Indices 1 2 3 4 5 6 
#
# 1 0.011268 -0.002238 -0.000826 0.000000 0.000555 0.000000
# 2 -0.002238 0.007456 -0.002077 0.000000 -0.001361 0.000000
# 3 -0.000826 -0.002077 0.016574 0.000000 0.005945 0.000000
# 4 0.000000 0.000000 0.000000 0.031430 0.000000 -0.009477
# 5 0.000555 -0.001361 0.005945 0.000000 0.024794 0.000000
# 6 0.000000 0.000000 0.000000 -0.009477 0.000000 0.062670
#
#
# Mechanical properties :
#
#
# Convention : Reuss Voigt Hill
#
# Bulk Modulus (GPa) = 39.97302 48.15060 44.06181
# Shear Modulus (GPa) = 28.93313 35.81308 32.37310
#
# Velocity S-wave (km/s) = 3.40645 3.78988 3.60327
# Velocity P-wave (km/s) = 5.61279 6.20179 5.91462
#
# Compressibility (1/GPa) = 0.02501688
#
# Stress axis : x y z
#
# Youngs Moduli (GPa) = 88.74545 134.12202 60.33468
#
# Poissons Ratio (x) = 0.30020 0.04982
# Poissons Ratio (y) = 0.19864 0.12529
# Poissons Ratio (z) = 0.07328 0.27852
#
# Static dielectric constant tensor:
#      x y z
#    x 2.008180 0.000000 0.091360 
#    y 0.000000 2.161810 0.000000 
#    z 0.091360 0.000000 2.179560 
# 
# From -- ./inp_files/258905.got.cif
#   From: 2010.05.17/outbox.cif.g08.bks.cpg/sg15_130_cif.got.tgz:258905.got - 2010.06.03 18:47:42.
