data_PCOD9290383
_publ_section_title
;
Structure prediction by ZEFSAII (Michael W. Deem and Ramdas Pophale) SiO2 
 PCOD9290383
Probable space group: C 2/C
;
_chemical_formula_sum "Si O2"
_cell_formula_units_Z 32
_cell_length_a 8.087294
_cell_length_b 36.830835
_cell_length_c 10.181229
_cell_angle_alpha 90.000000
_cell_angle_beta 29.295426
_cell_angle_gamma 90.000000
_cell_volume 1483.889655
_symmetry_space_group_name_H-M "C 2/C"
_symmetry_group_IT_number 15
_symmetry_cell_setting 'monoclinic'
loop_
_space_group_symop_operation_xyz
x,y,z
-x,y,1/2-z
-x,-y,-z
x,-y,1/2+z
1/2+x,1/2+y,z
1/2-x,1/2+y,1/2-z
1/2-x,1/2-y,-z
1/2+x,1/2-y,1/2+z
loop_
_atom_site_type_symbol
_atom_site_label
_atom_site_fract_x
_atom_site_fract_y
_atom_site_fract_z
Si Si1 0.188721 0.475925 0.257671
Si Si2 0.288041 0.226139 0.264779
Si Si3 0.400392 0.346881 0.962759
Si Si4 0.397004 0.595103 0.960943
O O1 0.348633 0.438959 0.202528
O O2 0.000000 0.468380 0.250000
O O3 0.000000 0.500000 0.500000
O O4 0.500000 0.500000 0.000000
O O5 0.500000 0.217101 0.250000
O O6 0.038919 0.258579 0.480894
O O7 0.085263 0.191263 0.359135
O O8 0.500000 0.360443 0.750000
O O9 0.526110 0.375974 0.980454
O O10 0.000000 0.342377 0.250000
O O11 0.500000 0.612158 0.750000
O O12 0.000000 0.584513 0.250000
#
# Coordination Sequence:
#
# PCOD9290383 Si02
#       4
#     8   8   8   8
#     4  12  25  44  69  99 133 169 215 267 326 392
#     4  10  22  41  65  94 132 178 225 273 330 398
#     4  12  26  43  67 101 137 175 223 280 339 395
#     4  12  26  46  70  97 133 178 224 272 333 397
#
# _framework density 21.564944000000001
#
# number of rings (size 3 to 8) (size 9 to 14) (size 15 to 20)
#    0.000    0.500    0.000    9.000    0.000    8.000 
#    0.000    0.000    0.000    0.000    0.000    0.000 
#    0.000    0.000    0.000    0.000    0.000    0.000 
#
# Total GULP energy -89592.288323 kJ/mol
# GULP energy per Si atom -5599.518020 kJ/mol
# Density = 2.151586 g / cm^3
# Si number density = 21.564944 Si / 1000 Ang^3
#
#
#
# Elastic Constant Matrix: (Units=GPa)
#
#
# Indices 1 2 3 4 5 6 
#
# 1 146.9270 63.0296 67.9245 0.0000 10.0496 0.0000
# 2 63.0296 74.0189 15.3631 0.0000 -6.9780 0.0000
# 3 67.9245 15.3631 144.4487 0.0000 4.1985 0.0000
# 4 0.0000 0.0000 0.0000 49.2875 0.0000 -28.9949
# 5 10.0496 -6.9780 4.1985 0.0000 48.1807 0.0000
# 6 0.0000 0.0000 0.0000 -28.9949 0.0000 53.2132
#
#
#
# Elastic Compliance Matrix: (Units=1/GPa)
#
#
# Indices 1 2 3 4 5 6 
#
# 1 0.014719 -0.011788 -0.005543 0.000000 -0.004294 0.000000
# 2 -0.011788 0.023479 0.002883 0.000000 0.005608 0.000000
# 3 -0.005543 0.002883 0.009200 0.000000 0.000772 0.000000
# 4 0.000000 0.000000 0.000000 0.029861 0.000000 0.016271
# 5 -0.004294 0.005608 0.000772 0.000000 0.022396 0.000000
# 6 0.000000 0.000000 0.000000 0.016271 0.000000 0.027658
#
#
# Mechanical properties :
#
#
# Convention : Reuss Voigt Hill
#
# Bulk Modulus (GPa) = 54.04857 73.11434 63.58145
# Shear Modulus (GPa) = 30.79261 44.74145 37.76703
#
# Velocity S-wave (km/s) = 3.78286 4.55986 4.18941
# Velocity P-wave (km/s) = 6.64813 7.85500 7.27663
#
# Compressibility (1/GPa) = 0.01850188
#
# Stress axis : x y z
#
# Youngs Moduli (GPa) = 67.93739 42.59197 108.69253
#
# Poissons Ratio (x) = 0.50209 0.60248
# Poissons Ratio (y) = 0.80088 -0.31338
# Poissons Ratio (z) = 0.37657 -0.12280
#
# Static dielectric constant tensor:
#      x y z
#    x 1.752760 0.000000 -0.016260 
#    y 0.000000 1.718620 0.000000 
#    z -0.016260 0.000000 1.742670 
# 
# From -- ./inp_files/81961.got.cif
#   From: 2010.05.17/outbox.cif.g08.bks.cpg/sg15_41_cif.got.tgz:81961.got - 2010.06.03 18:47:42.
