data_PCOD9290784
_publ_section_title
;
Structure prediction by ZEFSAII (Michael W. Deem and Ramdas Pophale) SiO2 
 PCOD9290784
Probable space group: C 2/C
;
_chemical_formula_sum "Si O2"
_cell_formula_units_Z 52
_cell_length_a 8.351316
_cell_length_b 21.587126
_cell_length_c 18.744039
_cell_angle_alpha 90.000000
_cell_angle_beta 47.490988
_cell_angle_gamma 90.000000
_cell_volume 2491.042876
_symmetry_space_group_name_H-M "C 2/C"
_symmetry_group_IT_number 15
_symmetry_cell_setting 'monoclinic'
loop_
_space_group_symop_operation_xyz
x,y,z
-x,y,1/2-z
-x,-y,-z
x,-y,1/2+z
1/2+x,1/2+y,z
1/2-x,1/2+y,1/2-z
1/2-x,1/2-y,-z
1/2+x,1/2-y,1/2+z
loop_
_atom_site_type_symbol
_atom_site_label
_atom_site_fract_x
_atom_site_fract_y
_atom_site_fract_z
Si Si1 0.414598 0.481264 0.602374
Si Si2 0.719435 0.502403 0.637636
Si Si3 0.434308 0.103079 0.006777
Si Si4 0.000000 0.835153 0.250000
Si Si5 0.246573 0.605019 0.691554
Si Si6 0.655810 0.769688 0.452548
Si Si7 0.042774 0.140878 0.020353
O O1 0.500000 0.500000 0.500000
O O2 0.623297 0.495981 0.587694
O O3 0.243951 0.529895 0.685563
O O4 0.369981 0.408234 0.606339
O O5 0.500000 0.503519 0.750000
O O6 0.852606 0.438209 0.598640
O O7 0.882744 0.560335 0.587350
O O8 0.521834 0.168105 0.007124
O O9 0.254744 0.123490 0.002831
O O10 0.863392 0.872787 0.229628
O O11 0.836731 0.792468 0.342965
O O12 0.397601 0.626732 0.580094
O O13 0.000000 0.627370 0.750000
O O14 0.750000 0.750000 0.500000
O O15 0.527443 0.711943 0.457062
#
# Coordination Sequence:
#
# PCOD9290784 Si02
#       7
#     8   8   8   4   8   8   8
#     4   9  21  39  63  94 140 173 218 295 352 411
#     4  10  22  41  70 104 139 183 236 296 364 422
#     4  10  23  42  72 101 139 186 234 299 359 420
#     4  12  26  46  74 102 138 194 244 302 358 432
#     4  11  23  40  70 106 130 177 245 290 354 430
#     4  12  25  46  70  99 144 188 236 293 356 430
#     4  10  22  46  65  97 142 186 227 292 358 422
#
# _framework density 20.874790999999998
#
# number of rings (size 3 to 8) (size 9 to 14) (size 15 to 20)
#    0.000    1.538    1.538    2.308    8.615    0.000 
#    6.923    0.769    0.000    0.923    0.000    0.000 
#    0.000    0.000    0.000    0.000    0.000    0.000 
#
# Total GULP energy -144882.234292 kJ/mol
# GULP energy per Si atom -5572.393627 kJ/mol
# Density = 2.082728 g / cm^3
# Si number density = 20.874791 Si / 1000 Ang^3
#
#
#
# Elastic Constant Matrix: (Units=GPa)
#
#
# Indices 1 2 3 4 5 6 
#
# 1 113.6358 73.8366 56.6974 0.0000 11.7478 0.0000
# 2 73.8366 209.0883 72.8872 0.0000 -10.4201 0.0000
# 3 56.6974 72.8872 100.6299 0.0000 1.4127 0.0000
# 4 0.0000 0.0000 0.0000 34.1285 0.0000 -9.1984
# 5 11.7478 -10.4201 1.4127 0.0000 32.4031 0.0000
# 6 0.0000 0.0000 0.0000 -9.1984 0.0000 29.4395
#
#
#
# Elastic Compliance Matrix: (Units=1/GPa)
#
#
# Indices 1 2 3 4 5 6 
#
# 1 0.014457 -0.003479 -0.005540 0.000000 -0.006119 0.000000
# 2 -0.003479 0.007405 -0.003457 0.000000 0.003793 0.000000
# 3 -0.005540 -0.003457 0.015559 0.000000 0.000218 0.000000
# 4 0.000000 0.000000 0.000000 0.031995 0.000000 0.009997
# 5 -0.006119 0.003793 0.000218 0.000000 0.034290 0.000000
# 6 0.000000 0.000000 0.000000 0.009997 0.000000 0.037091
#
#
# Mechanical properties :
#
#
# Convention : Reuss Voigt Hill
#
# Bulk Modulus (GPa) = 80.18831 92.24406 86.21618
# Shear Modulus (GPa) = 29.42790 33.85642 31.64216
#
# Velocity S-wave (km/s) = 3.75872 4.03163 3.89756
# Velocity P-wave (km/s) = 7.57196 8.12140 7.85149
#
# Compressibility (1/GPa) = 0.01247065
#
# Stress axis : x y z
#
# Youngs Moduli (GPa) = 69.16953 135.03727 64.27039
#
# Poissons Ratio (x) = 0.46982 0.35604
# Poissons Ratio (y) = 0.24066 0.22217
# Poissons Ratio (z) = 0.38317 0.46679
#
# Static dielectric constant tensor:
#      x y z
#    x 1.829290 0.000000 -0.051610 
#    y 0.000000 1.843240 0.000000 
#    z -0.051610 0.000000 1.764150 
# 
# From -- ./inp_files/192444.got.cif
#   From: 2010.05.17/outbox.cif.g08.bks.cpg/sg15_97_cif.got.tgz:192444.got - 2010.06.03 18:47:42.
