data_PCOD9290968
_publ_section_title
;
Structure prediction by ZEFSAII (Michael W. Deem and Ramdas Pophale) SiO2 
 PCOD9290968
Probable space group: C 2/C
;
_chemical_formula_sum "Si O2"
_cell_formula_units_Z 40
_cell_length_a 13.881556
_cell_length_b 23.655371
_cell_length_c 7.081264
_cell_angle_alpha 90.000000
_cell_angle_beta 43.237294
_cell_angle_gamma 90.000000
_cell_volume 1592.879302
_symmetry_space_group_name_H-M "C 2/C"
_symmetry_group_IT_number 15
_symmetry_cell_setting 'monoclinic'
loop_
_space_group_symop_operation_xyz
x,y,z
-x,y,1/2-z
-x,-y,-z
x,-y,1/2+z
1/2+x,1/2+y,z
1/2-x,1/2+y,1/2-z
1/2-x,1/2-y,-z
1/2+x,1/2-y,1/2+z
loop_
_atom_site_type_symbol
_atom_site_label
_atom_site_fract_x
_atom_site_fract_y
_atom_site_fract_z
Si Si1 0.867190 0.092638 0.705972
Si Si2 0.193017 0.923166 0.766009
Si Si3 0.254447 0.294871 0.819978
Si Si4 0.552340 0.284746 0.457029
Si Si5 0.883490 0.471271 0.034955
O O1 0.859307 0.159981 0.713322
O O2 0.750233 0.067918 0.733342
O O3 0.029110 0.074720 0.432827
O O4 0.826168 0.074463 0.977187
O O5 0.256010 0.861479 0.625737
O O6 0.297853 0.974526 0.570767
O O7 0.413692 0.286067 0.529216
O O8 0.250000 0.250000 0.000000
O O9 0.138165 0.272736 0.842563
O O10 0.500000 0.294892 0.750000
O O11 0.000000 0.435750 0.750000
O O12 0.000000 0.500000 0.000000
#
# Coordination Sequence:
#
# PCOD9290968 Si02
#       5
#     8   8   8   8   8
#     4  10  22  42  62  90 126 172 219 258 327 395
#     4  10  22  42  65  88 129 171 215 267 320 393
#     4   9  19  36  58  90 120 160 207 255 317 380
#     4   9  19  36  60  88 122 157 210 259 314 388
#     4  12  25  42  63  94 131 165 219 279 331 382
#
# _framework density 25.111758999999999
#
# number of rings (size 3 to 8) (size 9 to 14) (size 15 to 20)
#    0.000    2.000    2.000    0.600    0.000    9.600 
#    3.600    0.000    0.000    0.000    0.000    0.000 
#    0.000    0.000    0.000    0.000    0.000    0.000 
#
# Total GULP energy -111548.247503 kJ/mol
# GULP energy per Si atom -5577.412375 kJ/mol
# Density = 2.505460 g / cm^3
# Si number density = 25.111759 Si / 1000 Ang^3
#
#
#
# Elastic Constant Matrix: (Units=GPa)
#
#
# Indices 1 2 3 4 5 6 
#
# 1 100.2385 44.5158 22.3439 0.0000 -35.6808 0.0000
# 2 44.5158 159.7705 56.2354 0.0000 -45.2178 0.0000
# 3 22.3439 56.2354 92.7683 0.0000 -15.5432 0.0000
# 4 0.0000 0.0000 0.0000 41.5618 0.0000 -16.2894
# 5 -35.6808 -45.2178 -15.5432 0.0000 43.3613 0.0000
# 6 0.0000 0.0000 0.0000 -16.2894 0.0000 38.5136
#
#
#
# Elastic Compliance Matrix: (Units=1/GPa)
#
#
# Indices 1 2 3 4 5 6 
#
# 1 0.014339 -0.000445 -0.001367 0.000000 0.010845 0.000000
# 2 -0.000445 0.010625 -0.004828 0.000000 0.008983 0.000000
# 3 -0.001367 -0.004828 0.013835 0.000000 -0.001201 0.000000
# 4 0.000000 0.000000 0.000000 0.028842 0.000000 0.012199
# 5 0.010845 0.008983 -0.001201 0.000000 0.040924 0.000000
# 6 0.000000 0.000000 0.000000 0.012199 0.000000 0.031124
#
#
# Mechanical properties :
#
#
# Convention : Reuss Voigt Hill
#
# Bulk Modulus (GPa) = 39.18781 66.55193 52.86987
# Shear Modulus (GPa) = 30.96487 39.99950 35.48218
#
# Velocity S-wave (km/s) = 3.51534 3.99539 3.76303
# Velocity P-wave (km/s) = 5.66710 6.91694 6.32298
#
# Compressibility (1/GPa) = 0.02551814
#
# Stress axis : x y z
#
# Youngs Moduli (GPa) = 69.74041 94.12068 72.28292
#
# Poissons Ratio (x) = 0.04184 0.09881
# Poissons Ratio (y) = 0.03100 0.34901
# Poissons Ratio (z) = 0.09534 0.45445
#
# Static dielectric constant tensor:
#      x y z
#    x 2.104420 0.000000 0.194250 
#    y 0.000000 2.131810 0.000000 
#    z 0.194250 0.000000 2.182390 
# 
# From -- ./inp_files/25809.got.cif
#   From: 2010.05.17/outbox.cif.g08.bks.cpg/sg15_13_cif.got.tgz:25809.got - 2010.06.03 18:47:42.
