data_PCOD9290337
_publ_section_title
;
Structure prediction by ZEFSAII (Michael W. Deem and Ramdas Pophale) SiO2 
 PCOD9290337
Probable space group: C 2/C
;
_chemical_formula_sum "Si O2"
_cell_formula_units_Z 60
_cell_length_a 11.240942
_cell_length_b 17.056088
_cell_length_c 21.180814
_cell_angle_alpha 90.000000
_cell_angle_beta 133.276175
_cell_angle_gamma 90.000000
_cell_volume 2956.587151
_symmetry_space_group_name_H-M "C 2/C"
_symmetry_group_IT_number 15
_symmetry_cell_setting 'monoclinic'
loop_
_space_group_symop_operation_xyz
x,y,z
-x,y,1/2-z
-x,-y,-z
x,-y,1/2+z
1/2+x,1/2+y,z
1/2-x,1/2+y,1/2-z
1/2-x,1/2-y,-z
1/2+x,1/2-y,1/2+z
loop_
_atom_site_type_symbol
_atom_site_label
_atom_site_fract_x
_atom_site_fract_y
_atom_site_fract_z
Si Si1 0.013020 0.085599 0.040165
Si Si2 0.155928 0.335863 0.415771
Si Si3 0.500000 0.067037 0.750000
Si Si4 0.170880 0.513734 0.098374
Si Si5 0.167770 0.317856 0.557010
Si Si6 0.543630 0.604104 0.832078
Si Si7 0.417693 0.286234 0.037816
Si Si8 0.274040 0.480199 0.776464
O O1 0.118625 0.081115 0.143090
O O2 0.091999 0.149833 0.021925
O O3 0.828671 0.117454 0.984395
O O4 0.000000 0.000000 0.000000
O O5 0.045875 0.379943 0.326071
O O6 0.080022 0.329438 0.457393
O O7 0.198902 0.249205 0.406872
O O8 0.654269 0.016261 0.785216
O O9 0.237751 0.598244 0.100538
O O10 0.287413 0.442866 0.117922
O O11 0.166161 0.527402 0.172806
O O12 0.000000 0.500000 0.000000
O O13 0.041356 0.281512 0.560675
O O14 0.500000 0.643194 0.750000
O O15 0.526126 0.664633 0.881693
O O16 0.412093 0.538189 0.800807
O O17 0.250000 0.250000 0.000000
#
# Coordination Sequence:
#
# PCOD9290337 Si02
#       8
#     8   8   4   8   8   8   8   8
#     4  11  20  42  70  89 126 175 216 269 321 403
#     4  10  22  41  65  90 128 172 214 270 336 389
#     4  12  22  38  62  98 126 166 222 276 314 396
#     4  11  23  41  68  98 128 169 219 281 321 395
#     4  10  22  42  59  93 131 163 213 270 335 386
#     4  10  22  43  68  90 129 178 221 261 330 411
#     4  11  23  40  64  94 129 170 213 266 339 388
#     4  11  23  38  64  99 125 167 230 263 330 383
#
# _framework density 20.293669000000001
#
# number of rings (size 3 to 8) (size 9 to 14) (size 15 to 20)
#    0.000    1.333    2.667    3.200    0.000    3.200 
#   13.200    0.000    0.000    0.000    0.000    0.000 
#    0.000    0.000    0.000    0.000    0.000    0.000 
#
# Total GULP energy -167330.267211 kJ/mol
# GULP energy per Si atom -5577.675574 kJ/mol
# Density = 2.024748 g / cm^3
# Si number density = 20.293669 Si / 1000 Ang^3
#
#
#
# Elastic Constant Matrix: (Units=GPa)
#
#
# Indices 1 2 3 4 5 6 
#
# 1 76.6158 8.2925 24.4584 0.0000 -18.8929 0.0000
# 2 8.2925 61.1885 22.6256 0.0000 -7.2143 0.0000
# 3 24.4584 22.6256 110.9061 0.0000 -14.5049 0.0000
# 4 0.0000 0.0000 0.0000 10.0264 0.0000 -9.9587
# 5 -18.8929 -7.2143 -14.5049 0.0000 31.5153 0.0000
# 6 0.0000 0.0000 0.0000 -9.9587 0.0000 27.2114
#
#
#
# Elastic Compliance Matrix: (Units=1/GPa)
#
#
# Indices 1 2 3 4 5 6 
#
# 1 0.015902 -0.000298 -0.002350 0.000000 0.008383 0.000000
# 2 -0.000298 0.017875 -0.003266 0.000000 0.002410 0.000000
# 3 -0.002350 -0.003266 0.010554 0.000000 0.002701 0.000000
# 4 0.000000 0.000000 0.000000 0.156696 0.000000 0.057347
# 5 0.008383 0.002410 0.002701 0.000000 0.038551 0.000000
# 6 0.000000 0.000000 0.000000 0.057347 0.000000 0.057737
#
#
# Mechanical properties :
#
#
# Convention : Reuss Voigt Hill
#
# Bulk Modulus (GPa) = 30.76482 39.94039 35.35261
# Shear Modulus (GPa) = 15.62613 26.63955 21.13284
#
# Velocity S-wave (km/s) = 2.77790 3.62705 3.23050
# Velocity P-wave (km/s) = 5.04794 6.10448 5.60117
#
# Compressibility (1/GPa) = 0.03250466
#
# Stress axis : x y z
#
# Youngs Moduli (GPa) = 62.88629 55.94389 94.74753
#
# Poissons Ratio (x) = 0.01666 0.22263
# Poissons Ratio (y) = 0.01873 0.30942
# Poissons Ratio (z) = 0.14776 0.18270
#
# Static dielectric constant tensor:
#      x y z
#    x 1.716280 0.000000 -0.013370 
#    y 0.000000 1.642840 0.000000 
#    z -0.013370 0.000000 1.746360 
# 
# From -- ./inp_files/239995.got.cif
#   From: 2010.05.17/outbox.cif.g08.bks.cpg/sg15_120_cif.got.tgz:239995.got - 2010.06.03 18:47:42.
