data_PCOD9290037
_publ_section_title
;
Structure prediction by ZEFSAII (Michael W. Deem and Ramdas Pophale) SiO2 
 PCOD9290037
Probable space group: C 2/C
;
_chemical_formula_sum "Si O2"
_cell_formula_units_Z 32
_cell_length_a 15.618695
_cell_length_b 8.446725
_cell_length_c 23.319978
_cell_angle_alpha 90.000000
_cell_angle_beta 155.226205
_cell_angle_gamma 90.000000
_cell_volume 1289.179694
_symmetry_space_group_name_H-M "C 2/C"
_symmetry_group_IT_number 15
_symmetry_cell_setting 'monoclinic'
loop_
_space_group_symop_operation_xyz
x,y,z
-x,y,1/2-z
-x,-y,-z
x,-y,1/2+z
1/2+x,1/2+y,z
1/2-x,1/2+y,1/2-z
1/2-x,1/2-y,-z
1/2+x,1/2-y,1/2+z
loop_
_atom_site_type_symbol
_atom_site_label
_atom_site_fract_x
_atom_site_fract_y
_atom_site_fract_z
Si Si1 0.750000 0.250000 0.000000
Si Si2 0.236906 0.350346 0.804967
Si Si3 0.500000 0.065705 0.750000
Si Si4 0.360280 0.802354 0.963730
Si Si5 0.382062 0.497384 0.775239
O O1 0.937061 0.341044 0.073529
O O2 0.599338 0.414897 0.901572
O O3 0.122693 0.459116 0.780886
O O4 0.280584 0.436657 0.772001
O O5 0.115280 0.186270 0.724187
O O6 0.467046 0.294683 0.964104
O O7 0.675901 0.187862 0.879634
O O8 0.258265 0.931148 0.862226
#
# Coordination Sequence:
#
# PCOD9290037 Si02
#       5
#     4   8   4   8   8
#     4  10  22  40  76  94 132 184 226 282 354 396
#     4  11  27  43  72 104 141 185 236 286 348 420
#     4  12  24  44  70 106 140 184 236 282 352 412
#     4  11  23  46  71  97 146 185 232 288 352 406
#     4  11  23  48  69 102 142 181 236 286 349 416
#
# _framework density 24.821984
#
# number of rings (size 3 to 8) (size 9 to 14) (size 15 to 20)
#    0.000    1.000    2.500    3.000    7.000    2.000 
#    0.000    6.250    0.000    0.000    0.000    0.000 
#    0.000    0.000    0.000    0.000    0.000    0.000 
#
# Total GULP energy -89204.759417 kJ/mol
# GULP energy per Si atom -5575.297464 kJ/mol
# Density = 2.476549 g / cm^3
# Si number density = 24.821984 Si / 1000 Ang^3
#
#
#
# Elastic Constant Matrix: (Units=GPa)
#
#
# Indices 1 2 3 4 5 6 
#
# 1 159.0273 79.8744 12.8979 -0.0010 25.6071 -0.0003
# 2 79.8744 175.7198 44.3621 -0.0035 20.3995 0.0001
# 3 12.8979 44.3621 74.8597 -0.0055 27.2276 0.0006
# 4 -0.0010 -0.0035 -0.0055 32.2779 0.0004 15.4457
# 5 25.6071 20.3995 27.2276 0.0004 48.3321 -0.0002
# 6 -0.0003 0.0001 0.0006 15.4457 -0.0002 54.6102
#
#
#
# Elastic Compliance Matrix: (Units=1/GPa)
#
#
# Indices 1 2 3 4 5 6 
#
# 1 0.008880 -0.004168 0.002530 0.000000 -0.004371 0.000000
# 2 -0.004168 0.008669 -0.004895 0.000000 0.001306 0.000000
# 3 0.002530 -0.004895 0.019569 0.000004 -0.010298 -0.000001
# 4 0.000000 0.000000 0.000004 0.035830 -0.000003 -0.010134
# 5 -0.004371 0.001306 -0.010298 -0.000003 0.028256 0.000001
# 6 0.000000 0.000000 -0.000001 -0.010134 0.000001 0.021178
#
#
# Mechanical properties :
#
#
# Convention : Reuss Voigt Hill
#
# Bulk Modulus (GPa) = 41.57542 75.98617 58.78079
# Shear Modulus (GPa) = 34.85157 45.20886 40.03022
#
# Velocity S-wave (km/s) = 3.75114 4.27233 4.02019
# Velocity P-wave (km/s) = 5.96215 7.41727 6.72916
#
# Compressibility (1/GPa) = 0.02405268
#
# Stress axis : x y z
#
# Youngs Moduli (GPa) = 112.61023 115.34880 51.10212
#
# Poissons Ratio (x) = 0.48074 -0.12926
# Poissons Ratio (y) = 0.46933 0.25012
# Poissons Ratio (z) = -0.28485 0.56458
#
# Static dielectric constant tensor:
#      x y z
#    x 2.100490 0.000000 -0.069120 
#    y 0.000000 1.978490 0.000000 
#    z -0.069120 0.000000 2.092800 
# 
# From -- ./inp_files/150464.got.cif
#   From: 2010.05.17/outbox.cif.g08.bks.cpg/sg15_76_cif.got.tgz:150464.got - 2010.06.03 18:47:42.
