data_PCOD9290686
_publ_section_title
;
Structure prediction by ZEFSAII (Michael W. Deem and Ramdas Pophale) SiO2 
 PCOD9290686
Probable space group: C 2/C
;
_chemical_formula_sum "Si O2"
_cell_formula_units_Z 48
_cell_length_a 11.617197
_cell_length_b 12.514892
_cell_length_c 14.653055
_cell_angle_alpha 90.000000
_cell_angle_beta 66.993336
_cell_angle_gamma 90.000000
_cell_volume 1960.926330
_symmetry_space_group_name_H-M "C 2/C"
_symmetry_group_IT_number 15
_symmetry_cell_setting 'monoclinic'
loop_
_space_group_symop_operation_xyz
x,y,z
-x,y,1/2-z
-x,-y,-z
x,-y,1/2+z
1/2+x,1/2+y,z
1/2-x,1/2+y,1/2-z
1/2-x,1/2-y,-z
1/2+x,1/2-y,1/2+z
loop_
_atom_site_type_symbol
_atom_site_label
_atom_site_fract_x
_atom_site_fract_y
_atom_site_fract_z
Si Si1 0.196813 0.051914 0.319923
Si Si2 0.939340 0.579372 0.681439
Si Si3 0.106395 0.760131 0.947582
Si Si4 0.840884 0.127957 0.534017
Si Si5 0.014529 0.357954 0.637860
Si Si6 0.759856 0.841303 0.868243
O O1 0.155292 0.108816 0.238353
O O2 0.207105 0.153167 0.383891
O O3 0.871486 0.038003 0.599236
O O4 0.320723 0.987522 0.253795
O O5 0.105010 0.656808 0.883494
O O6 0.036584 0.485701 0.621627
O O7 0.757770 0.715998 0.896575
O O8 0.000000 0.635988 0.750000
O O9 0.972593 0.816582 0.970664
O O10 0.101734 0.720071 0.052586
O O11 0.784755 0.094550 0.453613
O O12 0.880326 0.346604 0.628890
O O13 0.000000 0.332376 0.750000
#
# Coordination Sequence:
#
# PCOD9290686 Si02
#       6
#     8   8   8   8   8   8
#     4  11  23  41  62 105 136 173 229 297 345 408
#     4  10  23  41  69  96 135 181 234 283 340 426
#     4  11  23  40  70 100 134 185 232 289 352 412
#     4  10  22  41  68  97 139 182 237 281 347 423
#     4   9  20  43  65  96 136 176 231 284 344 419
#     4   9  21  41  66  95 134 181 230 283 341 416
#
# _framework density 24.478227
#
# number of rings (size 3 to 8) (size 9 to 14) (size 15 to 20)
#    0.000    2.000    0.000    2.000    9.333    0.000 
#   15.000    7.500    0.000    0.000    0.000    0.000 
#    0.000    0.000    0.000    0.000    0.000    0.000 
#
# Total GULP energy -133892.392106 kJ/mol
# GULP energy per Si atom -5578.849671 kJ/mol
# Density = 2.442251 g / cm^3
# Si number density = 24.478227 Si / 1000 Ang^3
#
#
#
# Elastic Constant Matrix: (Units=GPa)
#
#
# Indices 1 2 3 4 5 6 
#
# 1 49.5999 6.8701 59.7112 0.0000 3.6350 0.0000
# 2 6.8701 108.2928 85.0448 0.0000 -12.4195 0.0000
# 3 59.7112 85.0448 152.6382 0.0000 3.8609 0.0000
# 4 0.0000 0.0000 0.0000 69.6230 0.0000 -16.1459
# 5 3.6350 -12.4195 3.8609 0.0000 38.8009 0.0000
# 6 0.0000 0.0000 0.0000 -16.1459 0.0000 33.6773
#
#
#
# Elastic Compliance Matrix: (Units=1/GPa)
#
#
# Indices 1 2 3 4 5 6 
#
# 1 0.069926 0.032298 -0.045560 0.000000 0.008321 0.000000
# 2 0.032298 0.032961 -0.031268 0.000000 0.010636 0.000000
# 3 -0.045560 -0.031268 0.042047 0.000000 -0.009924 0.000000
# 4 0.000000 0.000000 0.000000 0.016160 0.000000 0.007747
# 5 0.008321 0.010636 -0.009924 0.000000 0.029385 0.000000
# 6 0.000000 0.000000 0.000000 0.007747 0.000000 0.033408
#
#
# Mechanical properties :
#
#
# Convention : Reuss Voigt Hill
#
# Bulk Modulus (GPa) = 17.89811 68.19812 43.04811
# Shear Modulus (GPa) = 15.07970 39.01390 27.04680
#
# Velocity S-wave (km/s) = 2.48472 3.99660 3.32766
# Velocity P-wave (km/s) = 3.94455 7.01557 5.69112
#
# Compressibility (1/GPa) = 0.05587183
#
# Stress axis : x y z
#
# Youngs Moduli (GPa) = 14.30086 30.33924 23.78297
#
# Poissons Ratio (x) = -0.97988 1.08356
# Poissons Ratio (y) = -0.46188 0.74365
# Poissons Ratio (z) = 0.65155 0.94865
#
# Static dielectric constant tensor:
#      x y z
#    x 2.088000 0.000000 -0.045630 
#    y 0.000000 1.983100 0.000000 
#    z -0.045630 0.000000 2.010060 
# 
# From -- ./inp_files/151941.got.cif
#   From: 2010.05.17/outbox.cif.g08.bks.cpg/sg15_76_cif.got.tgz:151941.got - 2010.06.03 18:47:42.
