data_PCOD9290655
_publ_section_title
;
Structure prediction by ZEFSAII (Michael W. Deem and Ramdas Pophale) SiO2 
 PCOD9290655
Probable space group: C 2/C
;
_chemical_formula_sum "Si O2"
_cell_formula_units_Z 48
_cell_length_a 18.637022
_cell_length_b 13.441451
_cell_length_c 18.800206
_cell_angle_alpha 90.000000
_cell_angle_beta 30.865090
_cell_angle_gamma 90.000000
_cell_volume 2416.118175
_symmetry_space_group_name_H-M "C 2/C"
_symmetry_group_IT_number 15
_symmetry_cell_setting 'monoclinic'
loop_
_space_group_symop_operation_xyz
x,y,z
-x,y,1/2-z
-x,-y,-z
x,-y,1/2+z
1/2+x,1/2+y,z
1/2-x,1/2+y,1/2-z
1/2-x,1/2-y,-z
1/2+x,1/2-y,1/2+z
loop_
_atom_site_type_symbol
_atom_site_label
_atom_site_fract_x
_atom_site_fract_y
_atom_site_fract_z
Si Si1 0.350673 0.791728 0.355661
Si Si2 0.791640 0.327280 0.249073
Si Si3 0.364603 0.987183 0.900252
Si Si4 0.997066 0.744737 0.056079
Si Si5 0.870011 0.170090 0.915295
Si Si6 0.955825 0.478568 0.617584
O O1 0.500000 0.749745 0.250000
O O2 0.250000 0.750000 0.500000
O O3 0.316118 0.772122 0.303319
O O4 0.353829 0.909699 0.367899
O O5 0.633324 0.308585 0.360540
O O6 0.830063 0.442777 0.232944
O O7 0.896009 0.285976 0.098575
O O8 0.500000 0.931763 0.750000
O O9 0.417999 0.003829 0.935325
O O10 0.219192 0.930955 0.016299
O O11 0.074087 0.802888 0.053919
O O12 0.935030 0.640050 0.139803
O O13 0.000000 0.172016 0.750000
O O14 0.750000 0.250000 0.000000
O O15 0.000000 0.500000 0.500000
#
# Coordination Sequence:
#
# PCOD9290655 Si02
#       6
#     8   8   8   8   8   8
#     4  11  23  42  68  93 130 178 226 268 322 391
#     4  11  23  43  65 100 131 175 218 271 333 395
#     4  11  23  44  70  94 129 178 222 269 335 390
#     4  11  25  41  68  98 134 168 221 272 335 397
#     4  12  25  42  68 103 134 169 222 277 332 397
#     4  10  22  41  68  92 130 176 218 263 330 399
#
# _framework density 19.866575999999998
#
# number of rings (size 3 to 8) (size 9 to 14) (size 15 to 20)
#    0.000    1.000    5.000    2.500    7.000    0.667 
#    0.000    5.000    0.000    0.000    0.000    0.000 
#    0.000    0.000    0.000    0.000    0.000    0.000 
#
# Total GULP energy -133883.278901 kJ/mol
# GULP energy per Si atom -5578.469954 kJ/mol
# Density = 1.982136 g / cm^3
# Si number density = 19.866576 Si / 1000 Ang^3
#
#
#
# Elastic Constant Matrix: (Units=GPa)
#
#
# Indices 1 2 3 4 5 6 
#
# 1 212.7955 35.6710 69.6736 0.0001 -1.0540 0.0000
# 2 35.6710 48.7861 30.4774 0.0001 -10.2425 -0.0001
# 3 69.6736 30.4774 147.9741 0.0001 -5.2181 -0.0001
# 4 0.0001 0.0001 0.0001 30.6546 -0.0001 -6.8419
# 5 -1.0540 -10.2425 -5.2181 -0.0001 43.1351 0.0000
# 6 0.0000 -0.0001 -0.0001 -6.8419 0.0000 31.6751
#
#
#
# Elastic Compliance Matrix: (Units=1/GPa)
#
#
# Indices 1 2 3 4 5 6 
#
# 1 0.005938 -0.003166 -0.002174 0.000000 -0.000870 0.000000
# 2 -0.003166 0.026347 -0.003734 0.000000 0.005727 0.000000
# 3 -0.002174 -0.003734 0.008554 0.000000 0.000095 0.000000
# 4 0.000000 0.000000 0.000000 0.034274 0.000000 0.007403
# 5 -0.000870 0.005727 0.000095 0.000000 0.024533 0.000000
# 6 0.000000 0.000000 0.000000 0.007403 0.000000 0.033170
#
#
# Mechanical properties :
#
#
# Convention : Reuss Voigt Hill
#
# Bulk Modulus (GPa) = 44.07045 75.68884 59.87965
# Shear Modulus (GPa) = 31.54019 39.34187 35.44103
#
# Velocity S-wave (km/s) = 3.98879 4.45489 4.22827
# Velocity P-wave (km/s) = 6.59131 8.04007 7.35146
#
# Compressibility (1/GPa) = 0.02269094
#
# Stress axis : x y z
#
# Youngs Moduli (GPa) = 168.41710 37.95439 116.90160
#
# Poissons Ratio (x) = 0.12015 0.25419
# Poissons Ratio (y) = 0.53315 0.43653
# Poissons Ratio (z) = 0.36621 0.14173
#
# Static dielectric constant tensor:
#      x y z
#    x 1.689380 0.000000 -0.030420 
#    y 0.000000 1.544470 0.000000 
#    z -0.030420 0.000000 1.525770 
# 
# From -- ./inp_files/211326.got.cif
#   From: 2010.05.17/outbox.cif.g08.bks.cpg/sg15_106_cif.got.tgz:211326.got - 2010.06.03 18:47:42.
