data_PCOD9290164
_publ_section_title
;
Structure prediction by ZEFSAII (Michael W. Deem and Ramdas Pophale) SiO2 
 PCOD9290164
Probable space group: C 2/C
;
_chemical_formula_sum "Si O2"
_cell_formula_units_Z 40
_cell_length_a 7.095611
_cell_length_b 12.157434
_cell_length_c 18.057282
_cell_angle_alpha 90.000000
_cell_angle_beta 95.107361
_cell_angle_gamma 90.000000
_cell_volume 1551.516363
_symmetry_space_group_name_H-M "C 2/C"
_symmetry_group_IT_number 15
_symmetry_cell_setting 'monoclinic'
loop_
_space_group_symop_operation_xyz
x,y,z
-x,y,1/2-z
-x,-y,-z
x,-y,1/2+z
1/2+x,1/2+y,z
1/2-x,1/2+y,1/2-z
1/2-x,1/2-y,-z
1/2+x,1/2-y,1/2+z
loop_
_atom_site_type_symbol
_atom_site_label
_atom_site_fract_x
_atom_site_fract_y
_atom_site_fract_z
Si Si1 0.801156 0.584637 0.948146
Si Si2 0.789347 0.063524 0.278945
Si Si3 0.539721 0.352800 0.166653
Si Si4 0.589233 0.326419 0.578821
Si Si5 0.668488 0.873812 0.618649
O O1 0.643561 0.591976 0.876393
O O2 0.911828 0.699469 0.944941
O O3 0.911971 0.472422 0.933537
O O4 0.678649 0.597823 0.018334
O O5 0.784420 0.153781 0.343221
O O6 0.661089 0.085176 0.203587
O O7 0.000000 0.071314 0.250000
O O8 0.793738 0.944075 0.318281
O O9 0.500000 0.319813 0.250000
O O10 0.589165 0.249032 0.117951
O O11 0.379522 0.360327 0.593707
#
# Coordination Sequence:
#
# PCOD9290164 Si02
#       5
#     8   8   8   8   8
#     4  11  22  42  60  90 122 158 199 246 298 351
#     4   9  18  37  61  82 116 157 192 240 297 347
#     4  11  21  40  63  88 121 155 203 250 293 353
#     4  10  22  41  63  84 127 159 193 249 298 353
#     4  11  22  40  64  87 118 160 201 241 303 354
#
# _framework density 25.781229
#
# number of rings (size 3 to 8) (size 9 to 14) (size 15 to 20)
#    0.000    1.600    6.000    1.800    0.000    0.800 
#    7.200    2.000    0.000    0.000    0.000    0.000 
#    0.000    0.000    0.000    0.000    0.000    0.000 
#
# Total GULP energy -111975.188464 kJ/mol
# GULP energy per Si atom -5598.759423 kJ/mol
# Density = 2.572255 g / cm^3
# Si number density = 25.781229 Si / 1000 Ang^3
#
#
#
# Elastic Constant Matrix: (Units=GPa)
#
#
# Indices 1 2 3 4 5 6 
#
# 1 49.7750 14.2572 17.0094 0.0000 -20.5762 0.0000
# 2 14.2572 155.8947 15.3094 0.0000 -30.8749 0.0000
# 3 17.0094 15.3094 124.9104 0.0000 -15.7573 0.0000
# 4 0.0000 0.0000 0.0000 46.0835 0.0000 -10.2737
# 5 -20.5762 -30.8749 -15.7573 0.0000 39.6315 0.0000
# 6 0.0000 0.0000 0.0000 -10.2737 0.0000 27.8264
#
#
#
# Elastic Compliance Matrix: (Units=1/GPa)
#
#
# Indices 1 2 3 4 5 6 
#
# 1 0.026038 0.000395 -0.001948 0.000000 0.013052 0.000000
# 2 0.000395 0.007595 -0.000224 0.000000 0.006033 0.000000
# 3 -0.001948 -0.000224 0.008579 0.000000 0.002226 0.000000
# 4 0.000000 0.000000 0.000000 0.023646 0.000000 0.008730
# 5 0.013052 0.006033 0.002226 0.000000 0.037594 0.000000
# 6 0.000000 0.000000 0.000000 0.008730 0.000000 0.039160
#
#
# Mechanical properties :
#
#
# Convention : Reuss Voigt Hill
#
# Bulk Modulus (GPa) = 25.86635 47.08134 36.47385
# Shear Modulus (GPa) = 31.43612 41.64187 36.53899
#
# Velocity S-wave (km/s) = 3.49570 4.02332 3.76875
# Velocity P-wave (km/s) = 5.13303 6.31540 5.75466
#
# Compressibility (1/GPa) = 0.03866026
#
# Stress axis : x y z
#
# Youngs Moduli (GPa) = 38.40485 131.66014 116.56214
#
# Poissons Ratio (x) = -0.05199 0.22702
# Poissons Ratio (y) = -0.01517 0.02606
# Poissons Ratio (z) = 0.07480 0.02944
#
# Static dielectric constant tensor:
#      x y z
#    x 2.042420 0.000000 0.040640 
#    y 0.000000 2.047750 0.000000 
#    z 0.040640 0.000000 1.978500 
# 
# From -- ./inp_files/187877.got.cif
#   From: 2010.05.17/outbox.cif.g08.bks.cpg/sg15_94_cif.got.tgz:187877.got - 2010.06.03 18:47:42.
