data_PCOD9290866
_publ_section_title
;
Structure prediction by ZEFSAII (Michael W. Deem and Ramdas Pophale) SiO2 
 PCOD9290866
Probable space group: C 2/C
;
_chemical_formula_sum "Si O2"
_cell_formula_units_Z 56
_cell_length_a 13.003055
_cell_length_b 9.275912
_cell_length_c 25.256960
_cell_angle_alpha 90.000000
_cell_angle_beta 120.864327
_cell_angle_gamma 90.000000
_cell_volume 2614.959401
_symmetry_space_group_name_H-M "C 2/C"
_symmetry_group_IT_number 15
_symmetry_cell_setting 'monoclinic'
loop_
_space_group_symop_operation_xyz
x,y,z
-x,y,1/2-z
-x,-y,-z
x,-y,1/2+z
1/2+x,1/2+y,z
1/2-x,1/2+y,1/2-z
1/2-x,1/2-y,-z
1/2+x,1/2-y,1/2+z
loop_
_atom_site_type_symbol
_atom_site_label
_atom_site_fract_x
_atom_site_fract_y
_atom_site_fract_z
Si Si1 0.557952 0.742147 0.395385
Si Si2 0.747153 0.095510 0.884305
Si Si3 0.532198 0.736200 0.606055
Si Si4 0.422458 0.007704 0.031285
Si Si5 0.102448 0.102266 0.733795
Si Si6 0.210890 0.857599 0.693782
Si Si7 0.165207 0.028720 0.979765
O O1 0.622680 0.824131 0.364017
O O2 0.589716 0.845653 0.452519
O O3 0.417092 0.715566 0.353069
O O4 0.617712 0.592212 0.427008
O O5 0.838679 0.213035 0.885434
O O6 0.746724 0.965648 0.841868
O O7 0.802383 0.033160 0.953682
O O8 0.535470 0.662846 0.663915
O O9 0.436863 0.648474 0.545426
O O10 0.491039 0.900304 0.593995
O O11 0.500000 0.000000 0.000000
O O12 0.292432 0.077482 0.989974
O O13 0.192088 0.232183 0.772995
O O14 0.000000 0.070253 0.750000
O O15 0.179305 0.962609 0.735347
#
# Coordination Sequence:
#
# PCOD9290866 Si02
#       7
#     8   8   8   8   8   8   8
#     4  11  23  43  67  99 136 178 220 268 350 413
#     4  10  22  41  72  97 135 176 220 277 346 419
#     4  11  23  43  63 101 135 174 227 284 340 400
#     4  11  24  36  64 104 137 175 219 274 344 426
#     4  11  28  48  72  98 137 180 243 286 336 402
#     4  11  27  48  71 101 133 187 230 291 343 398
#     4  11  21  41  68  96 139 177 216 269 354 418
#
# _framework density 21.415244999999999
#
# number of rings (size 3 to 8) (size 9 to 14) (size 15 to 20)
#    0.000    1.143    2.857    4.286    8.000    3.429 
#    0.000    0.000    0.000    0.000    0.000    0.000 
#    0.000    0.000    0.000    0.000    0.000    0.000 
#
# Total GULP energy -156435.740072 kJ/mol
# GULP energy per Si atom -5586.990717 kJ/mol
# Density = 2.136650 g / cm^3
# Si number density = 21.415245 Si / 1000 Ang^3
#
#
#
# Elastic Constant Matrix: (Units=GPa)
#
#
# Indices 1 2 3 4 5 6 
#
# 1 107.0380 22.9535 14.4811 0.0000 -22.1017 0.0000
# 2 22.9535 47.5870 5.2912 0.0000 11.1341 0.0000
# 3 14.4811 5.2912 40.7170 0.0000 -3.2559 0.0000
# 4 0.0000 0.0000 0.0000 23.8151 0.0000 -0.3379
# 5 -22.1017 11.1341 -3.2559 0.0000 29.1292 0.0000
# 6 0.0000 0.0000 0.0000 -0.3379 0.0000 22.0727
#
#
#
# Elastic Compliance Matrix: (Units=1/GPa)
#
#
# Indices 1 2 3 4 5 6 
#
# 1 0.015113 -0.010531 -0.002793 0.000000 0.015180 0.000000
# 2 -0.010531 0.030994 -0.001885 0.000000 -0.020048 0.000000
# 3 -0.002793 -0.001885 0.025918 0.000000 0.001499 0.000000
# 4 0.000000 0.000000 0.000000 0.041999 0.000000 0.000643
# 5 0.015180 -0.020048 0.001499 0.000000 0.053678 0.000000
# 6 0.000000 0.000000 0.000000 0.000643 0.000000 0.045315
#
#
# Mechanical properties :
#
#
# Convention : Reuss Voigt Hill
#
# Bulk Modulus (GPa) = 24.03448 31.19930 27.61689
# Shear Modulus (GPa) = 19.43227 25.17782 22.30504
#
# Velocity S-wave (km/s) = 3.01558 3.43256 3.23081
# Velocity P-wave (km/s) = 4.83450 5.50548 5.18087
#
# Compressibility (1/GPa) = 0.04160689
#
# Stress axis : x y z
#
# Youngs Moduli (GPa) = 66.16802 32.26427 38.58344
#
# Poissons Ratio (x) = 0.33977 0.10775
# Poissons Ratio (y) = 0.69681 0.07275
# Poissons Ratio (z) = 0.18478 0.06083
#
# Static dielectric constant tensor:
#      x y z
#    x 1.819950 0.000000 0.010720 
#    y 0.000000 1.763760 0.000000 
#    z 0.010720 0.000000 1.778850 
# 
# From -- ./inp_files/291628.got.cif
#   From: 2010.05.17/outbox.cif.g08.bks.cpg/sg15_146_cif.got.tgz:291628.got - 2010.06.03 18:47:42.
