data_PCOD9290325
_publ_section_title
;
Structure prediction by ZEFSAII (Michael W. Deem and Ramdas Pophale) SiO2 
 PCOD9290325
Probable space group: C 2/C
;
_chemical_formula_sum "Si O2"
_cell_formula_units_Z 60
_cell_length_a 14.427286
_cell_length_b 13.164887
_cell_length_c 17.016634
_cell_angle_alpha 90.000000
_cell_angle_beta 72.487961
_cell_angle_gamma 90.000000
_cell_volume 3082.237881
_symmetry_space_group_name_H-M "C 2/C"
_symmetry_group_IT_number 15
_symmetry_cell_setting 'monoclinic'
loop_
_space_group_symop_operation_xyz
x,y,z
-x,y,1/2-z
-x,-y,-z
x,-y,1/2+z
1/2+x,1/2+y,z
1/2-x,1/2+y,1/2-z
1/2-x,1/2-y,-z
1/2+x,1/2-y,1/2+z
loop_
_atom_site_type_symbol
_atom_site_label
_atom_site_fract_x
_atom_site_fract_y
_atom_site_fract_z
Si Si1 0.356525 0.479140 0.506194
Si Si2 0.749812 0.145049 0.158139
Si Si3 0.966288 0.828941 0.034420
Si Si4 0.834221 0.498229 0.545161
Si Si5 0.000000 0.618786 0.750000
Si Si6 0.086258 0.689192 0.888190
Si Si7 0.369325 0.165692 0.156095
Si Si8 0.069925 0.555069 0.135250
O O1 0.312137 0.446667 0.602999
O O2 0.441478 0.398656 0.464271
O O3 0.400143 0.591683 0.503105
O O4 0.270104 0.474985 0.465283
O O5 0.819594 0.239917 0.130084
O O6 0.712015 0.149933 0.256874
O O7 0.650977 0.139338 0.132719
O O8 0.009431 0.738925 0.968517
O O9 0.905960 0.776890 0.120232
O O10 0.875006 0.579524 0.596392
O O11 0.833106 0.390479 0.587151
O O12 0.908339 0.505985 0.454050
O O13 0.042727 0.681623 0.811683
O O14 0.077200 0.538803 0.693675
O O15 0.465767 0.107692 0.161999
#
# Coordination Sequence:
#
# PCOD9290325 Si02
#       8
#     8   8   8   8   4   8   8   8
#     4   9  23  43  61  86 125 165 193 255 296 354
#     4  10  23  37  60  87 125 153 203 245 305 344
#     4  10  22  41  65  87 121 163 209 233 302 364
#     4  11  22  37  63  88 120 153 208 249 298 351
#     4  12  22  38  60  86 126 152 188 254 322 336
#     4  11  23  39  61  90 117 161 198 249 299 367
#     4  12  21  36  62  91 120 155 205 249 293 365
#     4  11  20  37  59  87 119 157 191 251 295 357
#
# _framework density 19.466376
#
# number of rings (size 3 to 8) (size 9 to 14) (size 15 to 20)
#    0.000    1.333    4.000    1.200    1.867    6.400 
#    0.000    0.000    0.000    0.000    0.000    0.000 
#    0.000    0.000    0.000    0.000    0.000    0.000 
#
# Total GULP energy -167333.866431 kJ/mol
# GULP energy per Si atom -5577.795548 kJ/mol
# Density = 1.942207 g / cm^3
# Si number density = 19.466376 Si / 1000 Ang^3
#
#
#
# Elastic Constant Matrix: (Units=GPa)
#
#
# Indices 1 2 3 4 5 6 
#
# 1 77.1420 28.7329 13.8615 0.0000 2.0220 0.0000
# 2 28.7329 66.9926 13.0315 0.0000 0.1143 0.0000
# 3 13.8615 13.0315 79.2228 0.0000 -7.2989 0.0000
# 4 0.0000 0.0000 0.0000 16.0654 0.0000 1.2899
# 5 2.0220 0.1143 -7.2989 0.0000 23.1625 0.0000
# 6 0.0000 0.0000 0.0000 1.2899 0.0000 22.9636
#
#
#
# Elastic Compliance Matrix: (Units=1/GPa)
#
#
# Indices 1 2 3 4 5 6 
#
# 1 0.015727 -0.006376 -0.001881 0.000000 -0.001934 0.000000
# 2 -0.006376 0.018024 -0.001860 0.000000 -0.000118 0.000000
# 3 -0.001881 -0.001860 0.013671 0.000000 0.004481 0.000000
# 4 0.000000 0.000000 0.000000 0.062528 0.000000 -0.003512
# 5 -0.001934 -0.000118 0.004481 0.000000 0.044755 0.000000
# 6 0.000000 0.000000 0.000000 -0.003512 0.000000 0.043744
#
#
# Mechanical properties :
#
#
# Convention : Reuss Voigt Hill
#
# Bulk Modulus (GPa) = 36.78260 37.17879 36.98070
# Shear Modulus (GPa) = 21.95448 23.62042 22.78745
#
# Velocity S-wave (km/s) = 3.36194 3.48716 3.42512
# Velocity P-wave (km/s) = 5.83152 5.94594 5.88901
#
# Compressibility (1/GPa) = 0.02718677
#
# Stress axis : x y z
#
# Youngs Moduli (GPa) = 63.58647 55.48273 73.14975
#
# Poissons Ratio (x) = 0.35375 0.13760
# Poissons Ratio (y) = 0.40542 0.13606
# Poissons Ratio (z) = 0.11961 0.10320
#
# Static dielectric constant tensor:
#      x y z
#    x 1.677170 0.000000 -0.011450 
#    y 0.000000 1.670300 0.000000 
#    z -0.011450 0.000000 1.708390 
# 
# From -- ./inp_files/153927.got.cif
#   From: 2010.05.17/outbox.cif.g08.bks.cpg/sg15_77_cif.got.tgz:153927.got - 2010.06.03 18:47:42.
