data_PCOD9290970
_publ_section_title
;
Structure prediction by ZEFSAII (Michael W. Deem and Ramdas Pophale) SiO2 
 PCOD9290970
Probable space group: C 2/C
;
_chemical_formula_sum "Si O2"
_cell_formula_units_Z 44
_cell_length_a 14.003546
_cell_length_b 11.052209
_cell_length_c 14.908898
_cell_angle_alpha 90.000000
_cell_angle_beta 118.906698
_cell_angle_gamma 90.000000
_cell_volume 2019.961900
_symmetry_space_group_name_H-M "C 2/C"
_symmetry_group_IT_number 15
_symmetry_cell_setting 'monoclinic'
loop_
_space_group_symop_operation_xyz
x,y,z
-x,y,1/2-z
-x,-y,-z
x,-y,1/2+z
1/2+x,1/2+y,z
1/2-x,1/2+y,1/2-z
1/2-x,1/2-y,-z
1/2+x,1/2-y,1/2+z
loop_
_atom_site_type_symbol
_atom_site_label
_atom_site_fract_x
_atom_site_fract_y
_atom_site_fract_z
Si Si1 0.977774 0.218356 0.116581
Si Si2 0.622098 0.117499 0.340570
Si Si3 0.169408 0.661181 0.826307
Si Si4 0.922244 0.382990 0.472700
Si Si5 0.000000 0.995128 0.250000
Si Si6 0.794714 0.160139 0.720067
O O1 0.863135 0.276655 0.095013
O O2 0.975523 0.082122 0.152948
O O3 0.075742 0.281115 0.219327
O O4 0.013409 0.264887 0.035335
O O5 0.500000 0.138554 0.250000
O O6 0.617322 0.135949 0.444410
O O7 0.700434 0.210171 0.325761
O O8 0.652843 0.980481 0.332648
O O9 0.279644 0.678199 0.819959
O O10 0.814050 0.405957 0.364642
O O11 0.000000 0.500000 0.500000
O O12 0.898500 0.914169 0.234032
#
# Coordination Sequence:
#
# PCOD9290970 Si02
#       6
#     8   8   8   8   4   8
#     4   9  19  40  62  89 123 169 203 258 310 375
#     4  12  21  40  66  92 126 166 216 264 315 372
#     4   9  18  35  61  89 116 163 210 244 306 370
#     4  11  22  43  65  94 126 161 223 262 306 377
#     4  10  22  42  62  90 140 164 208 248 330 380
#     4  11  24  38  62  97 127 167 205 264 315 371
#
# _framework density 21.782589000000002
#
# number of rings (size 3 to 8) (size 9 to 14) (size 15 to 20)
#    0.000    1.818    4.545    1.636    7.636    0.000 
#    0.000    3.636    0.000    0.000    0.000    0.000 
#    0.000    0.000    0.000    0.000    0.000    0.000 
#
# Total GULP energy -122751.897196 kJ/mol
# GULP energy per Si atom -5579.631691 kJ/mol
# Density = 2.173301 g / cm^3
# Si number density = 21.782589 Si / 1000 Ang^3
#
#
#
# Elastic Constant Matrix: (Units=GPa)
#
#
# Indices 1 2 3 4 5 6 
#
# 1 144.0514 19.7143 18.5662 0.0000 -13.6900 0.0000
# 2 19.7143 58.1845 -10.4301 0.0000 3.1680 0.0000
# 3 18.5662 -10.4301 17.8502 0.0000 -6.5358 0.0000
# 4 0.0000 0.0000 0.0000 -10.2214 0.0000 -2.4458
# 5 -13.6900 3.1680 -6.5358 0.0000 43.3594 0.0000
# 6 0.0000 0.0000 0.0000 -2.4458 0.0000 14.4460
#
#
#
# Elastic Compliance Matrix: (Units=1/GPa)
#
#
# Indices 1 2 3 4 5 6 
#
# 1 0.009454 -0.005528 -0.012513 0.000000 0.001503 0.000000
# 2 -0.005528 0.022434 0.018648 0.000000 -0.000574 0.000000
# 3 -0.012513 0.018648 0.082544 0.000000 0.007129 0.000000
# 4 0.000000 0.000000 0.000000 -0.094025 0.000000 -0.015919
# 5 0.001503 -0.000574 0.007129 0.000000 0.024654 0.000000
# 6 0.000000 0.000000 0.000000 -0.015919 0.000000 0.066528
#
#
# Mechanical properties :
#
#
# Convention : Reuss Voigt Hill
#
# Bulk Modulus (GPa) = 8.64711 30.64299 19.64505
# Shear Modulus (GPa) = 33.57413 22.33252 27.95332
#
# Velocity S-wave (km/s) = 3.93024 3.20542 3.58619
# Velocity P-wave (km/s) = 4.95722 5.27236 5.11722
#
# Compressibility (1/GPa) = 0.11564562
#
# Stress axis : x y z
#
# Youngs Moduli (GPa) = 105.77358 44.57528 12.11477
#
# Poissons Ratio (x) = 0.24642 0.15160
# Poissons Ratio (y) = 0.58474 -0.22592
# Poissons Ratio (z) = 1.32359 -0.83126
#
# Static dielectric constant tensor:
#      x y z
#    x 1.805890 0.000000 0.007130 
#    y 0.000000 1.770000 0.000000 
#    z 0.007130 0.000000 1.771380 
# 
# From -- ./inp_files/196303.got.cif
#   From: 2010.05.17/outbox.cif.g08.bks.cpg/sg15_99_cif.got.tgz:196303.got - 2010.06.03 18:47:42.
