data_PCOD9290154
_publ_section_title
;
Structure prediction by ZEFSAII (Michael W. Deem and Ramdas Pophale) SiO2 
 PCOD9290154
Probable space group: C 2/C
;
_chemical_formula_sum "Si O2"
_cell_formula_units_Z 52
_cell_length_a 26.577094
_cell_length_b 6.201452
_cell_length_c 21.586940
_cell_angle_alpha 90.000000
_cell_angle_beta 45.471955
_cell_angle_gamma 90.000000
_cell_volume 2536.442466
_symmetry_space_group_name_H-M "C 2/C"
_symmetry_group_IT_number 15
_symmetry_cell_setting 'monoclinic'
loop_
_space_group_symop_operation_xyz
x,y,z
-x,y,1/2-z
-x,-y,-z
x,-y,1/2+z
1/2+x,1/2+y,z
1/2-x,1/2+y,1/2-z
1/2-x,1/2-y,-z
1/2+x,1/2-y,1/2+z
loop_
_atom_site_type_symbol
_atom_site_label
_atom_site_fract_x
_atom_site_fract_y
_atom_site_fract_z
Si Si1 0.637193 0.262010 0.843638
Si Si2 0.500000 0.410533 0.750000
Si Si3 0.993660 0.334004 0.128594
Si Si4 0.302647 0.804902 0.008991
Si Si5 0.446640 0.828536 0.847746
Si Si6 0.872256 0.059783 0.534607
Si Si7 0.231954 0.563363 0.341375
O O1 0.572537 0.176295 0.859256
O O2 0.608456 0.412811 0.923312
O O3 0.691965 0.393466 0.753488
O O4 0.683864 0.076342 0.836022
O O5 0.524648 0.283119 0.789847
O O6 0.443812 0.580334 0.828106
O O7 0.016642 0.582896 0.121682
O O8 0.061350 0.203490 0.044006
O O9 0.340171 0.602382 0.010829
O O10 0.266141 0.937956 0.095110
O O11 0.250000 0.750000 0.000000
O O12 0.369019 0.925771 0.919657
O O13 0.500000 0.914296 0.750000
O O14 0.809100 0.215901 0.609976
#
# Coordination Sequence:
#
# PCOD9290154 Si02
#       7
#     8   4   8   8   8   8   8
#     4  11  26  42  65  95 125 177 211 263 324 376
#     4  10  22  42  62  94 132 156 210 268 312 384
#     4  12  23  42  69  92 128 170 213 266 324 370
#     4  11  25  43  68  98 131 172 209 263 331 381
#     4  10  22  41  62  98 130 158 213 266 302 387
#     4  11  23  46  65  94 130 165 220 265 309 390
#     4  11  24  45  65  95 137 161 223 267 308 398
#
# _framework density 20.501156000000002
#
# number of rings (size 3 to 8) (size 9 to 14) (size 15 to 20)
#    0.462    0.615    5.385    0.462    2.154    3.692 
#    0.000    0.000    0.000    0.000    0.000    0.000 
#    0.000    0.000    0.000    0.000    0.000    0.000 
#
# Total GULP energy -144888.918830 kJ/mol
# GULP energy per Si atom -5572.650724 kJ/mol
# Density = 2.045449 g / cm^3
# Si number density = 20.501156 Si / 1000 Ang^3
#
#
#
# Elastic Constant Matrix: (Units=GPa)
#
#
# Indices 1 2 3 4 5 6 
#
# 1 131.5472 -5.6679 35.8930 -0.1081 8.7604 -0.0692
# 2 -5.6679 13.8732 9.2344 0.1832 3.0867 -0.0778
# 3 35.8930 9.2344 108.0410 0.0863 4.5227 -0.0642
# 4 -0.1081 0.1832 0.0863 -83.4001 0.0109 -12.6677
# 5 8.7604 3.0867 4.5227 0.0109 21.6479 0.0303
# 6 -0.0692 -0.0778 -0.0642 -12.6677 0.0303 23.1731
#
#
#
# Elastic Compliance Matrix: (Units=1/GPa)
#
#
# Indices 1 2 3 4 5 6 
#
# 1 0.009102 0.006892 -0.003448 -0.000007 -0.003946 0.000042
# 2 0.006892 0.083686 -0.008904 0.000110 -0.012862 0.000354
# 3 -0.003448 -0.008904 0.011148 -0.000002 0.000336 -0.000011
# 4 -0.000007 0.000110 -0.000002 -0.011071 0.000002 -0.006052
# 5 -0.003946 -0.012862 0.000336 0.000002 0.049555 -0.000118
# 6 0.000042 0.000354 -0.000011 -0.006052 -0.000118 0.039847
#
#
# Mechanical properties :
#
#
# Convention : Reuss Voigt Hill
#
# Bulk Modulus (GPa) = 10.75074 36.93116 23.84095
# Shear Modulus (GPa) = 22.30236 6.55098 14.42667
#
# Velocity S-wave (km/s) = 3.30185 1.78951 2.65561
# Velocity P-wave (km/s) = 4.44878 4.72473 4.58883
#
# Compressibility (1/GPa) = 0.09301688
#
# Stress axis : x y z
#
# Youngs Moduli (GPa) = 109.86208 11.94947 89.70124
#
# Poissons Ratio (x) = -0.08236 0.30927
# Poissons Ratio (y) = -0.75717 0.79868
# Poissons Ratio (z) = 0.37878 0.10640
#
# Static dielectric constant tensor:
#      x y z
#    x 1.662190 -0.000010 0.022060 
#    y -0.000010 1.807950 -0.000010 
#    z 0.022060 -0.000010 1.744980 
# 
# From -- ./inp_files/256723.got.cif
#   From: 2010.05.17/outbox.cif.g08.bks.cpg/sg15_129_cif.got.tgz:256723.got - 2010.06.03 18:47:42.
