data_PCOD9290449
_publ_section_title
;
Structure prediction by ZEFSAII (Michael W. Deem and Ramdas Pophale) SiO2 
 PCOD9290449
Probable space group: C 2/C
;
_chemical_formula_sum "Si O2"
_cell_formula_units_Z 52
_cell_length_a 8.873803
_cell_length_b 15.149976
_cell_length_c 19.002200
_cell_angle_alpha 90.000000
_cell_angle_beta 53.393492
_cell_angle_gamma 90.000000
_cell_volume 2050.717276
_symmetry_space_group_name_H-M "C 2/C"
_symmetry_group_IT_number 15
_symmetry_cell_setting 'monoclinic'
loop_
_space_group_symop_operation_xyz
x,y,z
-x,y,1/2-z
-x,-y,-z
x,-y,1/2+z
1/2+x,1/2+y,z
1/2-x,1/2+y,1/2-z
1/2-x,1/2-y,-z
1/2+x,1/2-y,1/2+z
loop_
_atom_site_type_symbol
_atom_site_label
_atom_site_fract_x
_atom_site_fract_y
_atom_site_fract_z
Si Si1 0.833315 0.091775 0.985671
Si Si2 0.312453 0.385241 0.344870
Si Si3 0.400520 0.421208 0.622240
Si Si4 0.937528 0.371663 0.403132
Si Si5 0.605048 0.075404 0.420763
Si Si6 0.629271 0.714750 0.153824
Si Si7 0.000000 0.496036 0.250000
O O1 0.855611 0.151131 0.910363
O O2 0.878413 0.121513 0.051180
O O3 0.970574 0.008523 0.929107
O O4 0.609489 0.071762 0.044704
O O5 0.500000 0.391184 0.250000
O O6 0.220490 0.485007 0.375250
O O7 0.147648 0.332465 0.353060
O O8 0.507483 0.357905 0.645769
O O9 0.194245 0.450381 0.706579
O O10 0.891039 0.401459 0.495994
O O11 0.804399 0.293952 0.413907
O O12 0.953026 0.439542 0.333607
O O13 0.704305 0.158746 0.359087
O O14 0.500000 0.754921 0.250000
#
# Coordination Sequence:
#
# PCOD9290449 Si02
#       7
#     8   8   8   8   8   8   4
#     4  10  22  41  66 105 132 177 232 290 334 419
#     4  11  21  40  70 104 134 183 239 292 340 415
#     4  11  25  41  72 102 140 178 242 287 351 415
#     4  11  25  45  66 102 140 186 228 295 354 419
#     4  11  23  43  74  97 143 182 238 277 356 425
#     4  12  27  46  67 105 142 186 233 293 355 424
#     4  12  24  42  70  98 134 180 236 294 338 406
#
# _framework density 25.356981999999999
#
# number of rings (size 3 to 8) (size 9 to 14) (size 15 to 20)
#    0.000    0.923    2.308    5.538    6.462    0.000 
#    1.385    3.077    0.000    0.000    0.000    0.000 
#    0.000    0.000    0.000    0.000    0.000    0.000 
#
# Total GULP energy -145327.086543 kJ/mol
# GULP energy per Si atom -5589.503329 kJ/mol
# Density = 2.529927 g / cm^3
# Si number density = 25.356982 Si / 1000 Ang^3
#
#
#
# Elastic Constant Matrix: (Units=GPa)
#
#
# Indices 1 2 3 4 5 6 
#
# 1 107.5702 9.8651 29.7545 0.0000 -12.9754 0.0000
# 2 9.8651 40.7029 11.7382 0.0000 -6.6968 0.0000
# 3 29.7545 11.7382 108.1660 -0.0001 -7.9049 -0.0001
# 4 0.0000 0.0000 -0.0001 26.0035 0.0000 6.5937
# 5 -12.9754 -6.6968 -7.9049 0.0000 59.9014 0.0001
# 6 0.0000 0.0000 -0.0001 6.5937 0.0001 26.8717
#
#
#
# Elastic Compliance Matrix: (Units=1/GPa)
#
#
# Indices 1 2 3 4 5 6 
#
# 1 0.010350 -0.001485 -0.002559 0.000000 0.001738 0.000000
# 2 -0.001485 0.025950 -0.002241 0.000000 0.002284 0.000000
# 3 -0.002559 -0.002241 0.010232 0.000000 0.000545 0.000000
# 4 0.000000 0.000000 0.000000 0.041008 0.000000 -0.010062
# 5 0.001738 0.002284 0.000545 0.000000 0.017398 0.000000
# 6 0.000000 0.000000 0.000000 -0.010062 0.000000 0.039683
#
#
# Mechanical properties :
#
#
# Convention : Reuss Voigt Hill
#
# Bulk Modulus (GPa) = 29.44350 39.90608 34.67479
# Shear Modulus (GPa) = 29.67176 36.22741 32.94959
#
# Velocity S-wave (km/s) = 3.42447 3.78391 3.60867
# Velocity P-wave (km/s) = 5.22234 5.90445 5.57384
#
# Compressibility (1/GPa) = 0.03396335
#
# Stress axis : x y z
#
# Youngs Moduli (GPa) = 96.61942 38.53556 97.73262
#
# Poissons Ratio (x) = 0.05721 0.25009
# Poissons Ratio (y) = 0.14344 0.21900
# Poissons Ratio (z) = 0.24724 0.08635
#
# Static dielectric constant tensor:
#      x y z
#    x 2.058320 0.000000 0.013820 
#    y 0.000000 2.053780 0.000000 
#    z 0.013820 0.000000 2.044560 
# 
# From -- ./inp_files/190849.got.cif
#   From: 2010.05.17/outbox.cif.g08.bks.cpg/sg15_96_cif.got.tgz:190849.got - 2010.06.03 18:47:42.
