data_PCOD9290905
_publ_section_title
;
Structure prediction by ZEFSAII (Michael W. Deem and Ramdas Pophale) SiO2 
 PCOD9290905
Probable space group: C 2/C
;
_chemical_formula_sum "Si O2"
_cell_formula_units_Z 56
_cell_length_a 26.460020
_cell_length_b 10.339573
_cell_length_c 10.518228
_cell_angle_alpha 90.000000
_cell_angle_beta 63.846814
_cell_angle_gamma 90.000000
_cell_volume 2583.017185
_symmetry_space_group_name_H-M "C 2/C"
_symmetry_group_IT_number 15
_symmetry_cell_setting 'monoclinic'
loop_
_space_group_symop_operation_xyz
x,y,z
-x,y,1/2-z
-x,-y,-z
x,-y,1/2+z
1/2+x,1/2+y,z
1/2-x,1/2+y,1/2-z
1/2-x,1/2-y,-z
1/2+x,1/2-y,1/2+z
loop_
_atom_site_type_symbol
_atom_site_label
_atom_site_fract_x
_atom_site_fract_y
_atom_site_fract_z
Si Si1 0.872361 0.305922 0.374245
Si Si2 0.628072 0.903665 0.613414
Si Si3 0.641974 0.404908 0.386782
Si Si4 0.165547 0.801304 0.856732
Si Si5 0.000000 0.315549 0.750000
Si Si6 0.978189 0.857562 0.041101
Si Si7 0.000000 0.276303 0.250000
Si Si8 0.718536 0.230334 0.167804
O O1 0.860569 0.192624 0.490000
O O2 0.851254 0.449227 0.434164
O O3 0.939156 0.335188 0.290633
O O4 0.851288 0.251181 0.263037
O O5 0.645387 0.805929 0.480873
O O6 0.559871 0.888977 0.702070
O O7 0.663861 0.857110 0.697597
O O8 0.639968 0.557289 0.416578
O O9 0.588121 0.369234 0.360817
O O10 0.696501 0.365510 0.247079
O O11 0.232958 0.819812 0.793187
O O12 0.006486 0.225398 0.619179
O O13 0.987891 0.798002 0.892989
O O14 0.000000 0.000000 0.000000
O O15 0.750000 0.250000 0.000000
#
# Coordination Sequence:
#
# PCOD9290905 Si02
#       8
#     8   8   8   8   4   8   4   8
#     4  11  26  43  74 101 144 185 238 285 362 433
#     4  11  25  45  68 107 137 189 234 294 355 424
#     4  11  25  46  70 106 139 186 241 298 357 424
#     4  11  27  46  73 100 144 186 241 294 356 425
#     4  12  22  40  72 100 141 192 235 288 359 436
#     4  11  22  38  67 102 144 183 233 289 360 430
#     4  10  22  42  58 104 141 180 219 296 343 428
#     4  10  25  46  70  96 142 180 238 296 350 416
#
# _framework density 21.680071000000002
#
# number of rings (size 3 to 8) (size 9 to 14) (size 15 to 20)
#    0.000    1.143    1.429    3.429    8.000    4.000 
#    0.000    3.571    0.000    0.000    0.000    0.000 
#    0.000    0.000    0.000    0.000    0.000    0.000 
#
# Total GULP energy -156203.279085 kJ/mol
# GULP energy per Si atom -5578.688539 kJ/mol
# Density = 2.163073 g / cm^3
# Si number density = 21.680071 Si / 1000 Ang^3
#
#
#
# Elastic Constant Matrix: (Units=GPa)
#
#
# Indices 1 2 3 4 5 6 
#
# 1 143.3531 52.4391 37.8251 0.0000 15.6583 0.0000
# 2 52.4391 180.6257 53.1907 0.0000 15.5007 0.0000
# 3 37.8251 53.1907 78.9713 0.0000 9.0106 0.0000
# 4 0.0000 0.0000 0.0000 22.6502 0.0000 -5.8471
# 5 15.6583 15.5007 9.0106 0.0000 39.2391 0.0000
# 6 0.0000 0.0000 0.0000 -5.8471 0.0000 23.1937
#
#
#
# Elastic Compliance Matrix: (Units=1/GPa)
#
#
# Indices 1 2 3 4 5 6 
#
# 1 0.008491 -0.001440 -0.002850 0.000000 -0.002165 0.000000
# 2 -0.001440 0.007263 -0.004047 0.000000 -0.001365 0.000000
# 3 -0.002850 -0.004047 0.016884 0.000000 -0.001141 0.000000
# 4 0.000000 0.000000 0.000000 0.047223 0.000000 0.011905
# 5 -0.002165 -0.001365 -0.001141 0.000000 0.027150 0.000000
# 6 0.000000 0.000000 0.000000 0.011905 0.000000 0.046116
#
#
# Mechanical properties :
#
#
# Convention : Reuss Voigt Hill
#
# Bulk Modulus (GPa) = 62.63836 76.65109 69.64473
# Shear Modulus (GPa) = 28.55153 34.31630 31.43391
#
# Velocity S-wave (km/s) = 3.63292 3.98282 3.81188
# Velocity P-wave (km/s) = 6.82292 7.52215 7.18105
#
# Compressibility (1/GPa) = 0.01596466
#
# Stress axis : x y z
#
# Youngs Moduli (GPa) = 117.77121 137.68064 59.22885
#
# Poissons Ratio (x) = 0.19827 0.16880
# Poissons Ratio (y) = 0.16960 0.23967
# Poissons Ratio (z) = 0.33565 0.55713
#
# Static dielectric constant tensor:
#      x y z
#    x 1.858740 0.000000 -0.033270 
#    y 0.000000 1.807410 0.000000 
#    z -0.033270 0.000000 1.755620 
# 
# From -- ./inp_files/65937.got.cif
#   From: 2010.05.17/outbox.cif.g08.bks.cpg/sg15_33_cif.got.tgz:65937.got - 2010.06.03 18:47:42.
