data_PCOD9290106
_publ_section_title
;
Structure prediction by ZEFSAII (Michael W. Deem and Ramdas Pophale) SiO2 
 PCOD9290106
Probable space group: C 2/C
;
_chemical_formula_sum "Si O2"
_cell_formula_units_Z 44
_cell_length_a 6.346878
_cell_length_b 28.665765
_cell_length_c 11.755960
_cell_angle_alpha 90.000000
_cell_angle_beta 69.557926
_cell_angle_gamma 90.000000
_cell_volume 2004.164297
_symmetry_space_group_name_H-M "C 2/C"
_symmetry_group_IT_number 15
_symmetry_cell_setting 'monoclinic'
loop_
_space_group_symop_operation_xyz
x,y,z
-x,y,1/2-z
-x,-y,-z
x,-y,1/2+z
1/2+x,1/2+y,z
1/2-x,1/2+y,1/2-z
1/2-x,1/2-y,-z
1/2+x,1/2-y,1/2+z
loop_
_atom_site_type_symbol
_atom_site_label
_atom_site_fract_x
_atom_site_fract_y
_atom_site_fract_z
Si Si1 0.962918 0.789720 0.130851
Si Si2 0.123496 0.111234 0.346989
Si Si3 0.877581 0.992389 0.647585
Si Si4 0.316658 0.139744 0.951424
Si Si5 0.911457 0.685985 0.404962
Si Si6 0.500000 0.930841 0.250000
O O1 0.753101 0.814960 0.110194
O O2 0.000000 0.809194 0.250000
O O3 0.950767 0.733645 0.142789
O O4 0.189646 0.799463 0.018571
O O5 0.226248 0.059759 0.341349
O O6 0.293413 0.153834 0.332215
O O7 0.000000 0.114905 0.250000
O O8 0.921993 0.115613 0.476927
O O9 0.000000 0.990925 0.750000
O O10 0.708577 0.034904 0.696275
O O11 0.000000 0.000000 0.500000
O O12 0.484925 0.104444 0.858293
O O13 0.431897 0.155147 0.045145
#
# Coordination Sequence:
#
# PCOD9290106 Si02
#       6
#     8   8   8   8   8   4
#     4  10  22  41  61  98 135 172 227 294 345 419
#     4  10  24  44  64  98 140 178 235 299 346 426
#     4  11  26  48  71 107 149 184 242 307 357 429
#     4  11  23  41  68  99 134 179 238 282 356 432
#     4  10  23  41  67  95 131 183 229 283 362 416
#     4  12  26  42  76 104 136 198 230 290 370 424
#
# _framework density 21.954287000000001
#
# number of rings (size 3 to 8) (size 9 to 14) (size 15 to 20)
#    0.000    1.455    1.818    1.636    5.091    4.364 
#    0.000    0.000    0.000    0.000    0.000    0.000 
#    0.000    0.000    0.000    0.000    0.000    0.000 
#
# Total GULP energy -122716.911315 kJ/mol
# GULP energy per Si atom -5578.041423 kJ/mol
# Density = 2.190432 g / cm^3
# Si number density = 21.954287 Si / 1000 Ang^3
#
#
#
# Elastic Constant Matrix: (Units=GPa)
#
#
# Indices 1 2 3 4 5 6 
#
# 1 66.5109 51.6899 31.8296 0.0000 6.5884 0.0000
# 2 51.6899 156.0435 50.2822 0.0000 3.4175 0.0000
# 3 31.8296 50.2822 118.5367 0.0000 5.6303 0.0000
# 4 0.0000 0.0000 0.0000 34.9208 0.0000 5.7178
# 5 6.5884 3.4175 5.6303 0.0000 39.1786 0.0000
# 6 0.0000 0.0000 0.0000 5.7178 0.0000 -14.3150
#
#
#
# Elastic Compliance Matrix: (Units=1/GPa)
#
#
# Indices 1 2 3 4 5 6 
#
# 1 0.021482 -0.006069 -0.003068 0.000000 -0.002642 0.000000
# 2 -0.006069 0.009139 -0.002273 0.000000 0.000550 0.000000
# 3 -0.003068 -0.002273 0.010261 0.000000 -0.000760 0.000000
# 4 0.000000 0.000000 0.000000 0.026878 0.000000 0.010736
# 5 -0.002642 0.000550 -0.000760 0.000000 0.026030 0.000000
# 6 0.000000 0.000000 0.000000 0.010736 0.000000 -0.065569
#
#
# Mechanical properties :
#
#
# Convention : Reuss Voigt Hill
#
# Bulk Modulus (GPa) = 55.37052 67.63272 61.50162
# Shear Modulus (GPa) = 87.62145 25.77618 56.69881
#
# Velocity S-wave (km/s) = 6.32436 3.43021 5.08743
# Velocity P-wave (km/s) = 8.86598 6.82360 7.91098
#
# Compressibility (1/GPa) = 0.01806015
#
# Stress axis : x y z
#
# Youngs Moduli (GPa) = 46.55011 109.41563 97.46104
#
# Poissons Ratio (x) = 0.66410 0.29904
# Poissons Ratio (y) = 0.28253 0.22155
# Poissons Ratio (z) = 0.14283 0.24873
#
# Static dielectric constant tensor:
#      x y z
#    x 1.737470 0.000000 0.005240 
#    y 0.000000 1.801210 0.000000 
#    z 0.005240 0.000000 1.872550 
# 
# From -- ./inp_files/73836.got.cif
#   From: 2010.05.17/outbox.cif.g08.bks.cpg/sg15_37_cif.got.tgz:73836.got - 2010.06.03 18:47:42.
