data_PCOD9290523
_publ_section_title
;
Structure prediction by ZEFSAII (Michael W. Deem and Ramdas Pophale) SiO2 
 PCOD9290523
Probable space group: C 2/C
;
_chemical_formula_sum "Si O2"
_cell_formula_units_Z 56
_cell_length_a 14.315968
_cell_length_b 20.032669
_cell_length_c 16.978293
_cell_angle_alpha 90.000000
_cell_angle_beta 27.722636
_cell_angle_gamma 90.000000
_cell_volume 2265.090784
_symmetry_space_group_name_H-M "C 2/C"
_symmetry_group_IT_number 15
_symmetry_cell_setting 'monoclinic'
loop_
_space_group_symop_operation_xyz
x,y,z
-x,y,1/2-z
-x,-y,-z
x,-y,1/2+z
1/2+x,1/2+y,z
1/2-x,1/2+y,1/2-z
1/2-x,1/2-y,-z
1/2+x,1/2-y,1/2+z
loop_
_atom_site_type_symbol
_atom_site_label
_atom_site_fract_x
_atom_site_fract_y
_atom_site_fract_z
Si Si1 0.000000 0.705761 0.250000
Si Si2 0.217514 0.830257 0.780877
Si Si3 0.000000 0.324652 0.250000
Si Si4 0.177034 0.198757 0.734132
Si Si5 0.132337 0.613835 0.040823
Si Si6 0.827165 0.106348 0.609450
Si Si7 0.257964 0.336833 0.915140
Si Si8 0.981338 0.476475 0.423337
O O1 0.990044 0.755346 0.183278
O O2 0.832781 0.651892 0.402983
O O3 0.171224 0.760871 0.861090
O O4 0.412057 0.863839 0.674268
O O5 0.259271 0.808990 0.660200
O O6 0.047977 0.886879 0.909770
O O7 0.816940 0.365313 0.350265
O O8 0.886628 0.298563 0.413980
O O9 0.229193 0.144719 0.629228
O O10 0.162356 0.155957 0.823562
O O11 0.124039 0.534732 0.048008
O O12 0.707612 0.040895 0.726122
O O13 0.500000 0.338254 0.750000
O O14 0.153499 0.409959 0.985765
O O15 0.000000 0.500000 0.500000
#
# Coordination Sequence:
#
# PCOD9290523 Si02
#       8
#     4   8   4   8   8   8   8   8
#     4  10  24  41  70 104 132 183 244 298 350 422
#     4  11  22  40  67  99 134 184 231 286 357 423
#     4  10  22  41  66  98 138 181 224 282 348 418
#     4  11  23  45  70  97 142 185 232 299 356 422
#     4  11  22  43  67  97 137 183 231 293 361 414
#     4  11  23  40  68  99 138 187 233 289 356 425
#     4  11  22  43  67 100 141 179 232 289 349 421
#     4  11  22  43  68  94 138 187 230 290 361 422
#
# _framework density 24.72307
#
# number of rings (size 3 to 8) (size 9 to 14) (size 15 to 20)
#    0.000    1.143    4.286    3.000    0.000    4.000 
#    2.571    2.857    0.000    0.000    0.000    0.000 
#    0.000    0.000    0.000    0.000    0.000    0.000 
#
# Total GULP energy -156142.616704 kJ/mol
# GULP energy per Si atom -5576.522025 kJ/mol
# Density = 2.466680 g / cm^3
# Si number density = 24.723070 Si / 1000 Ang^3
#
#
#
# Elastic Constant Matrix: (Units=GPa)
#
#
# Indices 1 2 3 4 5 6 
#
# 1 85.8300 3.7900 -0.7718 0.0363 16.5395 0.0101
# 2 3.7900 126.3390 16.0593 0.0270 7.6350 -0.0387
# 3 -0.7718 16.0593 78.5230 0.0025 6.8021 -0.0592
# 4 0.0363 0.0270 0.0025 25.3430 -0.0082 -14.6485
# 5 16.5395 7.6350 6.8021 -0.0082 47.0063 0.0271
# 6 0.0101 -0.0387 -0.0592 -14.6485 0.0271 -1.8354
#
#
#
# Elastic Compliance Matrix: (Units=1/GPa)
#
#
# Indices 1 2 3 4 5 6 
#
# 1 0.012522 -0.000176 0.000545 -0.000005 -0.004456 0.000025
# 2 -0.000176 0.008185 -0.001586 -0.000016 -0.001038 -0.000012
# 3 0.000545 -0.001586 0.013225 -0.000043 -0.001848 -0.000073
# 4 -0.000005 -0.000016 -0.000043 0.007030 0.000044 -0.056104
# 5 -0.004456 -0.001038 -0.001848 0.000044 0.023278 0.000050
# 6 0.000025 -0.000012 -0.000073 -0.056104 0.000050 -0.097065
#
#
# Mechanical properties :
#
#
# Convention : Reuss Voigt Hill
#
# Bulk Modulus (GPa) = 31.74666 36.53855 34.14261
# Shear Modulus (GPa) = -251.35146 32.21041 -109.57053
#
# Velocity S-wave (km/s) = -10.09393 3.61341 -6.66448
# Velocity P-wave (km/s) = 11.08969 5.67629 6.73650
#
# Compressibility (1/GPa) = 0.03149938
#
# Stress axis : x y z
#
# Youngs Moduli (GPa) = 79.85715 122.17792 75.61544
#
# Poissons Ratio (x) = 0.02146 -0.04121
# Poissons Ratio (y) = 0.01402 0.11991
# Poissons Ratio (z) = -0.04353 0.19374
#
# Static dielectric constant tensor:
#      x y z
#    x 2.043270 -0.000010 0.036450 
#    y -0.000010 1.962970 0.000020 
#    z 0.036450 0.000020 2.053280 
# 
# From -- ./inp_files/206951.got.cif
#   From: 2010.05.17/outbox.cif.g08.bks.cpg/sg15_104_cif.got.tgz:206951.got - 2010.06.03 18:47:42.
