data_PCOD9290822
_publ_section_title
;
Structure prediction by ZEFSAII (Michael W. Deem and Ramdas Pophale) SiO2 
 PCOD9290822
Probable space group: C 2/C
;
_chemical_formula_sum "Si O2"
_cell_formula_units_Z 60
_cell_length_a 11.436315
_cell_length_b 16.111912
_cell_length_c 16.200977
_cell_angle_alpha 90.000000
_cell_angle_beta 110.405892
_cell_angle_gamma 90.000000
_cell_volume 2797.873377
_symmetry_space_group_name_H-M "C 2/C"
_symmetry_group_IT_number 15
_symmetry_cell_setting 'monoclinic'
loop_
_space_group_symop_operation_xyz
x,y,z
-x,y,1/2-z
-x,-y,-z
x,-y,1/2+z
1/2+x,1/2+y,z
1/2-x,1/2+y,1/2-z
1/2-x,1/2-y,-z
1/2+x,1/2-y,1/2+z
loop_
_atom_site_type_symbol
_atom_site_label
_atom_site_fract_x
_atom_site_fract_y
_atom_site_fract_z
Si Si1 0.071019 0.011686 0.429359
Si Si2 0.350843 0.261573 0.413789
Si Si3 0.316849 0.884398 0.039078
Si Si4 0.727864 0.129916 0.217779
Si Si5 0.604469 0.329990 0.428312
Si Si6 0.674143 0.161130 0.387785
Si Si7 0.000000 0.897196 0.750000
Si Si8 0.512080 0.013172 0.154240
O O1 0.204049 0.055423 0.481627
O O2 0.997302 0.059324 0.339373
O O3 0.087793 0.921812 0.391799
O O4 0.000000 0.000000 0.500000
O O5 0.342086 0.186553 0.477402
O O6 0.243626 0.330077 0.401481
O O7 0.343268 0.213158 0.326300
O O8 0.483497 0.305895 0.452222
O O9 0.440520 0.937600 0.091439
O O10 0.729052 0.128702 0.316135
O O11 0.653223 0.046164 0.171335
O O12 0.864362 0.143711 0.214207
O O13 0.626061 0.255235 0.370621
O O14 0.722100 0.337057 0.517090
O O15 0.567772 0.095757 0.384988
O O16 0.500000 0.998234 0.250000
#
# Coordination Sequence:
#
# PCOD9290822 Si02
#       8
#     8   8   8   8   8   8   4   8
#     4  12  24  44  74  99 144 187 235 296 347 429
#     4  11  24  42  69  98 139 183 228 289 352 426
#     4  11  24  45  65 101 141 185 233 286 357 420
#     4  11  24  45  70  96 142 182 235 300 350 431
#     4  11  22  41  68 103 134 185 233 283 361 426
#     4  10  22  41  70  99 137 182 228 289 361 420
#     4  12  28  46  72 104 136 196 250 282 370 434
#     4  10  22  43  71  99 136 185 232 288 359 422
#
# _framework density 21.444858
#
# number of rings (size 3 to 8) (size 9 to 14) (size 15 to 20)
#    0.000    1.067    5.333    0.800    1.867    1.600 
#    8.400    0.000    0.000    0.000    0.000    0.000 
#    0.000    0.000    0.000    0.000    0.000    0.000 
#
# Total GULP energy -167294.380649 kJ/mol
# GULP energy per Si atom -5576.479355 kJ/mol
# Density = 2.139605 g / cm^3
# Si number density = 21.444858 Si / 1000 Ang^3
#
#
#
# Elastic Constant Matrix: (Units=GPa)
#
#
# Indices 1 2 3 4 5 6 
#
# 1 87.7706 23.7091 9.5047 0.0000 9.8599 0.0000
# 2 23.7091 105.5916 8.9416 0.0000 15.0239 0.0000
# 3 9.5047 8.9416 63.6294 0.0000 8.3092 0.0000
# 4 0.0000 0.0000 0.0000 18.2282 0.0000 0.0420
# 5 9.8599 15.0239 8.3092 0.0000 24.6428 0.0000
# 6 0.0000 0.0000 0.0000 0.0420 0.0000 25.1866
#
#
#
# Elastic Compliance Matrix: (Units=1/GPa)
#
#
# Indices 1 2 3 4 5 6 
#
# 1 0.012487 -0.002246 -0.001126 0.000000 -0.003247 0.000000
# 2 -0.002246 0.010801 -0.000460 0.000000 -0.005531 0.000000
# 3 -0.001126 -0.000460 0.016584 0.000000 -0.004861 0.000000
# 4 0.000000 0.000000 0.000000 0.054860 0.000000 -0.000092
# 5 -0.003247 -0.005531 -0.004861 0.000000 0.046890 0.000000
# 6 0.000000 0.000000 0.000000 -0.000092 0.000000 0.039704
#
#
# Mechanical properties :
#
#
# Convention : Reuss Voigt Hill
#
# Bulk Modulus (GPa) = 31.04889 37.92252 34.48570
# Shear Modulus (GPa) = 25.03443 27.93392 26.48417
#
# Velocity S-wave (km/s) = 3.42041 3.61306 3.51805
# Velocity P-wave (km/s) = 5.48715 5.92687 5.71124
#
# Compressibility (1/GPa) = 0.03220727
#
# Stress axis : x y z
#
# Youngs Moduli (GPa) = 80.08456 92.58606 60.30073
#
# Poissons Ratio (x) = 0.20799 0.06787
# Poissons Ratio (y) = 0.17990 0.02774
# Poissons Ratio (z) = 0.09014 0.04259
#
# Static dielectric constant tensor:
#      x y z
#    x 1.830180 0.000000 -0.006820 
#    y 0.000000 1.796060 0.000000 
#    z -0.006820 0.000000 1.769350 
# 
# From -- ./inp_files/198405.got.cif
#   From: 2010.05.17/outbox.cif.g08.bks.cpg/sg15_100_cif.got.tgz:198405.got - 2010.06.03 18:47:42.
