data_PCOD9290583
_publ_section_title
;
Structure prediction by ZEFSAII (Michael W. Deem and Ramdas Pophale) SiO2 
 PCOD9290583
Probable space group: C 2/C
;
_chemical_formula_sum "Si O2"
_cell_formula_units_Z 40
_cell_length_a 8.493590
_cell_length_b 24.140063
_cell_length_c 17.437224
_cell_angle_alpha 90.000000
_cell_angle_beta 146.803662
_cell_angle_gamma 90.000000
_cell_volume 1957.487013
_symmetry_space_group_name_H-M "C 2/C"
_symmetry_group_IT_number 15
_symmetry_cell_setting 'monoclinic'
loop_
_space_group_symop_operation_xyz
x,y,z
-x,y,1/2-z
-x,-y,-z
x,-y,1/2+z
1/2+x,1/2+y,z
1/2-x,1/2+y,1/2-z
1/2-x,1/2-y,-z
1/2+x,1/2-y,1/2+z
loop_
_atom_site_type_symbol
_atom_site_label
_atom_site_fract_x
_atom_site_fract_y
_atom_site_fract_z
Si Si1 0.302147 0.419427 0.973876
Si Si2 0.645035 0.394333 0.679913
Si Si3 0.823447 0.007550 0.105915
Si Si4 0.874804 0.819284 0.117827
Si Si5 0.219156 0.280685 0.682013
O O1 0.405130 0.404406 0.930622
O O2 0.954765 0.421263 0.826057
O O3 0.393556 0.474765 0.055981
O O4 0.391584 0.368728 0.064196
O O5 0.403475 0.428347 0.626078
O O6 0.681401 0.331220 0.722200
O O7 0.000000 0.985240 0.250000
O O8 0.500000 0.000000 0.000000
O O9 0.000000 0.836866 0.250000
O O10 0.067351 0.767526 0.168495
O O11 0.538011 0.801754 0.978749
O O12 0.500000 0.262286 0.750000
#
# Coordination Sequence:
#
# PCOD9290583 Si02
#       5
#     8   8   8   8   8
#     4  10  22  42  65  95 134 168 215 266 322 385
#     4  10  22  41  67  95 131 177 209 260 333 389
#     4  12  23  41  68  98 129 170 219 264 322 389
#     4  10  23  42  66  98 129 169 222 275 317 379
#     4  10  23  41  69  93 130 176 219 262 330 393
#
# _framework density 20.434360999999999
#
# number of rings (size 3 to 8) (size 9 to 14) (size 15 to 20)
#    0.000    1.600    2.000    1.800   11.200    0.800 
#    0.000    0.000    0.000    0.000    0.000    0.000 
#    0.000    0.000    0.000    0.000    0.000    0.000 
#
# Total GULP energy -111699.160804 kJ/mol
# GULP energy per Si atom -5584.958040 kJ/mol
# Density = 2.038785 g / cm^3
# Si number density = 20.434361 Si / 1000 Ang^3
#
#
#
# Elastic Constant Matrix: (Units=GPa)
#
#
# Indices 1 2 3 4 5 6 
#
# 1 100.1936 29.3756 73.2157 0.0008 -4.4562 0.0005
# 2 29.3756 101.0496 50.5255 0.0007 -2.4630 0.0006
# 3 73.2157 50.5255 121.4017 0.0058 -25.2480 0.0053
# 4 0.0008 0.0007 0.0058 29.5418 0.0019 0.6929
# 5 -4.4562 -2.4630 -25.2480 0.0019 49.1886 0.0008
# 6 0.0005 0.0006 0.0053 0.6929 0.0008 23.0350
#
#
#
# Elastic Compliance Matrix: (Units=1/GPa)
#
#
# Indices 1 2 3 4 5 6 
#
# 1 0.018769 0.000733 -0.012609 0.000002 -0.004735 0.000003
# 2 0.000733 0.012760 -0.006276 0.000001 -0.002516 0.000001
# 3 -0.012609 -0.006276 0.020320 -0.000004 0.008973 -0.000004
# 4 0.000002 0.000001 -0.000004 0.033874 -0.000003 -0.001019
# 5 -0.004735 -0.002516 0.008973 -0.000003 0.024381 -0.000003
# 6 0.000003 0.000001 -0.000004 -0.001019 -0.000003 0.043443
#
#
# Mechanical properties :
#
#
# Convention : Reuss Voigt Hill
#
# Bulk Modulus (GPa) = 64.33109 69.87540 67.10325
# Shear Modulus (GPa) = 25.63679 31.65497 28.64588
#
# Velocity S-wave (km/s) = 3.54587 3.94014 3.74819
# Velocity P-wave (km/s) = 6.95085 7.41410 7.18621
#
# Compressibility (1/GPa) = 0.01554458
#
# Stress axis : x y z
#
# Youngs Moduli (GPa) = 53.27824 78.37251 49.21333
#
# Poissons Ratio (x) = -0.05745 0.62055
# Poissons Ratio (y) = -0.03905 0.30885
# Poissons Ratio (z) = 0.67181 0.49184
#
# Static dielectric constant tensor:
#      x y z
#    x 1.719350 0.000000 -0.013420 
#    y 0.000000 1.730380 0.000000 
#    z -0.013420 0.000000 1.710110 
# 
# From -- ./inp_files/23482.got.cif
#   From: 2010.05.17/outbox.cif.g08.bks.cpg/sg15_12_cif.got.tgz:23482.got - 2010.06.03 18:47:42.
