data_PCOD9290422
_publ_section_title
;
Structure prediction by ZEFSAII (Michael W. Deem and Ramdas Pophale) SiO2 
 PCOD9290422
Probable space group: C 2/C
;
_chemical_formula_sum "Si O2"
_cell_formula_units_Z 48
_cell_length_a 21.435983
_cell_length_b 6.632562
_cell_length_c 14.304099
_cell_angle_alpha 90.000000
_cell_angle_beta 86.468130
_cell_angle_gamma 90.000000
_cell_volume 2029.829612
_symmetry_space_group_name_H-M "C 2/C"
_symmetry_group_IT_number 15
_symmetry_cell_setting 'monoclinic'
loop_
_space_group_symop_operation_xyz
x,y,z
-x,y,1/2-z
-x,-y,-z
x,-y,1/2+z
1/2+x,1/2+y,z
1/2-x,1/2+y,1/2-z
1/2-x,1/2-y,-z
1/2+x,1/2-y,1/2+z
loop_
_atom_site_type_symbol
_atom_site_label
_atom_site_fract_x
_atom_site_fract_y
_atom_site_fract_z
Si Si1 0.723216 0.125087 0.937080
Si Si2 0.884621 0.739398 0.683561
Si Si3 0.184133 0.909727 0.244523
Si Si4 0.937238 0.342429 0.711129
Si Si5 0.935259 0.916322 0.046424
Si Si6 0.706326 0.625790 0.962072
O O1 0.655421 0.123382 0.891249
O O2 0.768999 0.130751 0.842647
O O3 0.718951 0.367971 0.977534
O O4 0.724242 0.880240 0.977157
O O5 0.928075 0.578330 0.728019
O O6 0.919529 0.918248 0.627473
O O7 0.838778 0.858973 0.757110
O O8 0.124411 0.764212 0.242910
O O9 0.210001 0.876986 0.347429
O O10 0.000000 0.261871 0.750000
O O11 0.944502 0.291131 0.601246
O O12 0.868228 0.884413 0.000452
O O13 0.000000 0.000000 0.000000
#
# Coordination Sequence:
#
# PCOD9290422 Si02
#       6
#     8   8   8   8   8   8
#     4  12  22  41  69  98 132 173 227 280 350 404
#     4  10  23  43  65  99 137 176 231 283 341 421
#     4  10  25  42  64 100 135 175 224 290 340 418
#     4  10  23  43  66  94 133 177 229 276 339 406
#     4  10  23  44  66  96 140 178 225 287 344 422
#     4  10  22  41  65  98 132 180 228 279 347 415
#
# _framework density 23.647304999999999
#
# number of rings (size 3 to 8) (size 9 to 14) (size 15 to 20)
#    0.000    2.000    3.333    2.000    7.000    3.333 
#    0.000    0.000    0.000    0.000    0.000    0.000 
#    0.000    0.000    0.000    0.000    0.000    0.000 
#
# Total GULP energy -133821.091246 kJ/mol
# GULP energy per Si atom -5575.878802 kJ/mol
# Density = 2.359348 g / cm^3
# Si number density = 23.647305 Si / 1000 Ang^3
#
#
#
# Elastic Constant Matrix: (Units=GPa)
#
#
# Indices 1 2 3 4 5 6 
#
# 1 142.8046 44.9356 52.4106 0.0000 -7.5216 0.0000
# 2 44.9356 94.5049 3.4649 0.0000 -2.0922 0.0000
# 3 52.4106 3.4649 82.5264 0.0000 -13.0931 0.0000
# 4 0.0000 0.0000 0.0000 27.6025 0.0000 3.5950
# 5 -7.5216 -2.0922 -13.0931 0.0000 42.0254 0.0000
# 6 0.0000 0.0000 0.0000 3.5950 0.0000 43.2282
#
#
#
# Elastic Compliance Matrix: (Units=1/GPa)
#
#
# Indices 1 2 3 4 5 6 
#
# 1 0.011098 -0.005033 -0.006902 0.000000 -0.000415 0.000000
# 2 -0.005033 0.012887 0.002750 0.000000 0.000598 0.000000
# 3 -0.006902 0.002750 0.017054 0.000000 0.004215 0.000000
# 4 0.000000 0.000000 0.000000 0.036625 0.000000 -0.003046
# 5 -0.000415 0.000598 0.004215 0.000000 0.025064 0.000000
# 6 0.000000 0.000000 0.000000 -0.003046 0.000000 0.023386
#
#
# Mechanical properties :
#
#
# Convention : Reuss Voigt Hill
#
# Bulk Modulus (GPa) = 44.11465 57.93977 51.02721
# Shear Modulus (GPa) = 32.88599 37.17288 35.02944
#
# Velocity S-wave (km/s) = 3.73324 3.96911 3.85298
# Velocity P-wave (km/s) = 6.10561 6.74981 6.43578
#
# Compressibility (1/GPa) = 0.02266821
#
# Stress axis : x y z
#
# Youngs Moduli (GPa) = 90.10954 77.59811 58.63706
#
# Poissons Ratio (x) = 0.39054 0.40473
# Poissons Ratio (y) = 0.45351 -0.16125
# Poissons Ratio (z) = 0.62197 -0.21339
#
# Static dielectric constant tensor:
#      x y z
#    x 1.953770 0.000000 0.009940 
#    y 0.000000 2.017610 0.000000 
#    z 0.009940 0.000000 1.872950 
# 
# From -- ./inp_files/280718.got.cif
#   From: 2010.05.17/outbox.cif.g08.bks.cpg/sg15_141_cif.got.tgz:280718.got - 2010.06.03 18:47:42.
