data_PCOD9290932
_publ_section_title
;
Structure prediction by ZEFSAII (Michael W. Deem and Ramdas Pophale) SiO2 
 PCOD9290932
Probable space group: C 2/C
;
_chemical_formula_sum "Si O2"
_cell_formula_units_Z 52
_cell_length_a 13.390887
_cell_length_b 20.067357
_cell_length_c 9.318310
_cell_angle_alpha 90.000000
_cell_angle_beta 80.556094
_cell_angle_gamma 90.000000
_cell_volume 2470.075950
_symmetry_space_group_name_H-M "C 2/C"
_symmetry_group_IT_number 15
_symmetry_cell_setting 'monoclinic'
loop_
_space_group_symop_operation_xyz
x,y,z
-x,y,1/2-z
-x,-y,-z
x,-y,1/2+z
1/2+x,1/2+y,z
1/2-x,1/2+y,1/2-z
1/2-x,1/2-y,-z
1/2+x,1/2-y,1/2+z
loop_
_atom_site_type_symbol
_atom_site_label
_atom_site_fract_x
_atom_site_fract_y
_atom_site_fract_z
Si Si1 0.259906 0.168532 0.764742
Si Si2 0.829877 0.607813 0.007833
Si Si3 0.698228 0.868528 0.677204
Si Si4 0.500000 0.061777 0.750000
Si Si5 0.401737 0.297906 0.676428
Si Si6 0.406706 0.256645 0.364011
Si Si7 0.167324 0.538792 0.927645
O O1 0.252267 0.151490 0.934907
O O2 0.342186 0.228837 0.731623
O O3 0.157899 0.194148 0.718319
O O4 0.283725 0.098777 0.676265
O O5 0.924384 0.601813 0.874592
O O6 0.856205 0.636323 0.156335
O O7 0.787880 0.534288 0.056128
O O8 0.816316 0.856265 0.688114
O O9 0.666648 0.805519 0.589120
O O10 0.664119 0.930789 0.589217
O O11 0.567724 0.024692 0.853505
O O12 0.500000 0.309107 0.750000
O O13 0.438312 0.287987 0.505341
O O14 0.500000 0.233115 0.250000
#
# Coordination Sequence:
#
# PCOD9290932 Si02
#       7
#     8   8   8   4   8   8   8
#     4  10  22  42  61  88 130 159 203 256 309 360
#     4  11  25  36  63  92 123 170 198 251 299 372
#     4  11  23  41  64  91 126 161 212 246 307 373
#     4  10  24  38  54  90 132 160 204 240 296 366
#     4  11  24  42  64  90 122 163 205 262 308 355
#     4  11  24  39  65  90 120 163 205 259 311 362
#     4  11  21  42  61  87 127 168 201 247 303 365
#
# _framework density 21.051984000000001
#
# number of rings (size 3 to 8) (size 9 to 14) (size 15 to 20)
#    0.000    1.231    3.077    3.231   10.769    1.231 
#    0.000    0.000    0.000    5.538    0.000    0.000 
#    0.000    0.000    0.000    0.000    0.000    0.000 
#
# Total GULP energy -144928.451915 kJ/mol
# GULP energy per Si atom -5574.171228 kJ/mol
# Density = 2.100407 g / cm^3
# Si number density = 21.051984 Si / 1000 Ang^3
#
#
#
# Elastic Constant Matrix: (Units=GPa)
#
#
# Indices 1 2 3 4 5 6 
#
# 1 89.4720 21.5400 46.7241 0.0000 33.2996 0.0000
# 2 21.5400 73.6349 22.0221 0.0000 19.7143 0.0000
# 3 46.7241 22.0221 147.0453 0.0000 31.7993 0.0000
# 4 0.0000 0.0000 0.0000 28.5938 0.0000 -1.1633
# 5 33.2996 19.7143 31.7993 0.0000 37.7698 0.0000
# 6 0.0000 0.0000 0.0000 -1.1633 0.0000 0.9021
#
#
#
# Elastic Compliance Matrix: (Units=1/GPa)
#
#
# Indices 1 2 3 4 5 6 
#
# 1 0.017533 -0.000921 -0.002683 0.000000 -0.012718 0.000000
# 2 -0.000921 0.015896 -0.000574 0.000000 -0.007002 0.000000
# 3 -0.002683 -0.000574 0.008757 0.000000 -0.004708 0.000000
# 4 0.000000 0.000000 0.000000 0.036909 0.000000 0.047594
# 5 -0.012718 -0.007002 -0.004708 0.000000 0.045308 0.000000
# 6 0.000000 0.000000 0.000000 0.047594 0.000000 1.169884
#
#
# Mechanical properties :
#
#
# Convention : Reuss Voigt Hill
#
# Bulk Modulus (GPa) = 29.55911 54.52496 42.04203
# Shear Modulus (GPa) = 3.80541 28.11086 15.95813
#
# Velocity S-wave (km/s) = 1.34594 3.65815 2.75623
# Velocity P-wave (km/s) = 4.06040 6.61809 5.49026
#
# Compressibility (1/GPa) = 0.03383052
#
# Stress axis : x y z
#
# Youngs Moduli (GPa) = 57.03531 62.90803 114.19214
#
# Poissons Ratio (x) = 0.05797 0.30635
# Poissons Ratio (y) = 0.05255 0.06551
# Poissons Ratio (z) = 0.15301 0.03609
#
# Static dielectric constant tensor:
#      x y z
#    x 1.800040 0.000000 0.004050 
#    y 0.000000 1.775910 0.000000 
#    z 0.004050 0.000000 1.814020 
# 
# From -- ./inp_files/40765.got.cif
#   From: 2010.05.17/outbox.cif.g08.bks.cpg/sg15_21_cif.got.tgz:40765.got - 2010.06.03 18:47:42.
