data_PCOD9290340
_publ_section_title
;
Structure prediction by ZEFSAII (Michael W. Deem and Ramdas Pophale) SiO2 
 PCOD9290340
Probable space group: C 2/C
;
_chemical_formula_sum "Si O2"
_cell_formula_units_Z 52
_cell_length_a 13.694811
_cell_length_b 12.741464
_cell_length_c 20.649711
_cell_angle_alpha 90.000000
_cell_angle_beta 137.336691
_cell_angle_gamma 90.000000
_cell_volume 2441.854201
_symmetry_space_group_name_H-M "C 2/C"
_symmetry_group_IT_number 15
_symmetry_cell_setting 'monoclinic'
loop_
_space_group_symop_operation_xyz
x,y,z
-x,y,1/2-z
-x,-y,-z
x,-y,1/2+z
1/2+x,1/2+y,z
1/2-x,1/2+y,1/2-z
1/2-x,1/2-y,-z
1/2+x,1/2-y,1/2+z
loop_
_atom_site_type_symbol
_atom_site_label
_atom_site_fract_x
_atom_site_fract_y
_atom_site_fract_z
Si Si1 0.022420 0.965590 0.085866
Si Si2 0.160757 0.540704 0.107146
Si Si3 0.656132 0.114972 0.721518
Si Si4 0.142304 0.630494 0.518192
Si Si5 0.500000 0.019178 0.250000
Si Si6 0.931143 0.152981 0.289486
Si Si7 0.234786 0.658061 0.424408
O O1 0.012636 0.065050 0.131163
O O2 0.177730 0.906967 0.172793
O O3 0.000000 0.000000 0.000000
O O4 0.884735 0.888987 0.024704
O O5 0.147980 0.441432 0.148740
O O6 0.210352 0.484263 0.065181
O O7 0.274533 0.613035 0.195408
O O8 0.017052 0.608487 0.033667
O O9 0.596321 0.233242 0.692682
O O10 0.542934 0.053110 0.711196
O O11 0.134866 0.659725 0.439219
O O12 0.230670 0.728605 0.588598
O O13 0.643393 0.087502 0.331463
O O14 0.000000 0.160086 0.250000
#
# Coordination Sequence:
#
# PCOD9290340 Si02
#       7
#     8   8   8   8   4   8   8
#     4  11  24  42  67  97 133 166 228 276 324 399
#     4  10  22  41  65  93 129 167 217 273 321 397
#     4  11  23  42  66  94 132 177 215 270 339 395
#     4  10  22  41  65  91 125 168 215 268 335 388
#     4  12  22  42  64  92 136 164 222 270 336 394
#     4  11  24  43  65  96 134 177 219 271 336 396
#     4  11  23  42  64  94 126 171 215 271 328 395
#
# _framework density 21.295293000000001
#
# number of rings (size 3 to 8) (size 9 to 14) (size 15 to 20)
#    0.000    1.231    3.846    1.846    2.154    0.000 
#   12.462    1.538    0.000    0.000    0.000    0.000 
#    0.000    0.000    0.000    0.000    0.000    0.000 
#
# Total GULP energy -144808.508419 kJ/mol
# GULP energy per Si atom -5569.558016 kJ/mol
# Density = 2.124682 g / cm^3
# Si number density = 21.295293 Si / 1000 Ang^3
#
#
#
# Elastic Constant Matrix: (Units=GPa)
#
#
# Indices 1 2 3 4 5 6 
#
# 1 63.8433 19.2556 2.0792 0.0000 -3.4468 0.0000
# 2 19.2556 82.5586 -13.3473 0.0000 11.8420 0.0000
# 3 2.0792 -13.3473 71.1638 0.0000 12.8435 0.0000
# 4 0.0000 0.0000 0.0000 22.1940 0.0000 -1.6199
# 5 -3.4468 11.8420 12.8435 0.0000 22.0461 0.0000
# 6 0.0000 0.0000 0.0000 -1.6199 0.0000 48.1696
#
#
#
# Elastic Compliance Matrix: (Units=1/GPa)
#
#
# Indices 1 2 3 4 5 6 
#
# 1 0.017907 -0.005751 -0.002978 0.000000 0.007624 0.000000
# 2 -0.005751 0.016182 0.005514 0.000000 -0.012804 0.000000
# 3 -0.002978 0.005514 0.017647 0.000000 -0.013708 0.000000
# 4 0.000000 0.000000 0.000000 0.045168 0.000000 0.001519
# 5 0.007624 -0.012804 -0.013708 0.000000 0.061415 0.000000
# 6 0.000000 0.000000 0.000000 0.001519 0.000000 0.020811
#
#
# Mechanical properties :
#
#
# Convention : Reuss Voigt Hill
#
# Bulk Modulus (GPa) = 22.07259 25.94897 24.01078
# Shear Modulus (GPa) = 24.91745 32.45381 28.68563
#
# Velocity S-wave (km/s) = 3.42437 3.90807 3.67419
# Velocity P-wave (km/s) = 5.10124 5.70752 5.41287
#
# Compressibility (1/GPa) = 0.04530506
#
# Stress axis : x y z
#
# Youngs Moduli (GPa) = 55.84530 61.79713 56.66589
#
# Poissons Ratio (x) = 0.35542 0.16874
# Poissons Ratio (y) = 0.32119 -0.31245
# Poissons Ratio (z) = 0.16630 -0.34074
#
# Static dielectric constant tensor:
#      x y z
#    x 2.013810 0.000000 -0.066870 
#    y 0.000000 1.822110 0.000000 
#    z -0.066870 0.000000 1.840790 
# 
# From -- ./inp_files/203891.got.cif
#   From: 2010.05.17/outbox.cif.g08.bks.cpg/sg15_102_cif.got.tgz:203891.got - 2010.06.03 18:47:42.
