data_PCOD9290089
_publ_section_title
;
Structure prediction by ZEFSAII (Michael W. Deem and Ramdas Pophale) SiO2 
 PCOD9290089
Probable space group: C 2/C
;
_chemical_formula_sum "Si O2"
_cell_formula_units_Z 56
_cell_length_a 24.661167
_cell_length_b 13.495041
_cell_length_c 10.489956
_cell_angle_alpha 90.000000
_cell_angle_beta 52.377697
_cell_angle_gamma 90.000000
_cell_volume 2765.127979
_symmetry_space_group_name_H-M "C 2/C"
_symmetry_group_IT_number 15
_symmetry_cell_setting 'monoclinic'
loop_
_space_group_symop_operation_xyz
x,y,z
-x,y,1/2-z
-x,-y,-z
x,-y,1/2+z
1/2+x,1/2+y,z
1/2-x,1/2+y,1/2-z
1/2-x,1/2-y,-z
1/2+x,1/2-y,1/2+z
loop_
_atom_site_type_symbol
_atom_site_label
_atom_site_fract_x
_atom_site_fract_y
_atom_site_fract_z
Si Si1 0.210066 0.686852 0.163574
Si Si2 0.769442 0.974435 0.109853
Si Si3 0.095948 0.011226 0.952477
Si Si4 0.500000 0.375333 0.250000
Si Si5 0.781135 0.732726 0.813501
Si Si6 0.000000 0.751996 0.750000
Si Si7 0.884414 0.869072 0.773656
Si Si8 0.061678 0.769331 0.406458
O O1 0.231446 0.572343 0.119206
O O2 0.234959 0.720928 0.268702
O O3 0.130048 0.711163 0.269205
O O4 0.250000 0.750000 0.000000
O O5 0.717999 0.884583 0.212656
O O6 0.821702 0.999490 0.149583
O O7 0.823757 0.926639 0.932718
O O8 0.072883 0.949503 0.863321
O O9 0.082203 0.124782 0.940264
O O10 0.059975 0.951114 0.118472
O O11 0.521033 0.304515 0.338431
O O12 0.852589 0.789936 0.720851
O O13 0.750000 0.750000 0.000000
O O14 0.065780 0.812933 0.703602
O O15 0.024541 0.709835 0.576329
#
# Coordination Sequence:
#
# PCOD9290089 Si02
#       8
#     8   8   8   4   8   4   8   8
#     4  12  24  41  64  94 131 170 217 267 323 387
#     4  11  23  39  65  93 130 164 214 267 323 384
#     4  12  20  35  59  91 129 162 204 257 324 391
#     4  12  25  36  58  93 134 170 209 264 332 387
#     4  10  22  41  61  90 128 169 211 260 322 386
#     4  12  23  42  64  91 134 172 213 260 318 403
#     4  11  22  38  62  93 126 171 207 258 321 386
#     4  12  25  39  59  95 130 172 212 261 327 391
#
# _framework density 20.252227000000001
#
# number of rings (size 3 to 8) (size 9 to 14) (size 15 to 20)
#    0.000    0.571    5.714    4.286    0.000    0.000 
#    0.000    0.000    0.000    1.714    0.000    0.000 
#    0.000    0.000    0.000    0.000    0.000    0.000 
#
# Total GULP energy -156159.584484 kJ/mol
# GULP energy per Si atom -5577.128017 kJ/mol
# Density = 2.020613 g / cm^3
# Si number density = 20.252227 Si / 1000 Ang^3
#
#
#
# Elastic Constant Matrix: (Units=GPa)
#
#
# Indices 1 2 3 4 5 6 
#
# 1 101.9216 31.5352 21.8554 0.0000 5.0053 0.0000
# 2 31.5352 91.9451 8.9364 0.0000 -19.2689 0.0000
# 3 21.8554 8.9364 85.1108 0.0000 0.5256 0.0000
# 4 0.0000 0.0000 0.0000 22.9329 0.0000 -12.4287
# 5 5.0053 -19.2689 0.5256 0.0000 31.6842 0.0000
# 6 0.0000 0.0000 0.0000 -12.4287 0.0000 21.3118
#
#
#
# Elastic Compliance Matrix: (Units=1/GPa)
#
#
# Indices 1 2 3 4 5 6 
#
# 1 0.012127 -0.004931 -0.002566 0.000000 -0.004872 0.000000
# 2 -0.004931 0.014628 -0.000330 0.000000 0.009680 0.000000
# 3 -0.002566 -0.000330 0.012443 0.000000 -0.000001 0.000000
# 4 0.000000 0.000000 0.000000 0.063757 0.000000 0.037182
# 5 -0.004872 0.009680 -0.000001 0.000000 0.038218 0.000000
# 6 0.000000 0.000000 0.000000 0.037182 0.000000 0.068606
#
#
# Mechanical properties :
#
#
# Convention : Reuss Voigt Hill
#
# Bulk Modulus (GPa) = 42.47249 44.84795 43.66022
# Shear Modulus (GPa) = 21.43349 29.62914 25.53132
#
# Velocity S-wave (km/s) = 3.25672 3.82908 3.55444
# Velocity P-wave (km/s) = 5.92950 6.46080 6.20084
#
# Compressibility (1/GPa) = 0.02354465
#
# Stress axis : x y z
#
# Youngs Moduli (GPa) = 82.46345 68.36234 80.36677
#
# Poissons Ratio (x) = 0.33708 0.20623
# Poissons Ratio (y) = 0.40660 0.02648
# Poissons Ratio (z) = 0.21161 0.02253
#
# Static dielectric constant tensor:
#      x y z
#    x 1.782450 0.000000 0.026950 
#    y 0.000000 1.751320 0.000000 
#    z 0.026950 0.000000 1.752790 
# 
# From -- ./inp_files/122645.got.cif
#   From: 2010.05.17/outbox.cif.g08.bks.cpg/sg15_62_cif.got.tgz:122645.got - 2010.06.03 18:47:42.
