data_PCOD9290324
_publ_section_title
;
Structure prediction by ZEFSAII (Michael W. Deem and Ramdas Pophale) SiO2 
 PCOD9290324
Probable space group: C 2/C
;
_chemical_formula_sum "Si O2"
_cell_formula_units_Z 48
_cell_length_a 21.897703
_cell_length_b 23.797230
_cell_length_c 13.398350
_cell_angle_alpha 90.000000
_cell_angle_beta 21.083281
_cell_angle_gamma 90.000000
_cell_volume 2511.576277
_symmetry_space_group_name_H-M "C 2/C"
_symmetry_group_IT_number 15
_symmetry_cell_setting 'monoclinic'
loop_
_space_group_symop_operation_xyz
x,y,z
-x,y,1/2-z
-x,-y,-z
x,-y,1/2+z
1/2+x,1/2+y,z
1/2-x,1/2+y,1/2-z
1/2-x,1/2-y,-z
1/2+x,1/2-y,1/2+z
loop_
_atom_site_type_symbol
_atom_site_label
_atom_site_fract_x
_atom_site_fract_y
_atom_site_fract_z
Si Si1 0.071504 0.576961 0.415760
Si Si2 0.558534 0.686080 0.273985
Si Si3 0.036471 0.313682 0.312181
Si Si4 0.987116 0.072159 0.478747
Si Si5 0.390241 0.476438 0.321707
Si Si6 0.381691 0.030758 0.526194
O O1 0.078677 0.532425 0.495999
O O2 0.060792 0.639258 0.475794
O O3 0.918701 0.566272 0.570685
O O4 0.229363 0.557711 0.105908
O O5 0.500000 0.675970 0.250000
O O6 0.495629 0.748524 0.398067
O O7 0.488184 0.636372 0.448553
O O8 0.762160 0.682204 0.973675
O O9 0.000000 0.322297 0.250000
O O10 0.992514 0.062130 0.588128
O O11 0.809526 0.044311 0.714628
O O12 0.133009 0.035605 0.201025
O O13 0.500000 0.490268 0.250000
O O14 0.500000 0.043636 0.250000
#
# Coordination Sequence:
#
# PCOD9290324 Si02
#       6
#     8   8   8   8   8   8
#     4  11  23  36  60  86 121 150 193 246 300 352
#     4  10  22  41  65  87 115 160 203 248 294 351
#     4  10  23  40  63  91 117 154 205 250 295 351
#     4  11  23  38  60  82 122 154 199 241 298 362
#     4  11  23  36  54  89 118 154 188 240 300 358
#     4  11  22  37  57  87 115 156 191 240 299 357
#
# _framework density 19.111502999999999
#
# number of rings (size 3 to 8) (size 9 to 14) (size 15 to 20)
#    0.000    1.333    3.333    2.000    7.000    0.000 
#    0.000    0.833    0.000    0.000    0.000    0.000 
#    0.000    0.000    0.000    0.000    0.000    0.000 
#
# Total GULP energy -133961.637648 kJ/mol
# GULP energy per Si atom -5581.734902 kJ/mol
# Density = 1.906800 g / cm^3
# Si number density = 19.111503 Si / 1000 Ang^3
#
#
#
# Elastic Constant Matrix: (Units=GPa)
#
#
# Indices 1 2 3 4 5 6 
#
# 1 70.9263 20.7686 22.2855 -0.0087 15.2187 0.0047
# 2 20.7686 135.8051 45.5130 -0.0273 30.1700 0.0172
# 3 22.2855 45.5130 76.1473 -0.0669 12.2011 0.0435
# 4 -0.0087 -0.0273 -0.0669 -160.1281 0.0366 137.7606
# 5 15.2187 30.1700 12.2011 0.0366 29.2338 -0.0262
# 6 0.0047 0.0172 0.0435 137.7606 -0.0262 -60.2859
#
#
#
# Elastic Compliance Matrix: (Units=1/GPa)
#
#
# Indices 1 2 3 4 5 6 
#
# 1 0.016843 0.000437 -0.003980 -0.000001 -0.007559 0.000001
# 2 0.000437 0.011195 -0.005285 -0.000001 -0.009575 0.000001
# 3 -0.003980 -0.005285 0.017415 -0.000003 0.000258 0.000003
# 4 -0.000001 -0.000001 -0.000003 0.006465 0.000008 0.014774
# 5 -0.007559 -0.009575 0.000258 0.000008 0.047916 -0.000006
# 6 0.000001 0.000001 0.000003 0.014774 -0.000006 0.017173
#
#
# Mechanical properties :
#
#
# Convention : Reuss Voigt Hill
#
# Bulk Modulus (GPa) = 35.97355 51.11256 43.54305
# Shear Modulus (GPa) = 34.73950 -25.28195 4.72878
#
# Velocity S-wave (km/s) = 4.26811 -3.64107 1.57470
# Velocity P-wave (km/s) = 6.56908 3.02092 5.11267
#
# Compressibility (1/GPa) = 0.02779820
#
# Stress axis : x y z
#
# Youngs Moduli (GPa) = 59.37038 89.32539 57.42319
#
# Poissons Ratio (x) = -0.03904 0.22852
# Poissons Ratio (y) = -0.02594 0.30347
# Poissons Ratio (z) = 0.23627 0.47207
#
# Static dielectric constant tensor:
#      x y z
#    x 1.691580 0.000000 -0.038420 
#    y 0.000000 1.662700 0.000010 
#    z -0.038420 0.000010 1.717200 
# 
# From -- ./inp_files/114180.got.cif
#   From: 2010.05.17/outbox.cif.g08.bks.cpg/sg15_58_cif.got.tgz:114180.got - 2010.06.03 18:47:42.
