data_PCOD9290087
_publ_section_title
;
Structure prediction by ZEFSAII (Michael W. Deem and Ramdas Pophale) SiO2 
 PCOD9290087
Probable space group: C 2/C
;
_chemical_formula_sum "Si O2"
_cell_formula_units_Z 56
_cell_length_a 6.922082
_cell_length_b 12.542321
_cell_length_c 23.799088
_cell_angle_alpha 90.000000
_cell_angle_beta 104.981940
_cell_angle_gamma 90.000000
_cell_volume 1995.976397
_symmetry_space_group_name_H-M "C 2/C"
_symmetry_group_IT_number 15
_symmetry_cell_setting 'monoclinic'
loop_
_space_group_symop_operation_xyz
x,y,z
-x,y,1/2-z
-x,-y,-z
x,-y,1/2+z
1/2+x,1/2+y,z
1/2-x,1/2+y,1/2-z
1/2-x,1/2-y,-z
1/2+x,1/2-y,1/2+z
loop_
_atom_site_type_symbol
_atom_site_label
_atom_site_fract_x
_atom_site_fract_y
_atom_site_fract_z
Si Si1 0.250000 0.250000 0.500000
Si Si2 0.236274 0.264644 0.317687
Si Si3 0.600049 0.747067 0.928540
Si Si4 0.964462 0.116219 0.473157
Si Si5 0.178016 0.030664 0.330275
Si Si6 0.743911 0.987759 0.295872
Si Si7 0.944760 0.429400 0.441733
Si Si8 0.500000 0.823737 0.750000
O O1 0.352047 0.347585 0.550335
O O2 0.369804 0.150791 0.549472
O O3 0.433644 0.256746 0.370383
O O4 0.123771 0.155862 0.320514
O O5 0.141793 0.380426 0.310764
O O6 0.330883 0.249199 0.263126
O O7 0.742604 0.850875 0.938818
O O8 0.752288 0.647888 0.938014
O O9 0.485891 0.720114 0.979456
O O10 0.000000 0.000000 0.500000
O O11 0.223768 0.993947 0.269466
O O12 0.363114 0.998610 0.383529
O O13 0.968454 0.983547 0.336663
O O14 0.617437 0.093465 0.299292
O O15 0.000000 0.500000 0.500000
#
# Coordination Sequence:
#
# PCOD9290087 Si02
#       8
#     4   8   8   8   8   8   8   4
#     4  10  24  40  62  94 128 174 222 254 330 384
#     4  11  23  42  68  95 129 171 216 278 329 397
#     4  10  23  40  64  95 129 177 217 267 334 382
#     4  10  22  41  61  89 132 168 214 268 309 389
#     4  10  23  42  71  95 134 178 220 275 346 392
#     4  10  22  47  65  98 130 168 223 279 336 399
#     4  11  23  44  64  98 139 180 219 276 329 405
#     4  10  24  42  68  96 128 164 220 272 340 404
#
# _framework density 28.056445
#
# number of rings (size 3 to 8) (size 9 to 14) (size 15 to 20)
#    0.000    1.714    1.429    1.714    8.000    3.429 
#    7.714    1.429    0.000    0.000    0.000    0.000 
#    0.000    0.000    0.000    0.000    0.000    0.000 
#
# Total GULP energy -156359.205993 kJ/mol
# GULP energy per Si atom -5584.257357 kJ/mol
# Density = 2.799259 g / cm^3
# Si number density = 28.056445 Si / 1000 Ang^3
#
#
#
# Elastic Constant Matrix: (Units=GPa)
#
#
# Indices 1 2 3 4 5 6 
#
# 1 110.0727 26.0484 19.8607 0.0000 28.8910 0.0000
# 2 26.0484 156.9760 34.1193 0.0000 8.0229 0.0000
# 3 19.8607 34.1193 113.7252 0.0000 42.3782 0.0000
# 4 0.0000 0.0000 0.0000 40.8020 0.0000 17.0795
# 5 28.8910 8.0229 42.3782 0.0000 49.1981 0.0000
# 6 0.0000 0.0000 0.0000 17.0795 0.0000 46.1159
#
#
#
# Elastic Compliance Matrix: (Units=1/GPa)
#
#
# Indices 1 2 3 4 5 6 
#
# 1 0.011220 -0.001775 0.001356 0.000000 -0.007467 0.000000
# 2 -0.001775 0.007126 -0.002626 0.000000 0.002143 0.000000
# 3 0.001356 -0.002626 0.013963 0.000000 -0.012396 0.000000
# 4 0.000000 0.000000 0.000000 0.029005 0.000000 -0.010742
# 5 -0.007467 0.002143 -0.012396 0.000000 0.035039 0.000000
# 6 0.000000 0.000000 0.000000 -0.010742 0.000000 0.025663
#
#
# Mechanical properties :
#
#
# Convention : Reuss Voigt Hill
#
# Bulk Modulus (GPa) = 38.14101 60.09230 49.11665
# Shear Modulus (GPa) = 36.53684 47.27290 41.90487
#
# Velocity S-wave (km/s) = 3.61260 4.10923 3.86889
# Velocity P-wave (km/s) = 5.57002 6.63168 6.12390
#
# Compressibility (1/GPa) = 0.02621850
#
# Stress axis : x y z
#
# Youngs Moduli (GPa) = 89.12444 140.32572 71.61588
#
# Poissons Ratio (x) = 0.24906 -0.09708
# Poissons Ratio (y) = 0.15818 0.18809
# Poissons Ratio (z) = -0.12081 0.36855
#
# Static dielectric constant tensor:
#      x y z
#    x 2.266640 0.000000 -0.076760 
#    y 0.000000 2.179430 0.000000 
#    z -0.076760 0.000000 2.301460 
# 
# From -- ./inp_files/307577.got.cif
#   From: 2010.05.17/outbox.cif.g08.bks.cpg/sg15_154_cif.got.tgz:307577.got - 2010.06.03 18:47:42.
