data_PCOD9290157
_publ_section_title
;
Structure prediction by ZEFSAII (Michael W. Deem and Ramdas Pophale) SiO2 
 PCOD9290157
Probable space group: C 2/C
;
_chemical_formula_sum "Si O2"
_cell_formula_units_Z 40
_cell_length_a 19.800401
_cell_length_b 12.236641
_cell_length_c 23.520854
_cell_angle_alpha 90.000000
_cell_angle_beta 160.239492
_cell_angle_gamma 90.000000
_cell_volume 1926.729500
_symmetry_space_group_name_H-M "C 2/C"
_symmetry_group_IT_number 15
_symmetry_cell_setting 'monoclinic'
loop_
_space_group_symop_operation_xyz
x,y,z
-x,y,1/2-z
-x,-y,-z
x,-y,1/2+z
1/2+x,1/2+y,z
1/2-x,1/2+y,1/2-z
1/2-x,1/2-y,-z
1/2+x,1/2-y,1/2+z
loop_
_atom_site_type_symbol
_atom_site_label
_atom_site_fract_x
_atom_site_fract_y
_atom_site_fract_z
Si Si1 0.410076 0.233827 0.320864
Si Si2 0.755767 0.327758 0.915220
Si Si3 0.790111 0.370611 0.614461
Si Si4 0.967192 0.372774 0.467141
Si Si5 0.674626 0.602298 0.472203
O O1 0.624137 0.278612 0.470206
O O2 0.329146 0.144319 0.212629
O O3 0.421575 0.186312 0.392870
O O4 0.260252 0.335881 0.205116
O O5 0.557167 0.368911 0.725231
O O6 0.774748 0.396300 0.988748
O O7 0.941687 0.337460 0.020724
O O8 0.737778 0.202732 0.921988
O O9 0.709737 0.488252 0.531125
O O10 0.000000 0.350765 0.750000
O O11 0.000000 0.500000 0.500000
#
# Coordination Sequence:
#
# PCOD9290157 Si02
#       5
#     8   8   8   8   8
#     4  10  25  44  63  99 122 166 220 256 317 386
#     4  10  22  41  63 100 134 160 214 257 312 379
#     4  11  24  44  68  91 126 167 215 271 318 364
#     4  11  23  41  68  90 134 169 203 259 319 381
#     4  10  23  39  68  96 129 167 211 262 315 371
#
# _framework density 20.760569
#
# number of rings (size 3 to 8) (size 9 to 14) (size 15 to 20)
#    0.000    1.600    0.000    3.000    8.400    1.600 
#    7.200    5.000    0.000    0.000    0.000    0.000 
#    0.000    0.000    0.000    0.000    0.000    0.000 
#
# Total GULP energy -111800.206924 kJ/mol
# GULP energy per Si atom -5590.010346 kJ/mol
# Density = 2.071332 g / cm^3
# Si number density = 20.760569 Si / 1000 Ang^3
#
#
#
# Elastic Constant Matrix: (Units=GPa)
#
#
# Indices 1 2 3 4 5 6 
#
# 1 99.2064 37.8948 33.8926 0.0019 14.7427 0.0006
# 2 37.8948 120.7076 39.8606 0.0078 -14.6935 0.0008
# 3 33.8926 39.8606 91.0086 -0.0002 6.5234 -0.0010
# 4 0.0019 0.0078 -0.0002 22.4264 0.0002 -4.5944
# 5 14.7427 -14.6935 6.5234 0.0002 23.6876 0.0015
# 6 0.0006 0.0008 -0.0010 -4.5944 0.0015 26.9366
#
#
#
# Elastic Compliance Matrix: (Units=1/GPa)
#
#
# Indices 1 2 3 4 5 6 
#
# 1 0.014616 -0.005256 -0.002301 0.000001 -0.011723 0.000001
# 2 -0.005256 0.013003 -0.004642 -0.000005 0.012615 -0.000002
# 3 -0.002301 -0.004642 0.014263 0.000002 -0.005376 0.000001
# 4 0.000001 -0.000005 0.000002 0.046205 -0.000005 0.007881
# 5 -0.011723 0.012615 -0.005376 -0.000005 0.058818 -0.000004
# 6 0.000001 -0.000002 0.000001 0.007881 -0.000004 0.038468
#
#
# Mechanical properties :
#
#
# Convention : Reuss Voigt Hill
#
# Bulk Modulus (GPa) = 57.19256 59.35762 58.27509
# Shear Modulus (GPa) = 23.19116 27.89507 25.54312
#
# Velocity S-wave (km/s) = 3.34590 3.66957 3.51146
# Velocity P-wave (km/s) = 6.52190 6.82700 6.67619
#
# Compressibility (1/GPa) = 0.01748479
#
# Stress axis : x y z
#
# Youngs Moduli (GPa) = 68.41934 76.90505 70.10983
#
# Poissons Ratio (x) = 0.40419 0.16131
# Poissons Ratio (y) = 0.35959 0.32546
# Poissons Ratio (z) = 0.15742 0.35700
#
# Static dielectric constant tensor:
#      x y z
#    x 1.731900 0.000000 0.016660 
#    y 0.000000 1.697180 0.000000 
#    z 0.016660 0.000000 1.783870 
# 
# From -- ./inp_files/280049.got.cif
#   From: 2010.05.17/outbox.cif.g08.bks.cpg/sg15_141_cif.got.tgz:280049.got - 2010.06.03 18:47:42.
