data_PCOD9290908
_publ_section_title
;
Structure prediction by ZEFSAII (Michael W. Deem and Ramdas Pophale) SiO2 
 PCOD9290908
Probable space group: C 2/C
;
_chemical_formula_sum "Si O2"
_cell_formula_units_Z 40
_cell_length_a 20.006674
_cell_length_b 16.518664
_cell_length_c 9.738529
_cell_angle_alpha 90.000000
_cell_angle_beta 38.970985
_cell_angle_gamma 90.000000
_cell_volume 2024.152593
_symmetry_space_group_name_H-M "C 2/C"
_symmetry_group_IT_number 15
_symmetry_cell_setting 'monoclinic'
loop_
_space_group_symop_operation_xyz
x,y,z
-x,y,1/2-z
-x,-y,-z
x,-y,1/2+z
1/2+x,1/2+y,z
1/2-x,1/2+y,1/2-z
1/2-x,1/2-y,-z
1/2+x,1/2-y,1/2+z
loop_
_atom_site_type_symbol
_atom_site_label
_atom_site_fract_x
_atom_site_fract_y
_atom_site_fract_z
Si Si1 0.500000 0.374624 0.250000
Si Si2 0.299820 0.052554 0.694287
Si Si3 0.865482 0.835507 0.709846
Si Si4 0.136617 0.331174 0.186052
Si Si5 0.500000 0.960024 0.250000
Si Si6 0.839514 0.014534 0.843453
O O1 0.418500 0.327432 0.477109
O O2 0.570807 0.429582 0.236701
O O3 0.319480 0.138802 0.735882
O O4 0.215696 0.049932 0.704433
O O5 0.408588 0.014238 0.464380
O O6 0.249941 0.998774 0.896721
O O7 0.905238 0.759744 0.735628
O O8 0.885572 0.925334 0.736021
O O9 0.736993 0.830919 0.922213
O O10 0.054725 0.399329 0.270738
#
# Coordination Sequence:
#
# PCOD9290908 Si02
#       6
#     4   8   8   8   4   8
#     4  12  22  40  64  94 116 164 214 252 298 378
#     4  11  22  40  63  92 122 163 209 255 302 366
#     4  10  22  42  58  89 130 156 202 259 305 364
#     4  10  23  41  61  89 128 162 201 257 312 358
#     4  12  20  40  66  92 116 170 212 248 298 382
#     4  11  22  41  64  89 123 164 207 255 306 364
#
# _framework density 19.761358000000001
#
# number of rings (size 3 to 8) (size 9 to 14) (size 15 to 20)
#    0.000    1.200    6.000    1.200    0.000    1.600 
#    7.200    1.000    0.000    0.000    0.000    0.000 
#    0.000    0.000    0.000    0.000    0.000    0.000 
#
# Total GULP energy -111625.449547 kJ/mol
# GULP energy per Si atom -5581.272477 kJ/mol
# Density = 1.971638 g / cm^3
# Si number density = 19.761358 Si / 1000 Ang^3
#
#
#
# Elastic Constant Matrix: (Units=GPa)
#
#
# Indices 1 2 3 4 5 6 
#
# 1 92.2415 23.4720 32.7559 0.0000 11.6821 0.0000
# 2 23.4720 62.5170 40.8049 0.0000 -5.5202 0.0000
# 3 32.7559 40.8049 136.9187 0.0000 5.8999 0.0000
# 4 0.0000 0.0000 0.0000 9.2539 0.0000 4.0559
# 5 11.6821 -5.5202 5.8999 0.0000 23.4504 0.0000
# 6 0.0000 0.0000 0.0000 4.0559 0.0000 5.2189
#
#
#
# Elastic Compliance Matrix: (Units=1/GPa)
#
#
# Indices 1 2 3 4 5 6 
#
# 1 0.013533 -0.004767 -0.001494 0.000000 -0.007488 0.000000
# 2 -0.004767 0.022481 -0.005954 0.000000 0.009165 0.000000
# 3 -0.001494 -0.005954 0.009568 0.000000 -0.003064 0.000000
# 4 0.000000 0.000000 0.000000 0.163887 0.000000 -0.127368
# 5 -0.007488 0.009165 -0.003064 0.000000 0.049302 0.000000
# 6 0.000000 0.000000 0.000000 -0.127368 0.000000 0.290597
#
#
# Mechanical properties :
#
#
# Convention : Reuss Voigt Hill
#
# Bulk Modulus (GPa) = 47.27969 53.97144 50.62557
# Shear Modulus (GPa) = 8.60808 20.56092 14.58450
#
# Velocity S-wave (km/s) = 2.08937 3.22912 2.71962
# Velocity P-wave (km/s) = 5.45875 6.42447 5.96120
#
# Compressibility (1/GPa) = 0.02115073
#
# Stress axis : x y z
#
# Youngs Moduli (GPa) = 73.89323 44.48196 104.51838
#
# Poissons Ratio (x) = 0.21204 0.15618
# Poissons Ratio (y) = 0.35223 0.62234
# Poissons Ratio (z) = 0.11042 0.26486
#
# Static dielectric constant tensor:
#      x y z
#    x 1.707170 0.000000 -0.003700 
#    y 0.000000 1.699500 0.000000 
#    z -0.003700 0.000000 1.718110 
# 
# From -- ./inp_files/29141.got.cif
#   From: 2010.05.17/outbox.cif.g08.bks.cpg/sg15_15_cif.got.tgz:29141.got - 2010.06.03 18:47:42.
