data_PCOD9290353
_publ_section_title
;
Structure prediction by ZEFSAII (Michael W. Deem and Ramdas Pophale) SiO2 
 PCOD9290353
Probable space group: C 2/C
;
_chemical_formula_sum "Si O2"
_cell_formula_units_Z 60
_cell_length_a 8.465422
_cell_length_b 22.139336
_cell_length_c 20.724460
_cell_angle_alpha 90.000000
_cell_angle_beta 133.168255
_cell_angle_gamma 90.000000
_cell_volume 2832.899057
_symmetry_space_group_name_H-M "C 2/C"
_symmetry_group_IT_number 15
_symmetry_cell_setting 'monoclinic'
loop_
_space_group_symop_operation_xyz
x,y,z
-x,y,1/2-z
-x,-y,-z
x,-y,1/2+z
1/2+x,1/2+y,z
1/2-x,1/2+y,1/2-z
1/2-x,1/2-y,-z
1/2+x,1/2-y,1/2+z
loop_
_atom_site_type_symbol
_atom_site_label
_atom_site_fract_x
_atom_site_fract_y
_atom_site_fract_z
Si Si1 0.854453 0.047512 0.774197
Si Si2 0.037091 0.339139 0.185344
Si Si3 0.000000 0.466563 0.750000
Si Si4 0.129993 0.585230 0.416041
Si Si5 0.681381 0.484333 0.956046
Si Si6 0.303173 0.618579 0.148100
Si Si7 0.446580 0.622181 0.995053
Si Si8 0.056482 0.221438 0.404460
O O1 0.726380 0.111015 0.731431
O O2 0.000000 0.037481 0.750000
O O3 0.660128 0.004529 0.747728
O O4 0.028447 0.032636 0.878305
O O5 0.000000 0.325751 0.250000
O O6 0.083554 0.277585 0.159350
O O7 0.797895 0.362453 0.095487
O O8 0.126972 0.428170 0.838745
O O9 0.130873 0.522696 0.457254
O O10 0.350057 0.620075 0.495610
O O11 0.916079 0.621047 0.373446
O O12 0.728266 0.432017 0.916441
O O13 0.574614 0.445192 0.982834
O O14 0.500000 0.600925 0.250000
O O15 0.356049 0.682770 0.131144
O O16 0.526337 0.669852 0.070983
O O17 0.250000 0.250000 0.500000
#
# Coordination Sequence:
#
# PCOD9290353 Si02
#       8
#     8   8   4   8   8   8   8   8
#     4  12  25  41  67 100 138 180 227 277 345 420
#     4  11  22  43  66  93 127 177 224 285 341 392
#     4  12  24  42  64  96 148 178 220 290 346 414
#     4  12  24  38  66  98 134 179 222 276 348 423
#     4  11  22  40  62  98 139 177 217 271 349 415
#     4  11  24  43  66  98 135 181 231 282 342 420
#     4  10  22  41  65  92 131 176 217 272 342 406
#     4   9  22  44  68  89 129 176 229 287 344 391
#
# _framework density 21.179717
#
# number of rings (size 3 to 8) (size 9 to 14) (size 15 to 20)
#    0.000    1.067    2.000    4.800    1.867    3.200 
#    0.000    5.333    0.000    0.000    0.000    0.000 
#    0.000    0.000    0.000    0.000    0.000    0.000 
#
# Total GULP energy -167180.432891 kJ/mol
# GULP energy per Si atom -5572.681096 kJ/mol
# Density = 2.113151 g / cm^3
# Si number density = 21.179717 Si / 1000 Ang^3
#
#
#
# Elastic Constant Matrix: (Units=GPa)
#
#
# Indices 1 2 3 4 5 6 
#
# 1 72.2869 29.4558 21.0488 0.0000 17.1686 0.0000
# 2 29.4558 114.1734 41.0383 0.0000 -1.3074 0.0000
# 3 21.0488 41.0383 89.5427 0.0000 -12.4957 0.0000
# 4 0.0000 0.0000 0.0000 44.2958 0.0000 -12.7741
# 5 17.1686 -1.3074 -12.4957 0.0000 21.3091 0.0000
# 6 0.0000 0.0000 0.0000 -12.7741 0.0000 14.5833
#
#
#
# Elastic Compliance Matrix: (Units=1/GPa)
#
#
# Indices 1 2 3 4 5 6 
#
# 1 0.022621 -0.003660 -0.006769 0.000000 -0.022419 0.000000
# 2 -0.003660 0.011189 -0.004096 0.000000 0.001233 0.000000
# 3 -0.006769 -0.004096 0.016731 0.000000 0.015013 0.000000
# 4 0.000000 0.000000 0.000000 0.030206 0.000000 0.026458
# 5 -0.022419 0.001233 0.015013 0.000000 0.073871 0.000000
# 6 0.000000 0.000000 0.000000 0.026458 0.000000 0.091748
#
#
# Mechanical properties :
#
#
# Convention : Reuss Voigt Hill
#
# Bulk Modulus (GPa) = 46.52745 51.00988 48.76866
# Shear Modulus (GPa) = 17.69426 28.33498 23.01462
#
# Velocity S-wave (km/s) = 2.89352 3.66161 3.29999
# Velocity P-wave (km/s) = 5.76012 6.48175 6.13156
#
# Compressibility (1/GPa) = 0.02149269
#
# Stress axis : x y z
#
# Youngs Moduli (GPa) = 44.20743 89.37317 59.76867
#
# Poissons Ratio (x) = 0.32708 0.40456
# Poissons Ratio (y) = 0.16179 0.24479
# Poissons Ratio (z) = 0.29923 0.36604
#
# Static dielectric constant tensor:
#      x y z
#    x 1.832110 0.000000 -0.006330 
#    y 0.000000 1.783000 0.000000 
#    z -0.006330 0.000000 1.810390 
# 
# From -- ./inp_files/234574.got.cif
#   From: 2010.05.17/outbox.cif.g08.bks.cpg/sg15_118_cif.got.tgz:234574.got - 2010.06.03 18:47:42.
