data_PCOD9290659
_publ_section_title
;
Structure prediction by ZEFSAII (Michael W. Deem and Ramdas Pophale) SiO2 
 PCOD9290659
Probable space group: C 2/C
;
_chemical_formula_sum "Si O2"
_cell_formula_units_Z 40
_cell_length_a 27.606842
_cell_length_b 5.406373
_cell_length_c 15.163490
_cell_angle_alpha 90.000000
_cell_angle_beta 53.449808
_cell_angle_gamma 90.000000
_cell_volume 1818.104542
_symmetry_space_group_name_H-M "C 2/C"
_symmetry_group_IT_number 15
_symmetry_cell_setting 'monoclinic'
loop_
_space_group_symop_operation_xyz
x,y,z
-x,y,1/2-z
-x,-y,-z
x,-y,1/2+z
1/2+x,1/2+y,z
1/2-x,1/2+y,1/2-z
1/2-x,1/2-y,-z
1/2+x,1/2-y,1/2+z
loop_
_atom_site_type_symbol
_atom_site_label
_atom_site_fract_x
_atom_site_fract_y
_atom_site_fract_z
Si Si1 0.446268 0.698442 0.057782
Si Si2 0.628275 0.363237 0.467321
Si Si3 0.213290 0.545882 0.272182
Si Si4 0.012451 0.581542 0.636380
Si Si5 0.743887 0.499792 0.952361
O O1 0.386802 0.548537 0.096749
O O2 0.453713 0.824325 0.145331
O O3 0.500000 0.500000 0.000000
O O4 0.461905 0.877839 0.959271
O O5 0.657166 0.117187 0.393056
O O6 0.565571 0.289151 0.581495
O O7 0.678677 0.479922 0.475376
O O8 0.247575 0.300701 0.266955
O O9 0.204618 0.501010 0.178526
O O10 0.000000 0.502014 0.750000
O O11 0.750000 0.250000 0.000000
O O12 0.750000 0.750000 0.000000
#
# Coordination Sequence:
#
# PCOD9290659 Si02
#       5
#     8   8   8   8   8
#     4   9  21  42  64  96 130 173 228 278 353 411
#     4  10  23  41  69  89 135 185 219 277 355 410
#     4  10  22  41  68  93 133 180 222 275 338 409
#     4  10  22  42  68  97 134 169 232 289 340 418
#     4  11  24  42  63 104 139 170 232 287 330 410
#
# _framework density 22.000934999999998
#
# number of rings (size 3 to 8) (size 9 to 14) (size 15 to 20)
#    0.000    2.000    0.000    2.400    8.400    4.800 
#   10.800    0.000    0.000    0.000    0.000    0.000 
#    0.000    0.000    0.000    0.000    0.000    0.000 
#
# Total GULP energy -111603.394946 kJ/mol
# GULP energy per Si atom -5580.169747 kJ/mol
# Density = 2.195086 g / cm^3
# Si number density = 22.000935 Si / 1000 Ang^3
#
#
#
# Elastic Constant Matrix: (Units=GPa)
#
#
# Indices 1 2 3 4 5 6 
#
# 1 143.3422 53.3125 41.2282 0.0025 12.6865 0.0010
# 2 53.3125 124.6979 26.0603 0.0037 16.3324 0.0160
# 3 41.2282 26.0603 88.5837 -0.0014 30.8233 0.0019
# 4 0.0025 0.0037 -0.0014 33.9027 -0.0004 7.7053
# 5 12.6865 16.3324 30.8233 -0.0004 37.3238 -0.0008
# 6 0.0010 0.0160 0.0019 7.7053 -0.0008 36.1860
#
#
#
# Elastic Compliance Matrix: (Units=1/GPa)
#
#
# Indices 1 2 3 4 5 6 
#
# 1 0.009176 -0.003321 -0.003808 -0.000001 0.001479 0.000002
# 2 -0.003321 0.009894 -0.000353 0.000000 -0.002909 -0.000004
# 3 -0.003808 -0.000353 0.017766 0.000001 -0.013223 -0.000001
# 4 -0.000001 0.000000 0.000001 0.030996 -0.000001 -0.006600
# 5 0.001479 -0.002909 -0.013223 -0.000001 0.038483 0.000003
# 6 0.000002 -0.000004 -0.000001 -0.006600 0.000003 0.029040
#
#
# Mechanical properties :
#
#
# Convention : Reuss Voigt Hill
#
# Bulk Modulus (GPa) = 45.72091 66.42509 56.07300
# Shear Modulus (GPa) = 31.72389 37.21736 34.47062
#
# Velocity S-wave (km/s) = 3.80140 4.11740 3.96255
# Velocity P-wave (km/s) = 6.33198 7.27059 6.81746
#
# Compressibility (1/GPa) = 0.02187183
#
# Stress axis : x y z
#
# Youngs Moduli (GPa) = 108.98170 101.07207 56.28717
#
# Poissons Ratio (x) = 0.33564 0.21436
# Poissons Ratio (y) = 0.36191 0.01986
# Poissons Ratio (z) = 0.41504 0.03566
#
# Static dielectric constant tensor:
#      x y z
#    x 1.854240 0.000000 -0.040620 
#    y 0.000000 1.864620 -0.000010 
#    z -0.040620 -0.000010 1.883240 
# 
# From -- ./inp_files/170748.got.cif
#   From: 2010.05.17/outbox.cif.g08.bks.cpg/sg15_86_cif.got.tgz:170748.got - 2010.06.03 18:47:42.
