data_PCOD9290412
_publ_section_title
;
Structure prediction by ZEFSAII (Michael W. Deem and Ramdas Pophale) SiO2 
 PCOD9290412
Probable space group: C 2/C
;
_chemical_formula_sum "Si O2"
_cell_formula_units_Z 56
_cell_length_a 20.387386
_cell_length_b 8.947306
_cell_length_c 14.612492
_cell_angle_alpha 90.000000
_cell_angle_beta 111.197910
_cell_angle_gamma 90.000000
_cell_volume 2485.141023
_symmetry_space_group_name_H-M "C 2/C"
_symmetry_group_IT_number 15
_symmetry_cell_setting 'monoclinic'
loop_
_space_group_symop_operation_xyz
x,y,z
-x,y,1/2-z
-x,-y,-z
x,-y,1/2+z
1/2+x,1/2+y,z
1/2-x,1/2+y,1/2-z
1/2-x,1/2-y,-z
1/2+x,1/2-y,1/2+z
loop_
_atom_site_type_symbol
_atom_site_label
_atom_site_fract_x
_atom_site_fract_y
_atom_site_fract_z
Si Si1 0.009889 0.327327 0.025911
Si Si2 0.633767 0.296832 0.468642
Si Si3 0.085329 0.128761 0.622958
Si Si4 0.297837 0.382293 0.813643
Si Si5 0.142822 0.630583 0.287739
Si Si6 0.901322 0.702281 0.743849
Si Si7 0.961457 0.953491 0.643043
O O1 0.063020 0.274176 0.974111
O O2 0.940492 0.224191 0.978342
O O3 0.046502 0.306240 0.142227
O O4 0.000000 0.500000 0.000000
O O5 0.685382 0.304401 0.580498
O O6 0.657965 0.207845 0.392381
O O7 0.607561 0.459689 0.424628
O O8 0.094251 0.257293 0.704435
O O9 0.158479 0.037713 0.659971
O O10 0.026243 0.999240 0.607628
O O11 0.214441 0.396778 0.766683
O O12 0.332263 0.284029 0.750274
O O13 0.110592 0.468044 0.289950
O O14 0.932029 0.804510 0.678655
O O15 0.000000 0.030785 0.750000
#
# Coordination Sequence:
#
# PCOD9290412 Si02
#       7
#     8   8   8   8   8   8   8
#     4  10  22  41  65  97 126 160 209 276 323 369
#     4  10  24  41  64  93 129 169 214 261 328 372
#     4  11  23  42  70  92 133 172 212 264 331 377
#     4  11  24  43  64  93 132 178 217 254 315 393
#     4  12  23  43  65  94 132 174 218 264 309 385
#     4  11  24  40  67 101 125 165 219 268 321 379
#     4  11  21  40  64  95 123 163 210 268 324 380
#
# _framework density 22.533932
#
# number of rings (size 3 to 8) (size 9 to 14) (size 15 to 20)
#    0.000    1.143    4.286    1.286    2.000    2.857 
#    0.000    0.714    0.000    0.000    0.000    0.000 
#    0.000    0.000    0.000    0.000    0.000    0.000 
#
# Total GULP energy -156314.684400 kJ/mol
# GULP energy per Si atom -5582.667300 kJ/mol
# Density = 2.248264 g / cm^3
# Si number density = 22.533932 Si / 1000 Ang^3
#
#
#
# Elastic Constant Matrix: (Units=GPa)
#
#
# Indices 1 2 3 4 5 6 
#
# 1 110.3668 61.0892 18.0595 0.0000 -8.7472 0.0000
# 2 61.0892 188.5837 30.1679 0.0000 -2.3101 0.0000
# 3 18.0595 30.1679 38.9997 0.0000 -12.7134 0.0000
# 4 0.0000 0.0000 0.0000 26.9494 0.0000 -7.9069
# 5 -8.7472 -2.3101 -12.7134 0.0000 27.1999 0.0000
# 6 0.0000 0.0000 0.0000 -7.9069 0.0000 32.0509
#
#
#
# Elastic Compliance Matrix: (Units=1/GPa)
#
#
# Indices 1 2 3 4 5 6 
#
# 1 0.011433 -0.003375 -0.001862 0.000000 0.002520 0.000000
# 2 -0.003375 0.007139 -0.004855 0.000000 -0.002748 0.000000
# 3 -0.001862 -0.004855 0.035310 0.000000 0.015493 0.000000
# 4 0.000000 0.000000 0.000000 0.040002 0.000000 0.009868
# 5 0.002520 -0.002748 0.015493 0.000000 0.044583 0.000000
# 6 0.000000 0.000000 0.000000 0.009868 0.000000 0.033635
#
#
# Mechanical properties :
#
#
# Convention : Reuss Voigt Hill
#
# Bulk Modulus (GPa) = 29.67646 61.84260 45.75953
# Shear Modulus (GPa) = 24.56763 32.48229 28.52496
#
# Velocity S-wave (km/s) = 3.30548 3.80081 3.56176
# Velocity P-wave (km/s) = 5.26939 6.83852 6.10458
#
# Compressibility (1/GPa) = 0.03369674
#
# Stress axis : x y z
#
# Youngs Moduli (GPa) = 87.46509 140.07600 28.32056
#
# Poissons Ratio (x) = 0.47273 0.05274
# Poissons Ratio (y) = 0.29518 0.13751
# Poissons Ratio (z) = 0.16289 0.68014
#
# Static dielectric constant tensor:
#      x y z
#    x 1.909940 0.000000 -0.045490 
#    y 0.000000 1.900960 0.000000 
#    z -0.045490 0.000000 1.972540 
# 
# From -- ./inp_files/214013.got.cif
#   From: 2010.05.17/outbox.cif.g08.bks.cpg/sg15_108_cif.got.tgz:214013.got - 2010.06.03 18:47:42.
