data_PCOD9290775
_publ_section_title
;
Structure prediction by ZEFSAII (Michael W. Deem and Ramdas Pophale) SiO2 
 PCOD9290775
Probable space group: C 2/C
;
_chemical_formula_sum "Si O2"
_cell_formula_units_Z 40
_cell_length_a 9.349258
_cell_length_b 11.338343
_cell_length_c 14.214295
_cell_angle_alpha 90.000000
_cell_angle_beta 87.969165
_cell_angle_gamma 90.000000
_cell_volume 1505.841265
_symmetry_space_group_name_H-M "C 2/C"
_symmetry_group_IT_number 15
_symmetry_cell_setting 'monoclinic'
loop_
_space_group_symop_operation_xyz
x,y,z
-x,y,1/2-z
-x,-y,-z
x,-y,1/2+z
1/2+x,1/2+y,z
1/2-x,1/2+y,1/2-z
1/2-x,1/2-y,-z
1/2+x,1/2-y,1/2+z
loop_
_atom_site_type_symbol
_atom_site_label
_atom_site_fract_x
_atom_site_fract_y
_atom_site_fract_z
Si Si1 0.159460 0.502399 0.596368
Si Si2 0.752809 0.638434 0.569708
Si Si3 0.511708 0.516478 0.362739
Si Si4 0.843747 0.238539 0.403947
Si Si5 0.656177 0.217273 0.230987
O O1 0.151144 0.455950 0.488956
O O2 0.328988 0.518860 0.613649
O O3 0.096489 0.630657 0.616306
O O4 0.120867 0.397666 0.668840
O O5 0.750000 0.750000 0.500000
O O6 0.602642 0.571488 0.589401
O O7 0.764772 0.697995 0.671665
O O8 0.500000 0.526138 0.250000
O O9 0.469639 0.644453 0.404239
O O10 0.750000 0.250000 0.500000
O O11 0.735413 0.192647 0.326069
O O12 0.500000 0.273625 0.250000
#
# Coordination Sequence:
#
# PCOD9290775 Si02
#       5
#     8   8   8   8   8
#     4  11  24  45  70 104 143 186 245 296 363 441
#     4  10  22  41  70 100 134 187 234 290 368 431
#     4  12  23  44  74 105 144 190 238 303 363 436
#     4  12  26  43  73 106 139 189 244 296 362 441
#     4  11  25  45  68  99 144 188 235 303 369 434
#
# _framework density 26.563224999999999
#
# number of rings (size 3 to 8) (size 9 to 14) (size 15 to 20)
#    0.000    0.800    4.000    3.600    2.800    0.800 
#    0.000    1.000    0.000    0.000    0.000    0.000 
#    0.000    0.000    0.000    0.000    0.000    0.000 
#
# Total GULP energy -112114.532731 kJ/mol
# GULP energy per Si atom -5605.726637 kJ/mol
# Density = 2.650277 g / cm^3
# Si number density = 26.563225 Si / 1000 Ang^3
#
#
#
# Elastic Constant Matrix: (Units=GPa)
#
#
# Indices 1 2 3 4 5 6 
#
# 1 95.8061 21.5204 28.2574 0.0000 -12.5031 0.0000
# 2 21.5204 178.5146 35.5738 0.0000 -23.7423 0.0000
# 3 28.2574 35.5738 169.8536 0.0000 -9.5725 0.0000
# 4 0.0000 0.0000 0.0000 36.3413 0.0000 -19.2393
# 5 -12.5031 -23.7423 -9.5725 0.0000 40.0718 0.0000
# 6 0.0000 0.0000 0.0000 -19.2393 0.0000 41.4336
#
#
#
# Elastic Compliance Matrix: (Units=1/GPa)
#
#
# Indices 1 2 3 4 5 6 
#
# 1 0.011427 -0.000690 -0.001600 0.000000 0.002774 0.000000
# 2 -0.000690 0.006327 -0.001025 0.000000 0.003288 0.000000
# 3 -0.001600 -0.001025 0.006392 0.000000 0.000420 0.000000
# 4 0.000000 0.000000 0.000000 0.036486 0.000000 0.016942
# 5 0.002774 0.003288 0.000420 0.000000 0.027870 0.000000
# 6 0.000000 0.000000 0.000000 0.016942 0.000000 0.032002
#
#
# Mechanical properties :
#
#
# Convention : Reuss Voigt Hill
#
# Bulk Modulus (GPa) = 57.09176 68.31972 62.70574
# Shear Modulus (GPa) = 37.60221 47.49086 42.54653
#
# Velocity S-wave (km/s) = 3.76649 4.23288 4.00648
# Velocity P-wave (km/s) = 6.36040 7.04735 6.71267
#
# Compressibility (1/GPa) = 0.01751566
#
# Stress axis : x y z
#
# Youngs Moduli (GPa) = 87.51436 158.06462 156.44575
#
# Poissons Ratio (x) = 0.10901 0.25034
# Poissons Ratio (y) = 0.06035 0.16035
# Poissons Ratio (z) = 0.14004 0.16201
#
# Static dielectric constant tensor:
#      x y z
#    x 2.061940 0.000000 0.038750 
#    y 0.000000 2.129200 0.000000 
#    z 0.038750 0.000000 2.111340 
# 
# From -- ./inp_files/141730.got.cif
#   From: 2010.05.17/outbox.cif.g08.bks.cpg/sg15_71_cif.got.tgz:141730.got - 2010.06.03 18:47:42.
