data_PCOD9290486
_publ_section_title
;
Structure prediction by ZEFSAII (Michael W. Deem and Ramdas Pophale) SiO2 
 PCOD9290486
Probable space group: C 2/C
;
_chemical_formula_sum "Si O2"
_cell_formula_units_Z 56
_cell_length_a 18.510642
_cell_length_b 15.601499
_cell_length_c 21.889315
_cell_angle_alpha 90.000000
_cell_angle_beta 155.979596
_cell_angle_gamma 90.000000
_cell_volume 2573.241133
_symmetry_space_group_name_H-M "C 2/C"
_symmetry_group_IT_number 15
_symmetry_cell_setting 'monoclinic'
loop_
_space_group_symop_operation_xyz
x,y,z
-x,y,1/2-z
-x,-y,-z
x,-y,1/2+z
1/2+x,1/2+y,z
1/2-x,1/2+y,1/2-z
1/2-x,1/2-y,-z
1/2+x,1/2-y,1/2+z
loop_
_atom_site_type_symbol
_atom_site_label
_atom_site_fract_x
_atom_site_fract_y
_atom_site_fract_z
Si Si1 0.079317 0.464070 0.873397
Si Si2 0.452967 0.778312 0.416582
Si Si3 0.450279 0.418762 0.875666
Si Si4 0.384944 0.328511 0.102028
Si Si5 0.706404 0.451514 0.618798
Si Si6 0.366248 0.955812 0.949322
Si Si7 0.944116 0.196729 0.886075
O O1 0.000000 0.510002 0.750000
O O2 0.897179 0.413977 0.749616
O O3 0.253270 0.409769 0.990298
O O4 0.115101 0.507372 0.967273
O O5 0.471055 0.684388 0.399345
O O6 0.583386 0.855683 0.504327
O O7 0.466927 0.765015 0.500551
O O8 0.257055 0.809344 0.249855
O O9 0.318786 0.451176 0.828166
O O10 0.339770 0.453532 0.732362
O O11 0.642067 0.459997 0.038496
O O12 0.500000 0.346301 0.250000
O O13 0.527923 0.294999 0.163387
O O14 0.250000 0.250000 0.000000
O O15 0.550542 0.389004 0.479487
O O16 0.500000 0.000000 0.000000
#
# Coordination Sequence:
#
# PCOD9290486 Si02
#       7
#     8   8   8   8   8   8   8
#     4  12  27  46  66  98 140 190 238 286 355 422
#     4  11  24  41  69 106 137 176 232 302 358 412
#     4  10  22  41  67 102 134 178 236 299 360 405
#     4  12  28  42  64  97 147 195 231 271 344 439
#     4  10  22  41  66  94 139 183 230 293 349 415
#     4  12  25  41  72 101 140 181 246 293 350 428
#     4  11  23  40  63  95 142 176 227 284 352 412
#
# _framework density 21.762436999999998
#
# number of rings (size 3 to 8) (size 9 to 14) (size 15 to 20)
#    0.000    0.857    4.286    2.143   14.000    0.000 
#    0.000    0.000    0.000    3.429    0.000    0.000 
#    0.000    0.000    0.000    0.000    0.000    0.000 
#
# Total GULP energy -155891.913789 kJ/mol
# GULP energy per Si atom -5567.568350 kJ/mol
# Density = 2.171290 g / cm^3
# Si number density = 21.762437 Si / 1000 Ang^3
#
#
#
# Elastic Constant Matrix: (Units=GPa)
#
#
# Indices 1 2 3 4 5 6 
#
# 1 69.0457 18.4681 15.6927 -0.0015 -25.7800 -0.0010
# 2 18.4681 82.5982 25.5341 -0.0061 -11.1931 -0.0078
# 3 15.6927 25.5341 93.2093 0.0011 -22.8730 -0.0047
# 4 -0.0015 -0.0061 0.0011 40.2874 -0.0059 -3.5214
# 5 -25.7800 -11.1931 -22.8730 -0.0059 44.6278 -0.0006
# 6 -0.0010 -0.0078 -0.0047 -3.5214 -0.0006 17.0938
#
#
#
# Elastic Compliance Matrix: (Units=1/GPa)
#
#
# Indices 1 2 3 4 5 6 
#
# 1 0.019104 -0.002905 0.000124 0.000002 0.010371 0.000001
# 2 -0.002905 0.013778 -0.003259 0.000003 0.000108 0.000006
# 3 0.000124 -0.003259 0.013060 0.000000 0.005948 0.000002
# 4 0.000002 0.000003 0.000000 0.025277 0.000005 0.005207
# 5 0.010371 0.000108 0.005948 0.000005 0.031474 0.000005
# 6 0.000001 0.000006 0.000002 0.005207 0.000005 0.059574
#
#
# Mechanical properties :
#
#
# Convention : Reuss Voigt Hill
#
# Bulk Modulus (GPa) = 29.53001 40.47144 35.00073
# Shear Modulus (GPa) = 26.93481 32.74568 29.84024
#
# Velocity S-wave (km/s) = 3.52188 3.88324 3.70696
# Velocity P-wave (km/s) = 5.48971 6.22442 5.86857
#
# Compressibility (1/GPa) = 0.03386385
#
# Stress axis : x y z
#
# Youngs Moduli (GPa) = 52.34483 72.57791 76.56943
#
# Poissons Ratio (x) = 0.21080 -0.00952
# Poissons Ratio (y) = 0.15204 0.24955
# Poissons Ratio (z) = -0.00651 0.23654
#
# Static dielectric constant tensor:
#      x y z
#    x 2.001030 -0.000020 -0.118160 
#    y -0.000020 1.868490 -0.000020 
#    z -0.118160 -0.000020 2.011620 
# 
# From -- ./inp_files/280440.got.cif
#   From: 2010.05.17/outbox.cif.g08.bks.cpg/sg15_141_cif.got.tgz:280440.got - 2010.06.03 18:47:42.
