data_PCOD9290443
_publ_section_title
;
Structure prediction by ZEFSAII (Michael W. Deem and Ramdas Pophale) SiO2 
 PCOD9290443
Probable space group: C 2/C
;
_chemical_formula_sum "Si O2"
_cell_formula_units_Z 32
_cell_length_a 9.239553
_cell_length_b 9.728793
_cell_length_c 24.855335
_cell_angle_alpha 90.000000
_cell_angle_beta 145.518846
_cell_angle_gamma 90.000000
_cell_volume 1264.880945
_symmetry_space_group_name_H-M "C 2/C"
_symmetry_group_IT_number 15
_symmetry_cell_setting 'monoclinic'
loop_
_space_group_symop_operation_xyz
x,y,z
-x,y,1/2-z
-x,-y,-z
x,-y,1/2+z
1/2+x,1/2+y,z
1/2-x,1/2+y,1/2-z
1/2-x,1/2-y,-z
1/2+x,1/2-y,1/2+z
loop_
_atom_site_type_symbol
_atom_site_label
_atom_site_fract_x
_atom_site_fract_y
_atom_site_fract_z
Si Si1 0.931847 0.640895 0.026225
Si Si2 0.440441 0.043198 0.324522
Si Si3 0.483411 0.739142 0.159862
Si Si4 0.762929 0.212744 0.640809
O O1 0.976923 0.532460 0.087651
O O2 0.198070 0.709871 0.090512
O O3 0.750000 0.750000 0.000000
O O4 0.796825 0.612869 0.927680
O O5 0.635359 0.144357 0.353852
O O6 0.175296 0.125270 0.241425
O O7 0.435230 0.892836 0.297577
O O8 0.539281 0.742955 0.112961
O O9 0.000000 0.160678 0.750000
#
# Coordination Sequence:
#
# PCOD9290443 Si02
#       4
#     8   8   8   8
#     4  10  22  41  66 102 140 178 225 281 344 410
#     4  10  24  42  67 100 135 179 228 281 341 407
#     4  11  23  43  69 100 137 181 228 281 342 407
#     4   9  21  41  63  96 136 175 221 279 341 402
#
# _framework density 25.298824
#
# number of rings (size 3 to 8) (size 9 to 14) (size 15 to 20)
#    0.000    2.000    0.000    1.500    0.000   17.000 
#    0.000   17.500    0.000    0.000    0.000    0.000 
#    0.000    0.000    0.000    0.000    0.000    0.000 
#
# Total GULP energy -89572.651796 kJ/mol
# GULP energy per Si atom -5598.290737 kJ/mol
# Density = 2.524124 g / cm^3
# Si number density = 25.298824 Si / 1000 Ang^3
#
#
#
# Elastic Constant Matrix: (Units=GPa)
#
#
# Indices 1 2 3 4 5 6 
#
# 1 190.3250 27.9601 47.2616 0.0000 11.5359 0.0000
# 2 27.9601 144.2919 46.4546 0.0000 6.3196 0.0000
# 3 47.2616 46.4546 110.8869 0.0000 -20.3508 0.0000
# 4 0.0000 0.0000 0.0000 20.0916 0.0000 -11.5229
# 5 11.5359 6.3196 -20.3508 0.0000 62.6669 0.0000
# 6 0.0000 0.0000 0.0000 -11.5229 0.0000 35.3855
#
#
#
# Elastic Compliance Matrix: (Units=1/GPa)
#
#
# Indices 1 2 3 4 5 6 
#
# 1 0.006128 -0.000155 -0.002925 0.000000 -0.002063 0.000000
# 2 -0.000155 0.008262 -0.003767 0.000000 -0.002028 0.000000
# 3 -0.002925 -0.003767 0.012773 0.000000 0.005066 0.000000
# 4 0.000000 0.000000 0.000000 0.061202 0.000000 0.019930
# 5 -0.002063 -0.002028 0.005066 0.000000 0.018187 0.000000
# 6 0.000000 0.000000 0.000000 0.019930 0.000000 0.034750
#
#
# Mechanical properties :
#
#
# Convention : Reuss Voigt Hill
#
# Bulk Modulus (GPa) = 74.25262 76.53958 75.39610
# Shear Modulus (GPa) = 31.35024 45.21732 38.28378
#
# Velocity S-wave (km/s) = 3.52404 4.23227 3.89429
# Velocity P-wave (km/s) = 6.78030 7.36225 7.07726
#
# Compressibility (1/GPa) = 0.01346754
#
# Stress axis : x y z
#
# Youngs Moduli (GPa) = 163.17303 121.03305 78.28894
#
# Poissons Ratio (x) = 0.01880 0.22903
# Poissons Ratio (y) = 0.02535 0.29494
# Poissons Ratio (z) = 0.47736 0.45597
#
# Static dielectric constant tensor:
#      x y z
#    x 1.991640 0.000000 -0.031510 
#    y 0.000000 1.979400 0.000000 
#    z -0.031510 0.000000 2.068610 
# 
# From -- ./inp_files/262941.got.cif
#   From: 2010.05.17/outbox.cif.g08.bks.cpg/sg15_132_cif.got.tgz:262941.got - 2010.06.03 18:47:42.
