data_PCOD9290745
_publ_section_title
;
Structure prediction by ZEFSAII (Michael W. Deem and Ramdas Pophale) SiO2 
 PCOD9290745
Probable space group: C 2/C
;
_chemical_formula_sum "Si O2"
_cell_formula_units_Z 48
_cell_length_a 21.311892
_cell_length_b 5.191813
_cell_length_c 29.617480
_cell_angle_alpha 90.000000
_cell_angle_beta 141.686313
_cell_angle_gamma 90.000000
_cell_volume 2031.689630
_symmetry_space_group_name_H-M "C 2/C"
_symmetry_group_IT_number 15
_symmetry_cell_setting 'monoclinic'
loop_
_space_group_symop_operation_xyz
x,y,z
-x,y,1/2-z
-x,-y,-z
x,-y,1/2+z
1/2+x,1/2+y,z
1/2-x,1/2+y,1/2-z
1/2-x,1/2-y,-z
1/2+x,1/2-y,1/2+z
loop_
_atom_site_type_symbol
_atom_site_label
_atom_site_fract_x
_atom_site_fract_y
_atom_site_fract_z
Si Si1 0.408715 0.954187 0.163600
Si Si2 0.441981 0.122131 0.425243
Si Si3 0.162704 0.987466 0.423572
Si Si4 0.192892 0.527448 0.227251
Si Si5 0.154768 0.747725 0.512795
Si Si6 0.243880 0.046490 0.640603
O O1 0.500000 0.984513 0.250000
O O2 0.410648 0.725228 0.128549
O O3 0.317954 0.849294 0.144329
O O4 0.384293 0.226564 0.125817
O O5 0.534521 0.248403 0.450350
O O6 0.351912 0.290136 0.396492
O O7 0.500000 0.000000 0.500000
O O8 0.389878 0.950425 0.356763
O O9 0.173911 0.950687 0.483421
O O10 0.277627 0.986450 0.468366
O O11 0.217072 0.827716 0.233072
O O12 0.184009 0.503268 0.275778
O O13 0.197335 0.805672 0.586983
#
# Coordination Sequence:
#
# PCOD9290745 Si02
#       6
#     8   8   8   8   8   8
#     4  11  24  44  68  95 134 174 224 271 329 394
#     4  11  22  39  68 102 132 177 221 275 331 396
#     4  10  24  44  66  99 129 177 221 274 326 388
#     4  10  23  43  63  95 137 173 213 268 332 394
#     4  10  22  41  69  96 135 173 222 275 327 397
#     4  10  23  43  65  99 134 175 216 278 330 394
#
# _framework density 23.625655999999999
#
# number of rings (size 3 to 8) (size 9 to 14) (size 15 to 20)
#    0.000    1.667    0.000    3.000    2.333   12.667 
#   12.000    0.000    0.000    0.000    0.000    0.000 
#    0.000    0.000    0.000    0.000    0.000    0.000 
#
# Total GULP energy -133717.656972 kJ/mol
# GULP energy per Si atom -5571.569041 kJ/mol
# Density = 2.357188 g / cm^3
# Si number density = 23.625656 Si / 1000 Ang^3
#
#
#
# Elastic Constant Matrix: (Units=GPa)
#
#
# Indices 1 2 3 4 5 6 
#
# 1 88.5711 18.7092 32.4822 0.0018 -12.1090 0.0007
# 2 18.7092 81.8001 39.4414 0.0025 -6.4032 0.0009
# 3 32.4822 39.4414 164.3705 -0.0012 -33.3004 -0.0021
# 4 0.0018 0.0025 -0.0012 39.2658 0.0014 -8.0632
# 5 -12.1090 -6.4032 -33.3004 0.0014 50.9297 0.0003
# 6 0.0007 0.0009 -0.0021 -8.0632 0.0003 7.0190
#
#
#
# Elastic Compliance Matrix: (Units=1/GPa)
#
#
# Indices 1 2 3 4 5 6 
#
# 1 0.012539 -0.001928 -0.001683 -0.000001 0.001638 -0.000003
# 2 -0.001928 0.014132 -0.003162 -0.000002 -0.000749 -0.000005
# 3 -0.001683 -0.003162 0.008084 0.000001 0.004488 0.000004
# 4 -0.000001 -0.000002 0.000001 0.033330 -0.000001 0.038288
# 5 0.001638 -0.000749 0.004488 -0.000001 0.022865 -0.000001
# 6 -0.000003 -0.000005 0.000004 0.038288 -0.000001 0.186455
#
#
# Mechanical properties :
#
#
# Convention : Reuss Voigt Hill
#
# Bulk Modulus (GPa) = 47.14984 57.33413 52.24198
# Shear Modulus (GPa) = 16.77736 35.71682 26.24709
#
# Velocity S-wave (km/s) = 2.66772 3.89238 3.33672
# Velocity P-wave (km/s) = 5.43041 6.67243 6.08320
#
# Compressibility (1/GPa) = 0.02120898
#
# Stress axis : x y z
#
# Youngs Moduli (GPa) = 79.75162 70.76272 123.69445
#
# Poissons Ratio (x) = 0.13643 0.20823
# Poissons Ratio (y) = 0.15376 0.39108
# Poissons Ratio (z) = 0.13425 0.22373
#
# Static dielectric constant tensor:
#      x y z
#    x 1.972370 -0.000010 0.028380 
#    y -0.000010 1.960720 0.000000 
#    z 0.028380 0.000000 1.957870 
# 
# From -- ./inp_files/317101.got.cif
#   From: 2010.05.17/outbox.cif.g08.bks.cpg/sg15_159_cif.got.tgz:317101.got - 2010.06.03 18:47:42.
