data_PCOD9290964
_publ_section_title
;
Structure prediction by ZEFSAII (Michael W. Deem and Ramdas Pophale) SiO2 
 PCOD9290964
Probable space group: C 2/C
;
_chemical_formula_sum "Si O2"
_cell_formula_units_Z 40
_cell_length_a 12.206600
_cell_length_b 18.643854
_cell_length_c 14.110616
_cell_angle_alpha 90.000000
_cell_angle_beta 148.693004
_cell_angle_gamma 90.000000
_cell_volume 1668.649466
_symmetry_space_group_name_H-M "C 2/C"
_symmetry_group_IT_number 15
_symmetry_cell_setting 'monoclinic'
loop_
_space_group_symop_operation_xyz
x,y,z
-x,y,1/2-z
-x,-y,-z
x,-y,1/2+z
1/2+x,1/2+y,z
1/2-x,1/2+y,1/2-z
1/2-x,1/2-y,-z
1/2+x,1/2-y,1/2+z
loop_
_atom_site_type_symbol
_atom_site_label
_atom_site_fract_x
_atom_site_fract_y
_atom_site_fract_z
Si Si1 0.365212 0.335774 0.342331
Si Si2 0.479680 0.963581 0.629670
Si Si3 0.011357 0.144729 0.147645
Si Si4 0.524338 0.815708 0.580813
Si Si5 0.858607 0.987694 0.272804
O O1 0.355912 0.328507 0.449614
O O2 0.495119 0.266686 0.403317
O O3 0.459632 0.412552 0.379935
O O4 0.139583 0.332268 0.124619
O O5 0.500000 0.990959 0.750000
O O6 0.492838 0.877349 0.634340
O O7 0.261770 0.980958 0.415927
O O8 0.669515 0.996020 0.707519
O O9 0.239597 0.172053 0.282166
O O10 0.000000 0.163292 0.250000
O O11 0.004414 0.058689 0.130900
#
# Coordination Sequence:
#
# PCOD9290964 Si02
#       5
#     8   8   8   8   8
#     4  11  21  42  64  83 131 160 198 261 301 359
#     4   9  19  39  66  90 124 162 202 252 309 364
#     4  11  24  40  62  93 121 160 211 250 308 367
#     4  10  22  42  62  89 122 165 201 248 312 358
#     4   9  21  39  61  93 123 160 203 253 309 356
#
# _framework density 23.971481000000001
#
# number of rings (size 3 to 8) (size 9 to 14) (size 15 to 20)
#    0.000    2.000    2.000    1.800    2.800    1.600 
#    0.000    5.000    0.000    0.000    0.000    0.000 
#    0.000    0.000    0.000    0.000    0.000    0.000 
#
# Total GULP energy -111863.441066 kJ/mol
# GULP energy per Si atom -5593.172053 kJ/mol
# Density = 2.391692 g / cm^3
# Si number density = 23.971481 Si / 1000 Ang^3
#
#
#
# Elastic Constant Matrix: (Units=GPa)
#
#
# Indices 1 2 3 4 5 6 
#
# 1 40.4034 -13.7213 33.5780 -0.0001 -25.2774 -0.0001
# 2 -13.7213 136.2405 3.0689 0.0001 2.5408 0.0000
# 3 33.5780 3.0689 126.7574 -0.0004 -32.3942 -0.0003
# 4 -0.0001 0.0001 -0.0004 31.8621 -0.0002 -3.2281
# 5 -25.2774 2.5408 -32.3942 -0.0002 32.5884 -0.0001
# 6 -0.0001 0.0000 -0.0003 -3.2281 -0.0001 11.9281
#
#
#
# Elastic Compliance Matrix: (Units=1/GPa)
#
#
# Indices 1 2 3 4 5 6 
#
# 1 0.052811 0.004767 -0.005002 0.000000 0.035619 0.000001
# 2 0.004767 0.007799 -0.000888 0.000000 0.002207 0.000000
# 3 -0.005002 -0.000888 0.011075 0.000000 0.007199 0.000000
# 4 0.000000 0.000000 0.000000 0.032270 0.000001 0.008733
# 5 0.035619 0.002207 0.007199 0.000001 0.065298 0.000001
# 6 0.000001 0.000000 0.000000 0.008733 0.000001 0.086199
#
#
# Mechanical properties :
#
#
# Convention : Reuss Voigt Hill
#
# Bulk Modulus (GPa) = 14.40093 38.80583 26.60338
# Shear Modulus (GPa) = 17.80352 33.97409 25.88881
#
# Velocity S-wave (km/s) = 2.72820 3.76875 3.28988
# Velocity P-wave (km/s) = 3.99308 5.92971 5.05500
#
# Compressibility (1/GPa) = 0.06943998
#
# Stress axis : x y z
#
# Youngs Moduli (GPa) = 18.93556 128.22313 90.29096
#
# Poissons Ratio (x) = -0.61126 0.45165
# Poissons Ratio (y) = -0.09027 0.08013
# Poissons Ratio (z) = 0.09472 0.11380
#
# Static dielectric constant tensor:
#      x y z
#    x 1.898840 0.000000 0.000340 
#    y 0.000000 1.965970 0.000000 
#    z 0.000340 0.000000 1.893750 
# 
# From -- ./inp_files/40546.got.cif
#   From: 2010.05.17/outbox.cif.g08.bks.cpg/sg15_21_cif.got.tgz:40546.got - 2010.06.03 18:47:42.
