data_PCOD9290862
_publ_section_title
;
Structure prediction by ZEFSAII (Michael W. Deem and Ramdas Pophale) SiO2 
 PCOD9290862
Probable space group: C 2/C
;
_chemical_formula_sum "Si O2"
_cell_formula_units_Z 36
_cell_length_a 33.334187
_cell_length_b 7.966993
_cell_length_c 23.423090
_cell_angle_alpha 90.000000
_cell_angle_beta 14.334460
_cell_angle_gamma 90.000000
_cell_volume 1540.093753
_symmetry_space_group_name_H-M "C 2/C"
_symmetry_group_IT_number 15
_symmetry_cell_setting 'monoclinic'
loop_
_space_group_symop_operation_xyz
x,y,z
-x,y,1/2-z
-x,-y,-z
x,-y,1/2+z
1/2+x,1/2+y,z
1/2-x,1/2+y,1/2-z
1/2-x,1/2-y,-z
1/2+x,1/2-y,1/2+z
loop_
_atom_site_type_symbol
_atom_site_label
_atom_site_fract_x
_atom_site_fract_y
_atom_site_fract_z
Si Si1 0.400138 0.980399 0.490570
Si Si2 0.202232 0.690205 0.254561
Si Si3 0.000000 0.737124 0.750000
Si Si4 0.154658 0.716462 0.197896
Si Si5 0.946040 0.957994 0.248294
O O1 0.373210 0.861684 0.581846
O O2 0.405401 0.882276 0.423973
O O3 0.262032 0.119837 0.677422
O O4 0.558826 0.088097 0.288871
O O5 0.099123 0.682931 0.338803
O O6 0.362447 0.576187 0.021660
O O7 0.084853 0.864983 0.678262
O O8 0.119094 0.903557 0.224294
O O9 0.342941 0.671028 0.930016
#
# Coordination Sequence:
#
# PCOD9290862 Si02
#       5
#     8   8   4   8   8
#     4  11  27  41  71  96 136 175 223 268 340 378
#     4  11  22  47  65  99 133 176 217 281 322 393
#     4  12  24  44  62 102 136 174 214 274 324 404
#     4  10  22  42  74  97 126 178 223 270 326 400
#     4  10  22  41  72  93 135 169 217 268 335 378
#
# _framework density 23.375201000000001
#
# number of rings (size 3 to 8) (size 9 to 14) (size 15 to 20)
#    0.000    1.333    2.222    2.000    9.333    0.889 
#    0.000    5.556    0.000    0.000    0.000    0.000 
#    0.000    0.000    0.000    0.000    0.000    0.000 
#
# Total GULP energy -100422.801216 kJ/mol
# GULP energy per Si atom -5579.044512 kJ/mol
# Density = 2.332200 g / cm^3
# Si number density = 23.375201 Si / 1000 Ang^3
#
#
#
# Elastic Constant Matrix: (Units=GPa)
#
#
# Indices 1 2 3 4 5 6 
#
# 1 109.3721 58.9655 39.2501 0.0001 39.9952 0.0002
# 2 58.9655 133.7640 30.4253 0.0000 25.4486 -0.0002
# 3 39.2501 30.4253 43.2544 -0.0002 23.4048 -0.0003
# 4 0.0001 0.0000 -0.0002 33.4352 -0.0002 18.2931
# 5 39.9952 25.4486 23.4048 -0.0002 46.8505 0.0000
# 6 0.0002 -0.0002 -0.0003 18.2931 0.0000 54.7907
#
#
#
# Elastic Compliance Matrix: (Units=1/GPa)
#
#
# Indices 1 2 3 4 5 6 
#
# 1 0.017508 -0.004206 -0.008329 0.000000 -0.008501 0.000000
# 2 -0.004206 0.010101 -0.003101 0.000000 -0.000347 0.000000
# 3 -0.008329 -0.003101 0.038509 0.000000 -0.010443 0.000000
# 4 0.000000 0.000000 0.000000 0.036593 0.000000 -0.012217
# 5 -0.008501 -0.000347 -0.010443 0.000000 0.034007 0.000000
# 6 0.000000 0.000000 0.000000 -0.012217 0.000000 0.022330
#
#
# Mechanical properties :
#
#
# Convention : Reuss Voigt Hill
#
# Bulk Modulus (GPa) = 28.69725 60.40803 44.55264
# Shear Modulus (GPa) = 24.76029 37.53192 31.14610
#
# Velocity S-wave (km/s) = 3.25815 4.01138 3.65422
# Velocity P-wave (km/s) = 5.14369 6.88141 6.07500
#
# Compressibility (1/GPa) = 0.03484655
#
# Stress axis : x y z
#
# Youngs Moduli (GPa) = 57.11534 98.99676 25.96813
#
# Poissons Ratio (x) = 0.41640 0.21629
# Poissons Ratio (y) = 0.24024 0.08052
# Poissons Ratio (z) = 0.47572 0.30695
#
# Static dielectric constant tensor:
#      x y z
#    x 1.939520 0.000000 -0.028470 
#    y 0.000000 1.901780 0.000000 
#    z -0.028470 0.000000 1.908900 
# 
# From -- ./inp_files/102435.got.cif
#   From: 2010.05.17/outbox.cif.g08.bks.cpg/sg15_52_cif.got.tgz:102435.got - 2010.06.03 18:47:42.
