data_PCOD9290109
_publ_section_title
;
Structure prediction by ZEFSAII (Michael W. Deem and Ramdas Pophale) SiO2 
 PCOD9290109
Probable space group: C 2/C
;
_chemical_formula_sum "Si O2"
_cell_formula_units_Z 32
_cell_length_a 10.708610
_cell_length_b 24.435835
_cell_length_c 5.556177
_cell_angle_alpha 90.000000
_cell_angle_beta 115.538543
_cell_angle_gamma 90.000000
_cell_volume 1311.852894
_symmetry_space_group_name_H-M "C 2/C"
_symmetry_group_IT_number 15
_symmetry_cell_setting 'monoclinic'
loop_
_space_group_symop_operation_xyz
x,y,z
-x,y,1/2-z
-x,-y,-z
x,-y,1/2+z
1/2+x,1/2+y,z
1/2-x,1/2+y,1/2-z
1/2-x,1/2-y,-z
1/2+x,1/2-y,1/2+z
loop_
_atom_site_type_symbol
_atom_site_label
_atom_site_fract_x
_atom_site_fract_y
_atom_site_fract_z
Si Si1 0.839146 0.478805 0.338109
Si Si2 0.127945 0.737691 0.714264
Si Si3 0.342177 0.867162 0.545626
Si Si4 0.428105 0.361641 0.938611
O O1 0.777572 0.498183 0.541682
O O2 0.825615 0.413458 0.330124
O O3 0.000000 0.500000 0.500000
O O4 0.180071 0.694177 0.565314
O O5 0.070690 0.795096 0.569215
O O6 0.000000 0.710566 0.750000
O O7 0.250000 0.750000 0.000000
O O8 0.500000 0.872183 0.750000
O O9 0.232573 0.877323 0.665995
O O10 0.500000 0.379979 0.750000
O O11 0.500000 0.378653 0.250000
#
# Coordination Sequence:
#
# PCOD9290109 Si02
#       4
#     8   8   8   8
#     4  10  22  41  62 102 140 163 218 305 354 386
#     4  11  23  39  64 102 142 180 232 282 337 422
#     4  12  23  39  74 102 131 188 240 287 351 406
#     4  11  25  46  62  94 144 184 220 278 341 423
#
# _framework density 24.392977999999999
#
# number of rings (size 3 to 8) (size 9 to 14) (size 15 to 20)
#    0.000    1.000    2.500    6.000    3.500    4.000 
#    0.000    0.000    0.000    4.500    0.000    0.000 
#    0.000    0.000    0.000    0.000    0.000    0.000 
#
# Total GULP energy -89532.710948 kJ/mol
# GULP energy per Si atom -5595.794434 kJ/mol
# Density = 2.433746 g / cm^3
# Si number density = 24.392978 Si / 1000 Ang^3
#
#
#
# Elastic Constant Matrix: (Units=GPa)
#
#
# Indices 1 2 3 4 5 6 
#
# 1 188.5397 7.8378 66.6871 0.0000 -14.6175 0.0000
# 2 7.8378 53.5787 -8.5798 0.0000 -7.9471 0.0000
# 3 66.6871 -8.5798 143.4099 0.0000 -18.2595 0.0000
# 4 0.0000 0.0000 0.0000 23.5413 0.0000 -13.5354
# 5 -14.6175 -7.9471 -18.2595 0.0000 36.5170 0.0000
# 6 0.0000 0.0000 0.0000 -13.5354 0.0000 14.7873
#
#
#
# Elastic Compliance Matrix: (Units=1/GPa)
#
#
# Indices 1 2 3 4 5 6 
#
# 1 0.006478 -0.001305 -0.002986 0.000000 0.000816 0.000000
# 2 -0.001305 0.019996 0.002446 0.000000 0.005053 0.000000
# 3 -0.002986 0.002446 0.008996 0.000000 0.003835 0.000000
# 4 0.000000 0.000000 0.000000 0.089671 0.000000 0.082079
# 5 0.000816 0.005053 0.003835 0.000000 0.030729 0.000000
# 6 0.000000 0.000000 0.000000 0.082079 0.000000 0.142755
#
#
# Mechanical properties :
#
#
# Convention : Reuss Voigt Hill
#
# Bulk Modulus (GPa) = 31.46561 57.49093 44.47827
# Shear Modulus (GPa) = 15.97911 36.27466 26.12688
#
# Velocity S-wave (km/s) = 2.56221 3.86047 3.27629
# Velocity P-wave (km/s) = 4.65625 6.59475 5.70839
#
# Compressibility (1/GPa) = 0.03178073
#
# Stress axis : x y z
#
# Youngs Moduli (GPa) = 154.37542 50.00942 111.15516
#
# Poissons Ratio (x) = 0.06525 0.33195
# Poissons Ratio (y) = 0.20143 -0.27193
# Poissons Ratio (z) = 0.46103 -0.12234
#
# Static dielectric constant tensor:
#      x y z
#    x 1.974230 0.000000 -0.017910 
#    y 0.000000 7.526490 0.000000 
#    z -0.017910 0.000000 2.059220 
# 
# From -- ./inp_files/4769.got.cif
#   From: 2010.05.17/outbox.cif.g08.bks.cpg/sg15_3_cif.got.tgz:4769.got - 2010.06.03 18:47:42.
