data_PCOD9290238
_publ_section_title
;
Structure prediction by ZEFSAII (Michael W. Deem and Ramdas Pophale) SiO2 
 PCOD9290238
Probable space group: C 2/C
;
_chemical_formula_sum "Si O2"
_cell_formula_units_Z 40
_cell_length_a 25.806325
_cell_length_b 8.562486
_cell_length_c 15.190769
_cell_angle_alpha 90.000000
_cell_angle_beta 140.825397
_cell_angle_gamma 90.000000
_cell_volume 2120.346647
_symmetry_space_group_name_H-M "C 2/C"
_symmetry_group_IT_number 15
_symmetry_cell_setting 'monoclinic'
loop_
_space_group_symop_operation_xyz
x,y,z
-x,y,1/2-z
-x,-y,-z
x,-y,1/2+z
1/2+x,1/2+y,z
1/2-x,1/2+y,1/2-z
1/2-x,1/2-y,-z
1/2+x,1/2-y,1/2+z
loop_
_atom_site_type_symbol
_atom_site_label
_atom_site_fract_x
_atom_site_fract_y
_atom_site_fract_z
Si Si1 0.779623 0.419294 0.636771
Si Si2 0.671563 0.565903 0.826085
Si Si3 0.142548 0.909447 0.606542
Si Si4 0.930511 0.629065 0.891722
Si Si5 0.490851 0.606731 0.340468
O O1 0.737037 0.467919 0.488951
O O2 0.821233 0.249823 0.681812
O O3 0.709460 0.401636 0.618273
O O4 0.847707 0.542641 0.754093
O O5 0.683014 0.468239 0.751339
O O6 0.581802 0.518760 0.742102
O O7 0.035995 0.742651 0.640161
O O8 0.073716 0.035208 0.489247
O O9 0.904123 0.746176 0.935923
O O10 0.000000 0.500000 0.000000
O O11 0.500000 0.640998 0.250000
#
# Coordination Sequence:
#
# PCOD9290238 Si02
#       5
#     8   8   8   8   8
#     4  11  22  41  63  96 123 159 207 256 302 367
#     4  10  22  41  64  90 127 161 203 251 310 362
#     4  11  22  41  68  89 125 166 202 250 312 367
#     4  11  24  42  63  94 125 160 207 258 304 367
#     4  11  22  43  63  90 125 169 202 249 310 370
#
# _framework density 18.864839
#
# number of rings (size 3 to 8) (size 9 to 14) (size 15 to 20)
#    0.000    1.200    2.000    6.000    0.000    3.200 
#   14.400    0.000    0.000    0.000    0.000    0.000 
#    0.000    0.000    0.000    0.000    0.000    0.000 
#
# Total GULP energy -111775.936280 kJ/mol
# GULP energy per Si atom -5588.796814 kJ/mol
# Density = 1.882190 g / cm^3
# Si number density = 18.864839 Si / 1000 Ang^3
#
#
#
# Elastic Constant Matrix: (Units=GPa)
#
#
# Indices 1 2 3 4 5 6 
#
# 1 117.5571 78.8631 58.6961 0.0000 9.0204 0.0000
# 2 78.8631 107.7121 68.3770 0.0000 10.4624 0.0000
# 3 58.6961 68.3770 91.0610 0.0000 0.2134 0.0000
# 4 0.0000 0.0000 0.0000 41.7376 0.0000 8.7908
# 5 9.0204 10.4624 0.2134 0.0000 26.4742 0.0000
# 6 0.0000 0.0000 0.0000 8.7908 0.0000 7.7403
#
#
#
# Elastic Compliance Matrix: (Units=1/GPa)
#
#
# Indices 1 2 3 4 5 6 
#
# 1 0.017243 -0.010319 -0.003362 0.000000 -0.001770 0.000000
# 2 -0.010319 0.025273 -0.012312 0.000000 -0.006373 0.000000
# 3 -0.003362 -0.012312 0.022380 0.000000 0.005831 0.000000
# 4 0.000000 0.000000 0.000000 0.031492 0.000000 -0.035766
# 5 -0.001770 -0.006373 0.005831 0.000000 0.040847 0.000000
# 6 0.000000 0.000000 0.000000 -0.035766 0.000000 0.169814
#
#
# Mechanical properties :
#
#
# Convention : Reuss Voigt Hill
#
# Bulk Modulus (GPa) = 77.44921 80.91141 79.18031
# Shear Modulus (GPa) = 13.76124 22.55002 18.15563
#
# Velocity S-wave (km/s) = 2.70379 3.46113 3.10563
# Velocity P-wave (km/s) = 7.13381 7.67826 7.41104
#
# Compressibility (1/GPa) = 0.01291169
#
# Stress axis : x y z
#
# Youngs Moduli (GPa) = 57.99314 39.56721 44.68266
#
# Poissons Ratio (x) = 0.40828 0.15025
# Poissons Ratio (y) = 0.59840 0.55011
# Poissons Ratio (z) = 0.19500 0.48714
#
# Static dielectric constant tensor:
#      x y z
#    x 1.631880 0.000000 -0.014320 
#    y 0.000000 1.639280 0.000000 
#    z -0.014320 0.000000 1.649340 
# 
# From -- ./inp_files/172148.got.cif
#   From: 2010.05.17/outbox.cif.g08.bks.cpg/sg15_87_cif.got.tgz:172148.got - 2010.06.03 18:47:42.
