data_PCOD9290800
_publ_section_title
;
Structure prediction by ZEFSAII (Michael W. Deem and Ramdas Pophale) SiO2 
 PCOD9290800
Probable space group: C 2/C
;
_chemical_formula_sum "Si O2"
_cell_formula_units_Z 48
_cell_length_a 14.530910
_cell_length_b 15.269663
_cell_length_c 28.773055
_cell_angle_alpha 90.000000
_cell_angle_beta 160.359088
_cell_angle_gamma 90.000000
_cell_volume 2145.892541
_symmetry_space_group_name_H-M "C 2/C"
_symmetry_group_IT_number 15
_symmetry_cell_setting 'monoclinic'
loop_
_space_group_symop_operation_xyz
x,y,z
-x,y,1/2-z
-x,-y,-z
x,-y,1/2+z
1/2+x,1/2+y,z
1/2-x,1/2+y,1/2-z
1/2-x,1/2-y,-z
1/2+x,1/2-y,1/2+z
loop_
_atom_site_type_symbol
_atom_site_label
_atom_site_fract_x
_atom_site_fract_y
_atom_site_fract_z
Si Si1 0.577088 0.255060 0.156780
Si Si2 0.810261 0.460800 0.095391
Si Si3 0.953659 0.103321 0.783647
Si Si4 0.584963 0.978649 0.488149
Si Si5 0.633764 0.597551 0.610406
Si Si6 0.886910 0.841384 0.582026
O O1 0.627159 0.309580 0.227960
O O2 0.654114 0.312704 0.148043
O O3 0.789613 0.175165 0.258932
O O4 0.250000 0.250000 0.000000
O O5 0.708134 0.404419 0.091483
O O6 0.135845 0.463999 0.256101
O O7 0.663397 0.554181 0.027103
O O8 0.705265 0.410894 0.000530
O O9 0.000000 0.115078 0.750000
O O10 0.703743 0.036841 0.673509
O O11 0.221568 0.059175 0.933414
O O12 0.500000 0.000000 0.500000
O O13 0.753459 0.887567 0.563782
O O14 0.750000 0.750000 0.500000
#
# Coordination Sequence:
#
# PCOD9290800 Si02
#       6
#     8   8   8   8   8   8
#     4  12  27  41  61  97 137 173 226 284 345 407
#     4  10  22  41  70  91 128 169 221 270 337 400
#     4  10  22  42  65  93 130 175 231 279 340 425
#     4  10  22  42  67  96 128 177 228 273 339 417
#     4  10  22  43  64  97 124 171 226 272 326 414
#     4  12  23  43  67  94 135 180 217 285 349 396
#
# _framework density 22.368314999999999
#
# number of rings (size 3 to 8) (size 9 to 14) (size 15 to 20)
#    0.000    1.333    3.333    1.000    4.667    1.333 
#    0.000    0.000    0.000    0.000    0.000    0.000 
#    0.000    0.000    0.000    0.000    0.000    0.000 
#
# Total GULP energy -133992.236695 kJ/mol
# GULP energy per Si atom -5583.009862 kJ/mol
# Density = 2.231740 g / cm^3
# Si number density = 22.368315 Si / 1000 Ang^3
#
#
#
# Elastic Constant Matrix: (Units=GPa)
#
#
# Indices 1 2 3 4 5 6 
#
# 1 94.8234 30.5088 23.4305 0.0006 -5.7059 -0.0016
# 2 30.5088 38.6717 -2.6723 0.0008 2.9780 0.0038
# 3 23.4305 -2.6723 122.0075 -0.0041 15.0736 0.0076
# 4 0.0006 0.0008 -0.0041 39.1516 0.0041 12.0935
# 5 -5.7059 2.9780 15.0736 0.0041 29.5595 -0.0027
# 6 -0.0016 0.0038 0.0076 12.0935 -0.0027 27.6001
#
#
#
# Elastic Compliance Matrix: (Units=1/GPa)
#
#
# Indices 1 2 3 4 5 6 
#
# 1 0.016454 -0.013798 -0.004297 -0.000003 0.006757 0.000006
# 2 -0.013798 0.037736 0.004562 0.000004 -0.008792 -0.000010
# 3 -0.004297 0.004562 0.009905 0.000003 -0.006340 -0.000006
# 4 -0.000003 0.000004 0.000003 0.029540 -0.000008 -0.012943
# 5 0.006757 -0.008792 -0.006340 -0.000008 0.039253 0.000011
# 6 0.000006 -0.000010 -0.000006 -0.012943 0.000011 0.041903
#
#
# Mechanical properties :
#
#
# Convention : Reuss Voigt Hill
#
# Bulk Modulus (GPa) = 27.00495 39.78184 33.39340
# Shear Modulus (GPa) = 23.34281 32.87794 28.11038
#
# Velocity S-wave (km/s) = 3.23393 3.83801 3.54885
# Velocity P-wave (km/s) = 5.10328 6.12078 5.63505
#
# Compressibility (1/GPa) = 0.03703024
#
# Stress axis : x y z
#
# Youngs Moduli (GPa) = 60.77683 26.49959 100.96340
#
# Poissons Ratio (x) = 0.36564 0.43382
# Poissons Ratio (y) = 0.83859 -0.46065
# Poissons Ratio (z) = 0.26115 -0.12090
#
# Static dielectric constant tensor:
#      x y z
#    x 1.881310 0.000000 0.035440 
#    y 0.000000 1.808920 -0.000020 
#    z 0.035440 -0.000020 1.866940 
# 
# From -- ./inp_files/314155.got.cif
#   From: 2010.05.17/outbox.cif.g08.bks.cpg/sg15_158_cif.got.tgz:314155.got - 2010.06.03 18:47:42.
