data_PCOD9290329
_publ_section_title
;
Structure prediction by ZEFSAII (Michael W. Deem and Ramdas Pophale) SiO2 
 PCOD9290329
Probable space group: C 2/C
;
_chemical_formula_sum "Si O2"
_cell_formula_units_Z 44
_cell_length_a 9.610363
_cell_length_b 10.847627
_cell_length_c 22.672291
_cell_angle_alpha 90.000000
_cell_angle_beta 50.981490
_cell_angle_gamma 90.000000
_cell_volume 1836.364481
_symmetry_space_group_name_H-M "C 2/C"
_symmetry_group_IT_number 15
_symmetry_cell_setting 'monoclinic'
loop_
_space_group_symop_operation_xyz
x,y,z
-x,y,1/2-z
-x,-y,-z
x,-y,1/2+z
1/2+x,1/2+y,z
1/2-x,1/2+y,1/2-z
1/2-x,1/2-y,-z
1/2+x,1/2-y,1/2+z
loop_
_atom_site_type_symbol
_atom_site_label
_atom_site_fract_x
_atom_site_fract_y
_atom_site_fract_z
Si Si1 0.717514 0.332914 0.791378
Si Si2 0.127871 0.961129 0.613490
Si Si3 0.500000 0.366471 0.250000
Si Si4 0.276316 0.014387 0.383428
Si Si5 0.051924 0.854879 0.031878
Si Si6 0.075038 0.388553 0.880209
O O1 0.503467 0.343141 0.854801
O O2 0.824625 0.217065 0.788561
O O3 0.792321 0.447254 0.811023
O O4 0.780133 0.343046 0.706870
O O5 0.133010 0.038031 0.552146
O O6 0.024590 0.050013 0.686620
O O7 0.318322 0.936503 0.591852
O O8 0.153743 0.125643 0.443603
O O9 0.453630 0.017490 0.375145
O O10 0.155658 0.893680 0.420895
O O11 0.048127 0.724179 0.064573
#
# Coordination Sequence:
#
# PCOD9290329 Si02
#       6
#     8   8   4   8   8   8
#     4  11  21  39  62  92 119 159 203 254 304 362
#     4  11  24  39  61  93 125 151 210 255 301 370
#     4  12  20  38  62  86 120 158 192 254 312 348
#     4  10  22  41  65  89 127 166 205 246 306 375
#     4  10  23  43  62  90 127 167 201 252 306 361
#     4  12  21  39  65  91 121 160 206 255 304 359
#
# _framework density 23.960386
#
# number of rings (size 3 to 8) (size 9 to 14) (size 15 to 20)
#    0.000    1.091    5.455    0.545    0.000    2.182 
#    0.000   10.000    0.000    0.000    0.000    0.000 
#    0.000    0.000    0.000    0.000    0.000    0.000 
#
# Total GULP energy -123031.404063 kJ/mol
# GULP energy per Si atom -5592.336548 kJ/mol
# Density = 2.390585 g / cm^3
# Si number density = 23.960386 Si / 1000 Ang^3
#
#
#
# Elastic Constant Matrix: (Units=GPa)
#
#
# Indices 1 2 3 4 5 6 
#
# 1 152.9231 25.1812 0.6932 0.0000 8.3889 0.0000
# 2 25.1812 46.1344 4.5947 0.0000 -2.8815 0.0000
# 3 0.6932 4.5947 77.5122 0.0000 10.7238 0.0000
# 4 0.0000 0.0000 0.0000 21.1272 0.0000 -1.3362
# 5 8.3889 -2.8815 10.7238 0.0000 27.1523 0.0000
# 6 0.0000 0.0000 0.0000 -1.3362 0.0000 37.4046
#
#
#
# Elastic Compliance Matrix: (Units=1/GPa)
#
#
# Indices 1 2 3 4 5 6 
#
# 1 0.007406 -0.004288 0.000600 0.000000 -0.002980 0.000000
# 2 -0.004288 0.024519 -0.002072 0.000000 0.004745 0.000000
# 3 0.000600 -0.002072 0.013830 0.000000 -0.005868 0.000000
# 4 0.000000 0.000000 0.000000 0.047440 0.000000 0.001695
# 5 -0.002980 0.004745 -0.005868 0.000000 0.040571 0.000000
# 6 0.000000 0.000000 0.000000 0.001695 0.000000 0.026795
#
#
# Mechanical properties :
#
#
# Convention : Reuss Voigt Hill
#
# Bulk Modulus (GPa) = 29.20861 37.50086 33.35473
# Shear Modulus (GPa) = 27.24897 33.54351 30.39624
#
# Velocity S-wave (km/s) = 3.37597 3.74566 3.56561
# Velocity P-wave (km/s) = 5.23575 5.86445 5.55900
#
# Compressibility (1/GPa) = 0.03423648
#
# Stress axis : x y z
#
# Youngs Moduli (GPa) = 135.02282 40.78436 72.30439
#
# Poissons Ratio (x) = 0.17490 -0.04340
# Poissons Ratio (y) = 0.57903 0.14978
# Poissons Ratio (z) = -0.08106 0.08449
#
# Static dielectric constant tensor:
#      x y z
#    x 1.975570 0.000000 -0.052710 
#    y 0.000000 1.878210 0.000000 
#    z -0.052710 0.000000 1.905950 
# 
# From -- ./inp_files/230294.got.cif
#   From: 2010.05.17/outbox.cif.g08.bks.cpg/sg15_116_cif.got.tgz:230294.got - 2010.06.03 18:47:42.
