data_PCOD9290441
_publ_section_title
;
Structure prediction by ZEFSAII (Michael W. Deem and Ramdas Pophale) SiO2 
 PCOD9290441
Probable space group: C 2/C
;
_chemical_formula_sum "Si O2"
_cell_formula_units_Z 32
_cell_length_a 5.171935
_cell_length_b 23.118376
_cell_length_c 16.318474
_cell_angle_alpha 90.000000
_cell_angle_beta 44.731207
_cell_angle_gamma 90.000000
_cell_volume 1373.181435
_symmetry_space_group_name_H-M "C 2/C"
_symmetry_group_IT_number 15
_symmetry_cell_setting 'monoclinic'
loop_
_space_group_symop_operation_xyz
x,y,z
-x,y,1/2-z
-x,-y,-z
x,-y,1/2+z
1/2+x,1/2+y,z
1/2-x,1/2+y,1/2-z
1/2-x,1/2-y,-z
1/2+x,1/2-y,1/2+z
loop_
_atom_site_type_symbol
_atom_site_label
_atom_site_fract_x
_atom_site_fract_y
_atom_site_fract_z
Si Si1 0.473485 0.431398 0.503112
Si Si2 0.295214 0.614605 0.379464
Si Si3 0.133726 0.215392 0.378807
Si Si4 0.351692 0.823586 0.374210
O O1 0.500000 0.500000 0.500000
O O2 0.476310 0.412185 0.597092
O O3 0.813605 0.392740 0.391902
O O4 0.110471 0.411663 0.535870
O O5 0.500000 0.601808 0.250000
O O6 0.326542 0.682945 0.392016
O O7 0.500000 0.195671 0.250000
O O8 0.033525 0.196912 0.494267
O O9 0.113829 0.284218 0.371949
O O10 0.500000 0.810349 0.250000
#
# Coordination Sequence:
#
# PCOD9290441 Si02
#       4
#     8   8   8   8
#     4  11  25  44  64  97 138 181 232 288 343 407
#     4  11  22  41  70  95 126 176 231 282 341 414
#     4  10  22  41  66 101 140 179 228 289 355 422
#     4  10  23  39  65 100 138 182 229 287 351 415
#
# _framework density 23.303547999999999
#
# number of rings (size 3 to 8) (size 9 to 14) (size 15 to 20)
#    0.000    1.500    0.000    5.250    0.000   10.000 
#    0.000    1.250    0.000    0.000    0.000    0.000 
#    0.000    0.000    0.000    0.000    0.000    0.000 
#
# Total GULP energy -89068.084387 kJ/mol
# GULP energy per Si atom -5566.755274 kJ/mol
# Density = 2.325051 g / cm^3
# Si number density = 23.303548 Si / 1000 Ang^3
#
#
#
# Elastic Constant Matrix: (Units=GPa)
#
#
# Indices 1 2 3 4 5 6 
#
# 1 79.5517 27.8836 36.9416 0.0000 -5.8689 0.0000
# 2 27.8836 142.7940 44.0656 0.0000 -14.9113 0.0000
# 3 36.9416 44.0656 193.8139 0.0000 34.9509 0.0000
# 4 0.0000 0.0000 0.0000 20.2988 0.0000 0.1013
# 5 -5.8689 -14.9113 34.9509 0.0000 45.6518 0.0000
# 6 0.0000 0.0000 0.0000 0.1013 0.0000 23.2663
#
#
#
# Elastic Compliance Matrix: (Units=1/GPa)
#
#
# Indices 1 2 3 4 5 6 
#
# 1 0.014865 -0.001518 -0.003183 0.000000 0.003852 0.000000
# 2 -0.001518 0.008523 -0.002454 0.000000 0.004468 0.000000
# 3 -0.003183 -0.002454 0.007590 0.000000 -0.007022 0.000000
# 4 0.000000 0.000000 0.000000 0.049265 0.000000 -0.000214
# 5 0.003852 0.004468 -0.007022 0.000000 0.029235 0.000000
# 6 0.000000 0.000000 0.000000 -0.000214 0.000000 0.042982
#
#
# Mechanical properties :
#
#
# Convention : Reuss Voigt Hill
#
# Bulk Modulus (GPa) = 59.99368 70.43789 65.21578
# Shear Modulus (GPa) = 29.01460 38.32799 33.67129
#
# Velocity S-wave (km/s) = 3.53239 4.05992 3.80531
# Velocity P-wave (km/s) = 6.51439 7.22974 6.88137
#
# Compressibility (1/GPa) = 0.01666842
#
# Stress axis : x y z
#
# Youngs Moduli (GPa) = 67.27350 117.32306 131.74364
#
# Poissons Ratio (x) = 0.17813 0.41929
# Poissons Ratio (y) = 0.10214 0.32332
# Poissons Ratio (z) = 0.21411 0.28793
#
# Static dielectric constant tensor:
#      x y z
#    x 1.924330 0.000000 -0.041710 
#    y 0.000000 2.021430 0.000000 
#    z -0.041710 0.000000 1.926070 
# 
# From -- ./inp_files/185140.got.cif
#   From: 2010.05.17/outbox.cif.g08.bks.cpg/sg15_93_cif.got.tgz:185140.got - 2010.06.03 18:47:42.
