data_PCOD9290529
_publ_section_title
;
Structure prediction by ZEFSAII (Michael W. Deem and Ramdas Pophale) SiO2 
 PCOD9290529
Probable space group: C 2/C
;
_chemical_formula_sum "Si O2"
_cell_formula_units_Z 56
_cell_length_a 20.343346
_cell_length_b 11.578095
_cell_length_c 10.917984
_cell_angle_alpha 90.000000
_cell_angle_beta 67.982465
_cell_angle_gamma 90.000000
_cell_volume 2384.043000
_symmetry_space_group_name_H-M "C 2/C"
_symmetry_group_IT_number 15
_symmetry_cell_setting 'monoclinic'
loop_
_space_group_symop_operation_xyz
x,y,z
-x,y,1/2-z
-x,-y,-z
x,-y,1/2+z
1/2+x,1/2+y,z
1/2-x,1/2+y,1/2-z
1/2-x,1/2-y,-z
1/2+x,1/2-y,1/2+z
loop_
_atom_site_type_symbol
_atom_site_label
_atom_site_fract_x
_atom_site_fract_y
_atom_site_fract_z
Si Si1 0.563613 0.366953 0.287850
Si Si2 0.544154 0.184184 0.504484
Si Si3 0.830754 0.789242 0.922465
Si Si4 0.554903 0.017558 0.809961
Si Si5 0.830126 0.231828 0.987961
Si Si6 0.170088 0.016679 0.892048
Si Si7 0.318497 0.867477 0.222871
O O1 0.500000 0.415962 0.250000
O O2 0.530312 0.282008 0.413885
O O3 0.608407 0.456696 0.337374
O O4 0.615819 0.292335 0.162147
O O5 0.610967 0.220095 0.539324
O O6 0.478531 0.141822 0.630845
O O7 0.560632 0.068784 0.418175
O O8 0.833705 0.754005 0.779952
O O9 0.750000 0.750000 0.000000
O O10 0.840233 0.916229 0.970657
O O11 0.500000 0.968523 0.750000
O O12 0.635931 0.044027 0.725766
O O13 0.844243 0.342361 0.066571
O O14 0.827252 0.114692 0.069500
O O15 0.750000 0.250000 0.000000
O O16 0.239561 0.080084 0.785060
#
# Coordination Sequence:
#
# PCOD9290529 Si02
#       7
#     8   8   8   8   8   8   8
#     4  11  24  48  71 101 145 189 235 295 345 422
#     4  10  22  41  66  99 143 180 232 282 355 415
#     4   9  20  40  64  93 132 182 224 280 346 416
#     4  11  22  38  65 106 138 183 227 284 358 423
#     4  12  27  45  72 108 136 182 245 293 350 421
#     4  10  25  44  70 100 135 188 230 284 357 409
#     4  11  23  40  67  98 139 175 226 293 343 420
#
# _framework density 23.489511
#
# number of rings (size 3 to 8) (size 9 to 14) (size 15 to 20)
#    0.000    1.429    2.857    1.286    4.000    4.000 
#    0.000    0.714    0.000    0.000    0.000    0.000 
#    0.000    0.000    0.000    0.000    0.000    0.000 
#
# Total GULP energy -156207.670984 kJ/mol
# GULP energy per Si atom -5578.845392 kJ/mol
# Density = 2.343605 g / cm^3
# Si number density = 23.489511 Si / 1000 Ang^3
#
#
#
# Elastic Constant Matrix: (Units=GPa)
#
#
# Indices 1 2 3 4 5 6 
#
# 1 131.3967 19.5209 -8.2135 0.0000 21.5751 0.0000
# 2 19.5209 60.8100 -4.6293 0.0000 6.2348 0.0000
# 3 -8.2135 -4.6293 43.5255 0.0000 6.1859 0.0000
# 4 0.0000 0.0000 0.0000 30.1976 0.0000 6.4428
# 5 21.5751 6.2348 6.1859 0.0000 22.1786 0.0000
# 6 0.0000 0.0000 0.0000 6.4428 0.0000 8.0769
#
#
#
# Elastic Compliance Matrix: (Units=1/GPa)
#
#
# Indices 1 2 3 4 5 6 
#
# 1 0.009674 -0.001880 0.003007 0.000000 -0.009721 0.000000
# 2 -0.001880 0.017581 0.002038 0.000000 -0.003682 0.000000
# 3 0.003007 0.002038 0.025258 0.000000 -0.010543 0.000000
# 4 0.000000 0.000000 0.000000 0.039907 0.000000 -0.031833
# 5 -0.009721 -0.003682 -0.010543 0.000000 0.058521 0.000000
# 6 0.000000 0.000000 0.000000 -0.031833 0.000000 0.149202
#
#
# Mechanical properties :
#
#
# Convention : Reuss Voigt Hill
#
# Bulk Modulus (GPa) = 16.99410 27.67648 22.33529
# Shear Modulus (GPa) = 15.95277 27.36089 21.65683
#
# Velocity S-wave (km/s) = 2.60887 3.41664 3.03970
# Velocity P-wave (km/s) = 4.04047 5.23188 4.67429
#
# Compressibility (1/GPa) = 0.05884396
#
# Stress axis : x y z
#
# Youngs Moduli (GPa) = 103.37026 56.88010 39.59183
#
# Poissons Ratio (x) = 0.10693 -0.11906
# Poissons Ratio (y) = 0.19432 -0.08071
# Poissons Ratio (z) = -0.31085 -0.11595
#
# Static dielectric constant tensor:
#      x y z
#    x 1.933100 0.000000 -0.087450 
#    y 0.000000 1.858820 0.000000 
#    z -0.087450 0.000000 2.039590 
# 
# From -- ./inp_files/110991.got.cif
#   From: 2010.05.17/outbox.cif.g08.bks.cpg/sg15_56_cif.got.tgz:110991.got - 2010.06.03 18:47:42.
