data_PCOD9290802
_publ_section_title
;
Structure prediction by ZEFSAII (Michael W. Deem and Ramdas Pophale) SiO2 
 PCOD9290802
Probable space group: C 2/C
;
_chemical_formula_sum "Si O2"
_cell_formula_units_Z 44
_cell_length_a 5.291887
_cell_length_b 30.147329
_cell_length_c 12.017470
_cell_angle_alpha 90.000000
_cell_angle_beta 80.571181
_cell_angle_gamma 90.000000
_cell_volume 1891.320309
_symmetry_space_group_name_H-M "C 2/C"
_symmetry_group_IT_number 15
_symmetry_cell_setting 'monoclinic'
loop_
_space_group_symop_operation_xyz
x,y,z
-x,y,1/2-z
-x,-y,-z
x,-y,1/2+z
1/2+x,1/2+y,z
1/2-x,1/2+y,1/2-z
1/2-x,1/2-y,-z
1/2+x,1/2-y,1/2+z
loop_
_atom_site_type_symbol
_atom_site_label
_atom_site_fract_x
_atom_site_fract_y
_atom_site_fract_z
Si Si1 0.856450 0.208806 0.062084
Si Si2 0.768352 0.158039 0.622211
Si Si3 0.390851 0.549079 0.988750
Si Si4 0.500000 0.153186 0.250000
Si Si5 0.500000 0.764712 0.250000
Si Si6 0.373480 0.898812 0.554985
Si Si7 0.500000 0.416131 0.250000
O O1 0.656351 0.183462 0.153877
O O2 0.028504 0.233233 0.141942
O O3 0.750000 0.250000 0.000000
O O4 0.000551 0.174891 0.971856
O O5 0.718167 0.199152 0.708116
O O6 0.569108 0.139723 0.542693
O O7 0.811253 0.116718 0.699280
O O8 0.378864 0.555488 0.856457
O O9 0.500000 0.500000 0.000000
O O10 0.611799 0.579269 0.029509
O O11 0.110924 0.566639 0.046872
O O12 0.664547 0.122853 0.321577
#
# Coordination Sequence:
#
# PCOD9290802 Si02
#       7
#     8   8   8   4   4   8   4
#     4  12  24  39  61  96 135 183 240 299 350 405
#     4  11  22  41  64  96 136 183 240 287 345 433
#     4  11  25  46  71 106 137 169 223 283 346 429
#     4  12  24  43  66  93 140 188 234 291 350 415
#     4  12  22  36  60  90 132 180 228 296 352 390
#     4  11  25  44  70 100 135 181 227 277 348 424
#     4  10  22  41  70  93 132 178 214 271 346 407
#
# _framework density 23.264173
#
# number of rings (size 3 to 8) (size 9 to 14) (size 15 to 20)
#    0.000    0.727    0.000    8.727    0.000    5.818 
#    0.000    0.000    0.000    0.000    0.000    0.000 
#    0.000    0.000    0.000    0.000    0.000    0.000 
#
# Total GULP energy -122851.478913 kJ/mol
# GULP energy per Si atom -5584.158132 kJ/mol
# Density = 2.321122 g / cm^3
# Si number density = 23.264173 Si / 1000 Ang^3
#
#
#
# Elastic Constant Matrix: (Units=GPa)
#
#
# Indices 1 2 3 4 5 6 
#
# 1 88.9389 37.9903 35.5469 0.0000 -0.9408 0.0000
# 2 37.9903 120.9700 53.8320 0.0000 0.2428 0.0000
# 3 35.5469 53.8320 154.0022 0.0000 3.4736 0.0000
# 4 0.0000 0.0000 0.0000 38.3214 0.0000 4.4739
# 5 -0.9408 0.2428 3.4736 0.0000 47.0094 0.0000
# 6 0.0000 0.0000 0.0000 4.4739 0.0000 35.1752
#
#
#
# Elastic Compliance Matrix: (Units=1/GPa)
#
#
# Indices 1 2 3 4 5 6 
#
# 1 0.013461 -0.003365 -0.001941 0.000000 0.000430 0.000000
# 2 -0.003365 0.010632 -0.002942 0.000000 0.000095 0.000000
# 3 -0.001941 -0.002942 0.007984 0.000000 -0.000614 0.000000
# 4 0.000000 0.000000 0.000000 0.026488 0.000000 -0.003369
# 5 0.000430 0.000095 -0.000614 0.000000 0.021326 0.000000
# 6 0.000000 0.000000 0.000000 -0.003369 0.000000 0.028858
#
#
# Mechanical properties :
#
#
# Convention : Reuss Voigt Hill
#
# Bulk Modulus (GPa) = 64.17608 68.73885 66.45747
# Shear Modulus (GPa) = 38.33253 39.87066 39.10159
#
# Velocity S-wave (km/s) = 4.06360 4.14432 4.10416
# Velocity P-wave (km/s) = 7.04718 7.24650 7.14754
#
# Compressibility (1/GPa) = 0.01558213
#
# Stress axis : x y z
#
# Youngs Moduli (GPa) = 74.28820 94.05383 125.25682
#
# Poissons Ratio (x) = 0.31646 0.24308
# Poissons Ratio (y) = 0.24996 0.36851
# Poissons Ratio (z) = 0.14417 0.27671
#
# Static dielectric constant tensor:
#      x y z
#    x 1.951510 0.000000 0.035320 
#    y 0.000000 1.915350 0.000000 
#    z 0.035320 0.000000 1.857210 
# 
# From -- ./inp_files/73937.got.cif
#   From: 2010.05.17/outbox.cif.g08.bks.cpg/sg15_37_cif.got.tgz:73937.got - 2010.06.03 18:47:42.
