data_PCOD9290792
_publ_section_title
;
Structure prediction by ZEFSAII (Michael W. Deem and Ramdas Pophale) SiO2 
 PCOD9290792
Probable space group: C 2/C
;
_chemical_formula_sum "Si O2"
_cell_formula_units_Z 40
_cell_length_a 30.562385
_cell_length_b 8.357127
_cell_length_c 14.266614
_cell_angle_alpha 90.000000
_cell_angle_beta 150.239618
_cell_angle_gamma 90.000000
_cell_volume 1808.731146
_symmetry_space_group_name_H-M "C 2/C"
_symmetry_group_IT_number 15
_symmetry_cell_setting 'monoclinic'
loop_
_space_group_symop_operation_xyz
x,y,z
-x,y,1/2-z
-x,-y,-z
x,-y,1/2+z
1/2+x,1/2+y,z
1/2-x,1/2+y,1/2-z
1/2-x,1/2-y,-z
1/2+x,1/2-y,1/2+z
loop_
_atom_site_type_symbol
_atom_site_label
_atom_site_fract_x
_atom_site_fract_y
_atom_site_fract_z
Si Si1 0.706618 0.229868 0.063562
Si Si2 0.853884 0.761504 0.207978
Si Si3 0.369477 0.894166 0.264116
Si Si4 0.350883 0.469084 0.383816
Si Si5 0.496329 0.729603 0.646700
O O1 0.777430 0.342997 0.141830
O O2 0.664415 0.333408 0.067468
O O3 0.764001 0.081237 0.210668
O O4 0.639331 0.166744 0.859252
O O5 0.881390 0.583113 0.287554
O O6 0.869397 0.887600 0.318404
O O7 0.907642 0.808735 0.215178
O O8 0.750000 0.750000 0.000000
O O9 0.444644 0.812413 0.465408
O O10 0.433744 0.581880 0.557249
O O11 0.500000 0.829727 0.750000
#
# Coordination Sequence:
#
# PCOD9290792 Si02
#       5
#     8   8   8   8   8
#     4  10  22  41  70 107 135 189 227 293 345 420
#     4  12  25  44  74 106 140 186 235 292 353 417
#     4  10  23  44  72 100 145 179 238 283 354 414
#     4  11  24  42  70 104 145 181 241 283 358 417
#     4  11  28  46  68 102 145 188 236 292 350 419
#
# _framework density 22.11495
#
# number of rings (size 3 to 8) (size 9 to 14) (size 15 to 20)
#    0.000    1.200    2.000    2.400    8.400    3.200 
#    0.000    1.000    0.000    0.000    0.000    0.000 
#    0.000    0.000    0.000    0.000    0.000    0.000 
#
# Total GULP energy -111921.810393 kJ/mol
# GULP energy per Si atom -5596.090520 kJ/mol
# Density = 2.206461 g / cm^3
# Si number density = 22.114950 Si / 1000 Ang^3
#
#
#
# Elastic Constant Matrix: (Units=GPa)
#
#
# Indices 1 2 3 4 5 6 
#
# 1 125.1521 33.9036 53.5041 0.0000 3.7348 0.0000
# 2 33.9036 98.4902 24.5956 0.0000 -5.4248 0.0000
# 3 53.5041 24.5956 125.1803 0.0000 -10.1017 0.0000
# 4 0.0000 0.0000 0.0000 -12.1567 0.0000 -11.6195
# 5 3.7348 -5.4248 -10.1017 0.0000 31.1411 0.0000
# 6 0.0000 0.0000 0.0000 -11.6195 0.0000 41.6549
#
#
#
# Elastic Compliance Matrix: (Units=1/GPa)
#
#
# Indices 1 2 3 4 5 6 
#
# 1 0.010660 -0.002778 -0.004264 0.000000 -0.003146 0.000000
# 2 -0.002778 0.011446 -0.000897 0.000000 0.002036 0.000000
# 3 -0.004264 -0.000897 0.010285 0.000000 0.003691 0.000000
# 4 0.000000 0.000000 0.000000 -0.064944 0.000000 -0.018116
# 5 -0.003146 0.002036 0.003691 0.000000 0.034041 0.000000
# 6 0.000000 0.000000 0.000000 -0.018116 0.000000 0.018953
#
#
# Mechanical properties :
#
#
# Convention : Reuss Voigt Hill
#
# Bulk Modulus (GPa) = 60.56165 63.64770 62.10467
# Shear Modulus (GPa) = 119.54861 27.91582 73.73222
#
# Velocity S-wave (km/s) = 7.36038 3.55675 5.78038
# Velocity P-wave (km/s) = 9.98389 6.76093 8.52608
#
# Compressibility (1/GPa) = 0.01651210
#
# Stress axis : x y z
#
# Youngs Moduli (GPa) = 93.81187 87.36892 97.22663
#
# Poissons Ratio (x) = 0.24269 0.41459
# Poissons Ratio (y) = 0.26059 0.08724
# Poissons Ratio (z) = 0.40003 0.07840
#
# Static dielectric constant tensor:
#      x y z
#    x 1.765060 0.000000 -0.058510 
#    y 0.000000 1.632210 0.000000 
#    z -0.058510 0.000000 1.899410 
# 
# From -- ./inp_files/181288.got.cif
#   From: 2010.05.17/outbox.cif.g08.bks.cpg/sg15_91_cif.got.tgz:181288.got - 2010.06.03 18:47:42.
