data_PCOD9290678
_publ_section_title
;
Structure prediction by ZEFSAII (Michael W. Deem and Ramdas Pophale) SiO2 
 PCOD9290678
Probable space group: C 2/C
;
_chemical_formula_sum "Si O2"
_cell_formula_units_Z 48
_cell_length_a 14.488254
_cell_length_b 29.363537
_cell_length_c 8.641670
_cell_angle_alpha 90.000000
_cell_angle_beta 142.272746
_cell_angle_gamma 90.000000
_cell_volume 2249.597994
_symmetry_space_group_name_H-M "C 2/C"
_symmetry_group_IT_number 15
_symmetry_cell_setting 'monoclinic'
loop_
_space_group_symop_operation_xyz
x,y,z
-x,y,1/2-z
-x,-y,-z
x,-y,1/2+z
1/2+x,1/2+y,z
1/2-x,1/2+y,1/2-z
1/2-x,1/2-y,-z
1/2+x,1/2-y,1/2+z
loop_
_atom_site_type_symbol
_atom_site_label
_atom_site_fract_x
_atom_site_fract_y
_atom_site_fract_z
Si Si1 0.524225 0.593505 0.506792
Si Si2 0.936934 0.659636 0.422628
Si Si3 0.353852 0.747024 0.985610
Si Si4 0.000000 0.030717 0.750000
Si Si5 0.000000 0.414912 0.250000
Si Si6 0.789957 0.052088 0.988639
Si Si7 0.739984 0.830773 0.132853
O O1 0.457300 0.564672 0.557952
O O2 0.664659 0.563564 0.626229
O O3 0.605336 0.640496 0.651928
O O4 0.386418 0.591610 0.204117
O O5 0.908430 0.705062 0.485887
O O6 0.919502 0.617618 0.516717
O O7 0.106228 0.655230 0.575569
O O8 0.827846 0.663127 0.128721
O O9 0.278815 0.719550 0.745583
O O10 0.500000 0.722055 0.250000
O O11 0.250000 0.750000 0.000000
O O12 0.867674 0.996237 0.623986
O O13 0.878754 0.444482 0.181108
#
# Coordination Sequence:
#
# PCOD9290678 Si02
#       7
#     8   8   8   4   4   8   8
#     4  10  22  43  69  95 131 176 227 282 336 403
#     4  11  24  44  64  98 146 171 224 283 337 397
#     4  12  24  44  70  96 135 179 222 277 331 407
#     4  10  22  46  66  99 134 174 231 294 338 398
#     4  12  22  42  68 103 138 190 221 280 352 398
#     4  10  22  41  68  96 134 176 226 275 337 415
#     4  11  24  43  67 100 133 180 225 279 338 399
#
# _framework density 21.337146000000001
#
# number of rings (size 3 to 8) (size 9 to 14) (size 15 to 20)
#    0.000    1.333    4.167    2.500    4.667    0.000 
#    0.000    5.000    0.000    0.000    0.000    0.000 
#    0.000    0.000    0.000    0.000    0.000    0.000 
#
# Total GULP energy -133825.472654 kJ/mol
# GULP energy per Si atom -5576.061361 kJ/mol
# Density = 2.128858 g / cm^3
# Si number density = 21.337146 Si / 1000 Ang^3
#
#
#
# Elastic Constant Matrix: (Units=GPa)
#
#
# Indices 1 2 3 4 5 6 
#
# 1 81.2345 20.7473 34.3476 0.0000 0.3365 0.0000
# 2 20.7473 65.0374 17.6184 0.0000 -0.0442 0.0000
# 3 34.3476 17.6184 58.9031 0.0000 -4.1527 0.0000
# 4 0.0000 0.0000 0.0000 24.6254 0.0000 20.0094
# 5 0.3365 -0.0442 -4.1527 0.0000 37.5180 0.0000
# 6 0.0000 0.0000 0.0000 20.0094 0.0000 46.5243
#
#
#
# Elastic Compliance Matrix: (Units=1/GPa)
#
#
# Indices 1 2 3 4 5 6 
#
# 1 0.016893 -0.002937 -0.009054 0.000000 -0.001157 0.000000
# 2 -0.002937 0.017253 -0.003472 0.000000 -0.000338 0.000000
# 3 -0.009054 -0.003472 0.023484 0.000000 0.002676 0.000000
# 4 0.000000 0.000000 0.000000 0.062423 0.000000 -0.026847
# 5 -0.001157 -0.000338 0.002676 0.000000 0.026960 0.000000
# 6 0.000000 0.000000 0.000000 -0.026847 0.000000 0.033041
#
#
# Mechanical properties :
#
#
# Convention : Reuss Voigt Hill
#
# Bulk Modulus (GPa) = 37.44675 38.95574 38.20125
# Shear Modulus (GPa) = 22.73966 30.56432 26.65199
#
# Velocity S-wave (km/s) = 3.26810 3.78887 3.53808
# Velocity P-wave (km/s) = 5.64169 6.11863 5.88500
#
# Compressibility (1/GPa) = 0.02670459
#
# Stress axis : x y z
#
# Youngs Moduli (GPa) = 59.19579 57.96114 42.58305
#
# Poissons Ratio (x) = 0.17024 0.38554
# Poissons Ratio (y) = 0.17387 0.14783
# Poissons Ratio (z) = 0.53594 0.20122
#
# Static dielectric constant tensor:
#      x y z
#    x 1.841200 0.000000 -0.024250 
#    y 0.000000 1.765560 0.000000 
#    z -0.024250 0.000000 1.844260 
# 
# From -- ./inp_files/44000.got.cif
#   From: 2010.05.17/outbox.cif.g08.bks.cpg/sg15_22_cif.got.tgz:44000.got - 2010.06.03 18:47:42.
