data_PCOD9290220
_publ_section_title
;
Structure prediction by ZEFSAII (Michael W. Deem and Ramdas Pophale) SiO2 
 PCOD9290220
Probable space group: C 2/C
;
_chemical_formula_sum "Si O2"
_cell_formula_units_Z 44
_cell_length_a 18.458081
_cell_length_b 6.040779
_cell_length_c 15.328354
_cell_angle_alpha 90.000000
_cell_angle_beta 87.223451
_cell_angle_gamma 90.000000
_cell_volume 1707.123246
_symmetry_space_group_name_H-M "C 2/C"
_symmetry_group_IT_number 15
_symmetry_cell_setting 'monoclinic'
loop_
_space_group_symop_operation_xyz
x,y,z
-x,y,1/2-z
-x,-y,-z
x,-y,1/2+z
1/2+x,1/2+y,z
1/2-x,1/2+y,1/2-z
1/2-x,1/2-y,-z
1/2+x,1/2-y,1/2+z
loop_
_atom_site_type_symbol
_atom_site_label
_atom_site_fract_x
_atom_site_fract_y
_atom_site_fract_z
Si Si1 0.148480 0.122414 0.338680
Si Si2 0.924095 0.915855 0.471146
Si Si3 0.331212 0.808901 0.470185
Si Si4 0.416780 0.943474 0.837874
Si Si5 0.500000 0.300773 0.750000
Si Si6 0.844660 0.376851 0.663788
O O1 0.121358 0.144972 0.439929
O O2 0.186222 0.366514 0.321780
O O3 0.075331 0.102442 0.283313
O O4 0.186804 0.879092 0.326594
O O5 0.946430 0.747475 0.395386
O O6 0.870230 0.092827 0.431410
O O7 0.000000 0.000000 0.500000
O O8 0.250000 0.750000 0.500000
O O9 0.368373 0.871188 0.560679
O O10 0.344263 0.990725 0.395858
O O11 0.400903 0.881359 0.739924
O O12 0.472093 0.145477 0.830502
#
# Coordination Sequence:
#
# PCOD9290220 Si02
#       6
#     8   8   8   8   4   8
#     4  10  22  41  64 102 145 186 240 301 375 445
#     4  11  25  41  75 103 148 194 248 316 389 455
#     4  11  26  52  72 108 151 209 259 319 386 469
#     4  11  25  45  71 110 151 199 255 318 389 458
#     4  10  24  38  70 106 150 192 250 314 388 456
#     4  10  24  45  70 104 145 191 252 312 370 455
#
# _framework density 25.774356000000001
#
# number of rings (size 3 to 8) (size 9 to 14) (size 15 to 20)
#    0.000    1.455    1.818    1.091   17.818    2.909 
#    3.273    0.000    0.000    0.000    0.000    0.000 
#    0.000    0.000    0.000    0.000    0.000    0.000 
#
# Total GULP energy -122522.353136 kJ/mol
# GULP energy per Si atom -5569.197870 kJ/mol
# Density = 2.571569 g / cm^3
# Si number density = 25.774356 Si / 1000 Ang^3
#
#
#
# Elastic Constant Matrix: (Units=GPa)
#
#
# Indices 1 2 3 4 5 6 
#
# 1 61.9471 22.5176 32.3572 0.0000 -12.8984 0.0000
# 2 22.5176 177.0109 16.5085 0.0000 -6.9278 0.0000
# 3 32.3572 16.5085 124.7926 0.0000 2.4121 0.0000
# 4 0.0000 0.0000 0.0000 41.4010 0.0000 25.7617
# 5 -12.8984 -6.9278 2.4121 0.0000 38.7646 0.0000
# 6 0.0000 0.0000 0.0000 25.7617 0.0000 -27.4001
#
#
#
# Elastic Compliance Matrix: (Units=1/GPa)
#
#
# Indices 1 2 3 4 5 6 
#
# 1 0.021092 -0.001910 -0.005352 0.000000 0.007010 0.000000
# 2 -0.001910 0.005938 -0.000299 0.000000 0.000444 0.000000
# 3 -0.005352 -0.000299 0.009487 0.000000 -0.002424 0.000000
# 4 0.000000 0.000000 0.000000 0.015239 0.000000 0.014328
# 5 0.007010 0.000444 -0.002424 0.000000 0.028359 0.000000
# 6 0.000000 0.000000 0.000000 0.014328 0.000000 -0.023025
#
#
# Mechanical properties :
#
#
# Convention : Reuss Voigt Hill
#
# Bulk Modulus (GPa) = 46.73720 56.27969 51.50845
# Shear Modulus (GPa) = 63.01820 30.04428 46.53124
#
# Velocity S-wave (km/s) = 4.95005 3.41789 4.25353
# Velocity P-wave (km/s) = 7.13045 6.12037 6.64463
#
# Compressibility (1/GPa) = 0.02139623
#
# Stress axis : x y z
#
# Youngs Moduli (GPa) = 47.41150 168.41932 105.40363
#
# Poissons Ratio (x) = 0.32162 0.56409
# Poissons Ratio (y) = 0.09054 0.03151
# Poissons Ratio (z) = 0.25373 0.05034
#
# Static dielectric constant tensor:
#      x y z
#    x 2.069150 0.000000 -0.059170 
#    y 0.000000 2.279880 0.000000 
#    z -0.059170 0.000000 2.061060 
# 
# From -- ./inp_files/170805.got.cif
#   From: 2010.05.17/outbox.cif.g08.bks.cpg/sg15_86_cif.got.tgz:170805.got - 2010.06.03 18:47:42.
