data_PCOD9290377
_publ_section_title
;
Structure prediction by ZEFSAII (Michael W. Deem and Ramdas Pophale) SiO2 
 PCOD9290377
Probable space group: C 2/C
;
_chemical_formula_sum "Si O2"
_cell_formula_units_Z 56
_cell_length_a 22.273368
_cell_length_b 8.964521
_cell_length_c 13.340176
_cell_angle_alpha 90.000000
_cell_angle_beta 118.062160
_cell_angle_gamma 90.000000
_cell_volume 2350.491132
_symmetry_space_group_name_H-M "C 2/C"
_symmetry_group_IT_number 15
_symmetry_cell_setting 'monoclinic'
loop_
_space_group_symop_operation_xyz
x,y,z
-x,y,1/2-z
-x,-y,-z
x,-y,1/2+z
1/2+x,1/2+y,z
1/2-x,1/2+y,1/2-z
1/2-x,1/2-y,-z
1/2+x,1/2-y,1/2+z
loop_
_atom_site_type_symbol
_atom_site_label
_atom_site_fract_x
_atom_site_fract_y
_atom_site_fract_z
Si Si1 0.934840 0.282922 0.253509
Si Si2 0.096602 0.590572 0.226959
Si Si3 0.169360 0.227219 0.946610
Si Si4 0.602048 0.498025 0.019032
Si Si5 0.506147 0.735661 0.514015
Si Si6 0.188459 0.127375 0.268639
Si Si7 0.808680 0.582481 0.853960
O O1 0.921051 0.453128 0.213406
O O2 0.866108 0.189437 0.195174
O O3 0.000000 0.216427 0.250000
O O4 0.956935 0.292162 0.387852
O O5 0.130893 0.721909 0.317177
O O6 0.031795 0.648837 0.115587
O O7 0.149104 0.522387 0.187518
O O8 0.148301 0.062990 0.966733
O O9 0.250000 0.250000 0.000000
O O10 0.150721 0.339917 0.023629
O O11 0.534615 0.602577 0.963695
O O12 0.572632 0.333146 0.009999
O O13 0.644470 0.536228 0.152319
O O14 0.215761 0.275683 0.232328
O O15 0.248154 0.019204 0.348928
#
# Coordination Sequence:
#
# PCOD9290377 Si02
#       7
#     8   8   8   8   8   8   8
#     4  10  23  40  62  98 133 168 226 273 328 408
#     4  11  24  40  70  94 130 184 215 272 347 391
#     4  11  25  43  66 102 129 175 232 272 331 406
#     4   9  21  41  63  94 129 163 225 271 325 400
#     4  10  22  41  65  94 128 178 210 272 343 383
#     4   9  20  40  66  91 132 176 213 279 335 387
#     4  10  22  42  65  97 134 171 229 276 328 397
#
# _framework density 23.824808000000001
#
# number of rings (size 3 to 8) (size 9 to 14) (size 15 to 20)
#    0.000    2.000    0.000    3.000    8.000    1.143 
#    5.143    2.857    0.000    0.000    0.000    0.000 
#    0.000    0.000    0.000    0.000    0.000    0.000 
#
# Total GULP energy -156541.212912 kJ/mol
# GULP energy per Si atom -5590.757604 kJ/mol
# Density = 2.377058 g / cm^3
# Si number density = 23.824808 Si / 1000 Ang^3
#
#
#
# Elastic Constant Matrix: (Units=GPa)
#
#
# Indices 1 2 3 4 5 6 
#
# 1 114.6366 17.6904 -7.6972 0.0000 -3.3008 0.0000
# 2 17.6904 71.8590 10.5849 0.0000 4.3731 0.0000
# 3 -7.6972 10.5849 50.4658 0.0000 -3.2830 0.0000
# 4 0.0000 0.0000 0.0000 39.6869 0.0000 5.0885
# 5 -3.3008 4.3731 -3.2830 0.0000 25.8287 0.0000
# 6 0.0000 0.0000 0.0000 5.0885 0.0000 41.5292
#
#
#
# Elastic Compliance Matrix: (Units=1/GPa)
#
#
# Indices 1 2 3 4 5 6 
#
# 1 0.009342 -0.002730 0.002123 0.000000 0.001926 0.000000
# 2 -0.002730 0.015367 -0.003863 0.000000 -0.003442 0.000000
# 3 0.002123 -0.003863 0.021185 0.000000 0.003618 0.000000
# 4 0.000000 0.000000 0.000000 0.025599 0.000000 -0.003137
# 5 0.001926 -0.003442 0.003618 0.000000 0.040005 0.000000
# 6 0.000000 0.000000 0.000000 -0.003137 0.000000 0.024464
#
#
# Mechanical properties :
#
#
# Convention : Reuss Voigt Hill
#
# Bulk Modulus (GPa) = 27.06119 30.90195 28.98157
# Shear Modulus (GPa) = 31.80237 35.83453 33.81845
#
# Velocity S-wave (km/s) = 3.65751 3.88246 3.77166
# Velocity P-wave (km/s) = 5.40552 5.75297 5.58195
#
# Compressibility (1/GPa) = 0.03695329
#
# Stress axis : x y z
#
# Youngs Moduli (GPa) = 107.03801 65.07579 47.20350
#
# Poissons Ratio (x) = 0.17765 -0.10020
# Poissons Ratio (y) = 0.29220 0.18236
# Poissons Ratio (z) = -0.22722 0.25141
#
# Static dielectric constant tensor:
#      x y z
#    x 1.999520 0.000000 -0.062150 
#    y 0.000000 1.919500 0.000000 
#    z -0.062150 0.000000 1.869860 
# 
# From -- ./inp_files/172455.got.cif
#   From: 2010.05.17/outbox.cif.g08.bks.cpg/sg15_87_cif.got.tgz:172455.got - 2010.06.03 18:47:42.
