data_PCOD9290828
_publ_section_title
;
Structure prediction by ZEFSAII (Michael W. Deem and Ramdas Pophale) SiO2 
 PCOD9290828
Probable space group: C 2/C
;
_chemical_formula_sum "Si O2"
_cell_formula_units_Z 48
_cell_length_a 28.902158
_cell_length_b 13.785566
_cell_length_c 8.995154
_cell_angle_alpha 90.000000
_cell_angle_beta 35.801792
_cell_angle_gamma 90.000000
_cell_volume 2096.557376
_symmetry_space_group_name_H-M "C 2/C"
_symmetry_group_IT_number 15
_symmetry_cell_setting 'monoclinic'
loop_
_space_group_symop_operation_xyz
x,y,z
-x,y,1/2-z
-x,-y,-z
x,-y,1/2+z
1/2+x,1/2+y,z
1/2-x,1/2+y,1/2-z
1/2-x,1/2-y,-z
1/2+x,1/2-y,1/2+z
loop_
_atom_site_type_symbol
_atom_site_label
_atom_site_fract_x
_atom_site_fract_y
_atom_site_fract_z
Si Si1 0.868888 0.751800 0.024236
Si Si2 0.570346 0.062976 0.247701
Si Si3 0.832758 0.461614 0.727179
Si Si4 0.960868 0.224492 0.579688
Si Si5 0.820003 0.084258 0.457773
Si Si6 0.079539 0.053535 0.593224
O O1 0.810056 0.816325 0.077328
O O2 0.952985 0.760389 0.719116
O O3 0.836841 0.642884 0.134414
O O4 0.894223 0.786846 0.123807
O O5 0.647892 0.051337 0.150710
O O6 0.552390 0.175681 0.298730
O O7 0.500000 0.000000 0.500000
O O8 0.593828 0.021593 0.029153
O O9 0.756219 0.525076 0.895913
O O10 0.951879 0.136818 0.715875
O O11 0.866296 0.017205 0.453868
O O12 0.873386 0.095094 0.170717
O O13 0.000000 0.998093 0.750000
#
# Coordination Sequence:
#
# PCOD9290828 Si02
#       6
#     8   8   8   8   8   8
#     4  10  22  44  70  98 136 181 233 284 347 410
#     4  11  22  43  71 101 134 184 234 285 340 411
#     4  11  25  44  67 102 142 183 226 286 355 415
#     4  10  22  41  71 102 133 178 239 291 332 408
#     4  12  26  44  69 102 147 183 225 291 351 417
#     4  12  25  43  68 103 137 185 234 282 341 410
#
# _framework density 22.894676
#
# number of rings (size 3 to 8) (size 9 to 14) (size 15 to 20)
#    0.000    1.000    3.333    3.000    2.333    4.000 
#    0.000    6.667    0.000    0.000    0.000    0.000 
#    0.000    0.000    0.000    0.000    0.000    0.000 
#
# Total GULP energy -134320.421120 kJ/mol
# GULP energy per Si atom -5596.684213 kJ/mol
# Density = 2.284257 g / cm^3
# Si number density = 22.894676 Si / 1000 Ang^3
#
#
#
# Elastic Constant Matrix: (Units=GPa)
#
#
# Indices 1 2 3 4 5 6 
#
# 1 81.8027 29.0664 23.1288 0.0000 -3.2664 0.0000
# 2 29.0664 82.9092 14.3583 0.0000 6.2162 0.0000
# 3 23.1288 14.3583 74.7708 0.0000 6.2824 0.0000
# 4 0.0000 0.0000 0.0000 35.2407 0.0000 -3.2522
# 5 -3.2664 6.2162 6.2824 0.0000 42.0285 0.0000
# 6 0.0000 0.0000 0.0000 -3.2522 0.0000 31.3960
#
#
#
# Elastic Compliance Matrix: (Units=1/GPa)
#
#
# Indices 1 2 3 4 5 6 
#
# 1 0.015157 -0.004812 -0.003973 0.000000 0.002484 0.000000
# 2 -0.004812 0.014099 -0.001025 0.000000 -0.002306 0.000000
# 3 -0.003973 -0.001025 0.015002 0.000000 -0.002400 0.000000
# 4 0.000000 0.000000 0.000000 0.028650 0.000000 0.002968
# 5 0.002484 -0.002306 -0.002400 0.000000 0.024686 0.000000
# 6 0.000000 0.000000 0.000000 0.002968 0.000000 0.032159
#
#
# Mechanical properties :
#
#
# Convention : Reuss Voigt Hill
#
# Bulk Modulus (GPa) = 40.58937 41.39886 40.99412
# Shear Modulus (GPa) = 31.72894 33.26164 32.49529
#
# Velocity S-wave (km/s) = 3.72676 3.81571 3.77150
# Velocity P-wave (km/s) = 6.02375 6.12654 6.07536
#
# Compressibility (1/GPa) = 0.02463699
#
# Stress axis : x y z
#
# Youngs Moduli (GPa) = 65.97693 70.92818 66.65913
#
# Poissons Ratio (x) = 0.34129 0.26484
# Poissons Ratio (y) = 0.31747 0.06834
# Poissons Ratio (z) = 0.26213 0.07272
#
# Static dielectric constant tensor:
#      x y z
#    x 1.874140 0.000000 -0.018890 
#    y 0.000000 1.828750 0.000000 
#    z -0.018890 0.000000 1.873700 
# 
# From -- ./inp_files/66390.got.cif
#   From: 2010.05.17/outbox.cif.g08.bks.cpg/sg15_34_cif.got.tgz:66390.got - 2010.06.03 18:47:42.
