data_PCOD9290092
_publ_section_title
;
Structure prediction by ZEFSAII (Michael W. Deem and Ramdas Pophale) SiO2 
 PCOD9290092
Probable space group: C 2/C
;
_chemical_formula_sum "Si O2"
_cell_formula_units_Z 56
_cell_length_a 8.739235
_cell_length_b 13.915334
_cell_length_c 28.900059
_cell_angle_alpha 90.000000
_cell_angle_beta 55.989518
_cell_angle_gamma 90.000000
_cell_volume 2913.307949
_symmetry_space_group_name_H-M "C 2/C"
_symmetry_group_IT_number 15
_symmetry_cell_setting 'monoclinic'
loop_
_space_group_symop_operation_xyz
x,y,z
-x,y,1/2-z
-x,-y,-z
x,-y,1/2+z
1/2+x,1/2+y,z
1/2-x,1/2+y,1/2-z
1/2-x,1/2-y,-z
1/2+x,1/2-y,1/2+z
loop_
_atom_site_type_symbol
_atom_site_label
_atom_site_fract_x
_atom_site_fract_y
_atom_site_fract_z
Si Si1 0.023688 0.038289 0.875836
Si Si2 0.524980 0.957728 0.372527
Si Si3 0.359441 0.057598 0.056482
Si Si4 0.589305 0.229688 0.989454
Si Si5 0.297984 0.686110 0.860427
Si Si6 0.123017 0.406259 0.683699
Si Si7 0.113132 0.910547 0.461932
O O1 0.966922 0.114054 0.845240
O O2 0.074306 0.097715 0.913495
O O3 0.847088 0.973522 0.919565
O O4 0.187470 0.963782 0.837522
O O5 0.666650 0.868105 0.345319
O O6 0.331927 0.921944 0.427605
O O7 0.612929 0.027615 0.395443
O O8 0.475811 0.023025 0.336811
O O9 0.429803 0.164393 0.037989
O O10 0.500000 0.000000 0.000000
O O11 0.682738 0.186859 0.928058
O O12 0.750000 0.250000 0.000000
O O13 0.480375 0.324862 0.994957
O O14 0.344305 0.796836 0.840424
O O15 0.000000 0.398865 0.750000
O O16 0.000000 0.000000 0.500000
#
# Coordination Sequence:
#
# PCOD9290092 Si02
#       7
#     8   8   8   8   8   8   8
#     4  10  22  41  61  91 127 165 209 261 313 382
#     4  10  23  40  60  94 125 163 217 262 309 386
#     4  11  19  36  61  93 132 163 195 240 309 393
#     4  12  20  32  59  91 132 174 194 234 315 382
#     4  11  23  41  66  96 127 165 214 258 316 389
#     4  11  26  47  67  86 121 166 222 287 327 356
#     4  11  21  33  55  87 131 170 206 243 300 382
#
# _framework density 19.222135999999999
#
# number of rings (size 3 to 8) (size 9 to 14) (size 15 to 20)
#    0.000    1.143    4.286    4.286    2.000    1.714 
#    0.000    2.143    0.000    0.000    0.000    0.000 
#    0.000    0.000    0.000    0.000    0.000    0.000 
#
# Total GULP energy -156201.381992 kJ/mol
# GULP energy per Si atom -5578.620785 kJ/mol
# Density = 1.917839 g / cm^3
# Si number density = 19.222136 Si / 1000 Ang^3
#
#
#
# Elastic Constant Matrix: (Units=GPa)
#
#
# Indices 1 2 3 4 5 6 
#
# 1 93.2927 40.1817 24.5990 0.0000 -2.5551 0.0000
# 2 40.1817 124.7279 21.0378 0.0000 -0.3051 0.0000
# 3 24.5990 21.0378 65.5125 -0.0001 -6.4926 0.0000
# 4 0.0000 0.0000 -0.0001 18.6340 0.0000 -1.0227
# 5 -2.5551 -0.3051 -6.4926 0.0000 14.9495 0.0000
# 6 0.0000 0.0000 0.0000 -1.0227 0.0000 30.7100
#
#
#
# Elastic Compliance Matrix: (Units=1/GPa)
#
#
# Indices 1 2 3 4 5 6 
#
# 1 0.013298 -0.003648 -0.003766 0.000000 0.000563 0.000000
# 2 -0.003648 0.009493 -0.001799 0.000000 -0.001211 0.000000
# 3 -0.003766 -0.001799 0.017962 0.000000 0.007120 0.000000
# 4 0.000000 0.000000 0.000000 0.053764 0.000000 0.001790
# 5 0.000563 -0.001211 0.007120 0.000000 0.070056 0.000000
# 6 0.000000 0.000000 0.000000 0.001790 0.000000 0.032622
#
#
# Mechanical properties :
#
#
# Convention : Reuss Voigt Hill
#
# Bulk Modulus (GPa) = 44.78711 50.57445 47.68078
# Shear Modulus (GPa) = 22.41524 26.03969 24.22746
#
# Velocity S-wave (km/s) = 3.41855 3.68458 3.55405
# Velocity P-wave (km/s) = 6.23958 6.66852 6.45761
#
# Compressibility (1/GPa) = 0.02232785
#
# Stress axis : x y z
#
# Youngs Moduli (GPa) = 75.19667 105.34111 55.67381
#
# Poissons Ratio (x) = 0.38423 0.20968
# Poissons Ratio (y) = 0.27428 0.10015
# Poissons Ratio (z) = 0.28321 0.18949
#
# Static dielectric constant tensor:
#      x y z
#    x 1.247290 0.000000 0.106790 
#    y 0.000000 1.685270 0.000000 
#    z 0.106790 0.000000 1.609870 
# 
# From -- ./inp_files/288377.got.cif
#   From: 2010.05.17/outbox.cif.g08.bks.cpg/sg15_145_cif.got.tgz:288377.got - 2010.06.03 18:47:42.
