data_PCOD9290284
_publ_section_title
;
Structure prediction by ZEFSAII (Michael W. Deem and Ramdas Pophale) SiO2 
 PCOD9290284
Probable space group: C 2/C
;
_chemical_formula_sum "Si O2"
_cell_formula_units_Z 40
_cell_length_a 22.139629
_cell_length_b 9.528446
_cell_length_c 14.144346
_cell_angle_alpha 90.000000
_cell_angle_beta 33.316869
_cell_angle_gamma 90.000000
_cell_volume 1638.929511
_symmetry_space_group_name_H-M "C 2/C"
_symmetry_group_IT_number 15
_symmetry_cell_setting 'monoclinic'
loop_
_space_group_symop_operation_xyz
x,y,z
-x,y,1/2-z
-x,-y,-z
x,-y,1/2+z
1/2+x,1/2+y,z
1/2-x,1/2+y,1/2-z
1/2-x,1/2-y,-z
1/2+x,1/2-y,1/2+z
loop_
_atom_site_type_symbol
_atom_site_label
_atom_site_fract_x
_atom_site_fract_y
_atom_site_fract_z
Si Si1 0.574146 0.323709 0.798573
Si Si2 0.500000 0.911127 0.250000
Si Si3 0.851008 0.182686 0.670809
Si Si4 0.000000 0.937558 0.250000
Si Si5 0.229904 0.494766 0.968314
Si Si6 0.721183 0.444195 0.883023
O O1 0.543615 0.189805 0.776098
O O2 0.546765 0.456225 0.767671
O O3 0.701582 0.354246 0.651775
O O4 0.483700 0.322870 0.999190
O O5 0.391648 0.996913 0.415511
O O6 0.803077 0.338090 0.724419
O O7 0.798347 0.121934 0.834488
O O8 0.811486 0.077233 0.639122
O O9 0.893745 0.867957 0.436266
O O10 0.226313 0.507301 0.086354
#
# Coordination Sequence:
#
# PCOD9290284 Si02
#       6
#     8   4   8   4   8   8
#     4   9  19  38  62  89 124 168 211 250 309 385
#     4  11  22  39  64  96 128 166 214 268 318 364
#     4  11  22  41  68  98 127 167 216 259 314 381
#     4   7  16  35  60  86 122 166 204 242 304 380
#     4  11  23  41  63  91 128 171 209 262 320 376
#     4  10  22  41  64  96 131 167 211 261 311 375
#
# _framework density 24.406175999999999
#
# number of rings (size 3 to 8) (size 9 to 14) (size 15 to 20)
#    0.000    2.000    0.000    4.200    0.000    2.400 
#    0.000   10.000    0.000    0.000    0.000    0.000 
#    0.000    0.000    0.000    0.000    0.000    0.000 
#
# Total GULP energy -111774.272036 kJ/mol
# GULP energy per Si atom -5588.713602 kJ/mol
# Density = 2.435063 g / cm^3
# Si number density = 24.406176 Si / 1000 Ang^3
#
#
#
# Elastic Constant Matrix: (Units=GPa)
#
#
# Indices 1 2 3 4 5 6 
#
# 1 91.3425 19.0515 33.2334 0.0000 -1.3435 0.0000
# 2 19.0515 65.5681 39.6178 0.0000 -0.3200 0.0000
# 3 33.2334 39.6178 141.2828 0.0000 -21.7020 0.0000
# 4 0.0000 0.0000 0.0000 26.7757 0.0000 -4.0628
# 5 -1.3435 -0.3200 -21.7020 0.0000 38.5494 0.0000
# 6 0.0000 0.0000 0.0000 -4.0628 0.0000 21.1248
#
#
#
# Elastic Compliance Matrix: (Units=1/GPa)
#
#
# Indices 1 2 3 4 5 6 
#
# 1 0.012259 -0.002088 -0.002447 0.000000 -0.000967 0.000000
# 2 -0.002088 0.019042 -0.005293 0.000000 -0.002895 0.000000
# 3 -0.002447 -0.005293 0.009981 0.000000 0.005490 0.000000
# 4 0.000000 0.000000 0.000000 0.038470 0.000000 0.007399
# 5 -0.000967 -0.002895 0.005490 0.000000 0.028974 0.000000
# 6 0.000000 0.000000 0.000000 0.007399 0.000000 0.048761
#
#
# Mechanical properties :
#
#
# Convention : Reuss Voigt Hill
#
# Bulk Modulus (GPa) = 46.24027 53.55541 49.89784
# Shear Modulus (GPa) = 27.12201 31.04268 29.08234
#
# Velocity S-wave (km/s) = 3.33720 3.57027 3.45570
# Velocity P-wave (km/s) = 5.81691 6.24394 6.03420
#
# Compressibility (1/GPa) = 0.02162617
#
# Stress axis : x y z
#
# Youngs Moduli (GPa) = 81.57028 52.51483 100.18966
#
# Poissons Ratio (x) = 0.10967 0.24513
# Poissons Ratio (y) = 0.17036 0.53031
# Poissons Ratio (z) = 0.19958 0.27797
#
# Static dielectric constant tensor:
#      x y z
#    x 1.979060 0.000000 -0.044600 
#    y 0.000000 1.942850 0.000000 
#    z -0.044600 0.000000 2.038120 
# 
# From -- ./inp_files/173092.got.cif
#   From: 2010.05.17/outbox.cif.g08.bks.cpg/sg15_87_cif.got.tgz:173092.got - 2010.06.03 18:47:42.
