data_PCOD9290818
_publ_section_title
;
Structure prediction by ZEFSAII (Michael W. Deem and Ramdas Pophale) SiO2 
 PCOD9290818
Probable space group: C 2/C
;
_chemical_formula_sum "Si O2"
_cell_formula_units_Z 56
_cell_length_a 27.238140
_cell_length_b 18.206405
_cell_length_c 5.160944
_cell_angle_alpha 90.000000
_cell_angle_beta 77.407172
_cell_angle_gamma 90.000000
_cell_volume 2497.788830
_symmetry_space_group_name_H-M "C 2/C"
_symmetry_group_IT_number 15
_symmetry_cell_setting 'monoclinic'
loop_
_space_group_symop_operation_xyz
x,y,z
-x,y,1/2-z
-x,-y,-z
x,-y,1/2+z
1/2+x,1/2+y,z
1/2-x,1/2+y,1/2-z
1/2-x,1/2-y,-z
1/2+x,1/2-y,1/2+z
loop_
_atom_site_type_symbol
_atom_site_label
_atom_site_fract_x
_atom_site_fract_y
_atom_site_fract_z
Si Si1 0.635446 0.818801 0.814985
Si Si2 0.569108 0.951797 0.907242
Si Si3 0.399757 0.448234 0.188944
Si Si4 0.355835 0.673162 0.027980
Si Si5 0.500000 0.552990 0.750000
Si Si6 0.000000 0.660381 0.250000
Si Si7 0.747948 0.199144 0.257899
Si Si8 0.943403 0.761796 0.705063
O O1 0.614356 0.898330 0.773055
O O2 0.642103 0.755473 0.590991
O O3 0.692477 0.834793 0.840186
O O4 0.593469 0.784633 0.061595
O O5 0.522748 0.896153 0.928881
O O6 0.569003 0.015576 0.693370
O O7 0.397640 0.511674 0.415630
O O8 0.359893 0.385989 0.293280
O O9 0.450990 0.404590 0.215727
O O10 0.301119 0.656858 0.208469
O O11 0.404369 0.673689 0.164878
O O12 0.500000 0.500000 0.500000
O O13 0.959978 0.711792 0.441151
O O14 0.750000 0.250000 0.500000
O O15 0.750000 0.250000 0.000000
O O16 0.000000 0.782462 0.750000
#
# Coordination Sequence:
#
# PCOD9290818 Si02
#       8
#     8   8   8   8   4   4   8   8
#     4  11  24  43  67  98 136 172 245 281 338 415
#     4  12  26  42  66  94 140 189 228 278 344 410
#     4  10  23  41  64  95 131 171 218 265 337 415
#     4  11  24  43  70  97 135 178 227 290 350 400
#     4   8  16  35  54  76 117 164 198 238 302 391
#     4  12  24  41  60 100 139 192 224 284 336 421
#     4  10  22  41  70  99 127 177 226 286 341 405
#     4  12  22  39  67  99 139 174 227 292 341 392
#
# _framework density 22.419829
#
# number of rings (size 3 to 8) (size 9 to 14) (size 15 to 20)
#    0.000    1.143    4.286    1.286    2.000    1.714 
#    5.143    1.429    0.000    0.000    0.000    0.000 
#    0.000    0.000    0.000    0.000    0.000    0.000 
#
# Total GULP energy -155979.244218 kJ/mol
# GULP energy per Si atom -5570.687293 kJ/mol
# Density = 2.236880 g / cm^3
# Si number density = 22.419829 Si / 1000 Ang^3
#
#
#
# Elastic Constant Matrix: (Units=GPa)
#
#
# Indices 1 2 3 4 5 6 
#
# 1 146.9946 26.6574 23.4173 0.0000 -27.6716 0.0000
# 2 26.6574 54.0313 5.9901 0.0000 -1.4417 0.0000
# 3 23.4173 5.9901 94.7806 0.0000 -1.4950 0.0000
# 4 0.0000 0.0000 0.0000 38.5921 0.0000 5.6481
# 5 -27.6716 -1.4417 -1.4950 0.0000 36.2112 0.0000
# 6 0.0000 0.0000 0.0000 5.6481 0.0000 10.8055
#
#
#
# Elastic Compliance Matrix: (Units=1/GPa)
#
#
# Indices 1 2 3 4 5 6 
#
# 1 0.009114 -0.004108 -0.001886 0.000000 0.006723 0.000000
# 2 -0.004108 0.020508 -0.000318 0.000000 -0.002336 0.000000
# 3 -0.001886 -0.000318 0.011021 0.000000 -0.000999 0.000000
# 4 0.000000 0.000000 0.000000 0.028059 0.000000 -0.014666
# 5 0.006723 -0.002336 -0.000999 0.000000 0.032619 0.000000
# 6 0.000000 0.000000 0.000000 -0.014666 0.000000 0.100211
#
#
# Mechanical properties :
#
#
# Convention : Reuss Voigt Hill
#
# Bulk Modulus (GPa) = 35.69095 45.32623 40.50859
# Shear Modulus (GPa) = 22.37181 33.10455 27.73818
#
# Velocity S-wave (km/s) = 3.16232 3.84679 3.52122
# Velocity P-wave (km/s) = 5.41180 6.32387 5.88553
#
# Compressibility (1/GPa) = 0.02801831
#
# Stress axis : x y z
#
# Youngs Moduli (GPa) = 109.71994 48.76263 90.73567
#
# Poissons Ratio (x) = 0.20032 0.17114
# Poissons Ratio (y) = 0.45074 0.02885
# Poissons Ratio (z) = 0.20695 0.01550
#
# Static dielectric constant tensor:
#      x y z
#    x 1.982900 0.000000 0.026240 
#    y 0.000000 2.391950 0.000000 
#    z 0.026240 0.000000 1.866190 
# 
# From -- ./inp_files/17182.got.cif
#   From: 2010.05.17/outbox.cif.g08.bks.cpg/sg15_9_cif.got.tgz:17182.got - 2010.06.03 18:47:42.
