data_PCOD9290424
_publ_section_title
;
Structure prediction by ZEFSAII (Michael W. Deem and Ramdas Pophale) SiO2 
 PCOD9290424
Probable space group: C 2/C
;
_chemical_formula_sum "Si O2"
_cell_formula_units_Z 36
_cell_length_a 22.909581
_cell_length_b 5.064786
_cell_length_c 12.731730
_cell_angle_alpha 90.000000
_cell_angle_beta 99.070787
_cell_angle_gamma 90.000000
_cell_volume 1458.815172
_symmetry_space_group_name_H-M "C 2/C"
_symmetry_group_IT_number 15
_symmetry_cell_setting 'monoclinic'
loop_
_space_group_symop_operation_xyz
x,y,z
-x,y,1/2-z
-x,-y,-z
x,-y,1/2+z
1/2+x,1/2+y,z
1/2-x,1/2+y,1/2-z
1/2-x,1/2-y,-z
1/2+x,1/2-y,1/2+z
loop_
_atom_site_type_symbol
_atom_site_label
_atom_site_fract_x
_atom_site_fract_y
_atom_site_fract_z
Si Si1 0.855010 0.687032 0.817486
Si Si2 0.419494 0.332198 0.404416
Si Si3 0.215900 0.496070 0.033721
Si Si4 0.000000 0.249055 0.750000
Si Si5 0.596074 0.122053 0.887874
O O1 0.903366 0.462869 0.860981
O O2 0.868061 0.746223 0.699624
O O3 0.865827 0.963047 0.878903
O O4 0.795412 0.550201 0.844550
O O5 0.466265 0.418567 0.329409
O O6 0.433168 0.307169 0.531255
O O7 0.150078 0.488128 0.965940
O O8 0.250000 0.750000 0.000000
O O9 0.250000 0.250000 0.000000
O O10 0.953286 0.426475 0.671381
#
# Coordination Sequence:
#
# PCOD9290424 Si02
#       5
#     8   8   8   4   8
#     4  10  23  42  66  97 131 177 228 279 347 407
#     4  10  22  41  65  98 137 177 225 280 340 412
#     4  11  24  43  67  95 129 173 225 280 338 405
#     4  10  22  42  70 104 138 188 232 284 354 416
#     4  10  23  44  68  98 140 180 230 291 346 414
#
# _framework density 24.677558999999999
#
# number of rings (size 3 to 8) (size 9 to 14) (size 15 to 20)
#    0.000    1.778    0.000    3.333    0.000   16.000 
#    0.000   10.000    0.000    0.000    0.000    0.000 
#    0.000    0.000    0.000    0.000    0.000    0.000 
#
# Total GULP energy -100439.872187 kJ/mol
# GULP energy per Si atom -5579.992899 kJ/mol
# Density = 2.462139 g / cm^3
# Si number density = 24.677559 Si / 1000 Ang^3
#
#
#
# Elastic Constant Matrix: (Units=GPa)
#
#
# Indices 1 2 3 4 5 6 
#
# 1 102.5048 19.5127 42.3694 0.0000 -34.7093 0.0000
# 2 19.5127 96.6363 35.4579 0.0000 -7.5626 0.0000
# 3 42.3694 35.4579 145.8642 0.0000 -59.2979 0.0000
# 4 0.0000 0.0000 0.0000 16.6944 0.0000 14.2608
# 5 -34.7093 -7.5626 -59.2979 0.0000 67.9534 0.0000
# 6 0.0000 0.0000 0.0000 14.2608 0.0000 38.6433
#
#
#
# Elastic Compliance Matrix: (Units=1/GPa)
#
#
# Indices 1 2 3 4 5 6 
#
# 1 0.012257 -0.001684 -0.001057 0.000000 0.005151 0.000000
# 2 -0.001684 0.011733 -0.003381 0.000000 -0.002505 0.000000
# 3 -0.001057 -0.003381 0.011797 0.000000 0.009378 0.000000
# 4 0.000000 0.000000 0.000000 0.087477 0.000000 -0.032282
# 5 0.005151 -0.002505 0.009378 0.000000 0.025252 0.000000
# 6 0.000000 0.000000 0.000000 -0.032282 0.000000 0.037791
#
#
# Mechanical properties :
#
#
# Convention : Reuss Voigt Hill
#
# Bulk Modulus (GPa) = 42.47611 59.96502 51.22056
# Shear Modulus (GPa) = 24.22491 41.16925 32.69708
#
# Velocity S-wave (km/s) = 3.13654 4.08890 3.64397
# Velocity P-wave (km/s) = 5.51063 6.82966 6.20529
#
# Compressibility (1/GPa) = 0.02354265
#
# Stress axis : x y z
#
# Youngs Moduli (GPa) = 81.58397 85.23157 84.76554
#
# Poissons Ratio (x) = 0.14353 0.08960
# Poissons Ratio (y) = 0.13739 0.28662
# Poissons Ratio (z) = 0.08623 0.28819
#
# Static dielectric constant tensor:
#      x y z
#    x 2.056010 0.000000 -0.058230 
#    y 0.000000 1.870450 0.000000 
#    z -0.058230 0.000000 2.068370 
# 
# From -- ./inp_files/115698.got.cif
#   From: 2010.05.17/outbox.cif.g08.bks.cpg/sg15_58_cif.got.tgz:115698.got - 2010.06.03 18:47:42.
