data_PCOD9290315
_publ_section_title
;
Structure prediction by ZEFSAII (Michael W. Deem and Ramdas Pophale) SiO2 
 PCOD9290315
Probable space group: C 2/C
;
_chemical_formula_sum "Si O2"
_cell_formula_units_Z 52
_cell_length_a 5.420692
_cell_length_b 16.847459
_cell_length_c 23.882468
_cell_angle_alpha 90.000000
_cell_angle_beta 107.893008
_cell_angle_gamma 90.000000
_cell_volume 2075.569777
_symmetry_space_group_name_H-M "C 2/C"
_symmetry_group_IT_number 15
_symmetry_cell_setting 'monoclinic'
loop_
_space_group_symop_operation_xyz
x,y,z
-x,y,1/2-z
-x,-y,-z
x,-y,1/2+z
1/2+x,1/2+y,z
1/2-x,1/2+y,1/2-z
1/2-x,1/2-y,-z
1/2+x,1/2-y,1/2+z
loop_
_atom_site_type_symbol
_atom_site_label
_atom_site_fract_x
_atom_site_fract_y
_atom_site_fract_z
Si Si1 0.745604 0.987246 0.644851
Si Si2 0.349990 0.148242 0.080481
Si Si3 0.917412 0.344093 0.338668
Si Si4 0.000000 0.874781 0.750000
Si Si5 0.041770 0.321400 0.477625
Si Si6 0.611123 0.545735 0.455993
Si Si7 0.611660 0.742584 0.689561
O O1 0.525028 0.928852 0.605593
O O2 0.871600 0.013576 0.595032
O O3 0.942645 0.934048 0.694659
O O4 0.628061 0.061579 0.668798
O O5 0.488471 0.214480 0.126533
O O6 0.066805 0.119041 0.077981
O O7 0.341275 0.176556 0.015796
O O8 0.642040 0.303204 0.305173
O O9 0.967430 0.322457 0.407385
O O10 0.155311 0.313293 0.317270
O O11 0.246469 0.815106 0.767054
O O12 0.250000 0.250000 0.500000
O O13 0.154435 0.408466 0.499153
O O14 0.500000 0.500000 0.500000
#
# Coordination Sequence:
#
# PCOD9290315 Si02
#       7
#     8   8   8   4   8   8   8
#     4  10  25  45  72 103 145 192 251 305 377 447
#     4  10  22  41  65 102 144 200 236 289 364 451
#     4  12  26  45  72 111 145 185 241 310 365 439
#     4  10  26  56  72 100 134 200 246 314 374 452
#     4  11  22  37  64 102 149 190 236 287 368 437
#     4  11  23  39  69 105 148 192 244 299 373 452
#     4  11  27  46  73 102 143 183 248 304 368 436
#
# _framework density 25.053360999999999
#
# number of rings (size 3 to 8) (size 9 to 14) (size 15 to 20)
#    0.000    1.231    1.538    2.769   10.769    5.538 
#    2.769    0.000    0.000    0.000    0.000    0.000 
#    0.000    0.000    0.000    0.000    0.000    0.000 
#
# Total GULP energy -145265.794947 kJ/mol
# GULP energy per Si atom -5587.145959 kJ/mol
# Density = 2.499634 g / cm^3
# Si number density = 25.053361 Si / 1000 Ang^3
#
#
#
# Elastic Constant Matrix: (Units=GPa)
#
#
# Indices 1 2 3 4 5 6 
#
# 1 72.5210 26.5440 3.1216 0.0000 12.2611 0.0000
# 2 26.5440 121.4238 12.6436 0.0000 -3.4084 0.0000
# 3 3.1216 12.6436 113.6945 0.0000 21.5791 0.0000
# 4 0.0000 0.0000 0.0000 42.1428 0.0000 7.6184
# 5 12.2611 -3.4084 21.5791 0.0000 19.9791 0.0000
# 6 0.0000 0.0000 0.0000 7.6184 0.0000 38.4888
#
#
#
# Elastic Compliance Matrix: (Units=1/GPa)
#
#
# Indices 1 2 3 4 5 6 
#
# 1 0.017860 -0.004615 0.002833 0.000000 -0.014808 0.000000
# 2 -0.004615 0.009675 -0.002264 0.000000 0.006928 0.000000
# 3 0.002833 -0.002264 0.011790 0.000000 -0.014859 0.000000
# 4 0.000000 0.000000 0.000000 0.024609 0.000000 -0.004871
# 5 -0.014808 0.006928 -0.014859 0.000000 0.076371 0.000000
# 6 0.000000 0.000000 0.000000 -0.004871 0.000000 0.026946
#
#
# Mechanical properties :
#
#
# Convention : Reuss Voigt Hill
#
# Bulk Modulus (GPa) = 32.01742 43.58418 37.80080
# Shear Modulus (GPa) = 26.91744 37.81081 32.36412
#
# Velocity S-wave (km/s) = 3.28137 3.88907 3.59807
# Velocity P-wave (km/s) = 5.21190 6.13195 5.69055
#
# Compressibility (1/GPa) = 0.03123300
#
# Stress axis : x y z
#
# Youngs Moduli (GPa) = 55.99123 103.36215 84.81950
#
# Poissons Ratio (x) = 0.47702 -0.24033
# Poissons Ratio (y) = 0.25840 0.19204
# Poissons Ratio (z) = -0.15865 0.23403
#
# Static dielectric constant tensor:
#      x y z
#    x 2.206920 0.000000 -0.059140 
#    y 0.000000 2.022010 0.000000 
#    z -0.059140 0.000000 2.055140 
# 
# From -- ./inp_files/285891.got.cif
#   From: 2010.05.17/outbox.cif.g08.bks.cpg/sg15_143_cif.got.tgz:285891.got - 2010.06.03 18:47:42.
