data_PCOD9290225
_publ_section_title
;
Structure prediction by ZEFSAII (Michael W. Deem and Ramdas Pophale) SiO2 
 PCOD9290225
Probable space group: C 2/C
;
_chemical_formula_sum "Si O2"
_cell_formula_units_Z 52
_cell_length_a 12.690513
_cell_length_b 26.594481
_cell_length_c 7.778234
_cell_angle_alpha 90.000000
_cell_angle_beta 63.883622
_cell_angle_gamma 90.000000
_cell_volume 2357.113719
_symmetry_space_group_name_H-M "C 2/C"
_symmetry_group_IT_number 15
_symmetry_cell_setting 'monoclinic'
loop_
_space_group_symop_operation_xyz
x,y,z
-x,y,1/2-z
-x,-y,-z
x,-y,1/2+z
1/2+x,1/2+y,z
1/2-x,1/2+y,1/2-z
1/2-x,1/2-y,-z
1/2+x,1/2-y,1/2+z
loop_
_atom_site_type_symbol
_atom_site_label
_atom_site_fract_x
_atom_site_fract_y
_atom_site_fract_z
Si Si1 0.881018 0.752624 0.220785
Si Si2 0.629857 0.957384 0.086542
Si Si3 0.021119 0.164097 0.039633
Si Si4 0.500000 0.496080 0.750000
Si Si5 0.368794 0.927976 0.813665
Si Si6 0.230231 0.830865 0.954838
Si Si7 0.859502 0.065725 0.631980
O O1 0.790133 0.792172 0.373956
O O2 0.818342 0.699068 0.263694
O O3 0.000000 0.748779 0.250000
O O4 0.921712 0.780800 0.019879
O O5 0.500000 0.943653 0.250000
O O6 0.731486 0.938695 0.141375
O O7 0.635570 0.018164 0.089044
O O8 0.649621 0.938308 0.877334
O O9 0.896245 0.163769 0.038214
O O10 0.000000 0.150195 0.250000
O O11 0.100806 0.123091 0.886808
O O12 0.392366 0.532298 0.773264
O O13 0.549690 0.460155 0.567728
O O14 0.500000 0.908355 0.750000
O O15 0.281881 0.885925 0.948122
#
# Coordination Sequence:
#
# PCOD9290225 Si02
#       7
#     8   8   8   4   8   8   8
#     4   9  21  41  64  88 116 155 208 260 310 377
#     4  11  24  41  59  90 130 172 212 258 310 376
#     4  11  23  39  62  93 125 158 201 258 326 373
#     4  10  24  36  62  92 128 174 208 256 310 376
#     4  11  23  39  63  89 126 169 213 256 311 374
#     4  10  22  41  64  88 118 160 211 256 312 372
#     4  11  23  40  60  92 130 166 213 256 313 377
#
# _framework density 22.060880000000001
#
# number of rings (size 3 to 8) (size 9 to 14) (size 15 to 20)
#    0.000    1.538    0.769    4.154    7.538    3.077 
#    0.000    0.769    0.000    0.000    0.000    0.000 
#    0.000    0.000    0.000    0.000    0.000    0.000 
#
# Total GULP energy -145364.340855 kJ/mol
# GULP energy per Si atom -5590.936187 kJ/mol
# Density = 2.201067 g / cm^3
# Si number density = 22.060880 Si / 1000 Ang^3
#
#
#
# Elastic Constant Matrix: (Units=GPa)
#
#
# Indices 1 2 3 4 5 6 
#
# 1 100.0402 23.4731 5.8688 0.0000 -21.6803 0.0000
# 2 23.4731 88.8336 12.1188 0.0000 -14.2755 0.0000
# 3 5.8688 12.1188 45.5954 0.0000 -8.3972 0.0000
# 4 0.0000 0.0000 0.0000 48.9058 0.0000 -21.8122
# 5 -21.6803 -14.2755 -8.3972 0.0000 37.8112 0.0000
# 6 0.0000 0.0000 0.0000 -21.8122 0.0000 35.6631
#
#
#
# Elastic Compliance Matrix: (Units=1/GPa)
#
#
# Indices 1 2 3 4 5 6 
#
# 1 0.011792 -0.002178 0.000161 0.000000 0.005975 0.000000
# 2 -0.002178 0.012655 -0.002537 0.000000 0.002966 0.000000
# 3 0.000161 -0.002537 0.023383 0.000000 0.004328 0.000000
# 4 0.000000 0.000000 0.000000 0.028117 0.000000 0.017197
# 5 0.005975 0.002966 0.004328 0.000000 0.031954 0.000000
# 6 0.000000 0.000000 0.000000 0.017197 0.000000 0.038558
#
#
# Mechanical properties :
#
#
# Convention : Reuss Voigt Hill
#
# Bulk Modulus (GPa) = 25.82432 35.26561 30.54497
# Shear Modulus (GPa) = 29.67803 37.34324 33.51064
#
# Velocity S-wave (km/s) = 3.67178 4.11875 3.90167
# Velocity P-wave (km/s) = 5.45044 6.21604 5.84579
#
# Compressibility (1/GPa) = 0.03872319
#
# Stress axis : x y z
#
# Youngs Moduli (GPa) = 84.80023 79.01907 42.76691
#
# Poissons Ratio (x) = 0.17209 -0.00690
# Poissons Ratio (y) = 0.18468 0.10850
# Poissons Ratio (z) = -0.01369 0.20048
#
# Static dielectric constant tensor:
#      x y z
#    x 1.779080 0.000000 0.005210 
#    y 0.000000 1.815530 0.000000 
#    z 0.005210 0.000000 1.869130 
# 
# From -- ./inp_files/34061.got.cif
#   From: 2010.05.17/outbox.cif.g08.bks.cpg/sg15_18_cif.got.tgz:34061.got - 2010.06.03 18:47:42.
