data_PCOD9290654
_publ_section_title
;
Structure prediction by ZEFSAII (Michael W. Deem and Ramdas Pophale) SiO2 
 PCOD9290654
Probable space group: C 2/C
;
_chemical_formula_sum "Si O2"
_cell_formula_units_Z 56
_cell_length_a 18.456930
_cell_length_b 8.556003
_cell_length_c 30.795220
_cell_angle_alpha 90.000000
_cell_angle_beta 34.185232
_cell_angle_gamma 90.000000
_cell_volume 2732.434040
_symmetry_space_group_name_H-M "C 2/C"
_symmetry_group_IT_number 15
_symmetry_cell_setting 'monoclinic'
loop_
_space_group_symop_operation_xyz
x,y,z
-x,y,1/2-z
-x,-y,-z
x,-y,1/2+z
1/2+x,1/2+y,z
1/2-x,1/2+y,1/2-z
1/2-x,1/2-y,-z
1/2+x,1/2-y,1/2+z
loop_
_atom_site_type_symbol
_atom_site_label
_atom_site_fract_x
_atom_site_fract_y
_atom_site_fract_z
Si Si1 0.037749 0.920606 0.027227
Si Si2 0.155443 0.142572 0.170129
Si Si3 0.218740 0.305400 0.398134
Si Si4 0.448815 0.902228 0.821475
Si Si5 0.700016 0.816075 0.729215
Si Si6 0.262676 0.666679 0.698112
Si Si7 0.732881 0.859845 0.050900
O O1 0.909245 0.886954 0.117321
O O2 0.096292 0.750535 0.985998
O O3 0.140616 0.033668 0.000657
O O4 0.000000 0.000000 0.000000
O O5 0.206631 0.225591 0.188229
O O6 0.199681 0.249677 0.108130
O O7 0.000000 0.121888 0.250000
O O8 0.231189 0.980173 0.126826
O O9 0.329729 0.198152 0.363470
O O10 0.207147 0.247435 0.354239
O O11 0.500000 0.976759 0.750000
O O12 0.553264 0.779852 0.788234
O O13 0.389401 0.020613 0.886365
O O14 0.743534 0.752818 0.753279
O O15 0.689476 0.002807 0.734328
O O16 0.750000 0.750000 0.000000
#
# Coordination Sequence:
#
# PCOD9290654 Si02
#       7
#     8   8   8   8   8   8   8
#     4  11  22  47  66  89 137 182 215 265 344 404
#     4  12  24  43  65  96 128 170 220 273 335 396
#     4  10  22  41  68  92 129 171 214 267 331 399
#     4   9  19  41  65  85 124 172 209 261 331 390
#     4  11  22  39  62  96 123 164 220 269 321 387
#     4  12  25  41  67  95 133 176 218 275 336 399
#     4  11  24  40  66  95 126 170 220 271 324 394
#
# _framework density 20.494547000000001
#
# number of rings (size 3 to 8) (size 9 to 14) (size 15 to 20)
#    0.000    1.143    2.857    5.143    0.000    6.286 
#    2.571    2.857    0.000    0.000    0.000    0.000 
#    0.000    0.000    0.000    0.000    0.000    0.000 
#
# Total GULP energy -156302.387336 kJ/mol
# GULP energy per Si atom -5582.228119 kJ/mol
# Density = 2.044790 g / cm^3
# Si number density = 20.494547 Si / 1000 Ang^3
#
#
#
# Elastic Constant Matrix: (Units=GPa)
#
#
# Indices 1 2 3 4 5 6 
#
# 1 66.0736 -0.5244 21.6991 -0.0001 11.3481 -0.0006
# 2 -0.5244 73.2867 -0.4207 -0.0004 0.9168 -0.0016
# 3 21.6991 -0.4207 34.4668 0.0002 -2.8145 0.0002
# 4 -0.0001 -0.0004 0.0002 35.9837 0.0000 3.6110
# 5 11.3481 0.9168 -2.8145 0.0000 34.1978 -0.0003
# 6 -0.0006 -0.0016 0.0002 3.6110 -0.0003 24.4222
#
#
#
# Elastic Compliance Matrix: (Units=1/GPa)
#
#
# Indices 1 2 3 4 5 6 
#
# 1 0.021124 0.000173 -0.013963 0.000000 -0.008163 0.000001
# 2 0.000173 0.013652 0.000023 0.000000 -0.000422 0.000001
# 3 -0.013963 0.000023 0.038441 0.000000 0.007797 -0.000001
# 4 0.000000 0.000000 0.000000 0.028209 0.000000 -0.004171
# 5 -0.008163 -0.000422 0.007797 0.000000 0.032604 0.000000
# 6 0.000001 0.000001 -0.000001 -0.004171 0.000000 0.041563
#
#
# Mechanical properties :
#
#
# Convention : Reuss Voigt Hill
#
# Bulk Modulus (GPa) = 21.89009 23.92610 22.90810
# Shear Modulus (GPa) = 22.89864 29.12561 26.01213
#
# Velocity S-wave (km/s) = 3.34624 3.77389 3.56648
# Velocity P-wave (km/s) = 5.06299 5.53980 5.30675
#
# Compressibility (1/GPa) = 0.04568276
#
# Stress axis : x y z
#
# Youngs Moduli (GPa) = 47.34012 73.25100 26.01378
#
# Poissons Ratio (x) = -0.01268 0.36324
# Poissons Ratio (y) = -0.00820 -0.00060
# Poissons Ratio (z) = 0.66102 -0.00170
#
# Static dielectric constant tensor:
#      x y z
#    x 1.836400 0.000000 -0.164120 
#    y 0.000000 1.750090 0.000000 
#    z -0.164120 0.000000 2.022350 
# 
# From -- ./inp_files/298526.got.cif
#   From: 2010.05.17/outbox.cif.g08.bks.cpg/sg15_150_cif.got.tgz:298526.got - 2010.06.03 18:47:42.
