data_PCOD9290098
_publ_section_title
;
Structure prediction by ZEFSAII (Michael W. Deem and Ramdas Pophale) SiO2 
 PCOD9290098
Probable space group: C 2/C
;
_chemical_formula_sum "Si O2"
_cell_formula_units_Z 24
_cell_length_a 11.322572
_cell_length_b 14.795540
_cell_length_c 10.263593
_cell_angle_alpha 90.000000
_cell_angle_beta 38.377666
_cell_angle_gamma 90.000000
_cell_volume 1067.472255
_symmetry_space_group_name_H-M "C 2/C"
_symmetry_group_IT_number 15
_symmetry_cell_setting 'monoclinic'
loop_
_space_group_symop_operation_xyz
x,y,z
-x,y,1/2-z
-x,-y,-z
x,-y,1/2+z
1/2+x,1/2+y,z
1/2-x,1/2+y,1/2-z
1/2-x,1/2-y,-z
1/2+x,1/2-y,1/2+z
loop_
_atom_site_type_symbol
_atom_site_label
_atom_site_fract_x
_atom_site_fract_y
_atom_site_fract_z
Si Si1 0.800702 0.493028 0.742824
Si Si2 0.016824 0.128597 0.091161
Si Si3 0.655173 0.665552 0.515082
O O1 0.636832 0.454151 0.786878
O O2 0.000000 0.500000 0.500000
O O3 0.717791 0.584084 0.878470
O O4 0.797865 0.414039 0.853181
O O5 0.000000 0.167100 0.250000
O O6 0.949996 0.191383 0.029601
O O7 0.500000 0.629450 0.750000
O O8 0.750000 0.750000 0.500000
#
# Coordination Sequence:
#
# PCOD9290098 Si02
#       3
#     8   8   8
#     4   9  20  37  67  97 129 172 231 285 344 395
#     4   9  20  40  62  95 133 168 230 293 324 397
#     4  10  22  41  61  94 139 180 219 277 347 417
#
# _framework density 22.483018000000001
#
# number of rings (size 3 to 8) (size 9 to 14) (size 15 to 20)
#    2.000    0.667    0.000    1.000    0.000    4.000 
#    0.000    1.667    0.000    0.000    0.000    0.000 
#    0.000    0.000    0.000    0.000    0.000    0.000 
#
# Total GULP energy -66931.912138 kJ/mol
# GULP energy per Si atom -5577.659345 kJ/mol
# Density = 2.243185 g / cm^3
# Si number density = 22.483018 Si / 1000 Ang^3
#
#
#
# Elastic Constant Matrix: (Units=GPa)
#
#
# Indices 1 2 3 4 5 6 
#
# 1 104.0873 43.9529 73.6457 -0.0006 32.6733 0.0004
# 2 43.9529 80.8174 51.5952 -0.0003 4.7890 0.0003
# 3 73.6457 51.5952 219.6271 -0.0005 -10.9728 0.0006
# 4 -0.0006 -0.0003 -0.0005 14.4590 0.0005 14.2252
# 5 32.6733 4.7890 -10.9728 0.0005 56.3450 -0.0004
# 6 0.0004 0.0003 0.0006 14.2252 -0.0004 46.4124
#
#
#
# Elastic Compliance Matrix: (Units=1/GPa)
#
#
# Indices 1 2 3 4 5 6 
#
# 1 0.020552 -0.006632 -0.005959 0.000001 -0.012515 -0.000001
# 2 -0.006632 0.016906 -0.001643 0.000000 0.002089 0.000000
# 3 -0.005959 -0.001643 0.007187 0.000000 0.004995 0.000000
# 4 0.000001 0.000000 0.000000 0.099019 -0.000002 -0.030349
# 5 -0.012515 0.002089 0.004995 -0.000002 0.025800 0.000001
# 6 -0.000001 0.000000 0.000000 -0.030349 0.000001 0.030848
#
#
# Mechanical properties :
#
#
# Convention : Reuss Voigt Hill
#
# Bulk Modulus (GPa) = 61.81659 82.54658 72.18158
# Shear Modulus (GPa) = 21.35186 39.13249 30.24217
#
# Velocity S-wave (km/s) = 3.08504 4.17650 3.67156
# Velocity P-wave (km/s) = 6.34385 7.74934 7.08155
#
# Compressibility (1/GPa) = 0.01617689
#
# Stress axis : x y z
#
# Youngs Moduli (GPa) = 48.65680 59.15200 139.14106
#
# Poissons Ratio (x) = 0.39227 0.82913
# Poissons Ratio (y) = 0.32267 0.22867
# Poissons Ratio (z) = 0.28994 0.09721
#
# Static dielectric constant tensor:
#      x y z
#    x 1.950650 0.000000 0.017130 
#    y 0.000000 1.851760 0.000000 
#    z 0.017130 0.000000 1.810150 
# 
# From -- ./inp_files/29664.got.cif
#   From: 2010.05.17/outbox.cif.g08.bks.cpg/sg15_15_cif.got.tgz:29664.got - 2010.06.03 18:47:42.
