data_PCOD9290953
_publ_section_title
;
Structure prediction by ZEFSAII (Michael W. Deem and Ramdas Pophale) SiO2 
 PCOD9290953
Probable space group: C 2/C
;
_chemical_formula_sum "Si O2"
_cell_formula_units_Z 52
_cell_length_a 23.235875
_cell_length_b 8.231751
_cell_length_c 13.952498
_cell_angle_alpha 90.000000
_cell_angle_beta 124.318657
_cell_angle_gamma 90.000000
_cell_volume 2204.136309
_symmetry_space_group_name_H-M "C 2/C"
_symmetry_group_IT_number 15
_symmetry_cell_setting 'monoclinic'
loop_
_space_group_symop_operation_xyz
x,y,z
-x,y,1/2-z
-x,-y,-z
x,-y,1/2+z
1/2+x,1/2+y,z
1/2-x,1/2+y,1/2-z
1/2-x,1/2-y,-z
1/2+x,1/2-y,1/2+z
loop_
_atom_site_type_symbol
_atom_site_label
_atom_site_fract_x
_atom_site_fract_y
_atom_site_fract_z
Si Si1 0.835522 0.977725 0.310459
Si Si2 0.949460 0.486293 0.860839
Si Si3 0.250000 0.250000 0.500000
Si Si4 0.095696 0.023859 0.442723
Si Si5 0.500000 0.229613 0.750000
Si Si6 0.000000 0.763567 0.250000
Si Si7 0.688004 0.846400 0.245436
Si Si8 0.217811 0.079152 0.935935
O O1 0.761827 0.903539 0.274073
O O2 0.837417 0.915991 0.203034
O O3 0.898796 0.932374 0.440300
O O4 0.833901 0.173535 0.319849
O O5 0.961240 0.340737 0.796035
O O6 0.870441 0.515994 0.820536
O O7 0.969081 0.634278 0.809848
O O8 0.000000 0.500000 0.000000
O O9 0.301116 0.195572 0.633613
O O10 0.231828 0.428896 0.541780
O O11 0.053430 0.868976 0.364861
O O12 0.175616 0.004323 0.483818
O O13 0.061601 0.165848 0.351664
O O14 0.250000 0.250000 0.000000
#
# Coordination Sequence:
#
# PCOD9290953 Si02
#       8
#     8   8   4   8   4   4   8   8
#     4  11  24  41  69 104 133 182 228 291 358 432
#     4  11  25  47  67  99 136 184 234 291 351 430
#     4  10  22  42  62 100 140 178 222 286 350 422
#     4  11  23  45  67 101 137 178 239 290 348 429
#     4  10  24  46  70  92 136 188 228 290 358 406
#     4  10  26  42  70  98 132 188 238 286 350 424
#     4  11  24  43  66 101 138 178 230 289 360 422
#     4  11  24  42  69 103 144 181 228 293 361 424
#
# _framework density 23.592009000000001
#
# number of rings (size 3 to 8) (size 9 to 14) (size 15 to 20)
#    0.000    1.231    1.538    3.692    2.154    2.462 
#    5.538    3.846    0.000    0.000    0.000    0.000 
#    0.000    0.000    0.000    0.000    0.000    0.000 
#
# Total GULP energy -144740.413566 kJ/mol
# GULP energy per Si atom -5566.938983 kJ/mol
# Density = 2.353831 g / cm^3
# Si number density = 23.592009 Si / 1000 Ang^3
#
#
#
# Elastic Constant Matrix: (Units=GPa)
#
#
# Indices 1 2 3 4 5 6 
#
# 1 26.6313 26.2072 -4.9758 0.0000 7.4884 0.0000
# 2 26.2072 82.0797 58.9124 0.0000 -5.3086 0.0000
# 3 -4.9758 58.9124 178.1362 0.0000 -16.7328 0.0000
# 4 0.0000 0.0000 0.0000 28.8608 0.0000 5.6613
# 5 7.4884 -5.3086 -16.7328 0.0000 27.5356 0.0000
# 6 0.0000 0.0000 0.0000 5.6613 0.0000 19.7864
#
#
#
# Elastic Compliance Matrix: (Units=1/GPa)
#
#
# Indices 1 2 3 4 5 6 
#
# 1 0.081605 -0.036233 0.012219 0.000000 -0.021753 0.000000
# 2 -0.036233 0.032063 -0.010722 0.000000 0.009520 0.000000
# 3 0.012219 -0.010722 0.009539 0.000000 0.000407 0.000000
# 4 0.000000 0.000000 0.000000 0.036709 0.000000 -0.010503
# 5 -0.021753 0.009520 0.000407 0.000000 0.044315 0.000000
# 6 0.000000 0.000000 0.000000 -0.010503 0.000000 0.053545
#
#
# Mechanical properties :
#
#
# Convention : Reuss Voigt Hill
#
# Bulk Modulus (GPa) = 18.60933 49.68165 34.14549
# Shear Modulus (GPa) = 14.48602 29.01677 21.75140
#
# Velocity S-wave (km/s) = 2.48064 3.51086 3.03971
# Velocity P-wave (km/s) = 4.01371 6.12692 5.17924
#
# Compressibility (1/GPa) = 0.05373648
#
# Stress axis : x y z
#
# Youngs Moduli (GPa) = 12.25409 31.18842 104.83285
#
# Poissons Ratio (x) = 1.13004 -1.28094
# Poissons Ratio (y) = 0.44400 1.12398
# Poissons Ratio (z) = -0.14973 0.33439
#
# Static dielectric constant tensor:
#      x y z
#    x 2.318890 0.000000 0.061180 
#    y 0.000000 2.083750 0.000000 
#    z 0.061180 0.000000 1.899500 
# 
# From -- ./inp_files/172074.got.cif
#   From: 2010.05.17/outbox.cif.g08.bks.cpg/sg15_87_cif.got.tgz:172074.got - 2010.06.03 18:47:42.
