data_PCOD9290343
_publ_section_title
;
Structure prediction by ZEFSAII (Michael W. Deem and Ramdas Pophale) SiO2 
 PCOD9290343
Probable space group: C 2/C
;
_chemical_formula_sum "Si O2"
_cell_formula_units_Z 44
_cell_length_a 26.835070
_cell_length_b 11.409502
_cell_length_c 21.238651
_cell_angle_alpha 90.000000
_cell_angle_beta 17.179653
_cell_angle_gamma 90.000000
_cell_volume 1920.706274
_symmetry_space_group_name_H-M "C 2/C"
_symmetry_group_IT_number 15
_symmetry_cell_setting 'monoclinic'
loop_
_space_group_symop_operation_xyz
x,y,z
-x,y,1/2-z
-x,-y,-z
x,-y,1/2+z
1/2+x,1/2+y,z
1/2-x,1/2+y,1/2-z
1/2-x,1/2-y,-z
1/2+x,1/2-y,1/2+z
loop_
_atom_site_type_symbol
_atom_site_label
_atom_site_fract_x
_atom_site_fract_y
_atom_site_fract_z
Si Si1 0.669234 0.510580 0.216844
Si Si2 0.000000 0.582908 0.250000
Si Si3 0.594417 0.131585 0.487045
Si Si4 0.195905 0.227512 0.745405
Si Si5 0.442162 0.881142 0.683741
Si Si6 0.572470 0.316660 0.727688
O O1 0.722980 0.581808 0.214121
O O2 0.612997 0.384633 0.310414
O O3 0.571449 0.585843 0.283774
O O4 0.846814 0.487031 0.966209
O O5 0.921381 0.642759 0.283214
O O6 0.599676 0.209031 0.418187
O O7 0.544739 0.214374 0.604422
O O8 0.470039 0.019019 0.634948
O O9 0.377084 0.179993 0.549869
O O10 0.203791 0.325030 0.681378
O O11 0.500000 0.364695 0.750000
O O12 0.750000 0.250000 0.500000
#
# Coordination Sequence:
#
# PCOD9290343 Si02
#       6
#     8   4   8   8   8   8
#     4  10  22  42  62  97 127 165 212 275 310 380
#     4   8  18  42  64  80 134 166 202 264 318 370
#     4  10  22  41  67  86 133 170 206 265 324 380
#     4  10  23  42  61  94 129 166 213 255 325 379
#     4  10  22  41  65  91 125 173 212 261 319 384
#     4  12  23  41  67  95 124 168 218 262 323 371
#
# _framework density 22.908239999999999
#
# number of rings (size 3 to 8) (size 9 to 14) (size 15 to 20)
#    0.000    2.182    1.818    2.727    3.818    3.636 
#   11.455    0.000    0.000    0.000    0.000    0.000 
#    0.000    0.000    0.000    0.000    0.000    0.000 
#
# Total GULP energy -122736.502372 kJ/mol
# GULP energy per Si atom -5578.931926 kJ/mol
# Density = 2.285610 g / cm^3
# Si number density = 22.908240 Si / 1000 Ang^3
#
#
#
# Elastic Constant Matrix: (Units=GPa)
#
#
# Indices 1 2 3 4 5 6 
#
# 1 116.4884 58.7332 -3.3052 0.0003 18.6500 -0.0002
# 2 58.7332 129.8410 7.5565 0.0006 9.8872 -0.0004
# 3 -3.3052 7.5565 34.9782 0.0007 18.0119 -0.0004
# 4 0.0003 0.0006 0.0007 17.2662 -0.0004 1.8555
# 5 18.6500 9.8872 18.0119 -0.0004 27.1956 0.0003
# 6 -0.0002 -0.0004 -0.0004 1.8555 0.0003 49.9547
#
#
#
# Elastic Compliance Matrix: (Units=1/GPa)
#
#
# Indices 1 2 3 4 5 6 
#
# 1 0.014063 -0.005866 0.009810 -0.000001 -0.014009 0.000000
# 2 -0.005866 0.010370 -0.004438 0.000000 0.003192 0.000000
# 3 0.009810 -0.004438 0.050244 -0.000003 -0.038391 0.000001
# 4 -0.000001 0.000000 -0.000003 0.058149 0.000003 -0.002160
# 5 -0.014009 0.003192 -0.038391 0.000003 0.070644 -0.000001
# 6 0.000000 0.000000 0.000001 -0.002160 -0.000001 0.020098
#
#
# Mechanical properties :
#
#
# Convention : Reuss Voigt Hill
#
# Bulk Modulus (GPa) = 13.57037 45.25294 29.41165
# Shear Modulus (GPa) = 20.07066 33.43817 26.75441
#
# Velocity S-wave (km/s) = 2.96316 3.82469 3.42115
# Velocity P-wave (km/s) = 4.20045 6.26907 5.33596
#
# Compressibility (1/GPa) = 0.07368997
#
# Stress axis : x y z
#
# Youngs Moduli (GPa) = 71.10805 96.42969 19.90271
#
# Poissons Ratio (x) = 0.56561 -0.19524
# Poissons Ratio (y) = 0.41709 0.08833
# Poissons Ratio (z) = -0.69755 0.42796
#
# Static dielectric constant tensor:
#      x y z
#    x 1.932050 0.000000 -0.020140 
#    y 0.000000 1.878900 0.000000 
#    z -0.020140 0.000000 1.872790 
# 
# From -- ./inp_files/257473.got.cif
#   From: 2010.05.17/outbox.cif.g08.bks.cpg/sg15_129_cif.got.tgz:257473.got - 2010.06.03 18:47:42.
