data_PCOD9290831
_publ_section_title
;
Structure prediction by ZEFSAII (Michael W. Deem and Ramdas Pophale) SiO2 
 PCOD9290831
Probable space group: C 2/C
;
_chemical_formula_sum "Si O2"
_cell_formula_units_Z 44
_cell_length_a 22.603947
_cell_length_b 12.646097
_cell_length_c 8.470808
_cell_angle_alpha 90.000000
_cell_angle_beta 50.618647
_cell_angle_gamma 90.000000
_cell_volume 1871.593248
_symmetry_space_group_name_H-M "C 2/C"
_symmetry_group_IT_number 15
_symmetry_cell_setting 'monoclinic'
loop_
_space_group_symop_operation_xyz
x,y,z
-x,y,1/2-z
-x,-y,-z
x,-y,1/2+z
1/2+x,1/2+y,z
1/2-x,1/2+y,1/2-z
1/2-x,1/2-y,-z
1/2+x,1/2-y,1/2+z
loop_
_atom_site_type_symbol
_atom_site_label
_atom_site_fract_x
_atom_site_fract_y
_atom_site_fract_z
Si Si1 0.000000 0.821150 0.750000
Si Si2 0.576879 0.058081 0.235207
Si Si3 0.136789 0.057378 0.011776
Si Si4 0.729303 0.181855 0.879438
Si Si5 0.642056 0.343389 0.853686
Si Si6 0.951731 0.333309 0.100287
O O1 0.943247 0.738791 0.766177
O O2 0.057970 0.899668 0.566669
O O3 0.500000 0.047283 0.250000
O O4 0.539872 0.136941 0.424948
O O5 0.589699 0.944273 0.295533
O O6 0.654138 0.108220 0.038545
O O7 0.205341 0.105732 0.795156
O O8 0.136945 0.931764 0.995659
O O9 0.141831 0.095646 0.186120
O O10 0.713950 0.268459 0.767894
O O11 0.750000 0.250000 0.000000
O O12 0.575393 0.254171 0.978968
#
# Coordination Sequence:
#
# PCOD9290831 Si02
#       6
#     4   8   8   8   8   8
#     4  10  22  42  66  98 140 182 230 292 348 434
#     4  11  22  43  71 104 138 182 235 289 360 433
#     4  11  26  44  68 102 139 191 242 292 362 425
#     4  12  26  45  71 107 145 187 238 304 366 435
#     4  11  25  47  70 100 144 193 240 300 356 431
#     4  10  22  41  71 103 137 185 235 287 359 427
#
# _framework density 23.509383
#
# number of rings (size 3 to 8) (size 9 to 14) (size 15 to 20)
#    0.000    1.091    2.727    2.727    0.000   10.182 
#    0.000    0.000    0.000    0.000    0.000    0.000 
#    0.000    0.000    0.000    0.000    0.000    0.000 
#
# Total GULP energy -122534.503642 kJ/mol
# GULP energy per Si atom -5569.750166 kJ/mol
# Density = 2.345587 g / cm^3
# Si number density = 23.509383 Si / 1000 Ang^3
#
#
#
# Elastic Constant Matrix: (Units=GPa)
#
#
# Indices 1 2 3 4 5 6 
#
# 1 67.7793 67.2075 36.3261 0.0000 -5.5497 0.0000
# 2 67.2075 189.8633 58.8849 0.0000 -24.1725 0.0000
# 3 36.3261 58.8849 100.2346 0.0000 -22.2424 0.0000
# 4 0.0000 0.0000 0.0000 20.0031 0.0000 0.9827
# 5 -5.5497 -24.1725 -22.2424 0.0000 32.6979 0.0000
# 6 0.0000 0.0000 0.0000 0.9827 0.0000 40.5043
#
#
#
# Elastic Compliance Matrix: (Units=1/GPa)
#
#
# Indices 1 2 3 4 5 6 
#
# 1 0.025112 -0.007804 -0.005713 0.000000 -0.005393 0.000000
# 2 -0.007804 0.009055 -0.001531 0.000000 0.004328 0.000000
# 3 -0.005713 -0.001531 0.014699 0.000000 0.007897 0.000000
# 4 0.000000 0.000000 0.000000 0.050052 0.000000 -0.001214
# 5 -0.005393 0.004328 0.007897 0.000000 0.038239 0.000000
# 6 0.000000 0.000000 0.000000 -0.001214 0.000000 0.024718
#
#
# Mechanical properties :
#
#
# Convention : Reuss Voigt Hill
#
# Bulk Modulus (GPa) = 53.27579 75.85713 64.56646
# Shear Modulus (GPa) = 25.22337 31.67164 28.44750
#
# Velocity S-wave (km/s) = 3.27908 3.67439 3.48235
# Velocity P-wave (km/s) = 6.08664 7.09495 6.61005
#
# Compressibility (1/GPa) = 0.01877025
#
# Stress axis : x y z
#
# Youngs Moduli (GPa) = 39.82126 110.43308 68.03199
#
# Poissons Ratio (x) = 0.86181 0.38868
# Poissons Ratio (y) = 0.31076 0.10416
# Poissons Ratio (z) = 0.22750 0.16907
#
# Static dielectric constant tensor:
#      x y z
#    x 2.192110 0.000000 0.118900 
#    y 0.000000 1.835680 0.000000 
#    z 0.118900 0.000000 1.898510 
# 
# From -- ./inp_files/65327.got.cif
#   From: 2010.05.17/outbox.cif.g08.bks.cpg/sg15_33_cif.got.tgz:65327.got - 2010.06.03 18:47:42.
