data_PCOD9290249
_publ_section_title
;
Structure prediction by ZEFSAII (Michael W. Deem and Ramdas Pophale) SiO2 
 PCOD9290249
Probable space group: C 2/C
;
_chemical_formula_sum "Si O2"
_cell_formula_units_Z 64
_cell_length_a 7.472653
_cell_length_b 15.228380
_cell_length_c 26.586784
_cell_angle_alpha 90.000000
_cell_angle_beta 110.268780
_cell_angle_gamma 90.000000
_cell_volume 2838.136012
_symmetry_space_group_name_H-M "C 2/C"
_symmetry_group_IT_number 15
_symmetry_cell_setting 'monoclinic'
loop_
_space_group_symop_operation_xyz
x,y,z
-x,y,1/2-z
-x,-y,-z
x,-y,1/2+z
1/2+x,1/2+y,z
1/2-x,1/2+y,1/2-z
1/2-x,1/2-y,-z
1/2+x,1/2-y,1/2+z
loop_
_atom_site_type_symbol
_atom_site_label
_atom_site_fract_x
_atom_site_fract_y
_atom_site_fract_z
Si Si1 0.693193 0.967212 0.045330
Si Si2 0.229795 0.201772 0.607109
Si Si3 0.803540 0.109416 0.139455
Si Si4 0.899733 0.170646 0.500618
Si Si5 0.315791 0.828671 0.365576
Si Si6 0.274525 0.964922 0.171501
Si Si7 0.329335 0.643516 0.379234
Si Si8 0.227526 0.468956 0.215684
O O1 0.825310 0.922037 0.016069
O O2 0.679088 0.887988 0.084192
O O3 0.762465 0.047839 0.086855
O O4 0.500000 0.000000 0.000000
O O5 0.194170 0.298549 0.625555
O O6 0.457069 0.190009 0.620526
O O7 0.101931 0.192789 0.545194
O O8 0.177920 0.120416 0.638086
O O9 0.764412 0.054349 0.185426
O O10 0.022025 0.135737 0.152151
O O11 0.750000 0.250000 0.500000
O O12 0.917223 0.158952 0.442728
O O13 0.217161 0.734031 0.360444
O O14 0.217827 0.884475 0.311985
O O15 0.262727 0.048184 0.133168
O O16 0.500695 0.953767 0.198009
O O17 0.197076 0.977615 0.220498
#
# Coordination Sequence:
#
# PCOD9290249 Si02
#       8
#     8   8   8   8   8   8   8   8
#     4  11  23  37  60  88 123 168 200 252 308 368
#     4  10  23  40  63  90 125 166 206 254 303 378
#     4  10  23  39  62  92 124 161 208 253 310 366
#     4  12  25  39  61  92 131 166 210 257 314 372
#     4   9  21  41  61  89 124 160 207 251 308 371
#     4  10  22  41  64  92 120 163 209 255 316 366
#     4  11  24  39  61  93 125 164 207 256 302 377
#     4   9  21  42  66  88 123 160 204 262 313 371
#
# _framework density 22.550011999999999
#
# number of rings (size 3 to 8) (size 9 to 14) (size 15 to 20)
#    0.000    1.750    1.250    1.500    8.750    3.500 
#    0.000    2.500    0.000    0.000    0.000    0.000 
#    0.000    0.000    0.000    0.000    0.000    0.000 
#
# Total GULP energy -178626.957964 kJ/mol
# GULP energy per Si atom -5582.092436 kJ/mol
# Density = 2.249869 g / cm^3
# Si number density = 22.550012 Si / 1000 Ang^3
#
#
#
# Elastic Constant Matrix: (Units=GPa)
#
#
# Indices 1 2 3 4 5 6 
#
# 1 46.2061 7.6271 6.2519 0.0000 -4.2563 0.0000
# 2 7.6271 194.4207 67.2047 0.0000 -11.6343 0.0000
# 3 6.2519 67.2047 111.5601 0.0000 -22.5851 0.0000
# 4 0.0000 0.0000 0.0000 19.4838 0.0000 -1.1913
# 5 -4.2563 -11.6343 -22.5851 0.0000 31.5994 0.0000
# 6 0.0000 0.0000 0.0000 -1.1913 0.0000 24.7133
#
#
#
# Elastic Compliance Matrix: (Units=1/GPa)
#
#
# Indices 1 2 3 4 5 6 
#
# 1 0.022018 -0.000584 -0.000380 0.000000 0.002479 0.000000
# 2 -0.000584 0.006518 -0.004003 0.000000 -0.000540 0.000000
# 3 -0.000380 -0.004003 0.012964 0.000000 0.007740 0.000000
# 4 0.000000 0.000000 0.000000 0.051476 0.000000 0.002481
# 5 0.002479 -0.000540 0.007740 0.000000 0.037314 0.000000
# 6 0.000000 0.000000 0.000000 0.002481 0.000000 0.040584
#
#
# Mechanical properties :
#
#
# Convention : Reuss Voigt Hill
#
# Bulk Modulus (GPa) = 31.68036 57.15045 44.41541
# Shear Modulus (GPa) = 26.13293 33.23285 29.68289
#
# Velocity S-wave (km/s) = 3.40794 3.84310 3.63204
# Velocity P-wave (km/s) = 5.43735 6.71501 6.10967
#
# Compressibility (1/GPa) = 0.03156530
#
# Stress axis : x y z
#
# Youngs Moduli (GPa) = 45.41659 153.42683 77.13946
#
# Poissons Ratio (x) = 0.08960 0.02933
# Poissons Ratio (y) = 0.02652 0.30878
# Poissons Ratio (z) = 0.01727 0.61416
#
# Static dielectric constant tensor:
#      x y z
#    x 3.384390 0.000000 0.377420 
#    y 0.000000 1.905420 0.000000 
#    z 0.377420 0.000000 1.904220 
# 
# From -- ./inp_files/288819.got.cif
#   From: 2010.05.17/outbox.cif.g08.bks.cpg/sg15_145_cif.got.tgz:288819.got - 2010.06.03 18:47:42.
