data_PCOD9290918
_publ_section_title
;
Structure prediction by ZEFSAII (Michael W. Deem and Ramdas Pophale) SiO2 
 PCOD9290918
Probable space group: C 2/C
;
_chemical_formula_sum "Si O2"
_cell_formula_units_Z 48
_cell_length_a 7.519677
_cell_length_b 12.571513
_cell_length_c 23.035212
_cell_angle_alpha 90.000000
_cell_angle_beta 71.965863
_cell_angle_gamma 90.000000
_cell_volume 2070.623386
_symmetry_space_group_name_H-M "C 2/C"
_symmetry_group_IT_number 15
_symmetry_cell_setting 'monoclinic'
loop_
_space_group_symop_operation_xyz
x,y,z
-x,y,1/2-z
-x,-y,-z
x,-y,1/2+z
1/2+x,1/2+y,z
1/2-x,1/2+y,1/2-z
1/2-x,1/2-y,-z
1/2+x,1/2-y,1/2+z
loop_
_atom_site_type_symbol
_atom_site_label
_atom_site_fract_x
_atom_site_fract_y
_atom_site_fract_z
Si Si1 0.000000 0.433651 0.750000
Si Si2 0.043550 0.743727 0.453875
Si Si3 0.000000 0.028894 0.750000
Si Si4 0.752133 0.621236 0.564388
Si Si5 0.886170 0.888605 0.945407
Si Si6 0.895028 0.849790 0.678969
Si Si7 0.386435 0.113262 0.681270
O O1 0.187042 0.365719 0.724640
O O2 0.999876 0.514512 0.804817
O O3 0.104147 0.837327 0.492231
O O4 0.228608 0.675798 0.424582
O O5 0.901237 0.669123 0.504321
O O6 0.924530 0.797906 0.414996
O O7 0.815113 0.098133 0.767854
O O8 0.010071 0.946947 0.695335
O O9 0.674471 0.509929 0.548897
O O10 0.850072 0.607322 0.616346
O O11 0.079941 0.867384 0.892320
O O12 0.961038 0.730877 0.686445
#
# Coordination Sequence:
#
# PCOD9290918 Si02
#       7
#     4   8   4   8   8   8   8
#     4  10  26  42  64  90 128 166 214 266 316 382
#     4  10  24  42  62  94 130 166 208 264 316 374
#     4  10  22  42  60  86 124 154 214 258 312 370
#     4  11  22  42  64  92 127 166 210 258 317 377
#     4  11  22  42  64  92 127 166 210 258 317 377
#     4  11  22  42  63  91 122 166 207 261 317 376
#     4  11  22  42  63  91 122 166 207 261 317 376
#
# _framework density 23.181424
#
# number of rings (size 3 to 8) (size 9 to 14) (size 15 to 20)
#    0.000    1.333    3.333    2.000    0.000    2.667 
#    6.000    0.000    0.000    0.000    0.000    0.000 
#    0.000    0.000    0.000    0.000    0.000    0.000 
#
# Total GULP energy -134198.803853 kJ/mol
# GULP energy per Si atom -5591.616827 kJ/mol
# Density = 2.312866 g / cm^3
# Si number density = 23.181424 Si / 1000 Ang^3
#
#
#
# Elastic Constant Matrix: (Units=GPa)
#
#
# Indices 1 2 3 4 5 6 
#
# 1 49.8166 12.7975 -0.1760 0.0000 -8.3628 0.0000
# 2 12.7975 112.2232 13.8758 0.0000 -8.7739 0.0000
# 3 -0.1760 13.8758 39.7774 0.0000 2.4498 0.0000
# 4 0.0000 0.0000 0.0000 10.8195 0.0000 2.4440
# 5 -8.3628 -8.7739 2.4498 0.0000 28.2024 0.0000
# 6 0.0000 0.0000 0.0000 2.4440 0.0000 -5.5063
#
#
#
# Elastic Compliance Matrix: (Units=1/GPa)
#
#
# Indices 1 2 3 4 5 6 
#
# 1 0.021566 -0.002070 0.000466 0.000000 0.005710 0.000000
# 2 -0.002070 0.009807 -0.003600 0.000000 0.002750 0.000000
# 3 0.000466 -0.003600 0.026600 0.000000 -0.003292 0.000000
# 4 0.000000 0.000000 0.000000 0.084003 0.000000 0.037286
# 5 0.005710 0.002750 -0.003292 0.000000 0.038293 0.000000
# 6 0.000000 0.000000 0.000000 0.037286 0.000000 -0.165060
#
#
# Mechanical properties :
#
#
# Convention : Reuss Voigt Hill
#
# Bulk Modulus (GPa) = 21.02380 28.31242 24.66811
# Shear Modulus (GPa) = 120.56429 18.39110 69.47770
#
# Velocity S-wave (km/s) = 7.21955 2.81971 5.48054
# Velocity P-wave (km/s) = 8.86481 4.77922 7.12130
#
# Compressibility (1/GPa) = 0.04756513
#
# Stress axis : x y z
#
# Youngs Moduli (GPa) = 46.36979 101.96832 37.59342
#
# Poissons Ratio (x) = 0.21112 -0.01752
# Poissons Ratio (y) = 0.09601 0.13532
# Poissons Ratio (z) = -0.02161 0.36704
#
# Static dielectric constant tensor:
#      x y z
#    x 1.904320 0.000000 0.024950 
#    y 0.000000 1.835360 0.000000 
#    z 0.024950 0.000000 1.909390 
# 
# From -- ./inp_files/263520.got.cif
#   From: 2010.05.17/outbox.cif.g08.bks.cpg/sg15_132_cif.got.tgz:263520.got - 2010.06.03 18:47:42.
