data_PCOD9290189
_publ_section_title
;
Structure prediction by ZEFSAII (Michael W. Deem and Ramdas Pophale) SiO2 
 PCOD9290189
Probable space group: C 2/C
;
_chemical_formula_sum "Si O2"
_cell_formula_units_Z 56
_cell_length_a 8.338279
_cell_length_b 15.729899
_cell_length_c 27.145590
_cell_angle_alpha 90.000000
_cell_angle_beta 129.050190
_cell_angle_gamma 90.000000
_cell_volume 2765.004812
_symmetry_space_group_name_H-M "C 2/C"
_symmetry_group_IT_number 15
_symmetry_cell_setting 'monoclinic'
loop_
_space_group_symop_operation_xyz
x,y,z
-x,y,1/2-z
-x,-y,-z
x,-y,1/2+z
1/2+x,1/2+y,z
1/2-x,1/2+y,1/2-z
1/2-x,1/2-y,-z
1/2+x,1/2-y,1/2+z
loop_
_atom_site_type_symbol
_atom_site_label
_atom_site_fract_x
_atom_site_fract_y
_atom_site_fract_z
Si Si1 0.043796 0.728175 0.106040
Si Si2 0.590678 0.319214 0.950297
Si Si3 0.655248 0.370857 0.503010
Si Si4 0.759546 0.509370 0.446542
Si Si5 0.475518 0.696277 0.326193
Si Si6 0.625787 0.684992 0.722406
Si Si7 0.967843 0.002598 0.302063
O O1 0.891841 0.650249 0.063783
O O2 0.017127 0.766909 0.155584
O O3 0.284687 0.706676 0.143814
O O4 0.955614 0.799094 0.051679
O O5 0.466507 0.363890 0.969660
O O6 0.713014 0.392979 0.946674
O O7 0.454997 0.281215 0.880075
O O8 0.750000 0.250000 0.000000
O O9 0.651544 0.453681 0.468304
O O10 0.668989 0.486350 0.375427
O O11 0.000000 0.500000 0.500000
O O12 0.664263 0.762991 0.229431
O O13 0.399452 0.598335 0.304060
O O14 0.500000 0.687857 0.750000
O O15 0.659428 0.585115 0.715626
O O16 0.000000 0.008938 0.250000
#
# Coordination Sequence:
#
# PCOD9290189 Si02
#       7
#     8   8   8   8   8   8   8
#     4  11  22  39  66  94 130 171 214 275 328 395
#     4  11  23  40  64  98 131 171 220 278 335 397
#     4  11  22  40  63  96 135 166 221 272 334 393
#     4  11  24  41  68  97 133 176 224 275 341 406
#     4  11  23  43  67  94 129 176 223 269 339 403
#     4  11  23  41  65  92 128 172 222 275 326 400
#     4  10  22  41  63  92 129 168 220 265 326 404
#
# _framework density 20.253128
#
# number of rings (size 3 to 8) (size 9 to 14) (size 15 to 20)
#    0.000    1.143    2.857    4.286    2.000    2.286 
#    0.000    1.429    0.000    0.000    0.000    0.000 
#    0.000    0.000    0.000    0.000    0.000    0.000 
#
# Total GULP energy -156150.317588 kJ/mol
# GULP energy per Si atom -5576.797057 kJ/mol
# Density = 2.020703 g / cm^3
# Si number density = 20.253128 Si / 1000 Ang^3
#
#
#
# Elastic Constant Matrix: (Units=GPa)
#
#
# Indices 1 2 3 4 5 6 
#
# 1 82.2629 20.5550 35.8122 0.0000 2.7055 0.0000
# 2 20.5550 114.5130 47.5843 0.0000 15.4275 0.0000
# 3 35.8122 47.5843 156.9912 0.0000 -9.0046 0.0000
# 4 0.0000 0.0000 0.0000 39.6778 0.0000 -1.3624
# 5 2.7055 15.4275 -9.0046 0.0000 37.6629 0.0000
# 6 0.0000 0.0000 0.0000 -1.3624 0.0000 17.6613
#
#
#
# Elastic Compliance Matrix: (Units=1/GPa)
#
#
# Indices 1 2 3 4 5 6 
#
# 1 0.013720 -0.001109 -0.002863 0.000000 -0.001216 0.000000
# 2 -0.001109 0.011053 -0.003399 0.000000 -0.005260 0.000000
# 3 -0.002863 -0.003399 0.008258 0.000000 0.003572 0.000000
# 4 0.000000 0.000000 0.000000 0.025270 0.000000 0.001949
# 5 -0.001216 -0.005260 0.003572 0.000000 0.029648 0.000000
# 6 0.000000 0.000000 0.000000 0.001949 0.000000 0.056771
#
#
# Mechanical properties :
#
#
# Convention : Reuss Voigt Hill
#
# Bulk Modulus (GPa) = 54.68021 62.40779 58.54400
# Shear Modulus (GPa) = 30.20098 35.65478 32.92788
#
# Velocity S-wave (km/s) = 3.86576 4.20033 4.03652
# Velocity P-wave (km/s) = 6.85438 7.37594 7.11994
#
# Compressibility (1/GPa) = 0.01828815
#
# Stress axis : x y z
#
# Youngs Moduli (GPa) = 72.88765 90.47534 121.09438
#
# Poissons Ratio (x) = 0.10035 0.34672
# Poissons Ratio (y) = 0.08084 0.41158
# Poissons Ratio (z) = 0.20870 0.30751
#
# Static dielectric constant tensor:
#      x y z
#    x 1.730980 0.000000 0.015550 
#    y 0.000000 1.730350 0.000000 
#    z 0.015550 0.000000 1.930020 
# 
# From -- ./inp_files/264403.got.cif
#   From: 2010.05.17/outbox.cif.g08.bks.cpg/sg15_133_cif.got.tgz:264403.got - 2010.06.03 18:47:42.
