data_PCOD9290227
_publ_section_title
;
Structure prediction by ZEFSAII (Michael W. Deem and Ramdas Pophale) SiO2 
 PCOD9290227
Probable space group: C 2/C
;
_chemical_formula_sum "Si O2"
_cell_formula_units_Z 36
_cell_length_a 21.309767
_cell_length_b 4.666777
_cell_length_c 13.028658
_cell_angle_alpha 90.000000
_cell_angle_beta 105.584620
_cell_angle_gamma 90.000000
_cell_volume 1248.037290
_symmetry_space_group_name_H-M "C 2/C"
_symmetry_group_IT_number 15
_symmetry_cell_setting 'monoclinic'
loop_
_space_group_symop_operation_xyz
x,y,z
-x,y,1/2-z
-x,-y,-z
x,-y,1/2+z
1/2+x,1/2+y,z
1/2-x,1/2+y,1/2-z
1/2-x,1/2-y,-z
1/2+x,1/2-y,1/2+z
loop_
_atom_site_type_symbol
_atom_site_label
_atom_site_fract_x
_atom_site_fract_y
_atom_site_fract_z
Si Si1 0.336892 0.482981 0.190690
Si Si2 0.500000 0.629814 0.750000
Si Si3 0.546508 0.823711 0.148193
Si Si4 0.366405 0.169107 0.999615
Si Si5 0.708486 0.673633 0.615676
O O1 0.392779 0.675410 0.265943
O O2 0.308295 0.294792 0.271684
O O3 0.278492 0.689300 0.128483
O O4 0.366190 0.283475 0.114551
O O5 0.512396 0.384611 0.844985
O O6 0.464326 0.863816 0.808848
O O7 0.568505 0.808569 0.039859
O O8 0.306676 0.348297 0.921282
O O9 0.344899 0.845306 0.972927
#
# Coordination Sequence:
#
# PCOD9290227 Si02
#       5
#     8   4   8   8   8
#     4  11  23  42  66  94 129 171 206 247 307 377
#     4  10  22  44  62  84 124 158 208 280 316 348
#     4  10  22  41  64  88 120 164 210 262 316 364
#     4  11  24  41  64  97 130 163 206 254 303 371
#     4  11  24  39  62  98 135 166 201 246 302 372
#
# _framework density 28.845292000000001
#
# number of rings (size 3 to 8) (size 9 to 14) (size 15 to 20)
#    0.000    1.333    0.000    6.667    0.000    8.889 
#    0.000    6.667    0.000    0.000    0.000    0.000 
#    0.000    0.000    0.000    0.000    0.000    0.000 
#
# Total GULP energy -100860.109051 kJ/mol
# GULP energy per Si atom -5603.339392 kJ/mol
# Density = 2.877964 g / cm^3
# Si number density = 28.845292 Si / 1000 Ang^3
#
#
#
# Elastic Constant Matrix: (Units=GPa)
#
#
# Indices 1 2 3 4 5 6 
#
# 1 97.9599 20.2092 46.6137 0.0000 -24.9146 0.0000
# 2 20.2092 139.6622 32.7563 0.0000 -17.9259 0.0000
# 3 46.6137 32.7563 190.8026 0.0000 -51.2883 0.0000
# 4 0.0000 0.0000 0.0000 38.8010 0.0000 -5.2574
# 5 -24.9146 -17.9259 -51.2883 0.0000 68.1969 0.0000
# 6 0.0000 0.0000 0.0000 -5.2574 0.0000 41.2046
#
#
#
# Elastic Compliance Matrix: (Units=1/GPa)
#
#
# Indices 1 2 3 4 5 6 
#
# 1 0.012051 -0.000921 -0.002090 0.000000 0.002589 0.000000
# 2 -0.000921 0.007617 -0.000796 0.000000 0.001067 0.000000
# 3 -0.002090 -0.000796 0.007052 0.000000 0.004331 0.000000
# 4 0.000000 0.000000 0.000000 0.026226 0.000000 0.003346
# 5 0.002589 0.001067 0.004331 0.000000 0.019147 0.000000
# 6 0.000000 0.000000 0.000000 0.003346 0.000000 0.024696
#
#
# Mechanical properties :
#
#
# Convention : Reuss Voigt Hill
#
# Bulk Modulus (GPa) = 52.33864 69.73147 61.03506
# Shear Modulus (GPa) = 45.13732 51.56353 48.35042
#
# Velocity S-wave (km/s) = 3.96006 4.23258 4.09858
# Velocity P-wave (km/s) = 6.25247 6.93636 6.60327
#
# Compressibility (1/GPa) = 0.01910634
#
# Stress axis : x y z
#
# Youngs Moduli (GPa) = 82.97850 131.28439 141.79400
#
# Poissons Ratio (x) = 0.12096 0.29637
# Poissons Ratio (y) = 0.07645 0.11283
# Poissons Ratio (z) = 0.17344 0.10447
#
# Static dielectric constant tensor:
#      x y z
#    x 2.557160 0.000000 0.028960 
#    y 0.000000 2.117930 0.000000 
#    z 0.028960 0.000000 2.247710 
# 
# From -- ./inp_files/175017.got.cif
#   From: 2010.05.17/outbox.cif.g08.bks.cpg/sg15_88_cif.got.tgz:175017.got - 2010.06.03 18:47:42.
