data_PCOD9290738
_publ_section_title
;
Structure prediction by ZEFSAII (Michael W. Deem and Ramdas Pophale) SiO2 
 PCOD9290738
Probable space group: C 2/C
;
_chemical_formula_sum "Si O2"
_cell_formula_units_Z 48
_cell_length_a 7.467264
_cell_length_b 21.500850
_cell_length_c 13.787320
_cell_angle_alpha 90.000000
_cell_angle_beta 109.378628
_cell_angle_gamma 90.000000
_cell_volume 2088.181432
_symmetry_space_group_name_H-M "C 2/C"
_symmetry_group_IT_number 15
_symmetry_cell_setting 'monoclinic'
loop_
_space_group_symop_operation_xyz
x,y,z
-x,y,1/2-z
-x,-y,-z
x,-y,1/2+z
1/2+x,1/2+y,z
1/2-x,1/2+y,1/2-z
1/2-x,1/2-y,-z
1/2+x,1/2-y,1/2+z
loop_
_atom_site_type_symbol
_atom_site_label
_atom_site_fract_x
_atom_site_fract_y
_atom_site_fract_z
Si Si1 0.267268 0.638006 0.924484
Si Si2 0.219106 0.262401 0.256938
Si Si3 0.392789 0.591760 0.130569
Si Si4 0.477338 0.545569 0.631028
Si Si5 0.343735 0.850004 0.431087
Si Si6 0.452434 0.860590 0.842720
O O1 0.302232 0.692713 0.855159
O O2 0.339282 0.576614 0.883824
O O3 0.046136 0.635818 0.914174
O O4 0.392086 0.643076 0.045482
O O5 0.236833 0.296529 0.155653
O O6 0.324862 0.197404 0.284706
O O7 0.000000 0.254726 0.250000
O O8 0.500000 0.604579 0.250000
O O9 0.453683 0.526105 0.097800
O O10 0.173529 0.590041 0.121611
O O11 0.500000 0.542777 0.750000
O O12 0.299134 0.591892 0.585104
O O13 0.396459 0.835126 0.552411
O O14 0.500000 0.892230 0.750000
#
# Coordination Sequence:
#
# PCOD9290738 Si02
#       6
#     8   8   8   8   8   8
#     4  10  22  41  69  95 126 171 220 266 328 384
#     4  10  22  43  69  93 130 174 222 275 325 394
#     4  10  24  43  62  97 134 176 214 270 337 388
#     4  11  22  42  70  97 130 171 225 268 322 402
#     4  10  24  44  66  99 129 173 220 272 327 391
#     4  11  26  42  62 100 134 173 220 271 338 391
#
# _framework density 22.986509000000002
#
# number of rings (size 3 to 8) (size 9 to 14) (size 15 to 20)
#    0.000    1.667    1.667    1.000    4.667   10.667 
#    6.000    0.000    0.000    0.000    0.000    0.000 
#    0.000    0.000    0.000    0.000    0.000    0.000 
#
# Total GULP energy -133985.110021 kJ/mol
# GULP energy per Si atom -5582.712918 kJ/mol
# Density = 2.293419 g / cm^3
# Si number density = 22.986509 Si / 1000 Ang^3
#
#
#
# Elastic Constant Matrix: (Units=GPa)
#
#
# Indices 1 2 3 4 5 6 
#
# 1 39.8645 9.5129 -0.0724 0.0000 -2.0748 0.0000
# 2 9.5129 48.4781 -5.2971 0.0000 18.6711 0.0000
# 3 -0.0724 -5.2971 100.3578 0.0000 4.3207 0.0000
# 4 0.0000 0.0000 0.0000 -40.5352 0.0000 -6.9214
# 5 -2.0748 18.6711 4.3207 0.0000 30.4859 0.0000
# 6 0.0000 0.0000 0.0000 -6.9214 0.0000 23.5356
#
#
#
# Elastic Compliance Matrix: (Units=1/GPa)
#
#
# Indices 1 2 3 4 5 6 
#
# 1 0.027383 -0.008123 -0.000708 0.000000 0.006939 0.000000
# 2 -0.008123 0.029875 0.002397 0.000000 -0.019189 0.000000
# 3 -0.000708 0.002397 0.010218 0.000000 -0.002965 0.000000
# 4 0.000000 0.000000 0.000000 -0.023490 0.000000 -0.006908
# 5 0.006939 -0.019189 -0.002965 0.000000 0.045447 0.000000
# 6 0.000000 0.000000 0.000000 -0.006908 0.000000 0.040457
#
#
# Mechanical properties :
#
#
# Convention : Reuss Voigt Hill
#
# Bulk Modulus (GPa) = 18.31236 21.88746 20.09991
# Shear Modulus (GPa) = 31.06349 15.00106 23.03228
#
# Velocity S-wave (km/s) = 3.68010 2.55738 3.16886
# Velocity P-wave (km/s) = 5.10307 4.27350 4.70660
#
# Compressibility (1/GPa) = 0.05460791
#
# Stress axis : x y z
#
# Youngs Moduli (GPa) = 36.51853 33.47322 97.86650
#
# Poissons Ratio (x) = 0.27192 0.06927
# Poissons Ratio (y) = 0.29666 -0.23460
# Poissons Ratio (z) = 0.02585 -0.08024
#
# Static dielectric constant tensor:
#      x y z
#    x 1.923880 0.000000 -0.005810 
#    y 0.000000 1.853290 0.000000 
#    z -0.005810 0.000000 1.946800 
# 
# From -- ./inp_files/136948.got.cif
#   From: 2010.05.17/outbox.cif.g08.bks.cpg/sg15_69_cif.got.tgz:136948.got - 2010.06.03 18:47:42.
