data_PCOD9290311
_publ_section_title
;
Structure prediction by ZEFSAII (Michael W. Deem and Ramdas Pophale) SiO2 
 PCOD9290311
Probable space group: C 2/C
;
_chemical_formula_sum "Si O2"
_cell_formula_units_Z 56
_cell_length_a 14.386569
_cell_length_b 26.772543
_cell_length_c 14.308369
_cell_angle_alpha 90.000000
_cell_angle_beta 28.961840
_cell_angle_gamma 90.000000
_cell_volume 2668.615423
_symmetry_space_group_name_H-M "C 2/C"
_symmetry_group_IT_number 15
_symmetry_cell_setting 'monoclinic'
loop_
_space_group_symop_operation_xyz
x,y,z
-x,y,1/2-z
-x,-y,-z
x,-y,1/2+z
1/2+x,1/2+y,z
1/2-x,1/2+y,1/2-z
1/2-x,1/2-y,-z
1/2+x,1/2-y,1/2+z
loop_
_atom_site_type_symbol
_atom_site_label
_atom_site_fract_x
_atom_site_fract_y
_atom_site_fract_z
Si Si1 0.521968 0.295897 0.511676
Si Si2 0.304435 0.952006 0.362757
Si Si3 0.105238 0.585804 0.922296
Si Si4 0.303844 0.654142 0.475123
Si Si5 0.390068 0.817761 0.538756
Si Si6 0.831142 0.438643 0.823575
Si Si7 0.982488 0.135033 0.657952
O O1 0.688249 0.316076 0.434825
O O2 0.522790 0.236504 0.518966
O O3 0.320430 0.316263 0.728604
O O4 0.546083 0.319154 0.388182
O O5 0.500000 0.952698 0.250000
O O6 0.345049 0.940513 0.218769
O O7 0.192864 0.904520 0.502394
O O8 0.228825 0.008455 0.435832
O O9 0.301080 0.598009 0.804850
O O10 0.010532 0.638621 0.979293
O O11 0.948178 0.557882 0.123502
O O12 0.500000 0.667596 0.250000
O O13 0.142056 0.668904 0.542533
O O14 0.000000 0.428802 0.750000
O O15 0.674148 0.395325 0.961805
O O16 0.000000 0.150754 0.750000
#
# Coordination Sequence:
#
# PCOD9290311 Si02
#       7
#     8   8   8   8   8   8   8
#     4  11  23  42  65 101 135 178 223 272 341 402
#     4  11  23  41  68  99 136 177 223 277 339 405
#     4  12  23  44  69  96 137 178 221 282 335 395
#     4  10  22  41  65 101 142 173 217 277 334 413
#     4  11  23  41  70  98 137 173 218 277 339 408
#     4  11  25  46  66  97 134 181 233 281 335 387
#     4  12  25  44  69  95 133 181 230 280 330 394
#
# _framework density 20.984665
#
# number of rings (size 3 to 8) (size 9 to 14) (size 15 to 20)
#    0.000    0.857    5.714    1.714    0.000    1.143 
#    0.000    3.571    0.000    0.000    0.000    0.000 
#    0.000    0.000    0.000    0.000    0.000    0.000 
#
# Total GULP energy -156545.154237 kJ/mol
# GULP energy per Si atom -5590.898366 kJ/mol
# Density = 2.093690 g / cm^3
# Si number density = 20.984665 Si / 1000 Ang^3
#
#
#
# Elastic Constant Matrix: (Units=GPa)
#
#
# Indices 1 2 3 4 5 6 
#
# 1 125.2227 34.5179 25.3682 -0.0156 17.8542 0.0188
# 2 34.5179 105.9710 -5.3458 -0.0005 -3.3046 -0.0001
# 3 25.3682 -5.3458 56.4788 -0.0130 5.5564 0.0109
# 4 -0.0156 -0.0005 -0.0130 28.6863 0.0148 -2.3014
# 5 17.8542 -3.3046 5.5564 0.0148 36.2787 -0.0194
# 6 0.0188 -0.0001 0.0109 -2.3014 -0.0194 22.5517
#
#
#
# Elastic Compliance Matrix: (Units=1/GPa)
#
#
# Indices 1 2 3 4 5 6 
#
# 1 0.010704 -0.003876 -0.004692 0.000005 -0.004902 -0.000010
# 2 -0.003876 0.010905 0.002526 -0.000002 0.002514 0.000004
# 3 -0.004692 0.002526 0.020106 0.000006 -0.000540 -0.000006
# 4 0.000005 -0.000002 0.000006 0.035148 -0.000016 0.003587
# 5 -0.004902 0.002514 -0.000540 -0.000016 0.030289 0.000029
# 6 -0.000010 0.000004 -0.000006 0.003587 0.000029 0.044709
#
#
# Mechanical properties :
#
#
# Convention : Reuss Voigt Hill
#
# Bulk Modulus (GPa) = 33.75063 44.08366 38.91714
# Shear Modulus (GPa) = 28.76526 33.04549 30.90538
#
# Velocity S-wave (km/s) = 3.70641 3.97261 3.84182
# Velocity P-wave (km/s) = 5.86814 6.48809 6.18589
#
# Compressibility (1/GPa) = 0.02962908
#
# Stress axis : x y z
#
# Youngs Moduli (GPa) = 93.42501 91.70165 49.73739
#
# Poissons Ratio (x) = 0.35545 0.23338
# Poissons Ratio (y) = 0.36213 -0.12563
# Poissons Ratio (z) = 0.43838 -0.23162
#
# Static dielectric constant tensor:
#      x y z
#    x 1.744330 0.000000 -0.000350 
#    y 0.000000 1.733000 0.000000 
#    z -0.000350 0.000000 1.780050 
# 
# From -- ./inp_files/156904.got.cif
#   From: 2010.05.17/outbox.cif.g08.bks.cpg/sg15_79_cif.got.tgz:156904.got - 2010.06.03 18:47:42.
