data_PCOD9290308
_publ_section_title
;
Structure prediction by ZEFSAII (Michael W. Deem and Ramdas Pophale) SiO2 
 PCOD9290308
Probable space group: C 2/C
;
_chemical_formula_sum "Si O2"
_cell_formula_units_Z 48
_cell_length_a 28.267426
_cell_length_b 6.744262
_cell_length_c 12.895196
_cell_angle_alpha 90.000000
_cell_angle_beta 52.780522
_cell_angle_gamma 90.000000
_cell_volume 1957.666155
_symmetry_space_group_name_H-M "C 2/C"
_symmetry_group_IT_number 15
_symmetry_cell_setting 'monoclinic'
loop_
_space_group_symop_operation_xyz
x,y,z
-x,y,1/2-z
-x,-y,-z
x,-y,1/2+z
1/2+x,1/2+y,z
1/2-x,1/2+y,1/2-z
1/2-x,1/2-y,-z
1/2+x,1/2-y,1/2+z
loop_
_atom_site_type_symbol
_atom_site_label
_atom_site_fract_x
_atom_site_fract_y
_atom_site_fract_z
Si Si1 0.100627 0.694363 0.589059
Si Si2 0.548332 0.509862 0.773509
Si Si3 0.795289 0.066720 0.645274
Si Si4 0.147561 0.272732 0.541498
Si Si5 0.684410 0.865953 0.705657
Si Si6 0.548992 0.828610 0.943249
O O1 0.106975 0.459867 0.571313
O O2 0.059470 0.751716 0.545744
O O3 0.069876 0.780963 0.732896
O O4 0.165856 0.783867 0.477724
O O5 0.500000 0.550291 0.750000
O O6 0.608068 0.614749 0.653891
O O7 0.533565 0.638345 0.893507
O O8 0.825169 0.850800 0.588886
O O9 0.728793 0.028673 0.694016
O O10 0.800924 0.162289 0.751190
O O11 0.191833 0.349870 0.572315
O O12 0.614745 0.904424 0.821276
O O13 0.500000 0.000000 0.000000
#
# Coordination Sequence:
#
# PCOD9290308 Si02
#       6
#     8   8   8   8   8   8
#     4  10  23  43  68 100 136 183 232 282 345 412
#     4  10  22  41  65 100 137 176 232 285 339 411
#     4  10  23  43  63  99 138 171 232 284 342 411
#     4  10  22  45  68  95 136 184 229 282 345 411
#     4  10  23  43  66 102 135 179 229 282 348 409
#     4  10  22  43  69 100 136 181 229 280 345 409
#
# _framework density 24.518992000000001
#
# number of rings (size 3 to 8) (size 9 to 14) (size 15 to 20)
#    0.000    2.000    0.000    1.500    4.667    4.667 
#   12.000    5.000    0.000    0.000    0.000    0.000 
#    0.000    0.000    0.000    0.000    0.000    0.000 
#
# Total GULP energy -134019.214770 kJ/mol
# GULP energy per Si atom -5584.133949 kJ/mol
# Density = 2.446319 g / cm^3
# Si number density = 24.518992 Si / 1000 Ang^3
#
#
#
# Elastic Constant Matrix: (Units=GPa)
#
#
# Indices 1 2 3 4 5 6 
#
# 1 119.6970 21.2710 29.0962 -0.0005 0.2339 -0.0002
# 2 21.2710 78.4006 46.3216 -0.0017 4.9401 -0.0004
# 3 29.0962 46.3216 72.1444 -0.0002 -1.9795 -0.0001
# 4 -0.0005 -0.0017 -0.0002 959.5228 0.0000 215.3310
# 5 0.2339 4.9401 -1.9795 0.0000 47.0567 0.0000
# 6 -0.0002 -0.0004 -0.0001 215.3310 0.0000 92.2560
#
#
#
# Elastic Compliance Matrix: (Units=1/GPa)
#
#
# Indices 1 2 3 4 5 6 
#
# 1 0.009275 -0.000476 -0.003439 0.000000 -0.000141 0.000000
# 2 -0.000476 0.020928 -0.013321 0.000000 -0.002755 0.000000
# 3 -0.003439 -0.013321 0.023868 0.000000 0.002420 0.000000
# 4 0.000000 0.000000 0.000000 0.002189 0.000000 -0.005108
# 5 -0.000141 -0.002755 0.002420 0.000000 0.021643 0.000000
# 6 0.000000 0.000000 0.000000 -0.005108 0.000000 0.022762
#
#
# Mechanical properties :
#
#
# Convention : Reuss Voigt Hill
#
# Bulk Modulus (GPa) = 51.02268 51.51331 51.26800
# Shear Modulus (GPa) = 35.29345 231.33731 133.31538
#
# Velocity S-wave (km/s) = 3.79810 9.72394 7.38176
# Velocity P-wave (km/s) = 6.33157 12.12966 9.67516
#
# Compressibility (1/GPa) = 0.01959913
#
# Stress axis : x y z
#
# Youngs Moduli (GPa) = 107.81395 47.78248 41.89778
#
# Poissons Ratio (x) = 0.02272 0.14410
# Poissons Ratio (y) = 0.05127 0.55813
# Poissons Ratio (z) = 0.37080 0.63652
#
# Static dielectric constant tensor:
#      x y z
#    x 2.128850 0.000000 0.017730 
#    y 0.000000 1.983730 0.000000 
#    z 0.017730 0.000000 2.073350 
# 
# From -- ./inp_files/179967.got.cif
#   From: 2010.05.17/outbox.cif.g08.bks.cpg/sg15_90_cif.got.tgz:179967.got - 2010.06.03 18:47:42.
