data_PCOD9290848
_publ_section_title
;
Structure prediction by ZEFSAII (Michael W. Deem and Ramdas Pophale) SiO2 
 PCOD9290848
Probable space group: C 2/C
;
_chemical_formula_sum "Si O2"
_cell_formula_units_Z 40
_cell_length_a 7.094685
_cell_length_b 11.666064
_cell_length_c 18.439551
_cell_angle_alpha 90.000000
_cell_angle_beta 73.540953
_cell_angle_gamma 90.000000
_cell_volume 1463.647880
_symmetry_space_group_name_H-M "C 2/C"
_symmetry_group_IT_number 15
_symmetry_cell_setting 'monoclinic'
loop_
_space_group_symop_operation_xyz
x,y,z
-x,y,1/2-z
-x,-y,-z
x,-y,1/2+z
1/2+x,1/2+y,z
1/2-x,1/2+y,1/2-z
1/2-x,1/2-y,-z
1/2+x,1/2-y,1/2+z
loop_
_atom_site_type_symbol
_atom_site_label
_atom_site_fract_x
_atom_site_fract_y
_atom_site_fract_z
Si Si1 0.385899 0.183914 0.333023
Si Si2 0.458969 0.104045 0.949974
Si Si3 0.530818 0.302065 0.455268
Si Si4 0.443084 0.493998 0.639448
Si Si5 0.739098 0.933582 0.299814
O O1 0.500000 0.133173 0.250000
O O2 0.524562 0.217601 0.385560
O O3 0.311053 0.306593 0.312864
O O4 0.194573 0.107361 0.372764
O O5 0.238464 0.149660 0.962551
O O6 0.534042 0.063626 0.863328
O O7 0.559762 0.216706 0.975152
O O8 0.500000 0.000000 0.000000
O O9 0.457629 0.423420 0.431007
O O10 0.626050 0.471608 0.673239
O O11 0.291801 0.558604 0.710238
#
# Coordination Sequence:
#
# PCOD9290848 Si02
#       5
#     8   8   8   8   8
#     4  11  22  44  70  99 143 187 241 317 380 443
#     4  11  25  42  69 100 152 197 243 309 380 459
#     4  10  23  44  64 105 140 186 248 301 368 460
#     4  10  22  41  71  99 138 188 247 311 379 446
#     4  10  23  45  64 107 141 179 256 308 366 462
#
# _framework density 27.328976999999998
#
# number of rings (size 3 to 8) (size 9 to 14) (size 15 to 20)
#    0.000    1.600    4.000    1.200    5.600    6.400 
#    3.600    6.000    0.000    0.000    0.000    0.000 
#    0.000    0.000    0.000    0.000    0.000    0.000 
#
# Total GULP energy -111635.890451 kJ/mol
# GULP energy per Si atom -5581.794523 kJ/mol
# Density = 2.726677 g / cm^3
# Si number density = 27.328977 Si / 1000 Ang^3
#
#
#
# Elastic Constant Matrix: (Units=GPa)
#
#
# Indices 1 2 3 4 5 6 
#
# 1 97.5871 72.4161 39.9838 0.0000 9.0692 0.0000
# 2 72.4161 155.0894 65.8135 0.0000 -5.3366 0.0000
# 3 39.9838 65.8135 134.1509 0.0000 -0.8195 0.0000
# 4 0.0000 0.0000 0.0000 52.6831 0.0000 -2.8324
# 5 9.0692 -5.3366 -0.8195 0.0000 40.6066 0.0000
# 6 0.0000 0.0000 0.0000 -2.8324 0.0000 53.3800
#
#
#
# Elastic Compliance Matrix: (Units=1/GPa)
#
#
# Indices 1 2 3 4 5 6 
#
# 1 0.016742 -0.007389 -0.001394 0.000000 -0.004738 0.000000
# 2 -0.007389 0.011444 -0.003393 0.000000 0.003086 0.000000
# 3 -0.001394 -0.003393 0.009535 0.000000 0.000058 0.000000
# 4 0.000000 0.000000 0.000000 0.019036 0.000000 0.001010
# 5 -0.004738 0.003086 0.000058 0.000000 0.026091 0.000000
# 6 0.000000 0.000000 0.000000 0.001010 0.000000 0.018787
#
#
# Mechanical properties :
#
#
# Convention : Reuss Voigt Hill
#
# Bulk Modulus (GPa) = 74.80212 82.58381 78.69297
# Shear Modulus (GPa) = 38.33085 43.24153 40.78619
#
# Velocity S-wave (km/s) = 3.74916 3.98208 3.86737
# Velocity P-wave (km/s) = 6.79500 7.17123 6.98565
#
# Compressibility (1/GPa) = 0.01336860
#
# Stress axis : x y z
#
# Youngs Moduli (GPa) = 59.73120 87.38142 104.87826
#
# Poissons Ratio (x) = 0.64564 0.14620
# Poissons Ratio (y) = 0.44134 0.35589
# Poissons Ratio (z) = 0.08326 0.29651
#
# Static dielectric constant tensor:
#      x y z
#    x 2.313010 0.000000 0.027040 
#    y 0.000000 2.133650 0.000000 
#    z 0.027040 0.000000 2.195550 
# 
# From -- ./inp_files/229847.got.cif
#   From: 2010.05.17/outbox.cif.g08.bks.cpg/sg15_115_cif.got.tgz:229847.got - 2010.06.03 18:47:42.
