data_PCOD9290458
_publ_section_title
;
Structure prediction by ZEFSAII (Michael W. Deem and Ramdas Pophale) SiO2 
 PCOD9290458
Probable space group: C 2/C
;
_chemical_formula_sum "Si O2"
_cell_formula_units_Z 48
_cell_length_a 17.773400
_cell_length_b 7.748163
_cell_length_c 25.169777
_cell_angle_alpha 90.000000
_cell_angle_beta 145.639744
_cell_angle_gamma 90.000000
_cell_volume 1956.281810
_symmetry_space_group_name_H-M "C 2/C"
_symmetry_group_IT_number 15
_symmetry_cell_setting 'monoclinic'
loop_
_space_group_symop_operation_xyz
x,y,z
-x,y,1/2-z
-x,-y,-z
x,-y,1/2+z
1/2+x,1/2+y,z
1/2-x,1/2+y,1/2-z
1/2-x,1/2-y,-z
1/2+x,1/2-y,1/2+z
loop_
_atom_site_type_symbol
_atom_site_label
_atom_site_fract_x
_atom_site_fract_y
_atom_site_fract_z
Si Si1 0.845441 0.466581 0.420651
Si Si2 0.020890 0.681071 0.707485
Si Si3 0.189979 0.481230 0.487813
Si Si4 0.321418 0.422255 0.778362
Si Si5 0.459482 0.664752 0.613877
Si Si6 0.827550 0.332035 0.700512
O O1 0.806486 0.580100 0.449274
O O2 0.775268 0.510974 0.324233
O O3 0.784584 0.273375 0.396871
O O4 0.000000 0.500000 0.500000
O O5 0.100734 0.771255 0.706660
O O6 0.109567 0.515539 0.778113
O O7 0.000000 0.784506 0.750000
O O8 0.881638 0.634054 0.597970
O O9 0.332685 0.547825 0.552079
O O10 0.090971 0.648337 0.433188
O O11 0.433724 0.563268 0.859538
O O12 0.239423 0.366504 0.781310
O O13 0.545995 0.706740 0.716934
#
# Coordination Sequence:
#
# PCOD9290458 Si02
#       6
#     8   8   8   8   8   8
#     4  11  23  40  69  94 125 174 224 267 313 392
#     4  11  25  42  63  97 138 166 213 278 341 388
#     4  10  22  42  65  93 125 165 227 262 315 395
#     4  11  23  43  64  93 135 173 208 270 341 389
#     4   9  21  39  68  86 125 164 217 256 318 383
#     4  10  22  41  66  90 132 175 215 259 329 395
#
# _framework density 24.536342000000001
#
# number of rings (size 3 to 8) (size 9 to 14) (size 15 to 20)
#    0.000    1.667    0.000    5.000    9.333    2.000 
#    3.000    1.667    0.000    0.000    0.000    0.000 
#    0.000    0.000    0.000    0.000    0.000    0.000 
#
# Total GULP energy -134165.717798 kJ/mol
# GULP energy per Si atom -5590.238242 kJ/mol
# Density = 2.448050 g / cm^3
# Si number density = 24.536342 Si / 1000 Ang^3
#
#
#
# Elastic Constant Matrix: (Units=GPa)
#
#
# Indices 1 2 3 4 5 6 
#
# 1 117.3187 0.1961 34.9477 0.0000 -8.3299 0.0000
# 2 0.1961 52.2976 11.9721 0.0000 15.0249 -0.0001
# 3 34.9477 11.9721 113.4836 0.0000 22.2142 0.0000
# 4 0.0000 0.0000 0.0000 17.5738 0.0000 7.0361
# 5 -8.3299 15.0249 22.2142 0.0000 47.4435 0.0000
# 6 0.0000 -0.0001 0.0000 7.0361 0.0000 34.9502
#
#
#
# Elastic Compliance Matrix: (Units=1/GPa)
#
#
# Indices 1 2 3 4 5 6 
#
# 1 0.009882 -0.000203 -0.003714 0.000000 0.003539 0.000000
# 2 -0.000203 0.021145 -0.000936 0.000000 -0.006294 0.000000
# 3 -0.003714 -0.000936 0.011146 0.000000 -0.005574 0.000000
# 4 0.000000 0.000000 0.000000 0.061891 0.000000 -0.012460
# 5 0.003539 -0.006294 -0.005574 0.000000 0.026302 0.000000
# 6 0.000000 0.000000 0.000000 -0.012460 0.000000 0.031120
#
#
# Mechanical properties :
#
#
# Convention : Reuss Voigt Hill
#
# Bulk Modulus (GPa) = 30.80297 41.92574 36.36436
# Shear Modulus (GPa) = 27.47027 35.72577 31.59802
#
# Velocity S-wave (km/s) = 3.34963 3.81994 3.59249
# Velocity P-wave (km/s) = 5.24798 6.04816 5.66223
#
# Compressibility (1/GPa) = 0.03246441
#
# Stress axis : x y z
#
# Youngs Moduli (GPa) = 101.19579 47.29353 89.72142
#
# Poissons Ratio (x) = 0.00962 0.33326
# Poissons Ratio (y) = 0.02058 0.08399
# Poissons Ratio (z) = 0.37588 0.04427
#
# Static dielectric constant tensor:
#      x y z
#    x 1.896030 0.000000 0.001090 
#    y 0.000000 2.081570 0.000000 
#    z 0.001090 0.000000 1.947730 
# 
# From -- ./inp_files/317300.got.cif
#   From: 2010.05.17/outbox.cif.g08.bks.cpg/sg15_159_cif.got.tgz:317300.got - 2010.06.03 18:47:42.
