data_PCOD9290213
_publ_section_title
;
Structure prediction by ZEFSAII (Michael W. Deem and Ramdas Pophale) SiO2 
 PCOD9290213
Probable space group: C 2/C
;
_chemical_formula_sum "Si O2"
_cell_formula_units_Z 32
_cell_length_a 5.923530
_cell_length_b 23.940496
_cell_length_c 9.762634
_cell_angle_alpha 90.000000
_cell_angle_beta 70.116220
_cell_angle_gamma 90.000000
_cell_volume 1301.925647
_symmetry_space_group_name_H-M "C 2/C"
_symmetry_group_IT_number 15
_symmetry_cell_setting 'monoclinic'
loop_
_space_group_symop_operation_xyz
x,y,z
-x,y,1/2-z
-x,-y,-z
x,-y,1/2+z
1/2+x,1/2+y,z
1/2-x,1/2+y,1/2-z
1/2-x,1/2-y,-z
1/2+x,1/2-y,1/2+z
loop_
_atom_site_type_symbol
_atom_site_label
_atom_site_fract_x
_atom_site_fract_y
_atom_site_fract_z
Si Si1 0.084996 0.206396 0.391922
Si Si2 0.421254 0.412913 0.610913
Si Si3 0.222607 0.187279 0.778362
Si Si4 0.151541 0.525451 0.593207
O O1 0.239059 0.262431 0.342646
O O2 0.000000 0.201755 0.250000
O O3 0.205532 0.145693 0.396637
O O4 0.879989 0.207135 0.551779
O O5 0.500000 0.411709 0.750000
O O6 0.280001 0.469486 0.618574
O O7 0.667389 0.424945 0.480118
O O8 0.500000 0.168888 0.750000
O O9 0.000000 0.153875 0.750000
O O10 0.000000 0.546222 0.750000
O O11 0.000000 0.500000 0.500000
#
# Coordination Sequence:
#
# PCOD9290213 Si02
#       4
#     8   8   8   8
#     4  10  22  42  67  96 132 177 224 271 334 399
#     4  10  22  41  63  97 129 170 221 263 328 401
#     4  11  23  44  67  96 135 180 223 278 332 389
#     4  11  22  41  66  93 130 169 212 274 332 389
#
# _framework density 24.578977999999999
#
# number of rings (size 3 to 8) (size 9 to 14) (size 15 to 20)
#    0.000    1.500    2.500    3.750    0.000    2.000 
#   13.500    0.000    0.000    0.000    0.000    0.000 
#    0.000    0.000    0.000    0.000    0.000    0.000 
#
# Total GULP energy -89150.102382 kJ/mol
# GULP energy per Si atom -5571.881399 kJ/mol
# Density = 2.452304 g / cm^3
# Si number density = 24.578978 Si / 1000 Ang^3
#
#
#
# Elastic Constant Matrix: (Units=GPa)
#
#
# Indices 1 2 3 4 5 6 
#
# 1 116.2664 21.4480 37.5641 0.0000 2.1306 0.0000
# 2 21.4480 110.4846 13.2718 0.0000 -5.6659 0.0000
# 3 37.5641 13.2718 181.2631 0.0000 -36.6578 0.0000
# 4 0.0000 0.0000 0.0000 11.3198 0.0000 -3.2751
# 5 2.1306 -5.6659 -36.6578 0.0000 43.5202 0.0000
# 6 0.0000 0.0000 0.0000 -3.2751 0.0000 13.1354
#
#
#
# Elastic Compliance Matrix: (Units=1/GPa)
#
#
# Indices 1 2 3 4 5 6 
#
# 1 0.009767 -0.001743 -0.002458 0.000000 -0.002775 0.000000
# 2 -0.001743 0.009463 -0.000079 0.000000 0.001251 0.000000
# 3 -0.002458 -0.000079 0.007297 0.000000 0.006257 0.000000
# 4 0.000000 0.000000 0.000000 0.095209 0.000000 0.023739
# 5 -0.002775 0.001251 0.006257 0.000000 0.028547 0.000000
# 6 0.000000 0.000000 0.000000 0.023739 0.000000 0.082049
#
#
# Mechanical properties :
#
#
# Convention : Reuss Voigt Hill
#
# Bulk Modulus (GPa) = 55.65279 61.39798 58.52539
# Shear Modulus (GPa) = 20.25266 35.97709 28.11488
#
# Velocity S-wave (km/s) = 2.87362 3.83003 3.38577
# Velocity P-wave (km/s) = 5.80533 6.67779 6.25679
#
# Compressibility (1/GPa) = 0.01796855
#
# Stress axis : x y z
#
# Youngs Moduli (GPa) = 102.38089 105.67432 137.03766
#
# Poissons Ratio (x) = 0.18421 0.33681
# Poissons Ratio (y) = 0.17847 0.01077
# Poissons Ratio (z) = 0.25163 0.00831
#
# Static dielectric constant tensor:
#      x y z
#    x 2.119610 0.000000 -0.001740 
#    y 0.000000 2.035250 0.000000 
#    z -0.001740 0.000000 1.905440 
# 
# From -- ./inp_files/19941.got.cif
#   From: 2010.05.17/outbox.cif.g08.bks.cpg/sg15_10_cif.got.tgz:19941.got - 2010.06.03 18:47:42.
