data_PCOD9290427
_publ_section_title
;
Structure prediction by ZEFSAII (Michael W. Deem and Ramdas Pophale) SiO2 
 PCOD9290427
Probable space group: C 2/C
;
_chemical_formula_sum "Si O2"
_cell_formula_units_Z 32
_cell_length_a 23.129231
_cell_length_b 4.987704
_cell_length_c 9.777703
_cell_angle_alpha 90.000000
_cell_angle_beta 78.516194
_cell_angle_gamma 90.000000
_cell_volume 1105.392132
_symmetry_space_group_name_H-M "C 2/C"
_symmetry_group_IT_number 15
_symmetry_cell_setting 'monoclinic'
loop_
_space_group_symop_operation_xyz
x,y,z
-x,y,1/2-z
-x,-y,-z
x,-y,1/2+z
1/2+x,1/2+y,z
1/2-x,1/2+y,1/2-z
1/2-x,1/2-y,-z
1/2+x,1/2-y,1/2+z
loop_
_atom_site_type_symbol
_atom_site_label
_atom_site_fract_x
_atom_site_fract_y
_atom_site_fract_z
Si Si1 0.812748 0.935770 0.908537
Si Si2 0.435864 0.454440 0.730812
Si Si3 0.310028 0.816638 0.137691
Si Si4 0.566207 0.057468 0.418170
O O1 0.877306 0.045812 0.835435
O O2 0.750580 0.058230 0.885594
O O3 0.812164 0.683929 0.802083
O O4 0.810795 0.018564 0.069474
O O5 0.500000 0.536866 0.750000
O O6 0.435022 0.135110 0.715434
O O7 0.431705 0.622574 0.593103
O O8 0.369375 0.967253 0.056321
O O9 0.500000 0.000000 0.500000
#
# Coordination Sequence:
#
# PCOD9290427 Si02
#       4
#     8   8   8   8
#     4  10  22  41  65  99 136 182 230 285 345 410
#     4  11  23  41  66  99 139 180 229 284 346 411
#     4  10  22  41  67  99 139 181 233 286 346 413
#     4  11  23  41  67  99 136 181 231 285 343 410
#
# _framework density 28.949000000000002
#
# number of rings (size 3 to 8) (size 9 to 14) (size 15 to 20)
#    0.000    1.500    0.000    4.500    0.000    3.000 
#    0.000   12.500    0.000    0.000    0.000    0.000 
#    0.000    0.000    0.000    0.000    0.000    0.000 
#
# Total GULP energy -89072.848360 kJ/mol
# GULP energy per Si atom -5567.053022 kJ/mol
# Density = 2.888311 g / cm^3
# Si number density = 28.949000 Si / 1000 Ang^3
#
#
#
# Elastic Constant Matrix: (Units=GPa)
#
#
# Indices 1 2 3 4 5 6 
#
# 1 326.3827 47.7617 61.0316 0.0000 -50.4345 0.0000
# 2 47.7617 70.7583 14.7702 0.0000 0.5920 0.0000
# 3 61.0316 14.7702 75.6620 0.0000 -29.2837 0.0000
# 4 0.0000 0.0000 0.0000 32.7410 0.0000 -10.4635
# 5 -50.4345 0.5920 -29.2837 0.0000 67.2386 0.0000
# 6 0.0000 0.0000 0.0000 -10.4635 0.0000 35.5768
#
#
#
# Elastic Compliance Matrix: (Units=1/GPa)
#
#
# Indices 1 2 3 4 5 6 
#
# 1 0.004136 -0.002394 -0.001996 0.000000 0.002254 0.000000
# 2 -0.002394 0.016275 -0.002401 0.000000 -0.002985 0.000000
# 3 -0.001996 -0.002401 0.017710 0.000000 0.006236 0.000000
# 4 0.000000 0.000000 0.000000 0.033711 0.000000 0.009915
# 5 0.002254 -0.002985 0.006236 0.000000 0.019305 0.000000
# 6 0.000000 0.000000 0.000000 0.009915 0.000000 0.031024
#
#
# Mechanical properties :
#
#
# Convention : Reuss Voigt Hill
#
# Bulk Modulus (GPa) = 40.75490 79.99222 60.37356
# Shear Modulus (GPa) = 34.74081 50.39391 42.56736
#
# Velocity S-wave (km/s) = 3.46796 4.17679 3.83877
# Velocity P-wave (km/s) = 5.49039 7.13813 6.36778
#
# Compressibility (1/GPa) = 0.02453693
#
# Stress axis : x y z
#
# Youngs Moduli (GPa) = 241.79277 61.44545 56.46660
#
# Poissons Ratio (x) = 0.14708 0.11274
# Poissons Ratio (y) = 0.57879 0.13559
# Poissons Ratio (z) = 0.48274 0.14755
#
# Static dielectric constant tensor:
#      x y z
#    x 2.170130 0.000000 0.069330 
#    y 0.000000 2.406290 0.000000 
#    z 0.069330 0.000000 2.299150 
# 
# From -- ./inp_files/115321.got.cif
#   From: 2010.05.17/outbox.cif.g08.bks.cpg/sg15_58_cif.got.tgz:115321.got - 2010.06.03 18:47:42.
