data_PCOD9290636
_publ_section_title
;
Structure prediction by ZEFSAII (Michael W. Deem and Ramdas Pophale) SiO2 
 PCOD9290636
Probable space group: C 2/C
;
_chemical_formula_sum "Si O2"
_cell_formula_units_Z 40
_cell_length_a 20.039004
_cell_length_b 17.564865
_cell_length_c 14.235809
_cell_angle_alpha 90.000000
_cell_angle_beta 16.988558
_cell_angle_gamma 90.000000
_cell_volume 1464.045797
_symmetry_space_group_name_H-M "C 2/C"
_symmetry_group_IT_number 15
_symmetry_cell_setting 'monoclinic'
loop_
_space_group_symop_operation_xyz
x,y,z
-x,y,1/2-z
-x,-y,-z
x,-y,1/2+z
1/2+x,1/2+y,z
1/2-x,1/2+y,1/2-z
1/2-x,1/2-y,-z
1/2+x,1/2-y,1/2+z
loop_
_atom_site_type_symbol
_atom_site_label
_atom_site_fract_x
_atom_site_fract_y
_atom_site_fract_z
Si Si1 0.630994 0.888617 0.795536
Si Si2 0.517980 0.496403 0.362586
Si Si3 0.646046 0.644111 0.888456
Si Si4 0.513901 0.204283 0.829954
Si Si5 0.257702 0.850198 0.037011
O O1 0.810065 0.952885 0.588753
O O2 0.751921 0.828243 0.559868
O O3 0.387308 0.901034 0.071069
O O4 0.542344 0.850766 0.010142
O O5 0.500000 0.500000 0.500000
O O6 0.524662 0.585557 0.330800
O O7 0.731459 0.441913 0.055944
O O8 0.593650 0.660914 0.848211
O O9 0.657833 0.724394 0.923335
O O10 0.500000 0.161914 0.750000
O O11 0.750000 0.250000 0.500000
O O12 0.500000 0.826272 0.750000
#
# Coordination Sequence:
#
# PCOD9290636 Si02
#       5
#     8   8   8   8   8
#     4  11  23  45  68  99 141 181 234 287 347 414
#     4  10  22  41  68 103 134 176 227 286 350 411
#     4  10  23  45  69 101 140 180 235 287 347 418
#     4  12  27  47  67 100 141 191 235 281 352 422
#     4   9  21  42  68 101 135 175 230 291 348 405
#
# _framework density 27.321549999999998
#
# number of rings (size 3 to 8) (size 9 to 14) (size 15 to 20)
#    0.000    1.600    2.000    1.200    5.600    2.400 
#   10.800    4.000    0.000    0.000    0.000    0.000 
#    0.000    0.000    0.000    0.000    0.000    0.000 
#
# Total GULP energy -111507.064570 kJ/mol
# GULP energy per Si atom -5575.353228 kJ/mol
# Density = 2.725936 g / cm^3
# Si number density = 27.321550 Si / 1000 Ang^3
#
#
#
# Elastic Constant Matrix: (Units=GPa)
#
#
# Indices 1 2 3 4 5 6 
#
# 1 202.0629 18.0527 27.5228 0.0231 48.1226 -0.0146
# 2 18.0527 71.0421 20.9817 0.0138 5.8175 0.0126
# 3 27.5228 20.9817 89.4499 -0.0934 -4.1329 0.0312
# 4 0.0231 0.0138 -0.0934 25.2756 0.0035 6.6760
# 5 48.1226 5.8175 -4.1329 0.0035 54.1064 0.0062
# 6 -0.0146 0.0126 0.0312 6.6760 0.0062 30.5376
#
#
#
# Elastic Compliance Matrix: (Units=1/GPa)
#
#
# Indices 1 2 3 4 5 6 
#
# 1 0.006761 -0.000557 -0.002233 -0.000016 -0.006124 0.000011
# 2 -0.000557 0.015368 -0.003499 -0.000021 -0.001424 0.000002
# 3 -0.002233 -0.003499 0.012842 0.000058 0.003343 -0.000026
# 4 -0.000016 -0.000021 0.000058 0.041989 0.000019 -0.009179
# 5 -0.006124 -0.001424 0.003343 0.000019 0.024337 -0.000015
# 6 0.000011 0.000002 -0.000026 -0.009179 -0.000015 0.034753
#
#
# Mechanical properties :
#
#
# Convention : Reuss Voigt Hill
#
# Bulk Modulus (GPa) = 44.65711 55.07438 49.86575
# Shear Modulus (GPa) = 32.03226 41.71710 36.87468
#
# Velocity S-wave (km/s) = 3.42777 3.91179 3.67775
# Velocity P-wave (km/s) = 5.66098 6.37216 6.02707
#
# Compressibility (1/GPa) = 0.02239285
#
# Stress axis : x y z
#
# Youngs Moduli (GPa) = 147.89879 65.07112 77.87128
#
# Poissons Ratio (x) = 0.03626 0.17386
# Poissons Ratio (y) = 0.08242 0.27248
# Poissons Ratio (z) = 0.33021 0.22769
#
# Static dielectric constant tensor:
#      x y z
#    x 2.294340 0.000000 -0.006500 
#    y 0.000000 2.217870 0.000060 
#    z -0.006500 0.000060 2.245550 
# 
# From -- ./inp_files/169444.got.cif
#   From: 2010.05.17/outbox.cif.g08.bks.cpg/sg15_85_cif.got.tgz:169444.got - 2010.06.03 18:47:42.
