data_PCOD9290153
_publ_section_title
;
Structure prediction by ZEFSAII (Michael W. Deem and Ramdas Pophale) SiO2 
 PCOD9290153
Probable space group: C 2/C
;
_chemical_formula_sum "Si O2"
_cell_formula_units_Z 52
_cell_length_a 22.380763
_cell_length_b 9.735511
_cell_length_c 14.860009
_cell_angle_alpha 90.000000
_cell_angle_beta 50.132741
_cell_angle_gamma 90.000000
_cell_volume 2485.129150
_symmetry_space_group_name_H-M "C 2/C"
_symmetry_group_IT_number 15
_symmetry_cell_setting 'monoclinic'
loop_
_space_group_symop_operation_xyz
x,y,z
-x,y,1/2-z
-x,-y,-z
x,-y,1/2+z
1/2+x,1/2+y,z
1/2-x,1/2+y,1/2-z
1/2-x,1/2-y,-z
1/2+x,1/2-y,1/2+z
loop_
_atom_site_type_symbol
_atom_site_label
_atom_site_fract_x
_atom_site_fract_y
_atom_site_fract_z
Si Si1 0.485690 0.714982 0.659640
Si Si2 0.833905 0.912337 0.950890
Si Si3 0.500000 0.447550 0.750000
Si Si4 0.622656 0.802068 0.392972
Si Si5 0.244294 0.179896 0.145449
Si Si6 0.142114 0.407069 0.806036
Si Si7 0.778293 0.820283 0.561427
O O1 0.500000 0.770882 0.750000
O O2 0.477246 0.552875 0.690307
O O3 0.552410 0.745905 0.521345
O O4 0.412836 0.790069 0.682803
O O5 0.782576 0.916150 0.910079
O O6 0.922363 0.863406 0.848230
O O7 0.785960 0.813029 0.062239
O O8 0.843932 0.067341 0.976613
O O9 0.663768 0.713005 0.275417
O O10 0.693495 0.795963 0.396993
O O11 0.602748 0.948039 0.367537
O O12 0.309292 0.127272 0.151176
O O13 0.210178 0.414393 0.666991
O O14 0.750000 0.750000 0.500000
#
# Coordination Sequence:
#
# PCOD9290153 Si02
#       7
#     8   8   4   8   8   8   8
#     4  10  22  41  62  98 128 169 224 262 340 399
#     4  11  21  45  60  92 135 165 227 264 335 400
#     4  10  22  42  68  94 126 178 216 266 318 404
#     4  11  21  40  61  94 129 163 220 274 326 386
#     4  10  25  39  64  94 129 175 216 275 330 391
#     4  11  22  38  63  94 129 167 221 276 325 385
#     4  11  20  37  64  87 124 177 215 263 325 396
#
# _framework density 20.924465999999999
#
# number of rings (size 3 to 8) (size 9 to 14) (size 15 to 20)
#    0.462    0.923    3.077    3.231    0.000    2.462 
#    0.000    1.538    0.000    0.000    0.000    0.000 
#    0.000    0.000    0.000    0.000    0.000    0.000 
#
# Total GULP energy -144753.306318 kJ/mol
# GULP energy per Si atom -5567.434858 kJ/mol
# Density = 2.087684 g / cm^3
# Si number density = 20.924466 Si / 1000 Ang^3
#
#
#
# Elastic Constant Matrix: (Units=GPa)
#
#
# Indices 1 2 3 4 5 6 
#
# 1 44.6327 16.9986 9.9299 0.0000 2.8299 0.0000
# 2 16.9986 41.2656 8.5295 -0.0001 7.4132 0.0000
# 3 9.9299 8.5295 109.5163 0.0000 -2.6484 0.0000
# 4 0.0000 -0.0001 0.0000 -7.7668 0.0000 -15.3581
# 5 2.8299 7.4132 -2.6484 0.0000 38.5143 0.0000
# 6 0.0000 0.0000 0.0000 -15.3581 0.0000 20.6121
#
#
#
# Elastic Compliance Matrix: (Units=1/GPa)
#
#
# Indices 1 2 3 4 5 6 
#
# 1 0.026847 -0.010725 -0.001599 0.000000 -0.000018 0.000000
# 2 -0.010725 0.029866 -0.001476 0.000000 -0.005062 0.000000
# 3 -0.001599 -0.001476 0.009416 0.000000 0.001049 0.000000
# 4 0.000000 0.000000 0.000000 -0.052056 0.000000 -0.038787
# 5 -0.000018 -0.005062 0.001049 0.000000 0.027012 0.000000
# 6 0.000000 0.000000 0.000000 -0.038787 0.000000 0.019615
#
#
# Mechanical properties :
#
#
# Convention : Reuss Voigt Hill
#
# Bulk Modulus (GPa) = 25.95520 29.59228 27.77374
# Shear Modulus (GPa) = 49.43431 20.93567 35.18499
#
# Velocity S-wave (km/s) = 4.86584 3.16656 4.10509
# Velocity P-wave (km/s) = 6.63323 5.24810 5.98090
#
# Compressibility (1/GPa) = 0.03852792
#
# Stress axis : x y z
#
# Youngs Moduli (GPa) = 37.24831 33.48315 106.19764
#
# Poissons Ratio (x) = 0.35911 0.16985
# Poissons Ratio (y) = 0.39950 0.15675
# Poissons Ratio (z) = 0.05957 0.04942
#
# Static dielectric constant tensor:
#      x y z
#    x 1.751620 0.000000 -0.029430 
#    y 0.000000 1.767010 0.000000 
#    z -0.029430 0.000000 1.839850 
# 
# From -- ./inp_files/167556.got.cif
#   From: 2010.05.17/outbox.cif.g08.bks.cpg/sg15_84_cif.got.tgz:167556.got - 2010.06.03 18:47:42.
