data_PCOD9290873
_publ_section_title
;
Structure prediction by ZEFSAII (Michael W. Deem and Ramdas Pophale) SiO2 
 PCOD9290873
Probable space group: C 2/C
;
_chemical_formula_sum "Si O2"
_cell_formula_units_Z 56
_cell_length_a 11.944898
_cell_length_b 8.638558
_cell_length_c 25.583491
_cell_angle_alpha 90.000000
_cell_angle_beta 59.256932
_cell_angle_gamma 90.000000
_cell_volume 2268.889526
_symmetry_space_group_name_H-M "C 2/C"
_symmetry_group_IT_number 15
_symmetry_cell_setting 'monoclinic'
loop_
_space_group_symop_operation_xyz
x,y,z
-x,y,1/2-z
-x,-y,-z
x,-y,1/2+z
1/2+x,1/2+y,z
1/2-x,1/2+y,1/2-z
1/2-x,1/2-y,-z
1/2+x,1/2-y,1/2+z
loop_
_atom_site_type_symbol
_atom_site_label
_atom_site_fract_x
_atom_site_fract_y
_atom_site_fract_z
Si Si1 0.994062 0.165476 0.539316
Si Si2 0.351680 0.066775 0.536333
Si Si3 0.195874 0.405787 0.335557
Si Si4 0.721179 0.100542 0.552591
Si Si5 0.029608 0.637743 0.137881
Si Si6 0.549701 0.426436 0.288453
Si Si7 0.497077 0.362264 0.601527
O O1 0.112315 0.251584 0.480621
O O2 0.007488 0.261739 0.590358
O O3 0.150731 0.824752 0.451333
O O4 0.005628 0.985520 0.552448
O O5 0.282926 0.036925 0.608674
O O6 0.500000 0.000000 0.500000
O O7 0.279804 0.990021 0.503753
O O8 0.090420 0.520385 0.335368
O O9 0.305019 0.391401 0.265219
O O10 0.129924 0.242952 0.363497
O O11 0.614811 0.238413 0.572216
O O12 0.656517 0.969504 0.604911
O O13 0.023344 0.763367 0.184916
O O14 0.500000 0.517127 0.250000
O O15 0.517401 0.530100 0.344931
#
# Coordination Sequence:
#
# PCOD9290873 Si02
#       7
#     8   8   8   8   8   8   8
#     4  10  22  41  73 101 137 182 227 279 347 408
#     4  11  21  45  67 100 146 184 219 291 345 411
#     4  11  22  45  67  90 145 179 219 291 345 398
#     4  10  22  44  75 100 139 184 230 281 350 418
#     4   9  21  44  64  96 135 175 224 286 347 399
#     4  11  25  41  69  97 135 177 232 288 350 413
#     4  10  23  44  69 106 133 174 239 289 336 412
#
# _framework density 24.681678999999999
#
# number of rings (size 3 to 8) (size 9 to 14) (size 15 to 20)
#    0.000    1.714    4.286    0.857    4.000    1.143 
#    2.571    2.143    3.143    0.000    0.000    0.000 
#    0.000    0.000    0.000    0.000    0.000    0.000 
#
# Total GULP energy -156456.775786 kJ/mol
# GULP energy per Si atom -5587.741992 kJ/mol
# Density = 2.462550 g / cm^3
# Si number density = 24.681679 Si / 1000 Ang^3
#
#
#
# Elastic Constant Matrix: (Units=GPa)
#
#
# Indices 1 2 3 4 5 6 
#
# 1 81.1622 27.4201 47.9132 0.0000 -9.3193 0.0000
# 2 27.4201 148.9247 51.9848 0.0000 -6.0644 0.0000
# 3 47.9132 51.9848 99.4835 0.0000 18.0895 0.0000
# 4 0.0000 0.0000 0.0000 34.9806 0.0000 -4.6664
# 5 -9.3193 -6.0644 18.0895 0.0000 38.9282 0.0000
# 6 0.0000 0.0000 0.0000 -4.6664 0.0000 36.8951
#
#
#
# Elastic Compliance Matrix: (Units=1/GPa)
#
#
# Indices 1 2 3 4 5 6 
#
# 1 0.020533 0.000976 -0.012365 0.000000 0.010814 0.000000
# 2 0.000976 0.008742 -0.005820 0.000000 0.004300 0.000000
# 3 -0.012365 -0.005820 0.021575 0.000000 -0.013892 0.000000
# 4 0.000000 0.000000 0.000000 0.029078 0.000000 0.003678
# 5 0.010814 0.004300 -0.013892 0.000000 0.035403 0.000000
# 6 0.000000 0.000000 0.000000 0.003678 0.000000 0.027569
#
#
# Mechanical properties :
#
#
# Convention : Reuss Voigt Hill
#
# Bulk Modulus (GPa) = 60.86152 64.91183 62.88667
# Shear Modulus (GPa) = 27.35325 35.64425 31.49875
#
# Velocity S-wave (km/s) = 3.33264 3.80433 3.57627
# Velocity P-wave (km/s) = 6.28655 6.75677 6.52590
#
# Compressibility (1/GPa) = 0.01643074
#
# Stress axis : x y z
#
# Youngs Moduli (GPa) = 48.70310 114.39360 46.35070
#
# Poissons Ratio (x) = -0.11167 0.57314
# Poissons Ratio (y) = -0.04754 0.26976
# Poissons Ratio (z) = 0.60223 0.66577
#
# Static dielectric constant tensor:
#      x y z
#    x 2.113800 0.000000 -0.104480 
#    y 0.000000 2.009700 0.000000 
#    z -0.104480 0.000000 2.244250 
# 
# From -- ./inp_files/312861.got.cif
#   From: 2010.05.17/outbox.cif.g08.bks.cpg/sg15_157_cif.got.tgz:312861.got - 2010.06.03 18:47:42.
