data_PCOD9290598
_publ_section_title
;
Structure prediction by ZEFSAII (Michael W. Deem and Ramdas Pophale) SiO2 
 PCOD9290598
Probable space group: C 2/C
;
_chemical_formula_sum "Si O2"
_cell_formula_units_Z 60
_cell_length_a 11.608887
_cell_length_b 26.428317
_cell_length_c 17.875709
_cell_angle_alpha 90.000000
_cell_angle_beta 148.231496
_cell_angle_gamma 90.000000
_cell_volume 2887.435390
_symmetry_space_group_name_H-M "C 2/C"
_symmetry_group_IT_number 15
_symmetry_cell_setting 'monoclinic'
loop_
_space_group_symop_operation_xyz
x,y,z
-x,y,1/2-z
-x,-y,-z
x,-y,1/2+z
1/2+x,1/2+y,z
1/2-x,1/2+y,1/2-z
1/2-x,1/2-y,-z
1/2+x,1/2-y,1/2+z
loop_
_atom_site_type_symbol
_atom_site_label
_atom_site_fract_x
_atom_site_fract_y
_atom_site_fract_z
Si Si1 0.452188 0.900243 0.093111
Si Si2 0.066340 0.640935 0.504009
Si Si3 0.036060 0.075237 0.466443
Si Si4 0.414468 0.252559 0.934011
Si Si5 0.000000 0.926458 0.250000
Si Si6 0.834364 0.650495 0.219265
Si Si7 0.824782 0.023567 0.800769
Si Si8 0.861903 0.294921 0.247859
O O1 0.416373 0.879493 0.989509
O O2 0.582904 0.953125 0.157631
O O3 0.601932 0.854500 0.210859
O O4 0.241513 0.910097 0.027938
O O5 0.135179 0.698403 0.558017
O O6 0.283568 0.607306 0.621397
O O7 0.936793 0.641370 0.356103
O O8 0.899721 0.124270 0.411552
O O9 0.105673 0.048833 0.582193
O O10 0.871465 0.035682 0.335366
O O11 0.214714 0.291197 0.824480
O O12 0.451698 0.238394 0.866912
O O13 0.617864 0.277283 0.090977
O O14 0.962312 0.957948 0.305035
O O15 0.000000 0.628721 0.250000
O O16 0.000000 0.285473 0.250000
#
# Coordination Sequence:
#
# PCOD9290598 Si02
#       8
#     8   8   8   8   4   8   8   8
#     4  10  22  42  68  93 132 173 220 280 337 397
#     4  10  24  43  64 100 128 176 225 279 335 411
#     4  11  24  42  67  99 131 174 222 283 335 410
#     4  11  23  41  61  94 131 176 225 275 335 398
#     4  10  22  44  70  92 136 176 222 282 342 408
#     4  12  26  42  63  94 136 173 224 279 341 400
#     4  10  22  41  67  97 128 173 227 271 343 400
#     4  11  21  38  64  93 129 174 221 271 334 399
#
# _framework density 20.779685000000001
#
# number of rings (size 3 to 8) (size 9 to 14) (size 15 to 20)
#    0.000    1.333    1.333    4.000    0.933    8.533 
#    0.000    2.667    0.000    0.000    0.000    0.000 
#    0.000    0.000    0.000    0.000    0.000    0.000 
#
# Total GULP energy -167550.318057 kJ/mol
# GULP energy per Si atom -5585.010602 kJ/mol
# Density = 2.073239 g / cm^3
# Si number density = 20.779685 Si / 1000 Ang^3
#
#
#
# Elastic Constant Matrix: (Units=GPa)
#
#
# Indices 1 2 3 4 5 6 
#
# 1 135.7115 29.3636 23.1228 -0.0004 0.1350 0.0002
# 2 29.3636 90.2086 12.5265 0.0000 2.7987 -0.0002
# 3 23.1228 12.5265 47.6745 -0.0021 -17.6997 0.0008
# 4 -0.0004 0.0000 -0.0021 22.1838 -0.0005 3.6833
# 5 0.1350 2.7987 -17.6997 -0.0005 30.1639 0.0008
# 6 0.0002 -0.0002 0.0008 3.6833 0.0008 18.7182
#
#
#
# Elastic Compliance Matrix: (Units=1/GPa)
#
#
# Indices 1 2 3 4 5 6 
#
# 1 0.008599 -0.002088 -0.004557 0.000000 -0.002519 0.000000
# 2 -0.002088 0.012332 -0.003387 0.000000 -0.003122 0.000001
# 3 -0.004557 -0.003387 0.030940 0.000004 0.018490 -0.000003
# 4 0.000000 0.000000 0.000004 0.046600 0.000003 -0.009170
# 5 -0.002519 -0.003122 0.018490 0.000003 0.044303 -0.000003
# 6 0.000000 0.000001 -0.000003 -0.009170 -0.000003 0.055228
#
#
# Mechanical properties :
#
#
# Convention : Reuss Voigt Hill
#
# Bulk Modulus (GPa) = 31.43881 44.84671 38.14276
# Shear Modulus (GPa) = 21.86553 28.11865 24.99209
#
# Velocity S-wave (km/s) = 3.24737 3.68255 3.47178
# Velocity P-wave (km/s) = 5.40583 6.30162 5.87083
#
# Compressibility (1/GPa) = 0.03180781
#
# Stress axis : x y z
#
# Youngs Moduli (GPa) = 116.28751 81.08813 32.32020
#
# Poissons Ratio (x) = 0.16933 0.14729
# Poissons Ratio (y) = 0.24283 0.10946
# Poissons Ratio (z) = 0.52996 0.27461
#
# Static dielectric constant tensor:
#      x y z
#    x 1.720850 0.000000 -0.017840 
#    y 0.000000 1.741720 0.000000 
#    z -0.017840 0.000000 1.767560 
# 
# From -- ./inp_files/201258.got.cif
#   From: 2010.05.17/outbox.cif.g08.bks.cpg/sg15_101_cif.got.tgz:201258.got - 2010.06.03 18:47:42.
