data_PCOD9290475
_publ_section_title
;
Structure prediction by ZEFSAII (Michael W. Deem and Ramdas Pophale) SiO2 
 PCOD9290475
Probable space group: C 2/C
;
_chemical_formula_sum "Si O2"
_cell_formula_units_Z 40
_cell_length_a 24.719801
_cell_length_b 6.241564
_cell_length_c 18.180842
_cell_angle_alpha 90.000000
_cell_angle_beta 34.525868
_cell_angle_gamma 90.000000
_cell_volume 1589.884489
_symmetry_space_group_name_H-M "C 2/C"
_symmetry_group_IT_number 15
_symmetry_cell_setting 'monoclinic'
loop_
_space_group_symop_operation_xyz
x,y,z
-x,y,1/2-z
-x,-y,-z
x,-y,1/2+z
1/2+x,1/2+y,z
1/2-x,1/2+y,1/2-z
1/2-x,1/2-y,-z
1/2+x,1/2-y,1/2+z
loop_
_atom_site_type_symbol
_atom_site_label
_atom_site_fract_x
_atom_site_fract_y
_atom_site_fract_z
Si Si1 0.186976 0.500352 0.893790
Si Si2 0.601510 0.294531 0.117817
Si Si3 0.597112 0.078894 0.851087
Si Si4 0.628279 0.636351 0.754386
Si Si5 0.539804 0.629852 0.073365
O O1 0.162658 0.634421 0.848006
O O2 0.298631 0.483326 0.785645
O O3 0.151398 0.636598 0.004570
O O4 0.129436 0.276413 0.949969
O O5 0.500000 0.186283 0.250000
O O6 0.643777 0.356481 0.149452
O O7 0.576483 0.518075 0.105841
O O8 0.648193 0.875181 0.758560
O O9 0.551691 0.213563 0.834119
O O10 0.500000 0.000000 0.000000
O O11 0.517785 0.574702 0.897674
#
# Coordination Sequence:
#
# PCOD9290475 Si02
#       5
#     8   8   8   8   8
#     4  11  25  42  68 100 135 182 224 283 339 400
#     4  10  22  42  67  97 138 180 221 282 337 404
#     4  10  23  43  66  96 131 181 222 280 335 395
#     4  11  25  41  66 102 138 176 227 282 338 401
#     4  10  22  41  66  93 130 177 224 264 338 396
#
# _framework density 25.159063
#
# number of rings (size 3 to 8) (size 9 to 14) (size 15 to 20)
#    0.000    1.600    0.000    5.400    2.800   16.800 
#    0.000    0.000    0.000    0.000    0.000    0.000 
#    0.000    0.000    0.000    0.000    0.000    0.000 
#
# Total GULP energy -111411.392455 kJ/mol
# GULP energy per Si atom -5570.569623 kJ/mol
# Density = 2.510180 g / cm^3
# Si number density = 25.159063 Si / 1000 Ang^3
#
#
#
# Elastic Constant Matrix: (Units=GPa)
#
#
# Indices 1 2 3 4 5 6 
#
# 1 195.7885 29.1437 59.7972 -0.0747 -6.1379 -0.0271
# 2 29.1437 46.9647 31.4053 -0.0296 15.6537 -0.0161
# 3 59.7972 31.4053 61.7514 0.0298 -2.6537 0.0220
# 4 -0.0747 -0.0296 0.0298 43.2208 0.0029 5.7517
# 5 -6.1379 15.6537 -2.6537 0.0029 47.2011 -0.0065
# 6 -0.0271 -0.0161 0.0220 5.7517 -0.0065 40.7003
#
#
#
# Elastic Compliance Matrix: (Units=1/GPa)
#
#
# Indices 1 2 3 4 5 6 
#
# 1 0.007267 -0.000006 -0.007010 0.000017 0.000553 0.000006
# 2 -0.000006 0.040237 -0.021082 0.000040 -0.014530 0.000019
# 3 -0.007010 -0.021082 0.034048 -0.000047 0.007994 -0.000023
# 4 0.000017 0.000040 -0.000047 0.023581 -0.000016 -0.003332
# 5 0.000553 -0.014530 0.007994 -0.000016 0.026526 -0.000003
# 6 0.000006 0.000019 -0.000023 -0.003332 -0.000003 0.025041
#
#
# Mechanical properties :
#
#
# Convention : Reuss Voigt Hill
#
# Bulk Modulus (GPa) = 39.44000 60.57743 50.00872
# Shear Modulus (GPa) = 22.58897 38.50166 30.54531
#
# Velocity S-wave (km/s) = 2.99966 3.91619 3.48816
# Velocity P-wave (km/s) = 5.26380 6.67673 6.01192
#
# Compressibility (1/GPa) = 0.02535497
#
# Stress axis : x y z
#
# Youngs Moduli (GPa) = 137.61289 24.85271 29.37064
#
# Poissons Ratio (x) = 0.00015 0.20589
# Poissons Ratio (y) = 0.00083 0.61920
# Poissons Ratio (z) = 0.96466 0.52395
#
# Static dielectric constant tensor:
#      x y z
#    x 1.970990 -0.000020 -0.007630 
#    y -0.000020 2.175720 0.000010 
#    z -0.007630 0.000010 2.047270 
# 
# From -- ./inp_files/254188.got.cif
#   From: 2010.05.17/outbox.cif.g08.bks.cpg/sg15_128_cif.got.tgz:254188.got - 2010.06.03 18:47:42.
