data_PCOD9290045
_publ_section_title
;
Structure prediction by ZEFSAII (Michael W. Deem and Ramdas Pophale) SiO2 
 PCOD9290045
Probable space group: C 2/C
;
_chemical_formula_sum "Si O2"
_cell_formula_units_Z 48
_cell_length_a 18.042642
_cell_length_b 26.249353
_cell_length_c 10.689708
_cell_angle_alpha 90.000000
_cell_angle_beta 155.317385
_cell_angle_gamma 90.000000
_cell_volume 2114.151537
_symmetry_space_group_name_H-M "C 2/C"
_symmetry_group_IT_number 15
_symmetry_cell_setting 'monoclinic'
loop_
_space_group_symop_operation_xyz
x,y,z
-x,y,1/2-z
-x,-y,-z
x,-y,1/2+z
1/2+x,1/2+y,z
1/2-x,1/2+y,1/2-z
1/2-x,1/2-y,-z
1/2+x,1/2-y,1/2+z
loop_
_atom_site_type_symbol
_atom_site_label
_atom_site_fract_x
_atom_site_fract_y
_atom_site_fract_z
Si Si1 0.000000 0.871895 0.750000
Si Si2 0.592331 0.358937 0.639353
Si Si3 0.375551 0.746998 0.813087
Si Si4 0.178141 0.308085 0.193692
Si Si5 0.500000 0.885837 0.750000
Si Si6 0.000000 0.079299 0.750000
Si Si7 0.000000 0.383717 0.250000
Si Si8 0.398027 0.946910 0.844148
O O1 0.982892 0.895234 0.861210
O O2 0.831095 0.835130 0.502115
O O3 0.494793 0.304160 0.499577
O O4 0.525620 0.384785 0.409611
O O5 0.807248 0.356751 0.966179
O O6 0.250000 0.750000 0.500000
O O7 0.251378 0.743110 0.743053
O O8 0.504141 0.795180 0.003546
O O9 0.141163 0.346349 0.022871
O O10 0.439108 0.918036 0.776323
O O11 0.815554 0.048384 0.475067
O O12 0.028536 0.416484 0.421772
O O13 0.500000 0.000000 0.000000
#
# Coordination Sequence:
#
# PCOD9290045 Si02
#       8
#     4   8   8   8   4   4   4   8
#     4  10  22  41  55  94 129 168 221 278 339 363
#     4  10  23  41  67  95 133 177 225 282 326 404
#     4  11  22  38  59  91 131 175 233 267 322 379
#     4  11  24  38  63  92 133 177 225 278 325 392
#     4  12  23  43  70 100 129 178 225 269 343 412
#     4  10  24  43  71 102 126 176 234 261 343 426
#     4  10  23  45  68 102 136 174 226 280 357 399
#     4  11  24  46  73 102 137 173 219 287 352 424
#
# _framework density 22.704142999999998
#
# number of rings (size 3 to 8) (size 9 to 14) (size 15 to 20)
#    0.000    1.333    1.667    3.500    2.333    6.000 
#    0.000   12.500    0.000    0.000    0.000    0.000 
#    0.000    0.000    0.000    0.000    0.000    0.000 
#
# Total GULP energy -134014.461250 kJ/mol
# GULP energy per Si atom -5583.935885 kJ/mol
# Density = 2.265247 g / cm^3
# Si number density = 22.704143 Si / 1000 Ang^3
#
#
#
# Elastic Constant Matrix: (Units=GPa)
#
#
# Indices 1 2 3 4 5 6 
#
# 1 159.0185 39.4319 37.2183 0.0000 -11.1432 0.0000
# 2 39.4319 69.3461 44.1420 0.0000 2.5331 0.0000
# 3 37.2183 44.1420 164.4568 0.0000 6.3517 0.0000
# 4 0.0000 0.0000 0.0000 19.7656 0.0000 1.2271
# 5 -11.1432 2.5331 6.3517 0.0000 35.2965 0.0000
# 6 0.0000 0.0000 0.0000 1.2271 0.0000 25.0463
#
#
#
# Elastic Compliance Matrix: (Units=1/GPa)
#
#
# Indices 1 2 3 4 5 6 
#
# 1 0.007652 -0.003959 -0.000779 0.000000 0.002840 0.000000
# 2 -0.003959 0.019446 -0.004251 0.000000 -0.001880 0.000000
# 3 -0.000779 -0.004251 0.007447 0.000000 -0.001281 0.000000
# 4 0.000000 0.000000 0.000000 0.050747 0.000000 -0.002486
# 5 0.002840 -0.001880 -0.001281 0.000000 0.029593 0.000000
# 6 0.000000 0.000000 0.000000 -0.002486 0.000000 0.040048
#
#
# Mechanical properties :
#
#
# Convention : Reuss Voigt Hill
#
# Bulk Modulus (GPa) = 60.35780 70.48952 65.42366
# Shear Modulus (GPa) = 28.02164 34.15697 31.08931
#
# Velocity S-wave (km/s) = 3.51694 3.88292 3.70445
# Velocity P-wave (km/s) = 6.56765 7.15661 6.86845
#
# Compressibility (1/GPa) = 0.01656787
#
# Stress axis : x y z
#
# Youngs Moduli (GPa) = 130.69287 51.42390 134.27626
#
# Poissons Ratio (x) = 0.20358 0.10456
# Poissons Ratio (y) = 0.51740 0.57081
# Poissons Ratio (z) = 0.10177 0.21860
#
# Static dielectric constant tensor:
#      x y z
#    x 1.907480 0.000000 -0.002570 
#    y 0.000000 1.768750 0.000000 
#    z -0.002570 0.000000 1.864430 
# 
# From -- ./inp_files/115081.got.cif
#   From: 2010.05.17/outbox.cif.g08.bks.cpg/sg15_58_cif.got.tgz:115081.got - 2010.06.03 18:47:42.
