data_PCOD9290059
_publ_section_title
;
Structure prediction by ZEFSAII (Michael W. Deem and Ramdas Pophale) SiO2 
 PCOD9290059
Probable space group: C 2/C
;
_chemical_formula_sum "Si O2"
_cell_formula_units_Z 44
_cell_length_a 25.392938
_cell_length_b 9.025848
_cell_length_c 12.421226
_cell_angle_alpha 90.000000
_cell_angle_beta 48.069184
_cell_angle_gamma 90.000000
_cell_volume 2117.924595
_symmetry_space_group_name_H-M "C 2/C"
_symmetry_group_IT_number 15
_symmetry_cell_setting 'monoclinic'
loop_
_space_group_symop_operation_xyz
x,y,z
-x,y,1/2-z
-x,-y,-z
x,-y,1/2+z
1/2+x,1/2+y,z
1/2-x,1/2+y,1/2-z
1/2-x,1/2-y,-z
1/2+x,1/2-y,1/2+z
loop_
_atom_site_type_symbol
_atom_site_label
_atom_site_fract_x
_atom_site_fract_y
_atom_site_fract_z
Si Si1 0.605323 0.461202 0.934599
Si Si2 0.410492 0.937604 0.536604
Si Si3 0.500000 0.131034 0.250000
Si Si4 0.951572 0.188185 0.639460
Si Si5 0.338466 0.700742 0.486677
Si Si6 0.328272 0.196672 0.764491
O O1 0.604325 0.572518 0.832646
O O2 0.621515 0.560544 0.016392
O O3 0.658312 0.327186 0.839941
O O4 0.527111 0.392034 0.045339
O O5 0.453439 0.819023 0.548734
O O6 0.358055 0.841171 0.534091
O O7 0.461213 0.030531 0.390002
O O8 0.368259 0.050494 0.670334
O O9 0.557231 0.233181 0.233834
O O10 0.357634 0.743339 0.338491
O O11 0.254895 0.669523 0.607272
#
# Coordination Sequence:
#
# PCOD9290059 Si02
#       6
#     8   8   4   8   8   8
#     4  10  22  41  59  86 128 155 202 253 305 366
#     4  11  23  40  62  92 126 160 207 254 308 369
#     4  12  22  36  64  90 122 162 198 258 310 370
#     4  10  23  39  57  91 121 162 198 248 313 368
#     4  10  24  41  62  91 122 167 205 255 308 360
#     4  11  22  41  66  89 123 163 211 251 304 370
#
# _framework density 20.775054000000001
#
# number of rings (size 3 to 8) (size 9 to 14) (size 15 to 20)
#    0.000    1.455    1.818    2.727    5.091    0.000 
#    0.000    0.000    0.000   12.000    0.000    0.000 
#    0.000    0.000    0.000    0.000    0.000    0.000 
#
# Total GULP energy -122960.786388 kJ/mol
# GULP energy per Si atom -5589.126654 kJ/mol
# Density = 2.072777 g / cm^3
# Si number density = 20.775054 Si / 1000 Ang^3
#
#
#
# Elastic Constant Matrix: (Units=GPa)
#
#
# Indices 1 2 3 4 5 6 
#
# 1 88.7950 45.8162 26.1723 0.0000 21.2884 0.0000
# 2 45.8162 128.5325 36.7877 0.0000 11.0515 0.0000
# 3 26.1723 36.7877 61.6138 0.0000 8.0830 0.0000
# 4 0.0000 0.0000 0.0000 23.0160 0.0000 6.9864
# 5 21.2884 11.0515 8.0830 0.0000 29.9244 0.0000
# 6 0.0000 0.0000 0.0000 6.9864 0.0000 39.0735
#
#
#
# Elastic Compliance Matrix: (Units=1/GPa)
#
#
# Indices 1 2 3 4 5 6 
#
# 1 0.016656 -0.004169 -0.003352 0.000000 -0.009404 0.000000
# 2 -0.004169 0.010547 -0.004566 0.000000 0.000304 0.000000
# 3 -0.003352 -0.004566 0.020575 0.000000 -0.001487 0.000000
# 4 0.000000 0.000000 0.000000 0.045941 0.000000 -0.008214
# 5 -0.009404 0.000304 -0.001487 0.000000 0.040397 0.000000
# 6 0.000000 0.000000 0.000000 -0.008214 0.000000 0.027062
#
#
# Mechanical properties :
#
#
# Convention : Reuss Voigt Hill
#
# Bulk Modulus (GPa) = 42.36705 55.16597 48.76651
# Shear Modulus (GPa) = 25.87722 29.74712 27.81217
#
# Velocity S-wave (km/s) = 3.53312 3.78811 3.66283
# Velocity P-wave (km/s) = 6.08945 6.76348 6.43529
#
# Compressibility (1/GPa) = 0.02360325
#
# Stress axis : x y z
#
# Youngs Moduli (GPa) = 60.03998 94.81391 48.60163
#
# Poissons Ratio (x) = 0.39528 0.16292
# Poissons Ratio (y) = 0.25031 0.22193
# Poissons Ratio (z) = 0.20126 0.43294
#
# Static dielectric constant tensor:
#      x y z
#    x 1.757810 0.000000 0.027050 
#    y 0.000000 1.762830 0.000000 
#    z 0.027050 0.000000 1.714910 
# 
# From -- ./inp_files/109924.got.cif
#   From: 2010.05.17/outbox.cif.g08.bks.cpg/sg15_55_cif.got.tgz:109924.got - 2010.06.03 18:47:42.
