data_PCOD9290700
_publ_section_title
;
Structure prediction by ZEFSAII (Michael W. Deem and Ramdas Pophale) SiO2 
 PCOD9290700
Probable space group: C 2/C
;
_chemical_formula_sum "Si O2"
_cell_formula_units_Z 36
_cell_length_a 20.883461
_cell_length_b 8.803426
_cell_length_c 8.814377
_cell_angle_alpha 90.000000
_cell_angle_beta 73.447228
_cell_angle_gamma 90.000000
_cell_volume 1553.331296
_symmetry_space_group_name_H-M "C 2/C"
_symmetry_group_IT_number 15
_symmetry_cell_setting 'monoclinic'
loop_
_space_group_symop_operation_xyz
x,y,z
-x,y,1/2-z
-x,-y,-z
x,-y,1/2+z
1/2+x,1/2+y,z
1/2-x,1/2+y,1/2-z
1/2-x,1/2-y,-z
1/2+x,1/2-y,1/2+z
loop_
_atom_site_type_symbol
_atom_site_label
_atom_site_fract_x
_atom_site_fract_y
_atom_site_fract_z
Si Si1 0.077740 0.683048 0.966169
Si Si2 0.723780 0.716032 0.349300
Si Si3 0.500000 0.975762 0.250000
Si Si4 0.071772 0.985711 0.145834
Si Si5 0.338288 0.384673 0.136155
O O1 0.156555 0.684473 0.877194
O O2 0.037032 0.623259 0.850930
O O3 0.053420 0.581460 0.124730
O O4 0.061884 0.856614 0.024067
O O5 0.750000 0.750000 0.500000
O O6 0.702177 0.542184 0.349480
O O7 0.783817 0.755771 0.195969
O O8 0.114288 0.903789 0.249180
O O9 0.000000 0.033638 0.250000
O O10 0.115128 0.119926 0.043015
#
# Coordination Sequence:
#
# PCOD9290700 Si02
#       5
#     8   8   4   8   8
#     4  10  22  41  68  99 144 174 235 285 344 409
#     4  11  24  46  69 103 142 179 232 288 348 415
#     4  10  22  42  68 104 130 196 226 280 356 406
#     4  11  23  46  67 102 139 182 232 293 342 421
#     4  11  24  45  74 100 137 188 230 287 353 406
#
# _framework density 23.175995
#
# number of rings (size 3 to 8) (size 9 to 14) (size 15 to 20)
#    0.000    1.333    5.556    0.667    3.111    0.889 
#   16.000    0.000    0.000    0.000    0.000    0.000 
#    0.000    0.000    0.000    0.000    0.000    0.000 
#
# Total GULP energy -100829.326820 kJ/mol
# GULP energy per Si atom -5601.629268 kJ/mol
# Density = 2.312325 g / cm^3
# Si number density = 23.175995 Si / 1000 Ang^3
#
#
#
# Elastic Constant Matrix: (Units=GPa)
#
#
# Indices 1 2 3 4 5 6 
#
# 1 108.1885 25.8033 48.1340 0.0000 -28.4978 0.0000
# 2 25.8033 58.6110 13.2475 0.0000 -3.6959 0.0000
# 3 48.1340 13.2475 72.8319 0.0000 -30.4294 0.0000
# 4 0.0000 0.0000 0.0000 34.5725 0.0000 3.9578
# 5 -28.4978 -3.6959 -30.4294 0.0000 62.3267 0.0000
# 6 0.0000 0.0000 0.0000 3.9578 0.0000 26.4008
#
#
#
# Elastic Compliance Matrix: (Units=1/GPa)
#
#
# Indices 1 2 3 4 5 6 
#
# 1 0.014370 -0.004444 -0.007605 0.000000 0.002594 0.000000
# 2 -0.004444 0.019189 -0.001165 0.000000 -0.001463 0.000000
# 3 -0.007605 -0.001165 0.021967 0.000000 0.007179 0.000000
# 4 0.000000 0.000000 0.000000 0.029430 0.000000 -0.004412
# 5 0.002594 -0.001463 0.007179 0.000000 0.020649 0.000000
# 6 0.000000 0.000000 0.000000 -0.004412 0.000000 0.038539
#
#
# Mechanical properties :
#
#
# Convention : Reuss Voigt Hill
#
# Bulk Modulus (GPa) = 34.36439 46.00011 40.18225
# Shear Modulus (GPa) = 27.73628 34.82311 31.27969
#
# Velocity S-wave (km/s) = 3.46319 3.88048 3.67776
# Velocity P-wave (km/s) = 5.55440 6.32209 5.95063
#
# Compressibility (1/GPa) = 0.02909989
#
# Stress axis : x y z
#
# Youngs Moduli (GPa) = 69.59106 52.11327 45.52225
#
# Poissons Ratio (x) = 0.23158 0.34619
# Poissons Ratio (y) = 0.30925 0.05301
# Poissons Ratio (z) = 0.52922 0.06069
#
# Static dielectric constant tensor:
#      x y z
#    x 1.850000 0.000000 -0.021100 
#    y 0.000000 1.850570 0.000000 
#    z -0.021100 0.000000 1.950110 
# 
# From -- ./inp_files/53880.got.cif
#   From: 2010.05.17/outbox.cif.g08.bks.cpg/sg15_27_cif.got.tgz:53880.got - 2010.06.03 18:47:42.
