data_PCOD9290520
_publ_section_title
;
Structure prediction by ZEFSAII (Michael W. Deem and Ramdas Pophale) SiO2 
 PCOD9290520
Probable space group: C 2/C
;
_chemical_formula_sum "Si O2"
_cell_formula_units_Z 48
_cell_length_a 14.897454
_cell_length_b 32.746056
_cell_length_c 5.353796
_cell_angle_alpha 90.000000
_cell_angle_beta 55.917548
_cell_angle_gamma 90.000000
_cell_volume 2163.141253
_symmetry_space_group_name_H-M "C 2/C"
_symmetry_group_IT_number 15
_symmetry_cell_setting 'monoclinic'
loop_
_space_group_symop_operation_xyz
x,y,z
-x,y,1/2-z
-x,-y,-z
x,-y,1/2+z
1/2+x,1/2+y,z
1/2-x,1/2+y,1/2-z
1/2-x,1/2-y,-z
1/2+x,1/2-y,1/2+z
loop_
_atom_site_type_symbol
_atom_site_label
_atom_site_fract_x
_atom_site_fract_y
_atom_site_fract_z
Si Si1 0.680140 0.268238 0.385426
Si Si2 0.789998 0.392833 0.937259
Si Si3 0.346691 0.599897 0.351597
Si Si4 0.000000 0.164439 0.250000
Si Si5 0.000000 0.972812 0.750000
Si Si6 0.887770 0.693974 0.276256
Si Si7 0.872336 0.519317 0.429815
O O1 0.750000 0.250000 0.500000
O O2 0.596645 0.305349 0.531925
O O3 0.605334 0.229210 0.438504
O O4 0.777574 0.287852 0.070988
O O5 0.723783 0.385015 0.298972
O O6 0.718411 0.403168 0.804707
O O7 0.859324 0.352773 0.759204
O O8 0.858466 0.433202 0.892412
O O9 0.443128 0.632582 0.150048
O O10 0.399347 0.557980 0.366631
O O11 0.000000 0.000000 0.500000
O O12 0.000000 0.694293 0.250000
O O13 0.825092 0.506059 0.770603
O O14 0.000000 0.509682 0.250000
#
# Coordination Sequence:
#
# PCOD9290520 Si02
#       7
#     8   8   8   4   4   8   8
#     4  11  23  45  69  99 134 182 236 288 360 418
#     4  12  24  45  67 103 140 182 237 285 355 414
#     4  11  26  43  69 101 137 188 235 283 353 427
#     4  11  22  46  68  98 140 188 228 292 342 431
#     4  11  24  44  68 102 142 182 234 296 354 413
#     4  11  25  42  67 103 136 181 234 295 354 416
#     4  10  22  41  66  98 135 183 231 281 348 414
#
# _framework density 22.189952000000002
#
# number of rings (size 3 to 8) (size 9 to 14) (size 15 to 20)
#    0.000    1.000    1.667    4.500    0.000    7.333 
#    6.000    1.667    0.000    0.000    0.000    0.000 
#    0.000    0.000    0.000    0.000    0.000    0.000 
#
# Total GULP energy -133783.249749 kJ/mol
# GULP energy per Si atom -5574.302073 kJ/mol
# Density = 2.213945 g / cm^3
# Si number density = 22.189952 Si / 1000 Ang^3
#
#
#
# Elastic Constant Matrix: (Units=GPa)
#
#
# Indices 1 2 3 4 5 6 
#
# 1 131.3834 50.3482 43.5926 0.0000 16.6577 0.0000
# 2 50.3482 157.7959 19.2696 0.0000 18.3467 0.0000
# 3 43.5926 19.2696 75.8080 0.0000 9.3074 0.0000
# 4 0.0000 0.0000 0.0000 31.6274 0.0000 -22.3133
# 5 16.6577 18.3467 9.3074 0.0000 39.4935 0.0000
# 6 0.0000 0.0000 0.0000 -22.3133 0.0000 57.8778
#
#
#
# Elastic Compliance Matrix: (Units=1/GPa)
#
#
# Indices 1 2 3 4 5 6 
#
# 1 0.010547 -0.002492 -0.005177 0.000000 -0.002071 0.000000
# 2 -0.002492 0.007427 -0.000165 0.000000 -0.002360 0.000000
# 3 -0.005177 -0.000165 0.016407 0.000000 -0.001606 0.000000
# 4 0.000000 0.000000 0.000000 0.043431 0.000000 0.016744
# 5 -0.002071 -0.002360 -0.001606 0.000000 0.027669 0.000000
# 6 0.000000 0.000000 0.000000 0.016744 0.000000 0.023733
#
#
# Mechanical properties :
#
#
# Convention : Reuss Voigt Hill
#
# Bulk Modulus (GPa) = 53.43978 65.71201 59.57589
# Shear Modulus (GPa) = 33.08637 42.58487 37.83562
#
# Velocity S-wave (km/s) = 3.86560 4.38551 4.13374
# Velocity P-wave (km/s) = 6.63770 7.43783 7.04913
#
# Compressibility (1/GPa) = 0.01871265
#
# Stress axis : x y z
#
# Youngs Moduli (GPa) = 94.81740 134.64306 60.94820
#
# Poissons Ratio (x) = 0.33555 0.31553
# Poissons Ratio (y) = 0.23630 0.01006
# Poissons Ratio (z) = 0.49087 0.02222
#
# Static dielectric constant tensor:
#      x y z
#    x 1.776940 0.000000 0.059480 
#    y 0.000000 1.619060 0.000000 
#    z 0.059480 0.000000 2.019380 
# 
# From -- ./inp_files/8977.got.cif
#   From: 2010.05.17/outbox.cif.g08.bks.cpg/sg15_5_cif.got.tgz:8977.got - 2010.06.03 18:47:42.
