data_PCOD9290233
_publ_section_title
;
Structure prediction by ZEFSAII (Michael W. Deem and Ramdas Pophale) SiO2 
 PCOD9290233
Probable space group: C 2/C
;
_chemical_formula_sum "Si O2"
_cell_formula_units_Z 64
_cell_length_a 21.531627
_cell_length_b 23.071834
_cell_length_c 16.931578
_cell_angle_alpha 90.000000
_cell_angle_beta 19.286835
_cell_angle_gamma 90.000000
_cell_volume 2778.188571
_symmetry_space_group_name_H-M "C 2/C"
_symmetry_group_IT_number 15
_symmetry_cell_setting 'monoclinic'
loop_
_space_group_symop_operation_xyz
x,y,z
-x,y,1/2-z
-x,-y,-z
x,-y,1/2+z
1/2+x,1/2+y,z
1/2-x,1/2+y,1/2-z
1/2-x,1/2-y,-z
1/2+x,1/2-y,1/2+z
loop_
_atom_site_type_symbol
_atom_site_label
_atom_site_fract_x
_atom_site_fract_y
_atom_site_fract_z
Si Si1 0.886606 0.594095 0.536118
Si Si2 0.254187 0.701676 0.722197
Si Si3 0.222225 0.811580 0.488854
Si Si4 0.853100 0.169170 0.165172
Si Si5 0.312032 0.535742 0.596393
Si Si6 0.518474 0.576615 0.875903
Si Si7 0.799906 0.477624 0.929987
Si Si8 0.274934 0.410928 0.895388
O O1 0.885416 0.662708 0.556311
O O2 0.864248 0.563352 0.647550
O O3 0.683595 0.580011 0.741984
O O4 0.039330 0.565199 0.295860
O O5 0.213093 0.687962 0.679436
O O6 0.242432 0.770691 0.740265
O O7 0.462846 0.685095 0.502500
O O8 0.250000 0.750000 0.500000
O O9 0.290477 0.865074 0.459914
O O10 0.000000 0.818472 0.750000
O O11 0.744088 0.122431 0.350089
O O12 0.910539 0.136258 0.016457
O O13 0.379140 0.476566 0.557676
O O14 0.259409 0.517450 0.571780
O O15 0.499569 0.575511 0.369282
O O16 0.630448 0.563175 0.662155
O O17 0.813409 0.525563 0.984569
#
# Coordination Sequence:
#
# PCOD9290233 Si02
#       8
#     8   8   8   8   8   8   8   8
#     4  11  22  40  63  92 132 163 210 267 319 369
#     4  11  22  40  63  91 122 171 211 262 310 373
#     4  12  20  35  57  84 120 158 201 248 301 372
#     4  11  23  40  66  88 126 169 216 259 315 382
#     4  11  21  39  66  90 124 168 210 250 321 389
#     4  10  22  41  64  89 125 173 209 255 318 386
#     4  11  24  37  64  97 126 160 211 268 316 375
#     4  11  20  37  62  87 123 165 206 240 319 384
#
# _framework density 23.036593
#
# number of rings (size 3 to 8) (size 9 to 14) (size 15 to 20)
#    0.000    1.000    5.000    4.125    1.750    1.000 
#    0.000    4.375    0.000    1.500    0.000    0.000 
#    0.000    0.000    0.000    0.000    0.000    0.000 
#
# Total GULP energy -178848.546984 kJ/mol
# GULP energy per Si atom -5589.017093 kJ/mol
# Density = 2.298416 g / cm^3
# Si number density = 23.036593 Si / 1000 Ang^3
#
#
#
# Elastic Constant Matrix: (Units=GPa)
#
#
# Indices 1 2 3 4 5 6 
#
# 1 43.4298 39.8010 10.8775 -0.0904 14.4535 0.0346
# 2 39.8010 155.4416 52.0847 -0.1733 23.5087 0.0395
# 3 10.8775 52.0847 89.2179 -0.2531 22.0570 0.0795
# 4 -0.0904 -0.1733 -0.2531 37.2804 0.0494 3.0204
# 5 14.4535 23.5087 22.0570 0.0494 28.9389 -0.0580
# 6 0.0346 0.0395 0.0795 3.0204 -0.0580 37.6063
#
#
#
# Elastic Compliance Matrix: (Units=1/GPa)
#
#
# Indices 1 2 3 4 5 6 
#
# 1 0.033749 -0.007895 0.003791 0.000093 -0.013332 -0.000059
# 2 -0.007895 0.010165 -0.004812 -0.000004 -0.000647 0.000006
# 3 0.003791 -0.004812 0.016089 0.000114 -0.010248 -0.000057
# 4 0.000093 -0.000004 0.000114 0.027001 -0.000181 -0.002169
# 5 -0.013332 -0.000647 -0.010248 -0.000181 0.049551 0.000126
# 6 -0.000059 0.000006 -0.000057 -0.002169 0.000126 0.026766
#
#
# Mechanical properties :
#
#
# Convention : Reuss Voigt Hill
#
# Bulk Modulus (GPa) = 23.71320 54.84620 39.27970
# Shear Modulus (GPa) = 25.61343 33.12018 29.36680
#
# Velocity S-wave (km/s) = 3.33807 3.79584 3.57429
# Velocity P-wave (km/s) = 5.01727 6.56287 5.84141
#
# Compressibility (1/GPa) = 0.04217060
#
# Stress axis : x y z
#
# Youngs Moduli (GPa) = 29.63068 98.37678 62.15292
#
# Poissons Ratio (x) = 0.77671 -0.23561
# Poissons Ratio (y) = 0.23394 0.29906
# Poissons Ratio (z) = -0.11232 0.47337
#
# Static dielectric constant tensor:
#      x y z
#    x 1.957160 -0.000050 -0.012650 
#    y -0.000050 1.885820 0.000030 
#    z -0.012650 0.000030 1.915330 
# 
# From -- ./inp_files/220236.got.cif
#   From: 2010.05.17/outbox.cif.g08.bks.cpg/sg15_111_cif.got.tgz:220236.got - 2010.06.03 18:47:42.
