data_PCOD9290528
_publ_section_title
;
Structure prediction by ZEFSAII (Michael W. Deem and Ramdas Pophale) SiO2 
 PCOD9290528
Probable space group: C 2/C
;
_chemical_formula_sum "Si O2"
_cell_formula_units_Z 32
_cell_length_a 25.549867
_cell_length_b 5.126756
_cell_length_c 19.017970
_cell_angle_alpha 90.000000
_cell_angle_beta 151.494724
_cell_angle_gamma 90.000000
_cell_volume 1188.863513
_symmetry_space_group_name_H-M "C 2/C"
_symmetry_group_IT_number 15
_symmetry_cell_setting 'monoclinic'
loop_
_space_group_symop_operation_xyz
x,y,z
-x,y,1/2-z
-x,-y,-z
x,-y,1/2+z
1/2+x,1/2+y,z
1/2-x,1/2+y,1/2-z
1/2-x,1/2-y,-z
1/2+x,1/2-y,1/2+z
loop_
_atom_site_type_symbol
_atom_site_label
_atom_site_fract_x
_atom_site_fract_y
_atom_site_fract_z
Si Si1 0.967428 0.450881 0.357931
Si Si2 0.157900 0.589320 0.430751
Si Si3 0.093214 0.075324 0.419560
Si Si4 0.324017 0.851213 0.318968
O O1 0.930046 0.550862 0.236537
O O2 0.863396 0.401127 0.284830
O O3 0.033904 0.186440 0.417876
O O4 0.056802 0.626361 0.503056
O O5 0.250000 0.750000 0.500000
O O6 0.170675 0.304276 0.479428
O O7 0.141282 0.788631 0.475790
O O8 0.000000 0.051502 0.250000
O O9 0.242364 0.083340 0.247664
#
# Coordination Sequence:
#
# PCOD9290528 Si02
#       4
#     8   8   8   8
#     4  10  26  48  75 109 155 190 255 313 366 451
#     4  11  24  40  70 107 139 190 233 294 377 438
#     4  10  22  41  66  99 142 182 226 300 364 430
#     4  11  28  48  76 108 144 207 254 310 368 435
#
# _framework density 26.916461999999999
#
# number of rings (size 3 to 8) (size 9 to 14) (size 15 to 20)
#    0.000    1.500    0.000    3.000    7.000   14.000 
#    0.000    0.000    0.000    0.000    0.000    0.000 
#    0.000    0.000    0.000    0.000    0.000    0.000 
#
# Total GULP energy -89507.250404 kJ/mol
# GULP energy per Si atom -5594.203150 kJ/mol
# Density = 2.685520 g / cm^3
# Si number density = 26.916462 Si / 1000 Ang^3
#
#
#
# Elastic Constant Matrix: (Units=GPa)
#
#
# Indices 1 2 3 4 5 6 
#
# 1 183.2980 54.6049 6.6329 -0.0001 20.0266 -0.0003
# 2 54.6049 179.1406 33.5844 0.0030 3.5966 0.0008
# 3 6.6329 33.5844 125.6517 0.0004 -14.1349 0.0002
# 4 -0.0001 0.0030 0.0004 18.1353 0.0002 -15.2580
# 5 20.0266 3.5966 -14.1349 0.0002 36.4096 -0.0003
# 6 -0.0003 0.0008 0.0002 -15.2580 -0.0003 9.7623
#
#
#
# Elastic Compliance Matrix: (Units=1/GPa)
#
#
# Indices 1 2 3 4 5 6 
#
# 1 0.006384 -0.001834 -0.000232 -0.000002 -0.003420 -0.000003
# 2 -0.001834 0.006458 -0.001660 0.000005 -0.000274 0.000007
# 3 -0.000232 -0.001660 0.008833 0.000000 0.003720 0.000000
# 4 -0.000002 0.000005 0.000000 -0.175067 -0.000001 -0.273620
# 5 -0.003420 -0.000274 0.003720 -0.000001 0.030818 -0.000001
# 6 -0.000003 0.000007 0.000000 -0.273620 -0.000001 -0.325219
#
#
# Mechanical properties :
#
#
# Convention : Reuss Voigt Hill
#
# Bulk Modulus (GPa) = 70.30454 75.30386 72.80420
# Shear Modulus (GPa) = -11.47839 39.07930 13.80046
#
# Velocity S-wave (km/s) = -2.06729 3.81448 2.26678
# Velocity P-wave (km/s) = 4.52526 6.88752 5.82735
#
# Compressibility (1/GPa) = 0.01422383
#
# Stress axis : x y z
#
# Youngs Moduli (GPa) = 156.64250 154.84884 113.21227
#
# Poissons Ratio (x) = 0.28397 0.02622
# Poissons Ratio (y) = 0.28726 0.18794
# Poissons Ratio (z) = 0.03628 0.25706
#
# Static dielectric constant tensor:
#      x y z
#    x 2.434310 0.000000 0.129990 
#    y 0.000000 2.210620 0.000000 
#    z 0.129990 0.000000 2.247620 
# 
# From -- ./inp_files/256663.got.cif
#   From: 2010.05.17/outbox.cif.g08.bks.cpg/sg15_129_cif.got.tgz:256663.got - 2010.06.03 18:47:42.
