data_PCOD9290473
_publ_section_title
;
Structure prediction by ZEFSAII (Michael W. Deem and Ramdas Pophale) SiO2 
 PCOD9290473
Probable space group: C 2/C
;
_chemical_formula_sum "Si O2"
_cell_formula_units_Z 64
_cell_length_a 29.022361
_cell_length_b 11.669321
_cell_length_c 9.981227
_cell_angle_alpha 90.000000
_cell_angle_beta 85.459459
_cell_angle_gamma 90.000000
_cell_volume 3369.745580
_symmetry_space_group_name_H-M "C 2/C"
_symmetry_group_IT_number 15
_symmetry_cell_setting 'monoclinic'
loop_
_space_group_symop_operation_xyz
x,y,z
-x,y,1/2-z
-x,-y,-z
x,-y,1/2+z
1/2+x,1/2+y,z
1/2-x,1/2+y,1/2-z
1/2-x,1/2-y,-z
1/2+x,1/2-y,1/2+z
loop_
_atom_site_type_symbol
_atom_site_label
_atom_site_fract_x
_atom_site_fract_y
_atom_site_fract_z
Si Si1 0.769719 0.872250 0.444128
Si Si2 0.889945 0.653547 0.239990
Si Si3 0.892388 0.667934 0.548387
Si Si4 0.664196 0.627270 0.330163
Si Si5 0.155474 0.124651 0.806365
Si Si6 0.817225 0.471323 0.594906
Si Si7 0.533308 0.015405 0.867943
Si Si8 0.696222 0.745534 0.051014
O O1 0.750000 0.750000 0.500000
O O2 0.797359 0.909936 0.570191
O O3 0.804396 0.851594 0.312626
O O4 0.733090 0.969043 0.404011
O O5 0.903463 0.647468 0.391042
O O6 0.885561 0.786628 0.208521
O O7 0.838973 0.598514 0.217099
O O8 0.928302 0.585048 0.148802
O O9 0.872443 0.791536 0.587817
O O10 0.850561 0.579598 0.580077
O O11 0.935775 0.629551 0.626114
O O12 0.642943 0.507318 0.289641
O O13 0.686066 0.699072 0.201765
O O14 0.173106 0.159784 0.949672
O O15 0.821396 0.375261 0.476502
O O16 0.500000 0.015505 0.750000
O O17 0.500000 0.000000 0.000000
O O18 0.750000 0.750000 0.000000
#
# Coordination Sequence:
#
# PCOD9290473 Si02
#       8
#     8   8   8   8   8   8   8   8
#     4  12  22  38  60  85 125 178 230 272 314 375
#     4  10  22  41  66  93 129 172 209 272 331 391
#     4  11  23  39  66  94 127 164 210 265 338 390
#     4  12  24  39  61  89 127 178 225 269 320 388
#     4  11  23  40  59  87 126 174 223 263 317 379
#     4  10  23  37  58  86 128 165 225 271 321 370
#     4  11  23  42  73 107 131 157 202 271 348 415
#     4  11  24  37  54  82 121 171 222 281 318 351
#
# _framework density 18.992532000000001
#
# number of rings (size 3 to 8) (size 9 to 14) (size 15 to 20)
#    0.000    1.000    3.750    3.000    3.500    4.000 
#    0.000    0.000    0.000    1.500    0.000    0.000 
#    0.000    0.000    0.000    0.000    0.000    0.000 
#
# Total GULP energy -178577.968963 kJ/mol
# GULP energy per Si atom -5580.561530 kJ/mol
# Density = 1.894930 g / cm^3
# Si number density = 18.992532 Si / 1000 Ang^3
#
#
#
# Elastic Constant Matrix: (Units=GPa)
#
#
# Indices 1 2 3 4 5 6 
#
# 1 79.9614 38.3903 34.5429 0.0000 10.5884 0.0000
# 2 38.3903 131.0800 12.9490 0.0000 -2.8967 0.0000
# 3 34.5429 12.9490 91.1879 0.0000 -4.6468 0.0000
# 4 0.0000 0.0000 0.0000 13.6025 0.0000 2.8461
# 5 10.5884 -2.8967 -4.6468 0.0000 28.1499 0.0000
# 6 0.0000 0.0000 0.0000 2.8461 0.0000 21.7154
#
#
#
# Elastic Compliance Matrix: (Units=1/GPa)
#
#
# Indices 1 2 3 4 5 6 
#
# 1 0.019155 -0.005117 -0.006982 0.000000 -0.008884 0.000000
# 2 -0.005117 0.009115 0.000796 0.000000 0.002994 0.000000
# 3 -0.006982 0.000796 0.013752 0.000000 0.004978 0.000000
# 4 0.000000 0.000000 0.000000 0.075589 0.000000 -0.009907
# 5 -0.008884 0.002994 0.004978 0.000000 0.039996 0.000000
# 6 0.000000 0.000000 0.000000 -0.009907 0.000000 0.047349
#
#
# Mechanical properties :
#
#
# Convention : Reuss Voigt Hill
#
# Bulk Modulus (GPa) = 51.50110 52.66596 52.08353
# Shear Modulus (GPa) = 21.36447 27.11670 24.24059
#
# Velocity S-wave (km/s) = 3.35757 3.78266 3.57644
# Velocity P-wave (km/s) = 6.49665 6.84603 6.67362
#
# Compressibility (1/GPa) = 0.01941706
#
# Stress axis : x y z
#
# Youngs Moduli (GPa) = 52.20443 109.70934 72.71689
#
# Poissons Ratio (x) = 0.56136 0.50774
# Poissons Ratio (y) = 0.26712 -0.05792
# Poissons Ratio (z) = 0.36451 -0.08738
#
# Static dielectric constant tensor:
#      x y z
#    x 1.682390 0.000000 0.037010 
#    y 0.000000 1.739890 0.000000 
#    z 0.037010 0.000000 1.717830 
# 
# From -- ./inp_files/69381.got.cif
#   From: 2010.05.17/outbox.cif.g08.bks.cpg/sg15_35_cif.got.tgz:69381.got - 2010.06.03 18:47:42.
