data_PCOD9290537
_publ_section_title
;
Structure prediction by ZEFSAII (Michael W. Deem and Ramdas Pophale) SiO2 
 PCOD9290537
Probable space group: C 2/C
;
_chemical_formula_sum "Si O2"
_cell_formula_units_Z 44
_cell_length_a 5.231492
_cell_length_b 18.244363
_cell_length_c 22.703115
_cell_angle_alpha 90.000000
_cell_angle_beta 69.447863
_cell_angle_gamma 90.000000
_cell_volume 2028.987558
_symmetry_space_group_name_H-M "C 2/C"
_symmetry_group_IT_number 15
_symmetry_cell_setting 'monoclinic'
loop_
_space_group_symop_operation_xyz
x,y,z
-x,y,1/2-z
-x,-y,-z
x,-y,1/2+z
1/2+x,1/2+y,z
1/2-x,1/2+y,1/2-z
1/2-x,1/2-y,-z
1/2+x,1/2-y,1/2+z
loop_
_atom_site_type_symbol
_atom_site_label
_atom_site_fract_x
_atom_site_fract_y
_atom_site_fract_z
Si Si1 0.548948 0.767870 0.375482
Si Si2 0.000000 0.685077 0.750000
Si Si3 0.620877 0.985628 0.887258
Si Si4 0.404475 0.603243 0.085631
Si Si5 0.489940 0.606735 0.831385
Si Si6 0.706619 0.395745 0.444277
O O1 0.477821 0.768601 0.311569
O O2 0.598621 0.687525 0.394991
O O3 0.322554 0.813273 0.430276
O O4 0.809329 0.821111 0.357339
O O5 0.263098 0.632685 0.729222
O O6 0.385529 0.934912 0.878737
O O7 0.838253 0.936125 0.904184
O O8 0.449218 0.046609 0.938352
O O9 0.800322 0.038017 0.830482
O O10 0.469307 0.597914 0.010776
O O11 0.614294 0.586294 0.885395
#
# Coordination Sequence:
#
# PCOD9290537 Si02
#       6
#     8   4   8   8   8   8
#     4  10  24  41  69  95 131 174 229 271 331 389
#     4  10  22  46  74  84 124 176 238 278 326 382
#     4  11  24  41  66 101 139 177 213 263 334 400
#     4  12  25  39  68 103 147 167 210 277 334 394
#     4  10  22  43  70  95 125 178 231 265 326 403
#     4  10  22  41  67 101 136 183 215 256 328 410
#
# _framework density 21.685690999999998
#
# number of rings (size 3 to 8) (size 9 to 14) (size 15 to 20)
#    0.000    1.455    1.818    2.182   10.182    0.727 
#    0.000    0.000   16.000    0.000    0.000    0.000 
#    0.000    0.000    0.000    0.000    0.000    0.000 
#
# Total GULP energy -122896.821755 kJ/mol
# GULP energy per Si atom -5586.219171 kJ/mol
# Density = 2.163633 g / cm^3
# Si number density = 21.685691 Si / 1000 Ang^3
#
#
#
# Elastic Constant Matrix: (Units=GPa)
#
#
# Indices 1 2 3 4 5 6 
#
# 1 94.1846 45.2488 8.5374 0.0000 -8.6013 0.0000
# 2 45.2488 160.6318 12.7606 0.0000 -4.2674 0.0000
# 3 8.5374 12.7606 40.6386 0.0000 -4.3826 0.0000
# 4 0.0000 0.0000 0.0000 12.6501 0.0000 1.3564
# 5 -8.6013 -4.2674 -4.3826 0.0000 29.3061 0.0000
# 6 0.0000 0.0000 0.0000 1.3564 0.0000 32.4387
#
#
#
# Elastic Compliance Matrix: (Units=1/GPa)
#
#
# Indices 1 2 3 4 5 6 
#
# 1 0.012631 -0.003377 -0.001267 0.000000 0.003026 0.000000
# 2 -0.003377 0.007299 -0.001601 0.000000 -0.000168 0.000000
# 3 -0.001267 -0.001601 0.025726 0.000000 0.003242 0.000000
# 4 0.000000 0.000000 0.000000 0.079407 0.000000 -0.003320
# 5 0.003026 -0.000168 0.003242 0.000000 0.035471 0.000000
# 6 0.000000 0.000000 0.000000 -0.003320 0.000000 0.030966
#
#
# Mechanical properties :
#
#
# Convention : Reuss Voigt Hill
#
# Bulk Modulus (GPa) = 30.15049 47.61652 38.88351
# Shear Modulus (GPa) = 23.25093 30.13952 26.69523
#
# Velocity S-wave (km/s) = 3.27797 3.73209 3.51238
# Velocity P-wave (km/s) = 5.31604 6.36998 5.86673
#
# Compressibility (1/GPa) = 0.03316696
#
# Stress axis : x y z
#
# Youngs Moduli (GPa) = 79.16994 136.99743 38.87191
#
# Poissons Ratio (x) = 0.46265 0.04924
# Poissons Ratio (y) = 0.26736 0.06222
# Poissons Ratio (z) = 0.10029 0.21928
#
# Static dielectric constant tensor:
#      x y z
#    x 1.864570 0.000000 0.032970 
#    y 0.000000 1.757070 0.000000 
#    z 0.032970 0.000000 1.807520 
# 
# From -- ./inp_files/226934.got.cif
#   From: 2010.05.17/outbox.cif.g08.bks.cpg/sg15_114_cif.got.tgz:226934.got - 2010.06.03 18:47:42.
