data_PCOD9290470
_publ_section_title
;
Structure prediction by ZEFSAII (Michael W. Deem and Ramdas Pophale) SiO2 
 PCOD9290470
Probable space group: C 2/C
;
_chemical_formula_sum "Si O2"
_cell_formula_units_Z 64
_cell_length_a 9.701524
_cell_length_b 15.605581
_cell_length_c 32.664165
_cell_angle_alpha 90.000000
_cell_angle_beta 39.410831
_cell_angle_gamma 90.000000
_cell_volume 3139.646624
_symmetry_space_group_name_H-M "C 2/C"
_symmetry_group_IT_number 15
_symmetry_cell_setting 'monoclinic'
loop_
_space_group_symop_operation_xyz
x,y,z
-x,y,1/2-z
-x,-y,-z
x,-y,1/2+z
1/2+x,1/2+y,z
1/2-x,1/2+y,1/2-z
1/2-x,1/2-y,-z
1/2+x,1/2-y,1/2+z
loop_
_atom_site_type_symbol
_atom_site_label
_atom_site_fract_x
_atom_site_fract_y
_atom_site_fract_z
Si Si1 0.140078 0.217037 0.483821
Si Si2 0.161879 0.363069 0.089836
Si Si3 0.976830 0.624800 0.542582
Si Si4 0.244681 0.518893 0.175103
Si Si5 0.741093 0.645239 0.176199
Si Si6 0.826922 0.669831 0.825616
Si Si7 0.290685 0.449244 0.901661
Si Si8 0.356641 0.063460 0.388344
O O1 0.250000 0.250000 0.500000
O O2 0.138690 0.295059 0.452239
O O3 0.260937 0.132209 0.441055
O O4 0.891005 0.184856 0.542513
O O5 0.053664 0.331471 0.157427
O O6 0.178382 0.466378 0.089000
O O7 0.054943 0.348646 0.070183
O O8 0.817066 0.542836 0.579401
O O9 0.178496 0.594842 0.467138
O O10 0.294371 0.420473 0.150269
O O11 0.449288 0.546933 0.154470
O O12 0.243648 0.571974 0.133399
O O13 0.000000 0.523123 0.250000
O O14 0.500000 0.644569 0.250000
O O15 0.804866 0.744427 0.154054
O O16 0.759688 0.603501 0.127427
O O17 0.891605 0.589197 0.171123
O O18 0.000000 0.666027 0.750000
#
# Coordination Sequence:
#
# PCOD9290470 Si02
#       8
#     8   8   8   8   8   8   8   8
#     4  12  26  39  66  94 131 169 220 263 329 391
#     4  11  22  42  64  93 132 169 212 265 328 387
#     4  11  25  41  63  97 133 174 208 273 331 392
#     4  10  22  41  66  93 125 169 214 270 321 382
#     4  11  22  42  66  92 125 171 217 264 322 386
#     4   9  21  39  66  93 126 166 215 266 317 381
#     4  11  23  41  64  94 132 167 218 264 328 390
#     4  11  23  39  62  94 125 164 217 264 317 387
#
# _framework density 20.384457999999999
#
# number of rings (size 3 to 8) (size 9 to 14) (size 15 to 20)
#    0.000    1.250    1.250    4.500    7.000    1.000 
#    0.000    0.000    0.000    0.750    0.000    0.000 
#    0.000    0.000    0.000    0.000    0.000    0.000 
#
# Total GULP energy -178605.803548 kJ/mol
# GULP energy per Si atom -5581.431361 kJ/mol
# Density = 2.033806 g / cm^3
# Si number density = 20.384458 Si / 1000 Ang^3
#
#
#
# Elastic Constant Matrix: (Units=GPa)
#
#
# Indices 1 2 3 4 5 6 
#
# 1 126.4800 29.2729 33.9827 -0.0034 14.4387 0.0002
# 2 29.2729 86.4313 13.3756 -0.0014 16.0222 -0.0014
# 3 33.9827 13.3756 77.1408 0.0018 14.7557 -0.0023
# 4 -0.0034 -0.0014 0.0018 21.0079 0.0022 2.0474
# 5 14.4387 16.0222 14.7557 0.0022 33.8572 -0.0005
# 6 0.0002 -0.0014 -0.0023 2.0474 -0.0005 24.8364
#
#
#
# Elastic Compliance Matrix: (Units=1/GPa)
#
#
# Indices 1 2 3 4 5 6 
#
# 1 0.009578 -0.002440 -0.003530 0.000002 -0.001392 -0.000001
# 2 -0.002440 0.013398 -0.000256 0.000001 -0.005188 0.000001
# 3 -0.003530 -0.000256 0.015548 -0.000001 -0.005149 0.000001
# 4 0.000002 0.000001 -0.000001 0.047987 -0.000004 -0.003956
# 5 -0.001392 -0.005188 -0.005149 -0.000004 0.034829 0.000000
# 6 -0.000001 0.000001 0.000001 -0.003956 0.000000 0.040590
#
#
# Mechanical properties :
#
#
# Convention : Reuss Voigt Hill
#
# Bulk Modulus (GPa) = 38.35537 49.25718 43.80627
# Shear Modulus (GPa) = 27.31174 30.16836 28.74005
#
# Velocity S-wave (km/s) = 3.66434 3.85121 3.75894
# Velocity P-wave (km/s) = 6.06301 6.63267 6.35422
#
# Compressibility (1/GPa) = 0.02607197
#
# Stress axis : x y z
#
# Youngs Moduli (GPa) = 104.40104 74.64066 64.31743
#
# Poissons Ratio (x) = 0.18210 0.22706
# Poissons Ratio (y) = 0.25471 0.01646
# Poissons Ratio (z) = 0.36857 0.01910
#
# Static dielectric constant tensor:
#      x y z
#    x 1.721890 0.000000 -0.015590 
#    y 0.000000 1.726800 0.000000 
#    z -0.015590 0.000000 1.791550 
# 
# From -- ./inp_files/308248.got.cif
#   From: 2010.05.17/outbox.cif.g08.bks.cpg/sg15_155_cif.got.tgz:308248.got - 2010.06.03 18:47:42.
