data_PCOD9290044
_publ_section_title
;
Structure prediction by ZEFSAII (Michael W. Deem and Ramdas Pophale) SiO2 
 PCOD9290044
Probable space group: C 2/C
;
_chemical_formula_sum "Si O2"
_cell_formula_units_Z 60
_cell_length_a 14.282717
_cell_length_b 32.598767
_cell_length_c 14.355420
_cell_angle_alpha 90.000000
_cell_angle_beta 150.806038
_cell_angle_gamma 90.000000
_cell_volume 3260.175018
_symmetry_space_group_name_H-M "C 2/C"
_symmetry_group_IT_number 15
_symmetry_cell_setting 'monoclinic'
loop_
_space_group_symop_operation_xyz
x,y,z
-x,y,1/2-z
-x,-y,-z
x,-y,1/2+z
1/2+x,1/2+y,z
1/2-x,1/2+y,1/2-z
1/2-x,1/2-y,-z
1/2+x,1/2-y,1/2+z
loop_
_atom_site_type_symbol
_atom_site_label
_atom_site_fract_x
_atom_site_fract_y
_atom_site_fract_z
Si Si1 0.870766 0.458426 0.054773
Si Si2 0.500000 0.101399 0.250000
Si Si3 0.384242 0.436266 0.831552
Si Si4 0.247762 0.978113 0.216315
Si Si5 0.978852 0.712146 0.345264
Si Si6 0.599218 0.305847 0.235638
Si Si7 0.288877 0.456169 0.100022
Si Si8 0.807132 0.143417 0.383767
O O1 0.000000 0.439638 0.250000
O O2 0.034972 0.470754 0.123257
O O3 0.709450 0.436400 0.852583
O O4 0.770087 0.500739 0.999714
O O5 0.620757 0.074645 0.427577
O O6 0.663587 0.126203 0.338083
O O7 0.293733 0.473129 0.816456
O O8 0.340566 0.392632 0.839582
O O9 0.605239 0.451441 0.027155
O O10 0.206306 0.963646 0.285623
O O11 0.174491 0.693874 0.554994
O O12 0.000000 0.710434 0.250000
O O13 0.957797 0.760295 0.348601
O O14 0.804551 0.685775 0.235269
O O15 0.500000 0.309842 0.250000
O O16 0.512340 0.342106 0.099711
O O17 0.500000 0.443130 0.250000
#
# Coordination Sequence:
#
# PCOD9290044 Si02
#       8
#     8   4   8   8   8   8   8   8
#     4  11  23  37  61  78 102 151 196 236 293 350
#     4  12  22  34  48  82 114 144 202 246 264 326
#     4  10  23  37  55  77 111 142 188 236 289 330
#     4  10  22  41  55  77 116 153 185 244 292 336
#     4  11  19  35  52  74 109 151 192 231 274 336
#     4  11  19  33  53  74 106 154 193 225 279 337
#     4  11  23  36  59  82 110 152 200 240 285 337
#     4  12  22  33  52  82 109 149 190 244 277 327
#
# _framework density 18.403919999999999
#
# number of rings (size 3 to 8) (size 9 to 14) (size 15 to 20)
#    0.000    1.067    4.000    4.800    5.600    4.800 
#    0.000    0.000    0.000    0.000    0.000    0.000 
#    0.000    1.067    0.000    0.133    0.000    0.000 
#
# Total GULP energy -167512.888522 kJ/mol
# GULP energy per Si atom -5583.762951 kJ/mol
# Density = 1.836203 g / cm^3
# Si number density = 18.403920 Si / 1000 Ang^3
#
#
#
# Elastic Constant Matrix: (Units=GPa)
#
#
# Indices 1 2 3 4 5 6 
#
# 1 32.0262 11.9097 16.7435 0.0000 -1.5906 0.0000
# 2 11.9097 79.2017 32.8213 0.0000 -17.5388 0.0000
# 3 16.7435 32.8213 139.4905 0.0000 -5.1932 0.0000
# 4 0.0000 0.0000 0.0000 11.4634 0.0000 5.3898
# 5 -1.5906 -17.5388 -5.1932 0.0000 27.4769 0.0000
# 6 0.0000 0.0000 0.0000 5.3898 0.0000 37.5987
#
#
#
# Elastic Compliance Matrix: (Units=1/GPa)
#
#
# Indices 1 2 3 4 5 6 
#
# 1 0.034368 -0.004116 -0.003203 0.000000 -0.001243 0.000000
# 2 -0.004116 0.016695 -0.003068 0.000000 0.009838 0.000000
# 3 -0.003203 -0.003068 0.008254 0.000000 -0.000584 0.000000
# 4 0.000000 0.000000 0.000000 0.093538 0.000000 -0.013409
# 5 -0.001243 0.009838 -0.000584 0.000000 0.042492 0.000000
# 6 0.000000 0.000000 0.000000 -0.013409 0.000000 0.028519
#
#
# Mechanical properties :
#
#
# Convention : Reuss Voigt Hill
#
# Bulk Modulus (GPa) = 25.94532 41.51859 33.73195
# Shear Modulus (GPa) = 19.41848 27.92406 23.67127
#
# Velocity S-wave (km/s) = 3.25180 3.89947 3.59027
# Velocity P-wave (km/s) = 5.31293 6.54852 5.96281
#
# Compressibility (1/GPa) = 0.03854260
#
# Stress axis : x y z
#
# Youngs Moduli (GPa) = 29.09692 59.89851 121.15993
#
# Poissons Ratio (x) = 0.24653 0.38809
# Poissons Ratio (y) = 0.11976 0.37171
# Poissons Ratio (z) = 0.09320 0.18376
#
# Static dielectric constant tensor:
#      x y z
#    x 1.630120 0.000000 -0.011720 
#    y 0.000000 1.672630 0.000000 
#    z -0.011720 0.000000 1.704540 
# 
# From -- ./inp_files/157547.got.cif
#   From: 2010.05.17/outbox.cif.g08.bks.cpg/sg15_79_cif.got.tgz:157547.got - 2010.06.03 18:47:42.
