data_PCOD9290147
_publ_section_title
;
Structure prediction by ZEFSAII (Michael W. Deem and Ramdas Pophale) SiO2 
 PCOD9290147
Probable space group: C 2/C
;
_chemical_formula_sum "Si O2"
_cell_formula_units_Z 48
_cell_length_a 15.153269
_cell_length_b 12.151042
_cell_length_c 14.208355
_cell_angle_alpha 90.000000
_cell_angle_beta 121.835389
_cell_angle_gamma 90.000000
_cell_volume 2222.600035
_symmetry_space_group_name_H-M "C 2/C"
_symmetry_group_IT_number 15
_symmetry_cell_setting 'monoclinic'
loop_
_space_group_symop_operation_xyz
x,y,z
-x,y,1/2-z
-x,-y,-z
x,-y,1/2+z
1/2+x,1/2+y,z
1/2-x,1/2+y,1/2-z
1/2-x,1/2-y,-z
1/2+x,1/2-y,1/2+z
loop_
_atom_site_type_symbol
_atom_site_label
_atom_site_fract_x
_atom_site_fract_y
_atom_site_fract_z
Si Si1 0.296164 0.494740 0.510066
Si Si2 0.269087 0.302970 0.611919
Si Si3 0.377345 0.674754 0.678732
Si Si4 0.743497 0.903473 0.282682
Si Si5 0.918305 0.576118 0.398940
Si Si6 0.585203 0.093208 0.362626
O O1 0.331569 0.411174 0.613073
O O2 0.339976 0.611992 0.564064
O O3 0.306921 0.452700 0.408842
O O4 0.171238 0.511875 0.449127
O O5 0.250000 0.250000 0.500000
O O6 0.308359 0.208606 0.704670
O O7 0.159778 0.343366 0.592643
O O8 0.500000 0.655999 0.750000
O O9 0.315014 0.628983 0.734047
O O10 0.359752 0.805832 0.658582
O O11 0.659443 0.993562 0.201344
O O12 0.000000 0.500000 0.500000
O O13 0.004592 0.646180 0.390595
O O14 0.500000 0.032484 0.250000
#
# Coordination Sequence:
#
# PCOD9290147 Si02
#       6
#     8   8   8   8   8   8
#     4  11  22  42  67  96 142 174 221 283 344 401
#     4  10  22  41  62  95 135 177 219 276 338 399
#     4  11  24  41  64  98 136 178 225 274 340 409
#     4  11  24  42  69  96 138 182 221 284 349 395
#     4  12  22  42  72 102 131 178 235 282 336 411
#     4  11  21  38  68 101 128 167 227 284 328 399
#
# _framework density 21.596328
#
# number of rings (size 3 to 8) (size 9 to 14) (size 15 to 20)
#    0.000    1.000    5.000    2.500    0.000    0.667 
#    0.000    3.333    0.000    0.000    0.000    0.000 
#    0.000    0.000    0.000    0.000    0.000    0.000 
#
# Total GULP energy -133617.831780 kJ/mol
# GULP energy per Si atom -5567.409658 kJ/mol
# Density = 2.154717 g / cm^3
# Si number density = 21.596328 Si / 1000 Ang^3
#
#
#
# Elastic Constant Matrix: (Units=GPa)
#
#
# Indices 1 2 3 4 5 6 
#
# 1 100.7531 31.4085 21.6062 0.0000 -24.7189 0.0000
# 2 31.4085 89.7161 37.6073 0.0000 -8.8549 0.0000
# 3 21.6062 37.6073 82.9988 0.0000 -1.7511 0.0000
# 4 0.0000 0.0000 0.0000 40.3826 0.0000 -18.8745
# 5 -24.7189 -8.8549 -1.7511 0.0000 32.5484 0.0000
# 6 0.0000 0.0000 0.0000 -18.8745 0.0000 35.4287
#
#
#
# Elastic Compliance Matrix: (Units=1/GPa)
#
#
# Indices 1 2 3 4 5 6 
#
# 1 0.013591 -0.003000 -0.001980 0.000000 0.009399 0.000000
# 2 -0.003000 0.014811 -0.005900 0.000000 0.001433 0.000000
# 3 -0.001980 -0.005900 0.015189 0.000000 -0.002292 0.000000
# 4 0.000000 0.000000 0.000000 0.032974 0.000000 0.017566
# 5 0.009399 0.001433 -0.002292 0.000000 0.038128 0.000000
# 6 0.000000 0.000000 0.000000 0.017566 0.000000 0.037584
#
#
# Mechanical properties :
#
#
# Convention : Reuss Voigt Hill
#
# Bulk Modulus (GPa) = 45.80770 50.52355 48.16563
# Shear Modulus (GPa) = 27.57635 33.86167 30.71901
#
# Velocity S-wave (km/s) = 3.57725 3.96401 3.77559
# Velocity P-wave (km/s) = 6.19025 6.66307 6.43101
#
# Compressibility (1/GPa) = 0.02183039
#
# Stress axis : x y z
#
# Youngs Moduli (GPa) = 73.57692 67.51650 65.83822
#
# Poissons Ratio (x) = 0.20257 0.13038
# Poissons Ratio (y) = 0.22076 0.38843
# Poissons Ratio (z) = 0.14570 0.39833
#
# Static dielectric constant tensor:
#      x y z
#    x 1.851070 0.000000 -0.150730 
#    y 0.000000 1.942770 0.000000 
#    z -0.150730 0.000000 1.933060 
# 
# From -- ./inp_files/152726.got.cif
#   From: 2010.05.17/outbox.cif.g08.bks.cpg/sg15_77_cif.got.tgz:152726.got - 2010.06.03 18:47:42.
