data_PCOD9290185
_publ_section_title
;
Structure prediction by ZEFSAII (Michael W. Deem and Ramdas Pophale) SiO2 
 PCOD9290185
Probable space group: C 2/C
;
_chemical_formula_sum "Si O2"
_cell_formula_units_Z 32
_cell_length_a 10.271656
_cell_length_b 10.160529
_cell_length_c 27.659300
_cell_angle_alpha 90.000000
_cell_angle_beta 148.597700
_cell_angle_gamma 90.000000
_cell_volume 1504.084663
_symmetry_space_group_name_H-M "C 2/C"
_symmetry_group_IT_number 15
_symmetry_cell_setting 'monoclinic'
loop_
_space_group_symop_operation_xyz
x,y,z
-x,y,1/2-z
-x,-y,-z
x,-y,1/2+z
1/2+x,1/2+y,z
1/2-x,1/2+y,1/2-z
1/2-x,1/2-y,-z
1/2+x,1/2-y,1/2+z
loop_
_atom_site_type_symbol
_atom_site_label
_atom_site_fract_x
_atom_site_fract_y
_atom_site_fract_z
Si Si1 0.103489 0.526848 0.907674
Si Si2 0.806706 0.242158 0.727917
Si Si3 0.473263 0.239809 0.389077
Si Si4 0.844257 0.013612 0.381904
O O1 0.928527 0.416604 0.877620
O O2 0.203835 0.468016 0.888371
O O3 0.946436 0.658153 0.851594
O O4 0.362017 0.545417 0.018309
O O5 0.747134 0.389820 0.689405
O O6 0.000000 0.186815 0.750000
O O7 0.935885 0.230902 0.820721
O O8 0.750000 0.250000 0.500000
O O9 0.319321 0.357385 0.364538
#
# Coordination Sequence:
#
# PCOD9290185 Si02
#       4
#     8   8   8   8
#     4  10  22  44  67  93 126 169 213 267 320 376
#     4  12  23  40  65  96 130 164 215 265 316 381
#     4  10  22  41  63  91 128 166 209 262 316 374
#     4  10  22  44  68  90 127 169 213 265 322 375
#
# _framework density 21.275399
#
# number of rings (size 3 to 8) (size 9 to 14) (size 15 to 20)
#    0.000    1.500    2.500    2.250    0.000    0.000 
#    9.000    2.500    0.000    0.000    0.000    0.000 
#    0.000    0.000    0.000    0.000    0.000    0.000 
#
# Total GULP energy -89157.222813 kJ/mol
# GULP energy per Si atom -5572.326426 kJ/mol
# Density = 2.122697 g / cm^3
# Si number density = 21.275399 Si / 1000 Ang^3
#
#
#
# Elastic Constant Matrix: (Units=GPa)
#
#
# Indices 1 2 3 4 5 6 
#
# 1 26.8583 11.4064 33.9076 0.0000 6.6427 0.0000
# 2 11.4064 107.1766 28.0813 0.0000 11.4668 0.0000
# 3 33.9076 28.0813 140.0299 0.0000 -17.7996 0.0000
# 4 0.0000 0.0000 0.0000 36.2700 0.0000 2.2831
# 5 6.6427 11.4668 -17.7996 0.0000 31.0853 0.0000
# 6 0.0000 0.0000 0.0000 2.2831 0.0000 34.4580
#
#
#
# Elastic Compliance Matrix: (Units=1/GPa)
#
#
# Indices 1 2 3 4 5 6 
#
# 1 0.069096 0.000817 -0.020287 0.000000 -0.026683 0.000000
# 2 0.000817 0.010682 -0.003088 0.000000 -0.005883 0.000000
# 3 -0.020287 -0.003088 0.014418 0.000000 0.013730 0.000000
# 4 0.000000 0.000000 0.000000 0.027687 0.000000 -0.001834
# 5 -0.026683 -0.005883 0.013730 0.000000 0.047903 0.000000
# 6 0.000000 0.000000 0.000000 -0.001834 0.000000 0.029142
#
#
# Mechanical properties :
#
#
# Convention : Reuss Voigt Hill
#
# Bulk Modulus (GPa) = 20.37469 46.76171 33.56820
# Shear Modulus (GPa) = 19.20086 33.74063 26.47075
#
# Velocity S-wave (km/s) = 3.00741 3.98665 3.53114
# Velocity P-wave (km/s) = 4.65368 6.57405 5.69539
#
# Compressibility (1/GPa) = 0.04908050
#
# Stress axis : x y z
#
# Youngs Moduli (GPa) = 14.47252 93.61646 69.35702
#
# Poissons Ratio (x) = -0.07644 1.40704
# Poissons Ratio (y) = -0.01182 0.21415
# Poissons Ratio (z) = 0.29360 0.28905
#
# Static dielectric constant tensor:
#      x y z
#    x 1.730490 0.000000 0.003840 
#    y 0.000000 1.841640 0.000000 
#    z 0.003840 0.000000 1.800760 
# 
# From -- ./inp_files/131922.got.cif
#   From: 2010.05.17/outbox.cif.g08.bks.cpg/sg15_66_cif.got.tgz:131922.got - 2010.06.03 18:47:42.
