data_PCOD9290375
_publ_section_title
;
Structure prediction by ZEFSAII (Michael W. Deem and Ramdas Pophale) SiO2 
 PCOD9290375
Probable space group: C 2/C
;
_chemical_formula_sum "Si O2"
_cell_formula_units_Z 60
_cell_length_a 8.825799
_cell_length_b 25.350318
_cell_length_c 21.889439
_cell_angle_alpha 90.000000
_cell_angle_beta 141.749015
_cell_angle_gamma 90.000000
_cell_volume 3032.062195
_symmetry_space_group_name_H-M "C 2/C"
_symmetry_group_IT_number 15
_symmetry_cell_setting 'monoclinic'
loop_
_space_group_symop_operation_xyz
x,y,z
-x,y,1/2-z
-x,-y,-z
x,-y,1/2+z
1/2+x,1/2+y,z
1/2-x,1/2+y,1/2-z
1/2-x,1/2-y,-z
1/2+x,1/2-y,1/2+z
loop_
_atom_site_type_symbol
_atom_site_label
_atom_site_fract_x
_atom_site_fract_y
_atom_site_fract_z
Si Si1 0.677270 0.702455 0.432660
Si Si2 0.095389 0.697779 0.462756
Si Si3 0.226457 0.508169 0.435226
Si Si4 0.843160 0.334896 0.762055
Si Si5 0.748871 0.952210 0.757409
Si Si6 0.231841 0.081745 0.472391
Si Si7 0.000000 0.034483 0.750000
Si Si8 0.700230 0.915032 0.043411
O O1 0.750000 0.750000 0.500000
O O2 0.391721 0.701930 0.323794
O O3 0.702893 0.644308 0.472021
O O4 0.860353 0.705150 0.432798
O O5 0.250000 0.750000 0.500000
O O6 0.230686 0.646171 0.533774
O O7 0.012283 0.685661 0.368321
O O8 0.500000 0.500000 0.500000
O O9 0.151853 0.449892 0.434821
O O10 0.233830 0.547896 0.495302
O O11 0.036877 0.531856 0.326054
O O12 0.754216 0.390788 0.760892
O O13 0.000000 0.343262 0.750000
O O14 0.976377 0.947842 0.876424
O O15 0.824785 0.993912 0.730152
O O16 0.419413 0.076412 0.475739
O O17 0.133349 0.068077 0.845788
#
# Coordination Sequence:
#
# PCOD9290375 Si02
#       8
#     8   8   8   8   8   8   4   8
#     4  10  23  42  69  97 130 169 226 285 342 394
#     4  11  24  45  68  94 131 175 226 284 340 401
#     4  12  24  36  59  96 138 169 212 273 342 397
#     4  11  24  40  67  98 133 176 227 274 334 406
#     4  11  23  35  66  94 132 170 221 270 330 400
#     4  10  22  41  65  94 127 177 224 269 326 413
#     4  12  22  40  70  96 130 176 230 270 340 410
#     4  11  23  43  64  94 131 176 226 276 334 412
#
# _framework density 19.788512000000001
#
# number of rings (size 3 to 8) (size 9 to 14) (size 15 to 20)
#    0.000    1.067    4.000    2.400    7.467    1.067 
#    6.000    0.000    0.000    0.000    0.000    0.000 
#    0.000    0.000    0.000    0.000    0.000    0.000 
#
# Total GULP energy -167246.647607 kJ/mol
# GULP energy per Si atom -5574.888254 kJ/mol
# Density = 1.974347 g / cm^3
# Si number density = 19.788512 Si / 1000 Ang^3
#
#
#
# Elastic Constant Matrix: (Units=GPa)
#
#
# Indices 1 2 3 4 5 6 
#
# 1 88.9870 52.6120 39.5391 0.0000 3.2521 -0.0001
# 2 52.6120 125.6559 78.8586 0.0000 -12.3546 0.0001
# 3 39.5391 78.8586 148.1268 0.0001 -8.9710 -0.0004
# 4 0.0000 0.0000 0.0001 40.7585 0.0000 -4.4421
# 5 3.2521 -12.3546 -8.9710 0.0000 33.8314 -0.0001
# 6 -0.0001 0.0001 -0.0004 -4.4421 -0.0001 15.6989
#
#
#
# Elastic Compliance Matrix: (Units=1/GPa)
#
#
# Indices 1 2 3 4 5 6 
#
# 1 0.015550 -0.006233 -0.001078 0.000000 -0.004057 0.000000
# 2 -0.006233 0.014701 -0.005896 0.000000 0.004404 0.000000
# 3 -0.001078 -0.005896 0.010218 0.000000 0.000660 0.000000
# 4 0.000000 0.000000 0.000000 0.025315 0.000000 0.007163
# 5 -0.004057 0.004404 0.000660 0.000000 0.031732 0.000000
# 6 0.000000 0.000000 0.000000 0.007163 0.000000 0.065726
#
#
# Mechanical properties :
#
#
# Convention : Reuss Voigt Hill
#
# Bulk Modulus (GPa) = 71.15155 78.30989 74.73072
# Shear Modulus (GPa) = 25.72796 30.84176 28.28486
#
# Velocity S-wave (km/s) = 3.60967 3.95215 3.78479
# Velocity P-wave (km/s) = 7.30801 7.77723 7.54627
#
# Compressibility (1/GPa) = 0.01405451
#
# Stress axis : x y z
#
# Youngs Moduli (GPa) = 64.30831 68.02133 97.87035
#
# Poissons Ratio (x) = 0.42398 0.10552
# Poissons Ratio (y) = 0.40084 0.57705
# Poissons Ratio (z) = 0.06933 0.40106
#
# Static dielectric constant tensor:
#      x y z
#    x 1.760830 0.000000 0.044120 
#    y 0.000000 1.708260 0.000000 
#    z 0.044120 0.000000 1.924490 
# 
# From -- ./inp_files/234588.got.cif
#   From: 2010.05.17/outbox.cif.g08.bks.cpg/sg15_118_cif.got.tgz:234588.got - 2010.06.03 18:47:42.
