data_PCOD9290395
_publ_section_title
;
Structure prediction by ZEFSAII (Michael W. Deem and Ramdas Pophale) SiO2 
 PCOD9290395
Probable space group: C 2/C
;
_chemical_formula_sum "Si O2"
_cell_formula_units_Z 56
_cell_length_a 28.718226
_cell_length_b 10.840239
_cell_length_c 8.920057
_cell_angle_alpha 90.000000
_cell_angle_beta 123.659964
_cell_angle_gamma 90.000000
_cell_volume 2311.349969
_symmetry_space_group_name_H-M "C 2/C"
_symmetry_group_IT_number 15
_symmetry_cell_setting 'monoclinic'
loop_
_space_group_symop_operation_xyz
x,y,z
-x,y,1/2-z
-x,-y,-z
x,-y,1/2+z
1/2+x,1/2+y,z
1/2-x,1/2+y,1/2-z
1/2-x,1/2-y,-z
1/2+x,1/2-y,1/2+z
loop_
_atom_site_type_symbol
_atom_site_label
_atom_site_fract_x
_atom_site_fract_y
_atom_site_fract_z
Si Si1 0.290635 0.062777 0.702689
Si Si2 0.359551 0.888696 0.057046
Si Si3 0.949271 0.244117 0.047952
Si Si4 0.104102 0.975620 0.201963
Si Si5 0.066062 0.852821 0.411096
Si Si6 0.727936 0.372873 0.378156
Si Si7 0.054202 0.398672 0.750155
O O1 0.326223 0.144535 0.648951
O O2 0.251668 0.132522 0.751661
O O3 0.255963 0.980956 0.524813
O O4 0.325321 0.966114 0.869190
O O5 0.392651 0.781903 0.031962
O O6 0.405686 0.986931 0.194125
O O7 0.000000 0.241225 0.250000
O O8 0.942118 0.114799 0.952703
O O9 0.960436 0.344342 0.937744
O O10 0.097235 0.954795 0.365949
O O11 0.163285 0.913817 0.265257
O O12 0.086299 0.109846 0.111820
O O13 0.083610 0.715925 0.390316
O O14 0.000000 0.857873 0.250000
O O15 0.750000 0.250000 0.500000
O O16 0.000000 0.430916 0.750000
#
# Coordination Sequence:
#
# PCOD9290395 Si02
#       7
#     8   8   8   8   8   8   8
#     4  10  24  42  68 100 123 176 226 276 334 400
#     4  11  21  42  65  94 137 169 221 271 341 395
#     4  11  24  39  62  98 136 170 221 272 328 409
#     4  11  23  43  66  90 128 177 215 277 341 385
#     4  10  22  41  65  95 130 169 222 268 332 408
#     4  11  24  46  70  95 136 175 230 286 339 401
#     4  10  23  39  62  94 133 184 217 265 340 404
#
# _framework density 24.228263999999999
#
# number of rings (size 3 to 8) (size 9 to 14) (size 15 to 20)
#    0.000    1.429    1.429    3.000    8.000    3.429 
#    0.000    6.429    0.000    0.000    0.000    0.000 
#    0.000    0.000    0.000    0.000    0.000    0.000 
#
# Total GULP energy -156709.887670 kJ/mol
# GULP energy per Si atom -5596.781703 kJ/mol
# Density = 2.417312 g / cm^3
# Si number density = 24.228264 Si / 1000 Ang^3
#
#
#
# Elastic Constant Matrix: (Units=GPa)
#
#
# Indices 1 2 3 4 5 6 
#
# 1 131.4863 -3.4305 23.6398 0.0000 -33.7645 0.0000
# 2 -3.4305 42.9574 5.0264 0.0000 -4.2760 0.0000
# 3 23.6398 5.0264 79.1242 0.0000 -4.3013 0.0000
# 4 0.0000 0.0000 0.0000 43.5337 0.0000 -10.7771
# 5 -33.7645 -4.2760 -4.3013 0.0000 44.3582 0.0000
# 6 0.0000 0.0000 0.0000 -10.7771 0.0000 18.2483
#
#
#
# Elastic Compliance Matrix: (Units=1/GPa)
#
#
# Indices 1 2 3 4 5 6 
#
# 1 0.010096 0.001882 -0.002723 0.000000 0.007602 0.000000
# 2 0.001882 0.024005 -0.001893 0.000000 0.003563 0.000000
# 3 -0.002723 -0.001893 0.013521 0.000000 -0.000944 0.000000
# 4 0.000000 0.000000 0.000000 0.026904 0.000000 0.015889
# 5 0.007602 0.003563 -0.000944 0.000000 0.028582 0.000000
# 6 0.000000 0.000000 0.000000 0.015889 0.000000 0.064183
#
#
# Mechanical properties :
#
#
# Convention : Reuss Voigt Hill
#
# Bulk Modulus (GPa) = 23.72299 33.78213 28.75256
# Shear Modulus (GPa) = 26.76483 36.45020 31.60752
#
# Velocity S-wave (km/s) = 3.32730 3.88293 3.61580
# Velocity P-wave (km/s) = 4.95721 5.83750 5.41527
#
# Compressibility (1/GPa) = 0.04215320
#
# Stress axis : x y z
#
# Youngs Moduli (GPa) = 99.04741 41.65748 73.96026
#
# Poissons Ratio (x) = -0.07838 0.20137
# Poissons Ratio (y) = -0.18637 0.14004
# Poissons Ratio (z) = 0.26967 0.07888
#
# Static dielectric constant tensor:
#      x y z
#    x 1.985570 0.000000 -0.014890 
#    y 0.000000 1.929410 0.000000 
#    z -0.014890 0.000000 1.944890 
# 
# From -- ./inp_files/69438.got.cif
#   From: 2010.05.17/outbox.cif.g08.bks.cpg/sg15_35_cif.got.tgz:69438.got - 2010.06.03 18:47:42.
