data_PCOD9290293
_publ_section_title
;
Structure prediction by ZEFSAII (Michael W. Deem and Ramdas Pophale) SiO2 
 PCOD9290293
Probable space group: C 2/C
;
_chemical_formula_sum "Si O2"
_cell_formula_units_Z 52
_cell_length_a 15.998188
_cell_length_b 14.767120
_cell_length_c 11.817271
_cell_angle_alpha 90.000000
_cell_angle_beta 69.079441
_cell_angle_gamma 90.000000
_cell_volume 2607.751469
_symmetry_space_group_name_H-M "C 2/C"
_symmetry_group_IT_number 15
_symmetry_cell_setting 'monoclinic'
loop_
_space_group_symop_operation_xyz
x,y,z
-x,y,1/2-z
-x,-y,-z
x,-y,1/2+z
1/2+x,1/2+y,z
1/2-x,1/2+y,1/2-z
1/2-x,1/2-y,-z
1/2+x,1/2-y,1/2+z
loop_
_atom_site_type_symbol
_atom_site_label
_atom_site_fract_x
_atom_site_fract_y
_atom_site_fract_z
Si Si1 0.766860 0.550309 0.317177
Si Si2 0.087804 0.373603 0.907831
Si Si3 0.500000 0.409988 0.750000
Si Si4 0.666459 0.681516 0.527445
Si Si5 0.481572 0.315913 0.002647
Si Si6 0.127228 0.067054 0.767277
Si Si7 0.441003 0.993800 0.871743
O O1 0.818385 0.611869 0.200846
O O2 0.695710 0.602795 0.426960
O O3 0.719041 0.465978 0.280509
O O4 0.846671 0.526856 0.362858
O O5 0.079125 0.272832 0.957106
O O6 0.003429 0.407005 0.871426
O O7 0.078943 0.445760 0.011572
O O8 0.510858 0.352285 0.629291
O O9 0.582806 0.478218 0.732366
O O10 0.750000 0.750000 0.500000
O O11 0.576051 0.715692 0.511584
O O12 0.643205 0.640451 0.661417
O O13 0.439338 0.392694 0.105264
O O14 0.500000 0.046274 0.750000
#
# Coordination Sequence:
#
# PCOD9290293 Si02
#       7
#     8   8   4   8   8   8   8
#     4  11  22  40  64  96 127 171 222 267 331 394
#     4  10  22  41  64  97 132 171 216 277 331 398
#     4  12  24  46  68  92 132 184 216 268 334 392
#     4  12  24  40  67  98 129 166 224 278 321 390
#     4  12  25  43  68  97 133 174 225 273 331 391
#     4  12  24  45  69  93 133 181 224 271 331 396
#     4   9  20  40  66  89 133 177 213 265 340 396
#
# _framework density 19.940550000000002
#
# number of rings (size 3 to 8) (size 9 to 14) (size 15 to 20)
#    0.000    0.923    3.077    4.154    1.077    4.923 
#    0.000    1.538    0.000    0.000    0.000    0.000 
#    0.000    0.000    0.000    0.000    0.000    0.000 
#
# Total GULP energy -145158.111561 kJ/mol
# GULP energy per Si atom -5583.004291 kJ/mol
# Density = 1.989516 g / cm^3
# Si number density = 19.940550 Si / 1000 Ang^3
#
#
#
# Elastic Constant Matrix: (Units=GPa)
#
#
# Indices 1 2 3 4 5 6 
#
# 1 52.0449 10.9083 20.0117 0.0000 -6.6579 0.0000
# 2 10.9083 48.7070 32.4816 0.0000 11.5616 0.0000
# 3 20.0117 32.4816 142.2277 0.0000 11.3462 0.0000
# 4 0.0000 0.0000 0.0000 33.4499 0.0000 -26.3200
# 5 -6.6579 11.5616 11.3462 0.0000 21.7292 0.0000
# 6 0.0000 0.0000 0.0000 -26.3200 0.0000 -54.9182
#
#
#
# Elastic Compliance Matrix: (Units=1/GPa)
#
#
# Indices 1 2 3 4 5 6 
#
# 1 0.023072 -0.006100 -0.002793 0.000000 0.011773 0.000000
# 2 -0.006100 0.028333 -0.004446 0.000000 -0.014623 0.000000
# 3 -0.002793 -0.004446 0.008680 0.000000 -0.003023 0.000000
# 4 0.000000 0.000000 0.000000 0.021709 0.000000 -0.010404
# 5 0.011773 -0.014623 -0.003023 0.000000 0.058987 0.000000
# 6 0.000000 0.000000 0.000000 -0.010404 0.000000 -0.013223
#
#
# Mechanical properties :
#
#
# Convention : Reuss Voigt Hill
#
# Bulk Modulus (GPa) = 29.93133 41.08696 35.50915
# Shear Modulus (GPa) = 30.23490 12.02404 21.12947
#
# Velocity S-wave (km/s) = 3.89813 2.45826 3.25872
# Velocity P-wave (km/s) = 5.94167 5.35788 5.65731
#
# Compressibility (1/GPa) = 0.03340981
#
# Stress axis : x y z
#
# Youngs Moduli (GPa) = 43.34166 35.29474 115.20262
#
# Poissons Ratio (x) = 0.21528 0.32171
# Poissons Ratio (y) = 0.26437 0.51217
# Poissons Ratio (z) = 0.12103 0.15691
#
# Static dielectric constant tensor:
#      x y z
#    x 2.058230 0.000000 -0.156040 
#    y 0.000000 1.689480 0.000000 
#    z -0.156040 0.000000 1.801510 
# 
# From -- ./inp_files/96925.got.cif
#   From: 2010.05.17/outbox.cif.g08.bks.cpg/sg15_49_cif.got.tgz:96925.got - 2010.06.03 18:47:42.
