data_PCOD9290709
_publ_section_title
;
Structure prediction by ZEFSAII (Michael W. Deem and Ramdas Pophale) SiO2 
 PCOD9290709
Probable space group: C 2/C
;
_chemical_formula_sum "Si O2"
_cell_formula_units_Z 56
_cell_length_a 18.514333
_cell_length_b 8.098084
_cell_length_c 18.058538
_cell_angle_alpha 90.000000
_cell_angle_beta 102.760233
_cell_angle_gamma 90.000000
_cell_volume 2640.659750
_symmetry_space_group_name_H-M "C 2/C"
_symmetry_group_IT_number 15
_symmetry_cell_setting 'monoclinic'
loop_
_space_group_symop_operation_xyz
x,y,z
-x,y,1/2-z
-x,-y,-z
x,-y,1/2+z
1/2+x,1/2+y,z
1/2-x,1/2+y,1/2-z
1/2-x,1/2-y,-z
1/2+x,1/2-y,1/2+z
loop_
_atom_site_type_symbol
_atom_site_label
_atom_site_fract_x
_atom_site_fract_y
_atom_site_fract_z
Si Si1 0.715968 0.186608 0.250598
Si Si2 0.794079 0.650596 0.903452
Si Si3 0.303621 0.141629 0.658669
Si Si4 0.084861 0.390149 0.625089
Si Si5 0.524978 0.856303 0.336187
Si Si6 0.455271 0.655038 0.019609
Si Si7 0.800200 0.003857 0.485342
O O1 0.739952 0.303361 0.323513
O O2 0.779452 0.201929 0.202177
O O3 0.638602 0.217939 0.190395
O O4 0.708153 0.009895 0.287292
O O5 0.861747 0.538049 0.891534
O O6 0.818193 0.826229 0.944834
O O7 0.749148 0.554946 0.956351
O O8 0.386649 0.128626 0.648644
O O9 0.247280 0.112962 0.579110
O O10 0.055403 0.287536 0.548647
O O11 0.018144 0.474061 0.655369
O O12 0.500000 0.795790 0.250000
O O13 0.507736 0.736318 0.400423
O O14 0.500000 0.500000 0.000000
O O15 0.374521 0.588459 0.023727
#
# Coordination Sequence:
#
# PCOD9290709 Si02
#       7
#     8   8   8   8   8   8   8
#     4  11  21  40  69 103 137 175 233 287 354 409
#     4  10  22  41  69 101 137 182 228 296 352 413
#     4  11  23  42  73 102 137 183 232 296 346 421
#     4  12  24  46  70  98 145 187 231 289 360 428
#     4  12  26  47  70 104 145 189 237 289 361 427
#     4  12  28  46  70 101 144 193 236 293 363 428
#     4  10  23  43  67 103 135 173 243 289 341 423
#
# _framework density 21.206821999999999
#
# number of rings (size 3 to 8) (size 9 to 14) (size 15 to 20)
#    0.000    0.857    4.286    2.143    2.000    5.714 
#    2.571    0.000    0.000    0.000    0.000    0.000 
#    0.000    0.000    0.000    0.000    0.000    0.000 
#
# Total GULP energy -156628.623571 kJ/mol
# GULP energy per Si atom -5593.879413 kJ/mol
# Density = 2.115855 g / cm^3
# Si number density = 21.206822 Si / 1000 Ang^3
#
#
#
# Elastic Constant Matrix: (Units=GPa)
#
#
# Indices 1 2 3 4 5 6 
#
# 1 102.4097 35.2135 13.3572 0.0000 -5.8598 0.0000
# 2 35.2135 80.0766 54.4658 0.0000 -3.7868 0.0000
# 3 13.3572 54.4658 136.9655 0.0000 -3.9951 0.0000
# 4 0.0000 0.0000 0.0000 38.0431 0.0000 4.1464
# 5 -5.8598 -3.7868 -3.9951 0.0000 27.4743 0.0000
# 6 0.0000 0.0000 0.0000 4.1464 0.0000 38.4128
#
#
#
# Elastic Compliance Matrix: (Units=1/GPa)
#
#
# Indices 1 2 3 4 5 6 
#
# 1 0.011750 -0.005944 0.001272 0.000000 0.001872 0.000000
# 2 -0.005944 0.020177 -0.007431 0.000000 0.000433 0.000000
# 3 0.001272 -0.007431 0.010153 0.000000 0.000724 0.000000
# 4 0.000000 0.000000 0.000000 0.026599 0.000000 -0.002871
# 5 0.001872 0.000433 0.000724 0.000000 0.036962 0.000000
# 6 0.000000 0.000000 0.000000 -0.002871 0.000000 0.026343
#
#
# Mechanical properties :
#
#
# Convention : Reuss Voigt Hill
#
# Bulk Modulus (GPa) = 55.94620 58.39165 57.16892
# Shear Modulus (GPa) = 30.83626 35.21371 33.02499
#
# Velocity S-wave (km/s) = 3.81737 4.07933 3.95052
# Velocity P-wave (km/s) = 6.77261 7.05564 6.91557
#
# Compressibility (1/GPa) = 0.01787431
#
# Stress axis : x y z
#
# Youngs Moduli (GPa) = 85.10914 49.56186 98.49059
#
# Poissons Ratio (x) = 0.29458 -0.12532
# Poissons Ratio (y) = 0.50587 0.73191
# Poissons Ratio (z) = -0.10829 0.36831
#
# Static dielectric constant tensor:
#      x y z
#    x 1.754580 0.000000 0.009140 
#    y 0.000000 1.788860 0.000000 
#    z 0.009140 0.000000 1.773900 
# 
# From -- ./inp_files/209627.got.cif
#   From: 2010.05.17/outbox.cif.g08.bks.cpg/sg15_105_cif.got.tgz:209627.got - 2010.06.03 18:47:42.
