data_PCOD9290472
_publ_section_title
;
Structure prediction by ZEFSAII (Michael W. Deem and Ramdas Pophale) SiO2 
 PCOD9290472
Probable space group: C 2/C
;
_chemical_formula_sum "Si O2"
_cell_formula_units_Z 36
_cell_length_a 10.546327
_cell_length_b 8.509865
_cell_length_c 18.901851
_cell_angle_alpha 90.000000
_cell_angle_beta 101.660854
_cell_angle_gamma 90.000000
_cell_volume 1661.388128
_symmetry_space_group_name_H-M "C 2/C"
_symmetry_group_IT_number 15
_symmetry_cell_setting 'monoclinic'
loop_
_space_group_symop_operation_xyz
x,y,z
-x,y,1/2-z
-x,-y,-z
x,-y,1/2+z
1/2+x,1/2+y,z
1/2-x,1/2+y,1/2-z
1/2-x,1/2-y,-z
1/2+x,1/2-y,1/2+z
loop_
_atom_site_type_symbol
_atom_site_label
_atom_site_fract_x
_atom_site_fract_y
_atom_site_fract_z
Si Si1 0.662553 0.826566 0.552660
Si Si2 0.500000 0.394355 0.250000
Si Si3 0.388500 0.627130 0.329403
Si Si4 0.247191 0.182098 0.708080
Si Si5 0.120890 0.302573 0.024431
O O1 0.750000 0.750000 0.500000
O O2 0.724313 0.778340 0.634238
O O3 0.512586 0.770352 0.532668
O O4 0.645253 0.013076 0.541674
O O5 0.505159 0.511918 0.318172
O O6 0.373544 0.296673 0.251310
O O7 0.365808 0.757764 0.267045
O O8 0.269225 0.501498 0.312990
O O9 0.398079 0.708594 0.404926
O O10 0.250000 0.250000 0.000000
#
# Coordination Sequence:
#
# PCOD9290472 Si02
#       5
#     8   4   8   8   8
#     4  11  26  44  66  99 134 174 220 271 330 391
#     4   8  24  40  64  98 124 172 220 260 338 364
#     4  10  22  41  66  93 127 170 216 267 319 386
#     4  10  22  41  66  93 127 170 216 267 319 386
#     4  11  26  44  66  99 134 174 220 271 330 391
#
# _framework density 21.668627999999998
#
# number of rings (size 3 to 8) (size 9 to 14) (size 15 to 20)
#    1.333    0.444    0.000    2.667    6.222    3.556 
#    0.000    2.222    0.000    0.000    0.000    0.000 
#    0.000    0.000    0.000    0.000    0.000    0.000 
#
# Total GULP energy -100334.499790 kJ/mol
# GULP energy per Si atom -5574.138877 kJ/mol
# Density = 2.161931 g / cm^3
# Si number density = 21.668628 Si / 1000 Ang^3
#
#
#
# Elastic Constant Matrix: (Units=GPa)
#
#
# Indices 1 2 3 4 5 6 
#
# 1 111.4633 3.7857 22.4544 0.0000 -23.3176 0.0000
# 2 3.7857 48.9510 2.1100 0.0000 -4.1582 0.0000
# 3 22.4544 2.1100 95.2334 0.0000 -12.2892 0.0000
# 4 0.0000 0.0000 0.0000 40.6517 0.0000 -13.4952
# 5 -23.3176 -4.1582 -12.2892 0.0000 28.0039 0.0000
# 6 0.0000 0.0000 0.0000 -13.4952 0.0000 51.1312
#
#
#
# Elastic Compliance Matrix: (Units=1/GPa)
#
#
# Indices 1 2 3 4 5 6 
#
# 1 0.011064 -0.000065 -0.001505 0.000000 0.008542 0.000000
# 2 -0.000065 0.020690 -0.000057 0.000000 0.002993 0.000000
# 3 -0.001505 -0.000057 0.011336 0.000000 0.003713 0.000000
# 4 0.000000 0.000000 0.000000 0.026962 0.000000 0.007116
# 5 0.008542 0.002993 0.003713 0.000000 0.044896 0.000000
# 6 0.000000 0.000000 0.000000 0.007116 0.000000 0.021436
#
#
# Mechanical properties :
#
#
# Convention : Reuss Voigt Hill
#
# Bulk Modulus (GPa) = 25.10274 34.70532 29.90403
# Shear Modulus (GPa) = 32.69773 39.11053 35.90413
#
# Velocity S-wave (km/s) = 3.88879 4.25307 4.07500
# Velocity P-wave (km/s) = 5.63680 6.33792 5.99761
#
# Compressibility (1/GPa) = 0.03983630
#
# Stress axis : x y z
#
# Youngs Moduli (GPa) = 90.38352 48.33175 88.21652
#
# Poissons Ratio (x) = 0.00315 0.13276
# Poissons Ratio (y) = 0.00589 0.00501
# Poissons Ratio (z) = 0.13602 0.00275
#
# Static dielectric constant tensor:
#      x y z
#    x 1.628690 0.000000 0.008040 
#    y 0.000000 1.822130 0.000000 
#    z 0.008040 0.000000 1.754520 
# 
# From -- ./inp_files/195289.got.cif
#   From: 2010.05.17/outbox.cif.g08.bks.cpg/sg15_98_cif.got.tgz:195289.got - 2010.06.03 18:47:42.
