data_PCOD9290277
_publ_section_title
;
Structure prediction by ZEFSAII (Michael W. Deem and Ramdas Pophale) SiO2 
 PCOD9290277
Probable space group: C 2/C
;
_chemical_formula_sum "Si O2"
_cell_formula_units_Z 32
_cell_length_a 14.477392
_cell_length_b 9.553650
_cell_length_c 13.647617
_cell_angle_alpha 90.000000
_cell_angle_beta 131.178599
_cell_angle_gamma 90.000000
_cell_volume 1420.744017
_symmetry_space_group_name_H-M "C 2/C"
_symmetry_group_IT_number 15
_symmetry_cell_setting 'monoclinic'
loop_
_space_group_symop_operation_xyz
x,y,z
-x,y,1/2-z
-x,-y,-z
x,-y,1/2+z
1/2+x,1/2+y,z
1/2-x,1/2+y,1/2-z
1/2-x,1/2-y,-z
1/2+x,1/2-y,1/2+z
loop_
_atom_site_type_symbol
_atom_site_label
_atom_site_fract_x
_atom_site_fract_y
_atom_site_fract_z
Si Si1 0.266156 0.398196 0.062728
Si Si2 0.609994 0.462193 0.003804
Si Si3 0.918187 0.360946 0.031684
Si Si4 0.823916 0.532344 0.796623
O O1 0.387691 0.458966 0.097690
O O2 0.160622 0.518257 0.969739
O O3 0.250000 0.250000 0.000000
O O4 0.254778 0.391800 0.172296
O O5 0.731450 0.507659 0.147979
O O6 0.500000 0.500000 0.000000
O O7 0.619528 0.298439 0.985653
O O8 0.061772 0.373269 0.156061
O O9 0.891170 0.403686 0.899141
#
# Coordination Sequence:
#
# PCOD9290277 Si02
#       4
#     8   8   8   8
#     4  10  22  41  64  96 125 167 217 254 321 374
#     4  12  25  39  68  96 126 170 213 255 324 376
#     4   9  22  44  63  90 130 167 213 258 319 370
#     4   9  23  43  65  89 135 157 210 268 310 374
#
# _framework density 22.523410999999999
#
# number of rings (size 3 to 8) (size 9 to 14) (size 15 to 20)
#    1.500    0.500    0.000    2.250    7.000    2.000 
#    0.000    5.000    0.000    0.000    0.000    0.000 
#    0.000    0.000    0.000    0.000    0.000    0.000 
#
# Total GULP energy -89162.501397 kJ/mol
# GULP energy per Si atom -5572.656337 kJ/mol
# Density = 2.247215 g / cm^3
# Si number density = 22.523411 Si / 1000 Ang^3
#
#
#
# Elastic Constant Matrix: (Units=GPa)
#
#
# Indices 1 2 3 4 5 6 
#
# 1 130.4836 18.7799 27.1976 0.0000 -9.8340 0.0000
# 2 18.7799 132.3601 -3.0751 0.0000 -7.2901 0.0000
# 3 27.1976 -3.0751 82.3279 0.0000 21.2530 0.0000
# 4 0.0000 0.0000 0.0000 10.7848 0.0000 -2.8559
# 5 -9.8340 -7.2901 21.2530 0.0000 30.9303 0.0000
# 6 0.0000 0.0000 0.0000 -2.8559 0.0000 30.1947
#
#
#
# Elastic Compliance Matrix: (Units=1/GPa)
#
#
# Indices 1 2 3 4 5 6 
#
# 1 0.009217 -0.001093 -0.004590 0.000000 0.005827 0.000000
# 2 -0.001093 0.007787 0.000326 0.000000 0.001264 0.000000
# 3 -0.004590 0.000326 0.017058 0.000000 -0.013103 0.000000
# 4 0.000000 0.000000 0.000000 0.095105 0.000000 0.008995
# 5 0.005827 0.001264 -0.013103 0.000000 0.043485 0.000000
# 6 0.000000 0.000000 0.000000 0.008995 0.000000 0.033969
#
#
# Mechanical properties :
#
#
# Convention : Reuss Voigt Hill
#
# Bulk Modulus (GPa) = 42.83191 47.88626 45.35909
# Shear Modulus (GPa) = 22.21055 34.53325 28.37190
#
# Velocity S-wave (km/s) = 3.14365 3.91988 3.55302
# Velocity P-wave (km/s) = 5.67755 6.46483 6.08394
#
# Compressibility (1/GPa) = 0.02334708
#
# Stress axis : x y z
#
# Youngs Moduli (GPa) = 108.49529 128.41128 58.62487
#
# Poissons Ratio (x) = 0.14041 0.26908
# Poissons Ratio (y) = 0.11864 -0.01910
# Poissons Ratio (z) = 0.49798 -0.04184
#
# Static dielectric constant tensor:
#      x y z
#    x 1.888190 0.000000 -0.014640 
#    y 0.000000 1.854860 0.000000 
#    z -0.014640 0.000000 1.866070 
# 
# From -- ./inp_files/150437.got.cif
#   From: 2010.05.17/outbox.cif.g08.bks.cpg/sg15_76_cif.got.tgz:150437.got - 2010.06.03 18:47:42.
