data_PCOD9290169
_publ_section_title
;
Structure prediction by ZEFSAII (Michael W. Deem and Ramdas Pophale) SiO2 
 PCOD9290169
Probable space group: C 2/C
;
_chemical_formula_sum "Si O2"
_cell_formula_units_Z 44
_cell_length_a 23.701372
_cell_length_b 11.683350
_cell_length_c 11.693329
_cell_angle_alpha 90.000000
_cell_angle_beta 141.983071
_cell_angle_gamma 90.000000
_cell_volume 1994.275772
_symmetry_space_group_name_H-M "C 2/C"
_symmetry_group_IT_number 15
_symmetry_cell_setting 'monoclinic'
loop_
_space_group_symop_operation_xyz
x,y,z
-x,y,1/2-z
-x,-y,-z
x,-y,1/2+z
1/2+x,1/2+y,z
1/2-x,1/2+y,1/2-z
1/2-x,1/2-y,-z
1/2+x,1/2-y,1/2+z
loop_
_atom_site_type_symbol
_atom_site_label
_atom_site_fract_x
_atom_site_fract_y
_atom_site_fract_z
Si Si1 0.202855 0.624976 0.758049
Si Si2 0.730733 0.138041 0.544200
Si Si3 0.090290 0.422835 0.640562
Si Si4 0.500000 0.376907 0.250000
Si Si5 0.532180 0.724367 0.048552
Si Si6 0.632942 0.462281 0.843831
O O1 0.220264 0.668587 0.658934
O O2 0.164508 0.493930 0.687011
O O3 0.123912 0.698647 0.692258
O O4 0.293581 0.619128 0.978069
O O5 0.750000 0.250000 0.500000
O O6 0.637372 0.088231 0.340038
O O7 0.810569 0.045156 0.650964
O O8 0.000000 0.500000 0.500000
O O9 0.053435 0.299055 0.543147
O O10 0.512010 0.305054 0.384283
O O11 0.413180 0.457489 0.134958
O O12 0.555962 0.611089 0.156646
#
# Coordination Sequence:
#
# PCOD9290169 Si02
#       6
#     8   8   8   4   8   8
#     4  10  22  41  63  88 123 162 199 250 309 362
#     4  11  22  40  63  89 122 164 208 245 299 376
#     4   9  21  39  61  91 121 156 202 251 305 365
#     4  12  24  40  62  86 120 162 200 252 306 358
#     4  11  21  40  63  90 121 159 205 251 303 369
#     4  11  24  40  59  90 123 157 203 257 306 361
#
# _framework density 22.063146
#
# number of rings (size 3 to 8) (size 9 to 14) (size 15 to 20)
#    0.000    1.455    0.000    5.455    0.000    5.091 
#    0.000    7.273    0.000    0.000    0.000    0.000 
#    0.000    0.000    0.000    0.000    0.000    0.000 
#
# Total GULP energy -123009.602481 kJ/mol
# GULP energy per Si atom -5591.345567 kJ/mol
# Density = 2.201293 g / cm^3
# Si number density = 22.063146 Si / 1000 Ang^3
#
#
#
# Elastic Constant Matrix: (Units=GPa)
#
#
# Indices 1 2 3 4 5 6 
#
# 1 44.6858 6.1864 0.4327 0.0000 -0.9509 0.0000
# 2 6.1864 83.0359 30.0321 0.0000 -4.2395 0.0000
# 3 0.4327 30.0321 78.3799 0.0000 5.5981 0.0000
# 4 0.0000 0.0000 0.0000 38.8946 0.0000 14.4448
# 5 -0.9509 -4.2395 5.5981 0.0000 22.9923 0.0000
# 6 0.0000 0.0000 0.0000 14.4448 0.0000 37.9288
#
#
#
# Elastic Compliance Matrix: (Units=1/GPa)
#
#
# Indices 1 2 3 4 5 6 
#
# 1 0.022641 -0.001865 0.000557 0.000000 0.000457 0.000000
# 2 -0.001865 0.014496 -0.005831 0.000000 0.004015 0.000000
# 3 0.000557 -0.005831 0.015331 0.000000 -0.004785 0.000000
# 4 0.000000 0.000000 0.000000 0.029946 0.000000 -0.011405
# 5 0.000457 0.004015 -0.004785 0.000000 0.045417 0.000000
# 6 0.000000 0.000000 0.000000 -0.011405 0.000000 0.030709
#
#
# Mechanical properties :
#
#
# Convention : Reuss Voigt Hill
#
# Bulk Modulus (GPa) = 26.18450 31.04490 28.61470
# Shear Modulus (GPa) = 26.94731 31.25982 29.10356
#
# Velocity S-wave (km/s) = 3.49860 3.76817 3.63589
# Velocity P-wave (km/s) = 5.31169 5.74749 5.53388
#
# Compressibility (1/GPa) = 0.03819053
#
# Stress axis : x y z
#
# Youngs Moduli (GPa) = 44.16764 68.98562 65.22666
#
# Poissons Ratio (x) = 0.12865 -0.03633
# Poissons Ratio (y) = 0.08237 0.38032
# Poissons Ratio (z) = -0.02460 0.40224
#
# Static dielectric constant tensor:
#      x y z
#    x 1.768360 0.000000 0.026560 
#    y 0.000000 1.864890 0.000000 
#    z 0.026560 0.000000 1.820180 
# 
# From -- ./inp_files/95071.got.cif
#   From: 2010.05.17/outbox.cif.g08.bks.cpg/sg15_48_cif.got.tgz:95071.got - 2010.06.03 18:47:42.
