data_PCOD9290096
_publ_section_title
;
Structure prediction by ZEFSAII (Michael W. Deem and Ramdas Pophale) SiO2 
 PCOD9290096
Probable space group: C 2/C
;
_chemical_formula_sum "Si O2"
_cell_formula_units_Z 40
_cell_length_a 6.620328
_cell_length_b 13.544519
_cell_length_c 23.136176
_cell_angle_alpha 90.000000
_cell_angle_beta 77.727612
_cell_angle_gamma 90.000000
_cell_volume 2027.192897
_symmetry_space_group_name_H-M "C 2/C"
_symmetry_group_IT_number 15
_symmetry_cell_setting 'monoclinic'
loop_
_space_group_symop_operation_xyz
x,y,z
-x,y,1/2-z
-x,-y,-z
x,-y,1/2+z
1/2+x,1/2+y,z
1/2-x,1/2+y,1/2-z
1/2-x,1/2-y,-z
1/2+x,1/2-y,1/2+z
loop_
_atom_site_type_symbol
_atom_site_label
_atom_site_fract_x
_atom_site_fract_y
_atom_site_fract_z
Si Si1 0.569043 0.850328 0.108095
Si Si2 0.364588 0.146089 0.497605
Si Si3 0.643673 0.482339 0.920942
Si Si4 0.773999 0.132323 0.394266
Si Si5 0.985434 0.468739 0.683028
O O1 0.605175 0.735824 0.116543
O O2 0.792463 0.902875 0.083230
O O3 0.470351 0.915494 0.165443
O O4 0.433015 0.870011 0.059340
O O5 0.250000 0.250000 0.500000
O O6 0.216251 0.065802 0.476579
O O7 0.574970 0.146452 0.447381
O O8 0.422370 0.447996 0.914252
O O9 0.802743 0.438966 0.862719
O O10 0.693545 0.092350 0.337793
O O11 0.000000 0.455631 0.750000
#
# Coordination Sequence:
#
# PCOD9290096 Si02
#       5
#     8   8   8   8   8
#     4  10  22  41  61  94 122 165 203 245 323 368
#     4  11  21  38  62  94 134 158 199 257 310 384
#     4   9  22  39  60  91 122 161 204 247 311 369
#     4  11  22  41  63  90 125 165 202 257 313 372
#     4   9  23  46  58  87 125 153 215 265 293 365
#
# _framework density 19.731718000000001
#
# number of rings (size 3 to 8) (size 9 to 14) (size 15 to 20)
#    1.200    0.800    2.000    1.200    0.000    3.200 
#    3.600    0.000    0.000    0.000    0.000    0.000 
#    0.000    0.000    0.000    0.000    0.000    0.000 
#
# Total GULP energy -111594.110382 kJ/mol
# GULP energy per Si atom -5579.705519 kJ/mol
# Density = 1.968681 g / cm^3
# Si number density = 19.731718 Si / 1000 Ang^3
#
#
#
# Elastic Constant Matrix: (Units=GPa)
#
#
# Indices 1 2 3 4 5 6 
#
# 1 101.8571 33.7584 57.5967 0.0000 29.2252 0.0000
# 2 33.7584 85.3499 42.5805 0.0000 21.0886 0.0000
# 3 57.5967 42.5805 135.5564 0.0000 42.7637 0.0000
# 4 0.0000 0.0000 0.0000 17.0296 0.0000 4.7502
# 5 29.2252 21.0886 42.7637 0.0000 27.6473 0.0000
# 6 0.0000 0.0000 0.0000 4.7502 0.0000 41.5927
#
#
#
# Elastic Compliance Matrix: (Units=1/GPa)
#
#
# Indices 1 2 3 4 5 6 
#
# 1 0.014844 -0.002120 -0.002346 0.000000 -0.010445 0.000000
# 2 -0.002120 0.015045 -0.001781 0.000000 -0.006480 0.000000
# 3 -0.002346 -0.001781 0.015081 0.000000 -0.019489 0.000000
# 4 0.000000 0.000000 0.000000 0.060653 0.000000 -0.006927
# 5 -0.010445 -0.006480 -0.019489 0.000000 0.082299 0.000000
# 6 0.000000 0.000000 0.000000 -0.006927 0.000000 0.024834
#
#
# Mechanical properties :
#
#
# Convention : Reuss Voigt Hill
#
# Bulk Modulus (GPa) = 30.79139 65.62609 48.20874
# Shear Modulus (GPa) = 21.17976 29.84245 25.51110
#
# Velocity S-wave (km/s) = 3.27981 3.89319 3.59959
# Velocity P-wave (km/s) = 5.47556 7.31715 6.46229
#
# Compressibility (1/GPa) = 0.03247661
#
# Stress axis : x y z
#
# Youngs Moduli (GPa) = 67.36794 66.46943 66.30767
#
# Poissons Ratio (x) = 0.14091 0.15555
# Poissons Ratio (y) = 0.14281 0.11807
# Poissons Ratio (z) = 0.15804 0.11836
#
# Static dielectric constant tensor:
#      x y z
#    x 1.709460 0.000000 -0.033370 
#    y 0.000000 1.694710 0.000000 
#    z -0.033370 0.000000 1.674520 
# 
# From -- ./inp_files/260107.got.cif
#   From: 2010.05.17/outbox.cif.g08.bks.cpg/sg15_131_cif.got.tgz:260107.got - 2010.06.03 18:47:42.
