data_PCOD9290193
_publ_section_title
;
Structure prediction by ZEFSAII (Michael W. Deem and Ramdas Pophale) SiO2 
 PCOD9290193
Probable space group: C 2/C
;
_chemical_formula_sum "Si O2"
_cell_formula_units_Z 32
_cell_length_a 14.969170
_cell_length_b 12.454336
_cell_length_c 13.870257
_cell_angle_alpha 90.000000
_cell_angle_beta 144.470894
_cell_angle_gamma 90.000000
_cell_volume 1502.678161
_symmetry_space_group_name_H-M "C 2/C"
_symmetry_group_IT_number 15
_symmetry_cell_setting 'monoclinic'
loop_
_space_group_symop_operation_xyz
x,y,z
-x,y,1/2-z
-x,-y,-z
x,-y,1/2+z
1/2+x,1/2+y,z
1/2-x,1/2+y,1/2-z
1/2-x,1/2-y,-z
1/2+x,1/2-y,1/2+z
loop_
_atom_site_type_symbol
_atom_site_label
_atom_site_fract_x
_atom_site_fract_y
_atom_site_fract_z
Si Si1 0.812666 0.382742 0.233303
Si Si2 0.088823 0.772649 0.911635
Si Si3 0.783691 0.381493 0.624633
Si Si4 0.113550 0.324316 0.993285
O O1 0.784767 0.495953 0.157536
O O2 0.841771 0.389241 0.372352
O O3 0.967406 0.322419 0.329046
O O4 0.655775 0.319369 0.069374
O O5 0.000000 0.840175 0.750000
O O6 0.250000 0.750000 0.000000
O O7 0.793665 0.368227 0.518000
O O8 0.652089 0.300788 0.543424
O O9 0.938611 0.335975 0.808450
#
# Coordination Sequence:
#
# PCOD9290193 Si02
#       4
#     8   8   8   8
#     4  11  21  42  67  93 127 172 206 264 328 372
#     4   9  21  38  62  95 128 154 210 264 312 386
#     4  10  23  42  64  91 132 172 205 273 310 371
#     4  10  22  41  63  93 127 167 226 249 314 394
#
# _framework density 21.295311999999999
#
# number of rings (size 3 to 8) (size 9 to 14) (size 15 to 20)
#    0.000    2.000    0.000    2.250   10.500    0.000 
#   13.500    2.500    0.000    0.000    0.000    0.000 
#    0.000    0.000    0.000    0.000    0.000    0.000 
#
# Total GULP energy -89146.927735 kJ/mol
# GULP energy per Si atom -5571.682983 kJ/mol
# Density = 2.124684 g / cm^3
# Si number density = 21.295312 Si / 1000 Ang^3
#
#
#
# Elastic Constant Matrix: (Units=GPa)
#
#
# Indices 1 2 3 4 5 6 
#
# 1 67.0190 32.9955 37.4373 0.0000 -23.5363 0.0000
# 2 32.9955 118.6699 24.3067 0.0000 1.3539 0.0000
# 3 37.4373 24.3067 106.7626 0.0000 -20.3611 0.0000
# 4 0.0000 0.0000 0.0000 30.5243 0.0000 -1.6044
# 5 -23.5363 1.3539 -20.3611 0.0000 39.8039 0.0000
# 6 0.0000 0.0000 0.0000 -1.6044 0.0000 14.2915
#
#
#
# Elastic Compliance Matrix: (Units=1/GPa)
#
#
# Indices 1 2 3 4 5 6 
#
# 1 0.025122 -0.006095 -0.005041 0.000000 0.012483 0.000000
# 2 -0.006095 0.010396 -0.001091 0.000000 -0.004516 0.000000
# 3 -0.005041 -0.001091 0.011991 0.000000 0.003190 0.000000
# 4 0.000000 0.000000 0.000000 0.032955 0.000000 0.003700
# 5 0.012483 -0.004516 0.003190 0.000000 0.034290 0.000000
# 6 0.000000 0.000000 0.000000 0.003700 0.000000 0.070387
#
#
# Mechanical properties :
#
#
# Convention : Reuss Voigt Hill
#
# Bulk Modulus (GPa) = 43.37287 53.54783 48.46035
# Shear Modulus (GPa) = 23.01178 30.10473 26.55825
#
# Velocity S-wave (km/s) = 3.29082 3.76397 3.53532
# Velocity P-wave (km/s) = 5.90346 6.64002 6.28255
#
# Compressibility (1/GPa) = 0.02305589
#
# Stress axis : x y z
#
# Youngs Moduli (GPa) = 39.80619 96.18759 83.39609
#
# Poissons Ratio (x) = 0.58625 0.42038
# Poissons Ratio (y) = 0.24261 0.09098
# Poissons Ratio (z) = 0.20065 0.10493
#
# Static dielectric constant tensor:
#      x y z
#    x 1.861510 0.000000 -0.038510 
#    y 0.000000 1.811590 0.000000 
#    z -0.038510 0.000000 1.765180 
# 
# From -- ./inp_files/45835.got.cif
#   From: 2010.05.17/outbox.cif.g08.bks.cpg/sg15_23_cif.got.tgz:45835.got - 2010.06.03 18:47:42.
