data_PCOD9290392
_publ_section_title
;
Structure prediction by ZEFSAII (Michael W. Deem and Ramdas Pophale) SiO2 
 PCOD9290392
Probable space group: C 2/C
;
_chemical_formula_sum "Si O2"
_cell_formula_units_Z 56
_cell_length_a 8.996594
_cell_length_b 11.059328
_cell_length_c 26.604321
_cell_angle_alpha 90.000000
_cell_angle_beta 107.007032
_cell_angle_gamma 90.000000
_cell_volume 2531.273404
_symmetry_space_group_name_H-M "C 2/C"
_symmetry_group_IT_number 15
_symmetry_cell_setting 'monoclinic'
loop_
_space_group_symop_operation_xyz
x,y,z
-x,y,1/2-z
-x,-y,-z
x,-y,1/2+z
1/2+x,1/2+y,z
1/2-x,1/2+y,1/2-z
1/2-x,1/2-y,-z
1/2+x,1/2-y,1/2+z
loop_
_atom_site_type_symbol
_atom_site_label
_atom_site_fract_x
_atom_site_fract_y
_atom_site_fract_z
Si Si1 0.401472 0.641839 0.886326
Si Si2 0.183922 0.316586 0.278663
Si Si3 0.421775 0.716057 0.003607
Si Si4 0.667653 0.881903 0.993451
Si Si5 0.853367 0.438608 0.772099
Si Si6 0.630514 0.552272 0.417718
Si Si7 0.052740 0.405740 0.612458
O O1 0.237624 0.655475 0.841592
O O2 0.504570 0.530459 0.877597
O O3 0.485672 0.766209 0.879187
O O4 0.410888 0.648748 0.948373
O O5 0.234981 0.440833 0.255536
O O6 0.259745 0.188053 0.269356
O O7 0.000000 0.307085 0.250000
O O8 0.515575 0.840069 0.008277
O O9 0.471142 0.641945 0.057569
O O10 0.250000 0.750000 0.000000
O O11 0.781597 0.969198 0.032864
O O12 0.750000 0.750000 0.000000
O O13 0.594152 0.939635 0.936250
O O14 0.921034 0.472951 0.833516
O O15 0.000000 0.417726 0.750000
O O16 0.777697 0.596444 0.399054
#
# Coordination Sequence:
#
# PCOD9290392 Si02
#       7
#     8   8   8   8   8   8   8
#     4  10  22  41  65  95 129 170 221 267 325 397
#     4  10  24  47  69  98 132 169 226 286 338 398
#     4  11  22  41  62  98 136 171 216 262 318 396
#     4  11  22  41  62  98 136 171 216 262 318 396
#     4  10  24  47  69  98 132 169 226 286 338 398
#     4  12  22  40  65  92 133 180 208 266 326 388
#     4  10  22  41  65  95 129 170 221 267 325 397
#
# _framework density 22.123251
#
# number of rings (size 3 to 8) (size 9 to 14) (size 15 to 20)
#    0.000    1.429    5.714    0.857    0.000    7.429 
#    0.000    0.000    0.000    0.000    0.000    0.000 
#    0.000    0.000    0.000    0.000    0.000    0.000 
#
# Total GULP energy -155936.154447 kJ/mol
# GULP energy per Si atom -5569.148373 kJ/mol
# Density = 2.207290 g / cm^3
# Si number density = 22.123251 Si / 1000 Ang^3
#
#
#
# Elastic Constant Matrix: (Units=GPa)
#
#
# Indices 1 2 3 4 5 6 
#
# 1 57.2079 6.3776 27.5433 0.0000 19.8067 0.0000
# 2 6.3776 89.1555 21.5543 0.0000 7.1070 0.0000
# 3 27.5433 21.5543 116.2289 0.0000 9.9096 0.0000
# 4 0.0000 0.0000 0.0000 33.0380 0.0000 6.9195
# 5 19.8067 7.1070 9.9096 0.0000 31.8201 0.0000
# 6 0.0000 0.0000 0.0000 6.9195 0.0000 33.2335
#
#
#
# Elastic Compliance Matrix: (Units=1/GPa)
#
#
# Indices 1 2 3 4 5 6 
#
# 1 0.024506 0.000494 -0.004714 0.000000 -0.013896 0.000000
# 2 0.000494 0.011878 -0.002124 0.000000 -0.002299 0.000000
# 3 -0.004714 -0.002124 0.010092 0.000000 0.000266 0.000000
# 4 0.000000 0.000000 0.000000 0.031648 0.000000 -0.006589
# 5 -0.013896 -0.002299 0.000266 0.000000 0.040507 0.000000
# 6 0.000000 0.000000 0.000000 -0.006589 0.000000 0.031462
#
#
# Mechanical properties :
#
#
# Convention : Reuss Voigt Hill
#
# Bulk Modulus (GPa) = 29.59585 41.50472 35.55029
# Shear Modulus (GPa) = 28.72851 33.42614 31.07733
#
# Velocity S-wave (km/s) = 3.60747 3.89125 3.75205
# Velocity P-wave (km/s) = 5.54604 6.24424 5.90547
#
# Compressibility (1/GPa) = 0.03378852
#
# Stress axis : x y z
#
# Youngs Moduli (GPa) = 40.80658 84.19117 99.08789
#
# Poissons Ratio (x) = -0.04163 0.46712
# Poissons Ratio (y) = -0.02018 0.21045
# Poissons Ratio (z) = 0.19237 0.17881
#
# Static dielectric constant tensor:
#      x y z
#    x -1.340490 0.000000 1.569820 
#    y 0.000000 2.072140 0.000000 
#    z 1.569820 0.000000 1.171690 
# 
# From -- ./inp_files/288064.got.cif
#   From: 2010.05.17/outbox.cif.g08.bks.cpg/sg15_145_cif.got.tgz:288064.got - 2010.06.03 18:47:42.
