data_PCOD9290465
_publ_section_title
;
Structure prediction by ZEFSAII (Michael W. Deem and Ramdas Pophale) SiO2 
 PCOD9290465
Probable space group: C 2/C
;
_chemical_formula_sum "Si O2"
_cell_formula_units_Z 44
_cell_length_a 27.452663
_cell_length_b 8.576463
_cell_length_c 12.098656
_cell_angle_alpha 90.000000
_cell_angle_beta 133.053056
_cell_angle_gamma 90.000000
_cell_volume 2081.526400
_symmetry_space_group_name_H-M "C 2/C"
_symmetry_group_IT_number 15
_symmetry_cell_setting 'monoclinic'
loop_
_space_group_symop_operation_xyz
x,y,z
-x,y,1/2-z
-x,-y,-z
x,-y,1/2+z
1/2+x,1/2+y,z
1/2-x,1/2+y,1/2-z
1/2-x,1/2-y,-z
1/2+x,1/2-y,1/2+z
loop_
_atom_site_type_symbol
_atom_site_label
_atom_site_fract_x
_atom_site_fract_y
_atom_site_fract_z
Si Si1 0.561180 0.845253 0.273585
Si Si2 0.253966 0.499365 0.503753
Si Si3 0.000000 0.342893 0.750000
Si Si4 0.001476 0.185649 0.526774
Si Si5 0.156804 0.739934 0.267826
Si Si6 0.203243 0.739892 0.090484
O O1 0.500000 0.774579 0.250000
O O2 0.630315 0.783807 0.424982
O O3 0.553279 0.030577 0.285504
O O4 0.545560 0.786678 0.126802
O O5 0.185265 0.589375 0.374360
O O6 0.314418 0.617281 0.616484
O O7 0.247038 0.396769 0.603573
O O8 0.267303 0.395015 0.417500
O O9 0.019574 0.233078 0.881832
O O10 0.078047 0.242984 0.629734
O O11 0.000000 0.000000 0.500000
O O12 0.193878 0.741051 0.206535
#
# Coordination Sequence:
#
# PCOD9290465 Si02
#       6
#     8   8   4   8   8   8
#     4  10  22  41  66  92 127 169 209 265 328 391
#     4  10  24  38  63  92 118 166 210 252 314 372
#     4  10  24  40  62  92 130 176 212 256 334 386
#     4  12  25  40  65  97 131 169 218 272 325 386
#     4  11  22  42  61  88 128 161 206 261 314 376
#     4  11  21  42  64  90 123 160 210 261 308 379
#
# _framework density 21.138335000000001
#
# number of rings (size 3 to 8) (size 9 to 14) (size 15 to 20)
#    0.545    0.727    1.818    3.818    1.273    2.909 
#    0.000    9.091    0.000    0.000    0.000    0.000 
#    0.000    0.000    0.000    0.000    0.000    0.000 
#
# Total GULP energy -122839.883441 kJ/mol
# GULP energy per Si atom -5583.631066 kJ/mol
# Density = 2.109022 g / cm^3
# Si number density = 21.138335 Si / 1000 Ang^3
#
#
#
# Elastic Constant Matrix: (Units=GPa)
#
#
# Indices 1 2 3 4 5 6 
#
# 1 40.9342 20.7169 -4.7527 0.0000 -19.3252 0.0000
# 2 20.7169 115.8717 26.4297 0.0000 -12.9645 0.0000
# 3 -4.7527 26.4297 57.9506 0.0000 -18.5143 0.0000
# 4 0.0000 0.0000 0.0000 5.6518 0.0000 -17.9726
# 5 -19.3252 -12.9645 -18.5143 0.0000 54.7882 0.0000
# 6 0.0000 0.0000 0.0000 -17.9726 0.0000 -0.9187
#
#
#
# Elastic Compliance Matrix: (Units=1/GPa)
#
#
# Indices 1 2 3 4 5 6 
#
# 1 0.036486 -0.007395 0.011118 0.000000 0.014877 0.000000
# 2 -0.007395 0.011170 -0.006378 0.000000 -0.002121 0.000000
# 3 0.011118 -0.006378 0.024492 0.000000 0.010689 0.000000
# 4 0.000000 0.000000 0.000000 0.002799 0.000000 -0.054760
# 5 0.014877 -0.002121 0.010689 0.000000 0.026610 0.000000
# 6 0.000000 0.000000 0.000000 -0.054760 0.000000 -0.017220
#
#
# Mechanical properties :
#
#
# Convention : Reuss Voigt Hill
#
# Bulk Modulus (GPa) = 14.96173 33.28271 24.12222
# Shear Modulus (GPa) = 44.67239 23.39510 34.03374
#
# Velocity S-wave (km/s) = 4.60209 3.33041 4.01689
# Velocity P-wave (km/s) = 5.94410 5.52885 5.74023
#
# Compressibility (1/GPa) = 0.06683719
#
# Stress axis : x y z
#
# Youngs Moduli (GPa) = 27.40766 89.52596 40.83019
#
# Poissons Ratio (x) = 0.66203 -0.45394
# Poissons Ratio (y) = 0.20267 0.26043
# Poissons Ratio (z) = -0.30471 0.57102
#
# Static dielectric constant tensor:
#      x y z
#    x 1.795440 0.000000 -0.030500 
#    y 0.000000 1.788780 0.000000 
#    z -0.030500 0.000000 1.723470 
# 
# From -- ./inp_files/122100.got.cif
#   From: 2010.05.17/outbox.cif.g08.bks.cpg/sg15_62_cif.got.tgz:122100.got - 2010.06.03 18:47:42.
