data_PCOD9290825
_publ_section_title
;
Structure prediction by ZEFSAII (Michael W. Deem and Ramdas Pophale) SiO2 
 PCOD9290825
Probable space group: C 2/C
;
_chemical_formula_sum "Si O2"
_cell_formula_units_Z 36
_cell_length_a 11.552140
_cell_length_b 18.280588
_cell_length_c 8.366107
_cell_angle_alpha 90.000000
_cell_angle_beta 118.942094
_cell_angle_gamma 90.000000
_cell_volume 1546.102510
_symmetry_space_group_name_H-M "C 2/C"
_symmetry_group_IT_number 15
_symmetry_cell_setting 'monoclinic'
loop_
_space_group_symop_operation_xyz
x,y,z
-x,y,1/2-z
-x,-y,-z
x,-y,1/2+z
1/2+x,1/2+y,z
1/2-x,1/2+y,1/2-z
1/2-x,1/2-y,-z
1/2+x,1/2-y,1/2+z
loop_
_atom_site_type_symbol
_atom_site_label
_atom_site_fract_x
_atom_site_fract_y
_atom_site_fract_z
Si Si1 0.634501 0.584367 0.614457
Si Si2 0.003039 0.625103 0.072992
Si Si3 0.000000 0.989512 0.750000
Si Si4 0.900917 0.234343 0.042856
Si Si5 0.633180 0.981523 0.446080
O O1 0.614577 0.544819 0.769672
O O2 0.516129 0.559953 0.416057
O O3 0.624241 0.671399 0.606087
O O4 0.753777 0.550638 0.590766
O O5 0.884037 0.565345 0.005254
O O6 0.000000 0.654650 0.250000
O O7 0.022659 0.694090 0.972104
O O8 0.121172 0.571402 0.092468
O O9 0.000000 0.208588 0.250000
O O10 0.750000 0.250000 0.000000
O O11 0.500000 0.969422 0.250000
#
# Coordination Sequence:
#
# PCOD9290825 Si02
#       5
#     8   8   4   8   8
#     4  11  24  45  69  97 138 178 235 280 348 416
#     4  10  23  40  66 105 133 178 237 288 346 412
#     4  10  26  44  68  94 132 188 226 278 344 430
#     4  12  26  46  69 100 147 187 227 290 363 419
#     4  10  22  41  71 101 133 177 236 290 340 408
#
# _framework density 23.284352999999999
#
# number of rings (size 3 to 8) (size 9 to 14) (size 15 to 20)
#    0.000    1.333    3.333    0.667   10.889    0.889 
#    0.000    1.111    0.000    0.000    0.000    0.000 
#    0.000    0.000    0.000    0.000    0.000    0.000 
#
# Total GULP energy -100207.092946 kJ/mol
# GULP energy per Si atom -5567.060719 kJ/mol
# Density = 2.323136 g / cm^3
# Si number density = 23.284353 Si / 1000 Ang^3
#
#
#
# Elastic Constant Matrix: (Units=GPa)
#
#
# Indices 1 2 3 4 5 6 
#
# 1 117.1677 27.2790 4.4438 0.0000 -14.0030 0.0000
# 2 27.2790 154.1257 8.9882 0.0000 -12.0677 0.0000
# 3 4.4438 8.9882 47.2809 0.0000 -15.1637 0.0000
# 4 0.0000 0.0000 0.0000 31.1772 0.0000 -6.6657
# 5 -14.0030 -12.0677 -15.1637 0.0000 38.4694 0.0000
# 6 0.0000 0.0000 0.0000 -6.6657 0.0000 26.7794
#
#
#
# Elastic Compliance Matrix: (Units=1/GPa)
#
#
# Indices 1 2 3 4 5 6 
#
# 1 0.009215 -0.001414 0.000385 0.000000 0.003063 0.000000
# 2 -0.001414 0.006888 -0.000742 0.000000 0.001353 0.000000
# 3 0.000385 -0.000742 0.024297 0.000000 0.009484 0.000000
# 4 0.000000 0.000000 0.000000 0.033878 0.000000 0.008433
# 5 0.003063 0.001353 0.009484 0.000000 0.031273 0.000000
# 6 0.000000 0.000000 0.000000 0.008433 0.000000 0.039441
#
#
# Mechanical properties :
#
#
# Convention : Reuss Voigt Hill
#
# Bulk Modulus (GPa) = 27.13154 44.44400 35.78777
# Shear Modulus (GPa) = 31.09073 37.80942 34.45007
#
# Velocity S-wave (km/s) = 3.65809 4.03403 3.85065
# Velocity P-wave (km/s) = 5.43320 6.38958 5.93070
#
# Compressibility (1/GPa) = 0.03685747
#
# Stress axis : x y z
#
# Youngs Moduli (GPa) = 108.51473 145.18658 41.15742
#
# Poissons Ratio (x) = 0.20525 -0.01584
# Poissons Ratio (y) = 0.15341 0.03056
# Poissons Ratio (z) = -0.04176 0.10779
#
# Static dielectric constant tensor:
#      x y z
#    x 1.980050 0.000000 0.069810 
#    y 0.000000 1.901910 0.000000 
#    z 0.069810 0.000000 2.052470 
# 
# From -- ./inp_files/28837.got.cif
#   From: 2010.05.17/outbox.cif.g08.bks.cpg/sg15_15_cif.got.tgz:28837.got - 2010.06.03 18:47:42.
