data_PCOD9290606
_publ_section_title
;
Structure prediction by ZEFSAII (Michael W. Deem and Ramdas Pophale) SiO2 
 PCOD9290606
Probable space group: C 2/C
;
_chemical_formula_sum "Si O2"
_cell_formula_units_Z 60
_cell_length_a 6.270212
_cell_length_b 14.760371
_cell_length_c 30.998335
_cell_angle_alpha 90.000000
_cell_angle_beta 65.020043
_cell_angle_gamma 90.000000
_cell_volume 2600.545088
_symmetry_space_group_name_H-M "C 2/C"
_symmetry_group_IT_number 15
_symmetry_cell_setting 'monoclinic'
loop_
_space_group_symop_operation_xyz
x,y,z
-x,y,1/2-z
-x,-y,-z
x,-y,1/2+z
1/2+x,1/2+y,z
1/2-x,1/2+y,1/2-z
1/2-x,1/2-y,-z
1/2+x,1/2-y,1/2+z
loop_
_atom_site_type_symbol
_atom_site_label
_atom_site_fract_x
_atom_site_fract_y
_atom_site_fract_z
Si Si1 0.269170 0.309180 0.117653
Si Si2 0.250710 0.067055 0.218641
Si Si3 0.518038 0.722643 0.421422
Si Si4 0.000000 0.894648 0.250000
Si Si5 0.819712 0.072696 0.032530
Si Si6 0.721508 0.114547 0.948048
Si Si7 0.558056 0.023604 0.880690
Si Si8 0.480201 0.240557 0.322252
O O1 0.515862 0.345638 0.078088
O O2 0.318325 0.274011 0.161497
O O3 0.193707 0.225967 0.093733
O O4 0.068139 0.386886 0.129545
O O5 0.442510 0.146505 0.207219
O O6 0.000000 0.112824 0.250000
O O7 0.206623 0.967816 0.245413
O O8 0.291781 0.030635 0.166853
O O9 0.532686 0.649918 0.457180
O O10 0.528850 0.815907 0.446955
O O11 0.751928 0.722053 0.371291
O O12 0.938843 0.825398 0.293804
O O13 0.656728 0.035035 0.083824
O O14 0.675705 0.096178 0.001762
O O15 0.000000 0.000000 0.000000
O O16 0.709200 0.041269 0.910950
#
# Coordination Sequence:
#
# PCOD9290606 Si02
#       8
#     8   8   8   4   8   8   8   8
#     4  10  22  42  72  98 137 187 237 293 366 434
#     4  10  24  44  73 106 137 187 240 296 374 440
#     4  10  23  43  68  94 143 184 238 289 365 432
#     4  10  24  48  76 108 144 178 256 306 364 462
#     4  12  23  41  65 105 137 190 241 293 362 440
#     4  10  22  41  67  97 137 190 233 293 362 424
#     4  11  22  46  66  99 149 182 237 309 365 434
#     4  11  23  49  74 101 144 192 228 312 375 432
#
# _framework density 23.072084
#
# number of rings (size 3 to 8) (size 9 to 14) (size 15 to 20)
#    0.400    1.067    2.667    3.200    0.000    3.733 
#    9.600    0.000    0.000    0.000    0.000    0.000 
#    0.000    0.000    0.000    0.000    0.000    0.000 
#
# Total GULP energy -167327.087868 kJ/mol
# GULP energy per Si atom -5577.569596 kJ/mol
# Density = 2.301957 g / cm^3
# Si number density = 23.072084 Si / 1000 Ang^3
#
#
#
# Elastic Constant Matrix: (Units=GPa)
#
#
# Indices 1 2 3 4 5 6 
#
# 1 56.8448 2.8981 6.3184 0.0000 18.2242 0.0000
# 2 2.8981 79.0922 22.5081 0.0000 9.4758 0.0000
# 3 6.3184 22.5081 80.9606 -0.0001 2.3054 -0.0001
# 4 0.0000 0.0000 -0.0001 42.8579 0.0001 -0.0065
# 5 18.2242 9.4758 2.3054 0.0001 33.2553 0.0000
# 6 0.0000 0.0000 -0.0001 -0.0065 0.0000 -3.2693
#
#
#
# Elastic Compliance Matrix: (Units=1/GPa)
#
#
# Indices 1 2 3 4 5 6 
#
# 1 0.021574 0.001121 -0.001653 0.000000 -0.012028 0.000000
# 2 0.001121 0.014246 -0.003923 0.000000 -0.004402 0.000000
# 3 -0.001653 -0.003923 0.013540 0.000000 0.001085 0.000000
# 4 0.000000 0.000000 0.000000 0.023333 0.000000 -0.000046
# 5 -0.012028 -0.004402 0.001085 0.000000 0.037841 0.000001
# 6 0.000000 0.000000 0.000000 -0.000046 0.000001 -0.305874
#
#
# Mechanical properties :
#
#
# Convention : Reuss Voigt Hill
#
# Bulk Modulus (GPa) = 24.72101 31.14963 27.93532
# Shear Modulus (GPa) = -28.91070 26.91365 -0.99852
#
# Velocity S-wave (km/s) = -3.54370 3.41912 -0.65858
# Velocity P-wave (km/s) = 2.45067 5.39606 3.39939
#
# Compressibility (1/GPa) = 0.04045142
#
# Stress axis : x y z
#
# Youngs Moduli (GPa) = 46.35127 70.19475 73.85329
#
# Poissons Ratio (x) = -0.07868 0.12207
# Poissons Ratio (y) = -0.05195 0.28971
# Poissons Ratio (z) = 0.07661 0.27535
#
# Static dielectric constant tensor:
#      x y z
#    x 2.066080 0.000000 0.152440 
#    y 0.000000 1.967350 0.000000 
#    z 0.152440 0.000000 1.951770 
# 
# From -- ./inp_files/305791.got.cif
#   From: 2010.05.17/outbox.cif.g08.bks.cpg/sg15_153_cif.got.tgz:305791.got - 2010.06.03 18:47:42.
