data_PCOD9290517
_publ_section_title
;
Structure prediction by ZEFSAII (Michael W. Deem and Ramdas Pophale) SiO2 
 PCOD9290517
Probable space group: C 2/C
;
_chemical_formula_sum "Si O2"
_cell_formula_units_Z 40
_cell_length_a 15.028311
_cell_length_b 7.950690
_cell_length_c 15.504009
_cell_angle_alpha 90.000000
_cell_angle_beta 127.911267
_cell_angle_gamma 90.000000
_cell_volume 1461.557120
_symmetry_space_group_name_H-M "C 2/C"
_symmetry_group_IT_number 15
_symmetry_cell_setting 'monoclinic'
loop_
_space_group_symop_operation_xyz
x,y,z
-x,y,1/2-z
-x,-y,-z
x,-y,1/2+z
1/2+x,1/2+y,z
1/2-x,1/2+y,1/2-z
1/2-x,1/2-y,-z
1/2+x,1/2-y,1/2+z
loop_
_atom_site_type_symbol
_atom_site_label
_atom_site_fract_x
_atom_site_fract_y
_atom_site_fract_z
Si Si1 0.322810 0.432107 0.601592
Si Si2 0.475199 0.546701 0.855012
Si Si3 0.609168 0.002542 0.699206
Si Si4 0.697733 0.707623 0.641541
Si Si5 0.616548 0.108212 0.399655
O O1 0.388748 0.502568 0.725886
O O2 0.423650 0.414734 0.592781
O O3 0.259908 0.262051 0.591804
O O4 0.230773 0.569020 0.517319
O O5 0.395585 0.567673 0.890668
O O6 0.546896 0.720600 0.879944
O O7 0.691546 0.158170 0.736731
O O8 0.640092 0.874557 0.642951
O O9 0.476649 0.030407 0.627173
O O10 0.637841 0.917971 0.810129
#
# Coordination Sequence:
#
# PCOD9290517 Si02
#       5
#     8   8   8   8   8
#     4  11  22  42  72  95 137 187 232 282 354 424
#     4  10  22  41  66  98 134 181 224 284 353 405
#     4  10  22  42  65  96 136 175 231 285 352 410
#     4  11  22  42  67  98 135 182 228 286 346 420
#     4  10  23  42  68  95 133 183 228 286 355 412
#
# _framework density 27.368072999999999
#
# number of rings (size 3 to 8) (size 9 to 14) (size 15 to 20)
#    0.000    1.600    2.000    5.400    0.000    7.200 
#    3.600    1.000    0.000    0.000    0.000    0.000 
#    0.000    0.000    0.000    0.000    0.000    0.000 
#
# Total GULP energy -111840.725089 kJ/mol
# GULP energy per Si atom -5592.036254 kJ/mol
# Density = 2.730578 g / cm^3
# Si number density = 27.368073 Si / 1000 Ang^3
#
#
#
# Elastic Constant Matrix: (Units=GPa)
#
#
# Indices 1 2 3 4 5 6 
#
# 1 216.0614 15.9487 57.5734 0.0000 15.7171 0.0000
# 2 15.9487 75.6319 10.5537 0.0000 14.8923 0.0000
# 3 57.5734 10.5537 148.7131 0.0000 40.5178 0.0000
# 4 0.0000 0.0000 0.0000 35.0256 0.0000 15.6265
# 5 15.7171 14.8923 40.5178 0.0000 48.7228 0.0000
# 6 0.0000 0.0000 0.0000 15.6265 0.0000 47.0821
#
#
#
# Elastic Compliance Matrix: (Units=1/GPa)
#
#
# Indices 1 2 3 4 5 6 
#
# 1 0.005214 -0.000870 -0.002031 0.000000 0.000273 0.000000
# 2 -0.000870 0.014220 0.000563 0.000000 -0.004534 0.000000
# 3 -0.002031 0.000563 0.009489 0.000000 -0.007408 0.000000
# 4 0.000000 0.000000 0.000000 0.033513 0.000000 -0.011123
# 5 0.000273 -0.004534 -0.007408 0.000000 0.027982 0.000000
# 6 0.000000 0.000000 0.000000 -0.011123 0.000000 0.024931
#
#
# Mechanical properties :
#
#
# Convention : Reuss Voigt Hill
#
# Bulk Modulus (GPa) = 41.24348 67.61756 54.43052
# Shear Modulus (GPa) = 39.02968 49.92145 44.47556
#
# Velocity S-wave (km/s) = 3.78047 4.27555 4.03561
# Velocity P-wave (km/s) = 5.84454 7.00958 6.45340
#
# Compressibility (1/GPa) = 0.02424626
#
# Stress axis : x y z
#
# Youngs Moduli (GPa) = 191.79477 70.32583 105.38375
#
# Poissons Ratio (x) = 0.06117 0.21406
# Poissons Ratio (y) = 0.16682 -0.05932
# Poissons Ratio (z) = 0.38958 -0.03958
#
# Static dielectric constant tensor:
#      x y z
#    x 2.122620 0.000000 -0.025480 
#    y 0.000000 2.243010 0.000000 
#    z -0.025480 0.000000 2.111170 
# 
# From -- ./inp_files/247694.got.cif
#   From: 2010.05.17/outbox.cif.g08.bks.cpg/sg15_124_cif.got.tgz:247694.got - 2010.06.03 18:47:42.
