data_PCOD9290107
_publ_section_title
;
Structure prediction by ZEFSAII (Michael W. Deem and Ramdas Pophale) SiO2 
 PCOD9290107
Probable space group: C 2/C
;
_chemical_formula_sum "Si O2"
_cell_formula_units_Z 56
_cell_length_a 24.793643
_cell_length_b 22.241315
_cell_length_c 5.478843
_cell_angle_alpha 90.000000
_cell_angle_beta 71.204881
_cell_angle_gamma 90.000000
_cell_volume 2860.166747
_symmetry_space_group_name_H-M "C 2/C"
_symmetry_group_IT_number 15
_symmetry_cell_setting 'monoclinic'
loop_
_space_group_symop_operation_xyz
x,y,z
-x,y,1/2-z
-x,-y,-z
x,-y,1/2+z
1/2+x,1/2+y,z
1/2-x,1/2+y,1/2-z
1/2-x,1/2-y,-z
1/2+x,1/2-y,1/2+z
loop_
_atom_site_type_symbol
_atom_site_label
_atom_site_fract_x
_atom_site_fract_y
_atom_site_fract_z
Si Si1 0.795932 0.770164 0.131702
Si Si2 0.000000 0.202682 0.250000
Si Si3 0.000000 0.038531 0.750000
Si Si4 0.804346 0.533802 0.577829
Si Si5 0.390693 0.265978 0.645754
Si Si6 0.188377 0.327231 0.499354
Si Si7 0.913686 0.866724 0.223446
Si Si8 0.667205 0.466843 0.321234
O O1 0.816679 0.711025 0.245330
O O2 0.755730 0.814576 0.344277
O O3 0.750000 0.750000 0.000000
O O4 0.850732 0.794230 0.913189
O O5 0.045414 0.240237 0.344478
O O6 0.961336 0.160581 0.475996
O O7 0.053727 0.083166 0.664456
O O8 0.000000 0.000000 0.500000
O O9 0.821650 0.506937 0.817903
O O10 0.822738 0.602211 0.495322
O O11 0.735519 0.536519 0.699662
O O12 0.356654 0.206604 0.611869
O O13 0.391887 0.312300 0.420761
O O14 0.863705 0.903963 0.172164
O O15 0.651014 0.492024 0.610975
#
# Coordination Sequence:
#
# PCOD9290107 Si02
#       8
#     8   4   4   8   8   8   8   8
#     4   9  21  36  64  94 126 166 211 276 328 402
#     4  12  25  42  60  90 128 173 224 280 350 376
#     4  12  25  42  62  84 120 179 238 286 320 374
#     4  10  24  41  66  96 135 172 212 269 332 408
#     4  11  24  40  62  93 123 171 220 283 340 387
#     4  10  22  41  62 100 128 167 221 268 342 407
#     4  12  25  40  61  86 123 171 226 284 328 382
#     4  10  24  41  59  89 124 177 226 272 326 385
#
# _framework density 19.579277999999999
#
# number of rings (size 3 to 8) (size 9 to 14) (size 15 to 20)
#    0.000    1.429    1.429    2.143   14.000    1.143 
#    0.000    0.000    0.000    0.000    0.000    1.000 
#    0.000    0.000    0.000    0.000    0.000    0.000 
#
# Total GULP energy -156280.166222 kJ/mol
# GULP energy per Si atom -5581.434508 kJ/mol
# Density = 1.953472 g / cm^3
# Si number density = 19.579278 Si / 1000 Ang^3
#
#
#
# Elastic Constant Matrix: (Units=GPa)
#
#
# Indices 1 2 3 4 5 6 
#
# 1 82.7529 30.3823 19.0548 0.0000 6.9985 0.0000
# 2 30.3823 123.1134 45.8746 0.0000 7.8076 0.0000
# 3 19.0548 45.8746 119.6619 0.0000 0.5115 0.0000
# 4 0.0000 0.0000 0.0000 6.4153 0.0000 -3.1095
# 5 6.9985 7.8076 0.5115 0.0000 25.3129 0.0000
# 6 0.0000 0.0000 0.0000 -3.1095 0.0000 37.3763
#
#
#
# Elastic Compliance Matrix: (Units=1/GPa)
#
#
# Indices 1 2 3 4 5 6 
#
# 1 0.013595 -0.002765 -0.001092 0.000000 -0.002884 0.000000
# 2 -0.002765 0.010249 -0.003479 0.000000 -0.002326 0.000000
# 3 -0.001092 -0.003479 0.009859 0.000000 0.001176 0.000000
# 4 0.000000 0.000000 0.000000 0.162427 0.000000 0.013513
# 5 -0.002884 -0.002326 0.001176 0.000000 0.040997 0.000000
# 6 0.000000 0.000000 0.000000 0.013513 0.000000 0.027879
#
#
# Mechanical properties :
#
#
# Convention : Reuss Voigt Hill
#
# Bulk Modulus (GPa) = 52.54739 57.35017 54.94878
# Shear Modulus (GPa) = 17.48118 29.16866 23.32492
#
# Velocity S-wave (km/s) = 2.99129 3.86394 3.45528
# Velocity P-wave (km/s) = 6.23112 7.01866 6.63658
#
# Compressibility (1/GPa) = 0.01903044
#
# Stress axis : x y z
#
# Youngs Moduli (GPa) = 73.55772 97.57281 101.42522
#
# Poissons Ratio (x) = 0.26979 0.11080
# Poissons Ratio (y) = 0.20339 0.35284
# Poissons Ratio (z) = 0.08036 0.33944
#
# Static dielectric constant tensor:
#      x y z
#    x 1.734960 0.000000 0.042010 
#    y 0.000000 1.692990 0.000000 
#    z 0.042010 0.000000 1.746280 
# 
# From -- ./inp_files/15824.got.cif
#   From: 2010.05.17/outbox.cif.g08.bks.cpg/sg15_8_cif.got.tgz:15824.got - 2010.06.03 18:47:42.
