data_PCOD9290618
_publ_section_title
;
Structure prediction by ZEFSAII (Michael W. Deem and Ramdas Pophale) SiO2 
 PCOD9290618
Probable space group: C 2/C
;
_chemical_formula_sum "Si O2"
_cell_formula_units_Z 32
_cell_length_a 16.847898
_cell_length_b 9.188565
_cell_length_c 10.433377
_cell_angle_alpha 90.000000
_cell_angle_beta 112.770912
_cell_angle_gamma 90.000000
_cell_volume 1489.283540
_symmetry_space_group_name_H-M "C 2/C"
_symmetry_group_IT_number 15
_symmetry_cell_setting 'monoclinic'
loop_
_space_group_symop_operation_xyz
x,y,z
-x,y,1/2-z
-x,-y,-z
x,-y,1/2+z
1/2+x,1/2+y,z
1/2-x,1/2+y,1/2-z
1/2-x,1/2-y,-z
1/2+x,1/2-y,1/2+z
loop_
_atom_site_type_symbol
_atom_site_label
_atom_site_fract_x
_atom_site_fract_y
_atom_site_fract_z
Si Si1 0.645232 0.249401 0.998707
Si Si2 0.717947 0.756568 0.185575
Si Si3 0.475280 0.871928 0.383834
Si Si4 0.741628 0.508657 0.003025
O O1 0.710203 0.259388 0.158921
O O2 0.666555 0.392366 0.930632
O O3 0.545784 0.248218 0.966629
O O4 0.674977 0.097215 0.951694
O O5 0.621260 0.809911 0.160686
O O6 0.724071 0.597943 0.122070
O O7 0.748580 0.872672 0.099519
O O8 0.500000 0.907653 0.250000
O O9 0.500000 0.000000 0.500000
#
# Coordination Sequence:
#
# PCOD9290618 Si02
#       4
#     8   8   8   8
#     4  11  23  42  69  99 139 183 224 290 344 409
#     4  11  24  43  68 102 140 180 234 281 353 409
#     4  12  27  44  71 105 140 184 235 286 348 418
#     4  10  22  41  67  99 135 185 228 283 343 415
#
# _framework density 21.486841999999999
#
# number of rings (size 3 to 8) (size 9 to 14) (size 15 to 20)
#    0.000    1.000    2.500    4.500    3.500    1.000 
#    0.000    2.500    0.000    0.000    0.000    0.000 
#    0.000    0.000    0.000    0.000    0.000    0.000 
#
# Total GULP energy -89219.136582 kJ/mol
# GULP energy per Si atom -5576.196036 kJ/mol
# Density = 2.143794 g / cm^3
# Si number density = 21.486842 Si / 1000 Ang^3
#
#
#
# Elastic Constant Matrix: (Units=GPa)
#
#
# Indices 1 2 3 4 5 6 
#
# 1 132.6765 37.6597 85.1937 0.0000 13.1635 0.0000
# 2 37.6597 126.5973 43.9370 0.0000 -5.3210 0.0000
# 3 85.1937 43.9370 131.5246 0.0000 8.6781 0.0000
# 4 0.0000 0.0000 0.0000 27.4332 0.0000 -11.2083
# 5 13.1635 -5.3210 8.6781 0.0000 38.1437 0.0000
# 6 0.0000 0.0000 0.0000 -11.2083 0.0000 42.5747
#
#
#
# Elastic Compliance Matrix: (Units=1/GPa)
#
#
# Indices 1 2 3 4 5 6 
#
# 1 0.013349 -0.001315 -0.008012 0.000000 -0.002968 0.000000
# 2 -0.001315 0.009210 -0.002375 0.000000 0.002279 0.000000
# 3 -0.008012 -0.002375 0.013630 0.000000 -0.000667 0.000000
# 4 0.000000 0.000000 0.000000 0.040845 0.000000 0.010753
# 5 -0.002968 0.002279 -0.000667 0.000000 0.027711 0.000000
# 6 0.000000 0.000000 0.000000 0.010753 0.000000 0.026319
#
#
# Mechanical properties :
#
#
# Convention : Reuss Voigt Hill
#
# Bulk Modulus (GPa) = 78.21380 80.48660 79.35020
# Shear Modulus (GPa) = 31.49975 36.56420 34.03198
#
# Velocity S-wave (km/s) = 3.83299 4.12964 3.98408
# Velocity P-wave (km/s) = 7.48792 7.76392 7.62717
#
# Compressibility (1/GPa) = 0.01278547
#
# Stress axis : x y z
#
# Youngs Moduli (GPa) = 74.91001 108.57192 73.36670
#
# Poissons Ratio (x) = 0.14280 0.58779
# Poissons Ratio (y) = 0.09853 0.17427
# Poissons Ratio (z) = 0.60016 0.25789
#
# Static dielectric constant tensor:
#      x y z
#    x 1.844060 0.000000 -0.084280 
#    y 0.000000 1.824490 0.000000 
#    z -0.084280 0.000000 1.858320 
# 
# From -- ./inp_files/93573.got.cif
#   From: 2010.05.17/outbox.cif.g08.bks.cpg/sg15_47_cif.got.tgz:93573.got - 2010.06.03 18:47:42.
