data_PCOD9290757
_publ_section_title
;
Structure prediction by ZEFSAII (Michael W. Deem and Ramdas Pophale) SiO2 
 PCOD9290757
Probable space group: C 2/C
;
_chemical_formula_sum "Si O2"
_cell_formula_units_Z 32
_cell_length_a 16.528340
_cell_length_b 7.781021
_cell_length_c 17.853649
_cell_angle_alpha 90.000000
_cell_angle_beta 32.079273
_cell_angle_gamma 90.000000
_cell_volume 1219.446228
_symmetry_space_group_name_H-M "C 2/C"
_symmetry_group_IT_number 15
_symmetry_cell_setting 'monoclinic'
loop_
_space_group_symop_operation_xyz
x,y,z
-x,y,1/2-z
-x,-y,-z
x,-y,1/2+z
1/2+x,1/2+y,z
1/2-x,1/2+y,1/2-z
1/2-x,1/2-y,-z
1/2+x,1/2-y,1/2+z
loop_
_atom_site_type_symbol
_atom_site_label
_atom_site_fract_x
_atom_site_fract_y
_atom_site_fract_z
Si Si1 0.959730 0.769757 0.074872
Si Si2 0.236990 0.790586 0.405753
Si Si3 0.626601 0.594418 0.585300
Si Si4 0.455238 0.101266 0.630563
O O1 0.030137 0.875711 0.085486
O O2 0.836000 0.857748 0.117897
O O3 0.909262 0.593678 0.155234
O O4 0.080685 0.706202 0.917035
O O5 0.407712 0.800587 0.243034
O O6 0.141606 0.615211 0.484047
O O7 0.207866 0.916364 0.497367
O O8 0.500000 0.587704 0.750000
O O9 0.750000 0.750000 0.500000
#
# Coordination Sequence:
#
# PCOD9290757 Si02
#       4
#     8   8   8   8
#     4   9  22  41  68  93 133 170 227 271 328 390
#     4  10  22  41  69  98 125 175 226 272 323 399
#     4  12  27  42  64  98 140 177 212 271 345 400
#     4   9  21  39  72  97 122 164 234 280 314 378
#
# _framework density 26.241420999999999
#
# number of rings (size 3 to 8) (size 9 to 14) (size 15 to 20)
#    1.500    0.500    0.000    2.250    7.000    2.000 
#    0.000    6.250    0.000    0.000    0.000    0.000 
#    0.000    0.000    0.000    0.000    0.000    0.000 
#
# Total GULP energy -89182.772155 kJ/mol
# GULP energy per Si atom -5573.923260 kJ/mol
# Density = 2.618169 g / cm^3
# Si number density = 26.241421 Si / 1000 Ang^3
#
#
#
# Elastic Constant Matrix: (Units=GPa)
#
#
# Indices 1 2 3 4 5 6 
#
# 1 140.0577 3.9391 -8.7971 0.0000 11.7381 0.0000
# 2 3.9391 99.8788 22.0407 0.0000 4.9552 0.0000
# 3 -8.7971 22.0407 114.0393 0.0000 28.2052 0.0000
# 4 0.0000 0.0000 0.0000 29.1982 0.0000 0.7542
# 5 11.7381 4.9552 28.2052 0.0000 16.5246 0.0000
# 6 0.0000 0.0000 0.0000 0.7542 0.0000 48.1984
#
#
#
# Elastic Compliance Matrix: (Units=1/GPa)
#
#
# Indices 1 2 3 4 5 6 
#
# 1 0.008426 -0.000561 0.003802 0.000000 -0.012307 0.000000
# 2 -0.000561 0.010498 -0.002409 0.000000 0.001363 0.000000
# 3 0.003802 -0.002409 0.017335 0.000000 -0.031568 0.000000
# 4 0.000000 0.000000 0.000000 0.034263 0.000000 -0.000536
# 5 -0.012307 0.001363 -0.031568 0.000000 0.122731 0.000000
# 6 0.000000 0.000000 0.000000 -0.000536 0.000000 0.020756
#
#
# Mechanical properties :
#
#
# Convention : Reuss Voigt Hill
#
# Bulk Modulus (GPa) = 26.36848 43.14902 34.75875
# Shear Modulus (GPa) = 22.22354 41.23711 31.73033
#
# Velocity S-wave (km/s) = 2.91329 3.96845 3.48108
# Velocity P-wave (km/s) = 4.62456 6.12184 5.42511
#
# Compressibility (1/GPa) = 0.03792407
#
# Stress axis : x y z
#
# Youngs Moduli (GPa) = 118.68099 95.25324 57.68512
#
# Poissons Ratio (x) = 0.05342 -0.21933
# Poissons Ratio (y) = 0.06656 0.13898
# Poissons Ratio (z) = -0.45126 0.22950
#
# Static dielectric constant tensor:
#      x y z
#    x 2.164260 0.000000 0.054340 
#    y 0.000000 2.100730 0.000000 
#    z 0.054340 0.000000 2.912530 
# 
# From -- ./inp_files/247199.got.cif
#   From: 2010.05.17/outbox.cif.g08.bks.cpg/sg15_124_cif.got.tgz:247199.got - 2010.06.03 18:47:42.
