data_PCOD9290076
_publ_section_title
;
Structure prediction by ZEFSAII (Michael W. Deem and Ramdas Pophale) SiO2 
 PCOD9290076
Probable space group: C 2/C
;
_chemical_formula_sum "Si O2"
_cell_formula_units_Z 60
_cell_length_a 11.164284
_cell_length_b 26.825627
_cell_length_c 16.234815
_cell_angle_alpha 90.000000
_cell_angle_beta 141.109815
_cell_angle_gamma 90.000000
_cell_volume 3052.600564
_symmetry_space_group_name_H-M "C 2/C"
_symmetry_group_IT_number 15
_symmetry_cell_setting 'monoclinic'
loop_
_space_group_symop_operation_xyz
x,y,z
-x,y,1/2-z
-x,-y,-z
x,-y,1/2+z
1/2+x,1/2+y,z
1/2-x,1/2+y,1/2-z
1/2-x,1/2-y,-z
1/2+x,1/2-y,1/2+z
loop_
_atom_site_type_symbol
_atom_site_label
_atom_site_fract_x
_atom_site_fract_y
_atom_site_fract_z
Si Si1 0.196067 0.166592 0.177465
Si Si2 0.648219 0.703614 0.401985
Si Si3 0.566159 0.560153 0.107427
Si Si4 0.204723 0.462509 0.315951
Si Si5 0.500000 0.511068 0.250000
Si Si6 0.976649 0.343065 0.974896
Si Si7 0.864637 0.547627 0.913017
Si Si8 0.218870 0.759556 0.387413
O O1 0.368225 0.172264 0.333642
O O2 0.224055 0.207617 0.123983
O O3 0.992334 0.176439 0.110841
O O4 0.186886 0.108923 0.152351
O O5 0.500000 0.719536 0.250000
O O6 0.750000 0.750000 0.500000
O O7 0.813027 0.667402 0.455392
O O8 0.691399 0.515688 0.136865
O O9 0.536799 0.545254 0.188587
O O10 0.360084 0.566434 0.954140
O O11 0.178248 0.445039 0.207360
O O12 0.000000 0.464219 0.250000
O O13 0.324801 0.472912 0.144063
O O14 0.046346 0.400218 0.009603
O O15 0.149930 0.304360 0.076512
O O16 0.000000 0.500000 0.000000
O O17 0.250000 0.750000 0.500000
O O18 0.000000 0.770783 0.250000
#
# Coordination Sequence:
#
# PCOD9290076 Si02
#       8
#     8   8   8   8   4   8   8   8
#     4  11  24  43  68  98 127 177 220 276 340 395
#     4  10  22  41  67  94 128 165 218 273 330 393
#     4  10  23  41  66  95 134 173 225 273 335 406
#     4  10  22  41  60  96 135 173 219 277 331 397
#     4  10  22  42  68  98 134 176 222 280 334 406
#     4  11  24  44  69  98 131 178 224 276 341 401
#     4  11  24  42  67  98 133 176 224 272 340 405
#     4  12  26  47  69  96 137 175 228 280 334 412
#
# _framework density 19.655372
#
# number of rings (size 3 to 8) (size 9 to 14) (size 15 to 20)
#    0.000    1.333    2.667    2.400    7.467    1.600 
#    9.600    0.000    0.000    0.000    0.000    0.000 
#    0.000    0.000    0.000    0.000    0.000    0.000 
#
# Total GULP energy -167443.079713 kJ/mol
# GULP energy per Si atom -5581.435990 kJ/mol
# Density = 1.961064 g / cm^3
# Si number density = 19.655372 Si / 1000 Ang^3
#
#
#
# Elastic Constant Matrix: (Units=GPa)
#
#
# Indices 1 2 3 4 5 6 
#
# 1 58.1382 36.1238 35.7770 0.0000 11.8920 0.0000
# 2 36.1238 113.4456 28.3759 0.0000 3.1623 0.0000
# 3 35.7770 28.3759 91.3210 0.0000 17.7259 0.0000
# 4 0.0000 0.0000 0.0000 30.2828 0.0000 4.7710
# 5 11.8920 3.1623 17.7259 0.0000 39.7175 0.0000
# 6 0.0000 0.0000 0.0000 4.7710 0.0000 11.1005
#
#
#
# Elastic Compliance Matrix: (Units=1/GPa)
#
#
# Indices 1 2 3 4 5 6 
#
# 1 0.026804 -0.006498 -0.007691 0.000000 -0.004076 0.000000
# 2 -0.006498 0.011147 -0.001230 0.000000 0.001607 0.000000
# 3 -0.007691 -0.001230 0.015196 0.000000 -0.004381 0.000000
# 4 0.000000 0.000000 0.000000 0.035420 0.000000 -0.015224
# 5 -0.004076 0.001607 -0.004381 0.000000 0.028226 0.000000
# 6 0.000000 0.000000 0.000000 -0.015224 0.000000 0.096629
#
#
# Mechanical properties :
#
#
# Convention : Reuss Voigt Hill
#
# Bulk Modulus (GPa) = 44.82336 51.49535 48.15936
# Shear Modulus (GPa) = 19.86520 27.06202 23.46361
#
# Velocity S-wave (km/s) = 3.18256 3.71459 3.45882
# Velocity P-wave (km/s) = 6.02985 6.68233 6.36446
#
# Compressibility (1/GPa) = 0.02230979
#
# Stress axis : x y z
#
# Youngs Moduli (GPa) = 37.30739 89.71286 65.80641
#
# Poissons Ratio (x) = 0.58294 0.50612
# Poissons Ratio (y) = 0.24242 0.08093
# Poissons Ratio (z) = 0.28693 0.11033
#
# Static dielectric constant tensor:
#      x y z
#    x 1.717640 0.000000 0.007050 
#    y 0.000000 1.736530 0.000000 
#    z 0.007050 0.000000 1.741900 
# 
# From -- ./inp_files/201277.got.cif
#   From: 2010.05.17/outbox.cif.g08.bks.cpg/sg15_101_cif.got.tgz:201277.got - 2010.06.03 18:47:42.
