data_PCOD9290608
_publ_section_title
;
Structure prediction by ZEFSAII (Michael W. Deem and Ramdas Pophale) SiO2 
 PCOD9290608
Probable space group: C 2/C
;
_chemical_formula_sum "Si O2"
_cell_formula_units_Z 48
_cell_length_a 18.574837
_cell_length_b 5.000244
_cell_length_c 24.092217
_cell_angle_alpha 90.000000
_cell_angle_beta 72.254724
_cell_angle_gamma 90.000000
_cell_volume 2131.188710
_symmetry_space_group_name_H-M "C 2/C"
_symmetry_group_IT_number 15
_symmetry_cell_setting 'monoclinic'
loop_
_space_group_symop_operation_xyz
x,y,z
-x,y,1/2-z
-x,-y,-z
x,-y,1/2+z
1/2+x,1/2+y,z
1/2-x,1/2+y,1/2-z
1/2-x,1/2-y,-z
1/2+x,1/2-y,1/2+z
loop_
_atom_site_type_symbol
_atom_site_label
_atom_site_fract_x
_atom_site_fract_y
_atom_site_fract_z
Si Si1 0.404426 0.844479 0.435970
Si Si2 0.286422 0.931764 0.039512
Si Si3 0.498000 0.357398 0.440477
Si Si4 0.190717 0.283807 0.140720
Si Si5 0.651609 0.409142 0.882453
Si Si6 0.698558 0.179838 0.759817
O O1 0.443179 0.558928 0.420407
O O2 0.368382 0.925374 0.385709
O O3 0.334922 0.841790 0.496265
O O4 0.464216 0.062777 0.443378
O O5 0.346732 0.775261 0.063364
O O6 0.222744 0.037048 0.096742
O O7 0.250000 0.750000 0.000000
O O8 0.500000 0.500000 0.500000
O O9 0.583338 0.383826 0.399229
O O10 0.267444 0.448592 0.132461
O O11 0.161056 0.242946 0.209873
O O12 0.650859 0.242553 0.825781
O O13 0.771996 0.375928 0.745737
#
# Coordination Sequence:
#
# PCOD9290608 Si02
#       6
#     8   8   8   8   8   8
#     4  12  26  41  64  97 136 173 209 269 333 398
#     4  12  22  39  66 103 132 167 218 278 334 385
#     4  12  26  42  62  98 138 172 212 263 335 397
#     4  11  24  42  69  95 133 170 230 270 336 389
#     4  11  24  41  69  95 133 172 227 269 329 394
#     4  10  22  41  67  98 126 167 222 281 321 378
#
# _framework density 22.522642000000001
#
# number of rings (size 3 to 8) (size 9 to 14) (size 15 to 20)
#    0.000    0.667    5.000    3.000    2.333    0.000 
#    0.000    0.833    0.000    4.000    0.000    0.000 
#    0.000    0.000    0.000    0.000    0.000    0.000 
#
# Total GULP energy -134246.648383 kJ/mol
# GULP energy per Si atom -5593.610349 kJ/mol
# Density = 2.247138 g / cm^3
# Si number density = 22.522642 Si / 1000 Ang^3
#
#
#
# Elastic Constant Matrix: (Units=GPa)
#
#
# Indices 1 2 3 4 5 6 
#
# 1 80.9810 5.1273 25.1852 -0.0004 15.7577 0.0001
# 2 5.1273 64.5708 0.6986 -0.0117 7.4308 0.0031
# 3 25.1852 0.6986 126.9598 -0.0050 37.0687 -0.0025
# 4 -0.0004 -0.0117 -0.0050 32.2468 -0.0046 0.8178
# 5 15.7577 7.4308 37.0687 -0.0046 26.1710 -0.0048
# 6 0.0001 0.0031 -0.0025 0.8178 -0.0048 38.9151
#
#
#
# Elastic Compliance Matrix: (Units=1/GPa)
#
#
# Indices 1 2 3 4 5 6 
#
# 1 0.014012 -0.000236 -0.000571 -0.000001 -0.007562 -0.000001
# 2 -0.000236 0.016353 0.002167 0.000005 -0.007571 -0.000002
# 3 -0.000571 0.002167 0.013739 0.000000 -0.019732 -0.000002
# 4 -0.000001 0.000005 0.000000 0.031027 0.000004 -0.000652
# 5 -0.007562 -0.007571 -0.019732 0.000004 0.072861 0.000008
# 6 -0.000001 -0.000002 -0.000002 -0.000652 0.000008 0.025711
#
#
# Mechanical properties :
#
#
# Convention : Reuss Voigt Hill
#
# Bulk Modulus (GPa) = 21.35579 37.17044 29.26311
# Shear Modulus (GPa) = 26.79661 35.56663 31.18162
#
# Velocity S-wave (km/s) = 3.45304 3.97816 3.72487
# Velocity P-wave (km/s) = 5.03989 6.13518 5.61431
#
# Compressibility (1/GPa) = 0.04682571
#
# Stress axis : x y z
#
# Youngs Moduli (GPa) = 71.36558 61.14917 72.78630
#
# Poissons Ratio (x) = 0.01445 0.04153
# Poissons Ratio (y) = 0.01686 -0.15776
# Poissons Ratio (z) = 0.04072 -0.13253
#
# Static dielectric constant tensor:
#      x y z
#    x 1.862490 0.000000 0.033770 
#    y 0.000000 1.891850 -0.000010 
#    z 0.033770 -0.000010 1.932760 
# 
# From -- ./inp_files/275616.got.cif
#   From: 2010.05.17/outbox.cif.g08.bks.cpg/sg15_138_cif.got.tgz:275616.got - 2010.06.03 18:47:42.
