data_PCOD9290989
_publ_section_title
;
Structure prediction by ZEFSAII (Michael W. Deem and Ramdas Pophale) SiO2 
 PCOD9290989
Probable space group: C 2/C
;
_chemical_formula_sum "Si O2"
_cell_formula_units_Z 60
_cell_length_a 10.867326
_cell_length_b 9.447456
_cell_length_c 29.159536
_cell_angle_alpha 90.000000
_cell_angle_beta 94.085900
_cell_angle_gamma 90.000000
_cell_volume 2986.159159
_symmetry_space_group_name_H-M "C 2/C"
_symmetry_group_IT_number 15
_symmetry_cell_setting 'monoclinic'
loop_
_space_group_symop_operation_xyz
x,y,z
-x,y,1/2-z
-x,-y,-z
x,-y,1/2+z
1/2+x,1/2+y,z
1/2-x,1/2+y,1/2-z
1/2-x,1/2-y,-z
1/2+x,1/2-y,1/2+z
loop_
_atom_site_type_symbol
_atom_site_label
_atom_site_fract_x
_atom_site_fract_y
_atom_site_fract_z
Si Si1 0.323491 0.607345 0.207485
Si Si2 0.933985 0.846065 0.997726
Si Si3 0.832086 0.191911 0.860163
Si Si4 0.120018 0.167794 0.848339
Si Si5 0.806032 0.454399 0.699390
Si Si6 0.166842 0.697664 0.041193
Si Si7 0.000000 0.343184 0.250000
Si Si8 0.293076 0.869988 0.440224
O O1 0.218005 0.682673 0.173997
O O2 0.371226 0.468209 0.183861
O O3 0.270349 0.568163 0.255854
O O4 0.431079 0.719789 0.217636
O O5 0.891073 0.757416 0.951459
O O6 0.811006 0.862563 0.023502
O O7 0.029688 0.745323 0.025576
O O8 0.000000 0.000000 0.000000
O O9 0.791111 0.223862 0.911124
O O10 0.980381 0.183458 0.862591
O O11 0.772585 0.049494 0.838016
O O12 0.159264 0.305226 0.821184
O O13 0.219824 0.147865 0.891126
O O14 0.928173 0.536422 0.717754
O O15 0.160692 0.530762 0.052341
O O16 0.250000 0.750000 0.000000
#
# Coordination Sequence:
#
# PCOD9290989 Si02
#       8
#     8   8   8   8   8   8   4   8
#     4  11  23  44  67  97 134 176 224 277 346 407
#     4  11  24  45  71  96 136 176 230 282 343 415
#     4  11  25  43  67  99 139 176 230 282 344 414
#     4  12  24  42  70  98 137 176 227 280 343 409
#     4  11  25  42  67  99 132 176 224 280 339 410
#     4  12  24  46  70 100 140 185 228 292 351 409
#     4  10  22  42  62  94 130 170 216 268 330 404
#     4  11  25  43  68 102 133 183 227 283 351 412
#
# _framework density 20.092699
#
# number of rings (size 3 to 8) (size 9 to 14) (size 15 to 20)
#    0.000    0.800    4.000    3.600    1.867    1.600 
#    2.400    1.333    0.000    0.000    0.000    0.000 
#    0.000    0.000    0.000    0.000    0.000    0.000 
#
# Total GULP energy -167037.421362 kJ/mol
# GULP energy per Si atom -5567.914045 kJ/mol
# Density = 2.004697 g / cm^3
# Si number density = 20.092699 Si / 1000 Ang^3
#
#
#
# Elastic Constant Matrix: (Units=GPa)
#
#
# Indices 1 2 3 4 5 6 
#
# 1 58.5715 49.9327 31.2503 0.0000 26.6646 0.0000
# 2 49.9327 156.3478 71.2682 0.0000 9.2086 0.0000
# 3 31.2503 71.2682 117.3910 0.0000 20.2152 0.0000
# 4 0.0000 0.0000 0.0000 26.1682 0.0000 7.4107
# 5 26.6646 9.2086 20.2152 0.0000 32.6325 0.0000
# 6 0.0000 0.0000 0.0000 7.4107 0.0000 23.7744
#
#
#
# Elastic Compliance Matrix: (Units=1/GPa)
#
#
# Indices 1 2 3 4 5 6 
#
# 1 0.040096 -0.011805 0.001748 0.000000 -0.030515 0.000000
# 2 -0.011805 0.012344 -0.006059 0.000000 0.009916 0.000000
# 3 0.001748 -0.006059 0.013078 0.000000 -0.007820 0.000000
# 4 0.000000 0.000000 0.000000 0.041914 0.000000 -0.013065
# 5 -0.030515 0.009916 -0.007820 0.000000 0.057625 0.000000
# 6 0.000000 0.000000 0.000000 -0.013065 0.000000 0.046135
#
#
# Mechanical properties :
#
#
# Convention : Reuss Voigt Hill
#
# Bulk Modulus (GPa) = 30.04260 70.80143 50.42202
# Shear Modulus (GPa) = 19.64477 28.50561 24.07519
#
# Velocity S-wave (km/s) = 3.13022 3.77066 3.46527
# Velocity P-wave (km/s) = 5.29612 7.36689 6.41560
#
# Compressibility (1/GPa) = 0.03328606
#
# Stress axis : x y z
#
# Youngs Moduli (GPa) = 24.93987 81.01089 76.46164
#
# Poissons Ratio (x) = 0.95633 -0.13363
# Poissons Ratio (y) = 0.29441 0.46329
# Poissons Ratio (z) = -0.04359 0.49085
#
# Static dielectric constant tensor:
#      x y z
#    x 1.668410 0.000000 0.008510 
#    y 0.000000 1.681850 0.000000 
#    z 0.008510 0.000000 1.708640 
# 
# From -- ./inp_files/291580.got.cif
#   From: 2010.05.17/outbox.cif.g08.bks.cpg/sg15_146_cif.got.tgz:291580.got - 2010.06.03 18:47:42.
