data_PCOD9290798
_publ_section_title
;
Structure prediction by ZEFSAII (Michael W. Deem and Ramdas Pophale) SiO2 
 PCOD9290798
Probable space group: C 2/C
;
_chemical_formula_sum "Si O2"
_cell_formula_units_Z 48
_cell_length_a 26.435069
_cell_length_b 5.297618
_cell_length_c 23.504220
_cell_angle_alpha 90.000000
_cell_angle_beta 37.631238
_cell_angle_gamma 90.000000
_cell_volume 2009.774797
_symmetry_space_group_name_H-M "C 2/C"
_symmetry_group_IT_number 15
_symmetry_cell_setting 'monoclinic'
loop_
_space_group_symop_operation_xyz
x,y,z
-x,y,1/2-z
-x,-y,-z
x,-y,1/2+z
1/2+x,1/2+y,z
1/2-x,1/2+y,1/2-z
1/2-x,1/2-y,-z
1/2+x,1/2-y,1/2+z
loop_
_atom_site_type_symbol
_atom_site_label
_atom_site_fract_x
_atom_site_fract_y
_atom_site_fract_z
Si Si1 0.620331 0.377184 0.239130
Si Si2 0.693822 0.501499 0.552215
Si Si3 0.758246 0.524014 0.204537
Si Si4 0.937427 0.915310 0.929139
Si Si5 0.577811 0.253042 0.954500
Si Si6 0.549400 0.963418 0.366840
O O1 0.642398 0.453993 0.155787
O O2 0.691059 0.505785 0.214553
O O3 0.524839 0.455404 0.333871
O O4 0.616469 0.085964 0.265562
O O5 0.750000 0.750000 0.500000
O O6 0.631642 0.477960 0.554753
O O7 0.750000 0.250000 0.500000
O O8 0.761415 0.793606 0.233438
O O9 0.847764 0.442149 0.100860
O O10 0.969128 0.628126 0.903841
O O11 0.907623 0.009490 0.017769
O O12 0.575441 0.257427 0.887994
O O13 0.487042 0.164782 0.056036
#
# Coordination Sequence:
#
# PCOD9290798 Si02
#       6
#     8   8   8   8   8   8
#     4  11  26  47  74 112 150 200 263 312 390 463
#     4  12  31  53  78 113 150 208 262 330 391 464
#     4  12  26  42  71 110 154 199 246 319 387 457
#     4  11  25  46  77 105 153 204 255 324 383 473
#     4  10  22  41  70 112 152 195 253 305 398 454
#     4  10  22  43  74 110 147 200 249 320 381 474
#
# _framework density 23.883272999999999
#
# number of rings (size 3 to 8) (size 9 to 14) (size 15 to 20)
#    0.000    1.000    1.667    3.000   11.667    0.000 
#    0.000    0.000    0.000    0.000    0.000    0.000 
#    0.000    0.000    0.000    0.000    0.000    0.000 
#
# Total GULP energy -134016.406656 kJ/mol
# GULP energy per Si atom -5584.016944 kJ/mol
# Density = 2.382891 g / cm^3
# Si number density = 23.883273 Si / 1000 Ang^3
#
#
#
# Elastic Constant Matrix: (Units=GPa)
#
#
# Indices 1 2 3 4 5 6 
#
# 1 182.7330 45.8760 27.3793 -0.1919 -3.4028 0.0257
# 2 45.8760 102.9795 57.4594 -0.1737 15.8760 -0.0245
# 3 27.3793 57.4594 128.1046 -0.1237 4.1927 0.1112
# 4 -0.1919 -0.1737 -0.1237 44.2886 0.0269 -12.4324
# 5 -3.4028 15.8760 4.1927 0.0269 35.3040 -0.1061
# 6 0.0257 -0.0245 0.1112 -12.4324 -0.1061 33.5805
#
#
#
# Elastic Compliance Matrix: (Units=1/GPa)
#
#
# Indices 1 2 3 4 5 6 
#
# 1 0.006291 -0.003101 -0.000019 0.000015 0.002003 0.000005
# 2 -0.003101 0.015487 -0.006070 0.000042 -0.006543 0.000029
# 3 -0.000019 -0.006070 0.010484 -0.000006 0.001482 -0.000037
# 4 0.000015 0.000042 -0.000006 0.025198 -0.000008 0.009329
# 5 0.002003 -0.006543 0.001482 -0.000008 0.031285 0.000085
# 6 0.000005 0.000029 -0.000037 0.009329 0.000085 0.033234
#
#
# Mechanical properties :
#
#
# Convention : Reuss Voigt Hill
#
# Bulk Modulus (GPa) = 72.02925 75.02738 73.52831
# Shear Modulus (GPa) = 34.48593 41.50810 37.99702
#
# Velocity S-wave (km/s) = 3.80404 4.17340 3.99299
# Velocity P-wave (km/s) = 7.03695 7.39631 7.21887
#
# Compressibility (1/GPa) = 0.01388325
#
# Stress axis : x y z
#
# Youngs Moduli (GPa) = 158.95492 64.56857 95.38062
#
# Poissons Ratio (x) = 0.20020 0.00185
# Poissons Ratio (y) = 0.49284 0.57894
# Poissons Ratio (z) = 0.00309 0.39192
#
# Static dielectric constant tensor:
#      x y z
#    x 1.904350 -0.000260 -0.019030 
#    y -0.000260 2.089180 0.000200 
#    z -0.019030 0.000200 1.946470 
# 
# From -- ./inp_files/254219.got.cif
#   From: 2010.05.17/outbox.cif.g08.bks.cpg/sg15_128_cif.got.tgz:254219.got - 2010.06.03 18:47:42.
