data_PCOD9290217
_publ_section_title
;
Structure prediction by ZEFSAII (Michael W. Deem and Ramdas Pophale) SiO2 
 PCOD9290217
Probable space group: C 2/C
;
_chemical_formula_sum "Si O2"
_cell_formula_units_Z 40
_cell_length_a 8.138178
_cell_length_b 23.135793
_cell_length_c 15.153173
_cell_angle_alpha 90.000000
_cell_angle_beta 42.140507
_cell_angle_gamma 90.000000
_cell_volume 1914.282237
_symmetry_space_group_name_H-M "C 2/C"
_symmetry_group_IT_number 15
_symmetry_cell_setting 'monoclinic'
loop_
_space_group_symop_operation_xyz
x,y,z
-x,y,1/2-z
-x,-y,-z
x,-y,1/2+z
1/2+x,1/2+y,z
1/2-x,1/2+y,1/2-z
1/2-x,1/2-y,-z
1/2+x,1/2-y,1/2+z
loop_
_atom_site_type_symbol
_atom_site_label
_atom_site_fract_x
_atom_site_fract_y
_atom_site_fract_z
Si Si1 0.473633 0.769107 0.585730
Si Si2 0.023064 0.851138 0.492010
Si Si3 0.500000 0.468141 0.750000
Si Si4 0.837920 0.920108 0.235476
Si Si5 0.148755 0.617574 0.477717
Si Si6 0.000000 0.679903 0.250000
O O1 0.380225 0.712775 0.572916
O O2 0.444370 0.826073 0.538121
O O3 0.371165 0.782703 0.724003
O O4 0.750000 0.750000 0.500000
O O5 0.111981 0.891955 0.377877
O O6 0.136192 0.866141 0.540626
O O7 0.726577 0.853640 0.616399
O O8 0.575367 0.513246 0.796771
O O9 0.731212 0.428722 0.635566
O O10 0.564823 0.910845 0.379015
O O11 0.000000 0.891665 0.250000
#
# Coordination Sequence:
#
# PCOD9290217 Si02
#       6
#     8   8   4   8   8   4
#     4  10  23  40  69  99 144 181 223 286 356 430
#     4  11  24  41  70 106 140 187 228 298 351 421
#     4  10  26  45  76  94 138 193 240 296 336 418
#     4  10  24  44  69  97 140 185 236 287 353 405
#     4  12  23  46  69 105 138 181 242 287 354 416
#     4  10  22  41  64 100 140 187 228 272 354 420
#
# _framework density 20.89556
#
# number of rings (size 3 to 8) (size 9 to 14) (size 15 to 20)
#    0.600    0.800    0.000    5.400    7.000    0.800 
#    7.200    0.000    0.000    0.000    0.000    0.000 
#    0.000    0.000    0.000    0.000    0.000    0.000 
#
# Total GULP energy -111587.494573 kJ/mol
# GULP energy per Si atom -5579.374729 kJ/mol
# Density = 2.084800 g / cm^3
# Si number density = 20.895560 Si / 1000 Ang^3
#
#
#
# Elastic Constant Matrix: (Units=GPa)
#
#
# Indices 1 2 3 4 5 6 
#
# 1 69.8176 24.7472 8.2180 0.0000 5.3392 0.0000
# 2 24.7472 129.7841 43.7564 0.0000 0.3487 0.0000
# 3 8.2180 43.7564 113.5478 0.0000 -8.4074 0.0000
# 4 0.0000 0.0000 0.0000 30.8637 0.0000 15.2985
# 5 5.3392 0.3487 -8.4074 0.0000 35.4122 0.0000
# 6 0.0000 0.0000 0.0000 15.2985 0.0000 38.0914
#
#
#
# Elastic Compliance Matrix: (Units=1/GPa)
#
#
# Indices 1 2 3 4 5 6 
#
# 1 0.015552 -0.002897 -0.000184 0.000000 -0.002360 0.000000
# 2 -0.002897 0.009424 -0.003457 0.000000 -0.000477 0.000000
# 3 -0.000184 -0.003457 0.010339 0.000000 0.002516 0.000000
# 4 0.000000 0.000000 0.000000 0.040454 0.000000 -0.016247
# 5 -0.002360 -0.000477 0.002516 0.000000 0.029197 0.000000
# 6 0.000000 0.000000 0.000000 -0.016247 0.000000 0.032778
#
#
# Mechanical properties :
#
#
# Convention : Reuss Voigt Hill
#
# Bulk Modulus (GPa) = 44.96703 51.84362 48.40533
# Shear Modulus (GPa) = 31.59881 36.63532 34.11707
#
# Velocity S-wave (km/s) = 3.89295 4.19174 4.04510
# Velocity P-wave (km/s) = 6.46323 6.94926 6.71065
#
# Compressibility (1/GPa) = 0.02223851
#
# Stress axis : x y z
#
# Youngs Moduli (GPa) = 64.30013 106.10677 96.72274
#
# Poissons Ratio (x) = 0.30741 0.01779
# Poissons Ratio (y) = 0.18629 0.33441
# Poissons Ratio (z) = 0.01182 0.36685
#
# Static dielectric constant tensor:
#      x y z
#    x 1.776580 0.000000 -0.022480 
#    y 0.000000 1.781390 0.000000 
#    z -0.022480 0.000000 1.782410 
# 
# From -- ./inp_files/137129.got.cif
#   From: 2010.05.17/outbox.cif.g08.bks.cpg/sg15_69_cif.got.tgz:137129.got - 2010.06.03 18:47:42.
