data_PCOD9290471
_publ_section_title
;
Structure prediction by ZEFSAII (Michael W. Deem and Ramdas Pophale) SiO2 
 PCOD9290471
Probable space group: C 2/C
;
_chemical_formula_sum "Si O2"
_cell_formula_units_Z 36
_cell_length_a 22.132207
_cell_length_b 17.014753
_cell_length_c 10.544042
_cell_angle_alpha 90.000000
_cell_angle_beta 151.798025
_cell_angle_gamma 90.000000
_cell_volume 1876.436569
_symmetry_space_group_name_H-M "C 2/C"
_symmetry_group_IT_number 15
_symmetry_cell_setting 'monoclinic'
loop_
_space_group_symop_operation_xyz
x,y,z
-x,y,1/2-z
-x,-y,-z
x,-y,1/2+z
1/2+x,1/2+y,z
1/2-x,1/2+y,1/2-z
1/2-x,1/2-y,-z
1/2+x,1/2-y,1/2+z
loop_
_atom_site_type_symbol
_atom_site_label
_atom_site_fract_x
_atom_site_fract_y
_atom_site_fract_z
Si Si1 0.823516 0.948592 0.092658
Si Si2 0.000000 0.239094 0.250000
Si Si3 0.417140 0.378879 0.814419
Si Si4 0.211791 0.364308 0.639798
Si Si5 0.921688 0.486894 0.724893
O O1 0.952978 0.908651 0.379306
O O2 0.852516 0.042114 0.135922
O O3 0.776727 0.909768 0.876500
O O4 0.707371 0.940751 0.977844
O O5 0.047567 0.184113 0.225042
O O6 0.119988 0.293734 0.510418
O O7 0.321728 0.343367 0.742603
O O8 0.123494 0.427866 0.405697
O O9 0.000000 0.452622 0.750000
O O10 0.000000 0.500000 0.000000
#
# Coordination Sequence:
#
# PCOD9290471 Si02
#       5
#     8   4   8   8   8
#     4  10  22  41  66  93 126 172 224 268 322 390
#     4  12  24  40  62  98 130 174 212 278 336 396
#     4  10  25  38  66  93 128 167 224 267 326 398
#     4  11  22  42  63  89 137 170 211 276 337 382
#     4  11  20  36  62  95 129 171 215 266 320 384
#
# _framework density 19.185300000000002
#
# number of rings (size 3 to 8) (size 9 to 14) (size 15 to 20)
#    0.000    1.333    3.333    1.333    9.333    0.889 
#    0.000    2.222    0.000    0.000    0.000    0.000 
#    0.000    0.000    0.000    0.000    0.000    0.000 
#
# Total GULP energy -100523.229222 kJ/mol
# GULP energy per Si atom -5584.623846 kJ/mol
# Density = 1.914163 g / cm^3
# Si number density = 19.185300 Si / 1000 Ang^3
#
#
#
# Elastic Constant Matrix: (Units=GPa)
#
#
# Indices 1 2 3 4 5 6 
#
# 1 187.5079 51.0534 60.8605 0.0000 14.1307 0.0000
# 2 51.0534 70.9582 49.4781 0.0000 -5.2295 0.0000
# 3 60.8605 49.4781 113.7609 0.0000 -2.8838 0.0000
# 4 0.0000 0.0000 0.0000 11.5594 0.0000 -6.2819
# 5 14.1307 -5.2295 -2.8838 0.0000 37.9742 0.0000
# 6 0.0000 0.0000 0.0000 -6.2819 0.0000 8.5221
#
#
#
# Elastic Compliance Matrix: (Units=1/GPa)
#
#
# Indices 1 2 3 4 5 6 
#
# 1 0.007439 -0.003980 -0.002337 0.000000 -0.003494 0.000000
# 2 -0.003980 0.022528 -0.007568 0.000000 0.004009 0.000000
# 3 -0.002337 -0.007568 0.013353 0.000000 0.000842 0.000000
# 4 0.000000 0.000000 0.000000 0.144325 0.000000 0.106386
# 5 -0.003494 0.004009 0.000842 0.000000 0.028250 0.000000
# 6 0.000000 0.000000 0.000000 0.106386 0.000000 0.195762
#
#
# Mechanical properties :
#
#
# Convention : Reuss Voigt Hill
#
# Bulk Modulus (GPa) = 64.30286 77.22344 70.76315
# Shear Modulus (GPa) = 11.24582 25.66681 18.45632
#
# Velocity S-wave (km/s) = 2.42372 3.66161 3.10498
# Velocity P-wave (km/s) = 6.43600 7.62990 7.05823
#
# Compressibility (1/GPa) = 0.01555141
#
# Stress axis : x y z
#
# Youngs Moduli (GPa) = 134.43499 44.38860 74.88724
#
# Poissons Ratio (x) = 0.17665 0.17502
# Poissons Ratio (y) = 0.53501 0.56671
# Poissons Ratio (z) = 0.31420 0.33591
#
# Static dielectric constant tensor:
#      x y z
#    x 1.711600 0.000000 0.028870 
#    y 0.000000 1.647930 0.000000 
#    z 0.028870 0.000000 1.661010 
# 
# From -- ./inp_files/28795.got.cif
#   From: 2010.05.17/outbox.cif.g08.bks.cpg/sg15_15_cif.got.tgz:28795.got - 2010.06.03 18:47:42.
