data_PCOD9290119
_publ_section_title
;
Structure prediction by ZEFSAII (Michael W. Deem and Ramdas Pophale) SiO2 
 PCOD9290119
Probable space group: C 2/C
;
_chemical_formula_sum "Si O2"
_cell_formula_units_Z 56
_cell_length_a 27.616782
_cell_length_b 16.314267
_cell_length_c 9.558907
_cell_angle_alpha 90.000000
_cell_angle_beta 141.277561
_cell_angle_gamma 90.000000
_cell_volume 2694.075041
_symmetry_space_group_name_H-M "C 2/C"
_symmetry_group_IT_number 15
_symmetry_cell_setting 'monoclinic'
loop_
_space_group_symop_operation_xyz
x,y,z
-x,y,1/2-z
-x,-y,-z
x,-y,1/2+z
1/2+x,1/2+y,z
1/2-x,1/2+y,1/2-z
1/2-x,1/2-y,-z
1/2+x,1/2-y,1/2+z
loop_
_atom_site_type_symbol
_atom_site_label
_atom_site_fract_x
_atom_site_fract_y
_atom_site_fract_z
Si Si1 0.310331 0.897794 0.605370
Si Si2 0.135154 0.868248 0.157402
Si Si3 0.426405 0.239535 0.281384
Si Si4 0.553725 0.462688 0.501001
Si Si5 0.840794 0.837683 0.598886
Si Si6 0.101283 0.296535 0.097452
Si Si7 0.313021 0.946638 0.297673
O O1 0.224270 0.860086 0.404734
O O2 0.375473 0.827867 0.749529
O O3 0.320213 0.945978 0.480867
O O4 0.312062 0.963237 0.732889
O O5 0.083888 0.823585 0.158060
O O6 0.111526 0.963377 0.089378
O O7 0.126405 0.830032 0.984105
O O8 0.515780 0.216061 0.465817
O O9 0.394212 0.240967 0.049674
O O10 0.500000 0.500000 0.500000
O O11 0.601599 0.388651 0.672597
O O12 0.500000 0.438884 0.250000
O O13 0.838504 0.749253 0.665836
O O14 0.763992 0.893065 0.410622
O O15 0.119258 0.391919 0.116524
#
# Coordination Sequence:
#
# PCOD9290119 Si02
#       7
#     8   8   8   8   8   8   8
#     4  10  22  41  63  89 120 160 203 250 299 354
#     4  11  23  40  60  89 123 157 203 245 298 364
#     4  10  23  40  62  89 122 160 201 250 302 349
#     4  12  24  36  56  90 123 156 193 241 295 360
#     4  11  23  39  61  89 121 158 201 244 300 362
#     4  10  23  40  61  89 122 160 201 249 301 354
#     4  10  22  41  62  89 121 158 204 249 298 357
#
# _framework density 20.786355
#
# number of rings (size 3 to 8) (size 9 to 14) (size 15 to 20)
#    0.000    1.429    2.857    1.714    4.000    2.857 
#    0.000    0.000    0.000    0.000    0.000    0.000 
#    0.000    0.000    0.000    0.000    0.000    0.000 
#
# Total GULP energy -156550.677656 kJ/mol
# GULP energy per Si atom -5591.095631 kJ/mol
# Density = 2.073904 g / cm^3
# Si number density = 20.786355 Si / 1000 Ang^3
#
#
#
# Elastic Constant Matrix: (Units=GPa)
#
#
# Indices 1 2 3 4 5 6 
#
# 1 64.9193 1.2259 7.6849 0.0000 8.2635 0.0000
# 2 1.2259 26.7831 8.4903 0.0000 -5.6826 0.0000
# 3 7.6849 8.4903 48.5954 0.0000 -4.7350 0.0000
# 4 0.0000 0.0000 0.0000 16.3770 0.0000 -1.0155
# 5 8.2635 -5.6826 -4.7350 0.0000 25.4770 0.0000
# 6 0.0000 0.0000 0.0000 -1.0155 0.0000 40.8091
#
#
#
# Elastic Compliance Matrix: (Units=1/GPa)
#
#
# Indices 1 2 3 4 5 6 
#
# 1 0.016571 -0.001111 -0.003029 0.000000 -0.006185 0.000000
# 2 -0.001111 0.041130 -0.006193 0.000000 0.008383 0.000000
# 3 -0.003029 -0.006193 0.022508 0.000000 0.003784 0.000000
# 4 0.000000 0.000000 0.000000 0.061156 0.000000 0.001522
# 5 -0.006185 0.008383 0.003784 0.000000 0.043831 0.000000
# 6 0.000000 0.000000 0.000000 0.001522 0.000000 0.024542
#
#
# Mechanical properties :
#
#
# Convention : Reuss Voigt Hill
#
# Bulk Modulus (GPa) = 16.79490 19.45555 18.12522
# Shear Modulus (GPa) = 19.98001 24.72574 22.35287
#
# Velocity S-wave (km/s) = 3.10370 3.45268 3.28283
# Velocity P-wave (km/s) = 4.57616 5.02740 4.80708
#
# Compressibility (1/GPa) = 0.05954190
#
# Stress axis : x y z
#
# Youngs Moduli (GPa) = 60.34776 24.31333 44.42883
#
# Poissons Ratio (x) = 0.02700 0.13458
# Poissons Ratio (y) = 0.06702 0.27517
# Poissons Ratio (z) = 0.18280 0.15058
#
# Static dielectric constant tensor:
#      x y z
#    x 1.737190 0.000000 0.022760 
#    y 0.000000 1.734870 0.000000 
#    z 0.022760 0.000000 1.737230 
# 
# From -- ./inp_files/67216.got.cif
#   From: 2010.05.17/outbox.cif.g08.bks.cpg/sg15_34_cif.got.tgz:67216.got - 2010.06.03 18:47:42.
