data_PCOD9290668
_publ_section_title
;
Structure prediction by ZEFSAII (Michael W. Deem and Ramdas Pophale) SiO2 
 PCOD9290668
Probable space group: C 2/C
;
_chemical_formula_sum "Si O2"
_cell_formula_units_Z 40
_cell_length_a 18.527513
_cell_length_b 11.899010
_cell_length_c 16.750975
_cell_angle_alpha 90.000000
_cell_angle_beta 30.569862
_cell_angle_gamma 90.000000
_cell_volume 1878.168958
_symmetry_space_group_name_H-M "C 2/C"
_symmetry_group_IT_number 15
_symmetry_cell_setting 'monoclinic'
loop_
_space_group_symop_operation_xyz
x,y,z
-x,y,1/2-z
-x,-y,-z
x,-y,1/2+z
1/2+x,1/2+y,z
1/2-x,1/2+y,1/2-z
1/2-x,1/2-y,-z
1/2+x,1/2-y,1/2+z
loop_
_atom_site_type_symbol
_atom_site_label
_atom_site_fract_x
_atom_site_fract_y
_atom_site_fract_z
Si Si1 0.260013 0.507305 0.108262
Si Si2 0.469898 0.070013 0.447640
Si Si3 0.152400 0.404803 0.059110
Si Si4 0.326935 0.273309 0.092832
Si Si5 0.389522 0.689557 0.084420
O O1 0.264236 0.458734 0.014569
O O2 0.243891 0.390643 0.171578
O O3 0.381433 0.584445 0.031770
O O4 0.115268 0.575675 0.258257
O O5 0.409063 0.193138 0.520168
O O6 0.500000 0.000000 0.500000
O O7 0.366843 0.995081 0.492478
O O8 0.000000 0.392060 0.250000
O O9 0.181860 0.289477 0.983489
O O10 0.255197 0.194751 0.227179
O O11 0.484134 0.307002 0.971020
#
# Coordination Sequence:
#
# PCOD9290668 Si02
#       5
#     8   8   8   8   8
#     4  11  23  39  62 100 130 167 217 277 323 377
#     4  11  19  41  66  90 125 181 217 255 326 403
#     4  10  22  41  68  95 132 172 212 265 333 395
#     4  12  23  41  69  96 132 170 222 267 322 393
#     4  12  23  40  70  95 128 172 223 268 317 390
#
# _framework density 21.297338
#
# number of rings (size 3 to 8) (size 9 to 14) (size 15 to 20)
#    0.000    0.800    6.000    2.400    0.000    0.800 
#    0.000    0.000    0.000    0.000    0.000    0.000 
#    0.000    0.000    0.000    0.000    0.000    0.000 
#
# Total GULP energy -111614.375386 kJ/mol
# GULP energy per Si atom -5580.718769 kJ/mol
# Density = 2.124886 g / cm^3
# Si number density = 21.297338 Si / 1000 Ang^3
#
#
#
# Elastic Constant Matrix: (Units=GPa)
#
#
# Indices 1 2 3 4 5 6 
#
# 1 121.5956 56.9703 14.9414 0.0000 19.6563 0.0000
# 2 56.9703 120.9255 41.8347 0.0000 31.2940 0.0000
# 3 14.9414 41.8347 41.0137 0.0000 8.9563 0.0000
# 4 0.0000 0.0000 0.0000 30.1511 0.0000 5.1785
# 5 19.6563 31.2940 8.9563 0.0000 21.0956 0.0000
# 6 0.0000 0.0000 0.0000 5.1785 0.0000 45.5730
#
#
#
# Elastic Compliance Matrix: (Units=1/GPa)
#
#
# Indices 1 2 3 4 5 6 
#
# 1 0.010838 -0.004688 0.001675 0.000000 -0.003856 0.000000
# 2 -0.004688 0.021039 -0.015310 0.000000 -0.020342 0.000000
# 3 0.001675 -0.015310 0.038323 0.000000 0.004880 0.000000
# 4 0.000000 0.000000 0.000000 0.033826 0.000000 -0.003844
# 5 -0.003856 -0.020342 0.004880 0.000000 0.079100 0.000000
# 6 0.000000 0.000000 0.000000 -0.003844 0.000000 0.022380
#
#
# Mechanical properties :
#
#
# Convention : Reuss Voigt Hill
#
# Bulk Modulus (GPa) = 29.80253 56.78083 43.29168
# Shear Modulus (GPa) = 19.73678 30.68317 25.20997
#
# Velocity S-wave (km/s) = 3.04752 3.79978 3.44425
# Velocity P-wave (km/s) = 5.13878 6.78012 6.01569
#
# Compressibility (1/GPa) = 0.03355420
#
# Stress axis : x y z
#
# Youngs Moduli (GPa) = 92.27092 47.53143 26.09423
#
# Poissons Ratio (x) = 0.22281 -0.04371
# Poissons Ratio (y) = 0.43252 0.39950
# Poissons Ratio (z) = -0.15457 0.72771
#
# Static dielectric constant tensor:
#      x y z
#    x 1.863940 0.000000 -0.005940 
#    y 0.000000 1.769290 0.000000 
#    z -0.005940 0.000000 1.757890 
# 
# From -- ./inp_files/110745.got.cif
#   From: 2010.05.17/outbox.cif.g08.bks.cpg/sg15_56_cif.got.tgz:110745.got - 2010.06.03 18:47:42.
