data_PCOD9290243
_publ_section_title
;
Structure prediction by ZEFSAII (Michael W. Deem and Ramdas Pophale) SiO2 
 PCOD9290243
Probable space group: C 2/C
;
_chemical_formula_sum "Si O2"
_cell_formula_units_Z 48
_cell_length_a 12.593008
_cell_length_b 12.678904
_cell_length_c 20.211616
_cell_angle_alpha 90.000000
_cell_angle_beta 51.200772
_cell_angle_gamma 90.000000
_cell_volume 2515.027680
_symmetry_space_group_name_H-M "C 2/C"
_symmetry_group_IT_number 15
_symmetry_cell_setting 'monoclinic'
loop_
_space_group_symop_operation_xyz
x,y,z
-x,y,1/2-z
-x,-y,-z
x,-y,1/2+z
1/2+x,1/2+y,z
1/2-x,1/2+y,1/2-z
1/2-x,1/2-y,-z
1/2+x,1/2-y,1/2+z
loop_
_atom_site_type_symbol
_atom_site_label
_atom_site_fract_x
_atom_site_fract_y
_atom_site_fract_z
Si Si1 0.503372 0.505781 0.419485
Si Si2 0.000000 0.326252 0.250000
Si Si3 0.089170 0.578236 0.920586
Si Si4 0.500000 0.181788 0.250000
Si Si5 0.316548 0.998178 0.756752
Si Si6 0.327239 0.324368 0.417439
Si Si7 0.408822 0.739025 0.422967
O O1 0.500000 0.500000 0.500000
O O2 0.656766 0.500515 0.332288
O O3 0.412383 0.413879 0.422636
O O4 0.448462 0.620535 0.423419
O O5 0.117995 0.403021 0.230343
O O6 0.057023 0.260606 0.166831
O O7 0.144768 0.515809 0.834775
O O8 0.214281 0.622596 0.914411
O O9 0.996370 0.675339 0.930422
O O10 0.000000 0.500000 0.000000
O O11 0.610924 0.105845 0.241999
O O12 0.426233 0.253792 0.333284
O O13 0.250000 0.250000 0.500000
O O14 0.250000 0.750000 0.500000
#
# Coordination Sequence:
#
# PCOD9290243 Si02
#       7
#     8   4   8   4   8   8   8
#     4  12  25  41  63  90 123 162 208 259 312 375
#     4   9  22  41  62  88 122 159 200 247 304 366
#     4  11  23  41  64  93 127 166 210 260 316 377
#     4  11  22  41  66  94 126 163 206 259 316 380
#     4  10  22  41  64  91 124 161 203 253 310 373
#     4  12  25  42  63  92 126 166 212 262 318 380
#     4  11  23  40  64  92 124 163 206 256 310 370
#
# _framework density 19.085277000000001
#
# number of rings (size 3 to 8) (size 9 to 14) (size 15 to 20)
#    0.000    1.000    0.000    7.000    0.000    7.333 
#    0.000    0.000    0.000    0.000    0.000    0.000 
#    0.000    0.000    0.000    0.000    0.000    0.000 
#
# Total GULP energy -134290.964661 kJ/mol
# GULP energy per Si atom -5595.456861 kJ/mol
# Density = 1.904184 g / cm^3
# Si number density = 19.085277 Si / 1000 Ang^3
#
#
#
# Elastic Constant Matrix: (Units=GPa)
#
#
# Indices 1 2 3 4 5 6 
#
# 1 161.9927 91.9591 112.1577 0.0000 -0.1054 0.0000
# 2 91.9591 167.0576 130.3901 0.0000 9.6685 0.0000
# 3 112.1577 130.3901 201.2508 0.0000 0.9487 0.0000
# 4 0.0000 0.0000 0.0000 34.8653 0.0000 6.2643
# 5 -0.1054 9.6685 0.9487 0.0000 45.1103 0.0000
# 6 0.0000 0.0000 0.0000 6.2643 0.0000 21.6594
#
#
#
# Elastic Compliance Matrix: (Units=1/GPa)
#
#
# Indices 1 2 3 4 5 6 
#
# 1 0.010548 -0.002536 -0.004238 0.000000 0.000657 0.000000
# 2 -0.002536 0.012992 -0.006992 0.000000 -0.002644 0.000000
# 3 -0.004238 -0.006992 0.011855 0.000000 0.001239 0.000000
# 4 0.000000 0.000000 0.000000 0.030254 0.000000 -0.008750
# 5 0.000657 -0.002644 0.001239 0.000000 0.022710 0.000000
# 6 0.000000 0.000000 0.000000 -0.008750 0.000000 0.048700
#
#
# Mechanical properties :
#
#
# Convention : Reuss Voigt Hill
#
# Bulk Modulus (GPa) = 127.18418 133.25722 130.22070
# Shear Modulus (GPa) = 29.90230 33.37995 31.64112
#
# Velocity S-wave (km/s) = 3.96254 4.18663 4.07613
# Velocity P-wave (km/s) = 9.36591 9.66147 9.51484
#
# Compressibility (1/GPa) = 0.00786261
#
# Stress axis : x y z
#
# Youngs Moduli (GPa) = 94.80838 76.96964 84.35357
#
# Poissons Ratio (x) = 0.19521 0.35750
# Poissons Ratio (y) = 0.24046 0.58977
# Poissons Ratio (z) = 0.40180 0.53815
#
# Static dielectric constant tensor:
#      x y z
#    x 1.673620 0.000000 0.024430 
#    y 0.000000 1.647440 0.000000 
#    z 0.024430 0.000000 1.568530 
# 
# From -- ./inp_files/237454.got.cif
#   From: 2010.05.17/outbox.cif.g08.bks.cpg/sg15_119_cif.got.tgz:237454.got - 2010.06.03 18:47:42.
