data_PCOD9290321
_publ_section_title
;
Structure prediction by ZEFSAII (Michael W. Deem and Ramdas Pophale) SiO2 
 PCOD9290321
Probable space group: C 2/C
;
_chemical_formula_sum "Si O2"
_cell_formula_units_Z 40
_cell_length_a 34.688522
_cell_length_b 9.911979
_cell_length_c 9.481547
_cell_angle_alpha 90.000000
_cell_angle_beta 38.636981
_cell_angle_gamma 90.000000
_cell_volume 2035.527910
_symmetry_space_group_name_H-M "C 2/C"
_symmetry_group_IT_number 15
_symmetry_cell_setting 'monoclinic'
loop_
_space_group_symop_operation_xyz
x,y,z
-x,y,1/2-z
-x,-y,-z
x,-y,1/2+z
1/2+x,1/2+y,z
1/2-x,1/2+y,1/2-z
1/2-x,1/2-y,-z
1/2+x,1/2-y,1/2+z
loop_
_atom_site_type_symbol
_atom_site_label
_atom_site_fract_x
_atom_site_fract_y
_atom_site_fract_z
Si Si1 0.788674 0.136167 0.623719
Si Si2 0.848625 0.050788 0.157090
Si Si3 0.044018 0.510393 0.742235
Si Si4 0.118757 0.757263 0.434517
Si Si5 0.146904 0.694515 0.030132
O O1 0.824629 0.097676 0.377950
O O2 0.826007 0.248679 0.607164
O O3 0.792764 0.009544 0.720344
O O4 0.718996 0.174766 0.791864
O O5 0.892379 0.918917 0.042715
O O6 0.875218 0.173586 0.991639
O O7 0.064228 0.661266 0.641532
O O8 0.106268 0.429096 0.592638
O O9 0.000000 0.448627 0.750000
O O10 0.000000 0.500000 0.000000
O O11 0.139203 0.712279 0.220182
#
# Coordination Sequence:
#
# PCOD9290321 Si02
#       5
#     8   8   8   8   8
#     4  10  23  36  71 103 139 170 219 278 355 395
#     4  10  22  41  65 105 134 169 225 272 350 406
#     4  12  28  46  67  96 135 186 234 273 338 398
#     4  10  23  44  67  92 141 171 229 281 333 411
#     4  12  24  42  70  97 141 179 225 286 333 410
#
# _framework density 19.650922000000001
#
# number of rings (size 3 to 8) (size 9 to 14) (size 15 to 20)
#    1.200    0.000    4.000    1.200    8.400    0.000 
#    0.000    2.000    0.000    0.000    0.000    0.000 
#    0.000    0.000    0.000    0.000    0.000    0.000 
#
# Total GULP energy -111461.083814 kJ/mol
# GULP energy per Si atom -5573.054191 kJ/mol
# Density = 1.960620 g / cm^3
# Si number density = 19.650922 Si / 1000 Ang^3
#
#
#
# Elastic Constant Matrix: (Units=GPa)
#
#
# Indices 1 2 3 4 5 6 
#
# 1 90.8643 28.4565 27.3745 0.0000 5.4283 0.0000
# 2 28.4565 106.3572 47.6517 0.0000 0.6178 0.0000
# 3 27.3745 47.6517 79.9248 0.0000 9.2901 0.0000
# 4 0.0000 0.0000 0.0000 -0.0374 0.0000 -12.1455
# 5 5.4283 0.6178 9.2901 0.0000 34.9287 0.0000
# 6 0.0000 0.0000 0.0000 -12.1455 0.0000 16.7326
#
#
#
# Elastic Compliance Matrix: (Units=1/GPa)
#
#
# Indices 1 2 3 4 5 6 
#
# 1 0.012606 -0.002034 -0.002973 0.000000 -0.001132 0.000000
# 2 -0.002034 0.013276 -0.007459 0.000000 0.002065 0.000000
# 3 -0.002973 -0.007459 0.018479 0.000000 -0.004321 0.000000
# 4 0.000000 0.000000 0.000000 -0.112952 0.000000 -0.081987
# 5 -0.001132 0.002065 -0.004321 0.000000 0.029919 0.000000
# 6 0.000000 0.000000 0.000000 -0.081987 0.000000 0.000252
#
#
# Mechanical properties :
#
#
# Convention : Reuss Voigt Hill
#
# Bulk Modulus (GPa) = 51.46857 53.79020 52.62938
# Shear Modulus (GPa) = -713.17877 21.90235 -345.63821
#
# Velocity S-wave (km/s) = -19.07123 3.34214 -13.27671
# Velocity P-wave (km/s) = 21.41730 6.50580 14.42871
#
# Compressibility (1/GPa) = 0.01942933
#
# Stress axis : x y z
#
# Youngs Moduli (GPa) = 79.32846 75.32215 54.11457
#
# Poissons Ratio (x) = 0.15321 0.16089
# Poissons Ratio (y) = 0.16136 0.40363
# Poissons Ratio (z) = 0.23586 0.56181
#
# Static dielectric constant tensor:
#      x y z
#    x 1.702130 0.000000 -0.020790 
#    y 0.000000 1.734310 0.000000 
#    z -0.020790 0.000000 1.654000 
# 
# From -- ./inp_files/68949.got.cif
#   From: 2010.05.17/outbox.cif.g08.bks.cpg/sg15_35_cif.got.tgz:68949.got - 2010.06.03 18:47:42.
