data_PCOD9290894
_publ_section_title
;
Structure prediction by ZEFSAII (Michael W. Deem and Ramdas Pophale) SiO2 
 PCOD9290894
Probable space group: C 2/C
;
_chemical_formula_sum "Si O2"
_cell_formula_units_Z 36
_cell_length_a 20.270193
_cell_length_b 5.693442
_cell_length_c 14.000021
_cell_angle_alpha 90.000000
_cell_angle_beta 122.239250
_cell_angle_gamma 90.000000
_cell_volume 1366.606528
_symmetry_space_group_name_H-M "C 2/C"
_symmetry_group_IT_number 15
_symmetry_cell_setting 'monoclinic'
loop_
_space_group_symop_operation_xyz
x,y,z
-x,y,1/2-z
-x,-y,-z
x,-y,1/2+z
1/2+x,1/2+y,z
1/2-x,1/2+y,1/2-z
1/2-x,1/2-y,-z
1/2+x,1/2-y,1/2+z
loop_
_atom_site_type_symbol
_atom_site_label
_atom_site_fract_x
_atom_site_fract_y
_atom_site_fract_z
Si Si1 0.858234 0.853214 0.148850
Si Si2 0.964671 0.749509 0.507596
Si Si3 0.700483 0.298665 0.604749
Si Si4 0.149747 0.526010 0.206498
Si Si5 0.000000 0.186425 0.250000
O O1 0.769919 0.884803 0.122059
O O2 0.885543 0.606833 0.219377
O O3 0.924928 0.033930 0.225070
O O4 0.847157 0.850494 0.027041
O O5 0.879800 0.723193 0.391160
O O6 0.000000 0.500000 0.500000
O O7 0.969089 0.717006 0.625006
O O8 0.000000 0.000000 0.500000
O O9 0.759437 0.484251 0.694494
O O10 0.643077 0.208818 0.641519
#
# Coordination Sequence:
#
# PCOD9290894 Si02
#       5
#     8   8   8   8   4
#     4   9  22  42  72 106 156 202 267 318 406 462
#     4  12  29  50  78 116 159 211 264 323 400 476
#     4   9  21  41  67 112 152 206 263 327 391 475
#     4  10  22  41  76 105 156 204 269 323 396 468
#     4  12  26  50  80 108 162 202 262 330 396 480
#
# _framework density 26.342625000000002
#
# number of rings (size 3 to 8) (size 9 to 14) (size 15 to 20)
#    1.333    0.444    2.222    0.000    6.222    4.444 
#    0.000    2.222    0.000    0.000    0.000    0.000 
#    0.000    0.000    0.000    0.000    0.000    0.000 
#
# Total GULP energy -100234.758331 kJ/mol
# GULP energy per Si atom -5568.597685 kJ/mol
# Density = 2.628267 g / cm^3
# Si number density = 26.342625 Si / 1000 Ang^3
#
#
#
# Elastic Constant Matrix: (Units=GPa)
#
#
# Indices 1 2 3 4 5 6 
#
# 1 71.4155 43.2159 48.3517 0.0000 -9.9501 0.0000
# 2 43.2159 79.1776 35.0860 0.0001 -11.5081 0.0000
# 3 48.3517 35.0860 231.1228 0.0000 -26.0034 0.0000
# 4 0.0000 0.0001 0.0000 45.5746 0.0000 -4.3955
# 5 -9.9501 -11.5081 -26.0034 0.0000 60.7951 0.0000
# 6 0.0000 0.0000 0.0000 -4.3955 0.0000 38.0716
#
#
#
# Elastic Compliance Matrix: (Units=1/GPa)
#
#
# Indices 1 2 3 4 5 6 
#
# 1 0.022800 -0.011042 -0.003056 0.000000 0.000334 0.000000
# 2 -0.011042 0.019072 -0.000402 0.000000 0.001631 0.000000
# 3 -0.003056 -0.000402 0.005213 0.000000 0.001654 0.000000
# 4 0.000000 0.000000 0.000000 0.022189 0.000000 0.002562
# 5 0.000334 0.001631 0.001654 0.000000 0.017519 0.000000
# 6 0.000000 0.000000 0.000000 0.002562 0.000000 0.026562
#
#
# Mechanical properties :
#
#
# Convention : Reuss Voigt Hill
#
# Bulk Modulus (GPa) = 55.29196 70.55812 62.92504
# Shear Modulus (GPa) = 33.69677 45.89242 39.79459
#
# Velocity S-wave (km/s) = 3.58043 4.17842 3.89093
# Velocity P-wave (km/s) = 6.17477 7.07968 6.64265
#
# Compressibility (1/GPa) = 0.01808581
#
# Stress axis : x y z
#
# Youngs Moduli (GPa) = 43.86002 52.43418 191.82613
#
# Poissons Ratio (x) = 0.57895 0.58622
# Poissons Ratio (y) = 0.48428 0.07706
# Poissons Ratio (z) = 0.13404 0.02106
#
# Static dielectric constant tensor:
#      x y z
#    x 2.155200 0.000000 0.143970 
#    y 0.000000 2.134440 0.000000 
#    z 0.143970 0.000000 2.188850 
# 
# From -- ./inp_files/175570.got.cif
#   From: 2010.05.17/outbox.cif.g08.bks.cpg/sg15_88_cif.got.tgz:175570.got - 2010.06.03 18:47:42.
