data_PCOD9290883
_publ_section_title
;
Structure prediction by ZEFSAII (Michael W. Deem and Ramdas Pophale) SiO2 
 PCOD9290883
Probable space group: C 2/C
;
_chemical_formula_sum "Si O2"
_cell_formula_units_Z 40
_cell_length_a 18.022008
_cell_length_b 12.754253
_cell_length_c 10.406039
_cell_angle_alpha 90.000000
_cell_angle_beta 48.121549
_cell_angle_gamma 90.000000
_cell_volume 1780.922050
_symmetry_space_group_name_H-M "C 2/C"
_symmetry_group_IT_number 15
_symmetry_cell_setting 'monoclinic'
loop_
_space_group_symop_operation_xyz
x,y,z
-x,y,1/2-z
-x,-y,-z
x,-y,1/2+z
1/2+x,1/2+y,z
1/2-x,1/2+y,1/2-z
1/2-x,1/2-y,-z
1/2+x,1/2-y,1/2+z
loop_
_atom_site_type_symbol
_atom_site_label
_atom_site_fract_x
_atom_site_fract_y
_atom_site_fract_z
Si Si1 0.500000 0.100716 0.250000
Si Si2 0.605828 0.302898 0.184088
Si Si3 0.262308 0.539270 0.099117
Si Si4 0.062663 0.907001 0.489635
Si Si5 0.859835 0.441875 0.497252
Si Si6 0.000000 0.256563 0.250000
O O1 0.583721 0.179522 0.206646
O O2 0.450468 0.024678 0.410382
O O3 0.500000 0.345679 0.250000
O O4 0.691580 0.349534 0.997498
O O5 0.618369 0.345802 0.311612
O O6 0.204691 0.555934 0.299529
O O7 0.355123 0.460054 0.015232
O O8 0.200132 0.486941 0.055818
O O9 0.990379 0.823705 0.642390
O O10 0.000000 0.000000 0.500000
O O11 0.909109 0.332205 0.396214
#
# Coordination Sequence:
#
# PCOD9290883 Si02
#       6
#     4   8   8   8   8   4
#     4   9  24  47  68  96 146 195 234 285 374 430
#     4  10  22  41  73  98 134 194 236 283 358 428
#     4  12  25  46  72 109 142 185 251 302 350 423
#     4  12  23  46  72 102 143 187 234 300 365 432
#     4  11  28  46  71 107 151 188 239 308 354 434
#     4  11  30  47  74 102 150 195 234 295 386 422
#
# _framework density 22.460274999999999
#
# number of rings (size 3 to 8) (size 9 to 14) (size 15 to 20)
#    0.600    0.400    4.000    1.200    5.600    4.800 
#    0.000    0.000    0.000    0.000    0.000    0.000 
#    0.000    0.000    0.000    0.000    0.000    0.000 
#
# Total GULP energy -111785.846543 kJ/mol
# GULP energy per Si atom -5589.292327 kJ/mol
# Density = 2.240915 g / cm^3
# Si number density = 22.460275 Si / 1000 Ang^3
#
#
#
# Elastic Constant Matrix: (Units=GPa)
#
#
# Indices 1 2 3 4 5 6 
#
# 1 103.1968 47.6586 39.5007 0.0000 5.5588 0.0000
# 2 47.6586 167.9130 77.8019 0.0000 6.3908 0.0000
# 3 39.5007 77.8019 176.0326 0.0000 18.4067 0.0000
# 4 0.0000 0.0000 0.0000 25.4023 0.0000 -6.6491
# 5 5.5588 6.3908 18.4067 0.0000 30.9403 0.0000
# 6 0.0000 0.0000 0.0000 -6.6491 0.0000 26.5015
#
#
#
# Elastic Compliance Matrix: (Units=1/GPa)
#
#
# Indices 1 2 3 4 5 6 
#
# 1 0.011443 -0.002598 -0.001344 0.000000 -0.000720 0.000000
# 2 -0.002598 0.008085 -0.003055 0.000000 0.000614 0.000000
# 3 -0.001344 -0.003055 0.007722 0.000000 -0.003721 0.000000
# 4 0.000000 0.000000 0.000000 0.042134 0.000000 0.010571
# 5 -0.000720 0.000614 -0.003721 0.000000 0.034536 0.000000
# 6 0.000000 0.000000 0.000000 0.010571 0.000000 0.040386
#
#
# Mechanical properties :
#
#
# Convention : Reuss Voigt Hill
#
# Bulk Modulus (GPa) = 75.43589 86.34053 80.88821
# Shear Modulus (GPa) = 30.72812 35.38091 33.05452
#
# Velocity S-wave (km/s) = 3.70281 3.97327 3.84042
# Velocity P-wave (km/s) = 7.20696 7.71842 7.46707
#
# Compressibility (1/GPa) = 0.01325629
#
# Stress axis : x y z
#
# Youngs Moduli (GPa) = 87.38789 123.69085 129.50702
#
# Poissons Ratio (x) = 0.32130 0.17412
# Poissons Ratio (y) = 0.22700 0.39558
# Poissons Ratio (z) = 0.11749 0.37782
#
# Static dielectric constant tensor:
#      x y z
#    x 1.855350 0.000000 -0.039740 
#    y 0.000000 1.855440 0.000000 
#    z -0.039740 0.000000 1.843530 
# 
# From -- ./inp_files/96042.got.cif
#   From: 2010.05.17/outbox.cif.g08.bks.cpg/sg15_49_cif.got.tgz:96042.got - 2010.06.03 18:47:42.
