data_PCOD9290476
_publ_section_title
;
Structure prediction by ZEFSAII (Michael W. Deem and Ramdas Pophale) SiO2 
 PCOD9290476
Probable space group: C 2/C
;
_chemical_formula_sum "Si O2"
_cell_formula_units_Z 48
_cell_length_a 8.729673
_cell_length_b 21.716500
_cell_length_c 20.699034
_cell_angle_alpha 90.000000
_cell_angle_beta 39.405319
_cell_angle_gamma 90.000000
_cell_volume 2491.014991
_symmetry_space_group_name_H-M "C 2/C"
_symmetry_group_IT_number 15
_symmetry_cell_setting 'monoclinic'
loop_
_space_group_symop_operation_xyz
x,y,z
-x,y,1/2-z
-x,-y,-z
x,-y,1/2+z
1/2+x,1/2+y,z
1/2-x,1/2+y,1/2-z
1/2-x,1/2-y,-z
1/2+x,1/2-y,1/2+z
loop_
_atom_site_type_symbol
_atom_site_label
_atom_site_fract_x
_atom_site_fract_y
_atom_site_fract_z
Si Si1 0.500000 0.678423 0.750000
Si Si2 0.934888 0.000710 0.196201
Si Si3 0.933275 0.397845 0.696442
Si Si4 0.078477 0.396047 0.333469
Si Si5 0.501489 0.238799 0.120832
Si Si6 0.000000 0.702553 0.750000
Si Si7 0.222158 0.999917 0.977907
O O1 0.736771 0.635586 0.677064
O O2 0.485632 0.720182 0.818277
O O3 0.826548 0.068876 0.221657
O O4 0.000000 0.994648 0.250000
O O5 0.735050 0.948541 0.245858
O O6 0.142288 0.988914 0.077192
O O7 0.965879 0.332044 0.652754
O O8 0.103090 0.446499 0.604219
O O9 0.000000 0.393023 0.750000
O O10 0.998197 0.342421 0.312068
O O11 0.856520 0.434497 0.432912
O O12 0.250717 0.259784 0.168705
O O13 0.750000 0.250000 0.000000
O O14 0.000000 0.000000 0.000000
#
# Coordination Sequence:
#
# PCOD9290476 Si02
#       7
#     4   8   8   8   8   4   8
#     4  10  22  46  62  90 130 168 222 278 322 398
#     4  11  24  40  66 100 137 167 217 287 338 395
#     4  11  24  43  65  96 137 174 222 278 334 407
#     4  10  22  41  66  93 131 166 222 276 331 395
#     4  11  26  44  69  95 131 182 224 273 339 391
#     4  10  24  44  68  98 128 178 230 280 320 418
#     4  11  23  39  71  99 128 181 219 268 355 411
#
# _framework density 19.269255000000001
#
# number of rings (size 3 to 8) (size 9 to 14) (size 15 to 20)
#    0.000    1.333    3.333    1.000   10.500    4.000 
#    0.000    1.667    0.000    0.000    0.000    0.000 
#    0.000    0.000    0.000    0.000    0.000    0.000 
#
# Total GULP energy -133988.573298 kJ/mol
# GULP energy per Si atom -5582.857221 kJ/mol
# Density = 1.922540 g / cm^3
# Si number density = 19.269255 Si / 1000 Ang^3
#
#
#
# Elastic Constant Matrix: (Units=GPa)
#
#
# Indices 1 2 3 4 5 6 
#
# 1 115.0352 53.9495 47.3968 0.0001 -2.1139 0.0003
# 2 53.9495 140.4497 46.1705 0.0000 -6.0295 0.0001
# 3 47.3968 46.1705 127.6126 -0.0001 4.0404 0.0000
# 4 0.0001 0.0000 -0.0001 23.5200 0.0000 -6.2044
# 5 -2.1139 -6.0295 4.0404 0.0000 28.2362 -0.0001
# 6 0.0003 0.0001 0.0000 -6.2044 -0.0001 14.8530
#
#
#
# Elastic Compliance Matrix: (Units=1/GPa)
#
#
# Indices 1 2 3 4 5 6 
#
# 1 0.011572 -0.003406 -0.003084 0.000000 0.000580 0.000000
# 2 -0.003406 0.009216 -0.002133 0.000000 0.002018 0.000000
# 3 -0.003084 -0.002133 0.009820 0.000000 -0.002092 0.000000
# 4 0.000000 0.000000 0.000000 0.047782 0.000000 0.019959
# 5 0.000580 0.002018 -0.002092 0.000000 0.036189 0.000000
# 6 0.000000 0.000000 0.000000 0.019959 0.000000 0.075664
#
#
# Mechanical properties :
#
#
# Convention : Reuss Voigt Hill
#
# Bulk Modulus (GPa) = 74.84503 75.34790 75.09646
# Shear Modulus (GPa) = 23.59123 29.02722 26.30923
#
# Velocity S-wave (km/s) = 3.50279 3.88545 3.69907
# Velocity P-wave (km/s) = 7.43541 7.70172 7.56974
#
# Compressibility (1/GPa) = 0.01336094
#
# Stress axis : x y z
#
# Youngs Moduli (GPa) = 86.41744 108.50330 101.83674
#
# Poissons Ratio (x) = 0.36959 0.31405
# Poissons Ratio (y) = 0.29436 0.21724
# Poissons Ratio (z) = 0.26650 0.23147
#
# Static dielectric constant tensor:
#      x y z
#    x 1.687970 0.000000 -0.058550 
#    y 0.000000 1.657350 0.000000 
#    z -0.058550 0.000000 1.581580 
# 
# From -- ./inp_files/192328.got.cif
#   From: 2010.05.17/outbox.cif.g08.bks.cpg/sg15_97_cif.got.tgz:192328.got - 2010.06.03 18:47:42.
