data_PCOD9290365
_publ_section_title
;
Structure prediction by ZEFSAII (Michael W. Deem and Ramdas Pophale) SiO2 
 PCOD9290365
Probable space group: C 2/C
;
_chemical_formula_sum "Si O2"
_cell_formula_units_Z 48
_cell_length_a 8.050997
_cell_length_b 14.430152
_cell_length_c 26.817789
_cell_angle_alpha 90.000000
_cell_angle_beta 136.933786
_cell_angle_gamma 90.000000
_cell_volume 2127.474984
_symmetry_space_group_name_H-M "C 2/C"
_symmetry_group_IT_number 15
_symmetry_cell_setting 'monoclinic'
loop_
_space_group_symop_operation_xyz
x,y,z
-x,y,1/2-z
-x,-y,-z
x,-y,1/2+z
1/2+x,1/2+y,z
1/2-x,1/2+y,1/2-z
1/2-x,1/2-y,-z
1/2+x,1/2-y,1/2+z
loop_
_atom_site_type_symbol
_atom_site_label
_atom_site_fract_x
_atom_site_fract_y
_atom_site_fract_z
Si Si1 0.201279 0.401235 0.005960
Si Si2 0.434366 0.916854 0.086041
Si Si3 0.086210 0.512953 0.211863
Si Si4 0.540493 0.213530 0.318328
Si Si5 0.009810 0.218545 0.012787
Si Si6 0.540280 0.592826 0.838460
O O1 0.022677 0.324615 0.993769
O O2 0.374533 0.435985 0.088320
O O3 0.103363 0.493016 0.957453
O O4 0.352311 0.342809 0.998840
O O5 0.716096 0.892178 0.140039
O O6 0.417569 0.951575 0.139213
O O7 0.247021 0.833155 0.035483
O O8 0.358387 0.476330 0.273224
O O9 0.000000 0.510467 0.250000
O O10 0.077115 0.617610 0.190768
O O11 0.500000 0.219646 0.250000
O O12 0.815636 0.209771 0.400455
O O13 0.424327 0.305028 0.316696
#
# Coordination Sequence:
#
# PCOD9290365 Si02
#       6
#     8   8   8   8   8   8
#     4  10  22  41  66 102 133 177 228 279 344 421
#     4  12  23  42  70 100 137 179 223 297 345 410
#     4  11  24  43  67  94 128 185 227 272 346 412
#     4  10  22  41  65  93 131 176 218 272 340 409
#     4  10  22  41  69  99 137 174 231 283 347 412
#     4  11  25  45  64  98 139 169 228 284 339 417
#
# _framework density 22.561958000000001
#
# number of rings (size 3 to 8) (size 9 to 14) (size 15 to 20)
#    0.000    1.333    1.667    3.500    4.667    2.667 
#    9.000    0.000    0.000    0.000    0.000    0.000 
#    0.000    0.000    0.000    0.000    0.000    0.000 
#
# Total GULP energy -134079.771816 kJ/mol
# GULP energy per Si atom -5586.657159 kJ/mol
# Density = 2.251061 g / cm^3
# Si number density = 22.561958 Si / 1000 Ang^3
#
#
#
# Elastic Constant Matrix: (Units=GPa)
#
#
# Indices 1 2 3 4 5 6 
#
# 1 82.4532 36.8263 40.1317 0.0000 12.1320 0.0000
# 2 36.8263 152.6100 73.2883 0.0000 28.4408 0.0000
# 3 40.1317 73.2883 133.0877 0.0000 -9.8319 0.0000
# 4 0.0000 0.0000 0.0000 38.9564 0.0000 -1.9198
# 5 12.1320 28.4408 -9.8319 0.0000 40.5901 0.0000
# 6 0.0000 0.0000 0.0000 -1.9198 0.0000 19.1076
#
#
#
# Elastic Compliance Matrix: (Units=1/GPa)
#
#
# Indices 1 2 3 4 5 6 
#
# 1 0.015482 -0.000353 -0.004885 0.000000 -0.005563 0.000000
# 2 -0.000353 0.011984 -0.007235 0.000000 -0.010044 0.000000
# 3 -0.004885 -0.007235 0.013698 0.000000 0.009847 0.000000
# 4 0.000000 0.000000 0.000000 0.025797 0.000000 0.002592
# 5 -0.005563 -0.010044 0.009847 0.000000 0.035722 0.000000
# 6 0.000000 0.000000 0.000000 0.002592 0.000000 0.052596
#
#
# Mechanical properties :
#
#
# Convention : Reuss Voigt Hill
#
# Bulk Modulus (GPa) = 61.65835 74.29373 67.97604
# Shear Modulus (GPa) = 26.93502 34.25781 30.59641
#
# Velocity S-wave (km/s) = 3.45892 3.90088 3.68653
# Velocity P-wave (km/s) = 6.58331 7.29996 6.95088
#
# Compressibility (1/GPa) = 0.01621840
#
# Stress axis : x y z
#
# Youngs Moduli (GPa) = 64.59104 83.44385 73.00130
#
# Poissons Ratio (x) = 0.02948 0.35660
# Poissons Ratio (y) = 0.02282 0.52815
# Poissons Ratio (z) = 0.31552 0.60370
#
# Static dielectric constant tensor:
#      x y z
#    x 1.877240 0.000000 -0.013560 
#    y 0.000000 1.903480 0.000000 
#    z -0.013560 0.000000 1.834160 
# 
# From -- ./inp_files/289070.got.cif
#   From: 2010.05.17/outbox.cif.g08.bks.cpg/sg15_145_cif.got.tgz:289070.got - 2010.06.03 18:47:42.
