data_PCOD9290693
_publ_section_title
;
Structure prediction by ZEFSAII (Michael W. Deem and Ramdas Pophale) SiO2 
 PCOD9290693
Probable space group: C 2/C
;
_chemical_formula_sum "Si O2"
_cell_formula_units_Z 48
_cell_length_a 21.312110
_cell_length_b 18.078875
_cell_length_c 9.704393
_cell_angle_alpha 90.000000
_cell_angle_beta 140.509636
_cell_angle_gamma 90.000000
_cell_volume 2377.870138
_symmetry_space_group_name_H-M "C 2/C"
_symmetry_group_IT_number 15
_symmetry_cell_setting 'monoclinic'
loop_
_space_group_symop_operation_xyz
x,y,z
-x,y,1/2-z
-x,-y,-z
x,-y,1/2+z
1/2+x,1/2+y,z
1/2-x,1/2+y,1/2-z
1/2-x,1/2-y,-z
1/2+x,1/2-y,1/2+z
loop_
_atom_site_type_symbol
_atom_site_label
_atom_site_fract_x
_atom_site_fract_y
_atom_site_fract_z
Si Si1 0.281512 0.781827 0.699800
Si Si2 0.611999 0.953795 0.407376
Si Si3 0.709316 0.643984 0.328470
Si Si4 0.799553 0.451212 0.664334
Si Si5 0.616356 0.489159 0.163629
Si Si6 0.384646 0.653086 0.030522
O O1 0.250000 0.750000 0.500000
O O2 0.205686 0.796125 0.699760
O O3 0.314666 0.864691 0.718412
O O4 0.355916 0.722315 0.887792
O O5 0.676918 0.883503 0.468041
O O6 0.669177 0.985758 0.637449
O O7 0.623209 0.016338 0.312525
O O8 0.500000 0.935123 0.250000
O O9 0.651020 0.570978 0.178936
O O10 0.669475 0.660173 0.413242
O O11 0.690884 0.468684 0.417405
O O12 0.500000 0.500000 0.000000
O O13 0.633103 0.424035 0.081163
O O14 0.500000 0.654479 0.250000
#
# Coordination Sequence:
#
# PCOD9290693 Si02
#       6
#     8   8   8   8   8   8
#     4  11  24  44  64  92 142 188 228 280 348 427
#     4  10  22  41  68  98 131 174 237 294 341 407
#     4  10  25  42  71 102 136 186 235 292 358 422
#     4  10  23  41  67 101 137 179 228 288 357 414
#     4  11  23  41  75 108 140 178 237 300 358 423
#     4  12  25  44  71 104 142 190 236 290 365 434
#
# _framework density 20.186132000000001
#
# number of rings (size 3 to 8) (size 9 to 14) (size 15 to 20)
#    0.000    1.333    3.333    1.000   14.000    2.667 
#    0.000    5.833    0.000    0.000    0.000    0.000 
#    0.000    0.000    0.000    0.000    0.000    0.000 
#
# Total GULP energy -133796.677872 kJ/mol
# GULP energy per Si atom -5574.861578 kJ/mol
# Density = 2.014019 g / cm^3
# Si number density = 20.186132 Si / 1000 Ang^3
#
#
#
# Elastic Constant Matrix: (Units=GPa)
#
#
# Indices 1 2 3 4 5 6 
#
# 1 121.1668 2.1081 53.7537 0.0000 -1.4574 0.0000
# 2 2.1081 57.7447 11.5802 0.0000 -9.4216 0.0000
# 3 53.7537 11.5802 102.7304 0.0000 -1.7348 0.0000
# 4 0.0000 0.0000 0.0000 32.5184 0.0000 -15.4096
# 5 -1.4574 -9.4216 -1.7348 0.0000 53.4215 0.0000
# 6 0.0000 0.0000 0.0000 -15.4096 0.0000 34.4447
#
#
#
# Elastic Compliance Matrix: (Units=1/GPa)
#
#
# Indices 1 2 3 4 5 6 
#
# 1 0.010783 0.000796 -0.005728 0.000000 0.000248 0.000000
# 2 0.000796 0.018292 -0.002425 0.000000 0.003169 0.000000
# 3 -0.005728 -0.002425 0.013002 0.000000 -0.000162 0.000000
# 4 0.000000 0.000000 0.000000 0.039025 0.000000 0.017459
# 5 0.000248 0.003169 -0.000162 0.000000 0.019279 0.000000
# 6 0.000000 0.000000 0.000000 0.017459 0.000000 0.036843
#
#
# Mechanical properties :
#
#
# Convention : Reuss Voigt Hill
#
# Bulk Modulus (GPa) = 36.54558 46.28067 41.41313
# Shear Modulus (GPa) = 31.04446 38.35691 34.70068
#
# Velocity S-wave (km/s) = 3.92587 4.36381 4.15062
# Velocity P-wave (km/s) = 6.22042 6.95465 6.59776
#
# Compressibility (1/GPa) = 0.02736309
#
# Stress axis : x y z
#
# Youngs Moduli (GPa) = 92.73593 54.66908 76.91181
#
# Poissons Ratio (x) = -0.04349 0.44054
# Poissons Ratio (y) = -0.07378 0.18649
# Poissons Ratio (z) = 0.53118 0.13256
#
# Static dielectric constant tensor:
#      x y z
#    x 1.806310 0.000000 -0.041140 
#    y 0.000000 1.802920 0.000000 
#    z -0.041140 0.000000 1.741650 
# 
# From -- ./inp_files/57971.got.cif
#   From: 2010.05.17/outbox.cif.g08.bks.cpg/sg15_29_cif.got.tgz:57971.got - 2010.06.03 18:47:42.
