data_PCOD9290787
_publ_section_title
;
Structure prediction by ZEFSAII (Michael W. Deem and Ramdas Pophale) SiO2 
 PCOD9290787
Probable space group: C 2/C
;
_chemical_formula_sum "Si O2"
_cell_formula_units_Z 40
_cell_length_a 11.771591
_cell_length_b 17.705359
_cell_length_c 8.434283
_cell_angle_alpha 90.000000
_cell_angle_beta 81.841271
_cell_angle_gamma 90.000000
_cell_volume 1740.083364
_symmetry_space_group_name_H-M "C 2/C"
_symmetry_group_IT_number 15
_symmetry_cell_setting 'monoclinic'
loop_
_space_group_symop_operation_xyz
x,y,z
-x,y,1/2-z
-x,-y,-z
x,-y,1/2+z
1/2+x,1/2+y,z
1/2-x,1/2+y,1/2-z
1/2-x,1/2-y,-z
1/2+x,1/2-y,1/2+z
loop_
_atom_site_type_symbol
_atom_site_label
_atom_site_fract_x
_atom_site_fract_y
_atom_site_fract_z
Si Si1 0.807255 0.331205 0.990178
Si Si2 0.954374 0.615372 0.934013
Si Si3 0.236736 0.886727 0.331880
Si Si4 0.800939 0.548117 0.217124
Si Si5 0.065854 0.067033 0.080271
O O1 0.795414 0.379661 0.833109
O O2 0.750000 0.250000 0.000000
O O3 0.739102 0.369897 0.147383
O O4 0.941267 0.336343 0.014245
O O5 0.786714 0.527153 0.822814
O O6 0.000000 0.590205 0.750000
O O7 0.911945 0.558213 0.081768
O O8 0.335182 0.842598 0.410306
O O9 0.112488 0.877991 0.434137
O O10 0.687227 0.543999 0.132782
O O11 0.000000 0.094649 0.250000
O O12 0.000000 0.000000 0.000000
#
# Coordination Sequence:
#
# PCOD9290787 Si02
#       5
#     8   8   8   8   8
#     4  11  24  44  69 102 149 189 236 295 372 445
#     4   9  21  40  65  95 138 175 224 290 354 429
#     4  10  22  41  70 105 140 178 244 303 356 436
#     4  11  22  40  71 105 137 179 241 299 359 431
#     4  11  22  38  65  98 149 180 232 301 357 423
#
# _framework density 22.987404000000002
#
# number of rings (size 3 to 8) (size 9 to 14) (size 15 to 20)
#    0.000    1.600    2.000    3.000    0.000    8.800 
#    0.000   16.000    0.000    0.000    0.000    0.000 
#    0.000    0.000    0.000    0.000    0.000    0.000 
#
# Total GULP energy -111401.763546 kJ/mol
# GULP energy per Si atom -5570.088177 kJ/mol
# Density = 2.293508 g / cm^3
# Si number density = 22.987404 Si / 1000 Ang^3
#
#
#
# Elastic Constant Matrix: (Units=GPa)
#
#
# Indices 1 2 3 4 5 6 
#
# 1 129.8768 37.4671 67.2739 0.0000 -16.3374 0.0000
# 2 37.4671 87.4663 53.1397 0.0000 -0.7191 0.0000
# 3 67.2739 53.1397 183.8011 0.0000 -30.2493 0.0000
# 4 0.0000 0.0000 0.0000 13.3825 0.0000 -6.0076
# 5 -16.3374 -0.7191 -30.2493 0.0000 59.0382 0.0000
# 6 0.0000 0.0000 0.0000 -6.0076 0.0000 23.6404
#
#
#
# Elastic Compliance Matrix: (Units=1/GPa)
#
#
# Indices 1 2 3 4 5 6 
#
# 1 0.010024 -0.002658 -0.002675 0.000000 0.001371 0.000000
# 2 -0.002658 0.014807 -0.003713 0.000000 -0.002457 0.000000
# 3 -0.002675 -0.003713 0.008042 0.000000 0.003335 0.000000
# 4 0.000000 0.000000 0.000000 0.084347 0.000000 0.021435
# 5 0.001371 -0.002457 0.003335 0.000000 0.018996 0.000000
# 6 0.000000 0.000000 0.000000 0.021435 0.000000 0.047748
#
#
# Mechanical properties :
#
#
# Convention : Reuss Voigt Hill
#
# Bulk Modulus (GPa) = 67.64663 79.65620 73.65142
# Shear Modulus (GPa) = 24.15671 35.42977 29.79324
#
# Velocity S-wave (km/s) = 3.24523 3.93016 3.60400
# Velocity P-wave (km/s) = 6.59800 7.43789 7.03050
#
# Compressibility (1/GPa) = 0.01478270
#
# Stress axis : x y z
#
# Youngs Moduli (GPa) = 99.75691 67.53698 124.34704
#
# Poissons Ratio (x) = 0.17948 0.33264
# Poissons Ratio (y) = 0.26511 0.46165
# Poissons Ratio (z) = 0.26686 0.25073
#
# Static dielectric constant tensor:
#      x y z
#    x 1.941110 0.000000 -0.000220 
#    y 0.000000 1.909760 0.000000 
#    z -0.000220 0.000000 2.022860 
# 
# From -- ./inp_files/29056.got.cif
#   From: 2010.05.17/outbox.cif.g08.bks.cpg/sg15_15_cif.got.tgz:29056.got - 2010.06.03 18:47:42.
