data_PCOD9290161
_publ_section_title
;
Structure prediction by ZEFSAII (Michael W. Deem and Ramdas Pophale) SiO2 
 PCOD9290161
Probable space group: C 2/C
;
_chemical_formula_sum "Si O2"
_cell_formula_units_Z 44
_cell_length_a 13.572716
_cell_length_b 5.405123
_cell_length_c 25.706186
_cell_angle_alpha 90.000000
_cell_angle_beta 119.195839
_cell_angle_gamma 90.000000
_cell_volume 1646.277686
_symmetry_space_group_name_H-M "C 2/C"
_symmetry_group_IT_number 15
_symmetry_cell_setting 'monoclinic'
loop_
_space_group_symop_operation_xyz
x,y,z
-x,y,1/2-z
-x,-y,-z
x,-y,1/2+z
1/2+x,1/2+y,z
1/2-x,1/2+y,1/2-z
1/2-x,1/2-y,-z
1/2+x,1/2-y,1/2+z
loop_
_atom_site_type_symbol
_atom_site_label
_atom_site_fract_x
_atom_site_fract_y
_atom_site_fract_z
Si Si1 0.081601 0.280421 0.433200
Si Si2 0.000000 0.719783 0.750000
Si Si3 0.740441 0.785235 0.135192
Si Si4 0.684411 0.736527 0.564354
Si Si5 0.963561 0.335551 0.651853
Si Si6 0.620251 0.558642 0.190113
O O1 0.201210 0.205155 0.438873
O O2 0.087199 0.235761 0.495726
O O3 0.070890 0.567528 0.413428
O O4 0.979489 0.151153 0.375929
O O5 0.046728 0.552601 0.808431
O O6 0.096583 0.860338 0.742944
O O7 0.701994 0.534758 0.094075
O O8 0.869148 0.841209 0.151659
O O9 0.724659 0.692774 0.190322
O O10 0.673995 0.032346 0.101162
O O11 0.088924 0.229286 0.682560
#
# Coordination Sequence:
#
# PCOD9290161 Si02
#       6
#     8   4   8   8   8   8
#     4   9  21  38  68  90 138 176 215 258 335 385
#     4  10  24  46  64  90 122 166 224 270 346 386
#     4  11  25  41  68  99 136 166 225 267 329 397
#     4  10  22  41  63 102 134 178 213 265 320 403
#     4  10  22  45  64  92 130 173 217 280 328 402
#     4  11  23  43  67  93 127 175 217 281 332 398
#
# _framework density 26.726960999999999
#
# number of rings (size 3 to 8) (size 9 to 14) (size 15 to 20)
#    0.000    1.818    1.818    0.545    7.636    3.636 
#    6.545    0.000    0.000    0.000    0.000    0.000 
#    0.000    0.000    0.000    0.000    0.000    0.000 
#
# Total GULP energy -122900.073614 kJ/mol
# GULP energy per Si atom -5586.366982 kJ/mol
# Density = 2.666613 g / cm^3
# Si number density = 26.726961 Si / 1000 Ang^3
#
#
#
# Elastic Constant Matrix: (Units=GPa)
#
#
# Indices 1 2 3 4 5 6 
#
# 1 99.5399 16.6737 29.2314 0.0000 -19.3361 0.0000
# 2 16.6737 95.9201 53.5194 0.0000 -19.1856 0.0000
# 3 29.2314 53.5194 123.7053 0.0000 -8.8087 0.0000
# 4 0.0000 0.0000 0.0000 27.3415 0.0000 -1.0082
# 5 -19.3361 -19.1856 -8.8087 0.0000 45.6823 0.0000
# 6 0.0000 0.0000 0.0000 -1.0082 0.0000 36.8279
#
#
#
# Elastic Compliance Matrix: (Units=1/GPa)
#
#
# Indices 1 2 3 4 5 6 
#
# 1 0.011632 0.000321 -0.002562 0.000000 0.004564 0.000000
# 2 0.000321 0.014819 -0.006118 0.000000 0.005180 0.000000
# 3 -0.002562 -0.006118 0.011230 0.000000 -0.001489 0.000000
# 4 0.000000 0.000000 0.000000 0.036611 0.000000 0.001002
# 5 0.004564 0.005180 -0.001489 0.000000 0.025710 0.000000
# 6 0.000000 0.000000 0.000000 0.001002 0.000000 0.027181
#
#
# Mechanical properties :
#
#
# Convention : Reuss Voigt Hill
#
# Bulk Modulus (GPa) = 47.70728 57.55715 52.63221
# Shear Modulus (GPa) = 33.13656 36.61973 34.87815
#
# Velocity S-wave (km/s) = 3.52492 3.70556 3.61637
# Velocity P-wave (km/s) = 5.86987 6.31587 6.09695
#
# Compressibility (1/GPa) = 0.02096116
#
# Stress axis : x y z
#
# Youngs Moduli (GPa) = 85.97326 67.47895 89.04562
#
# Poissons Ratio (x) = -0.02163 0.22816
# Poissons Ratio (y) = -0.02756 0.54481
# Poissons Ratio (z) = 0.22028 0.41286
#
# Static dielectric constant tensor:
#      x y z
#    x 2.181960 0.000000 0.026960 
#    y 0.000000 2.263570 0.000000 
#    z 0.026960 0.000000 2.078970 
# 
# From -- ./inp_files/271858.got.cif
#   From: 2010.05.17/outbox.cif.g08.bks.cpg/sg15_136_cif.got.tgz:271858.got - 2010.06.03 18:47:42.
