data_PCOD9290701
_publ_section_title
;
Structure prediction by ZEFSAII (Michael W. Deem and Ramdas Pophale) SiO2 
 PCOD9290701
Probable space group: C 2/C
;
_chemical_formula_sum "Si O2"
_cell_formula_units_Z 32
_cell_length_a 7.187520
_cell_length_b 20.556587
_cell_length_c 14.037012
_cell_angle_alpha 90.000000
_cell_angle_beta 141.918435
_cell_angle_gamma 90.000000
_cell_volume 1279.195413
_symmetry_space_group_name_H-M "C 2/C"
_symmetry_group_IT_number 15
_symmetry_cell_setting 'monoclinic'
loop_
_space_group_symop_operation_xyz
x,y,z
-x,y,1/2-z
-x,-y,-z
x,-y,1/2+z
1/2+x,1/2+y,z
1/2-x,1/2+y,1/2-z
1/2-x,1/2-y,-z
1/2+x,1/2-y,1/2+z
loop_
_atom_site_type_symbol
_atom_site_label
_atom_site_fract_x
_atom_site_fract_y
_atom_site_fract_z
Si Si1 0.135769 0.804923 0.600336
Si Si2 0.003958 0.048380 0.410697
Si Si3 0.168614 0.545409 0.664057
Si Si4 0.303066 0.313602 0.267792
O O1 0.500000 0.811146 0.750000
O O2 0.077284 0.745032 0.649620
O O3 0.024253 0.875707 0.584410
O O4 0.998519 0.795412 0.439164
O O5 0.327874 0.041130 0.488190
O O6 0.000000 0.000000 0.500000
O O7 0.715671 0.021197 0.239771
O O8 0.500000 0.551131 0.750000
O O9 0.166529 0.614081 0.722060
O O10 0.500000 0.317196 0.250000
#
# Coordination Sequence:
#
# PCOD9290701 Si02
#       4
#     8   8   8   8
#     4  11  22  41  70 103 141 185 232 285 353 415
#     4  12  24  43  72 101 138 182 234 289 353 416
#     4  11  25  46  68  99 140 182 235 291 347 416
#     4  10  22  41  68  99 144 182 232 284 349 413
#
# _framework density 25.015725
#
# number of rings (size 3 to 8) (size 9 to 14) (size 15 to 20)
#    0.000    1.000    2.500    6.000    0.000    1.000 
#    4.500    0.000    0.000    0.000    0.000    0.000 
#    0.000    0.000    0.000    0.000    0.000    0.000 
#
# Total GULP energy -89218.889244 kJ/mol
# GULP energy per Si atom -5576.180578 kJ/mol
# Density = 2.495879 g / cm^3
# Si number density = 25.015725 Si / 1000 Ang^3
#
#
#
# Elastic Constant Matrix: (Units=GPa)
#
#
# Indices 1 2 3 4 5 6 
#
# 1 92.6055 32.1598 42.5549 -0.0012 7.7359 -0.0001
# 2 32.1598 192.0210 58.8901 0.0009 -9.7022 0.0001
# 3 42.5549 58.8901 197.8480 -0.0122 -10.7839 -0.0009
# 4 -0.0012 0.0009 -0.0122-9193.2546 -0.0037 -705.3804
# 5 7.7359 -9.7022 -10.7839 -0.0037 54.3787 -0.0003
# 6 -0.0001 0.0001 -0.0009 -705.3804 -0.0003 -37.1444
#
#
#
# Elastic Compliance Matrix: (Units=1/GPa)
#
#
# Indices 1 2 3 4 5 6 
#
# 1 0.012642 -0.001507 -0.002409 0.000000 -0.002545 0.000000
# 2 -0.001507 0.005936 -0.001388 0.000000 0.000998 0.000000
# 3 -0.002409 -0.001388 0.006057 0.000000 0.001296 0.000000
# 4 0.000000 0.000000 0.000000 0.000238 0.000000 -0.004519
# 5 -0.002545 0.000998 0.001296 0.000000 0.019187 0.000000
# 6 0.000000 0.000000 0.000000 -0.004519 0.000000 0.058900
#
#
# Mechanical properties :
#
#
# Convention : Reuss Voigt Hill
#
# Bulk Modulus (GPa) = 71.30019 83.29824 77.29921
# Shear Modulus (GPa) = 42.28579 -1811.94608 -884.83014
#
# Velocity S-wave (km/s) = 4.11587 -26.94244 -18.82757
# Velocity P-wave (km/s) = 7.15201 30.56942 21.01593
#
# Compressibility (1/GPa) = 0.01402521
#
# Stress axis : x y z
#
# Youngs Moduli (GPa) = 79.10432 168.45229 165.11168
#
# Poissons Ratio (x) = 0.25385 0.39779
# Poissons Ratio (y) = 0.11920 0.22925
# Poissons Ratio (z) = 0.19058 0.23389
#
# Static dielectric constant tensor:
#      x y z
#    x 2.273130 0.000000 -0.002340 
#    y 0.000000 2.020490 0.000000 
#    z -0.002340 0.000000 1.945190 
# 
# From -- ./inp_files/192412.got.cif
#   From: 2010.05.17/outbox.cif.g08.bks.cpg/sg15_97_cif.got.tgz:192412.got - 2010.06.03 18:47:42.
