data_PCOD9290054
_publ_section_title
;
Structure prediction by ZEFSAII (Michael W. Deem and Ramdas Pophale) SiO2 
 PCOD9290054
Probable space group: C 2/C
;
_chemical_formula_sum "Si O2"
_cell_formula_units_Z 48
_cell_length_a 21.307273
_cell_length_b 8.121469
_cell_length_c 11.726525
_cell_angle_alpha 90.000000
_cell_angle_beta 91.409568
_cell_angle_gamma 90.000000
_cell_volume 2028.618379
_symmetry_space_group_name_H-M "C 2/C"
_symmetry_group_IT_number 15
_symmetry_cell_setting 'monoclinic'
loop_
_space_group_symop_operation_xyz
x,y,z
-x,y,1/2-z
-x,-y,-z
x,-y,1/2+z
1/2+x,1/2+y,z
1/2-x,1/2+y,1/2-z
1/2-x,1/2-y,-z
1/2+x,1/2-y,1/2+z
loop_
_atom_site_type_symbol
_atom_site_label
_atom_site_fract_x
_atom_site_fract_y
_atom_site_fract_z
Si Si1 0.550184 0.462277 0.650689
Si Si2 0.200825 0.736647 0.394823
Si Si3 0.754741 0.584042 0.332815
Si Si4 0.040080 0.734843 0.981841
Si Si5 0.363200 0.748053 0.218582
Si Si6 0.625530 0.034504 0.558939
O O1 0.500000 0.493942 0.750000
O O2 0.524331 0.304755 0.576755
O O3 0.556019 0.618116 0.569805
O O4 0.615085 0.414913 0.711711
O O5 0.250000 0.750000 0.500000
O O6 0.219006 0.614530 0.293664
O O7 0.139434 0.661887 0.455555
O O8 0.211804 0.920147 0.346065
O O9 0.704270 0.729363 0.339484
O O10 0.812254 0.582052 0.424867
O O11 0.086143 0.726859 0.876188
O O12 0.060692 0.565737 0.044434
O O13 0.368366 0.880156 0.318171
#
# Coordination Sequence:
#
# PCOD9290054 Si02
#       6
#     8   8   8   8   8   8
#     4   9  22  45  69  97 126 166 224 269 338 397
#     4  10  22  41  58  90 143 177 219 270 325 391
#     4  11  22  39  60  95 135 175 219 267 320 402
#     4  10  23  44  67  92 130 172 216 279 330 395
#     4  11  23  40  65  95 129 173 221 273 325 397
#     4  11  24  40  63  98 138 172 221 268 334 392
#
# _framework density 23.661425000000001
#
# number of rings (size 3 to 8) (size 9 to 14) (size 15 to 20)
#    0.000    1.667    3.333    1.000    4.667    1.333 
#    0.000    2.500    0.000    0.000    0.000    0.000 
#    0.000    0.000    0.000    0.000    0.000    0.000 
#
# Total GULP energy -133826.038264 kJ/mol
# GULP energy per Si atom -5576.084928 kJ/mol
# Density = 2.360757 g / cm^3
# Si number density = 23.661425 Si / 1000 Ang^3
#
#
#
# Elastic Constant Matrix: (Units=GPa)
#
#
# Indices 1 2 3 4 5 6 
#
# 1 84.5762 24.5643 19.9678 0.0000 13.1310 0.0000
# 2 24.5643 100.4763 50.8048 0.0000 -3.2640 0.0000
# 3 19.9678 50.8048 123.4417 0.0000 -11.4473 0.0000
# 4 0.0000 0.0000 0.0000 57.9132 0.0000 7.6927
# 5 13.1310 -3.2640 -11.4473 0.0000 37.0456 0.0000
# 6 0.0000 0.0000 0.0000 7.6927 0.0000 40.9755
#
#
#
# Elastic Compliance Matrix: (Units=1/GPa)
#
#
# Indices 1 2 3 4 5 6 
#
# 1 0.013891 -0.002751 -0.001641 0.000000 -0.005673 0.000000
# 2 -0.002751 0.013122 -0.004898 0.000000 0.000617 0.000000
# 3 -0.001641 -0.004898 0.010703 0.000000 0.003457 0.000000
# 4 0.000000 0.000000 0.000000 0.017709 0.000000 -0.003325
# 5 -0.005673 0.000617 0.003457 0.000000 0.030127 0.000000
# 6 0.000000 0.000000 0.000000 -0.003325 0.000000 0.025029
#
#
# Mechanical properties :
#
#
# Convention : Reuss Voigt Hill
#
# Bulk Modulus (GPa) = 52.25785 55.46313 53.86049
# Shear Modulus (GPa) = 36.88965 41.39736 39.14350
#
# Velocity S-wave (km/s) = 3.95278 4.18733 4.07174
# Velocity P-wave (km/s) = 6.55486 6.84613 6.70208
#
# Compressibility (1/GPa) = 0.01913588
#
# Stress axis : x y z
#
# Youngs Moduli (GPa) = 71.99050 76.20834 93.43097
#
# Poissons Ratio (x) = 0.20961 0.15332
# Poissons Ratio (y) = 0.19801 0.45766
# Poissons Ratio (z) = 0.11814 0.37330
#
# Static dielectric constant tensor:
#      x y z
#    x 2.018190 0.000000 -0.035230 
#    y 0.000000 2.036590 0.000000 
#    z -0.035230 0.000000 1.889990 
# 
# From -- ./inp_files/116380.got.cif
#   From: 2010.05.17/outbox.cif.g08.bks.cpg/sg15_59_cif.got.tgz:116380.got - 2010.06.03 18:47:42.
