data_PCOD9290973
_publ_section_title
;
Structure prediction by ZEFSAII (Michael W. Deem and Ramdas Pophale) SiO2 
 PCOD9290973
Probable space group: C 2/C
;
_chemical_formula_sum "Si O2"
_cell_formula_units_Z 52
_cell_length_a 17.482708
_cell_length_b 25.907095
_cell_length_c 13.138151
_cell_angle_alpha 90.000000
_cell_angle_beta 154.736602
_cell_angle_gamma 90.000000
_cell_volume 2539.603746
_symmetry_space_group_name_H-M "C 2/C"
_symmetry_group_IT_number 15
_symmetry_cell_setting 'monoclinic'
loop_
_space_group_symop_operation_xyz
x,y,z
-x,y,1/2-z
-x,-y,-z
x,-y,1/2+z
1/2+x,1/2+y,z
1/2-x,1/2+y,1/2-z
1/2-x,1/2-y,-z
1/2+x,1/2-y,1/2+z
loop_
_atom_site_type_symbol
_atom_site_label
_atom_site_fract_x
_atom_site_fract_y
_atom_site_fract_z
Si Si1 0.018917 0.200319 0.957750
Si Si2 0.594621 0.186210 0.472213
Si Si3 0.500000 0.627501 0.750000
Si Si4 0.681510 0.060832 0.906647
Si Si5 0.942349 0.847271 0.786469
Si Si6 0.218331 0.550591 0.517031
Si Si7 0.205863 0.408124 0.217394
O O1 0.806912 0.189935 0.709155
O O2 0.077192 0.164288 0.933054
O O3 0.041128 0.260205 0.959018
O O4 0.104787 0.186227 0.170641
O O5 0.571433 0.136215 0.515205
O O6 0.500000 0.180730 0.250000
O O7 0.339852 0.592311 0.603595
O O8 0.500000 0.062673 0.750000
O O9 0.638676 0.062674 0.735449
O O10 0.769487 0.005969 0.038640
O O11 0.796743 0.110116 0.079841
O O12 0.000000 0.819198 0.750000
O O13 0.115220 0.879319 0.030681
O O14 0.255248 0.556874 0.681149
O O15 0.000000 0.556732 0.250000
#
# Coordination Sequence:
#
# PCOD9290973 Si02
#       7
#     8   8   4   8   8   8   8
#     4  11  24  39  63 101 124 171 217 268 333 396
#     4  11  22  40  62  93 132 166 210 273 334 384
#     4  12  24  40  64 104 130 172 224 254 348 386
#     4  10  24  42  64  96 125 172 225 267 327 389
#     4   9  20  42  62  87 132 168 220 265 318 400
#     4  11  25  42  65  98 136 171 219 274 326 396
#     4  10  22  42  62  91 130 175 210 273 331 381
#
# _framework density 20.475635
#
# number of rings (size 3 to 8) (size 9 to 14) (size 15 to 20)
#    0.000    1.538    3.846    0.923    3.231    6.769 
#    0.000    7.692    0.000    0.000    0.000    0.000 
#    0.000    0.000    0.000    0.000    0.000    0.000 
#
# Total GULP energy -145126.904410 kJ/mol
# GULP energy per Si atom -5581.804016 kJ/mol
# Density = 2.042903 g / cm^3
# Si number density = 20.475635 Si / 1000 Ang^3
#
#
#
# Elastic Constant Matrix: (Units=GPa)
#
#
# Indices 1 2 3 4 5 6 
#
# 1 130.1600 57.0704 38.4093 0.0000 -49.1661 0.0000
# 2 57.0704 112.1730 30.3151 0.0000 -36.5130 0.0000
# 3 38.4093 30.3151 67.9087 0.0000 -32.6031 0.0000
# 4 0.0000 0.0000 0.0000 18.3998 0.0000 12.6408
# 5 -49.1661 -36.5130 -32.6031 0.0000 47.9294 0.0000
# 6 0.0000 0.0000 0.0000 12.6408 0.0000 0.9345
#
#
#
# Elastic Compliance Matrix: (Units=1/GPa)
#
#
# Indices 1 2 3 4 5 6 
#
# 1 0.013358 -0.003035 -0.001087 0.000000 0.010651 0.000000
# 2 -0.003035 0.012637 -0.001184 0.000000 0.005708 0.000000
# 3 -0.001087 -0.001184 0.022127 0.000000 0.013035 0.000000
# 4 0.000000 0.000000 0.000000 -0.006554 0.000000 0.088649
# 5 0.010651 0.005708 0.013035 0.000000 0.045004 0.000000
# 6 0.000000 0.000000 0.000000 0.088649 0.000000 -0.129037
#
#
# Mechanical properties :
#
#
# Convention : Reuss Voigt Hill
#
# Bulk Modulus (GPa) = 26.66019 62.42567 44.54293
# Shear Modulus (GPa) = -258.40827 25.74921 -116.32953
#
# Velocity S-wave (km/s) = -11.24619 3.55005 -7.54566
# Velocity P-wave (km/s) = 12.47345 6.88170 7.35626
#
# Compressibility (1/GPa) = 0.03750910
#
# Stress axis : x y z
#
# Youngs Moduli (GPa) = 74.86391 79.13218 45.19406
#
# Poissons Ratio (x) = 0.24020 0.04911
# Poissons Ratio (y) = 0.22724 0.05352
# Poissons Ratio (z) = 0.08135 0.09370
#
# Static dielectric constant tensor:
#      x y z
#    x 1.777580 0.000000 -0.012860 
#    y 0.000000 1.791070 0.000000 
#    z -0.012860 0.000000 1.729830 
# 
# From -- ./inp_files/108374.got.cif
#   From: 2010.05.17/outbox.cif.g08.bks.cpg/sg15_55_cif.got.tgz:108374.got - 2010.06.03 18:47:42.
