data_PCOD9290347
_publ_section_title
;
Structure prediction by ZEFSAII (Michael W. Deem and Ramdas Pophale) SiO2 
 PCOD9290347
Probable space group: C 2/C
;
_chemical_formula_sum "Si O2"
_cell_formula_units_Z 44
_cell_length_a 17.374008
_cell_length_b 20.968743
_cell_length_c 11.792728
_cell_angle_alpha 90.000000
_cell_angle_beta 147.013209
_cell_angle_gamma 90.000000
_cell_volume 2339.059375
_symmetry_space_group_name_H-M "C 2/C"
_symmetry_group_IT_number 15
_symmetry_cell_setting 'monoclinic'
loop_
_space_group_symop_operation_xyz
x,y,z
-x,y,1/2-z
-x,-y,-z
x,-y,1/2+z
1/2+x,1/2+y,z
1/2-x,1/2+y,1/2-z
1/2-x,1/2-y,-z
1/2+x,1/2-y,1/2+z
loop_
_atom_site_type_symbol
_atom_site_label
_atom_site_fract_x
_atom_site_fract_y
_atom_site_fract_z
Si Si1 0.886145 0.126604 0.833353
Si Si2 0.354351 0.846700 0.129551
Si Si3 0.000000 0.065847 0.750000
Si Si4 0.875904 0.221639 0.310653
Si Si5 0.144484 0.942941 0.983944
Si Si6 0.841187 0.279530 0.511106
O O1 0.965928 0.106518 0.818040
O O2 0.869979 0.068761 0.900461
O O3 0.734457 0.154862 0.615440
O O4 0.977795 0.182251 0.007002
O O5 0.500000 0.865737 0.250000
O O6 0.385714 0.788244 0.254713
O O7 0.275773 0.904175 0.096938
O O8 0.244555 0.819301 0.900694
O O9 0.869750 0.017209 0.565114
O O10 0.839264 0.236696 0.395649
O O11 0.000000 0.914886 0.750000
O O12 0.750000 0.250000 0.500000
O O13 0.000000 0.286805 0.750000
#
# Coordination Sequence:
#
# PCOD9290347 Si02
#       6
#     8   8   4   8   8   8
#     4  12  21  41  65  91 127 167 214 263 307 385
#     4  11  23  36  63  99 130 161 209 269 325 376
#     4  10  24  42  68  90 118 174 230 256 302 374
#     4  11  22  37  62  93 133 170 202 254 330 382
#     4  10  22  41  65  92 117 166 220 261 308 364
#     4  12  24  37  58  92 136 171 200 249 321 392
#
# _framework density 18.810980000000001
#
# number of rings (size 3 to 8) (size 9 to 14) (size 15 to 20)
#    0.545    0.364    5.455    2.727    2.545    0.000 
#    0.000    0.909    0.000    3.273    0.000    0.000 
#    0.000    0.000    0.000    0.000    0.000    0.000 
#
# Total GULP energy -122845.979271 kJ/mol
# GULP energy per Si atom -5583.908149 kJ/mol
# Density = 1.876816 g / cm^3
# Si number density = 18.810980 Si / 1000 Ang^3
#
#
#
# Elastic Constant Matrix: (Units=GPa)
#
#
# Indices 1 2 3 4 5 6 
#
# 1 88.8295 5.3182 42.7520 0.0000 -0.9011 0.0000
# 2 5.3182 48.7077 27.7146 0.0000 2.4796 0.0000
# 3 42.7520 27.7146 106.8942 0.0000 2.6744 0.0000
# 4 0.0000 0.0000 0.0000 18.7577 0.0000 -4.4631
# 5 -0.9011 2.4796 2.6744 0.0000 41.0391 0.0000
# 6 0.0000 0.0000 0.0000 -4.4631 0.0000 16.7372
#
#
#
# Elastic Compliance Matrix: (Units=1/GPa)
#
#
# Indices 1 2 3 4 5 6 
#
# 1 0.014113 0.001934 -0.006161 0.000000 0.000594 0.000000
# 2 0.001934 0.024394 -0.007074 0.000000 -0.000970 0.000000
# 3 -0.006161 -0.007074 0.013668 0.000000 -0.000599 0.000000
# 4 0.000000 0.000000 0.000000 0.056923 0.000000 0.015179
# 5 0.000594 -0.000970 -0.000599 0.000000 0.024478 0.000000
# 6 0.000000 0.000000 0.000000 0.015179 0.000000 0.063795
#
#
# Mechanical properties :
#
#
# Convention : Reuss Voigt Hill
#
# Bulk Modulus (GPa) = 33.81362 44.00011 38.90686
# Shear Modulus (GPa) = 21.75529 26.54991 24.15260
#
# Velocity S-wave (km/s) = 3.40445 3.76094 3.58713
# Velocity P-wave (km/s) = 5.78517 6.50392 6.15505
#
# Compressibility (1/GPa) = 0.02957389
#
# Stress axis : x y z
#
# Youngs Moduli (GPa) = 70.85770 40.99385 73.16331
#
# Poissons Ratio (x) = -0.07929 0.45074
# Poissons Ratio (y) = -0.13706 0.51755
# Poissons Ratio (z) = 0.43654 0.28999
#
# Static dielectric constant tensor:
#      x y z
#    x 1.647590 0.000000 -0.020630 
#    y 0.000000 1.650120 0.000000 
#    z -0.020630 0.000000 1.650230 
# 
# From -- ./inp_files/108015.got.cif
#   From: 2010.05.17/outbox.cif.g08.bks.cpg/sg15_55_cif.got.tgz:108015.got - 2010.06.03 18:47:42.
