data_PCOD9290642
_publ_section_title
;
Structure prediction by ZEFSAII (Michael W. Deem and Ramdas Pophale) SiO2 
 PCOD9290642
Probable space group: C 2/C
;
_chemical_formula_sum "Si O2"
_cell_formula_units_Z 40
_cell_length_a 9.085352
_cell_length_b 10.681087
_cell_length_c 15.089097
_cell_angle_alpha 90.000000
_cell_angle_beta 97.518805
_cell_angle_gamma 90.000000
_cell_volume 1451.677808
_symmetry_space_group_name_H-M "C 2/C"
_symmetry_group_IT_number 15
_symmetry_cell_setting 'monoclinic'
loop_
_space_group_symop_operation_xyz
x,y,z
-x,y,1/2-z
-x,-y,-z
x,-y,1/2+z
1/2+x,1/2+y,z
1/2-x,1/2+y,1/2-z
1/2-x,1/2-y,-z
1/2+x,1/2-y,1/2+z
loop_
_atom_site_type_symbol
_atom_site_label
_atom_site_fract_x
_atom_site_fract_y
_atom_site_fract_z
Si Si1 0.067224 0.303378 0.157979
Si Si2 0.648887 0.270415 0.219347
Si Si3 0.178350 0.355401 0.556104
Si Si4 0.379947 0.959437 0.582361
Si Si5 0.403129 0.537604 0.333098
O O1 0.240774 0.321182 0.195775
O O2 0.041430 0.165436 0.113748
O O3 0.000000 0.296656 0.250000
O O4 0.983990 0.421276 0.111970
O O5 0.500000 0.219475 0.250000
O O6 0.727765 0.171215 0.160772
O O7 0.601178 0.387856 0.152915
O O8 0.250000 0.250000 0.500000
O O9 0.212768 0.486902 0.509369
O O10 0.998003 0.356520 0.559831
O O11 0.272531 0.938453 0.656807
O O12 0.500000 0.538234 0.250000
#
# Coordination Sequence:
#
# PCOD9290642 Si02
#       5
#     8   8   8   8   8
#     4  11  22  41  69 106 136 180 240 286 349 422
#     4  11  23  42  70 100 142 186 235 298 355 420
#     4  11  23  45  72 105 144 191 237 290 362 431
#     4  11  24  45  73 102 145 192 237 296 361 420
#     4  10  22  41  68 104 143 180 245 296 354 424
#
# _framework density 27.554321000000002
#
# number of rings (size 3 to 8) (size 9 to 14) (size 15 to 20)
#    0.000    1.200    4.000    1.200    2.800    0.800 
#    3.600   10.000    0.000    0.000    0.000    1.400 
#    0.000    0.000    0.000    0.000    0.000    0.000 
#
# Total GULP energy -111351.477141 kJ/mol
# GULP energy per Si atom -5567.573857 kJ/mol
# Density = 2.749161 g / cm^3
# Si number density = 27.554321 Si / 1000 Ang^3
#
#
#
# Elastic Constant Matrix: (Units=GPa)
#
#
# Indices 1 2 3 4 5 6 
#
# 1 175.1289 44.7929 61.9711 0.0000 -42.2115 0.0000
# 2 44.7929 141.8121 33.9456 0.0000 0.8442 0.0000
# 3 61.9711 33.9456 121.7392 0.0000 -31.1516 0.0000
# 4 0.0000 0.0000 0.0000 43.2025 0.0000 3.7018
# 5 -42.2115 0.8442 -31.1516 0.0000 48.6016 0.0000
# 6 0.0000 0.0000 0.0000 3.7018 0.0000 58.4359
#
#
#
# Elastic Compliance Matrix: (Units=1/GPa)
#
#
# Indices 1 2 3 4 5 6 
#
# 1 0.008492 -0.002199 -0.002168 0.000000 0.006024 0.000000
# 2 -0.002199 0.008255 -0.002043 0.000000 -0.003363 0.000000
# 3 -0.002168 -0.002043 0.011262 0.000000 0.005371 0.000000
# 4 0.000000 0.000000 0.000000 0.023273 0.000000 -0.001474
# 5 0.006024 -0.003363 0.005371 0.000000 0.029308 0.000000
# 6 0.000000 0.000000 0.000000 -0.001474 0.000000 0.017206
#
#
# Mechanical properties :
#
#
# Convention : Reuss Voigt Hill
#
# Bulk Modulus (GPa) = 65.83864 80.01105 72.92485
# Shear Modulus (GPa) = 43.22297 49.91271 46.56784
#
# Velocity S-wave (km/s) = 3.96491 4.26071 4.11547
# Velocity P-wave (km/s) = 6.70124 7.30106 7.00757
#
# Compressibility (1/GPa) = 0.01518865
#
# Stress axis : x y z
#
# Youngs Moduli (GPa) = 117.76299 121.13549 88.79470
#
# Poissons Ratio (x) = 0.26639 0.19251
# Poissons Ratio (y) = 0.25897 0.18140
# Poissons Ratio (z) = 0.25532 0.24747
#
# Static dielectric constant tensor:
#      x y z
#    x 2.363540 0.000000 0.268220 
#    y 0.000000 2.164890 0.000000 
#    z 0.268220 0.000000 2.324840 
# 
# From -- ./inp_files/187836.got.cif
#   From: 2010.05.17/outbox.cif.g08.bks.cpg/sg15_94_cif.got.tgz:187836.got - 2010.06.03 18:47:42.
