data_PCOD9290134
_publ_section_title
;
Structure prediction by ZEFSAII (Michael W. Deem and Ramdas Pophale) SiO2 
 PCOD9290134
Probable space group: C 2/C
;
_chemical_formula_sum "Si O2"
_cell_formula_units_Z 36
_cell_length_a 14.808766
_cell_length_b 8.231094
_cell_length_c 14.028860
_cell_angle_alpha 90.000000
_cell_angle_beta 89.821602
_cell_angle_gamma 90.000000
_cell_volume 1710.002354
_symmetry_space_group_name_H-M "C 2/C"
_symmetry_group_IT_number 15
_symmetry_cell_setting 'monoclinic'
loop_
_space_group_symop_operation_xyz
x,y,z
-x,y,1/2-z
-x,-y,-z
x,-y,1/2+z
1/2+x,1/2+y,z
1/2-x,1/2+y,1/2-z
1/2-x,1/2-y,-z
1/2+x,1/2-y,1/2+z
loop_
_atom_site_type_symbol
_atom_site_label
_atom_site_fract_x
_atom_site_fract_y
_atom_site_fract_z
Si Si1 0.101599 0.919682 0.356808
Si Si2 0.425317 0.053597 0.076490
Si Si3 0.500000 0.152257 0.750000
Si Si4 0.234572 0.056221 0.499549
Si Si5 0.913336 0.053809 0.347469
O O1 0.079611 0.741422 0.394398
O O2 0.192393 0.994167 0.400481
O O3 0.103271 0.934323 0.242387
O O4 0.014160 0.024882 0.386609
O O5 0.448614 0.953289 0.171580
O O6 0.500000 0.000000 0.000000
O O7 0.329872 0.015956 0.028860
O O8 0.574878 0.267549 0.698202
O O9 0.250000 0.250000 0.500000
O O10 0.161448 0.987631 0.575467
#
# Coordination Sequence:
#
# PCOD9290134 Si02
#       5
#     8   8   4   8   8
#     4  10  22  41  62  93 127 162 209 265 318 381
#     4  12  25  40  62  92 128 170 212 263 317 377
#     4  10  22  44  66  90 128 174 214 262 320 380
#     4  12  24  40  65  94 125 167 211 264 323 381
#     4  10  22  42  66  91 123 165 211 262 318 382
#
# _framework density 21.052602
#
# number of rings (size 3 to 8) (size 9 to 14) (size 15 to 20)
#    0.000    1.333    0.000    8.000    0.000    5.333 
#    0.000    0.000    0.000    0.000    0.000    0.000 
#    0.000    0.000    0.000    0.000    0.000    0.000 
#
# Total GULP energy -100607.815749 kJ/mol
# GULP energy per Si atom -5589.323097 kJ/mol
# Density = 2.100469 g / cm^3
# Si number density = 21.052602 Si / 1000 Ang^3
#
#
#
# Elastic Constant Matrix: (Units=GPa)
#
#
# Indices 1 2 3 4 5 6 
#
# 1 117.4931 8.3661 27.3493 0.0000 26.0266 0.0000
# 2 8.3661 119.7007 17.3947 0.0000 23.3249 0.0000
# 3 27.3493 17.3947 71.8279 0.0000 29.3772 0.0000
# 4 0.0000 0.0000 0.0000 34.3629 0.0000 12.2221
# 5 26.0266 23.3249 29.3772 0.0000 39.4110 0.0000
# 6 0.0000 0.0000 0.0000 12.2221 0.0000 29.4092
#
#
#
# Elastic Compliance Matrix: (Units=1/GPa)
#
#
# Indices 1 2 3 4 5 6 
#
# 1 0.010145 0.000674 -0.001615 0.000000 -0.005895 0.000000
# 2 0.000674 0.009488 -0.000109 0.000000 -0.005980 0.000000
# 3 -0.001615 -0.000109 0.020285 0.000000 -0.013990 0.000000
# 4 0.000000 0.000000 0.000000 0.034149 0.000000 -0.014192
# 5 -0.005895 -0.005980 -0.013990 0.000000 0.043233 0.000000
# 6 0.000000 0.000000 0.000000 -0.014192 0.000000 0.039901
#
#
# Mechanical properties :
#
#
# Convention : Reuss Voigt Hill
#
# Bulk Modulus (GPa) = 26.44203 46.13800 36.29002
# Shear Modulus (GPa) = 29.08548 37.69738 33.39143
#
# Velocity S-wave (km/s) = 3.72097 4.23617 3.98690
# Velocity P-wave (km/s) = 5.57208 6.77422 6.20234
#
# Compressibility (1/GPa) = 0.03781857
#
# Stress axis : x y z
#
# Youngs Moduli (GPa) = 98.57211 105.39586 49.29697
#
# Poissons Ratio (x) = -0.07107 0.07962
# Poissons Ratio (y) = -0.06647 0.00537
# Poissons Ratio (z) = 0.15921 0.01148
#
# Static dielectric constant tensor:
#      x y z
#    x 1.720260 0.000000 -0.011290 
#    y 0.000000 1.860840 0.000000 
#    z -0.011290 0.000000 1.796700 
# 
# From -- ./inp_files/150318.got.cif
#   From: 2010.05.17/outbox.cif.g08.bks.cpg/sg15_76_cif.got.tgz:150318.got - 2010.06.03 18:47:42.
