data_PCOD9290797
_publ_section_title
;
Structure prediction by ZEFSAII (Michael W. Deem and Ramdas Pophale) SiO2 
 PCOD9290797
Probable space group: C 2/C
;
_chemical_formula_sum "Si O2"
_cell_formula_units_Z 48
_cell_length_a 13.242779
_cell_length_b 23.061312
_cell_length_c 7.774178
_cell_angle_alpha 90.000000
_cell_angle_beta 131.358569
_cell_angle_gamma 90.000000
_cell_volume 1782.049900
_symmetry_space_group_name_H-M "C 2/C"
_symmetry_group_IT_number 15
_symmetry_cell_setting 'monoclinic'
loop_
_space_group_symop_operation_xyz
x,y,z
-x,y,1/2-z
-x,-y,-z
x,-y,1/2+z
1/2+x,1/2+y,z
1/2-x,1/2+y,1/2-z
1/2-x,1/2-y,-z
1/2+x,1/2-y,1/2+z
loop_
_atom_site_type_symbol
_atom_site_label
_atom_site_fract_x
_atom_site_fract_y
_atom_site_fract_z
Si Si1 0.951733 0.181624 0.490438
Si Si2 0.209891 0.629316 0.547221
Si Si3 0.638044 0.534019 0.622493
Si Si4 0.694497 0.743439 0.729246
Si Si5 0.724195 0.421975 0.851125
Si Si6 0.453754 0.136673 0.462874
O O1 0.831003 0.227421 0.312131
O O2 0.879850 0.121169 0.363839
O O3 0.000000 0.187539 0.750000
O O4 0.088146 0.194643 0.536417
O O5 0.332361 0.586147 0.713140
O O6 0.242703 0.697719 0.559127
O O7 0.126118 0.609734 0.289571
O O8 0.108642 0.628004 0.594050
O O9 0.500000 0.500000 0.500000
O O10 0.744518 0.483061 0.777775
O O11 0.340345 0.560242 0.040392
O O12 0.586576 0.795845 0.601214
O O13 0.867447 0.389351 0.020413
#
# Coordination Sequence:
#
# PCOD9290797 Si02
#       6
#     8   8   8   8   8   8
#     4  11  21  38  68 107 147 195 247 302 365 437
#     4  11  22  41  72 105 154 194 252 307 359 448
#     4  12  27  48  73 102 141 193 245 312 382 445
#     4  11  20  36  67 106 147 194 247 304 352 437
#     4  11  26  46  71 102 144 188 255 308 376 449
#     4  10  22  41  70 112 144 199 250 301 378 426
#
# _framework density 26.935272000000001
#
# number of rings (size 3 to 8) (size 9 to 14) (size 15 to 20)
#    0.000    1.000    1.667    6.500    0.000    2.667 
#    0.000    3.333    7.333    0.000    0.000    0.000 
#    0.000    0.000    0.000    0.000    0.000    0.000 
#
# Total GULP energy -133894.514113 kJ/mol
# GULP energy per Si atom -5578.938088 kJ/mol
# Density = 2.687397 g / cm^3
# Si number density = 26.935272 Si / 1000 Ang^3
#
#
#
# Elastic Constant Matrix: (Units=GPa)
#
#
# Indices 1 2 3 4 5 6 
#
# 1 135.5468 28.2337 50.3397 0.0000 14.8659 0.0000
# 2 28.2337 155.5506 29.8114 0.0000 12.6501 0.0000
# 3 50.3397 29.8114 83.8417 0.0000 27.0720 0.0000
# 4 0.0000 0.0000 0.0000 11.6873 0.0000 16.0185
# 5 14.8659 12.6501 27.0720 0.0000 47.3777 0.0000
# 6 0.0000 0.0000 0.0000 16.0185 0.0000 36.1671
#
#
#
# Elastic Compliance Matrix: (Units=1/GPa)
#
#
# Indices 1 2 3 4 5 6 
#
# 1 0.009568 -0.000690 -0.005628 0.000000 0.000398 0.000000
# 2 -0.000690 0.006960 -0.001876 0.000000 -0.000570 0.000000
# 3 -0.005628 -0.001876 0.018690 0.000000 -0.008413 0.000000
# 4 0.000000 0.000000 0.000000 0.217738 0.000000 -0.096436
# 5 0.000398 -0.000570 -0.008413 0.000000 0.025941 0.000000
# 6 0.000000 0.000000 0.000000 -0.096436 0.000000 0.070361
#
#
# Mechanical properties :
#
#
# Convention : Reuss Voigt Hill
#
# Bulk Modulus (GPa) = 53.11019 65.74539 59.42779
# Shear Modulus (GPa) = 13.44367 36.81671 25.13019
#
# Velocity S-wave (km/s) = 2.23650 3.70112 3.05779
# Velocity P-wave (km/s) = 5.14099 6.53651 5.88030
#
# Compressibility (1/GPa) = 0.01882878
#
# Stress axis : x y z
#
# Youngs Moduli (GPa) = 104.51862 143.67791 53.50566
#
# Poissons Ratio (x) = 0.09920 0.30110
# Poissons Ratio (y) = 0.07216 0.10039
# Poissons Ratio (z) = 0.58818 0.26958
#
# Static dielectric constant tensor:
#      x y z
#    x 2.322270 0.000000 -0.141060 
#    y 0.000000 2.069690 0.000000 
#    z -0.141060 0.000000 2.289680 
# 
# From -- ./inp_files/169372.got.cif
#   From: 2010.05.17/outbox.cif.g08.bks.cpg/sg15_85_cif.got.tgz:169372.got - 2010.06.03 18:47:42.
