data_PCOD9290125
_publ_section_title
;
Structure prediction by ZEFSAII (Michael W. Deem and Ramdas Pophale) SiO2 
 PCOD9290125
Probable space group: C 2/C
;
_chemical_formula_sum "Si O2"
_cell_formula_units_Z 60
_cell_length_a 18.340077
_cell_length_b 14.720288
_cell_length_c 12.172503
_cell_angle_alpha 90.000000
_cell_angle_beta 64.888947
_cell_angle_gamma 90.000000
_cell_volume 2975.634239
_symmetry_space_group_name_H-M "C 2/C"
_symmetry_group_IT_number 15
_symmetry_cell_setting 'monoclinic'
loop_
_space_group_symop_operation_xyz
x,y,z
-x,y,1/2-z
-x,-y,-z
x,-y,1/2+z
1/2+x,1/2+y,z
1/2-x,1/2+y,1/2-z
1/2-x,1/2-y,-z
1/2+x,1/2-y,1/2+z
loop_
_atom_site_type_symbol
_atom_site_label
_atom_site_fract_x
_atom_site_fract_y
_atom_site_fract_z
Si Si1 0.109239 0.217297 0.291081
Si Si2 0.787027 0.082123 0.705563
Si Si3 0.000000 0.083661 0.250000
Si Si4 0.921062 0.979967 0.478825
Si Si5 0.934008 0.766281 0.448028
Si Si6 0.119752 0.256975 0.759151
Si Si7 0.222878 0.603640 0.329764
Si Si8 0.686889 0.826520 0.079487
O O1 0.096179 0.268964 0.414196
O O2 0.193052 0.160712 0.234281
O O3 0.109928 0.277317 0.179903
O O4 0.038614 0.145244 0.318907
O O5 0.830113 0.164872 0.743134
O O6 0.724704 0.125244 0.660256
O O7 0.851279 0.030341 0.587914
O O8 0.744428 0.001355 0.798715
O O9 0.933094 0.022329 0.350414
O O10 0.912359 0.873044 0.469847
O O11 0.000000 0.000000 0.500000
O O12 0.891673 0.731636 0.364312
O O13 0.030097 0.755014 0.368461
O O14 0.164592 0.343877 0.782189
O O15 0.181236 0.613500 0.475401
O O16 0.750000 0.750000 0.000000
#
# Coordination Sequence:
#
# PCOD9290125 Si02
#       8
#     8   8   4   8   8   8   8   8
#     4  11  22  39  59  93 119 172 217 255 319 391
#     4  12  22  39  63  93 132 167 210 278 326 390
#     4  12  22  32  60  90 132 162 204 270 328 402
#     4  12  21  33  55  94 130 160 208 256 346 411
#     4  11  24  38  62  92 132 171 211 267 340 394
#     4  11  24  42  62  95 135 171 208 270 328 396
#     4  11  24  41  63  95 131 171 219 259 329 388
#     4  10  22  41  62  90 128 167 219 266 318 379
#
# _framework density 20.163767
#
# number of rings (size 3 to 8) (size 9 to 14) (size 15 to 20)
#    0.000    0.800    6.667    2.400    5.600    0.533 
#    2.400    0.000    0.000    2.400    0.000    0.000 
#    0.000    0.000    0.000    0.000    0.000    0.000 
#
# Total GULP energy -167490.702438 kJ/mol
# GULP energy per Si atom -5583.023415 kJ/mol
# Density = 2.011787 g / cm^3
# Si number density = 20.163767 Si / 1000 Ang^3
#
#
#
# Elastic Constant Matrix: (Units=GPa)
#
#
# Indices 1 2 3 4 5 6 
#
# 1 57.3677 20.3208 12.5137 0.0000 14.9281 0.0000
# 2 20.3208 56.7921 30.9924 0.0000 0.8841 0.0000
# 3 12.5137 30.9924 142.6331 0.0000 13.3325 0.0000
# 4 0.0000 0.0000 0.0000 31.3533 0.0000 9.9052
# 5 14.9281 0.8841 13.3325 0.0000 25.8915 0.0000
# 6 0.0000 0.0000 0.0000 9.9052 0.0000 -4.3762
#
#
#
# Elastic Compliance Matrix: (Units=1/GPa)
#
#
# Indices 1 2 3 4 5 6 
#
# 1 0.024061 -0.009030 0.001176 0.000000 -0.014170 0.000000
# 2 -0.009030 0.023432 -0.004949 0.000000 0.006955 0.000000
# 3 0.001176 -0.004949 0.008437 0.000000 -0.004853 0.000000
# 4 0.000000 0.000000 0.000000 0.018597 0.000000 0.042092
# 5 -0.014170 0.006955 -0.004853 0.000000 0.049054 0.000000
# 6 0.000000 0.000000 0.000000 0.042092 0.000000 -0.133236
#
#
# Mechanical properties :
#
#
# Convention : Reuss Voigt Hill
#
# Bulk Modulus (GPa) = 32.97943 42.71633 37.84788
# Shear Modulus (GPa) = 191.86704 23.43813 107.65258
#
# Velocity S-wave (km/s) = 9.76529 3.41308 7.31471
# Velocity P-wave (km/s) = 11.98078 6.06324 9.49479
#
# Compressibility (1/GPa) = 0.03032193
#
# Stress axis : x y z
#
# Youngs Moduli (GPa) = 41.56132 42.67698 118.52650
#
# Poissons Ratio (x) = 0.38538 -0.13935
# Poissons Ratio (y) = 0.37531 0.58662
# Poissons Ratio (z) = -0.04886 0.21122
#
# Static dielectric constant tensor:
#      x y z
#    x 1.562190 0.000000 0.326040 
#    y 0.000000 1.032500 0.000000 
#    z 0.326040 0.000000 1.214500 
# 
# From -- ./inp_files/105704.got.cif
#   From: 2010.05.17/outbox.cif.g08.bks.cpg/sg15_53_cif.got.tgz:105704.got - 2010.06.03 18:47:42.
