data_PCOD9290218
_publ_section_title
;
Structure prediction by ZEFSAII (Michael W. Deem and Ramdas Pophale) SiO2 
 PCOD9290218
Probable space group: C 2/C
;
_chemical_formula_sum "Si O2"
_cell_formula_units_Z 48
_cell_length_a 9.485276
_cell_length_b 22.614171
_cell_length_c 10.920211
_cell_angle_alpha 90.000000
_cell_angle_beta 103.549056
_cell_angle_gamma 90.000000
_cell_volume 2277.213507
_symmetry_space_group_name_H-M "C 2/C"
_symmetry_group_IT_number 15
_symmetry_cell_setting 'monoclinic'
loop_
_space_group_symop_operation_xyz
x,y,z
-x,y,1/2-z
-x,-y,-z
x,-y,1/2+z
1/2+x,1/2+y,z
1/2-x,1/2+y,1/2-z
1/2-x,1/2-y,-z
1/2+x,1/2-y,1/2+z
loop_
_atom_site_type_symbol
_atom_site_label
_atom_site_fract_x
_atom_site_fract_y
_atom_site_fract_z
Si Si1 0.833999 0.521461 0.446910
Si Si2 0.081200 0.749643 0.001128
Si Si3 0.623532 0.656663 0.691317
Si Si4 0.215615 0.238990 0.136643
Si Si5 0.324128 0.049243 0.709496
Si Si6 0.373920 0.141603 0.313847
O O1 0.774571 0.518065 0.572963
O O2 0.773702 0.481713 0.324540
O O3 0.826703 0.588296 0.392287
O O4 0.000000 0.500000 0.500000
O O5 0.055175 0.813411 0.058188
O O6 0.062725 0.694047 0.088326
O O7 0.250000 0.750000 0.000000
O O8 0.952971 0.745880 0.878089
O O9 0.500000 0.628144 0.750000
O O10 0.686150 0.713232 0.774951
O O11 0.754152 0.613479 0.690258
O O12 0.258309 0.175513 0.203320
O O13 0.250000 0.250000 0.000000
O O14 0.500000 0.051638 0.750000
O O15 0.500000 0.118002 0.250000
#
# Coordination Sequence:
#
# PCOD9290218 Si02
#       6
#     8   8   8   8   8   8
#     4  10  22  41  64 101 128 168 229 279 329 387
#     4  11  23  38  60  93 130 165 217 271 327 399
#     4  11  23  39  60  94 128 169 218 265 330 402
#     4  11  21  38  62  93 129 178 213 261 337 397
#     4  10  23  41  68  94 125 168 223 275 329 386
#     4  11  21  36  63  93 130 170 221 274 322 398
#
# _framework density 21.078392999999998
#
# number of rings (size 3 to 8) (size 9 to 14) (size 15 to 20)
#    0.000    1.333    3.333    3.500    7.000    3.333 
#    0.000    0.833    3.667    0.000    0.000    0.000 
#    0.000    0.000    0.000    0.000    0.000    0.000 
#
# Total GULP energy -133866.799908 kJ/mol
# GULP energy per Si atom -5577.783329 kJ/mol
# Density = 2.103042 g / cm^3
# Si number density = 21.078393 Si / 1000 Ang^3
#
#
#
# Elastic Constant Matrix: (Units=GPa)
#
#
# Indices 1 2 3 4 5 6 
#
# 1 65.1083 -14.5146 12.5470 0.0000 7.5331 0.0000
# 2 -14.5146 66.5891 20.1534 0.0000 5.6579 0.0000
# 3 12.5470 20.1534 94.8010 0.0000 -4.7570 0.0000
# 4 0.0000 0.0000 0.0000 28.2716 0.0000 2.2811
# 5 7.5331 5.6579 -4.7570 0.0000 32.2407 0.0000
# 6 0.0000 0.0000 0.0000 2.2811 0.0000 24.0489
#
#
#
# Elastic Compliance Matrix: (Units=1/GPa)
#
#
# Indices 1 2 3 4 5 6 
#
# 1 0.018014 0.005584 -0.003860 0.000000 -0.005759 0.000000
# 2 0.005584 0.018147 -0.004858 0.000000 -0.005206 0.000000
# 3 -0.003860 -0.004858 0.012271 0.000000 0.003565 0.000000
# 4 0.000000 0.000000 0.000000 0.035644 0.000000 -0.003381
# 5 -0.005759 -0.005206 0.003565 0.000000 0.033802 0.000000
# 6 0.000000 0.000000 0.000000 -0.003381 0.000000 0.041903
#
#
# Mechanical properties :
#
#
# Convention : Reuss Voigt Hill
#
# Bulk Modulus (GPa) = 23.71694 29.20776 26.46235
# Shear Modulus (GPa) = 27.76170 30.79973 29.28072
#
# Velocity S-wave (km/s) = 3.63308 3.82671 3.73115
# Velocity P-wave (km/s) = 5.37357 5.78029 5.58064
#
# Compressibility (1/GPa) = 0.04216395
#
# Stress axis : x y z
#
# Youngs Moduli (GPa) = 55.51207 55.10440 81.49300
#
# Poissons Ratio (x) = -0.30771 0.31458
# Poissons Ratio (y) = -0.30999 0.39591
# Poissons Ratio (z) = 0.21429 0.26771
#
# Static dielectric constant tensor:
#      x y z
#    x 1.758930 0.000000 -0.055560 
#    y 0.000000 1.741720 0.000000 
#    z -0.055560 0.000000 1.823740 
# 
# From -- ./inp_files/79783.got.cif
#   From: 2010.05.17/outbox.cif.g08.bks.cpg/sg15_40_cif.got.tgz:79783.got - 2010.06.03 18:47:42.
