data_PCOD9290581
_publ_section_title
;
Structure prediction by ZEFSAII (Michael W. Deem and Ramdas Pophale) SiO2 
 PCOD9290581
Probable space group: C 2/C
;
_chemical_formula_sum "Si O2"
_cell_formula_units_Z 52
_cell_length_a 25.789826
_cell_length_b 7.544321
_cell_length_c 10.854639
_cell_angle_alpha 90.000000
_cell_angle_beta 111.034461
_cell_angle_gamma 90.000000
_cell_volume 1971.221075
_symmetry_space_group_name_H-M "C 2/C"
_symmetry_group_IT_number 15
_symmetry_cell_setting 'monoclinic'
loop_
_space_group_symop_operation_xyz
x,y,z
-x,y,1/2-z
-x,-y,-z
x,-y,1/2+z
1/2+x,1/2+y,z
1/2-x,1/2+y,1/2-z
1/2-x,1/2-y,-z
1/2+x,1/2-y,1/2+z
loop_
_atom_site_type_symbol
_atom_site_label
_atom_site_fract_x
_atom_site_fract_y
_atom_site_fract_z
Si Si1 0.773355 0.927233 0.743044
Si Si2 0.902730 0.924402 0.549507
Si Si3 0.817066 0.677544 0.588286
Si Si4 0.910970 0.461207 0.340297
Si Si5 0.676191 0.873638 0.072985
Si Si6 0.500000 0.806132 0.250000
Si Si7 0.620523 0.633482 0.728599
O O1 0.772298 0.789598 0.626863
O O2 0.800337 0.821234 0.880154
O O3 0.712535 0.006342 0.700437
O O4 0.814887 0.081498 0.733849
O O5 0.847356 0.799619 0.511346
O O6 0.955444 0.813102 0.639950
O O7 0.908319 0.972723 0.410200
O O8 0.895094 0.073080 0.647407
O O9 0.868716 0.663702 0.728000
O O10 0.807968 0.476110 0.537298
O O11 0.888986 0.408666 0.457745
O O12 0.897086 0.665671 0.307116
O O13 0.969917 0.418874 0.331517
#
# Coordination Sequence:
#
# PCOD9290581 Si02
#       7
#     8   8   8   8   8   4   8
#     4  10  23  37  63  98 135 177 225 270 340 405
#     4  10  23  43  70  97 144 173 228 282 342 406
#     4   9  20  40  62  93 135 180 217 288 325 404
#     4  10  22  41  67  95 130 174 232 275 342 400
#     4  11  20  40  63  93 134 179 224 275 333 403
#     4  10  24  48  66 102 128 180 224 288 350 400
#     4  11  23  44  67 105 138 179 218 290 336 411
#
# _framework density 26.37959
#
# number of rings (size 3 to 8) (size 9 to 14) (size 15 to 20)
#    0.000    1.846    1.538    2.308    2.154    1.846 
#    2.769    3.846    0.000    0.000    0.000    0.000 
#    0.000    0.000    0.000    0.000    0.000    0.000 
#
# Total GULP energy -145372.191536 kJ/mol
# GULP energy per Si atom -5591.238136 kJ/mol
# Density = 2.631955 g / cm^3
# Si number density = 26.379590 Si / 1000 Ang^3
#
#
#
# Elastic Constant Matrix: (Units=GPa)
#
#
# Indices 1 2 3 4 5 6 
#
# 1 142.8003 34.6475 19.9838 0.0000 1.3999 0.0000
# 2 34.6475 85.5399 18.5652 0.0000 -0.9126 0.0000
# 3 19.9838 18.5652 105.5619 0.0000 -23.5623 0.0000
# 4 0.0000 0.0000 0.0000 46.5204 0.0000 -9.5381
# 5 1.3999 -0.9126 -23.5623 0.0000 28.9227 0.0000
# 6 0.0000 0.0000 0.0000 -9.5381 0.0000 34.4022
#
#
#
# Elastic Compliance Matrix: (Units=1/GPa)
#
#
# Indices 1 2 3 4 5 6 
#
# 1 0.007916 -0.002934 -0.001331 0.000000 -0.001560 0.000000
# 2 -0.002934 0.013308 -0.002028 0.000000 -0.001090 0.000000
# 3 -0.001331 -0.002028 0.012323 0.000000 0.010039 0.000000
# 4 0.000000 0.000000 0.000000 0.022792 0.000000 0.006319
# 5 -0.001560 -0.001090 0.010039 0.000000 0.042795 0.000000
# 6 0.000000 0.000000 0.000000 0.006319 0.000000 0.030820
#
#
# Mechanical properties :
#
#
# Convention : Reuss Voigt Hill
#
# Bulk Modulus (GPa) = 47.71056 53.36612 50.53834
# Shear Modulus (GPa) = 33.43911 39.34943 36.39427
#
# Velocity S-wave (km/s) = 3.56422 3.86639 3.71838
# Velocity P-wave (km/s) = 5.92145 6.34082 6.13472
#
# Compressibility (1/GPa) = 0.02095972
#
# Stress axis : x y z
#
# Youngs Moduli (GPa) = 126.32261 75.14538 81.15187
#
# Poissons Ratio (x) = 0.22050 0.10799
# Poissons Ratio (y) = 0.37066 0.16460
# Poissons Ratio (z) = 0.16810 0.15242
#
# Static dielectric constant tensor:
#      x y z
#    x 2.096830 0.000000 -0.013460 
#    y 0.000000 2.087290 0.000000 
#    z -0.013460 0.000000 2.246690 
# 
# From -- ./inp_files/125653.got.cif
#   From: 2010.05.17/outbox.cif.g08.bks.cpg/sg15_63_cif.got.tgz:125653.got - 2010.06.03 18:47:42.
