data_PCOD9290900
_publ_section_title
;
Structure prediction by ZEFSAII (Michael W. Deem and Ramdas Pophale) SiO2 
 PCOD9290900
Probable space group: C 2/C
;
_chemical_formula_sum "Si O2"
_cell_formula_units_Z 28
_cell_length_a 7.844913
_cell_length_b 26.601891
_cell_length_c 5.625734
_cell_angle_alpha 90.000000
_cell_angle_beta 66.570369
_cell_angle_gamma 90.000000
_cell_volume 1077.231775
_symmetry_space_group_name_H-M "C 2/C"
_symmetry_group_IT_number 15
_symmetry_cell_setting 'monoclinic'
loop_
_space_group_symop_operation_xyz
x,y,z
-x,y,1/2-z
-x,-y,-z
x,-y,1/2+z
1/2+x,1/2+y,z
1/2-x,1/2+y,1/2-z
1/2-x,1/2-y,-z
1/2+x,1/2-y,1/2+z
loop_
_atom_site_type_symbol
_atom_site_label
_atom_site_fract_x
_atom_site_fract_y
_atom_site_fract_z
Si Si1 0.283802 0.198585 0.335998
Si Si2 0.000000 0.874085 0.250000
Si Si3 0.712489 0.019166 0.334505
Si Si4 0.707923 0.123271 0.532073
O O1 0.500000 0.186817 0.250000
O O2 0.250000 0.250000 0.500000
O O3 0.145395 0.161220 0.537724
O O4 0.251109 0.180644 0.079030
O O5 0.135260 0.896479 0.373672
O O6 0.708769 0.079720 0.332956
O O7 0.500000 0.000000 0.500000
O O8 0.794549 0.999417 0.539347
O O9 0.500000 0.122935 0.750000
#
# Coordination Sequence:
#
# PCOD9290900 Si02
#       4
#     8   4   8   8
#     4  12  27  51  81 115 160 214 278 346 423 493
#     4  12  28  50  76 120 160 216 282 336 424 506
#     4  10  22  41  78 121 165 215 282 339 424 500
#     4  12  26  48  83 114 167 223 270 352 423 498
#
# _framework density 25.992550000000001
#
# number of rings (size 3 to 8) (size 9 to 14) (size 15 to 20)
#    0.000    0.571    7.143    0.857    8.000    1.143 
#    5.143    1.429    0.000    0.000    0.000    0.000 
#    0.000    0.000    0.000    0.000    0.000    0.000 
#
# Total GULP energy -78097.322209 kJ/mol
# GULP energy per Si atom -5578.380158 kJ/mol
# Density = 2.593339 g / cm^3
# Si number density = 25.992550 Si / 1000 Ang^3
#
#
#
# Elastic Constant Matrix: (Units=GPa)
#
#
# Indices 1 2 3 4 5 6 
#
# 1 167.6633 34.0183 35.0664 0.0000 -5.4936 0.0000
# 2 34.0183 144.0878 56.5551 0.0000 13.3216 0.0000
# 3 35.0664 56.5551 143.0611 0.0000 10.3195 0.0000
# 4 0.0000 0.0000 0.0000 33.8681 0.0000 -9.2937
# 5 -5.4936 13.3216 10.3195 0.0000 48.8252 0.0000
# 6 0.0000 0.0000 0.0000 -9.2937 0.0000 -21.1201
#
#
#
# Elastic Compliance Matrix: (Units=1/GPa)
#
#
# Indices 1 2 3 4 5 6 
#
# 1 0.006502 -0.001176 -0.001223 0.000000 0.001311 0.000000
# 2 -0.001176 0.008549 -0.002959 0.000000 -0.001840 0.000000
# 3 -0.001223 -0.002959 0.008541 0.000000 -0.001136 0.000000
# 4 0.000000 0.000000 0.000000 0.026345 0.000000 -0.011593
# 5 0.001311 -0.001840 -0.001136 0.000000 0.021371 0.000000
# 6 0.000000 0.000000 0.000000 -0.011593 0.000000 -0.042247
#
#
# Mechanical properties :
#
#
# Convention : Reuss Voigt Hill
#
# Bulk Modulus (GPa) = 77.66258 78.45464 78.05861
# Shear Modulus (GPa) = 113.45640 34.25946 73.85793
#
# Velocity S-wave (km/s) = 6.61395 3.63443 5.33636
# Velocity P-wave (km/s) = 9.39518 6.91818 8.25017
#
# Compressibility (1/GPa) = 0.01287621
#
# Stress axis : x y z
#
# Youngs Moduli (GPa) = 153.80442 116.96897 117.07620
#
# Poissons Ratio (x) = 0.13756 0.14322
# Poissons Ratio (y) = 0.18089 0.34640
# Poissons Ratio (z) = 0.18815 0.34608
#
# Static dielectric constant tensor:
#      x y z
#    x 2.118200 0.000000 0.245750 
#    y 0.000000 1.908050 0.000000 
#    z 0.245750 0.000000 2.092330 
# 
# From -- ./inp_files/2326.got.cif
#   From: 2010.05.17/outbox.cif.g08.bks.cpg/sg15_2_cif.got.tgz:2326.got - 2010.06.03 18:47:42.
