data_PCOD9290439
_publ_section_title
;
Structure prediction by ZEFSAII (Michael W. Deem and Ramdas Pophale) SiO2 
 PCOD9290439
Probable space group: C 2/C
;
_chemical_formula_sum "Si O2"
_cell_formula_units_Z 48
_cell_length_a 5.315763
_cell_length_b 16.002625
_cell_length_c 24.203566
_cell_angle_alpha 90.000000
_cell_angle_beta 61.144812
_cell_angle_gamma 90.000000
_cell_volume 1803.275502
_symmetry_space_group_name_H-M "C 2/C"
_symmetry_group_IT_number 15
_symmetry_cell_setting 'monoclinic'
loop_
_space_group_symop_operation_xyz
x,y,z
-x,y,1/2-z
-x,-y,-z
x,-y,1/2+z
1/2+x,1/2+y,z
1/2-x,1/2+y,1/2-z
1/2-x,1/2-y,-z
1/2+x,1/2-y,1/2+z
loop_
_atom_site_type_symbol
_atom_site_label
_atom_site_fract_x
_atom_site_fract_y
_atom_site_fract_z
Si Si1 0.992063 0.443902 0.674898
Si Si2 0.380777 0.232364 0.339941
Si Si3 0.002926 0.143064 0.919221
Si Si4 0.826485 0.972413 0.901788
Si Si5 0.094113 0.375999 0.301701
Si Si6 0.419461 0.333177 0.967233
O O1 0.935548 0.347744 0.699338
O O2 0.331750 0.460622 0.649352
O O3 0.825185 0.526048 0.714828
O O4 0.892908 0.443149 0.621636
O O5 0.492896 0.272957 0.384790
O O6 0.301281 0.308652 0.308281
O O7 0.088773 0.192733 0.394287
O O8 0.332038 0.117677 0.873095
O O9 0.810188 0.071429 0.912598
O O10 0.924437 0.149584 0.991358
O O11 0.777380 0.919373 0.962629
O O12 0.000000 0.346507 0.250000
O O13 0.250000 0.250000 0.000000
#
# Coordination Sequence:
#
# PCOD9290439 Si02
#       6
#     8   8   8   8   8   8
#     4  10  23  45  68  98 139 178 231 291 346 425
#     4  11  23  43  71 101 139 186 236 294 367 436
#     4  11  22  42  68  99 143 184 238 294 363 438
#     4  10  22  41  66 101 138 183 227 280 355 424
#     4  11  25  48  68 100 137 189 242 302 360 427
#     4  11  21  38  66 104 143 185 231 296 360 445
#
# _framework density 26.618230000000001
#
# number of rings (size 3 to 8) (size 9 to 14) (size 15 to 20)
#    0.000    1.333    3.333    2.000    2.333    2.000 
#    3.000    5.833    0.000    0.000    0.000    0.000 
#    0.000    0.000    0.000    0.000    0.000    0.000 
#
# Total GULP energy -134012.711542 kJ/mol
# GULP energy per Si atom -5583.862981 kJ/mol
# Density = 2.655765 g / cm^3
# Si number density = 26.618230 Si / 1000 Ang^3
#
#
#
# Elastic Constant Matrix: (Units=GPa)
#
#
# Indices 1 2 3 4 5 6 
#
# 1 69.6984 16.6212 43.5727 0.0000 11.9023 0.0000
# 2 16.6212 190.8669 47.6608 0.0000 22.8538 0.0000
# 3 43.5727 47.6608 122.4106 0.0000 31.9918 0.0000
# 4 0.0000 0.0000 0.0000 -200.7279 0.0000 -67.1528
# 5 11.9023 22.8538 31.9918 0.0000 58.5499 0.0000
# 6 0.0000 0.0000 0.0000 -67.1528 0.0000 -13.7648
#
#
#
# Elastic Compliance Matrix: (Units=1/GPa)
#
#
# Indices 1 2 3 4 5 6 
#
# 1 0.018456 0.000049 -0.006537 0.000000 -0.000199 0.000000
# 2 0.000049 0.005877 -0.001987 0.000000 -0.001218 0.000000
# 3 -0.006537 -0.001987 0.012505 0.000000 -0.004729 0.000000
# 4 0.000000 0.000000 0.000000 0.007881 0.000000 -0.038449
# 5 -0.000199 -0.001218 -0.004729 0.000000 0.020179 0.000000
# 6 0.000000 0.000000 0.000000 -0.038449 0.000000 0.114930
#
#
# Mechanical properties :
#
#
# Convention : Reuss Voigt Hill
#
# Bulk Modulus (GPa) = 50.27918 66.52058 58.39988
# Shear Modulus (GPa) = 24.58105 -12.84713 5.86696
#
# Velocity S-wave (km/s) = 3.04216 -2.19930 1.48624
# Velocity P-wave (km/s) = 5.59193 4.31227 4.99326
#
# Compressibility (1/GPa) = 0.01988895
#
# Stress axis : x y z
#
# Youngs Moduli (GPa) = 54.18202 170.15227 79.96482
#
# Poissons Ratio (x) = -0.00831 0.52269
# Poissons Ratio (y) = -0.00265 0.15891
# Poissons Ratio (z) = 0.35416 0.33815
#
# Static dielectric constant tensor:
#      x y z
#    x 2.189750 0.000000 -0.085040 
#    y 0.000000 2.262400 0.000000 
#    z -0.085040 0.000000 2.102470 
# 
# From -- ./inp_files/260659.got.cif
#   From: 2010.05.17/outbox.cif.g08.bks.cpg/sg15_131_cif.got.tgz:260659.got - 2010.06.03 18:47:42.
