data_PCOD9290469
_publ_section_title
;
Structure prediction by ZEFSAII (Michael W. Deem and Ramdas Pophale) SiO2 
 PCOD9290469
Probable space group: C 2/C
;
_chemical_formula_sum "Si O2"
_cell_formula_units_Z 44
_cell_length_a 14.909579
_cell_length_b 27.310780
_cell_length_c 13.572722
_cell_angle_alpha 90.000000
_cell_angle_beta 158.613934
_cell_angle_gamma 90.000000
_cell_volume 2015.315608
_symmetry_space_group_name_H-M "C 2/C"
_symmetry_group_IT_number 15
_symmetry_cell_setting 'monoclinic'
loop_
_space_group_symop_operation_xyz
x,y,z
-x,y,1/2-z
-x,-y,-z
x,-y,1/2+z
1/2+x,1/2+y,z
1/2-x,1/2+y,1/2-z
1/2-x,1/2-y,-z
1/2+x,1/2-y,1/2+z
loop_
_atom_site_type_symbol
_atom_site_label
_atom_site_fract_x
_atom_site_fract_y
_atom_site_fract_z
Si Si1 0.686453 0.447909 0.797076
Si Si2 0.978421 0.217426 0.612861
Si Si3 0.318850 0.936992 0.299243
Si Si4 0.500000 0.279851 0.750000
Si Si5 0.254546 0.458346 0.050763
Si Si6 0.973406 0.152718 0.033308
O O1 0.407386 0.463895 0.486651
O O2 0.658283 0.389506 0.763594
O O3 0.751124 0.482004 0.954979
O O4 0.912678 0.455324 0.953822
O O5 0.725612 0.249481 0.348926
O O6 0.971759 0.177296 0.517153
O O7 0.000000 0.199332 0.750000
O O8 0.247937 0.943202 0.339108
O O9 0.276249 0.879583 0.230895
O O10 0.250000 0.250000 0.500000
O O11 0.529448 0.309338 0.881778
O O12 0.000000 0.438781 0.750000
O O13 0.500000 0.440877 0.250000
#
# Coordination Sequence:
#
# PCOD9290469 Si02
#       6
#     8   8   8   4   8   8
#     4  10  23  40  65  89 131 176 219 271 323 398
#     4  10  22  41  66  93 125 167 211 262 330 397
#     4  10  23  42  64  91 131 173 219 268 327 394
#     4  12  28  44  68 100 136 174 220 278 342 400
#     4  12  24  40  65  97 133 176 220 272 331 394
#     4  10  26  41  71  93 135 167 222 271 331 386
#
# _framework density 21.832809000000001
#
# number of rings (size 3 to 8) (size 9 to 14) (size 15 to 20)
#    1.091    0.364    0.000    4.364    6.364    0.727 
#    0.000    0.000    0.000    0.000    0.000    0.000 
#    0.000    0.000    0.000    0.000    0.000    0.000 
#
# Total GULP energy -122510.980266 kJ/mol
# GULP energy per Si atom -5568.680921 kJ/mol
# Density = 2.178312 g / cm^3
# Si number density = 21.832809 Si / 1000 Ang^3
#
#
#
# Elastic Constant Matrix: (Units=GPa)
#
#
# Indices 1 2 3 4 5 6 
#
# 1 116.2512 22.0752 42.4765 -0.0001 9.8436 0.0000
# 2 22.0752 71.1627 22.4712 -0.0001 4.2687 0.0000
# 3 42.4765 22.4712 139.5797 -0.0003 23.8026 -0.0002
# 4 -0.0001 -0.0001 -0.0003 18.4230 -0.0003 -1.8036
# 5 9.8436 4.2687 23.8026 -0.0003 44.3448 -0.0002
# 6 0.0000 0.0000 -0.0002 -1.8036 -0.0002 8.4378
#
#
#
# Elastic Compliance Matrix: (Units=1/GPa)
#
#
# Indices 1 2 3 4 5 6 
#
# 1 0.010027 -0.002258 -0.002582 0.000000 -0.000623 0.000000
# 2 -0.002258 0.015314 -0.001775 0.000000 -0.000020 0.000000
# 3 -0.002582 -0.001775 0.008926 0.000000 -0.004047 0.000000
# 4 0.000000 0.000000 0.000000 0.055440 0.000000 0.011851
# 5 -0.000623 -0.000020 -0.004047 0.000000 0.024863 0.000000
# 6 0.000000 0.000000 0.000000 0.011851 0.000000 0.121048
#
#
# Mechanical properties :
#
#
# Convention : Reuss Voigt Hill
#
# Bulk Modulus (GPa) = 47.53240 55.67105 51.60173
# Shear Modulus (GPa) = 19.54198 30.23917 24.89057
#
# Velocity S-wave (km/s) = 2.99502 3.72564 3.38013
# Velocity P-wave (km/s) = 5.81193 6.63787 6.23859
#
# Compressibility (1/GPa) = 0.02103828
#
# Stress axis : x y z
#
# Youngs Moduli (GPa) = 99.73246 65.29806 112.03322
#
# Poissons Ratio (x) = 0.14743 0.28923
# Poissons Ratio (y) = 0.22518 0.19885
# Poissons Ratio (z) = 0.25747 0.11590
#
# Static dielectric constant tensor:
#      x y z
#    x 1.893750 0.000000 -0.273410 
#    y 0.000000 1.899420 0.000010 
#    z -0.273410 0.000010 2.337210 
# 
# From -- ./inp_files/157553.got.cif
#   From: 2010.05.17/outbox.cif.g08.bks.cpg/sg15_79_cif.got.tgz:157553.got - 2010.06.03 18:47:42.
