data_PCOD9290826
_publ_section_title
;
Structure prediction by ZEFSAII (Michael W. Deem and Ramdas Pophale) SiO2 
 PCOD9290826
Probable space group: C 2/C
;
_chemical_formula_sum "Si O2"
_cell_formula_units_Z 52
_cell_length_a 16.866722
_cell_length_b 9.661683
_cell_length_c 22.031158
_cell_angle_alpha 90.000000
_cell_angle_beta 42.522240
_cell_angle_gamma 90.000000
_cell_volume 2426.543266
_symmetry_space_group_name_H-M "C 2/C"
_symmetry_group_IT_number 15
_symmetry_cell_setting 'monoclinic'
loop_
_space_group_symop_operation_xyz
x,y,z
-x,y,1/2-z
-x,-y,-z
x,-y,1/2+z
1/2+x,1/2+y,z
1/2-x,1/2+y,1/2-z
1/2-x,1/2-y,-z
1/2+x,1/2-y,1/2+z
loop_
_atom_site_type_symbol
_atom_site_label
_atom_site_fract_x
_atom_site_fract_y
_atom_site_fract_z
Si Si1 0.785839 0.465716 0.799658
Si Si2 0.500000 0.892048 0.750000
Si Si3 0.092102 0.974817 0.000825
Si Si4 0.200799 0.769964 0.742401
Si Si5 0.634825 0.322136 0.090872
Si Si6 0.220159 0.891958 0.598266
Si Si7 0.078716 0.254688 0.079279
O O1 0.706195 0.422990 0.901524
O O2 0.749194 0.616350 0.796272
O O3 0.765736 0.353101 0.759000
O O4 0.915325 0.478207 0.754241
O O5 0.430362 0.789739 0.832936
O O6 0.061138 0.875399 0.074071
O O7 0.115330 0.122293 0.018197
O O8 0.000000 0.000000 0.000000
O O9 0.216383 0.855726 0.671218
O O10 0.062177 0.749550 0.837158
O O11 0.668683 0.457694 0.111048
O O12 0.750000 0.250000 0.000000
O O13 0.137481 0.778528 0.611000
O O14 0.349606 0.877565 0.494202
#
# Coordination Sequence:
#
# PCOD9290826 Si02
#       7
#     8   4   8   8   8   8   8
#     4  12  29  46  73 106 145 192 242 300 369 432
#     4  12  30  48  72 104 146 194 248 302 368 436
#     4  11  22  45  69  98 141 186 236 294 361 427
#     4  12  27  45  72 104 147 185 241 299 360 433
#     4  11  26  44  70 103 147 190 240 298 361 430
#     4  10  24  41  71 105 140 186 243 286 362 435
#     4  10  22  41  71 101 136 187 233 293 352 426
#
# _framework density 21.429662
#
# number of rings (size 3 to 8) (size 9 to 14) (size 15 to 20)
#    0.000    0.923    4.615    0.462   12.923    0.000 
#    0.000    0.769    0.000    0.000    0.000    0.000 
#    0.000    0.000    0.000    0.000    0.000    0.000 
#
# Total GULP energy -145330.063576 kJ/mol
# GULP energy per Si atom -5589.617830 kJ/mol
# Density = 2.138089 g / cm^3
# Si number density = 21.429662 Si / 1000 Ang^3
#
#
#
# Elastic Constant Matrix: (Units=GPa)
#
#
# Indices 1 2 3 4 5 6 
#
# 1 115.9249 27.9740 26.9538 0.0000 14.3992 0.0000
# 2 27.9740 69.3385 6.2930 0.0000 27.3393 0.0000
# 3 26.9538 6.2930 80.2875 0.0000 18.4519 0.0000
# 4 0.0000 0.0000 0.0000 34.8726 0.0000 4.9929
# 5 14.3992 27.3393 18.4519 0.0000 36.2016 0.0000
# 6 0.0000 0.0000 0.0000 4.9929 0.0000 24.1749
#
#
#
# Elastic Compliance Matrix: (Units=1/GPa)
#
#
# Indices 1 2 3 4 5 6 
#
# 1 0.010303 -0.004136 -0.003297 0.000000 0.000706 0.000000
# 2 -0.004136 0.022551 0.003576 0.000000 -0.017208 0.000000
# 3 -0.003297 0.003576 0.015406 0.000000 -0.009241 0.000000
# 4 0.000000 0.000000 0.000000 0.029550 0.000000 -0.006103
# 5 0.000706 -0.017208 -0.009241 0.000000 0.045048 0.000000
# 6 0.000000 0.000000 0.000000 -0.006103 0.000000 0.042626
#
#
# Mechanical properties :
#
#
# Convention : Reuss Voigt Hill
#
# Bulk Modulus (GPa) = 24.66364 43.11027 33.88696
# Shear Modulus (GPa) = 26.77921 32.67184 29.72553
#
# Velocity S-wave (km/s) = 3.53885 3.90886 3.72845
# Velocity P-wave (km/s) = 5.31338 6.36655 5.86366
#
# Compressibility (1/GPa) = 0.04054551
#
# Stress axis : x y z
#
# Youngs Moduli (GPa) = 97.05724 44.34433 64.91125
#
# Poissons Ratio (x) = 0.18340 0.21401
# Poissons Ratio (y) = 0.40140 -0.23210
# Poissons Ratio (z) = 0.31999 -0.15856
#
# Static dielectric constant tensor:
#      x y z
#    x 1.822160 0.000000 -0.026640 
#    y 0.000000 1.733710 0.000000 
#    z -0.026640 0.000000 1.789650 
# 
# From -- ./inp_files/247768.got.cif
#   From: 2010.05.17/outbox.cif.g08.bks.cpg/sg15_124_cif.got.tgz:247768.got - 2010.06.03 18:47:42.
