data_PCOD9290534
_publ_section_title
;
Structure prediction by ZEFSAII (Michael W. Deem and Ramdas Pophale) SiO2 
 PCOD9290534
Probable space group: C 2/C
;
_chemical_formula_sum "Si O2"
_cell_formula_units_Z 52
_cell_length_a 11.155591
_cell_length_b 9.592965
_cell_length_c 27.014889
_cell_angle_alpha 90.000000
_cell_angle_beta 127.615594
_cell_angle_gamma 90.000000
_cell_volume 2290.032033
_symmetry_space_group_name_H-M "C 2/C"
_symmetry_group_IT_number 15
_symmetry_cell_setting 'monoclinic'
loop_
_space_group_symop_operation_xyz
x,y,z
-x,y,1/2-z
-x,-y,-z
x,-y,1/2+z
1/2+x,1/2+y,z
1/2-x,1/2+y,1/2-z
1/2-x,1/2-y,-z
1/2+x,1/2-y,1/2+z
loop_
_atom_site_type_symbol
_atom_site_label
_atom_site_fract_x
_atom_site_fract_y
_atom_site_fract_z
Si Si1 0.385502 0.528659 0.307137
Si Si2 0.302182 0.778682 0.956216
Si Si3 0.500000 0.657170 0.750000
Si Si4 0.474183 0.192652 0.684907
Si Si5 0.366114 0.656777 0.468452
Si Si6 0.166437 0.421424 0.832941
Si Si7 0.186640 0.937547 0.440020
O O1 0.398759 0.444269 0.259011
O O2 0.407781 0.696424 0.308293
O O3 0.233878 0.509256 0.300173
O O4 0.529966 0.469885 0.373333
O O5 0.181527 0.734749 0.883381
O O6 0.305101 0.945954 0.953418
O O7 0.250000 0.750000 0.000000
O O8 0.464612 0.712176 0.988797
O O9 0.600880 0.768065 0.806174
O O10 0.500000 0.219969 0.750000
O O11 0.459201 0.024990 0.676033
O O12 0.311176 0.586661 0.404637
O O13 0.252484 0.786554 0.445944
O O14 0.339997 0.556597 0.508079
#
# Coordination Sequence:
#
# PCOD9290534 Si02
#       7
#     8   8   4   8   8   8   8
#     4  11  25  46  68  97 138 184 225 283 350 410
#     4  11  23  41  67  98 137 185 231 283 349 418
#     4  12  26  44  66 100 136 176 236 282 340 422
#     4  11  24  44  67 100 139 174 232 283 339 416
#     4  11  22  42  68 104 136 176 233 292 341 416
#     4  12  26  44  73 100 136 183 230 286 350 414
#     4  10  22  41  67 100 138 178 229 286 347 411
#
# _framework density 22.707104000000001
#
# number of rings (size 3 to 8) (size 9 to 14) (size 15 to 20)
#    0.000    0.923    3.077    4.154    2.154    1.846 
#    0.000    0.000    0.000    0.000    0.000    0.000 
#    0.000    0.000    0.000    0.000    0.000    0.000 
#
# Total GULP energy -145183.947308 kJ/mol
# GULP energy per Si atom -5583.997973 kJ/mol
# Density = 2.265542 g / cm^3
# Si number density = 22.707104 Si / 1000 Ang^3
#
#
#
# Elastic Constant Matrix: (Units=GPa)
#
#
# Indices 1 2 3 4 5 6 
#
# 1 55.5378 25.2323 18.9254 0.0000 2.9504 0.0000
# 2 25.2323 112.3785 4.2492 0.0000 3.2697 0.0000
# 3 18.9254 4.2492 134.2008 0.0000 8.4158 0.0000
# 4 0.0000 0.0000 0.0000 25.5929 0.0000 -9.6314
# 5 2.9504 3.2697 8.4158 0.0000 28.0785 0.0000
# 6 0.0000 0.0000 0.0000 -9.6314 0.0000 24.2821
#
#
#
# Elastic Compliance Matrix: (Units=1/GPa)
#
#
# Indices 1 2 3 4 5 6 
#
# 1 0.021089 -0.004605 -0.002775 0.000000 -0.000848 0.000000
# 2 -0.004605 0.009941 0.000384 0.000000 -0.000789 0.000000
# 3 -0.002775 0.000384 0.007965 0.000000 -0.002140 0.000000
# 4 0.000000 0.000000 0.000000 0.045929 0.000000 0.018218
# 5 -0.000848 -0.000789 -0.002140 0.000000 0.036437 0.000000
# 6 0.000000 0.000000 0.000000 0.018218 0.000000 0.048409
#
#
# Mechanical properties :
#
#
# Convention : Reuss Voigt Hill
#
# Bulk Modulus (GPa) = 39.99658 44.32567 42.16112
# Shear Modulus (GPa) = 26.02860 32.50469 29.26664
#
# Velocity S-wave (km/s) = 3.38934 3.78759 3.59399
# Velocity P-wave (km/s) = 5.74188 6.22019 5.98582
#
# Compressibility (1/GPa) = 0.02500214
#
# Stress axis : x y z
#
# Youngs Moduli (GPa) = 47.41848 100.59361 125.55044
#
# Poissons Ratio (x) = 0.46328 0.34840
# Poissons Ratio (y) = 0.21838 -0.04823
# Poissons Ratio (z) = 0.13159 -0.03865
#
# Static dielectric constant tensor:
#      x y z
#    x 1.829020 0.000000 -0.145450 
#    y 0.000000 1.859300 0.000000 
#    z -0.145450 0.000000 2.112510 
# 
# From -- ./inp_files/291686.got.cif
#   From: 2010.05.17/outbox.cif.g08.bks.cpg/sg15_146_cif.got.tgz:291686.got - 2010.06.03 18:47:42.
