data_PCOD9290201
_publ_section_title
;
Structure prediction by ZEFSAII (Michael W. Deem and Ramdas Pophale) SiO2 
 PCOD9290201
Probable space group: C 2/C
;
_chemical_formula_sum "Si O2"
_cell_formula_units_Z 60
_cell_length_a 18.709833
_cell_length_b 11.326386
_cell_length_c 16.669565
_cell_angle_alpha 90.000000
_cell_angle_beta 134.696285
_cell_angle_gamma 90.000000
_cell_volume 2511.079704
_symmetry_space_group_name_H-M "C 2/C"
_symmetry_group_IT_number 15
_symmetry_cell_setting 'monoclinic'
loop_
_space_group_symop_operation_xyz
x,y,z
-x,y,1/2-z
-x,-y,-z
x,-y,1/2+z
1/2+x,1/2+y,z
1/2-x,1/2+y,1/2-z
1/2-x,1/2-y,-z
1/2+x,1/2-y,1/2+z
loop_
_atom_site_type_symbol
_atom_site_label
_atom_site_fract_x
_atom_site_fract_y
_atom_site_fract_z
Si Si1 0.078346 0.913200 0.190022
Si Si2 0.112603 0.609392 0.865748
Si Si3 0.363019 0.123879 0.422654
Si Si4 0.803977 0.378569 0.538359
Si Si5 0.793147 0.611159 0.852451
Si Si6 0.630383 0.334239 0.766213
Si Si7 0.000000 0.274157 0.750000
Si Si8 0.539521 0.291193 0.526127
O O1 0.184546 0.895171 0.227013
O O2 0.062458 0.807453 0.239292
O O3 0.088859 0.033935 0.248507
O O4 0.988218 0.899388 0.054297
O O5 0.191582 0.502033 0.906790
O O6 0.131263 0.734415 0.835357
O O7 0.000000 0.576880 0.750000
O O8 0.114063 0.623301 0.963505
O O9 0.245474 0.160598 0.324756
O O10 0.444839 0.204025 0.443943
O O11 0.365846 0.994129 0.383428
O O12 0.750000 0.250000 0.500000
O O13 0.769451 0.422751 0.425181
O O14 0.921383 0.345926 0.635440
O O15 0.854240 0.730726 0.910447
O O16 0.556689 0.306073 0.634046
#
# Coordination Sequence:
#
# PCOD9290201 Si02
#       8
#     8   8   8   8   8   8   4   8
#     4  11  25  41  65  95 137 179 222 287 338 411
#     4  11  22  43  71  98 134 179 229 286 334 411
#     4  10  23  42  67  94 132 176 228 282 337 405
#     4  11  22  42  67 101 130 166 225 285 339 396
#     4  10  22  41  63  94 133 169 222 282 336 401
#     4  11  25  45  62  99 138 178 228 278 344 409
#     4  12  22  40  66  94 132 170 222 274 346 396
#     4  12  22  42  67  93 132 182 228 276 342 407
#
# _framework density 23.894106000000001
#
# number of rings (size 3 to 8) (size 9 to 14) (size 15 to 20)
#    0.000    1.067    4.667    2.000    0.933    0.000 
#    4.800    1.333    0.000    0.000    0.000    0.000 
#    0.000    0.000    0.000    0.000    0.000    0.000 
#
# Total GULP energy -167044.134158 kJ/mol
# GULP energy per Si atom -5568.137805 kJ/mol
# Density = 2.383972 g / cm^3
# Si number density = 23.894106 Si / 1000 Ang^3
#
#
#
# Elastic Constant Matrix: (Units=GPa)
#
#
# Indices 1 2 3 4 5 6 
#
# 1 29.8517 18.1008 6.3909 0.0000 5.9162 0.0000
# 2 18.1008 122.7136 38.3521 0.0000 2.9057 0.0000
# 3 6.3909 38.3521 108.4908 0.0000 13.7413 0.0000
# 4 0.0000 0.0000 0.0000 46.5893 0.0000 9.6459
# 5 5.9162 2.9057 13.7413 0.0000 31.5789 0.0000
# 6 0.0000 0.0000 0.0000 9.6459 0.0000 27.6279
#
#
#
# Elastic Compliance Matrix: (Units=1/GPa)
#
#
# Indices 1 2 3 4 5 6 
#
# 1 0.038166 -0.005662 0.000628 0.000000 -0.006902 0.000000
# 2 -0.005662 0.010012 -0.003411 0.000000 0.001624 0.000000
# 3 0.000628 -0.003411 0.010966 0.000000 -0.004575 0.000000
# 4 0.000000 0.000000 0.000000 0.023137 0.000000 -0.008078
# 5 -0.006902 0.001624 -0.004575 0.000000 0.034801 0.000000
# 6 0.000000 0.000000 0.000000 -0.008078 0.000000 0.039016
#
#
# Mechanical properties :
#
#
# Convention : Reuss Voigt Hill
#
# Bulk Modulus (GPa) = 23.66776 42.97153 33.31965
# Shear Modulus (GPa) = 26.72745 34.37337 30.55041
#
# Velocity S-wave (km/s) = 3.34814 3.79696 3.57960
# Velocity P-wave (km/s) = 4.98734 6.10293 5.57312
#
# Compressibility (1/GPa) = 0.04225156
#
# Stress axis : x y z
#
# Youngs Moduli (GPa) = 26.20134 99.87993 91.19202
#
# Poissons Ratio (x) = 0.56556 -0.05724
# Poissons Ratio (y) = 0.14836 0.31110
# Poissons Ratio (z) = -0.01645 0.34074
#
# Static dielectric constant tensor:
#      x y z
#    x 1.939130 0.000000 0.004670 
#    y 0.000000 2.079410 0.000000 
#    z 0.004670 0.000000 1.926670 
# 
# From -- ./inp_files/215234.got.cif
#   From: 2010.05.17/outbox.cif.g08.bks.cpg/sg15_108_cif.got.tgz:215234.got - 2010.06.03 18:47:42.
