data_PCOD9290836
_publ_section_title
;
Structure prediction by ZEFSAII (Michael W. Deem and Ramdas Pophale) SiO2 
 PCOD9290836
Probable space group: C 2/C
;
_chemical_formula_sum "Si O2"
_cell_formula_units_Z 40
_cell_length_a 26.784535
_cell_length_b 6.639497
_cell_length_c 9.433749
_cell_angle_alpha 90.000000
_cell_angle_beta 105.393337
_cell_angle_gamma 90.000000
_cell_volume 1617.474817
_symmetry_space_group_name_H-M "C 2/C"
_symmetry_group_IT_number 15
_symmetry_cell_setting 'monoclinic'
loop_
_space_group_symop_operation_xyz
x,y,z
-x,y,1/2-z
-x,-y,-z
x,-y,1/2+z
1/2+x,1/2+y,z
1/2-x,1/2+y,1/2-z
1/2-x,1/2-y,-z
1/2+x,1/2-y,1/2+z
loop_
_atom_site_type_symbol
_atom_site_label
_atom_site_fract_x
_atom_site_fract_y
_atom_site_fract_z
Si Si1 0.809077 0.252629 0.092416
Si Si2 0.843551 0.489390 0.851568
Si Si3 0.628853 0.356738 0.301841
Si Si4 0.557709 0.933569 0.937919
Si Si5 0.537015 0.312300 0.034277
O O1 0.813660 0.327739 0.258237
O O2 0.840916 0.043912 0.109806
O O3 0.750000 0.250000 0.000000
O O4 0.833429 0.416046 0.002706
O O5 0.831852 0.297080 0.744313
O O6 0.904923 0.542948 0.893842
O O7 0.592154 0.225687 0.377273
O O8 0.588514 0.400456 0.144630
O O9 0.500584 0.841694 0.908448
O O10 0.550548 0.175362 0.906496
O O11 0.500000 0.500000 0.000000
#
# Coordination Sequence:
#
# PCOD9290836 Si02
#       5
#     8   8   8   8   8
#     4  12  30  48  80 108 151 203 259 331 401 472
#     4  11  26  49  73 109 151 193 255 326 386 475
#     4  11  25  45  73 107 153 198 256 311 395 456
#     4  10  22  43  68 108 148 195 244 314 376 468
#     4  10  22  41  71 105 152 201 250 304 384 462
#
# _framework density 24.729908999999999
#
# number of rings (size 3 to 8) (size 9 to 14) (size 15 to 20)
#    0.000    1.200    2.000    1.800   11.200    0.800 
#    3.600    0.000    0.000    0.000    0.000    0.000 
#    0.000    0.000    0.000    0.000    0.000    0.000 
#
# Total GULP energy -111480.977456 kJ/mol
# GULP energy per Si atom -5574.048873 kJ/mol
# Density = 2.467362 g / cm^3
# Si number density = 24.729909 Si / 1000 Ang^3
#
#
#
# Elastic Constant Matrix: (Units=GPa)
#
#
# Indices 1 2 3 4 5 6 
#
# 1 104.6652 46.8755 25.9724 0.0000 30.8376 0.0000
# 2 46.8755 128.6761 51.3220 0.0000 12.8858 0.0000
# 3 25.9724 51.3220 67.5446 0.0000 12.5626 0.0000
# 4 0.0000 0.0000 0.0000 49.8678 0.0000 1.1554
# 5 30.8376 12.8858 12.5626 0.0000 45.1493 0.0000
# 6 0.0000 0.0000 0.0000 1.1554 0.0000 23.5660
#
#
#
# Elastic Compliance Matrix: (Units=1/GPa)
#
#
# Indices 1 2 3 4 5 6 
#
# 1 0.013922 -0.003910 -0.000866 0.000000 -0.008152 0.000000
# 2 -0.003910 0.012281 -0.008092 0.000000 0.001417 0.000000
# 3 -0.000866 -0.008092 0.021879 0.000000 -0.003187 0.000000
# 4 0.000000 0.000000 0.000000 0.020076 0.000000 -0.000984
# 5 -0.008152 0.001417 -0.003187 0.000000 0.028199 0.000000
# 6 0.000000 0.000000 0.000000 -0.000984 0.000000 0.042482
#
#
# Mechanical properties :
#
#
# Convention : Reuss Voigt Hill
#
# Bulk Modulus (GPa) = 44.74932 61.02508 52.88720
# Shear Modulus (GPa) = 29.06568 35.49769 32.28169
#
# Velocity S-wave (km/s) = 3.43202 3.79280 3.61691
# Velocity P-wave (km/s) = 5.81718 6.62651 6.23499
#
# Compressibility (1/GPa) = 0.02234671
#
# Stress axis : x y z
#
# Youngs Moduli (GPa) = 71.82792 81.42540 45.70574
#
# Poissons Ratio (x) = 0.31835 0.03960
# Poissons Ratio (y) = 0.28083 0.36983
# Poissons Ratio (z) = 0.06224 0.65886
#
# Static dielectric constant tensor:
#      x y z
#    x 2.031850 0.000000 -0.100460 
#    y 0.000000 2.090030 0.000000 
#    z -0.100460 0.000000 2.057050 
# 
# From -- ./inp_files/125106.got.cif
#   From: 2010.05.17/outbox.cif.g08.bks.cpg/sg15_63_cif.got.tgz:125106.got - 2010.06.03 18:47:42.
