data_PCOD9290431
_publ_section_title
;
Structure prediction by ZEFSAII (Michael W. Deem and Ramdas Pophale) SiO2 
 PCOD9290431
Probable space group: C 2/C
;
_chemical_formula_sum "Si O2"
_cell_formula_units_Z 48
_cell_length_a 29.649860
_cell_length_b 11.479209
_cell_length_c 21.789310
_cell_angle_alpha 90.000000
_cell_angle_beta 160.026559
_cell_angle_gamma 90.000000
_cell_volume 2533.239600
_symmetry_space_group_name_H-M "C 2/C"
_symmetry_group_IT_number 15
_symmetry_cell_setting 'monoclinic'
loop_
_space_group_symop_operation_xyz
x,y,z
-x,y,1/2-z
-x,-y,-z
x,-y,1/2+z
1/2+x,1/2+y,z
1/2-x,1/2+y,1/2-z
1/2-x,1/2-y,-z
1/2+x,1/2-y,1/2+z
loop_
_atom_site_type_symbol
_atom_site_label
_atom_site_fract_x
_atom_site_fract_y
_atom_site_fract_z
Si Si1 0.484934 0.401783 0.898384
Si Si2 0.101933 0.651426 0.680148
Si Si3 0.051227 0.578047 0.481335
Si Si4 0.221429 0.694807 0.397233
Si Si5 0.304083 0.584912 0.722625
Si Si6 0.877589 0.030210 0.050970
O O1 0.438653 0.268139 0.836574
O O2 0.357390 0.481389 0.748146
O O3 0.564676 0.457693 0.943828
O O4 0.582923 0.401445 0.081721
O O5 0.097560 0.654375 0.599769
O O6 0.997355 0.549263 0.560089
O O7 0.247317 0.610298 0.886131
O O8 0.169364 0.561361 0.585575
O O9 0.923553 0.637551 0.288299
O O10 0.250000 0.750000 0.500000
O O11 0.215354 0.798422 0.340628
O O12 0.325218 0.596643 0.506566
O O13 0.000000 0.066079 0.250000
#
# Coordination Sequence:
#
# PCOD9290431 Si02
#       6
#     8   8   8   8   8   8
#     4  11  24  40  66 102 130 172 227 272 330 399
#     4  10  22  43  67  95 133 174 224 274 327 399
#     4  10  22  41  66 100 130 175 223 268 334 392
#     4  11  25  44  68  99 136 174 220 280 338 395
#     4  11  24  37  67 101 133 171 223 275 328 401
#     4  11  25  44  68  95 133 176 218 280 339 398
#
# _framework density 18.948070000000001
#
# number of rings (size 3 to 8) (size 9 to 14) (size 15 to 20)
#    0.000    1.333    3.333    1.000    7.000    0.667 
#    0.000    0.000    0.000    0.000    0.000    0.000 
#    0.000    0.000    0.000    0.000    0.000    0.000 
#
# Total GULP energy -133966.079740 kJ/mol
# GULP energy per Si atom -5581.919989 kJ/mol
# Density = 1.890494 g / cm^3
# Si number density = 18.948070 Si / 1000 Ang^3
#
#
#
# Elastic Constant Matrix: (Units=GPa)
#
#
# Indices 1 2 3 4 5 6 
#
# 1 105.0947 53.9345 42.5122 0.0000 18.8121 0.0000
# 2 53.9345 98.1869 41.8411 0.0000 15.2412 0.0000
# 3 42.5122 41.8411 94.7021 0.0000 17.8024 0.0000
# 4 0.0000 0.0000 0.0000 7.9488 0.0000 -4.5216
# 5 18.8121 15.2412 17.8024 0.0000 43.8166 0.0000
# 6 0.0000 0.0000 0.0000 -4.5216 0.0000 27.8747
#
#
#
# Elastic Compliance Matrix: (Units=1/GPa)
#
#
# Indices 1 2 3 4 5 6 
#
# 1 0.014479 -0.006131 -0.003273 0.000000 -0.002754 0.000000
# 2 -0.006131 0.015358 -0.003815 0.000000 -0.001160 0.000000
# 3 -0.003273 -0.003815 0.014292 0.000000 -0.003074 0.000000
# 4 0.000000 0.000000 0.000000 0.138594 0.000000 0.022482
# 5 -0.002754 -0.001160 -0.003074 0.000000 0.025657 0.000000
# 6 0.000000 0.000000 0.000000 0.022482 0.000000 0.039522
#
#
# Mechanical properties :
#
#
# Convention : Reuss Voigt Hill
#
# Bulk Modulus (GPa) = 56.52733 63.83993 60.18363
# Shear Modulus (GPa) = 17.84201 26.57442 22.20821
#
# Velocity S-wave (km/s) = 3.07192 3.74904 3.42725
# Velocity P-wave (km/s) = 6.51765 7.24608 6.89150
#
# Compressibility (1/GPa) = 0.01769056
#
# Stress axis : x y z
#
# Youngs Moduli (GPa) = 69.06784 65.11150 69.96741
#
# Poissons Ratio (x) = 0.39919 0.22901
# Poissons Ratio (y) = 0.42345 0.26695
# Poissons Ratio (z) = 0.22606 0.24842
#
# Static dielectric constant tensor:
#      x y z
#    x 1.666180 0.000000 -0.014580 
#    y 0.000000 1.665270 0.000000 
#    z -0.014580 0.000000 1.638870 
# 
# From -- ./inp_files/103744.got.cif
#   From: 2010.05.17/outbox.cif.g08.bks.cpg/sg15_52_cif.got.tgz:103744.got - 2010.06.03 18:47:42.
