data_PCOD9290435
_publ_section_title
;
Structure prediction by ZEFSAII (Michael W. Deem and Ramdas Pophale) SiO2 
 PCOD9290435
Probable space group: C 2/C
;
_chemical_formula_sum "Si O2"
_cell_formula_units_Z 32
_cell_length_a 19.970161
_cell_length_b 5.241136
_cell_length_c 13.597139
_cell_angle_alpha 90.000000
_cell_angle_beta 108.724004
_cell_angle_gamma 90.000000
_cell_volume 1347.842996
_symmetry_space_group_name_H-M "C 2/C"
_symmetry_group_IT_number 15
_symmetry_cell_setting 'monoclinic'
loop_
_space_group_symop_operation_xyz
x,y,z
-x,y,1/2-z
-x,-y,-z
x,-y,1/2+z
1/2+x,1/2+y,z
1/2-x,1/2+y,1/2-z
1/2-x,1/2-y,-z
1/2+x,1/2-y,1/2+z
loop_
_atom_site_type_symbol
_atom_site_label
_atom_site_fract_x
_atom_site_fract_y
_atom_site_fract_z
Si Si1 0.204333 0.424931 0.227404
Si Si2 0.891248 0.256699 0.699241
Si Si3 0.500756 0.748371 0.929537
Si Si4 0.745688 0.499916 0.934814
O O1 0.263995 0.644788 0.274302
O O2 0.148113 0.483281 0.284252
O O3 0.187586 0.506438 0.108269
O O4 0.934554 0.274750 0.618522
O O5 0.830492 0.047844 0.652064
O O6 0.937851 0.793062 0.318987
O O7 0.500000 0.500000 0.000000
O O8 0.500000 0.000000 0.000000
O O9 0.750000 0.750000 0.000000
O O10 0.750000 0.250000 0.000000
#
# Coordination Sequence:
#
# PCOD9290435 Si02
#       4
#     8   8   8   8
#     4  10  22  41  66 100 140 180 227 299 364 425
#     4  10  26  48  73 106 152 184 251 308 360 446
#     4  11  28  48  75 105 141 204 248 304 366 435
#     4  11  24  40  70 107 138 188 232 292 376 436
#
# _framework density 23.741636
#
# number of rings (size 3 to 8) (size 9 to 14) (size 15 to 20)
#    0.000    1.500    0.000    3.000    7.000   14.000 
#    0.000    0.000    0.000    0.000    0.000    0.000 
#    0.000    0.000    0.000    0.000    0.000    0.000 
#
# Total GULP energy -89078.282755 kJ/mol
# GULP energy per Si atom -5567.392672 kJ/mol
# Density = 2.368760 g / cm^3
# Si number density = 23.741636 Si / 1000 Ang^3
#
#
#
# Elastic Constant Matrix: (Units=GPa)
#
#
# Indices 1 2 3 4 5 6 
#
# 1 109.6280 38.8220 79.7547 0.0000 -1.1699 0.0000
# 2 38.8220 142.5008 98.3904 0.0000 3.1912 0.0000
# 3 79.7547 98.3904 220.0464 0.0000 -23.8520 0.0000
# 4 0.0000 0.0000 0.0000 61.9922 0.0000 -3.2306
# 5 -1.1699 3.1912 -23.8520 0.0000 56.9149 0.0000
# 6 0.0000 0.0000 0.0000 -3.2306 0.0000 20.2896
#
#
#
# Elastic Compliance Matrix: (Units=1/GPa)
#
#
# Indices 1 2 3 4 5 6 
#
# 1 0.012551 -0.000166 -0.004657 0.000000 -0.001685 0.000000
# 2 -0.000166 0.010531 -0.004938 0.000000 -0.002663 0.000000
# 3 -0.004657 -0.004938 0.008863 0.000000 0.003895 0.000000
# 4 0.000000 0.000000 0.000000 0.016266 0.000000 0.002590
# 5 -0.001685 -0.002663 0.003895 0.000000 0.019317 0.000000
# 6 0.000000 0.000000 0.000000 0.002590 0.000000 0.049699
#
#
# Mechanical properties :
#
#
# Convention : Reuss Voigt Hill
#
# Bulk Modulus (GPa) = 80.49441 100.67882 90.58662
# Shear Modulus (GPa) = 35.48879 44.85320 40.17100
#
# Velocity S-wave (km/s) = 3.87045 4.35123 4.11786
# Velocity P-wave (km/s) = 7.34519 8.23058 7.80045
#
# Compressibility (1/GPa) = 0.01242322
#
# Stress axis : x y z
#
# Youngs Moduli (GPa) = 79.67625 94.95331 112.83420
#
# Poissons Ratio (x) = 0.01574 0.52552
# Poissons Ratio (y) = 0.01321 0.55713
# Poissons Ratio (z) = 0.37109 0.46884
#
# Static dielectric constant tensor:
#      x y z
#    x 2.037490 0.000000 0.008330 
#    y 0.000000 1.944170 0.000000 
#    z 0.008330 0.000000 2.142840 
# 
# From -- ./inp_files/212421.got.cif
#   From: 2010.05.17/outbox.cif.g08.bks.cpg/sg15_107_cif.got.tgz:212421.got - 2010.06.03 18:47:42.
