data_PCOD9290196
_publ_section_title
;
Structure prediction by ZEFSAII (Michael W. Deem and Ramdas Pophale) SiO2 
 PCOD9290196
Probable space group: C 2/C
;
_chemical_formula_sum "Si O2"
_cell_formula_units_Z 48
_cell_length_a 18.813974
_cell_length_b 10.870732
_cell_length_c 19.128535
_cell_angle_alpha 90.000000
_cell_angle_beta 153.194618
_cell_angle_gamma 90.000000
_cell_volume 1764.251079
_symmetry_space_group_name_H-M "C 2/C"
_symmetry_group_IT_number 15
_symmetry_cell_setting 'monoclinic'
loop_
_space_group_symop_operation_xyz
x,y,z
-x,y,1/2-z
-x,-y,-z
x,-y,1/2+z
1/2+x,1/2+y,z
1/2-x,1/2+y,1/2-z
1/2-x,1/2-y,-z
1/2+x,1/2-y,1/2+z
loop_
_atom_site_type_symbol
_atom_site_label
_atom_site_fract_x
_atom_site_fract_y
_atom_site_fract_z
Si Si1 0.192600 0.003679 0.124466
Si Si2 0.962257 0.218113 0.079924
Si Si3 0.039715 0.787764 0.137040
Si Si4 0.206327 0.358022 0.664487
Si Si5 0.681047 0.907388 0.400484
Si Si6 0.231005 0.359852 0.039833
O O1 0.253419 0.020107 0.256801
O O2 0.917632 0.114491 0.983060
O O3 0.318027 0.980083 0.173175
O O4 0.085302 0.116410 0.004002
O O5 0.145280 0.192862 0.249850
O O6 0.931585 0.346039 0.013129
O O7 0.832862 0.183035 0.024354
O O8 0.932392 0.673140 0.066419
O O9 0.164357 0.730819 0.192545
O O10 0.128774 0.848290 0.280947
O O11 0.500000 0.862989 0.250000
O O12 0.723959 0.008961 0.496025
O O13 0.250000 0.250000 0.000000
#
# Coordination Sequence:
#
# PCOD9290196 Si02
#       6
#     8   8   8   8   8   8
#     4  10  22  41  66  94 137 163 206 275 332 390
#     4  10  25  41  69  94 128 178 214 275 322 384
#     4  12  22  35  65 106 131 168 199 275 346 398
#     4  12  20  42  66  94 132 169 216 261 331 386
#     4  10  22  41  63  93 132 171 215 264 326 382
#     4  12  20  34  60  96 138 164 202 254 336 410
#
# _framework density 27.207011999999999
#
# number of rings (size 3 to 8) (size 9 to 14) (size 15 to 20)
#    1.000    0.000    5.000    3.000    0.000    0.000 
#    0.000    3.333    0.000    0.000    0.000    0.000 
#    0.000    0.000    0.000    0.000    0.000    0.000 
#
# Total GULP energy -134295.417486 kJ/mol
# GULP energy per Si atom -5595.642395 kJ/mol
# Density = 2.714509 g / cm^3
# Si number density = 27.207012 Si / 1000 Ang^3
#
#
#
# Elastic Constant Matrix: (Units=GPa)
#
#
# Indices 1 2 3 4 5 6 
#
# 1 126.7978 43.4557 54.1221 0.0001 30.7986 -0.0001
# 2 43.4557 57.8661 46.2656 0.0017 -17.9648 0.0003
# 3 54.1221 46.2656 129.0039 0.0016 15.4878 0.0003
# 4 0.0001 0.0017 0.0016 46.5223 0.0006 -9.2734
# 5 30.7986 -17.9648 15.4878 0.0006 49.4577 0.0000
# 6 -0.0001 0.0003 0.0003 -9.2734 0.0000 58.1277
#
#
#
# Elastic Compliance Matrix: (Units=1/GPa)
#
#
# Indices 1 2 3 4 5 6 
#
# 1 0.020899 -0.025410 0.003133 0.000001 -0.023225 0.000000
# 2 -0.025410 0.064619 -0.017905 -0.000002 0.044903 -0.000001
# 3 0.003133 -0.017905 0.014416 0.000000 -0.012969 0.000000
# 4 0.000001 -0.000002 0.000000 0.022201 -0.000002 0.003542
# 5 -0.023225 0.044903 -0.012969 -0.000002 0.055054 -0.000001
# 6 0.000000 -0.000001 0.000000 0.003542 -0.000001 0.017769
#
#
# Mechanical properties :
#
#
# Convention : Reuss Voigt Hill
#
# Bulk Modulus (GPa) = 51.09821 66.81718 58.95770
# Shear Modulus (GPa) = 17.74026 42.14318 29.94172
#
# Velocity S-wave (km/s) = 2.55629 3.93998 3.32100
# Velocity P-wave (km/s) = 5.24737 6.73127 6.03510
#
# Compressibility (1/GPa) = 0.01957016
#
# Stress axis : x y z
#
# Youngs Moduli (GPa) = 47.84949 15.47522 69.36910
#
# Poissons Ratio (x) = 0.39323 -0.21737
# Poissons Ratio (y) = 1.21586 1.24207
# Poissons Ratio (z) = -0.14994 0.27709
#
# Static dielectric constant tensor:
#      x y z
#    x 2.229010 0.000000 0.008430 
#    y 0.000000 2.258990 0.000000 
#    z 0.008430 0.000000 2.111530 
# 
# From -- ./inp_files/277434.got.cif
#   From: 2010.05.17/outbox.cif.g08.bks.cpg/sg15_139_cif.got.tgz:277434.got - 2010.06.03 18:47:42.
