data_PCOD9290638
_publ_section_title
;
Structure prediction by ZEFSAII (Michael W. Deem and Ramdas Pophale) SiO2 
 PCOD9290638
Probable space group: C 2/C
;
_chemical_formula_sum "Si O2"
_cell_formula_units_Z 52
_cell_length_a 14.228414
_cell_length_b 16.763023
_cell_length_c 14.594868
_cell_angle_alpha 90.000000
_cell_angle_beta 40.498560
_cell_angle_gamma 90.000000
_cell_volume 2260.688065
_symmetry_space_group_name_H-M "C 2/C"
_symmetry_group_IT_number 15
_symmetry_cell_setting 'monoclinic'
loop_
_space_group_symop_operation_xyz
x,y,z
-x,y,1/2-z
-x,-y,-z
x,-y,1/2+z
1/2+x,1/2+y,z
1/2-x,1/2+y,1/2-z
1/2-x,1/2-y,-z
1/2+x,1/2-y,1/2+z
loop_
_atom_site_type_symbol
_atom_site_label
_atom_site_fract_x
_atom_site_fract_y
_atom_site_fract_z
Si Si1 0.882884 0.037193 0.489727
Si Si2 0.000000 0.388652 0.750000
Si Si3 0.600197 0.202868 0.590521
Si Si4 0.786558 0.962986 0.734065
Si Si5 0.344585 0.980840 0.486209
Si Si6 0.066536 0.799416 0.438477
Si Si7 0.747405 0.801951 0.678818
O O1 0.814987 0.027603 0.441030
O O2 0.049329 0.010226 0.365242
O O3 0.890293 0.122894 0.534410
O O4 0.775941 0.989105 0.636615
O O5 0.876383 0.334047 0.796370
O O6 0.068125 0.447205 0.623070
O O7 0.500000 0.225522 0.750000
O O8 0.750000 0.250000 0.500000
O O9 0.598359 0.106972 0.582849
O O10 0.549417 0.233465 0.529914
O O11 0.676551 0.993930 0.890270
O O12 0.771717 0.867595 0.741851
O O13 0.905448 0.802200 0.515217
O O14 0.186369 0.775980 0.275222
#
# Coordination Sequence:
#
# PCOD9290638 Si02
#       7
#     8   4   8   8   8   8   8
#     4  10  22  41  68 103 139 173 225 279 341 423
#     4  12  28  46  64  94 138 184 244 286 334 402
#     4  12  24  38  65 107 142 174 215 275 356 429
#     4  10  22  42  68 100 137 181 220 274 350 416
#     4  12  23  41  68 103 139 177 223 288 346 411
#     4  11  24  43  72  99 138 179 226 283 357 407
#     4  11  25  46  68  96 135 182 229 292 339 416
#
# _framework density 23.001847000000001
#
# number of rings (size 3 to 8) (size 9 to 14) (size 15 to 20)
#    0.000    0.923    5.385    1.385    2.154    2.462 
#    0.000    0.000    0.000    0.000    0.000    0.000 
#    0.000    0.000    0.000    0.000    0.000    0.000 
#
# Total GULP energy -145239.323175 kJ/mol
# GULP energy per Si atom -5586.127814 kJ/mol
# Density = 2.294949 g / cm^3
# Si number density = 23.001847 Si / 1000 Ang^3
#
#
#
# Elastic Constant Matrix: (Units=GPa)
#
#
# Indices 1 2 3 4 5 6 
#
# 1 60.4291 2.7286 -4.1002 -0.0001 -22.8003 0.0000
# 2 2.7286 21.1104 9.6152 -0.0002 2.5671 0.0001
# 3 -4.1002 9.6152 116.1819 -0.0002 2.4962 0.0000
# 4 -0.0001 -0.0002 -0.0002 29.1036 0.0002 -1.1224
# 5 -22.8003 2.5671 2.4962 0.0002 30.6211 -0.0001
# 6 0.0000 0.0001 0.0000 -1.1224 -0.0001 28.0354
#
#
#
# Elastic Compliance Matrix: (Units=1/GPa)
#
#
# Indices 1 2 3 4 5 6 
#
# 1 0.023666 -0.005668 0.000917 0.000000 0.018022 0.000000
# 2 -0.005668 0.051029 -0.004248 0.000000 -0.008152 0.000000
# 3 0.000917 -0.004248 0.008985 0.000000 0.000307 0.000000
# 4 0.000000 0.000000 0.000000 0.034413 0.000000 0.001378
# 5 0.018022 -0.008152 0.000307 0.000000 0.046735 0.000000
# 6 0.000000 0.000000 0.000000 0.001378 0.000000 0.035724
#
#
# Mechanical properties :
#
#
# Convention : Reuss Voigt Hill
#
# Bulk Modulus (GPa) = 15.22501 23.80097 19.51299
# Shear Modulus (GPa) = 20.79482 30.18387 25.48934
#
# Velocity S-wave (km/s) = 3.01000 3.62641 3.33249
# Velocity P-wave (km/s) = 4.32592 5.28246 4.82794
#
# Compressibility (1/GPa) = 0.06568142
#
# Stress axis : x y z
#
# Youngs Moduli (GPa) = 42.25388 19.59679 111.30234
#
# Poissons Ratio (x) = 0.11108 -0.10208
# Poissons Ratio (y) = 0.23951 0.47282
# Poissons Ratio (z) = -0.03875 0.08325
#
# Static dielectric constant tensor:
#      x y z
#    x 1.873320 0.000000 -0.042840 
#    y 0.000000 1.923560 0.000000 
#    z -0.042840 0.000000 1.850970 
# 
# From -- ./inp_files/155411.got.cif
#   From: 2010.05.17/outbox.cif.g08.bks.cpg/sg15_78_cif.got.tgz:155411.got - 2010.06.03 18:47:42.
