data_PCOD9290941
_publ_section_title
;
Structure prediction by ZEFSAII (Michael W. Deem and Ramdas Pophale) SiO2 
 PCOD9290941
Probable space group: C 2/C
;
_chemical_formula_sum "Si O2"
_cell_formula_units_Z 60
_cell_length_a 13.263474
_cell_length_b 13.759635
_cell_length_c 22.083593
_cell_angle_alpha 90.000000
_cell_angle_beta 51.107544
_cell_angle_gamma 90.000000
_cell_volume 3136.861751
_symmetry_space_group_name_H-M "C 2/C"
_symmetry_group_IT_number 15
_symmetry_cell_setting 'monoclinic'
loop_
_space_group_symop_operation_xyz
x,y,z
-x,y,1/2-z
-x,-y,-z
x,-y,1/2+z
1/2+x,1/2+y,z
1/2-x,1/2+y,1/2-z
1/2-x,1/2-y,-z
1/2+x,1/2-y,1/2+z
loop_
_atom_site_type_symbol
_atom_site_label
_atom_site_fract_x
_atom_site_fract_y
_atom_site_fract_z
Si Si1 0.764730 0.621922 0.285898
Si Si2 0.187412 0.943576 0.388655
Si Si3 0.651288 0.602292 0.195745
Si Si4 0.393117 0.414045 0.472715
Si Si5 0.710086 0.247204 0.444889
Si Si6 0.900766 0.750589 0.559665
Si Si7 0.309820 0.603160 0.871842
Si Si8 0.000000 0.737312 0.250000
O O1 0.765519 0.513279 0.313850
O O2 0.719088 0.624534 0.234096
O O3 0.657408 0.682479 0.364841
O O4 0.902487 0.672591 0.246843
O O5 0.246072 0.843754 0.392106
O O6 0.048727 0.922530 0.409437
O O7 0.153735 0.007127 0.460841
O O8 0.500000 0.630713 0.250000
O O9 0.726612 0.657222 0.113861
O O10 0.659137 0.486808 0.182500
O O11 0.363652 0.309021 0.512607
O O12 0.326738 0.429901 0.434146
O O13 0.750000 0.250000 0.500000
O O14 0.554291 0.243740 0.503622
O O15 0.830574 0.647766 0.587634
O O16 0.409325 0.691800 0.823442
#
# Coordination Sequence:
#
# PCOD9290941 Si02
#       8
#     8   8   8   8   8   8   8   4
#     4  10  22  42  61  94 129 164 221 261 327 387
#     4   9  19  36  59  86 118 165 201 258 311 376
#     4  12  25  40  63  94 129 174 213 264 323 391
#     4   9  17  34  63  89 116 151 212 252 313 377
#     4  11  23  41  62  91 128 171 214 260 323 386
#     4   9  21  39  63  92 119 165 211 270 312 370
#     4  11  21  38  63  91 121 164 209 264 318 369
#     4  10  24  40  62  90 128 168 208 270 314 386
#
# _framework density 19.127395
#
# number of rings (size 3 to 8) (size 9 to 14) (size 15 to 20)
#    0.000    1.867    0.667    3.600    3.733    1.600 
#    3.600    0.000    0.000    0.000    0.000    0.000 
#    0.000    0.000    0.000    0.000    0.000    0.000 
#
# Total GULP energy -167506.888058 kJ/mol
# GULP energy per Si atom -5583.562935 kJ/mol
# Density = 1.908386 g / cm^3
# Si number density = 19.127395 Si / 1000 Ang^3
#
#
#
# Elastic Constant Matrix: (Units=GPa)
#
#
# Indices 1 2 3 4 5 6 
#
# 1 114.2294 43.8470 58.0958 0.0000 11.7011 0.0000
# 2 43.8470 82.9239 26.4176 0.0000 -3.8932 0.0000
# 3 58.0958 26.4176 62.9563 0.0000 8.0052 0.0000
# 4 0.0000 0.0000 0.0000 28.2742 0.0000 -6.8423
# 5 11.7011 -3.8932 8.0052 0.0000 34.7431 0.0000
# 6 0.0000 0.0000 0.0000 -6.8423 0.0000 23.5906
#
#
#
# Elastic Compliance Matrix: (Units=1/GPa)
#
#
# Indices 1 2 3 4 5 6 
#
# 1 0.018468 -0.005360 -0.014346 0.000000 -0.003515 0.000000
# 2 -0.005360 0.015785 -0.002196 0.000000 0.004080 0.000000
# 3 -0.014346 -0.002196 0.030350 0.000000 -0.002408 0.000000
# 4 0.000000 0.000000 0.000000 0.038038 0.000000 0.011033
# 5 -0.003515 0.004080 -0.002408 0.000000 0.030978 0.000000
# 6 0.000000 0.000000 0.000000 0.011033 0.000000 0.045590
#
#
# Mechanical properties :
#
#
# Convention : Reuss Voigt Hill
#
# Bulk Modulus (GPa) = 48.08064 57.42559 52.75312
# Shear Modulus (GPa) = 21.74422 26.10488 23.92455
#
# Velocity S-wave (km/s) = 3.37532 3.69831 3.54050
# Velocity P-wave (km/s) = 6.35468 6.95159 6.65983
#
# Compressibility (1/GPa) = 0.02079839
#
# Stress axis : x y z
#
# Youngs Moduli (GPa) = 54.14751 63.35304 32.94851
#
# Poissons Ratio (x) = 0.33956 0.47269
# Poissons Ratio (y) = 0.29022 0.07236
# Poissons Ratio (z) = 0.77681 0.13914
#
# Static dielectric constant tensor:
#      x y z
#    x 1.632630 0.000000 -0.007840 
#    y 0.000000 1.684440 0.000000 
#    z -0.007840 0.000000 1.662530 
# 
# From -- ./inp_files/238714.got.cif
#   From: 2010.05.17/outbox.cif.g08.bks.cpg/sg15_120_cif.got.tgz:238714.got - 2010.06.03 18:47:42.
