data_PCOD9290361
_publ_section_title
;
Structure prediction by ZEFSAII (Michael W. Deem and Ramdas Pophale) SiO2 
 PCOD9290361
Probable space group: C 2/C
;
_chemical_formula_sum "Si O2"
_cell_formula_units_Z 36
_cell_length_a 14.421975
_cell_length_b 7.854494
_cell_length_c 18.636458
_cell_angle_alpha 90.000000
_cell_angle_beta 129.039800
_cell_angle_gamma 90.000000
_cell_volume 1639.700208
_symmetry_space_group_name_H-M "C 2/C"
_symmetry_group_IT_number 15
_symmetry_cell_setting 'monoclinic'
loop_
_space_group_symop_operation_xyz
x,y,z
-x,y,1/2-z
-x,-y,-z
x,-y,1/2+z
1/2+x,1/2+y,z
1/2-x,1/2+y,1/2-z
1/2-x,1/2-y,-z
1/2+x,1/2-y,1/2+z
loop_
_atom_site_type_symbol
_atom_site_label
_atom_site_fract_x
_atom_site_fract_y
_atom_site_fract_z
Si Si1 0.113609 0.131303 0.214335
Si Si2 0.117912 0.286477 0.466735
Si Si3 0.146462 0.369594 0.919236
Si Si4 0.500000 0.636112 0.750000
Si Si5 0.718678 0.416279 0.137285
O O1 0.197142 0.282207 0.281498
O O2 0.982493 0.203926 0.132395
O O3 0.161782 0.043125 0.166406
O O4 0.102595 0.987605 0.270168
O O5 0.250000 0.250000 0.500000
O O6 0.103834 0.490080 0.455983
O O7 0.121414 0.192345 0.544819
O O8 0.043454 0.252078 0.836607
O O9 0.201950 0.475293 0.879778
O O10 0.250000 0.250000 0.000000
#
# Coordination Sequence:
#
# PCOD9290361 Si02
#       5
#     8   8   8   4   8
#     4  12  24  43  67  96 132 171 216 269 321 382
#     4  10  22  41  65  93 128 169 212 262 317 379
#     4  11  22  40  64  94 128 169 212 258 318 385
#     4  12  22  38  64  94 126 170 214 262 318 382
#     4  11  24  43  64  96 131 170 214 267 324 382
#
# _framework density 21.955231999999999
#
# number of rings (size 3 to 8) (size 9 to 14) (size 15 to 20)
#    0.000    0.889    0.000   10.000    0.000    0.000 
#    0.000    3.333    0.000    0.000    0.000    0.000 
#    0.000    0.000    0.000    0.000    0.000    0.000 
#
# Total GULP energy -100751.498471 kJ/mol
# GULP energy per Si atom -5597.305471 kJ/mol
# Density = 2.190526 g / cm^3
# Si number density = 21.955232 Si / 1000 Ang^3
#
#
#
# Elastic Constant Matrix: (Units=GPa)
#
#
# Indices 1 2 3 4 5 6 
#
# 1 30.2681 27.1809 -8.7172 0.0000 -13.6420 0.0000
# 2 27.1809 145.0965 55.9198 0.0000 0.0264 0.0000
# 3 -8.7172 55.9198 108.8731 0.0000 9.7335 0.0000
# 4 0.0000 0.0000 0.0000 41.4657 0.0000 -16.7531
# 5 -13.6420 0.0264 9.7335 0.0000 33.2407 0.0000
# 6 0.0000 0.0000 0.0000 -16.7531 0.0000 42.6313
#
#
#
# Elastic Compliance Matrix: (Units=1/GPa)
#
#
# Indices 1 2 3 4 5 6 
#
# 1 0.059388 -0.015248 0.010686 0.000000 0.021256 0.000000
# 2 -0.015248 0.012564 -0.007305 0.000000 -0.004129 0.000000
# 3 0.010686 -0.007305 0.013760 0.000000 0.000362 0.000000
# 4 0.000000 0.000000 0.000000 0.028668 0.000000 0.011266
# 5 0.021256 -0.004129 0.000362 0.000000 0.038704 0.000000
# 6 0.000000 0.000000 0.000000 0.011266 0.000000 0.027884
#
#
# Mechanical properties :
#
#
# Convention : Reuss Voigt Hill
#
# Bulk Modulus (GPa) = 16.13415 48.11163 32.12289
# Shear Modulus (GPa) = 22.18647 37.45780 29.82214
#
# Velocity S-wave (km/s) = 3.18234 4.13498 3.68953
# Velocity P-wave (km/s) = 4.56811 6.69018 5.72827
#
# Compressibility (1/GPa) = 0.06198034
#
# Stress axis : x y z
#
# Youngs Moduli (GPa) = 16.83831 79.58982 72.67259
#
# Poissons Ratio (x) = 1.21355 -0.77660
# Poissons Ratio (y) = 0.25674 0.53088
# Poissons Ratio (z) = -0.17994 0.58141
#
# Static dielectric constant tensor:
#      x y z
#    x 1.827320 0.000000 -0.042260 
#    y 0.000000 1.814360 0.000000 
#    z -0.042260 0.000000 1.771380 
# 
# From -- ./inp_files/150356.got.cif
#   From: 2010.05.17/outbox.cif.g08.bks.cpg/sg15_76_cif.got.tgz:150356.got - 2010.06.03 18:47:42.
