data_PCOD9290556
_publ_section_title
;
Structure prediction by ZEFSAII (Michael W. Deem and Ramdas Pophale) SiO2 
 PCOD9290556
Probable space group: C 2/C
;
_chemical_formula_sum "Si O2"
_cell_formula_units_Z 44
_cell_length_a 26.279664
_cell_length_b 15.671262
_cell_length_c 15.381501
_cell_angle_alpha 90.000000
_cell_angle_beta 159.099331
_cell_angle_gamma 90.000000
_cell_volume 2259.878806
_symmetry_space_group_name_H-M "C 2/C"
_symmetry_group_IT_number 15
_symmetry_cell_setting 'monoclinic'
loop_
_space_group_symop_operation_xyz
x,y,z
-x,y,1/2-z
-x,-y,-z
x,-y,1/2+z
1/2+x,1/2+y,z
1/2-x,1/2+y,1/2-z
1/2-x,1/2-y,-z
1/2+x,1/2-y,1/2+z
loop_
_atom_site_type_symbol
_atom_site_label
_atom_site_fract_x
_atom_site_fract_y
_atom_site_fract_z
Si Si1 0.077025 0.697311 0.460720
Si Si2 0.867936 0.173050 0.692814
Si Si3 0.413755 0.701831 0.960016
Si Si4 0.238185 0.487049 0.889804
Si Si5 0.500000 0.584583 0.250000
Si Si6 0.025384 0.621671 0.571914
O O1 0.246326 0.707558 0.719033
O O2 0.045201 0.646764 0.500426
O O3 0.000000 0.661053 0.250000
O O4 0.001637 0.788857 0.354445
O O5 0.750000 0.250000 0.500000
O O6 0.911513 0.160661 0.861375
O O7 0.805206 0.086696 0.555353
O O8 0.496098 0.644992 0.160321
O O9 0.488978 0.793148 0.066177
O O10 0.162980 0.566878 0.817727
O O11 0.110218 0.440180 0.635743
O O12 0.360791 0.526171 0.026527
#
# Coordination Sequence:
#
# PCOD9290556 Si02
#       6
#     8   8   8   8   4   8
#     4  11  18  36  68  97 119 172 220 257 312 387
#     4  11  21  38  69  95 122 166 218 270 315 371
#     4  11  23  44  61  96 127 181 208 254 330 391
#     4  11  22  41  63 100 123 168 212 278 310 365
#     4  12  28  40  66  94 142 168 210 262 326 396
#     4  10  22  41  67  91 135 169 212 264 321 380
#
# _framework density 19.470068999999999
#
# number of rings (size 3 to 8) (size 9 to 14) (size 15 to 20)
#    0.000    1.091    7.273    0.000    3.818    1.455 
#    0.000    1.818    4.000    0.000    0.000    0.000 
#    0.000    0.000    0.000    0.000    0.000    0.000 
#
# Total GULP energy -122777.672548 kJ/mol
# GULP energy per Si atom -5580.803298 kJ/mol
# Density = 1.942575 g / cm^3
# Si number density = 19.470069 Si / 1000 Ang^3
#
#
#
# Elastic Constant Matrix: (Units=GPa)
#
#
# Indices 1 2 3 4 5 6 
#
# 1 73.5168 35.4868 15.4387 0.0000 -1.3913 0.0000
# 2 35.4868 120.1446 29.0895 0.0000 0.9997 0.0000
# 3 15.4387 29.0895 35.7216 0.0000 4.5812 0.0000
# 4 0.0000 0.0000 0.0000 45.4039 0.0000 10.3947
# 5 -1.3913 0.9997 4.5812 0.0000 41.0895 0.0000
# 6 0.0000 0.0000 0.0000 10.3947 0.0000 23.8833
#
#
#
# Elastic Compliance Matrix: (Units=1/GPa)
#
#
# Indices 1 2 3 4 5 6 
#
# 1 0.016335 -0.003850 -0.004066 0.000000 0.001100 0.000000
# 2 -0.003850 0.011294 -0.007590 0.000000 0.000441 0.000000
# 3 -0.004066 -0.007590 0.036448 0.000000 -0.004017 0.000000
# 4 0.000000 0.000000 0.000000 0.024462 0.000000 -0.010647
# 5 0.001100 0.000441 -0.004017 0.000000 0.024811 0.000000
# 6 0.000000 0.000000 0.000000 -0.010647 0.000000 0.046504
#
#
# Mechanical properties :
#
#
# Convention : Reuss Voigt Hill
#
# Bulk Modulus (GPa) = 30.24313 43.26811 36.75562
# Shear Modulus (GPa) = 24.76606 32.03320 28.39963
#
# Velocity S-wave (km/s) = 3.57039 4.06057 3.82334
# Velocity P-wave (km/s) = 5.70647 6.65248 6.19755
#
# Compressibility (1/GPa) = 0.03306536
#
# Stress axis : x y z
#
# Youngs Moduli (GPa) = 61.21730 88.53915 27.43635
#
# Poissons Ratio (x) = 0.34083 0.11156
# Poissons Ratio (y) = 0.23566 0.20825
# Poissons Ratio (z) = 0.24893 0.67204
#
# Static dielectric constant tensor:
#      x y z
#    x 1.698180 0.000000 0.021920 
#    y 0.000000 1.681060 0.000000 
#    z 0.021920 0.000000 1.703630 
# 
# From -- ./inp_files/178798.got.cif
#   From: 2010.05.17/outbox.cif.g08.bks.cpg/sg15_90_cif.got.tgz:178798.got - 2010.06.03 18:47:42.
