data_PCOD9290067
_publ_section_title
;
Structure prediction by ZEFSAII (Michael W. Deem and Ramdas Pophale) SiO2 
 PCOD9290067
Probable space group: C 2/C
;
_chemical_formula_sum "Si O2"
_cell_formula_units_Z 48
_cell_length_a 16.202936
_cell_length_b 28.776615
_cell_length_c 5.367960
_cell_angle_alpha 90.000000
_cell_angle_beta 112.471231
_cell_angle_gamma 90.000000
_cell_volume 2312.854441
_symmetry_space_group_name_H-M "C 2/C"
_symmetry_group_IT_number 15
_symmetry_cell_setting 'monoclinic'
loop_
_space_group_symop_operation_xyz
x,y,z
-x,y,1/2-z
-x,-y,-z
x,-y,1/2+z
1/2+x,1/2+y,z
1/2-x,1/2+y,1/2-z
1/2-x,1/2-y,-z
1/2+x,1/2-y,1/2+z
loop_
_atom_site_type_symbol
_atom_site_label
_atom_site_fract_x
_atom_site_fract_y
_atom_site_fract_z
Si Si1 0.940365 0.327132 0.930918
Si Si2 0.837760 0.130762 0.920230
Si Si3 0.558050 0.276233 0.067455
Si Si4 0.262128 0.883271 0.709771
Si Si5 0.432811 0.542344 0.860087
Si Si6 0.252728 0.012643 0.397085
O O1 0.897829 0.275025 0.875152
O O2 0.861776 0.364352 0.841790
O O3 0.000000 0.331808 0.750000
O O4 0.000000 0.330942 0.250000
O O5 0.885267 0.177355 0.885755
O O6 0.770845 0.120180 0.612781
O O7 0.898169 0.083393 0.000240
O O8 0.797039 0.141473 0.144424
O O9 0.500000 0.278963 0.250000
O O10 0.500000 0.275794 0.750000
O O11 0.251287 0.935807 0.790745
O O12 0.500000 0.569264 0.750000
O O13 0.343429 0.513871 0.673570
O O14 0.500000 0.500000 0.000000
O O15 0.296778 0.014474 0.718658
#
# Coordination Sequence:
#
# PCOD9290067 Si02
#       6
#     8   8   8   8   8   8
#     4  10  23  44  70  91 116 157 203 260 329 381
#     4  12  24  38  59  95 127 170 207 248 304 347
#     4  10  22  41  60  90 131 166 205 254 302 357
#     4  12  23  41  64  91 122 160 210 258 305 378
#     4  12  21  34  55  83 124 168 208 233 275 353
#     4  12  22  40  56  85 122 167 200 247 303 343
#
# _framework density 20.753577
#
# number of rings (size 3 to 8) (size 9 to 14) (size 15 to 20)
#    0.000    0.667    5.000    2.500    0.000    3.333 
#    0.000    0.000    0.000    3.000    0.000    0.000 
#    0.000    0.000    0.000    0.000    0.000    0.000 
#
# Total GULP energy -133711.614004 kJ/mol
# GULP energy per Si atom -5571.317250 kJ/mol
# Density = 2.070634 g / cm^3
# Si number density = 20.753577 Si / 1000 Ang^3
#
#
#
# Elastic Constant Matrix: (Units=GPa)
#
#
# Indices 1 2 3 4 5 6 
#
# 1 64.4801 50.2855 22.2507 0.0000 -9.5037 0.0000
# 2 50.2855 105.3922 20.6487 0.0000 13.5004 0.0000
# 3 22.2507 20.6487 96.5527 0.0000 -22.6971 0.0000
# 4 0.0000 0.0000 0.0000 23.0469 0.0000 -5.2157
# 5 -9.5037 13.5004 -22.6971 0.0000 29.1697 0.0000
# 6 0.0000 0.0000 0.0000 -5.2157 0.0000 9.7695
#
#
#
# Elastic Compliance Matrix: (Units=1/GPa)
#
#
# Indices 1 2 3 4 5 6 
#
# 1 0.032109 -0.018050 0.001081 0.000000 0.019657 0.000000
# 2 -0.018050 0.021662 -0.005155 0.000000 -0.019918 0.000000
# 3 0.001081 -0.005155 0.014508 0.000000 0.014027 0.000000
# 4 0.000000 0.000000 0.000000 0.049353 0.000000 0.026348
# 5 0.019657 -0.019918 0.014027 0.000000 0.060819 0.000000
# 6 0.000000 0.000000 0.000000 0.026348 0.000000 0.116427
#
#
# Mechanical properties :
#
#
# Convention : Reuss Voigt Hill
#
# Bulk Modulus (GPa) = 41.61243 50.31051 45.96147
# Shear Modulus (GPa) = 14.40363 23.94655 19.17509
#
# Velocity S-wave (km/s) = 2.63731 3.40052 3.04294
# Velocity P-wave (km/s) = 5.41923 6.30179 5.87710
#
# Compressibility (1/GPa) = 0.02403128
#
# Stress axis : x y z
#
# Youngs Moduli (GPa) = 31.14370 46.16401 68.92934
#
# Poissons Ratio (x) = 0.83326 -0.07454
# Poissons Ratio (y) = 0.56214 0.35534
# Poissons Ratio (z) = -0.03368 0.23798
#
# Static dielectric constant tensor:
#      x y z
#    x 1.781300 0.000000 -0.105000 
#    y 0.000000 1.780590 0.000000 
#    z -0.105000 0.000000 1.969980 
# 
# From -- ./inp_files/11363.got.cif
#   From: 2010.05.17/outbox.cif.g08.bks.cpg/sg15_6_cif.got.tgz:11363.got - 2010.06.03 18:47:42.
