data_PCOD9290596
_publ_section_title
;
Structure prediction by ZEFSAII (Michael W. Deem and Ramdas Pophale) SiO2 
 PCOD9290596
Probable space group: C 2/C
;
_chemical_formula_sum "Si O2"
_cell_formula_units_Z 44
_cell_length_a 4.860641
_cell_length_b 34.370275
_cell_length_c 11.436051
_cell_angle_alpha 90.000000
_cell_angle_beta 65.978322
_cell_angle_gamma 90.000000
_cell_volume 1745.056944
_symmetry_space_group_name_H-M "C 2/C"
_symmetry_group_IT_number 15
_symmetry_cell_setting 'monoclinic'
loop_
_space_group_symop_operation_xyz
x,y,z
-x,y,1/2-z
-x,-y,-z
x,-y,1/2+z
1/2+x,1/2+y,z
1/2-x,1/2+y,1/2-z
1/2-x,1/2-y,-z
1/2+x,1/2-y,1/2+z
loop_
_atom_site_type_symbol
_atom_site_label
_atom_site_fract_x
_atom_site_fract_y
_atom_site_fract_z
Si Si1 0.984970 0.351380 0.618543
Si Si2 0.811845 0.409248 0.073767
Si Si3 0.588680 0.455578 0.502497
Si Si4 0.196432 0.267551 0.884549
Si Si5 0.000000 0.208519 0.750000
Si Si6 0.500000 0.851546 0.250000
Si Si7 0.500000 0.583810 0.250000
O O1 0.897663 0.311870 0.573515
O O2 0.746028 0.386196 0.659215
O O3 0.000000 0.339674 0.750000
O O4 0.252015 0.374897 0.513558
O O5 0.511922 0.433862 0.099982
O O6 0.931466 0.381457 0.155725
O O7 0.068656 0.443269 0.026931
O O8 0.500000 0.500000 0.500000
O O9 0.410995 0.441013 0.651329
O O10 0.500000 0.268085 0.750000
O O11 0.952730 0.240513 0.860922
O O12 0.250000 0.250000 0.000000
O O13 0.231870 0.179422 0.773155
#
# Coordination Sequence:
#
# PCOD9290596 Si02
#       7
#     8   8   8   8   4   4   4
#     4  11  21  41  68  95 133 190 239 299 348 447
#     4  11  25  44  70 101 138 186 238 286 367 450
#     4  11  24  43  70 106 137 177 230 298 367 442
#     4  12  27  46  71 110 151 200 260 328 390 444
#     4  12  26  46  69 104 143 196 247 310 383 436
#     4  12  26  47  68  98 147 194 237 300 366 461
#     4  10  22  41  67  96 140 174 238 282 363 435
#
# _framework density 25.214075999999999
#
# number of rings (size 3 to 8) (size 9 to 14) (size 15 to 20)
#    0.000    0.727    4.545    2.727    0.000    5.091 
#    0.000    0.000    0.000    0.000    0.000    0.000 
#    0.000    0.000    0.000    0.000    0.000    0.000 
#
# Total GULP energy -122587.974467 kJ/mol
# GULP energy per Si atom -5572.180658 kJ/mol
# Density = 2.515669 g / cm^3
# Si number density = 25.214076 Si / 1000 Ang^3
#
#
#
# Elastic Constant Matrix: (Units=GPa)
#
#
# Indices 1 2 3 4 5 6 
#
# 1 92.6865 27.3527 5.4562 0.0000 15.5076 0.0000
# 2 27.3527 199.2047 40.2401 0.0000 5.6783 0.0000
# 3 5.4562 40.2401 67.1710 0.0000 34.5900 0.0000
# 4 0.0000 0.0000 0.0000 71.8406 0.0000 44.5941
# 5 15.5076 5.6783 34.5900 0.0000 38.0606 0.0000
# 6 0.0000 0.0000 0.0000 44.5941 0.0000 53.8257
#
#
#
# Elastic Compliance Matrix: (Units=1/GPa)
#
#
# Indices 1 2 3 4 5 6 
#
# 1 0.012915 -0.002641 0.005714 0.000000 -0.010061 0.000000
# 2 -0.002641 0.006640 -0.007157 0.000000 0.006590 0.000000
# 3 0.005714 -0.007157 0.036390 0.000000 -0.034333 0.000000
# 4 0.000000 0.000000 0.000000 0.028658 0.000000 -0.023743
# 5 -0.010061 0.006590 -0.034333 0.000000 0.060592 0.000000
# 6 0.000000 0.000000 0.000000 -0.023743 0.000000 0.038249
#
#
# Mechanical properties :
#
#
# Convention : Reuss Voigt Hill
#
# Bulk Modulus (GPa) = 20.92970 56.12892 38.52931
# Shear Modulus (GPa) = 24.09187 51.81292 37.95240
#
# Velocity S-wave (km/s) = 3.09446 4.53804 3.88391
# Velocity P-wave (km/s) = 4.59199 7.05462 5.95206
#
# Compressibility (1/GPa) = 0.04777899
#
# Stress axis : x y z
#
# Youngs Moduli (GPa) = 77.42666 150.59137 27.47971
#
# Poissons Ratio (x) = 0.39770 -0.15702
# Poissons Ratio (y) = 0.20448 0.19667
# Poissons Ratio (z) = -0.44243 1.07778
#
# Static dielectric constant tensor:
#      x y z
#    x 1.829050 0.000000 0.306820 
#    y 0.000000 2.013130 0.000000 
#    z 0.306820 0.000000 1.428720 
# 
# From -- ./inp_files/73920.got.cif
#   From: 2010.05.17/outbox.cif.g08.bks.cpg/sg15_37_cif.got.tgz:73920.got - 2010.06.03 18:47:42.
