data_PCOD9290016
_publ_section_title
;
Structure prediction by ZEFSAII (Michael W. Deem and Ramdas Pophale) SiO2 
 PCOD9290016
Probable space group: C 2/C
;
_chemical_formula_sum "Si O2"
_cell_formula_units_Z 44
_cell_length_a 25.755615
_cell_length_b 11.879853
_cell_length_c 16.347548
_cell_angle_alpha 90.000000
_cell_angle_beta 22.002764
_cell_angle_gamma 90.000000
_cell_volume 1873.971065
_symmetry_space_group_name_H-M "C 2/C"
_symmetry_group_IT_number 15
_symmetry_cell_setting 'monoclinic'
loop_
_space_group_symop_operation_xyz
x,y,z
-x,y,1/2-z
-x,-y,-z
x,-y,1/2+z
1/2+x,1/2+y,z
1/2-x,1/2+y,1/2-z
1/2-x,1/2-y,-z
1/2+x,1/2-y,1/2+z
loop_
_atom_site_type_symbol
_atom_site_label
_atom_site_fract_x
_atom_site_fract_y
_atom_site_fract_z
Si Si1 0.734675 0.131417 0.119585
Si Si2 0.371009 0.425133 0.996421
Si Si3 0.500000 0.221487 0.250000
Si Si4 0.194650 0.454196 0.501287
Si Si5 0.746965 0.204205 0.411345
Si Si6 0.559579 0.655886 0.927129
O O1 0.636488 0.224079 0.304212
O O2 0.666291 0.086749 0.135418
O O3 0.883272 0.194222 0.883564
O O4 0.765221 0.026742 0.134372
O O5 0.500000 0.452372 0.750000
O O6 0.316702 0.304604 0.046551
O O7 0.416998 0.403893 0.020696
O O8 0.388086 0.125166 0.442217
O O9 0.169210 0.584909 0.525754
O O10 0.357336 0.425939 0.254687
O O11 0.750000 0.250000 0.500000
O O12 0.898243 0.178560 0.153784
#
# Coordination Sequence:
#
# PCOD9290016 Si02
#       6
#     8   8   4   8   8   8
#     4  11  24  47  72 102 140 180 231 285 342 407
#     4  12  25  45  70  99 144 186 226 281 346 408
#     4  10  22  40  74 100 132 176 228 282 336 398
#     4  11  25  47  73 102 138 179 231 286 340 409
#     4  12  25  46  69 100 142 183 224 284 345 408
#     4  11  26  43  71 104 132 186 231 281 340 410
#
# _framework density 23.47955
#
# number of rings (size 3 to 8) (size 9 to 14) (size 15 to 20)
#    0.000    0.727    4.545    2.727    3.818    6.545 
#    3.273    0.000    0.000    0.000    0.000    0.000 
#    0.000    0.000    0.000    0.000    0.000    0.000 
#
# Total GULP energy -122812.870730 kJ/mol
# GULP energy per Si atom -5582.403215 kJ/mol
# Density = 2.342611 g / cm^3
# Si number density = 23.479550 Si / 1000 Ang^3
#
#
#
# Elastic Constant Matrix: (Units=GPa)
#
#
# Indices 1 2 3 4 5 6 
#
# 1 59.7725 32.9690 6.4950 0.0000 -2.6759 0.0000
# 2 32.9690 209.4653 19.0343 0.0000 -13.4874 0.0000
# 3 6.4950 19.0343 69.1892 0.0000 -7.7319 0.0000
# 4 0.0000 0.0000 0.0000 -12.5615 0.0000 -32.3625
# 5 -2.6759 -13.4874 -7.7319 0.0000 32.4221 0.0000
# 6 0.0000 0.0000 0.0000 -32.3625 0.0000 27.6858
#
#
#
# Elastic Compliance Matrix: (Units=1/GPa)
#
#
# Indices 1 2 3 4 5 6 
#
# 1 0.018382 -0.002800 -0.000941 0.000000 0.000128 0.000000
# 2 -0.002800 0.005423 -0.001030 0.000000 0.001779 0.000000
# 3 -0.000941 -0.001030 0.015173 0.000000 0.003112 0.000000
# 4 0.000000 0.000000 0.000000 -0.019845 0.000000 -0.023197
# 5 0.000128 0.001779 0.003112 0.000000 0.032336 0.000000
# 6 0.000000 0.000000 0.000000 -0.023197 0.000000 0.009004
#
#
# Mechanical properties :
#
#
# Convention : Reuss Voigt Hill
#
# Bulk Modulus (GPa) = 33.97197 50.60261 42.28729
# Shear Modulus (GPa) = 62.63583 28.17121 45.40352
#
# Velocity S-wave (km/s) = 5.17056 3.46760 4.40221
# Velocity P-wave (km/s) = 7.08141 6.13440 6.62485
#
# Compressibility (1/GPa) = 0.02943603
#
# Stress axis : x y z
#
# Youngs Moduli (GPa) = 54.40029 184.40421 65.90803
#
# Poissons Ratio (x) = 0.51624 0.06203
# Poissons Ratio (y) = 0.15229 0.06790
# Poissons Ratio (z) = 0.05120 0.18998
#
# Static dielectric constant tensor:
#      x y z
#    x 1.943830 0.000000 -0.004150 
#    y 0.000000 1.890710 0.000000 
#    z -0.004150 0.000000 1.977920 
# 
# From -- ./inp_files/225090.got.cif
#   From: 2010.05.17/outbox.cif.g08.bks.cpg/sg15_113_cif.got.tgz:225090.got - 2010.06.03 18:47:42.
