data_PCOD9290600
_publ_section_title
;
Structure prediction by ZEFSAII (Michael W. Deem and Ramdas Pophale) SiO2 
 PCOD9290600
Probable space group: C 2/C
;
_chemical_formula_sum "Si O2"
_cell_formula_units_Z 56
_cell_length_a 18.290493
_cell_length_b 30.141827
_cell_length_c 5.219118
_cell_angle_alpha 90.000000
_cell_angle_beta 70.498137
_cell_angle_gamma 90.000000
_cell_volume 2712.274565
_symmetry_space_group_name_H-M "C 2/C"
_symmetry_group_IT_number 15
_symmetry_cell_setting 'monoclinic'
loop_
_space_group_symop_operation_xyz
x,y,z
-x,y,1/2-z
-x,-y,-z
x,-y,1/2+z
1/2+x,1/2+y,z
1/2-x,1/2+y,1/2-z
1/2-x,1/2-y,-z
1/2+x,1/2-y,1/2+z
loop_
_atom_site_type_symbol
_atom_site_label
_atom_site_fract_x
_atom_site_fract_y
_atom_site_fract_z
Si Si1 0.787983 0.719559 0.731806
Si Si2 0.816693 0.393724 0.705180
Si Si3 0.549075 0.634988 0.932960
Si Si4 0.279925 0.375515 0.190651
Si Si5 0.586130 0.816218 0.107406
Si Si6 0.415007 0.736259 0.741286
Si Si7 0.406862 0.976188 0.822590
O O1 0.728336 0.678352 0.785294
O O2 0.863731 0.688563 0.699056
O O3 0.832486 0.752472 0.479678
O O4 0.750000 0.750000 0.000000
O O5 0.768959 0.394074 0.493862
O O6 0.866344 0.348445 0.631247
O O7 0.875242 0.432573 0.718687
O O8 0.755914 0.392138 0.004180
O O9 0.500000 0.615891 0.750000
O O10 0.629778 0.612170 0.914618
O O11 0.572513 0.684487 0.813496
O O12 0.500000 0.638699 0.250000
O O13 0.500000 0.832505 0.250000
O O14 0.587856 0.765818 0.008462
O O15 0.500000 0.751672 0.750000
O O16 0.500000 0.974440 0.750000
O O17 0.381619 0.013966 0.644892
#
# Coordination Sequence:
#
# PCOD9290600 Si02
#       7
#     8   8   8   8   8   8   8
#     4  11  24  35  54  76 113 156 208 265 318 356
#     4  11  24  40  63  92 125 160 200 253 300 359
#     4  11  25  40  60  82 115 161 214 266 316 374
#     4  11  24  41  59  87 121 157 207 263 316 362
#     4  11  22  36  52  76 112 155 206 256 303 353
#     4  11  22  35  55  76 109 159 215 267 306 368
#     4  10  22  41  67  97 133 169 201 232 283 361
#
# _framework density 20.646875999999999
#
# number of rings (size 3 to 8) (size 9 to 14) (size 15 to 20)
#    0.000    1.143    2.857    3.000   10.000    5.714 
#    0.000    0.000    0.000    0.000    0.000    0.000 
#    0.000   40.000    0.000    0.000    0.000    0.000 
#
# Total GULP energy -155924.457538 kJ/mol
# GULP energy per Si atom -5568.730626 kJ/mol
# Density = 2.059988 g / cm^3
# Si number density = 20.646876 Si / 1000 Ang^3
#
#
#
# Elastic Constant Matrix: (Units=GPa)
#
#
# Indices 1 2 3 4 5 6 
#
# 1 133.6986 4.1803 29.2209 0.0000 4.7356 0.0000
# 2 4.1803 30.6840 -2.7351 0.0000 22.1704 0.0000
# 3 29.2209 -2.7351 103.2643 0.0000 -0.5283 0.0000
# 4 0.0000 0.0000 0.0000 17.0607 0.0000 11.3449
# 5 4.7356 22.1704 -0.5283 0.0000 32.1970 0.0000
# 6 0.0000 0.0000 0.0000 11.3449 0.0000 43.0824
#
#
#
# Elastic Compliance Matrix: (Units=1/GPa)
#
#
# Indices 1 2 3 4 5 6 
#
# 1 0.008031 -0.000832 -0.002298 0.000000 -0.000646 0.000000
# 2 -0.000832 0.065176 0.001733 0.000000 -0.044729 0.000000
# 3 -0.002298 0.001733 0.010376 0.000000 -0.000685 0.000000
# 4 0.000000 0.000000 0.000000 0.071057 0.000000 -0.018711
# 5 -0.000646 -0.044729 -0.000685 0.000000 0.061942 0.000000
# 6 0.000000 0.000000 0.000000 -0.018711 0.000000 0.028139
#
#
# Mechanical properties :
#
#
# Convention : Reuss Voigt Hill
#
# Bulk Modulus (GPa) = 12.37789 36.55323 24.46556
# Shear Modulus (GPa) = 18.21859 34.26674 26.24266
#
# Velocity S-wave (km/s) = 2.97373 4.07831 3.56901
# Velocity P-wave (km/s) = 4.21886 6.31817 5.37206
#
# Compressibility (1/GPa) = 0.08078922
#
# Stress axis : x y z
#
# Youngs Moduli (GPa) = 124.52362 15.34299 96.37170
#
# Poissons Ratio (x) = 0.01277 0.22144
# Poissons Ratio (y) = 0.10364 -0.16701
# Poissons Ratio (z) = 0.28613 -0.02659
#
# Static dielectric constant tensor:
#      x y z
#    x 1.875250 0.000000 0.039840 
#    y 0.000000 1.767930 0.000000 
#    z 0.039840 0.000000 1.772110 
# 
# From -- ./inp_files/11951.got.cif
#   From: 2010.05.17/outbox.cif.g08.bks.cpg/sg15_6_cif.got.tgz:11951.got - 2010.06.03 18:47:42.
