data_PCOD9290057
_publ_section_title
;
Structure prediction by ZEFSAII (Michael W. Deem and Ramdas Pophale) SiO2 
 PCOD9290057
Probable space group: C 2/C
;
_chemical_formula_sum "Si O2"
_cell_formula_units_Z 52
_cell_length_a 12.002495
_cell_length_b 22.833004
_cell_length_c 13.638997
_cell_angle_alpha 90.000000
_cell_angle_beta 49.717335
_cell_angle_gamma 90.000000
_cell_volume 2851.439302
_symmetry_space_group_name_H-M "C 2/C"
_symmetry_group_IT_number 15
_symmetry_cell_setting 'monoclinic'
loop_
_space_group_symop_operation_xyz
x,y,z
-x,y,1/2-z
-x,-y,-z
x,-y,1/2+z
1/2+x,1/2+y,z
1/2-x,1/2+y,1/2-z
1/2-x,1/2-y,-z
1/2+x,1/2-y,1/2+z
loop_
_atom_site_type_symbol
_atom_site_label
_atom_site_fract_x
_atom_site_fract_y
_atom_site_fract_z
Si Si1 0.188052 0.077330 0.533765
Si Si2 0.604327 0.289290 0.101500
Si Si3 0.953315 0.272875 0.524483
Si Si4 0.621671 0.716388 0.260603
Si Si5 0.500000 0.517667 0.250000
Si Si6 0.004740 0.384853 0.861225
Si Si7 0.672206 0.410255 0.816198
O O1 0.146222 0.143123 0.591479
O O2 0.361839 0.075802 0.448617
O O3 0.141494 0.073716 0.446190
O O4 0.115146 0.025706 0.634533
O O5 0.500000 0.270303 0.250000
O O6 0.505137 0.280469 0.062887
O O7 0.750000 0.250000 0.000000
O O8 0.777108 0.269775 0.620668
O O9 0.995290 0.331090 0.562250
O O10 0.047371 0.265896 0.371867
O O11 0.500000 0.701363 0.250000
O O12 0.651917 0.659122 0.309225
O O13 0.422793 0.556207 0.209999
O O14 0.154049 0.419479 0.794555
O O15 0.000000 0.363040 0.750000
#
# Coordination Sequence:
#
# PCOD9290057 Si02
#       7
#     8   8   8   8   4   8   8
#     4  11  22  38  61  90 115 149 196 244 298 349
#     4  12  22  34  58  95 128 147 180 238 307 369
#     4  11  21  34  60  87 123 156 188 240 296 363
#     4  11  22  38  57  84 119 166 201 236 288 356
#     4  12  24  40  62  80 118 154 202 250 282 338
#     4   9  20  38  61  89 119 150 190 238 302 363
#     4  10  22  41  59  82 112 160 201 239 291 344
#
# _framework density 18.236405000000001
#
# number of rings (size 3 to 8) (size 9 to 14) (size 15 to 20)
#    0.000    1.231    4.615    2.308    2.154    0.615 
#    0.000    0.000    0.000    0.000    0.000    0.000 
#    0.000    0.000    0.000    0.000    0.000    0.000 
#
# Total GULP energy -144994.773590 kJ/mol
# GULP energy per Si atom -5576.722061 kJ/mol
# Density = 1.819490 g / cm^3
# Si number density = 18.236405 Si / 1000 Ang^3
#
#
#
# Elastic Constant Matrix: (Units=GPa)
#
#
# Indices 1 2 3 4 5 6 
#
# 1 119.7562 17.9143 42.7357 0.0000 -21.7182 0.0000
# 2 17.9143 62.0929 34.0067 0.0000 -16.4154 0.0000
# 3 42.7357 34.0067 104.0827 0.0000 -14.7074 0.0000
# 4 0.0000 0.0000 0.0000 24.5262 0.0000 3.7356
# 5 -21.7182 -16.4154 -14.7074 0.0000 24.1235 0.0000
# 6 0.0000 0.0000 0.0000 3.7356 0.0000 12.2593
#
#
#
# Elastic Compliance Matrix: (Units=1/GPa)
#
#
# Indices 1 2 3 4 5 6 
#
# 1 0.011032 0.001059 -0.003688 0.000000 0.008404 0.000000
# 2 0.001059 0.022389 -0.005977 0.000000 0.012544 0.000000
# 3 -0.003688 -0.005977 0.013165 0.000000 0.000639 0.000000
# 4 0.000000 0.000000 0.000000 0.042757 0.000000 -0.013029
# 5 0.008404 0.012544 0.000639 0.000000 0.057945 0.000000
# 6 0.000000 0.000000 0.000000 -0.013029 0.000000 0.085541
#
#
# Mechanical properties :
#
#
# Convention : Reuss Voigt Hill
#
# Bulk Modulus (GPa) = 34.04436 52.80502 43.42469
# Shear Modulus (GPa) = 19.24301 24.93347 22.08824
#
# Velocity S-wave (km/s) = 3.25190 3.70163 3.48403
# Velocity P-wave (km/s) = 5.72789 6.87663 6.32838
#
# Compressibility (1/GPa) = 0.02937344
#
# Stress axis : x y z
#
# Youngs Moduli (GPa) = 90.64404 44.66388 75.95726
#
# Poissons Ratio (x) = -0.04729 0.28014
# Poissons Ratio (y) = -0.09598 0.45403
# Poissons Ratio (z) = 0.33431 0.26697
#
# Static dielectric constant tensor:
#      x y z
#    x 1.609250 0.000000 -0.055020 
#    y 0.000000 1.611760 0.000000 
#    z -0.055020 0.000000 1.600590 
# 
# From -- ./inp_files/89495.got.cif
#   From: 2010.05.17/outbox.cif.g08.bks.cpg/sg15_45_cif.got.tgz:89495.got - 2010.06.03 18:47:42.
