data_PCOD9290255
_publ_section_title
;
Structure prediction by ZEFSAII (Michael W. Deem and Ramdas Pophale) SiO2 
 PCOD9290255
Probable space group: C 2/C
;
_chemical_formula_sum "Si O2"
_cell_formula_units_Z 56
_cell_length_a 8.880494
_cell_length_b 17.528155
_cell_length_c 16.104416
_cell_angle_alpha 90.000000
_cell_angle_beta 98.146386
_cell_angle_gamma 90.000000
_cell_volume 2481.496677
_symmetry_space_group_name_H-M "C 2/C"
_symmetry_group_IT_number 15
_symmetry_cell_setting 'monoclinic'
loop_
_space_group_symop_operation_xyz
x,y,z
-x,y,1/2-z
-x,-y,-z
x,-y,1/2+z
1/2+x,1/2+y,z
1/2-x,1/2+y,1/2-z
1/2-x,1/2-y,-z
1/2+x,1/2-y,1/2+z
loop_
_atom_site_type_symbol
_atom_site_label
_atom_site_fract_x
_atom_site_fract_y
_atom_site_fract_z
Si Si1 0.737692 0.385066 0.715174
Si Si2 0.276743 0.168413 0.459753
Si Si3 0.000000 0.488411 0.750000
Si Si4 0.237403 0.156361 0.941357
Si Si5 0.518527 0.116116 0.878732
Si Si6 0.436988 0.208704 0.102885
Si Si7 0.028587 0.073743 0.058496
Si Si8 0.500000 0.743510 0.250000
O O1 0.855244 0.440067 0.771736
O O2 0.853603 0.348061 0.657472
O O3 0.617248 0.434945 0.652166
O O4 0.640285 0.314464 0.744397
O O5 0.250000 0.250000 0.500000
O O6 0.372046 0.119132 0.533738
O O7 0.387359 0.189537 0.392105
O O8 0.121670 0.123100 0.433036
O O9 0.062359 0.545577 0.824870
O O10 0.343047 0.104286 0.892777
O O11 0.123344 0.207807 0.878642
O O12 0.369064 0.201404 0.003588
O O13 0.136777 0.120871 0.005232
O O14 0.523621 0.197113 0.828728
O O15 0.000000 0.000000 0.000000
#
# Coordination Sequence:
#
# PCOD9290255 Si02
#       8
#     8   8   4   8   8   8   8   4
#     4  11  24  42  61  88 121 167 215 256 312 380
#     4  11  20  35  66 100 122 154 207 273 324 374
#     4  11  26  44  60  85 136 182 210 249 318 404
#     4   9  17  36  62  89 121 156 199 264 314 361
#     4  10  22  41  64  92 128 173 210 252 328 390
#     4   9  18  35  62  91 118 149 206 265 309 357
#     4  11  23  38  62  96 127 155 201 273 333 372
#     4  11  22  40  66  89 124 172 218 261 300 382
#
# _framework density 22.567028000000001
#
# number of rings (size 3 to 8) (size 9 to 14) (size 15 to 20)
#    0.000    1.714    2.857    1.714    0.000    4.571 
#    0.000    4.286    0.000    1.714    0.000    0.000 
#    0.000    0.000    0.000    0.000    0.000    0.000 
#
# Total GULP energy -156211.015885 kJ/mol
# GULP energy per Si atom -5578.964853 kJ/mol
# Density = 2.251566 g / cm^3
# Si number density = 22.567028 Si / 1000 Ang^3
#
#
#
# Elastic Constant Matrix: (Units=GPa)
#
#
# Indices 1 2 3 4 5 6 
#
# 1 162.5287 41.1641 20.9428 0.0000 2.9579 0.0000
# 2 41.1641 77.2451 9.3442 0.0000 16.0793 0.0000
# 3 20.9428 9.3442 42.1930 0.0000 16.4013 0.0000
# 4 0.0000 0.0000 0.0000 22.7784 0.0000 -5.5084
# 5 2.9579 16.0793 16.4013 0.0000 33.8012 0.0000
# 6 0.0000 0.0000 0.0000 -5.5084 0.0000 33.7395
#
#
#
# Elastic Compliance Matrix: (Units=1/GPa)
#
#
# Indices 1 2 3 4 5 6 
#
# 1 0.007727 -0.004321 -0.004208 0.000000 0.003421 0.000000
# 2 -0.004321 0.016799 0.001705 0.000000 -0.008441 0.000000
# 3 -0.004208 0.001705 0.031531 0.000000 -0.015743 0.000000
# 4 0.000000 0.000000 0.000000 0.045706 0.000000 0.007462
# 5 0.003421 -0.008441 -0.015743 0.000000 0.040940 0.000000
# 6 0.000000 0.000000 0.000000 0.007462 0.000000 0.030857
#
#
# Mechanical properties :
#
#
# Convention : Reuss Voigt Hill
#
# Bulk Modulus (GPa) = 23.57939 47.20766 35.39352
# Shear Modulus (GPa) = 24.83304 32.09820 28.46562
#
# Velocity S-wave (km/s) = 3.32085 3.77550 3.55545
# Velocity P-wave (km/s) = 5.01750 6.32219 5.70725
#
# Compressibility (1/GPa) = 0.04240992
#
# Stress axis : x y z
#
# Youngs Moduli (GPa) = 129.41400 59.52689 31.71437
#
# Poissons Ratio (x) = 0.25721 0.13347
# Poissons Ratio (y) = 0.55918 -0.05409
# Poissons Ratio (z) = 0.54463 -0.10152
#
# Static dielectric constant tensor:
#      x y z
#    x 1.875300 0.000000 0.003610 
#    y 0.000000 1.954540 0.000000 
#    z 0.003610 0.000000 1.937600 
# 
# From -- ./inp_files/191074.got.cif
#   From: 2010.05.17/outbox.cif.g08.bks.cpg/sg15_96_cif.got.tgz:191074.got - 2010.06.03 18:47:42.
