data_PCOD9290960
_publ_section_title
;
Structure prediction by ZEFSAII (Michael W. Deem and Ramdas Pophale) SiO2 
 PCOD9290960
Probable space group: C 2/C
;
_chemical_formula_sum "Si O2"
_cell_formula_units_Z 40
_cell_length_a 12.529436
_cell_length_b 6.952523
_cell_length_c 20.004592
_cell_angle_alpha 90.000000
_cell_angle_beta 124.857995
_cell_angle_gamma 90.000000
_cell_volume 1429.946790
_symmetry_space_group_name_H-M "C 2/C"
_symmetry_group_IT_number 15
_symmetry_cell_setting 'monoclinic'
loop_
_space_group_symop_operation_xyz
x,y,z
-x,y,1/2-z
-x,-y,-z
x,-y,1/2+z
1/2+x,1/2+y,z
1/2-x,1/2+y,1/2-z
1/2-x,1/2-y,-z
1/2+x,1/2-y,1/2+z
loop_
_atom_site_type_symbol
_atom_site_label
_atom_site_fract_x
_atom_site_fract_y
_atom_site_fract_z
Si Si1 0.071549 0.897343 0.660026
Si Si2 0.589603 0.964571 0.342876
Si Si3 0.737491 0.934046 0.169904
Si Si4 0.501793 0.216095 0.079639
Si Si5 0.200330 0.295228 0.555149
O O1 0.984926 0.728933 0.660096
O O2 0.183243 0.775785 0.662452
O O3 0.998609 0.058802 0.591885
O O4 0.136834 0.018259 0.743003
O O5 0.500000 0.042473 0.250000
O O6 0.729600 0.871599 0.375342
O O7 0.601738 0.107606 0.410649
O O8 0.751268 0.997779 0.098363
O O9 0.628906 0.094975 0.152047
O O10 0.545531 0.200943 0.016528
O O11 0.250000 0.250000 0.500000
#
# Coordination Sequence:
#
# PCOD9290960 Si02
#       5
#     8   8   8   8   8
#     4  11  18  37  62  95 122 159 210 268 331 373
#     4  11  22  39  64  98 120 160 222 266 324 393
#     4   9  18  33  62  85 123 162 199 263 324 374
#     4   9  22  38  61  88 127 166 203 270 316 384
#     4  10  22  42  62  86 130 176 210 261 327 385
#
# _framework density 27.973071000000001
#
# number of rings (size 3 to 8) (size 9 to 14) (size 15 to 20)
#    1.200    0.800    4.000    0.000    2.800    1.600 
#    3.600    2.000    0.000    0.000    0.000    0.000 
#    0.000    0.000    0.000    0.000    0.000    0.000 
#
# Total GULP energy -111701.636607 kJ/mol
# GULP energy per Si atom -5585.081830 kJ/mol
# Density = 2.790940 g / cm^3
# Si number density = 27.973071 Si / 1000 Ang^3
#
#
#
# Elastic Constant Matrix: (Units=GPa)
#
#
# Indices 1 2 3 4 5 6 
#
# 1 105.4611 73.4412 20.9334 0.0000 -24.6454 0.0000
# 2 73.4412 197.0594 20.4181 0.0000 -15.8373 0.0000
# 3 20.9334 20.4181 94.9718 0.0000 -13.8798 0.0000
# 4 0.0000 0.0000 0.0000 15.6343 0.0000 -5.1606
# 5 -24.6454 -15.8373 -13.8798 0.0000 32.2479 0.0000
# 6 0.0000 0.0000 0.0000 -5.1606 0.0000 63.6891
#
#
#
# Elastic Compliance Matrix: (Units=1/GPa)
#
#
# Indices 1 2 3 4 5 6 
#
# 1 0.015071 -0.004811 -0.001013 0.000000 0.008719 0.000000
# 2 -0.004811 0.006878 -0.000493 0.000000 -0.000511 0.000000
# 3 -0.001013 -0.000493 0.011429 0.000000 0.003903 0.000000
# 4 0.000000 0.000000 0.000000 0.065720 0.000000 0.005325
# 5 0.008719 -0.000511 0.003903 0.000000 0.039102 0.000000
# 6 0.000000 0.000000 0.000000 0.005325 0.000000 0.016133
#
#
# Mechanical properties :
#
#
# Convention : Reuss Voigt Hill
#
# Bulk Modulus (GPa) = 48.20826 69.67531 58.94178
# Shear Modulus (GPa) = 28.75515 41.16088 34.95802
#
# Velocity S-wave (km/s) = 3.20966 3.84011 3.53895
# Velocity P-wave (km/s) = 5.56840 6.68012 6.14943
#
# Compressibility (1/GPa) = 0.02074333
#
# Stress axis : x y z
#
# Youngs Moduli (GPa) = 66.35123 145.39909 87.49573
#
# Poissons Ratio (x) = 0.69953 0.08866
# Poissons Ratio (y) = 0.31922 0.04313
# Poissons Ratio (z) = 0.06724 0.07167
#
# Static dielectric constant tensor:
#      x y z
#    x 2.375840 0.000000 -0.034670 
#    y 0.000000 2.088680 0.000000 
#    z -0.034670 0.000000 2.312150 
# 
# From -- ./inp_files/276849.got.cif
#   From: 2010.05.17/outbox.cif.g08.bks.cpg/sg15_139_cif.got.tgz:276849.got - 2010.06.03 18:47:42.
