data_PCOD9290778
_publ_section_title
;
Structure prediction by ZEFSAII (Michael W. Deem and Ramdas Pophale) SiO2 
 PCOD9290778
Probable space group: C 2/C
;
_chemical_formula_sum "Si O2"
_cell_formula_units_Z 36
_cell_length_a 17.529529
_cell_length_b 17.539773
_cell_length_c 5.377242
_cell_angle_alpha 90.000000
_cell_angle_beta 72.454718
_cell_angle_gamma 90.000000
_cell_volume 1576.394568
_symmetry_space_group_name_H-M "C 2/C"
_symmetry_group_IT_number 15
_symmetry_cell_setting 'monoclinic'
loop_
_space_group_symop_operation_xyz
x,y,z
-x,y,1/2-z
-x,-y,-z
x,-y,1/2+z
1/2+x,1/2+y,z
1/2-x,1/2+y,1/2-z
1/2-x,1/2-y,-z
1/2+x,1/2-y,1/2+z
loop_
_atom_site_type_symbol
_atom_site_label
_atom_site_fract_x
_atom_site_fract_y
_atom_site_fract_z
Si Si1 0.500000 0.551502 0.750000
Si Si2 0.920288 0.840414 0.992664
Si Si3 0.636986 0.806847 0.683156
Si Si4 0.909864 0.528444 0.144903
Si Si5 0.800280 0.801306 0.763333
O O1 0.500000 0.500000 0.500000
O O2 0.429602 0.609816 0.734046
O O3 0.848113 0.862469 0.878631
O O4 0.000000 0.845497 0.750000
O O5 0.901837 0.753913 0.090075
O O6 0.592123 0.885943 0.751337
O O7 0.730965 0.827121 0.642541
O O8 0.639426 0.757327 0.430429
O O9 0.872146 0.478543 0.405857
O O10 0.000000 0.500000 0.000000
O O11 0.750000 0.750000 0.000000
#
# Coordination Sequence:
#
# PCOD9290778 Si02
#       5
#     4   8   8   8   8
#     4  12  26  46  64  98 140 170 222 298 364 436
#     4  11  23  40  73 102 129 182 238 297 370 432
#     4  10  22  41  70 100 144 186 248 295 358 447
#     4  10  24  40  63 100 148 189 228 284 359 429
#     4   9  21  41  68  97 134 179 244 301 348 422
#
# _framework density 22.836922999999999
#
# number of rings (size 3 to 8) (size 9 to 14) (size 15 to 20)
#    0.000    1.778    1.111    1.333    9.333    3.556 
#    0.000    2.222    0.000    0.000    0.000    0.000 
#    0.000    0.000    0.000    0.000    0.000    0.000 
#
# Total GULP energy -100249.997602 kJ/mol
# GULP energy per Si atom -5569.444311 kJ/mol
# Density = 2.278495 g / cm^3
# Si number density = 22.836923 Si / 1000 Ang^3
#
#
#
# Elastic Constant Matrix: (Units=GPa)
#
#
# Indices 1 2 3 4 5 6 
#
# 1 97.5723 36.6851 25.5275 0.0000 24.3637 0.0000
# 2 36.6851 116.5523 30.1352 0.0000 -0.0627 0.0000
# 3 25.5275 30.1352 148.8391 0.0000 19.4350 0.0000
# 4 0.0000 0.0000 0.0000 27.4357 0.0000 7.0990
# 5 24.3637 -0.0627 19.4350 0.0000 37.1352 0.0000
# 6 0.0000 0.0000 0.0000 7.0990 0.0000 16.7290
#
#
#
# Elastic Compliance Matrix: (Units=1/GPa)
#
#
# Indices 1 2 3 4 5 6 
#
# 1 0.014299 -0.004413 -0.000357 0.000000 -0.009202 0.000000
# 2 -0.004413 0.010454 -0.001868 0.000000 0.003891 0.000000
# 3 -0.000357 -0.001868 0.007651 0.000000 -0.003773 0.000000
# 4 0.000000 0.000000 0.000000 0.040945 0.000000 -0.017375
# 5 -0.009202 0.003891 -0.003773 0.000000 0.034947 0.000000
# 6 0.000000 0.000000 0.000000 -0.017375 0.000000 0.067150
#
#
# Mechanical properties :
#
#
# Convention : Reuss Voigt Hill
#
# Bulk Modulus (GPa) = 52.28134 60.85104 56.56619
# Shear Modulus (GPa) = 25.62818 34.30104 29.96461
#
# Velocity S-wave (km/s) = 3.35360 3.87977 3.62624
# Velocity P-wave (km/s) = 6.15943 6.83914 6.50816
#
# Compressibility (1/GPa) = 0.01912728
#
# Stress axis : x y z
#
# Youngs Moduli (GPa) = 69.93344 95.65782 130.70622
#
# Poissons Ratio (x) = 0.42217 0.04671
# Poissons Ratio (y) = 0.30864 0.24412
# Poissons Ratio (z) = 0.02499 0.17866
#
# Static dielectric constant tensor:
#      x y z
#    x 2.034330 0.000000 0.124140 
#    y 0.000000 1.871810 0.000000 
#    z 0.124140 0.000000 1.953500 
# 
# From -- ./inp_files/9771.got.cif
#   From: 2010.05.17/outbox.cif.g08.bks.cpg/sg15_5_cif.got.tgz:9771.got - 2010.06.03 18:47:42.
