data_PCOD9290934
_publ_section_title
;
Structure prediction by ZEFSAII (Michael W. Deem and Ramdas Pophale) SiO2 
 PCOD9290934
Probable space group: C 2/C
;
_chemical_formula_sum "Si O2"
_cell_formula_units_Z 52
_cell_length_a 13.657205
_cell_length_b 18.561021
_cell_length_c 11.538522
_cell_angle_alpha 90.000000
_cell_angle_beta 110.923058
_cell_angle_gamma 90.000000
_cell_volume 2732.052464
_symmetry_space_group_name_H-M "C 2/C"
_symmetry_group_IT_number 15
_symmetry_cell_setting 'monoclinic'
loop_
_space_group_symop_operation_xyz
x,y,z
-x,y,1/2-z
-x,-y,-z
x,-y,1/2+z
1/2+x,1/2+y,z
1/2-x,1/2+y,1/2-z
1/2-x,1/2-y,-z
1/2+x,1/2-y,1/2+z
loop_
_atom_site_type_symbol
_atom_site_label
_atom_site_fract_x
_atom_site_fract_y
_atom_site_fract_z
Si Si1 0.384044 0.072608 0.645678
Si Si2 0.789541 0.653036 0.805791
Si Si3 0.125322 0.037214 0.804467
Si Si4 0.789654 0.960627 0.900001
Si Si5 0.500000 0.839854 0.750000
Si Si6 0.269083 0.793242 0.626456
Si Si7 0.996740 0.414186 0.510033
O O1 0.500000 0.066920 0.750000
O O2 0.312150 0.125646 0.687571
O O3 0.405783 0.105742 0.529895
O O4 0.324552 0.997027 0.630612
O O5 0.686372 0.612632 0.809037
O O6 0.782737 0.738486 0.805407
O O7 0.888096 0.620743 0.920167
O O8 0.000000 0.042275 0.750000
O O9 0.163701 0.989564 0.705676
O O10 0.154836 0.017487 0.952518
O O11 0.776010 0.874116 0.890818
O O12 0.393620 0.795724 0.694382
O O13 0.513822 0.888889 0.644788
O O14 0.250000 0.750000 0.500000
O O15 0.000000 0.500000 0.500000
#
# Coordination Sequence:
#
# PCOD9290934 Si02
#       7
#     8   8   8   8   4   8   8
#     4   9  21  39  67  96 128 162 202 274 335 384
#     4  10  22  42  61  90 132 165 211 267 321 383
#     4  11  23  42  65  91 123 177 220 270 314 381
#     4  11  24  41  68  95 130 164 223 274 324 389
#     4  12  26  36  68  98 126 174 210 264 324 408
#     4  12  24  42  60  95 130 170 213 262 325 394
#     4  11  22  37  65 101 128 157 213 269 337 377
#
# _framework density 19.03331
#
# number of rings (size 3 to 8) (size 9 to 14) (size 15 to 20)
#    0.000    1.231    3.077    2.308   14.000    0.000 
#    0.000    3.077    0.000    0.000    0.000    0.000 
#    0.000    0.000    0.000    0.000    0.000    0.000 
#
# Total GULP energy -144900.195293 kJ/mol
# GULP energy per Si atom -5573.084434 kJ/mol
# Density = 1.898999 g / cm^3
# Si number density = 19.033310 Si / 1000 Ang^3
#
#
#
# Elastic Constant Matrix: (Units=GPa)
#
#
# Indices 1 2 3 4 5 6 
#
# 1 119.0457 56.1946 53.5305 0.0000 -2.5109 0.0000
# 2 56.1946 131.1668 51.8621 0.0000 -5.2566 0.0000
# 3 53.5305 51.8621 100.1405 0.0000 -17.3030 0.0000
# 4 0.0000 0.0000 0.0000 23.1237 0.0000 -2.2288
# 5 -2.5109 -5.2566 -17.3030 0.0000 34.5066 0.0000
# 6 0.0000 0.0000 0.0000 -2.2288 0.0000 22.8740
#
#
#
# Elastic Compliance Matrix: (Units=1/GPa)
#
#
# Indices 1 2 3 4 5 6 
#
# 1 0.012253 -0.003265 -0.005245 0.000000 -0.002236 0.000000
# 2 -0.003265 0.010497 -0.003784 0.000000 -0.000536 0.000000
# 3 -0.005245 -0.003784 0.015967 0.000000 0.007049 0.000000
# 4 0.000000 0.000000 0.000000 0.043656 0.000000 0.004254
# 5 -0.002236 -0.000536 0.007049 0.000000 0.032270 0.000000
# 6 0.000000 0.000000 0.000000 0.004254 0.000000 0.044132
#
#
# Mechanical properties :
#
#
# Convention : Reuss Voigt Hill
#
# Bulk Modulus (GPa) = 70.77407 74.83637 72.80522
# Shear Modulus (GPa) = 26.58543 28.68525 27.63534
#
# Velocity S-wave (km/s) = 3.74141 3.88636 3.81457
# Velocity P-wave (km/s) = 7.47859 7.71637 7.59841
#
# Compressibility (1/GPa) = 0.01412947
#
# Stress axis : x y z
#
# Youngs Moduli (GPa) = 81.61414 95.26295 62.62824
#
# Poissons Ratio (x) = 0.31104 0.32849
# Poissons Ratio (y) = 0.26648 0.23697
# Poissons Ratio (z) = 0.42808 0.36044
#
# Static dielectric constant tensor:
#      x y z
#    x 1.698740 0.000000 -0.055230 
#    y 0.000000 1.652710 0.000000 
#    z -0.055230 0.000000 1.779960 
# 
# From -- ./inp_files/98439.got.cif
#   From: 2010.05.17/outbox.cif.g08.bks.cpg/sg15_50_cif.got.tgz:98439.got - 2010.06.03 18:47:42.
