data_PCOD9290844
_publ_section_title
;
Structure prediction by ZEFSAII (Michael W. Deem and Ramdas Pophale) SiO2 
 PCOD9290844
Probable space group: C 2/C
;
_chemical_formula_sum "Si O2"
_cell_formula_units_Z 40
_cell_length_a 10.186995
_cell_length_b 11.209616
_cell_length_c 15.494722
_cell_angle_alpha 90.000000
_cell_angle_beta 92.484612
_cell_angle_gamma 90.000000
_cell_volume 1767.714585
_symmetry_space_group_name_H-M "C 2/C"
_symmetry_group_IT_number 15
_symmetry_cell_setting 'monoclinic'
loop_
_space_group_symop_operation_xyz
x,y,z
-x,y,1/2-z
-x,-y,-z
x,-y,1/2+z
1/2+x,1/2+y,z
1/2-x,1/2+y,1/2-z
1/2-x,1/2-y,-z
1/2+x,1/2-y,1/2+z
loop_
_atom_site_type_symbol
_atom_site_label
_atom_site_fract_x
_atom_site_fract_y
_atom_site_fract_z
Si Si1 0.798189 0.941981 0.987663
Si Si2 0.682918 0.111394 0.114820
Si Si3 0.748983 0.873989 0.338137
Si Si4 0.500000 0.662795 0.750000
Si Si5 0.446551 0.768646 0.557884
Si Si6 0.500000 0.986081 0.250000
O O1 0.675379 0.857244 0.958483
O O2 0.801637 0.047386 0.918907
O O3 0.918502 0.850513 0.002391
O O4 0.769512 0.007903 0.076794
O O5 0.753029 0.232228 0.145926
O O6 0.578334 0.158976 0.040004
O O7 0.594873 0.059540 0.189471
O O8 0.862316 0.899145 0.270051
O O9 0.603552 0.912378 0.308816
O O10 0.463745 0.730546 0.658973
#
# Coordination Sequence:
#
# PCOD9290844 Si02
#       6
#     8   8   8   4   8   4
#     4  11  23  42  71 102 138 182 235 285 345 414
#     4  11  23  44  68 100 140 181 230 293 341 417
#     4  11  25  43  74 103 139 187 236 288 348 413
#     4  10  23  46  67  98 144 181 230 285 346 412
#     4  10  22  41  71  96 137 186 224 278 359 407
#     4  12  25  46  73 102 144 189 230 289 356 410
#
# _framework density 22.628088000000002
#
# number of rings (size 3 to 8) (size 9 to 14) (size 15 to 20)
#    0.000    1.200    2.000    4.800    0.000    3.200 
#    0.000    8.000    0.000    0.000    0.000    0.000 
#    0.000    0.000    0.000    0.000    0.000    0.000 
#
# Total GULP energy -111716.420641 kJ/mol
# GULP energy per Si atom -5585.821032 kJ/mol
# Density = 2.257659 g / cm^3
# Si number density = 22.628088 Si / 1000 Ang^3
#
#
#
# Elastic Constant Matrix: (Units=GPa)
#
#
# Indices 1 2 3 4 5 6 
#
# 1 27.3718 41.8407 10.7169 0.0000 12.9149 0.0000
# 2 41.8407 111.5772 41.7768 0.0000 7.8312 0.0000
# 3 10.7169 41.7768 76.6545 0.0000 0.3628 0.0000
# 4 0.0000 0.0000 0.0000 12.6453 0.0000 -3.7908
# 5 12.9149 7.8312 0.3628 0.0000 40.7816 0.0000
# 6 0.0000 0.0000 0.0000 -3.7908 0.0000 24.6019
#
#
#
# Elastic Compliance Matrix: (Units=1/GPa)
#
#
# Indices 1 2 3 4 5 6 
#
# 1 0.112341 -0.043188 0.007961 0.000000 -0.027354 0.000000
# 2 -0.043188 0.028047 -0.009287 0.000000 0.008374 0.000000
# 3 0.007961 -0.009287 0.016998 0.000000 -0.000889 0.000000
# 4 0.000000 0.000000 0.000000 0.082911 0.000000 0.012775
# 5 -0.027354 0.008374 -0.000889 0.000000 0.031583 0.000000
# 6 0.000000 0.000000 0.000000 0.012775 0.000000 0.042616
#
#
# Mechanical properties :
#
#
# Convention : Reuss Voigt Hill
#
# Bulk Modulus (GPa) = 14.62892 44.91913 29.77403
# Shear Modulus (GPa) = 11.72850 23.69036 17.70943
#
# Velocity S-wave (km/s) = 2.27913 3.23916 2.80059
# Velocity P-wave (km/s) = 3.66126 5.82097 4.86254
#
# Compressibility (1/GPa) = 0.06835777
#
# Stress axis : x y z
#
# Youngs Moduli (GPa) = 8.90145 35.65403 58.82891
#
# Poissons Ratio (x) = 1.53983 -0.46833
# Poissons Ratio (y) = 0.38444 0.54637
# Poissons Ratio (z) = -0.07086 0.33114
#
# Static dielectric constant tensor:
#      x y z
#    x 1.868660 0.000000 -0.013770 
#    y 0.000000 1.858900 0.000000 
#    z -0.013770 0.000000 1.871360 
# 
# From -- ./inp_files/195264.got.cif
#   From: 2010.05.17/outbox.cif.g08.bks.cpg/sg15_98_cif.got.tgz:195264.got - 2010.06.03 18:47:42.
