data_PCOD9290928
_publ_section_title
;
Structure prediction by ZEFSAII (Michael W. Deem and Ramdas Pophale) SiO2 
 PCOD9290928
Probable space group: C 2/C
;
_chemical_formula_sum "Si O2"
_cell_formula_units_Z 60
_cell_length_a 17.676120
_cell_length_b 8.729222
_cell_length_c 18.366114
_cell_angle_alpha 90.000000
_cell_angle_beta 82.890220
_cell_angle_gamma 90.000000
_cell_volume 2812.078790
_symmetry_space_group_name_H-M "C 2/C"
_symmetry_group_IT_number 15
_symmetry_cell_setting 'monoclinic'
loop_
_space_group_symop_operation_xyz
x,y,z
-x,y,1/2-z
-x,-y,-z
x,-y,1/2+z
1/2+x,1/2+y,z
1/2-x,1/2+y,1/2-z
1/2-x,1/2-y,-z
1/2+x,1/2-y,1/2+z
loop_
_atom_site_type_symbol
_atom_site_label
_atom_site_fract_x
_atom_site_fract_y
_atom_site_fract_z
Si Si1 0.296612 0.600376 0.141335
Si Si2 0.500000 0.719843 0.250000
Si Si3 0.083383 0.385183 0.537555
Si Si4 0.768534 0.572852 0.986224
Si Si5 0.542216 0.150948 0.320817
Si Si6 0.070269 0.648039 0.875058
Si Si7 0.380661 0.545417 0.748927
Si Si8 0.685083 0.653691 0.600270
O O1 0.369643 0.713060 0.127770
O O2 0.305296 0.503455 0.213908
O O3 0.227755 0.717936 0.142562
O O4 0.281640 0.486758 0.075972
O O5 0.496784 0.810954 0.174226
O O6 0.570196 0.607058 0.250393
O O7 0.142211 0.528873 0.537053
O O8 0.048055 0.379200 0.461321
O O9 0.141648 0.242133 0.541379
O O10 0.020986 0.358795 0.607711
O O11 0.740672 0.470776 0.058306
O O12 0.750000 0.750000 0.000000
O O13 0.500000 0.116320 0.250000
O O14 0.580044 0.316868 0.301625
O O15 0.599583 0.013468 0.337259
O O16 0.371389 0.587946 0.833752
#
# Coordination Sequence:
#
# PCOD9290928 Si02
#       8
#     8   4   8   8   8   8   8   8
#     4  10  23  42  66  94 130 174 211 272 343 391
#     4  10  22  42  60  98 136 172 222 270 330 400
#     4  11  22  45  70  92 135 178 218 276 339 397
#     4  11  24  43  69 101 130 169 230 277 328 400
#     4  12  24  43  66  98 134 177 223 277 327 402
#     4  11  22  42  68  91 135 178 220 267 338 404
#     4  11  24  42  66  98 134 172 226 278 331 400
#     4  11  21  45  69  91 137 173 218 280 337 396
#
# _framework density 21.336528000000001
#
# number of rings (size 3 to 8) (size 9 to 14) (size 15 to 20)
#    0.000    1.067    5.333    1.200    1.867    3.200 
#    2.400    2.000    0.000    0.000    0.000    0.000 
#    0.000    0.000    0.000    0.000    0.000    0.000 
#
# Total GULP energy -167249.860823 kJ/mol
# GULP energy per Si atom -5574.995361 kJ/mol
# Density = 2.128797 g / cm^3
# Si number density = 21.336528 Si / 1000 Ang^3
#
#
#
# Elastic Constant Matrix: (Units=GPa)
#
#
# Indices 1 2 3 4 5 6 
#
# 1 39.6237 11.3684 25.0590 0.0000 12.4443 0.0000
# 2 11.3684 84.6690 17.1680 0.0000 8.0613 0.0000
# 3 25.0590 17.1680 113.8231 0.0000 26.5599 0.0000
# 4 0.0000 0.0000 0.0000 25.2758 0.0000 6.8419
# 5 12.4443 8.0613 26.5599 0.0000 38.3010 0.0000
# 6 0.0000 0.0000 0.0000 6.8419 0.0000 14.4795
#
#
#
# Elastic Compliance Matrix: (Units=1/GPa)
#
#
# Indices 1 2 3 4 5 6 
#
# 1 0.031064 -0.002573 -0.005037 0.000000 -0.006058 0.000000
# 2 -0.002573 0.012473 -0.001071 0.000000 -0.001047 0.000000
# 3 -0.005037 -0.001071 0.011479 0.000000 -0.006098 0.000000
# 4 0.000000 0.000000 0.000000 0.045366 0.000000 -0.021436
# 5 -0.006058 -0.001047 -0.006098 0.000000 0.032526 0.000000
# 6 0.000000 0.000000 0.000000 -0.021436 0.000000 0.079192
#
#
# Mechanical properties :
#
#
# Convention : Reuss Voigt Hill
#
# Bulk Modulus (GPa) = 26.55714 38.36739 32.46227
# Shear Modulus (GPa) = 20.66005 27.91264 24.28634
#
# Velocity S-wave (km/s) = 3.11512 3.62084 3.37746
# Velocity P-wave (km/s) = 5.04108 5.95833 5.51879
#
# Compressibility (1/GPa) = 0.03765466
#
# Stress axis : x y z
#
# Youngs Moduli (GPa) = 32.19175 80.17386 87.11561
#
# Poissons Ratio (x) = 0.20626 0.43882
# Poissons Ratio (y) = 0.08282 0.09327
# Poissons Ratio (z) = 0.16216 0.08583
#
# Static dielectric constant tensor:
#      x y z
#    x 1.840790 0.000000 0.031520 
#    y 0.000000 2.051910 0.000000 
#    z 0.031520 0.000000 1.828830 
# 
# From -- ./inp_files/209570.got.cif
#   From: 2010.05.17/outbox.cif.g08.bks.cpg/sg15_105_cif.got.tgz:209570.got - 2010.06.03 18:47:42.
