data_PCOD9290548
_publ_section_title
;
Structure prediction by ZEFSAII (Michael W. Deem and Ramdas Pophale) SiO2 
 PCOD9290548
Probable space group: C 2/C
;
_chemical_formula_sum "Si O2"
_cell_formula_units_Z 56
_cell_length_a 19.536191
_cell_length_b 14.071212
_cell_length_c 18.305951
_cell_angle_alpha 90.000000
_cell_angle_beta 145.365304
_cell_angle_gamma 90.000000
_cell_volume 2860.049312
_symmetry_space_group_name_H-M "C 2/C"
_symmetry_group_IT_number 15
_symmetry_cell_setting 'monoclinic'
loop_
_space_group_symop_operation_xyz
x,y,z
-x,y,1/2-z
-x,-y,-z
x,-y,1/2+z
1/2+x,1/2+y,z
1/2-x,1/2+y,1/2-z
1/2-x,1/2-y,-z
1/2+x,1/2-y,1/2+z
loop_
_atom_site_type_symbol
_atom_site_label
_atom_site_fract_x
_atom_site_fract_y
_atom_site_fract_z
Si Si1 0.500000 0.081532 0.250000
Si Si2 0.210231 0.571348 0.935696
Si Si3 0.052686 0.134596 0.428613
Si Si4 0.706787 0.418894 0.824454
Si Si5 0.440749 0.887021 0.856533
Si Si6 0.149640 0.434186 0.150031
Si Si7 0.685291 0.740125 0.661692
Si Si8 0.000000 0.277253 0.250000
O O1 0.504993 0.131470 0.175484
O O2 0.378148 0.018770 0.142924
O O3 0.117584 0.658034 0.840375
O O4 0.324413 0.578866 0.982475
O O5 0.266813 0.576467 0.066611
O O6 0.073394 0.191270 0.521734
O O7 0.030386 0.212050 0.345625
O O8 0.932923 0.071887 0.319884
O O9 0.781165 0.498664 0.846794
O O10 0.753130 0.316209 0.838106
O O11 0.351187 0.803179 0.800676
O O12 0.385406 0.994013 0.814826
O O13 0.535421 0.893558 0.006241
O O14 0.226776 0.345439 0.242470
#
# Coordination Sequence:
#
# PCOD9290548 Si02
#       8
#     4   8   8   8   8   8   8   4
#     4  11  22  40  66  89 118 158 216 255 298 365
#     4  11  21  34  57  92 122 157 198 254 311 365
#     4  12  21  34  56  90 130 160 195 247 319 371
#     4  11  21  37  60  88 126 162 200 253 305 368
#     4  10  22  41  67  89 122 164 207 258 305 358
#     4  10  22  42  62  90 122 164 210 252 305 369
#     4  11  23  38  61  90 122 167 208 250 304 365
#     4  11  20  30  54  85 130 158 192 247 308 379
#
# _framework density 19.580082000000001
#
# number of rings (size 3 to 8) (size 9 to 14) (size 15 to 20)
#    0.000    1.143    4.286    3.000    0.000    1.714 
#    0.000    2.143    3.143    0.000    0.000    0.000 
#    0.000    0.000    0.000    0.000    0.000    0.000 
#
# Total GULP energy -156408.586566 kJ/mol
# GULP energy per Si atom -5586.020949 kJ/mol
# Density = 1.953552 g / cm^3
# Si number density = 19.580082 Si / 1000 Ang^3
#
#
#
# Elastic Constant Matrix: (Units=GPa)
#
#
# Indices 1 2 3 4 5 6 
#
# 1 74.1841 1.2747 7.0079 0.0000 -6.3441 0.0000
# 2 1.2747 54.0171 18.7247 0.0000 -5.3983 0.0000
# 3 7.0079 18.7247 75.9083 0.0000 8.3177 0.0000
# 4 0.0000 0.0000 0.0000 19.2973 0.0000 10.9466
# 5 -6.3441 -5.3983 8.3177 0.0000 39.9491 0.0000
# 6 0.0000 0.0000 0.0000 10.9466 0.0000 9.0015
#
#
#
# Elastic Compliance Matrix: (Units=1/GPa)
#
#
# Indices 1 2 3 4 5 6 
#
# 1 0.013856 0.000523 -0.001696 0.000000 0.002624 0.000000
# 2 0.000523 0.020863 -0.005641 0.000000 0.004077 0.000000
# 3 -0.001696 -0.005641 0.015181 0.000000 -0.004192 0.000000
# 4 0.000000 0.000000 0.000000 0.167080 0.000000 -0.203184
# 5 0.002624 0.004077 -0.004192 0.000000 0.026872 0.000000
# 6 0.000000 0.000000 0.000000 -0.203184 0.000000 0.358183
#
#
# Mechanical properties :
#
#
# Convention : Reuss Voigt Hill
#
# Bulk Modulus (GPa) = 27.56945 28.68044 28.12494
# Shear Modulus (GPa) = 7.96491 25.45641 16.71066
#
# Velocity S-wave (km/s) = 2.01908 3.60963 2.92456
# Velocity P-wave (km/s) = 4.42114 5.66146 5.07930
#
# Compressibility (1/GPa) = 0.03627204
#
# Stress axis : x y z
#
# Youngs Moduli (GPa) = 72.17308 47.93101 65.87029
#
# Poissons Ratio (x) = -0.02507 0.11170
# Poissons Ratio (y) = -0.03775 0.37161
# Poissons Ratio (z) = 0.12239 0.27040
#
# Static dielectric constant tensor:
#      x y z
#    x 1.705160 0.000000 0.019310 
#    y 0.000000 1.672060 0.000000 
#    z 0.019310 0.000000 1.727020 
# 
# From -- ./inp_files/215813.got.cif
#   From: 2010.05.17/outbox.cif.g08.bks.cpg/sg15_108_cif.got.tgz:215813.got - 2010.06.03 18:47:42.
