data_PCOD9290519
_publ_section_title
;
Structure prediction by ZEFSAII (Michael W. Deem and Ramdas Pophale) SiO2 
 PCOD9290519
Probable space group: C 2/C
;
_chemical_formula_sum "Si O2"
_cell_formula_units_Z 60
_cell_length_a 20.427924
_cell_length_b 11.209298
_cell_length_c 19.074895
_cell_angle_alpha 90.000000
_cell_angle_beta 34.481357
_cell_angle_gamma 90.000000
_cell_volume 2472.789513
_symmetry_space_group_name_H-M "C 2/C"
_symmetry_group_IT_number 15
_symmetry_cell_setting 'monoclinic'
loop_
_space_group_symop_operation_xyz
x,y,z
-x,y,1/2-z
-x,-y,-z
x,-y,1/2+z
1/2+x,1/2+y,z
1/2-x,1/2+y,1/2-z
1/2-x,1/2-y,-z
1/2+x,1/2-y,1/2+z
loop_
_atom_site_type_symbol
_atom_site_label
_atom_site_fract_x
_atom_site_fract_y
_atom_site_fract_z
Si Si1 0.355020 0.480280 0.432214
Si Si2 0.787029 0.760624 0.776550
Si Si3 0.000000 0.760188 0.250000
Si Si4 0.134297 0.222413 0.146100
Si Si5 0.245466 0.859108 0.173191
Si Si6 0.329260 0.120288 0.310592
Si Si7 0.124154 0.557007 0.392711
Si Si8 0.041228 0.983957 0.884919
O O1 0.402482 0.353152 0.363199
O O2 0.363892 0.576983 0.362186
O O3 0.231216 0.461008 0.577663
O O4 0.437283 0.529827 0.422094
O O5 0.833072 0.718738 0.809190
O O6 0.793945 0.669643 0.707742
O O7 0.655150 0.809614 0.892158
O O8 0.869637 0.874287 0.689987
O O9 0.052051 0.674258 0.264006
O O10 0.000000 0.256117 0.250000
O O11 0.250000 0.250000 0.000000
O O12 0.252914 0.738336 0.124305
O O13 0.113335 0.899928 0.297327
O O14 0.315268 0.978543 0.098606
O O15 0.336981 0.069192 0.224437
O O16 0.000000 0.500000 0.500000
O O17 0.000000 0.000000 0.000000
#
# Coordination Sequence:
#
# PCOD9290519 Si02
#       8
#     8   8   4   8   8   8   8   8
#     4  12  24  47  71 100 145 185 249 300 363 450
#     4  10  23  42  65  98 135 183 236 289 369 431
#     4  12  24  46  74  98 148 190 242 296 368 446
#     4  12  28  49  75 106 147 199 250 308 378 451
#     4  10  22  41  66  98 135 168 236 290 359 428
#     4  11  26  42  68 109 131 191 238 294 368 435
#     4  10  24  42  66  99 143 175 231 305 365 429
#     4  11  21  39  72  97 131 184 230 297 363 443
#
# _framework density 24.264095999999999
#
# number of rings (size 3 to 8) (size 9 to 14) (size 15 to 20)
#    0.000    1.067    3.333    2.800    7.467    4.267 
#    1.200    0.000    0.000    0.000    0.000    0.000 
#    0.000    0.000    0.000    0.000    0.000    0.000 
#
# Total GULP energy -167396.141254 kJ/mol
# GULP energy per Si atom -5579.871375 kJ/mol
# Density = 2.420887 g / cm^3
# Si number density = 24.264096 Si / 1000 Ang^3
#
#
#
# Elastic Constant Matrix: (Units=GPa)
#
#
# Indices 1 2 3 4 5 6 
#
# 1 110.2437 1.8385 2.2359 0.0000 0.7514 0.0000
# 2 1.8385 58.0101 2.6465 0.0000 -5.7184 0.0000
# 3 2.2359 2.6465 78.8961 0.0000 -12.1974 0.0000
# 4 0.0000 0.0000 0.0000 25.0043 0.0000 5.1800
# 5 0.7514 -5.7184 -12.1974 0.0000 34.8743 0.0000
# 6 0.0000 0.0000 0.0000 5.1800 0.0000 37.8026
#
#
#
# Elastic Compliance Matrix: (Units=1/GPa)
#
#
# Indices 1 2 3 4 5 6 
#
# 1 0.009084 -0.000309 -0.000301 0.000000 -0.000352 0.000000
# 2 -0.000309 0.017534 -0.000142 0.000000 0.002832 0.000000
# 3 -0.000301 -0.000142 0.013411 0.000000 0.004674 0.000000
# 4 0.000000 0.000000 0.000000 0.041162 0.000000 -0.005640
# 5 -0.000352 0.002832 0.004674 0.000000 0.030781 0.000000
# 6 0.000000 0.000000 0.000000 -0.005640 0.000000 0.027226
#
#
# Mechanical properties :
#
#
# Convention : Reuss Voigt Hill
#
# Bulk Modulus (GPa) = 25.95697 28.95463 27.45580
# Shear Modulus (GPa) = 32.56410 35.56483 34.06447
#
# Velocity S-wave (km/s) = 3.66740 3.83265 3.75094
# Velocity P-wave (km/s) = 5.35294 5.61646 5.48629
#
# Compressibility (1/GPa) = 0.03852530
#
# Stress axis : x y z
#
# Youngs Moduli (GPa) = 110.07790 57.03271 74.56709
#
# Poissons Ratio (x) = 0.01761 0.02248
# Poissons Ratio (y) = 0.03400 0.01055
# Poissons Ratio (z) = 0.03319 0.00807
#
# Static dielectric constant tensor:
#      x y z
#    x 1.975530 0.000000 -0.032880 
#    y 0.000000 2.017820 0.000000 
#    z -0.032880 0.000000 2.018270 
# 
# From -- ./inp_files/215200.got.cif
#   From: 2010.05.17/outbox.cif.g08.bks.cpg/sg15_108_cif.got.tgz:215200.got - 2010.06.03 18:47:42.
