data_PCOD9290411
_publ_section_title
;
Structure prediction by ZEFSAII (Michael W. Deem and Ramdas Pophale) SiO2 
 PCOD9290411
Probable space group: C 2/C
;
_chemical_formula_sum "Si O2"
_cell_formula_units_Z 40
_cell_length_a 4.940878
_cell_length_b 12.696266
_cell_length_c 26.913721
_cell_angle_alpha 90.000000
_cell_angle_beta 113.171285
_cell_angle_gamma 90.000000
_cell_volume 1552.124579
_symmetry_space_group_name_H-M "C 2/C"
_symmetry_group_IT_number 15
_symmetry_cell_setting 'monoclinic'
loop_
_space_group_symop_operation_xyz
x,y,z
-x,y,1/2-z
-x,-y,-z
x,-y,1/2+z
1/2+x,1/2+y,z
1/2-x,1/2+y,1/2-z
1/2-x,1/2-y,-z
1/2+x,1/2-y,1/2+z
loop_
_atom_site_type_symbol
_atom_site_label
_atom_site_fract_x
_atom_site_fract_y
_atom_site_fract_z
Si Si1 0.221911 0.702891 0.834073
Si Si2 0.000000 0.124367 0.250000
Si Si3 0.292202 0.171499 0.081804
Si Si4 0.998379 0.645924 0.511140
Si Si5 0.155059 0.938842 0.071795
Si Si6 0.500000 0.975794 0.250000
O O1 0.531397 0.761750 0.865098
O O2 0.160934 0.643422 0.881391
O O3 0.209255 0.605130 0.795267
O O4 0.016170 0.795720 0.798151
O O5 0.286030 0.050532 0.266464
O O6 0.027624 0.238785 0.038606
O O7 0.197761 0.057232 0.093231
O O8 0.502304 0.153787 0.048422
O O9 0.321003 0.598988 0.548708
O O10 0.775121 0.573193 0.524770
#
# Coordination Sequence:
#
# PCOD9290411 Si02
#       6
#     8   4   8   8   8   4
#     4  10  25  42  69 100 124 166 221 264 326 393
#     4  11  26  49  70  92 128 165 208 275 334 388
#     4  10  22  41  65  96 136 175 215 267 313 373
#     4  10  24  40  62  96 136 179 220 254 311 382
#     4  11  23  41  64  96 134 174 217 263 315 377
#     4  11  26  49  70  94 128 165 210 273 336 392
#
# _framework density 25.771127
#
# number of rings (size 3 to 8) (size 9 to 14) (size 15 to 20)
#    0.000    1.600    0.000    2.400    0.000   24.800 
#    0.000    0.000    0.000    0.000    0.000    0.000 
#    0.000    0.000    0.000    0.000    0.000    0.000 
#
# Total GULP energy -111991.562452 kJ/mol
# GULP energy per Si atom -5599.578123 kJ/mol
# Density = 2.571247 g / cm^3
# Si number density = 25.771127 Si / 1000 Ang^3
#
#
#
# Elastic Constant Matrix: (Units=GPa)
#
#
# Indices 1 2 3 4 5 6 
#
# 1 83.9328 34.1490 0.7872 0.0000 -1.4435 0.0000
# 2 34.1490 204.0479 60.8704 0.0000 11.6195 0.0000
# 3 0.7872 60.8704 103.3381 0.0000 16.8181 0.0000
# 4 0.0000 0.0000 0.0000 45.3472 0.0000 7.9542
# 5 -1.4435 11.6195 16.8181 0.0000 27.5395 0.0000
# 6 0.0000 0.0000 0.0000 7.9542 0.0000 28.1534
#
#
#
# Elastic Compliance Matrix: (Units=1/GPa)
#
#
# Indices 1 2 3 4 5 6 
#
# 1 0.012982 -0.002610 0.001275 0.000000 0.001003 0.000000
# 2 -0.002610 0.006475 -0.003694 0.000000 -0.000613 0.000000
# 3 0.001275 -0.003694 0.012857 0.000000 -0.006226 0.000000
# 4 0.000000 0.000000 0.000000 0.023202 0.000000 -0.006555
# 5 0.001003 -0.000613 -0.006226 0.000000 0.040425 0.000000
# 6 0.000000 0.000000 0.000000 -0.006555 0.000000 0.037372
#
#
# Mechanical properties :
#
#
# Convention : Reuss Voigt Hill
#
# Bulk Modulus (GPa) = 44.93428 64.77021 54.85224
# Shear Modulus (GPa) = 33.15934 39.90883 36.53409
#
# Velocity S-wave (km/s) = 3.59093 3.93948 3.76924
# Velocity P-wave (km/s) = 5.88785 6.77348 6.34614
#
# Compressibility (1/GPa) = 0.02225472
#
# Stress axis : x y z
#
# Youngs Moduli (GPa) = 77.03244 154.45086 77.78134
#
# Poissons Ratio (x) = 0.40314 -0.09920
# Poissons Ratio (y) = 0.20106 0.28734
# Poissons Ratio (z) = -0.09825 0.57057
#
# Static dielectric constant tensor:
#      x y z
#    x 2.054530 0.000000 -0.003880 
#    y 0.000000 2.071200 0.000000 
#    z -0.003880 0.000000 2.059070 
# 
# From -- ./inp_files/285267.got.cif
#   From: 2010.05.17/outbox.cif.g08.bks.cpg/sg15_143_cif.got.tgz:285267.got - 2010.06.03 18:47:42.
