data_PCOD9290144
_publ_section_title
;
Structure prediction by ZEFSAII (Michael W. Deem and Ramdas Pophale) SiO2 
 PCOD9290144
Probable space group: C 2/C
;
_chemical_formula_sum "Si O2"
_cell_formula_units_Z 36
_cell_length_a 6.578782
_cell_length_b 19.903417
_cell_length_c 11.912765
_cell_angle_alpha 90.000000
_cell_angle_beta 93.245384
_cell_angle_gamma 90.000000
_cell_volume 1557.358676
_symmetry_space_group_name_H-M "C 2/C"
_symmetry_group_IT_number 15
_symmetry_cell_setting 'monoclinic'
loop_
_space_group_symop_operation_xyz
x,y,z
-x,y,1/2-z
-x,-y,-z
x,-y,1/2+z
1/2+x,1/2+y,z
1/2-x,1/2+y,1/2-z
1/2-x,1/2-y,-z
1/2+x,1/2-y,1/2+z
loop_
_atom_site_type_symbol
_atom_site_label
_atom_site_fract_x
_atom_site_fract_y
_atom_site_fract_z
Si Si1 0.021787 0.078026 0.376069
Si Si2 0.500000 0.551199 0.750000
Si Si3 0.020417 0.759516 0.120343
Si Si4 0.311412 0.137983 0.988284
Si Si5 0.712221 0.872168 0.409274
O O1 0.805310 0.088275 0.431365
O O2 0.000000 0.110551 0.250000
O O3 0.184585 0.106056 0.469091
O O4 0.075705 0.001249 0.347401
O O5 0.669436 0.593382 0.690431
O O6 0.948048 0.692032 0.059224
O O7 0.000000 0.747962 0.250000
O O8 0.240366 0.792668 0.104484
O O9 0.862511 0.817846 0.077005
O O10 0.476258 0.108758 0.908040
#
# Coordination Sequence:
#
# PCOD9290144 Si02
#       5
#     8   4   8   8   8
#     4   9  23  41  60  93 130 165 209 267 309 373
#     4  10  22  42  64  94 134 166 206 276 310 366
#     4  10  22  41  62  95 132 163 208 274 313 369
#     4  10  23  41  65  96 123 173 217 249 326 389
#     4  11  21  42  63  91 131 167 214 261 317 377
#
# _framework density 23.116063
#
# number of rings (size 3 to 8) (size 9 to 14) (size 15 to 20)
#    0.667    1.333    1.111    1.333    3.111    1.778 
#    0.000    4.444    0.000    0.000    0.000    0.000 
#    0.000    0.000    0.000    0.000    0.000    0.000 
#
# Total GULP energy -100473.600750 kJ/mol
# GULP energy per Si atom -5581.866708 kJ/mol
# Density = 2.306345 g / cm^3
# Si number density = 23.116063 Si / 1000 Ang^3
#
#
#
# Elastic Constant Matrix: (Units=GPa)
#
#
# Indices 1 2 3 4 5 6 
#
# 1 93.0972 22.6013 56.8933 0.0000 -37.8428 0.0000
# 2 22.6013 50.0234 33.0803 0.0000 -4.1947 0.0000
# 3 56.8933 33.0803 135.2877 0.0000 -15.3080 0.0000
# 4 0.0000 0.0000 0.0000 35.5517 0.0000 -6.8357
# 5 -37.8428 -4.1947 -15.3080 0.0000 41.3598 0.0000
# 6 0.0000 0.0000 0.0000 -6.8357 0.0000 12.8225
#
#
#
# Elastic Compliance Matrix: (Units=1/GPa)
#
#
# Indices 1 2 3 4 5 6 
#
# 1 0.023459 -0.004662 -0.006628 0.000000 0.018539 0.000000
# 2 -0.004662 0.024776 -0.004484 0.000000 -0.003412 0.000000
# 3 -0.006628 -0.004484 0.010998 0.000000 -0.002448 0.000000
# 4 0.000000 0.000000 0.000000 0.031341 0.000000 0.016708
# 5 0.018539 -0.003412 -0.002448 0.000000 0.039888 0.000000
# 6 0.000000 0.000000 0.000000 0.016708 0.000000 0.086895
#
#
# Mechanical properties :
#
#
# Convention : Reuss Voigt Hill
#
# Bulk Modulus (GPa) = 36.11858 55.95092 46.03475
# Shear Modulus (GPa) = 19.36987 29.00234 24.18610
#
# Velocity S-wave (km/s) = 2.89786 3.54593 3.23815
# Velocity P-wave (km/s) = 5.18224 6.40482 5.82569
#
# Compressibility (1/GPa) = 0.02768658
#
# Stress axis : x y z
#
# Youngs Moduli (GPa) = 42.62691 40.36184 90.92321
#
# Poissons Ratio (x) = 0.18815 0.60264
# Poissons Ratio (y) = 0.19871 0.40768
# Poissons Ratio (z) = 0.28253 0.18098
#
# Static dielectric constant tensor:
#      x y z
#    x 1.902070 0.000000 -0.021230 
#    y 0.000000 1.901450 0.000000 
#    z -0.021230 0.000000 1.875930 
# 
# From -- ./inp_files/72620.got.cif
#   From: 2010.05.17/outbox.cif.g08.bks.cpg/sg15_37_cif.got.tgz:72620.got - 2010.06.03 18:47:42.
