data_PCOD9290714
_publ_section_title
;
Structure prediction by ZEFSAII (Michael W. Deem and Ramdas Pophale) SiO2 
 PCOD9290714
Probable space group: C 2/C
;
_chemical_formula_sum "Si O2"
_cell_formula_units_Z 64
_cell_length_a 18.291743
_cell_length_b 8.315152
_cell_length_c 29.496099
_cell_angle_alpha 90.000000
_cell_angle_beta 141.224562
_cell_angle_gamma 90.000000
_cell_volume 2809.643634
_symmetry_space_group_name_H-M "C 2/C"
_symmetry_group_IT_number 15
_symmetry_cell_setting 'monoclinic'
loop_
_space_group_symop_operation_xyz
x,y,z
-x,y,1/2-z
-x,-y,-z
x,-y,1/2+z
1/2+x,1/2+y,z
1/2-x,1/2+y,1/2-z
1/2-x,1/2-y,-z
1/2+x,1/2-y,1/2+z
loop_
_atom_site_type_symbol
_atom_site_label
_atom_site_fract_x
_atom_site_fract_y
_atom_site_fract_z
Si Si1 0.791589 0.236384 0.968216
Si Si2 0.444369 0.283904 0.089888
Si Si3 0.523881 0.456685 0.563322
Si Si4 0.118150 0.521237 0.207000
Si Si5 0.136759 0.323010 0.306967
Si Si6 0.131975 0.945829 0.294463
Si Si7 0.210388 0.741661 0.692853
Si Si8 0.751682 0.398644 0.440198
O O1 0.707138 0.157685 0.888610
O O2 0.802863 0.422951 0.961043
O O3 0.750000 0.250000 0.000000
O O4 0.910826 0.140721 0.024799
O O5 0.530787 0.390947 0.100860
O O6 0.505360 0.134098 0.145233
O O7 0.367102 0.390075 0.087228
O O8 0.347661 0.214035 0.008657
O O9 0.500000 0.500000 0.500000
O O10 0.635436 0.343556 0.621280
O O11 0.149028 0.450525 0.271818
O O12 0.119081 0.370457 0.174329
O O13 0.227722 0.629689 0.245103
O O14 0.000000 0.331975 0.250000
O O15 0.158089 0.136366 0.303289
O O16 0.177763 0.855258 0.272393
O O17 0.210599 0.859506 0.370377
O O18 0.000000 0.930528 0.250000
#
# Coordination Sequence:
#
# PCOD9290714 Si02
#       8
#     8   8   8   8   8   8   8   8
#     4  11  23  45  75 106 142 190 241 298 365 431
#     4  11  24  41  67 102 143 190 236 296 360 436
#     4  12  26  44  71 106 145 186 248 302 368 440
#     4  12  26  44  65 100 142 188 239 294 367 440
#     4  10  25  42  73 105 143 183 240 297 357 432
#     4  10  22  45  69  99 134 180 233 293 360 432
#     4  12  26  43  69  96 142 187 234 293 366 434
#     4  10  22  41  69 102 138 185 240 291 356 431
#
# _framework density 22.778689
#
# number of rings (size 3 to 8) (size 9 to 14) (size 15 to 20)
#    0.000    1.000    1.250    4.500    3.500    4.500 
#    0.000    4.375    0.000    0.000    0.000    0.000 
#    0.000    0.000    0.000    0.000    0.000    0.000 
#
# Total GULP energy -178662.931748 kJ/mol
# GULP energy per Si atom -5583.216617 kJ/mol
# Density = 2.272684 g / cm^3
# Si number density = 22.778689 Si / 1000 Ang^3
#
#
#
# Elastic Constant Matrix: (Units=GPa)
#
#
# Indices 1 2 3 4 5 6 
#
# 1 96.5804 49.6873 30.0136 0.0000 -8.2982 0.0000
# 2 49.6873 85.7159 46.6223 0.0000 -4.3733 0.0000
# 3 30.0136 46.6223 102.1656 0.0000 -4.5310 0.0000
# 4 0.0000 0.0000 0.0000 39.1966 0.0000 1.9483
# 5 -8.2982 -4.3733 -4.5310 0.0000 32.7856 0.0000
# 6 0.0000 0.0000 0.0000 1.9483 0.0000 34.5311
#
#
#
# Elastic Compliance Matrix: (Units=1/GPa)
#
#
# Indices 1 2 3 4 5 6 
#
# 1 0.014999 -0.008284 -0.000510 0.000000 0.002621 0.000000
# 2 -0.008284 0.020132 -0.006769 0.000000 -0.000347 0.000000
# 3 -0.000510 -0.006769 0.013061 0.000000 0.000773 0.000000
# 4 0.000000 0.000000 0.000000 0.025584 0.000000 -0.001443
# 5 0.002621 -0.000347 0.000773 0.000000 0.031225 0.000000
# 6 0.000000 0.000000 0.000000 -0.001443 0.000000 0.029041
#
#
# Mechanical properties :
#
#
# Convention : Reuss Voigt Hill
#
# Bulk Modulus (GPa) = 58.59108 59.67871 59.13490
# Shear Modulus (GPa) = 29.26412 31.84525 30.55468
#
# Velocity S-wave (km/s) = 3.58818 3.74308 3.66645
# Velocity P-wave (km/s) = 6.55320 6.70351 6.62878
#
# Compressibility (1/GPa) = 0.01706744
#
# Stress axis : x y z
#
# Youngs Moduli (GPa) = 66.66936 49.67121 76.56289
#
# Poissons Ratio (x) = 0.41146 0.03905
# Poissons Ratio (y) = 0.55226 0.51826
# Poissons Ratio (z) = 0.03400 0.33623
#
# Static dielectric constant tensor:
#      x y z
#    x 1.883930 0.000000 -0.042690 
#    y 0.000000 1.880530 0.000000 
#    z -0.042690 0.000000 1.862710 
# 
# From -- ./inp_files/315719.got.cif
#   From: 2010.05.17/outbox.cif.g08.bks.cpg/sg15_158_cif.got.tgz:315719.got - 2010.06.03 18:47:42.
