data_PCOD9290649
_publ_section_title
;
Structure prediction by ZEFSAII (Michael W. Deem and Ramdas Pophale) SiO2 
 PCOD9290649
Probable space group: C 2/C
;
_chemical_formula_sum "Si O2"
_cell_formula_units_Z 40
_cell_length_a 16.338074
_cell_length_b 15.214724
_cell_length_c 9.065651
_cell_angle_alpha 90.000000
_cell_angle_beta 56.123792
_cell_angle_gamma 90.000000
_cell_volume 1870.981887
_symmetry_space_group_name_H-M "C 2/C"
_symmetry_group_IT_number 15
_symmetry_cell_setting 'monoclinic'
loop_
_space_group_symop_operation_xyz
x,y,z
-x,y,1/2-z
-x,-y,-z
x,-y,1/2+z
1/2+x,1/2+y,z
1/2-x,1/2+y,1/2-z
1/2-x,1/2-y,-z
1/2+x,1/2-y,1/2+z
loop_
_atom_site_type_symbol
_atom_site_label
_atom_site_fract_x
_atom_site_fract_y
_atom_site_fract_z
Si Si1 0.819363 0.394120 0.744916
Si Si2 0.892317 0.197702 0.678747
Si Si3 0.117417 0.814610 0.958858
Si Si4 0.281973 0.822539 0.345314
Si Si5 0.385628 0.015326 0.903680
O O1 0.873879 0.301401 0.665110
O O2 0.835794 0.427029 0.893837
O O3 0.867706 0.466909 0.592699
O O4 0.703998 0.381525 0.826199
O O5 0.873541 0.191202 0.872913
O O6 0.814113 0.150105 0.652196
O O7 0.003751 0.167443 0.537741
O O8 0.146813 0.725865 0.843222
O O9 0.250000 0.750000 0.500000
O O10 0.333855 0.902087 0.375776
O O11 0.500000 0.012355 0.750000
#
# Coordination Sequence:
#
# PCOD9290649 Si02
#       5
#     8   8   8   8   8
#     4  11  24  42  61 100 125 167 207 259 325 373
#     4  10  22  41  69  92 123 170 218 259 305 377
#     4  10  22  41  68  91 126 168 220 254 310 376
#     4  11  21  39  62  93 127 162 215 264 302 376
#     4  12  26  40  63  94 135 163 203 265 326 376
#
# _framework density 21.379148000000001
#
# number of rings (size 3 to 8) (size 9 to 14) (size 15 to 20)
#    0.000    1.200    4.000    4.200    8.400    0.000 
#    0.000    1.000    0.000    0.000    0.000    0.000 
#    0.000    0.000    0.000    0.000    0.000    0.000 
#
# Total GULP energy -111789.426715 kJ/mol
# GULP energy per Si atom -5589.471336 kJ/mol
# Density = 2.133049 g / cm^3
# Si number density = 21.379148 Si / 1000 Ang^3
#
#
#
# Elastic Constant Matrix: (Units=GPa)
#
#
# Indices 1 2 3 4 5 6 
#
# 1 108.4566 0.6358 24.0066 0.0000 -11.0514 0.0000
# 2 0.6358 34.9188 -7.6749 0.0000 -6.2098 0.0000
# 3 24.0066 -7.6749 83.7456 0.0000 -14.3879 0.0000
# 4 0.0000 0.0000 0.0000 24.7525 0.0000 15.4231
# 5 -11.0514 -6.2098 -14.3879 0.0000 37.8274 0.0000
# 6 0.0000 0.0000 0.0000 15.4231 0.0000 33.2577
#
#
#
# Elastic Compliance Matrix: (Units=1/GPa)
#
#
# Indices 1 2 3 4 5 6 
#
# 1 0.009984 -0.000417 -0.002579 0.000000 0.001867 0.000000
# 2 -0.000417 0.030681 0.004040 0.000000 0.006451 0.000000
# 3 -0.002579 0.004040 0.013946 0.000000 0.005214 0.000000
# 4 0.000000 0.000000 0.000000 0.056818 0.000000 -0.026349
# 5 0.001867 0.006451 0.005214 0.000000 0.030024 0.000000
# 6 0.000000 0.000000 0.000000 -0.026349 0.000000 0.042287
#
#
# Mechanical properties :
#
#
# Convention : Reuss Voigt Hill
#
# Bulk Modulus (GPa) = 17.63733 29.00622 23.32178
# Shear Modulus (GPa) = 24.93118 33.17777 29.05447
#
# Velocity S-wave (km/s) = 3.41859 3.94366 3.69047
# Velocity P-wave (km/s) = 4.88365 5.85949 5.39368
#
# Compressibility (1/GPa) = 0.05669793
#
# Stress axis : x y z
#
# Youngs Moduli (GPa) = 100.16094 32.59393 71.70339
#
# Poissons Ratio (x) = 0.01358 0.18495
# Poissons Ratio (y) = 0.04173 -0.28965
# Poissons Ratio (z) = 0.25835 -0.13166
#
# Static dielectric constant tensor:
#      x y z
#    x 1.761910 0.000000 0.024430 
#    y 0.000000 1.753170 0.000000 
#    z 0.024430 0.000000 1.803970 
# 
# From -- ./inp_files/38973.got.cif
#   From: 2010.05.17/outbox.cif.g08.bks.cpg/sg15_20_cif.got.tgz:38973.got - 2010.06.03 18:47:42.
