data_PCOD9290419
_publ_section_title
;
Structure prediction by ZEFSAII (Michael W. Deem and Ramdas Pophale) SiO2 
 PCOD9290419
Probable space group: C 2/C
;
_chemical_formula_sum "Si O2"
_cell_formula_units_Z 64
_cell_length_a 14.718810
_cell_length_b 31.541751
_cell_length_c 8.417778
_cell_angle_alpha 90.000000
_cell_angle_beta 49.026303
_cell_angle_gamma 90.000000
_cell_volume 2950.591326
_symmetry_space_group_name_H-M "C 2/C"
_symmetry_group_IT_number 15
_symmetry_cell_setting 'monoclinic'
loop_
_space_group_symop_operation_xyz
x,y,z
-x,y,1/2-z
-x,-y,-z
x,-y,1/2+z
1/2+x,1/2+y,z
1/2-x,1/2+y,1/2-z
1/2-x,1/2-y,-z
1/2+x,1/2-y,1/2+z
loop_
_atom_site_type_symbol
_atom_site_label
_atom_site_fract_x
_atom_site_fract_y
_atom_site_fract_z
Si Si1 0.287146 0.407162 0.194903
Si Si2 0.316426 0.170498 0.847115
Si Si3 0.718200 0.436794 0.797320
Si Si4 0.917638 0.308803 0.576559
Si Si5 0.573013 0.283189 0.508065
Si Si6 0.143641 0.984793 0.570476
Si Si7 0.974735 0.134797 0.966730
Si Si8 0.627186 0.111312 0.180255
O O1 0.218444 0.378450 0.143728
O O2 0.421912 0.390202 0.057616
O O3 0.223909 0.397293 0.433315
O O4 0.299806 0.455597 0.132196
O O5 0.440935 0.180457 0.612521
O O6 0.346090 0.181164 0.995242
O O7 0.201355 0.196642 0.912652
O O8 0.702505 0.465100 0.660152
O O9 0.847869 0.420203 0.701936
O O10 0.666947 0.466729 0.997170
O O11 0.642882 0.393227 0.869782
O O12 0.906405 0.258844 0.618162
O O13 0.868955 0.340283 0.765778
O O14 0.500000 0.269769 0.750000
O O15 0.489119 0.317937 0.518136
O O16 0.000000 0.978951 0.750000
O O17 0.000000 0.135418 0.750000
O O18 0.500000 0.102540 0.250000
#
# Coordination Sequence:
#
# PCOD9290419 Si02
#       8
#     8   8   8   8   8   8   8   8
#     4  11  23  43  67 100 140 179 236 277 348 427
#     4  10  22  41  65  97 135 186 235 297 352 423
#     4  12  26  45  73 108 145 182 226 287 361 428
#     4  11  23  43  67  95 135 191 247 293 352 415
#     4  11  25  39  68 105 139 182 240 303 359 425
#     4  12  25  44  76 114 143 177 224 288 363 440
#     4  11  24  41  63 102 143 180 218 287 359 419
#     4  12  26  45  69  95 139 198 241 288 344 412
#
# _framework density 21.690567999999999
#
# number of rings (size 3 to 8) (size 9 to 14) (size 15 to 20)
#    0.000    0.750    5.000    2.625    5.250    0.500 
#    0.000    3.750    0.000    0.000    0.000    0.000 
#    0.000    0.000    0.000    0.000    0.000    0.000 
#
# Total GULP energy -178964.184808 kJ/mol
# GULP energy per Si atom -5592.630775 kJ/mol
# Density = 2.164120 g / cm^3
# Si number density = 21.690568 Si / 1000 Ang^3
#
#
#
# Elastic Constant Matrix: (Units=GPa)
#
#
# Indices 1 2 3 4 5 6 
#
# 1 106.3376 67.6358 11.4733 0.0000 0.0850 0.0000
# 2 67.6358 146.9713 44.3479 0.0000 -4.1934 0.0000
# 3 11.4733 44.3479 62.6791 0.0000 5.6761 0.0000
# 4 0.0000 0.0000 0.0000 42.0375 0.0000 6.7935
# 5 0.0850 -4.1934 5.6761 0.0000 28.2415 0.0000
# 6 0.0000 0.0000 0.0000 6.7935 0.0000 21.6045
#
#
#
# Elastic Compliance Matrix: (Units=1/GPa)
#
#
# Indices 1 2 3 4 5 6 
#
# 1 0.013662 -0.007151 0.002708 0.000000 -0.001647 0.000000
# 2 -0.007151 0.012580 -0.007907 0.000000 0.003479 0.000000
# 3 0.002708 -0.007907 0.021552 0.000000 -0.005514 0.000000
# 4 0.000000 0.000000 0.000000 0.025062 0.000000 -0.007881
# 5 -0.001647 0.003479 -0.005514 0.000000 0.037039 0.000000
# 6 0.000000 0.000000 0.000000 -0.007881 0.000000 0.048765
#
#
# Mechanical properties :
#
#
# Convention : Reuss Voigt Hill
#
# Bulk Modulus (GPa) = 43.30087 62.54467 52.92277
# Shear Modulus (GPa) = 26.17014 31.21210 28.69112
#
# Velocity S-wave (km/s) = 3.47727 3.79749 3.64090
# Velocity P-wave (km/s) = 6.01068 6.93725 6.49052
#
# Compressibility (1/GPa) = 0.02309422
#
# Stress axis : x y z
#
# Youngs Moduli (GPa) = 73.19750 79.49007 46.39860
#
# Poissons Ratio (x) = 0.56845 -0.12566
# Poissons Ratio (y) = 0.52345 0.36687
# Poissons Ratio (z) = -0.19824 0.62853
#
# Static dielectric constant tensor:
#      x y z
#    x 1.766730 0.000000 0.060750 
#    y 0.000000 1.786640 0.000000 
#    z 0.060750 0.000000 1.801300 
# 
# From -- ./inp_files/44830.got.cif
#   From: 2010.05.17/outbox.cif.g08.bks.cpg/sg15_23_cif.got.tgz:44830.got - 2010.06.03 18:47:42.
