data_PCOD9290552
_publ_section_title
;
Structure prediction by ZEFSAII (Michael W. Deem and Ramdas Pophale) SiO2 
 PCOD9290552
Probable space group: C 2/C
;
_chemical_formula_sum "Si O2"
_cell_formula_units_Z 56
_cell_length_a 9.671053
_cell_length_b 20.154275
_cell_length_c 19.012026
_cell_angle_alpha 90.000000
_cell_angle_beta 38.514265
_cell_angle_gamma 90.000000
_cell_volume 2307.569603
_symmetry_space_group_name_H-M "C 2/C"
_symmetry_group_IT_number 15
_symmetry_cell_setting 'monoclinic'
loop_
_space_group_symop_operation_xyz
x,y,z
-x,y,1/2-z
-x,-y,-z
x,-y,1/2+z
1/2+x,1/2+y,z
1/2-x,1/2+y,1/2-z
1/2-x,1/2-y,-z
1/2+x,1/2-y,1/2+z
loop_
_atom_site_type_symbol
_atom_site_label
_atom_site_fract_x
_atom_site_fract_y
_atom_site_fract_z
Si Si1 0.283843 0.983067 0.542475
Si Si2 0.056562 0.119330 0.340946
Si Si3 0.530155 0.238047 0.664493
Si Si4 0.392910 0.378073 0.368042
Si Si5 0.867202 0.155307 0.032229
Si Si6 0.532358 0.793295 0.461581
Si Si7 0.001958 0.542394 0.171330
O O1 0.109758 0.042622 0.624455
O O2 0.374993 0.991271 0.427586
O O3 0.500000 0.000000 0.500000
O O4 0.163469 0.913913 0.602672
O O5 0.018980 0.129439 0.440362
O O6 0.258722 0.068926 0.248680
O O7 0.100402 0.191819 0.291500
O O8 0.500000 0.202955 0.750000
O O9 0.459693 0.196113 0.625360
O O10 0.784711 0.263740 0.565902
O O11 0.500000 0.358682 0.250000
O O12 0.474657 0.350415 0.411362
O O13 0.135677 0.354287 0.461836
O O14 0.819222 0.231622 0.069568
O O15 0.651796 0.108941 0.113540
O O16 0.000000 0.514274 0.250000
#
# Coordination Sequence:
#
# PCOD9290552 Si02
#       7
#     8   8   8   8   8   8   8
#     4  11  25  41  62  91 129 163 206 267 312 369
#     4  10  22  41  67  91 125 164 219 264 312 385
#     4  10  23  37  66  91 118 173 212 259 319 377
#     4  11  25  38  60  93 124 163 202 251 329 383
#     4   9  21  42  64  91 125 162 210 267 317 379
#     4  10  22  42  60  92 130 157 212 264 318 385
#     4   9  21  39  63  93 118 162 215 253 318 380
#
# _framework density 24.267959000000001
#
# number of rings (size 3 to 8) (size 9 to 14) (size 15 to 20)
#    0.000    2.000    0.000    1.286   10.000    8.000 
#    0.000    0.000    0.000    0.000    0.000    0.000 
#    0.000    0.000    0.000    0.000    0.000    0.000 
#
# Total GULP energy -156334.939040 kJ/mol
# GULP energy per Si atom -5583.390680 kJ/mol
# Density = 2.421272 g / cm^3
# Si number density = 24.267959 Si / 1000 Ang^3
#
#
#
# Elastic Constant Matrix: (Units=GPa)
#
#
# Indices 1 2 3 4 5 6 
#
# 1 84.6327 1.9151 14.9459 0.0039 19.3836 -0.0066
# 2 1.9151 45.6763 -17.7957 0.0018 0.8497 -0.0036
# 3 14.9459 -17.7957 68.7049 -0.0077 38.9730 0.0047
# 4 0.0039 0.0018 -0.0077 3.1390 0.0001 -3.7500
# 5 19.3836 0.8497 38.9730 0.0001 51.9738 0.0019
# 6 -0.0066 -0.0036 0.0047 -3.7500 0.0019 23.4402
#
#
#
# Elastic Compliance Matrix: (Units=1/GPa)
#
#
# Indices 1 2 3 4 5 6 
#
# 1 0.012934 -0.000625 -0.000426 -0.000015 -0.004494 0.000002
# 2 -0.000625 0.027016 0.012620 0.000023 -0.009672 0.000006
# 3 -0.000426 0.012620 0.031225 0.000084 -0.023462 0.000011
# 4 -0.000015 0.000023 0.000084 0.393849 -0.000061 0.063008
# 5 -0.004494 -0.009672 -0.023462 -0.000061 0.038668 -0.000011
# 6 0.000002 0.000006 0.000011 0.063008 -0.000011 0.052742
#
#
# Mechanical properties :
#
#
# Convention : Reuss Voigt Hill
#
# Bulk Modulus (GPa) = 10.60297 21.90494 16.25396
# Shear Modulus (GPa) = 8.85371 29.04051 18.94711
#
# Velocity S-wave (km/s) = 1.91213 3.46303 2.79721
# Velocity P-wave (km/s) = 3.04197 5.00360 4.14063
#
# Compressibility (1/GPa) = 0.09431316
#
# Stress axis : x y z
#
# Youngs Moduli (GPa) = 77.31281 37.01507 32.02530
#
# Poissons Ratio (x) = 0.02313 0.01365
# Poissons Ratio (y) = 0.04831 -0.40415
# Poissons Ratio (z) = 0.03296 -0.46712
#
# Static dielectric constant tensor:
#      x y z
#    x 0.776570 -0.000080 -1.416290 
#    y -0.000080 1.887040 -0.000100 
#    z -1.416290 -0.000100 0.311990 
# 
# From -- ./inp_files/193207.got.cif
#   From: 2010.05.17/outbox.cif.g08.bks.cpg/sg15_97_cif.got.tgz:193207.got - 2010.06.03 18:47:42.
