data_PCOD9290639
_publ_section_title
;
Structure prediction by ZEFSAII (Michael W. Deem and Ramdas Pophale) SiO2 
 PCOD9290639
Probable space group: C 2/C
;
_chemical_formula_sum "Si O2"
_cell_formula_units_Z 40
_cell_length_a 21.519108
_cell_length_b 7.256031
_cell_length_c 10.169439
_cell_angle_alpha 90.000000
_cell_angle_beta 92.034650
_cell_angle_gamma 90.000000
_cell_volume 1586.888811
_symmetry_space_group_name_H-M "C 2/C"
_symmetry_group_IT_number 15
_symmetry_cell_setting 'monoclinic'
loop_
_space_group_symop_operation_xyz
x,y,z
-x,y,1/2-z
-x,-y,-z
x,-y,1/2+z
1/2+x,1/2+y,z
1/2-x,1/2+y,1/2-z
1/2-x,1/2-y,-z
1/2+x,1/2-y,1/2+z
loop_
_atom_site_type_symbol
_atom_site_label
_atom_site_fract_x
_atom_site_fract_y
_atom_site_fract_z
Si Si1 0.050873 0.170023 0.360129
Si Si2 0.313210 0.260000 0.616243
Si Si3 0.524367 0.760027 0.894013
Si Si4 0.266830 0.663402 0.666595
Si Si5 0.654162 0.094425 0.485965
O O1 0.117669 0.237082 0.316845
O O2 0.000000 0.224518 0.250000
O O3 0.029991 0.240128 0.502162
O O4 0.049643 0.947637 0.369991
O O5 0.295073 0.474056 0.613306
O O6 0.255974 0.163329 0.686247
O O7 0.328868 0.120487 0.498959
O O8 0.500000 0.829628 0.750000
O O9 0.581515 0.866578 0.967294
O O10 0.317200 0.821678 0.646898
O O11 0.200282 0.698996 0.589789
#
# Coordination Sequence:
#
# PCOD9290639 Si02
#       5
#     8   8   8   8   8
#     4  10  22  41  68 103 139 181 229 290 349 406
#     4  12  23  43  69  98 137 181 234 284 345 419
#     4  10  22  43  67 102 138 183 230 287 350 411
#     4  11  24  43  63 101 134 181 229 284 350 399
#     4  11  24  42  67  95 138 178 230 287 336 422
#
# _framework density 25.206557
#
# number of rings (size 3 to 8) (size 9 to 14) (size 15 to 20)
#    0.000    1.200    4.000    1.800    0.000    3.200 
#    3.600    0.000    0.000    0.000    0.000    0.000 
#    0.000    0.000    0.000    0.000    0.000    0.000 
#
# Total GULP energy -111609.453127 kJ/mol
# GULP energy per Si atom -5580.472656 kJ/mol
# Density = 2.514919 g / cm^3
# Si number density = 25.206557 Si / 1000 Ang^3
#
#
#
# Elastic Constant Matrix: (Units=GPa)
#
#
# Indices 1 2 3 4 5 6 
#
# 1 140.2261 21.9813 23.3005 0.0000 12.9087 0.0000
# 2 21.9813 122.2647 0.5623 0.0000 -5.8586 0.0000
# 3 23.3005 0.5623 57.2985 0.0000 7.3334 0.0000
# 4 0.0000 0.0000 0.0000 0.0838 0.0000 0.5554
# 5 12.9087 -5.8586 7.3334 0.0000 40.7245 0.0000
# 6 0.0000 0.0000 0.0000 0.5554 0.0000 42.8147
#
#
#
# Elastic Compliance Matrix: (Units=1/GPa)
#
#
# Indices 1 2 3 4 5 6 
#
# 1 0.008076 -0.001546 -0.002981 0.000000 -0.002245 0.000000
# 2 -0.001546 0.008535 0.000333 0.000000 0.001658 0.000000
# 3 -0.002981 0.000333 0.018972 0.000000 -0.002423 0.000000
# 4 0.000000 0.000000 0.000000 13.062444 0.000000 -0.169448
# 5 -0.002245 0.001658 -0.002423 0.000000 0.025942 0.000000
# 6 0.000000 0.000000 0.000000 -0.169448 0.000000 0.025555
#
#
# Mechanical properties :
#
#
# Convention : Reuss Voigt Hill
#
# Bulk Modulus (GPa) = 36.77397 45.71971 41.24684
# Shear Modulus (GPa) = 0.37974 34.98760 17.68367
#
# Velocity S-wave (km/s) = 0.38856 3.72968 2.65155
# Velocity P-wave (km/s) = 3.84994 6.06009 5.07675
#
# Compressibility (1/GPa) = 0.02719315
#
# Stress axis : x y z
#
# Youngs Moduli (GPa) = 123.82732 117.16745 52.70979
#
# Poissons Ratio (x) = 0.18111 0.15715
# Poissons Ratio (y) = 0.19141 -0.01753
# Poissons Ratio (z) = 0.36919 -0.03898
#
# Static dielectric constant tensor:
#      x y z
#    x 1.934200 0.000000 -0.024750 
#    y 0.000000 2.023970 0.000000 
#    z -0.024750 0.000000 2.201540 
# 
# From -- ./inp_files/102796.got.cif
#   From: 2010.05.17/outbox.cif.g08.bks.cpg/sg15_52_cif.got.tgz:102796.got - 2010.06.03 18:47:42.
