data_PCOD9290540
_publ_section_title
;
Structure prediction by ZEFSAII (Michael W. Deem and Ramdas Pophale) SiO2 
 PCOD9290540
Probable space group: C 2/C
;
_chemical_formula_sum "Si O2"
_cell_formula_units_Z 48
_cell_length_a 18.370639
_cell_length_b 15.799749
_cell_length_c 13.592785
_cell_angle_alpha 90.000000
_cell_angle_beta 33.821004
_cell_angle_gamma 90.000000
_cell_volume 2195.969290
_symmetry_space_group_name_H-M "C 2/C"
_symmetry_group_IT_number 15
_symmetry_cell_setting 'monoclinic'
loop_
_space_group_symop_operation_xyz
x,y,z
-x,y,1/2-z
-x,-y,-z
x,-y,1/2+z
1/2+x,1/2+y,z
1/2-x,1/2+y,1/2-z
1/2-x,1/2-y,-z
1/2+x,1/2-y,1/2+z
loop_
_atom_site_type_symbol
_atom_site_label
_atom_site_fract_x
_atom_site_fract_y
_atom_site_fract_z
Si Si1 0.501760 0.643964 0.036632
Si Si2 0.767327 0.300650 0.142047
Si Si3 0.648712 0.653575 0.569791
Si Si4 0.385704 0.490504 0.513141
Si Si5 0.383432 0.783128 0.299997
Si Si6 0.886403 0.569424 0.640833
O O1 0.457211 0.581424 0.998463
O O2 0.410245 0.715657 0.182428
O O3 0.637348 0.687743 0.852359
O O4 0.531414 0.575225 0.087497
O O5 0.733187 0.332126 0.071021
O O6 0.879674 0.358415 0.063534
O O7 0.797805 0.203416 0.085015
O O8 0.500000 0.685116 0.750000
O O9 0.644691 0.554654 0.553965
O O10 0.249860 0.518485 0.714566
O O11 0.500000 0.781119 0.250000
O O12 0.250000 0.750000 0.500000
O O13 0.382828 0.875160 0.246153
O O14 0.000000 0.500000 0.500000
#
# Coordination Sequence:
#
# PCOD9290540 Si02
#       6
#     8   8   8   8   8   8
#     4  10  22  45  72  95 137 183 235 281 356 421
#     4  10  23  43  66 104 139 184 222 282 356 429
#     4  11  22  37  69 107 138 173 228 282 346 419
#     4  10  22  41  67 102 133 180 227 294 339 427
#     4  12  28  49  75 104 143 194 245 299 357 441
#     4  11  27  44  69 101 141 187 230 292 365 416
#
# _framework density 21.858228
#
# number of rings (size 3 to 8) (size 9 to 14) (size 15 to 20)
#    0.000    1.333    1.667    3.000    4.667    4.667 
#    0.000    0.000    0.000    0.000    0.000    0.000 
#    0.000    0.000    0.000    0.000    0.000    0.000 
#
# Total GULP energy -133965.425663 kJ/mol
# GULP energy per Si atom -5581.892736 kJ/mol
# Density = 2.180848 g / cm^3
# Si number density = 21.858228 Si / 1000 Ang^3
#
#
#
# Elastic Constant Matrix: (Units=GPa)
#
#
# Indices 1 2 3 4 5 6 
#
# 1 84.8657 24.5166 10.0414 0.0000 -0.6418 0.0000
# 2 24.5166 112.6574 54.3155 0.0000 2.2170 0.0000
# 3 10.0414 54.3155 91.6072 0.0000 -3.7153 0.0000
# 4 0.0000 0.0000 0.0000 27.1936 0.0000 16.8192
# 5 -0.6418 2.2170 -3.7153 0.0000 28.1516 0.0000
# 6 0.0000 0.0000 0.0000 16.8192 0.0000 31.4894
#
#
#
# Elastic Compliance Matrix: (Units=1/GPa)
#
#
# Indices 1 2 3 4 5 6 
#
# 1 0.012590 -0.002936 0.000384 0.000000 0.000569 0.000000
# 2 -0.002936 0.013223 -0.007604 0.000000 -0.002112 0.000000
# 3 0.000384 -0.007604 0.015490 0.000000 0.002652 0.000000
# 4 0.000000 0.000000 0.000000 0.054915 0.000000 -0.029331
# 5 0.000569 -0.002112 0.002652 0.000000 0.036051 0.000000
# 6 0.000000 0.000000 0.000000 -0.029331 0.000000 0.047423
#
#
# Mechanical properties :
#
#
# Convention : Reuss Voigt Hill
#
# Bulk Modulus (GPa) = 47.63919 51.87525 49.75722
# Shear Modulus (GPa) = 24.15426 30.71736 27.43581
#
# Velocity S-wave (km/s) = 3.32782 3.75280 3.54668
# Velocity P-wave (km/s) = 6.05044 6.52397 6.29166
#
# Compressibility (1/GPa) = 0.02099112
#
# Stress axis : x y z
#
# Youngs Moduli (GPa) = 79.42535 75.62496 64.55694
#
# Poissons Ratio (x) = 0.22205 -0.02479
# Poissons Ratio (y) = 0.23321 0.49089
# Poissons Ratio (z) = -0.03050 0.57505
#
# Static dielectric constant tensor:
#      x y z
#    x 1.876110 0.000000 -0.008900 
#    y 0.000000 1.851290 0.000000 
#    z -0.008900 0.000000 1.818780 
# 
# From -- ./inp_files/168817.got.cif
#   From: 2010.05.17/outbox.cif.g08.bks.cpg/sg15_85_cif.got.tgz:168817.got - 2010.06.03 18:47:42.
