data_PCOD9290788
_publ_section_title
;
Structure prediction by ZEFSAII (Michael W. Deem and Ramdas Pophale) SiO2 
 PCOD9290788
Probable space group: C 2/C
;
_chemical_formula_sum "Si O2"
_cell_formula_units_Z 52
_cell_length_a 28.011773
_cell_length_b 10.303727
_cell_length_c 12.045393
_cell_angle_alpha 90.000000
_cell_angle_beta 41.241562
_cell_angle_gamma 90.000000
_cell_volume 2291.902972
_symmetry_space_group_name_H-M "C 2/C"
_symmetry_group_IT_number 15
_symmetry_cell_setting 'monoclinic'
loop_
_space_group_symop_operation_xyz
x,y,z
-x,y,1/2-z
-x,-y,-z
x,-y,1/2+z
1/2+x,1/2+y,z
1/2-x,1/2+y,1/2-z
1/2-x,1/2-y,-z
1/2+x,1/2-y,1/2+z
loop_
_atom_site_type_symbol
_atom_site_label
_atom_site_fract_x
_atom_site_fract_y
_atom_site_fract_z
Si Si1 0.215200 0.650494 0.215785
Si Si2 0.644562 0.472136 0.099069
Si Si3 0.500000 0.532572 0.250000
Si Si4 0.887922 0.552041 0.722787
Si Si5 0.413608 0.644914 0.604428
Si Si6 0.802347 0.741654 0.013700
Si Si7 0.506532 0.168073 0.368984
O O1 0.176455 0.526304 0.226029
O O2 0.155376 0.763434 0.301339
O O3 0.226854 0.665325 0.327747
O O4 0.295836 0.640602 0.022984
O O5 0.570638 0.453019 0.161460
O O6 0.621304 0.477003 0.269179
O O7 0.674654 0.610138 0.004023
O O8 0.466896 0.615614 0.409603
O O9 0.939078 0.449072 0.694826
O O10 0.929941 0.625697 0.552595
O O11 0.866728 0.654732 0.853391
O O12 0.462460 0.716359 0.610643
O O13 0.750000 0.750000 0.000000
O O14 0.500000 0.186221 0.250000
#
# Coordination Sequence:
#
# PCOD9290788 Si02
#       7
#     8   8   4   8   8   8   8
#     4  11  25  48  74 106 147 194 249 314 368 441
#     4  12  27  48  74 111 149 196 254 308 375 462
#     4  12  26  48  76 108 156 200 240 310 384 462
#     4  10  22  43  70 104 139 188 243 304 372 436
#     4  11  26  48  75 106 150 203 244 308 382 446
#     4  12  25  44  74 102 142 192 244 308 370 442
#     4  10  22  41  70 105 142 184 244 306 367 448
#
# _framework density 22.688568
#
# number of rings (size 3 to 8) (size 9 to 14) (size 15 to 20)
#    0.000    0.923    3.077    2.769    3.231    1.231 
#    9.692    0.000    0.000    0.000    0.000    0.000 
#    0.000    0.000    0.000    0.000    0.000    0.000 
#
# Total GULP energy -145145.840389 kJ/mol
# GULP energy per Si atom -5582.532323 kJ/mol
# Density = 2.263693 g / cm^3
# Si number density = 22.688568 Si / 1000 Ang^3
#
#
#
# Elastic Constant Matrix: (Units=GPa)
#
#
# Indices 1 2 3 4 5 6 
#
# 1 99.1423 -7.2461 53.8533 0.0000 7.7030 0.0000
# 2 -7.2461 41.2776 30.1704 0.0000 6.9987 0.0000
# 3 53.8533 30.1704 169.6723 0.0000 19.5865 0.0000
# 4 0.0000 0.0000 0.0000 54.1633 0.0000 36.6567
# 5 7.7030 6.9987 19.5865 0.0000 48.4785 0.0000
# 6 0.0000 0.0000 0.0000 36.6567 0.0000 22.6913
#
#
#
# Elastic Compliance Matrix: (Units=1/GPa)
#
#
# Indices 1 2 3 4 5 6 
#
# 1 0.013522 0.006424 -0.005327 0.000000 -0.000924 0.000000
# 2 0.006424 0.031106 -0.007273 0.000000 -0.002573 0.000000
# 3 -0.005327 -0.007273 0.009083 0.000000 -0.001773 0.000000
# 4 0.000000 0.000000 0.000000 -0.197870 0.000000 0.319649
# 5 -0.000924 -0.002573 -0.001773 0.000000 0.021862 0.000000
# 6 0.000000 0.000000 0.000000 0.319649 0.000000 -0.472308
#
#
# Mechanical properties :
#
#
# Convention : Reuss Voigt Hill
#
# Bulk Modulus (GPa) = 24.17943 51.51641 37.84792
# Shear Modulus (GPa) = -8.79559 40.62092 15.91267
#
# Velocity S-wave (km/s) = -1.97106 4.23587 2.65118
# Velocity P-wave (km/s) = 2.34524 6.83217 5.10777
#
# Compressibility (1/GPa) = 0.04135747
#
# Stress axis : x y z
#
# Youngs Moduli (GPa) = 73.95581 32.14793 110.10105
#
# Poissons Ratio (x) = -0.20652 0.58655
# Poissons Ratio (y) = -0.47510 0.80078
# Poissons Ratio (z) = 0.39399 0.23382
#
# Static dielectric constant tensor:
#      x y z
#    x 1.868900 0.000000 -0.006510 
#    y 0.000000 1.932150 0.000000 
#    z -0.006510 0.000000 1.896410 
# 
# From -- ./inp_files/126420.got.cif
#   From: 2010.05.17/outbox.cif.g08.bks.cpg/sg15_64_cif.got.tgz:126420.got - 2010.06.03 18:47:42.
