data_PCOD9290292
_publ_section_title
;
Structure prediction by ZEFSAII (Michael W. Deem and Ramdas Pophale) SiO2 
 PCOD9290292
Probable space group: C 2/C
;
_chemical_formula_sum "Si O2"
_cell_formula_units_Z 44
_cell_length_a 13.789573
_cell_length_b 12.667695
_cell_length_c 11.702960
_cell_angle_alpha 90.000000
_cell_angle_beta 102.294245
_cell_angle_gamma 90.000000
_cell_volume 1997.415741
_symmetry_space_group_name_H-M "C 2/C"
_symmetry_group_IT_number 15
_symmetry_cell_setting 'monoclinic'
loop_
_space_group_symop_operation_xyz
x,y,z
-x,y,1/2-z
-x,-y,-z
x,-y,1/2+z
1/2+x,1/2+y,z
1/2-x,1/2+y,1/2-z
1/2-x,1/2-y,-z
1/2+x,1/2-y,1/2+z
loop_
_atom_site_type_symbol
_atom_site_label
_atom_site_fract_x
_atom_site_fract_y
_atom_site_fract_z
Si Si1 0.689815 0.421392 0.432233
Si Si2 0.000000 0.021394 0.750000
Si Si3 0.033822 0.403219 0.640322
Si Si4 0.760949 0.343521 0.912974
Si Si5 0.121163 0.154490 0.157914
Si Si6 0.603048 0.877772 0.103651
O O1 0.587424 0.416949 0.335893
O O2 0.724179 0.543864 0.454354
O O3 0.674730 0.369626 0.551640
O O4 0.778747 0.370691 0.381573
O O5 0.949022 0.943564 0.829384
O O6 0.125293 0.349919 0.598769
O O7 0.073208 0.522558 0.672299
O O8 0.000000 0.353469 0.750000
O O9 0.941622 0.404904 0.531509
O O10 0.695707 0.331743 0.782346
O O11 0.750000 0.250000 0.000000
O O12 0.063524 0.264874 0.132104
#
# Coordination Sequence:
#
# PCOD9290292 Si02
#       6
#     8   4   8   8   8   8
#     4  10  22  44  62  97 133 177 222 282 336 399
#     4  10  24  40  66  96 130 182 224 276 340 398
#     4  10  22  41  64  97 130 172 220 279 336 403
#     4  10  24  41  67  98 132 176 227 276 334 406
#     4  11  23  41  65  92 133 172 222 280 337 402
#     4  10  23  39  67  92 131 170 221 276 338 396
#
# _framework density 22.028464
#
# number of rings (size 3 to 8) (size 9 to 14) (size 15 to 20)
#    0.000    1.818    0.000    2.182    6.364    7.273 
#    4.909    0.000    0.000    0.000    0.000    0.000 
#    0.000    0.000    0.000    0.000    0.000    0.000 
#
# Total GULP energy -123025.867526 kJ/mol
# GULP energy per Si atom -5592.084888 kJ/mol
# Density = 2.197833 g / cm^3
# Si number density = 22.028464 Si / 1000 Ang^3
#
#
#
# Elastic Constant Matrix: (Units=GPa)
#
#
# Indices 1 2 3 4 5 6 
#
# 1 120.8199 10.1475 55.6328 0.0000 9.6989 0.0000
# 2 10.1475 80.7822 40.9612 0.0000 -7.2346 0.0000
# 3 55.6328 40.9612 77.1954 0.0000 -0.2227 0.0000
# 4 0.0000 0.0000 0.0000 27.3647 0.0000 2.5988
# 5 9.6989 -7.2346 -0.2227 0.0000 34.8048 0.0000
# 6 0.0000 0.0000 0.0000 2.5988 0.0000 -4.7600
#
#
#
# Elastic Compliance Matrix: (Units=1/GPa)
#
#
# Indices 1 2 3 4 5 6 
#
# 1 0.013755 0.004145 -0.012121 0.000000 -0.003049 0.000000
# 2 0.004145 0.018613 -0.012856 0.000000 0.002632 0.000000
# 3 -0.012121 -0.012856 0.028513 0.000000 0.000888 0.000000
# 4 0.000000 0.000000 0.000000 0.034742 0.000000 0.018968
# 5 -0.003049 0.002632 0.000888 0.000000 0.030134 0.000000
# 6 0.000000 0.000000 0.000000 0.018968 0.000000 -0.199729
#
#
# Mechanical properties :
#
#
# Convention : Reuss Voigt Hill
#
# Bulk Modulus (GPa) = 52.03610 54.69787 53.36698
# Shear Modulus (GPa) = -193.02751 22.95230 -85.03761
#
# Velocity S-wave (km/s) = -9.37105 3.23141 -6.21991
# Velocity P-wave (km/s) = 9.66516 6.22954 5.22533
#
# Compressibility (1/GPa) = 0.01921743
#
# Stress axis : x y z
#
# Youngs Moduli (GPa) = 72.70320 53.72709 35.07122
#
# Poissons Ratio (x) = -0.22270 0.42509
# Poissons Ratio (y) = -0.30136 0.45087
# Poissons Ratio (z) = 0.88122 0.69071
#
# Static dielectric constant tensor:
#      x y z
#    x 1.815090 0.000000 0.015900 
#    y 0.000000 1.857910 0.000000 
#    z 0.015900 0.000000 1.782730 
# 
# From -- ./inp_files/95064.got.cif
#   From: 2010.05.17/outbox.cif.g08.bks.cpg/sg15_48_cif.got.tgz:95064.got - 2010.06.03 18:47:42.
