data_PCOD9290312
_publ_section_title
;
Structure prediction by ZEFSAII (Michael W. Deem and Ramdas Pophale) SiO2 
 PCOD9290312
Probable space group: C 2/C
;
_chemical_formula_sum "Si O2"
_cell_formula_units_Z 64
_cell_length_a 18.315736
_cell_length_b 20.373463
_cell_length_c 14.529841
_cell_angle_alpha 90.000000
_cell_angle_beta 28.627708
_cell_angle_gamma 90.000000
_cell_volume 2597.712717
_symmetry_space_group_name_H-M "C 2/C"
_symmetry_group_IT_number 15
_symmetry_cell_setting 'monoclinic'
loop_
_space_group_symop_operation_xyz
x,y,z
-x,y,1/2-z
-x,-y,-z
x,-y,1/2+z
1/2+x,1/2+y,z
1/2-x,1/2+y,1/2-z
1/2-x,1/2-y,-z
1/2+x,1/2-y,1/2+z
loop_
_atom_site_type_symbol
_atom_site_label
_atom_site_fract_x
_atom_site_fract_y
_atom_site_fract_z
Si Si1 0.321083 0.651080 0.728858
Si Si2 0.805722 0.799770 0.015631
Si Si3 0.499768 0.977688 0.141061
Si Si4 0.164847 0.932404 0.472551
Si Si5 0.997629 0.940344 0.357195
Si Si6 0.718645 0.118095 0.280344
Si Si7 0.430580 0.273808 0.632387
Si Si8 0.009886 0.632983 0.129214
O O1 0.338699 0.609228 0.616454
O O2 0.357370 0.595202 0.763124
O O3 0.446960 0.708127 0.582230
O O4 0.154441 0.674689 0.937086
O O5 0.825651 0.874668 0.962336
O O6 0.662001 0.792408 0.245120
O O7 0.750000 0.750000 0.000000
O O8 0.960456 0.781131 0.897837
O O9 0.500000 0.962650 0.250000
O O10 0.324143 0.970224 0.303731
O O11 0.539173 0.054319 0.084352
O O12 0.610083 0.929778 0.960758
O O13 0.023119 0.981497 0.625899
O O14 0.860905 0.918881 0.575628
O O15 0.000000 0.916977 0.250000
O O16 0.794933 0.173704 0.261134
O O17 0.625160 0.145117 0.295055
O O18 0.000000 0.643355 0.250000
#
# Coordination Sequence:
#
# PCOD9290312 Si02
#       8
#     8   8   8   8   8   8   8   8
#     4  10  22  41  65 101 142 188 236 294 373 436
#     4  11  26  47  67  98 140 188 253 304 346 431
#     4  11  24  37  63 101 146 198 234 285 357 448
#     4  11  23  41  64  99 140 196 240 288 363 428
#     4  11  23  40  66 104 147 186 235 297 364 446
#     4  11  22  44  68 101 146 190 239 303 365 437
#     4  10  26  43  69  97 130 189 237 295 365 413
#     4  11  21  38  67 104 145 186 231 286 373 453
#
# _framework density 24.637058
#
# number of rings (size 3 to 8) (size 9 to 14) (size 15 to 20)
#    0.000    1.250    2.500    2.625    5.250    4.000 
#    0.000    0.000    0.000    0.000    0.000  107.625 
#    0.000    0.000    0.000    0.000    0.000    0.000 
#
# Total GULP energy -178724.657821 kJ/mol
# GULP energy per Si atom -5585.145557 kJ/mol
# Density = 2.458098 g / cm^3
# Si number density = 24.637058 Si / 1000 Ang^3
#
#
#
# Elastic Constant Matrix: (Units=GPa)
#
#
# Indices 1 2 3 4 5 6 
#
# 1 153.5746 34.6860 21.4002 0.0011 -1.0990 0.0007
# 2 34.6860 83.3317 17.7264 0.0009 -6.0605 0.0022
# 3 21.4002 17.7264 77.2189 0.0056 -5.6413 0.0014
# 4 0.0011 0.0009 0.0056 29.7487 -0.0015 -4.9831
# 5 -1.0990 -6.0605 -5.6413 -0.0015 45.7221 -0.0012
# 6 0.0007 0.0022 0.0014 -4.9831 -0.0012 36.3843
#
#
#
# Elastic Compliance Matrix: (Units=1/GPa)
#
#
# Indices 1 2 3 4 5 6 
#
# 1 0.007334 -0.002777 -0.001422 0.000000 -0.000367 0.000000
# 2 -0.002777 0.013748 -0.002279 0.000000 0.001474 -0.000001
# 3 -0.001422 -0.002279 0.013969 -0.000003 0.001387 -0.000001
# 4 0.000000 0.000000 -0.000003 0.034404 0.000001 0.004712
# 5 -0.000367 0.001474 0.001387 0.000001 0.022229 0.000001
# 6 0.000000 -0.000001 -0.000001 0.004712 0.000001 0.028130
#
#
# Mechanical properties :
#
#
# Convention : Reuss Voigt Hill
#
# Bulk Modulus (GPa) = 45.25754 51.30560 48.28157
# Shear Modulus (GPa) = 35.68001 38.39185 37.03593
#
# Velocity S-wave (km/s) = 3.80968 3.95181 3.88140
# Velocity P-wave (km/s) = 6.14501 6.45695 6.30291
#
# Compressibility (1/GPa) = 0.02209576
#
# Stress axis : x y z
#
# Youngs Moduli (GPa) = 136.34716 72.73732 71.58860
#
# Poissons Ratio (x) = 0.20199 0.10179
# Poissons Ratio (y) = 0.37864 0.16313
# Poissons Ratio (z) = 0.19387 0.16574
#
# Static dielectric constant tensor:
#      x y z
#    x 2.100410 0.000000 0.045220 
#    y 0.000000 1.986790 0.000000 
#    z 0.045220 0.000000 2.015900 
# 
# From -- ./inp_files/164238.got.cif
#   From: 2010.05.17/outbox.cif.g08.bks.cpg/sg15_83_cif.got.tgz:164238.got - 2010.06.03 18:47:42.
