data_PCOD9290173
_publ_section_title
;
Structure prediction by ZEFSAII (Michael W. Deem and Ramdas Pophale) SiO2 
 PCOD9290173
Probable space group: C 2/C
;
_chemical_formula_sum "Si O2"
_cell_formula_units_Z 40
_cell_length_a 27.899851
_cell_length_b 5.041100
_cell_length_c 15.287458
_cell_angle_alpha 90.000000
_cell_angle_beta 68.634992
_cell_angle_gamma 90.000000
_cell_volume 2002.359449
_symmetry_space_group_name_H-M "C 2/C"
_symmetry_group_IT_number 15
_symmetry_cell_setting 'monoclinic'
loop_
_space_group_symop_operation_xyz
x,y,z
-x,y,1/2-z
-x,-y,-z
x,-y,1/2+z
1/2+x,1/2+y,z
1/2-x,1/2+y,1/2-z
1/2-x,1/2-y,-z
1/2+x,1/2-y,1/2+z
loop_
_atom_site_type_symbol
_atom_site_label
_atom_site_fract_x
_atom_site_fract_y
_atom_site_fract_z
Si Si1 0.098681 0.376294 0.528959
Si Si2 0.500618 0.456728 0.146881
Si Si3 0.438700 0.936043 0.136917
Si Si4 0.808235 0.814084 0.437624
Si Si5 0.862190 0.666598 0.839004
O O1 0.086259 0.473042 0.440928
O O2 0.154724 0.242293 0.503504
O O3 0.101116 0.603559 0.601796
O O4 0.055210 0.166485 0.584681
O O5 0.500000 0.524924 0.250000
O O6 0.484036 0.716221 0.103806
O O7 0.460642 0.213625 0.157732
O O8 0.397617 0.809291 0.231239
O O9 0.750000 0.750000 0.500000
O O10 0.828538 0.599442 0.354226
O O11 0.823964 0.097719 0.389405
#
# Coordination Sequence:
#
# PCOD9290173 Si02
#       5
#     8   8   8   8   8
#     4  10  25  38  64  92 125 165 209 251 309 372
#     4  12  23  39  61  90 132 168 204 249 310 369
#     4  12  24  39  62  93 128 167 206 251 304 381
#     4  10  22  43  66  88 120 162 207 264 319 362
#     4  10  22  41  63  89 128 158 209 254 314 363
#
# _framework density 19.976433
#
# number of rings (size 3 to 8) (size 9 to 14) (size 15 to 20)
#    1.200    0.000    2.000    4.800    5.600    0.000 
#    0.000    2.000    0.000    0.000    0.000    0.000 
#    0.000    0.000    0.000    0.000    0.000    0.000 
#
# Total GULP energy -111684.942482 kJ/mol
# GULP energy per Si atom -5584.247124 kJ/mol
# Density = 1.993097 g / cm^3
# Si number density = 19.976433 Si / 1000 Ang^3
#
#
#
# Elastic Constant Matrix: (Units=GPa)
#
#
# Indices 1 2 3 4 5 6 
#
# 1 78.3502 -13.3044 51.0624 0.0000 -10.2376 0.0000
# 2 -13.3044 71.1108 2.2535 0.0000 1.3430 0.0000
# 3 51.0624 2.2535 89.9744 0.0000 3.3028 0.0000
# 4 0.0000 0.0000 0.0000 21.2769 0.0000 -11.3813
# 5 -10.2376 1.3430 3.3028 0.0000 32.8280 0.0000
# 6 0.0000 0.0000 0.0000 -11.3813 0.0000 23.2884
#
#
#
# Elastic Compliance Matrix: (Units=1/GPa)
#
#
# Indices 1 2 3 4 5 6 
#
# 1 0.023765 0.004725 -0.013922 0.000000 0.008618 0.000000
# 2 0.004725 0.015023 -0.003101 0.000000 0.001171 0.000000
# 3 -0.013922 -0.003101 0.019319 0.000000 -0.006158 0.000000
# 4 0.000000 0.000000 0.000000 0.063635 0.000000 0.031099
# 5 0.008618 0.001171 -0.006158 0.000000 0.033721 0.000000
# 6 0.000000 0.000000 0.000000 0.031099 0.000000 0.058138
#
#
# Mechanical properties :
#
#
# Convention : Reuss Voigt Hill
#
# Bulk Modulus (GPa) = 29.84100 35.49538 32.66819
# Shear Modulus (GPa) = 20.05085 28.77358 24.41222
#
# Velocity S-wave (km/s) = 3.17160 3.79935 3.49958
# Velocity P-wave (km/s) = 5.32753 6.08719 5.71999
#
# Compressibility (1/GPa) = 0.03351094
#
# Stress axis : x y z
#
# Youngs Moduli (GPa) = 42.07938 66.56614 51.76299
#
# Poissons Ratio (x) = -0.31450 0.72063
# Poissons Ratio (y) = -0.19881 0.16049
# Poissons Ratio (z) = 0.58581 0.20639
#
# Static dielectric constant tensor:
#      x y z
#    x 1.726210 0.000000 -0.016820 
#    y 0.000000 1.736020 0.000000 
#    z -0.016820 0.000000 1.691230 
# 
# From -- ./inp_files/175329.got.cif
#   From: 2010.05.17/outbox.cif.g08.bks.cpg/sg15_88_cif.got.tgz:175329.got - 2010.06.03 18:47:42.
