data_PCOD9290897
_publ_section_title
;
Structure prediction by ZEFSAII (Michael W. Deem and Ramdas Pophale) SiO2 
 PCOD9290897
Probable space group: C 2/C
;
_chemical_formula_sum "Si O2"
_cell_formula_units_Z 32
_cell_length_a 14.266196
_cell_length_b 15.695437
_cell_length_c 12.246759
_cell_angle_alpha 90.000000
_cell_angle_beta 153.484595
_cell_angle_gamma 90.000000
_cell_volume 1224.233696
_symmetry_space_group_name_H-M "C 2/C"
_symmetry_group_IT_number 15
_symmetry_cell_setting 'monoclinic'
loop_
_space_group_symop_operation_xyz
x,y,z
-x,y,1/2-z
-x,-y,-z
x,-y,1/2+z
1/2+x,1/2+y,z
1/2-x,1/2+y,1/2-z
1/2-x,1/2-y,-z
1/2+x,1/2-y,1/2+z
loop_
_atom_site_type_symbol
_atom_site_label
_atom_site_fract_x
_atom_site_fract_y
_atom_site_fract_z
Si Si1 0.334846 0.858781 0.258342
Si Si2 0.500000 0.589147 0.250000
Si Si3 0.764109 0.318078 0.722099
Si Si4 0.635937 0.437236 0.243493
Si Si5 0.500000 0.840728 0.750000
O O1 0.291238 0.769043 0.273847
O O2 0.583694 0.865179 0.532214
O O3 0.245412 0.934744 0.240108
O O4 0.198028 0.859993 0.006104
O O5 0.581238 0.525888 0.241024
O O6 0.569192 0.377331 0.485064
O O7 0.890014 0.296814 0.740248
O O8 0.811722 0.395840 0.504306
#
# Coordination Sequence:
#
# PCOD9290897 Si02
#       5
#     8   4   8   8   4
#     4  11  26  44  72 100 138 175 235 275 337 398
#     4  12  26  49  66 101 144 182 214 284 348 403
#     4  11  22  45  71 105 132 179 229 286 324 405
#     4  11  23  48  70 103 137 179 227 279 340 404
#     4  10  22  41  76  99 134 174 236 276 340 383
#
# _framework density 26.1388
#
# number of rings (size 3 to 8) (size 9 to 14) (size 15 to 20)
#    0.000    1.000    5.000    0.750    0.000    7.000 
#    4.500    0.000    0.000    0.000    0.000    0.000 
#    0.000    0.000    0.000    0.000    0.000    0.000 
#
# Total GULP energy -89548.968211 kJ/mol
# GULP energy per Si atom -5596.810513 kJ/mol
# Density = 2.607931 g / cm^3
# Si number density = 26.138800 Si / 1000 Ang^3
#
#
#
# Elastic Constant Matrix: (Units=GPa)
#
#
# Indices 1 2 3 4 5 6 
#
# 1 53.0184 42.9754 49.5675 0.0000 -3.9662 0.0000
# 2 42.9754 92.5738 81.2825 0.0000 -7.6010 0.0000
# 3 49.5675 81.2825 304.9221 -0.0001 -41.6707 0.0000
# 4 0.0000 0.0000 -0.0001 27.3899 0.0000 6.3289
# 5 -3.9662 -7.6010 -41.6707 0.0000 52.5404 0.0000
# 6 0.0000 0.0000 0.0000 6.3289 0.0000 23.9516
#
#
#
# Elastic Compliance Matrix: (Units=1/GPa)
#
#
# Indices 1 2 3 4 5 6 
#
# 1 0.030835 -0.012899 -0.001695 0.000000 -0.000882 0.000000
# 2 -0.012899 0.019552 -0.003209 0.000000 -0.000691 0.000000
# 3 -0.001695 -0.003209 0.004856 0.000000 0.003259 0.000000
# 4 0.000000 0.000000 0.000000 0.038884 0.000000 -0.010275
# 5 -0.000882 -0.000691 0.003259 0.000000 0.021451 0.000000
# 6 0.000000 0.000000 0.000000 -0.010275 0.000000 0.044466
#
#
# Mechanical properties :
#
#
# Convention : Reuss Voigt Hill
#
# Bulk Modulus (GPa) = 50.92541 88.68498 69.80520
# Shear Modulus (GPa) = 24.72853 39.22232 31.97542
#
# Velocity S-wave (km/s) = 3.07912 3.87788 3.50136
# Velocity P-wave (km/s) = 5.67154 7.35206 6.56579
#
# Compressibility (1/GPa) = 0.01963656
#
# Stress axis : x y z
#
# Youngs Moduli (GPa) = 32.43021 51.14682 205.93554
#
# Poissons Ratio (x) = 0.65975 0.34898
# Poissons Ratio (y) = 0.41832 0.66091
# Poissons Ratio (z) = 0.05496 0.16415
#
# Static dielectric constant tensor:
#      x y z
#    x 2.106810 0.000000 0.021940 
#    y 0.000000 2.043070 0.000000 
#    z 0.021940 0.000000 2.146480 
# 
# From -- ./inp_files/163153.got.cif
#   From: 2010.05.17/outbox.cif.g08.bks.cpg/sg15_82_cif.got.tgz:163153.got - 2010.06.03 18:47:42.
