data_PCOD9290791
_publ_section_title
;
Structure prediction by ZEFSAII (Michael W. Deem and Ramdas Pophale) SiO2 
 PCOD9290791
Probable space group: C 2/C
;
_chemical_formula_sum "Si O2"
_cell_formula_units_Z 40
_cell_length_a 14.337267
_cell_length_b 13.574021
_cell_length_c 11.325085
_cell_angle_alpha 90.000000
_cell_angle_beta 127.803737
_cell_angle_gamma 90.000000
_cell_volume 1741.432664
_symmetry_space_group_name_H-M "C 2/C"
_symmetry_group_IT_number 15
_symmetry_cell_setting 'monoclinic'
loop_
_space_group_symop_operation_xyz
x,y,z
-x,y,1/2-z
-x,-y,-z
x,-y,1/2+z
1/2+x,1/2+y,z
1/2-x,1/2+y,1/2-z
1/2-x,1/2-y,-z
1/2+x,1/2-y,1/2+z
loop_
_atom_site_type_symbol
_atom_site_label
_atom_site_fract_x
_atom_site_fract_y
_atom_site_fract_z
Si Si1 0.493676 0.429056 0.381412
Si Si2 0.953336 0.280120 0.582729
Si Si3 0.896392 0.422774 0.944149
Si Si4 0.866173 0.304995 0.142899
Si Si5 0.729232 0.104508 0.691157
O O1 0.500000 0.469720 0.250000
O O2 0.500000 0.500000 0.500000
O O3 0.578050 0.334262 0.462944
O O4 0.366026 0.378219 0.288346
O O5 0.841177 0.349711 0.472924
O O6 0.000000 0.290049 0.750000
O O7 0.058344 0.323557 0.581551
O O8 0.786021 0.485727 0.813612
O O9 0.881861 0.398359 0.069396
O O10 0.000000 0.500000 0.000000
O O11 0.829927 0.341775 0.243529
O O12 0.000000 0.257796 0.250000
O O13 0.750000 0.250000 0.000000
#
# Coordination Sequence:
#
# PCOD9290791 Si02
#       5
#     8   8   8   8   8
#     4  11  28  50  70 107 147 198 252 317 392 461
#     4  10  23  44  75 101 141 186 250 304 374 453
#     4  10  22  41  70 106 145 189 251 303 368 459
#     4  12  25  46  76 113 153 200 260 319 394 458
#     4  11  26  44  75 107 146 197 246 318 387 454
#
# _framework density 22.969593
#
# number of rings (size 3 to 8) (size 9 to 14) (size 15 to 20)
#    0.000    1.200    4.000    1.200    8.400    6.400 
#    3.600    0.000    0.000    0.000    0.000    0.000 
#    0.000    0.000    0.000    0.000    0.000    0.000 
#
# Total GULP energy -111569.954889 kJ/mol
# GULP energy per Si atom -5578.497744 kJ/mol
# Density = 2.291731 g / cm^3
# Si number density = 22.969593 Si / 1000 Ang^3
#
#
#
# Elastic Constant Matrix: (Units=GPa)
#
#
# Indices 1 2 3 4 5 6 
#
# 1 99.4723 14.9804 42.1520 0.0000 -5.9803 0.0000
# 2 14.9804 89.1505 62.8556 0.0000 -10.5417 0.0000
# 3 42.1520 62.8556 115.7006 0.0000 -6.4738 0.0000
# 4 0.0000 0.0000 0.0000 32.9731 0.0000 -3.4322
# 5 -5.9803 -10.5417 -6.4738 0.0000 49.1505 0.0000
# 6 0.0000 0.0000 0.0000 -3.4322 0.0000 26.2328
#
#
#
# Elastic Compliance Matrix: (Units=1/GPa)
#
#
# Indices 1 2 3 4 5 6 
#
# 1 0.012117 0.001894 -0.005378 0.000000 0.001172 0.000000
# 2 0.001894 0.018817 -0.010753 0.000000 0.002850 0.000000
# 3 -0.005378 -0.010753 0.016399 0.000000 -0.000801 0.000000
# 4 0.000000 0.000000 0.000000 0.030746 0.000000 0.004023
# 5 0.001172 0.002850 -0.000801 0.000000 0.020994 0.000000
# 6 0.000000 0.000000 0.000000 0.004023 0.000000 0.038647
#
#
# Mechanical properties :
#
#
# Convention : Reuss Voigt Hill
#
# Bulk Modulus (GPa) = 53.02306 60.47771 56.75039
# Shear Modulus (GPa) = 28.98850 33.96029 31.47440
#
# Velocity S-wave (km/s) = 3.55637 3.84928 3.70572
# Velocity P-wave (km/s) = 6.32438 6.79283 6.56279
#
# Compressibility (1/GPa) = 0.01885972
#
# Stress axis : x y z
#
# Youngs Moduli (GPa) = 82.52715 53.14232 60.97771
#
# Poissons Ratio (x) = -0.10067 0.32794
# Poissons Ratio (y) = -0.15633 0.65572
# Poissons Ratio (z) = 0.44383 0.57146
#
# Static dielectric constant tensor:
#      x y z
#    x 1.899010 0.000000 0.021130 
#    y 0.000000 1.950120 0.000000 
#    z 0.021130 0.000000 1.821000 
# 
# From -- ./inp_files/96650.got.cif
#   From: 2010.05.17/outbox.cif.g08.bks.cpg/sg15_49_cif.got.tgz:96650.got - 2010.06.03 18:47:42.
