data_PCOD9290018
_publ_section_title
;
Structure prediction by ZEFSAII (Michael W. Deem and Ramdas Pophale) SiO2 
 PCOD9290018
Probable space group: C 2/C
;
_chemical_formula_sum "Si O2"
_cell_formula_units_Z 40
_cell_length_a 10.036594
_cell_length_b 14.265338
_cell_length_c 13.626470
_cell_angle_alpha 90.000000
_cell_angle_beta 103.369533
_cell_angle_gamma 90.000000
_cell_volume 1898.101934
_symmetry_space_group_name_H-M "C 2/C"
_symmetry_group_IT_number 15
_symmetry_cell_setting 'monoclinic'
loop_
_space_group_symop_operation_xyz
x,y,z
-x,y,1/2-z
-x,-y,-z
x,-y,1/2+z
1/2+x,1/2+y,z
1/2-x,1/2+y,1/2-z
1/2-x,1/2-y,-z
1/2+x,1/2-y,1/2+z
loop_
_atom_site_type_symbol
_atom_site_label
_atom_site_fract_x
_atom_site_fract_y
_atom_site_fract_z
Si Si1 0.962323 0.558783 0.351630
Si Si2 0.537547 0.391183 0.498007
Si Si3 0.897348 0.224185 0.816049
Si Si4 0.597194 0.755374 0.172903
Si Si5 0.175216 0.420376 0.051735
O O1 0.941179 0.669682 0.346522
O O2 0.830636 0.505242 0.371802
O O3 0.000000 0.525379 0.250000
O O4 0.091965 0.542750 0.443758
O O5 0.500000 0.500000 0.500000
O O6 0.419593 0.337724 0.416557
O O7 0.566498 0.339294 0.606307
O O8 0.678576 0.385018 0.459564
O O9 0.748860 0.233386 0.743081
O O10 0.000000 0.186584 0.750000
O O11 0.500000 0.764774 0.250000
O O12 0.590696 0.837747 0.090584
#
# Coordination Sequence:
#
# PCOD9290018 Si02
#       5
#     8   8   8   8   8
#     4  10  22  40  74 104 137 186 235 290 356 427
#     4  12  27  46  71 105 147 189 239 296 360 428
#     4  11  23  45  75  99 139 191 233 288 365 423
#     4  12  27  45  74 105 143 181 243 298 355 430
#     4  11  23  46  70 103 144 183 237 296 351 431
#
# _framework density 21.073682999999999
#
# number of rings (size 3 to 8) (size 9 to 14) (size 15 to 20)
#    0.000    0.800    4.000    3.600    2.800    8.000 
#    0.000    0.000    0.000    0.000    0.000    0.000 
#    0.000    0.000    0.000    0.000    0.000    0.000 
#
# Total GULP energy -111760.236304 kJ/mol
# GULP energy per Si atom -5588.011815 kJ/mol
# Density = 2.102572 g / cm^3
# Si number density = 21.073683 Si / 1000 Ang^3
#
#
#
# Elastic Constant Matrix: (Units=GPa)
#
#
# Indices 1 2 3 4 5 6 
#
# 1 82.6510 16.7598 64.1787 0.0000 -11.7120 0.0000
# 2 16.7598 82.9178 39.4265 0.0000 -14.6549 0.0000
# 3 64.1787 39.4265 148.1317 0.0000 -5.1927 0.0000
# 4 0.0000 0.0000 0.0000 -38.4423 0.0000 -16.6479
# 5 -11.7120 -14.6549 -5.1927 0.0000 40.3573 0.0000
# 6 0.0000 0.0000 0.0000 -16.6479 0.0000 27.0408
#
#
#
# Elastic Compliance Matrix: (Units=1/GPa)
#
#
# Indices 1 2 3 4 5 6 
#
# 1 0.019069 0.000966 -0.008350 0.000000 0.004810 0.000000
# 2 0.000966 0.014746 -0.004165 0.000000 0.005099 0.000000
# 3 -0.008350 -0.004165 0.011390 0.000000 -0.002470 0.000000
# 4 0.000000 0.000000 0.000000 -0.020537 0.000000 -0.012644
# 5 0.004810 0.005099 -0.002470 0.000000 0.027709 0.000000
# 6 0.000000 0.000000 0.000000 -0.012644 0.000000 0.029197
#
#
# Mechanical properties :
#
#
# Convention : Reuss Voigt Hill
#
# Bulk Modulus (GPa) = 45.23200 61.60339 53.41770
# Shear Modulus (GPa) = 44.62686 18.68020 31.65353
#
# Velocity S-wave (km/s) = 4.60679 2.98052 3.87982
# Velocity P-wave (km/s) = 7.05741 6.41408 6.74342
#
# Compressibility (1/GPa) = 0.02210824
#
# Stress axis : x y z
#
# Youngs Moduli (GPa) = 52.44192 67.81319 87.79315
#
# Poissons Ratio (x) = -0.06553 0.73309
# Poissons Ratio (y) = -0.05068 0.36564
# Poissons Ratio (z) = 0.43790 0.28243
#
# Static dielectric constant tensor:
#      x y z
#    x 1.770220 0.000000 0.014060 
#    y 0.000000 1.782590 0.000000 
#    z 0.014060 0.000000 1.804640 
# 
# From -- ./inp_files/133278.got.cif
#   From: 2010.05.17/outbox.cif.g08.bks.cpg/sg15_67_cif.got.tgz:133278.got - 2010.06.03 18:47:42.
