data_PCOD9290612
_publ_section_title
;
Structure prediction by ZEFSAII (Michael W. Deem and Ramdas Pophale) SiO2 
 PCOD9290612
Probable space group: C 2/C
;
_chemical_formula_sum "Si O2"
_cell_formula_units_Z 64
_cell_length_a 19.212574
_cell_length_b 14.812137
_cell_length_c 16.095686
_cell_angle_alpha 90.000000
_cell_angle_beta 40.252267
_cell_angle_gamma 90.000000
_cell_volume 2959.708373
_symmetry_space_group_name_H-M "C 2/C"
_symmetry_group_IT_number 15
_symmetry_cell_setting 'monoclinic'
loop_
_space_group_symop_operation_xyz
x,y,z
-x,y,1/2-z
-x,-y,-z
x,-y,1/2+z
1/2+x,1/2+y,z
1/2-x,1/2+y,1/2-z
1/2-x,1/2-y,-z
1/2+x,1/2-y,1/2+z
loop_
_atom_site_type_symbol
_atom_site_label
_atom_site_fract_x
_atom_site_fract_y
_atom_site_fract_z
Si Si1 0.417711 0.717873 0.253062
Si Si2 0.265480 0.870435 0.384409
Si Si3 0.368982 0.277944 0.408448
Si Si4 0.961024 0.691012 0.158982
Si Si5 0.372366 0.515471 0.883307
Si Si6 0.396035 0.008145 0.157878
Si Si7 0.753427 0.933705 0.850198
Si Si8 0.397023 0.223638 0.029898
O O1 0.500000 0.690519 0.250000
O O2 0.338028 0.793642 0.362923
O O3 0.351723 0.636593 0.271612
O O4 0.490377 0.758313 0.114997
O O5 0.191498 0.940035 0.504169
O O6 0.182149 0.807687 0.410774
O O7 0.351557 0.924351 0.250356
O O8 0.250000 0.250000 0.500000
O O9 0.419477 0.252623 0.272199
O O10 0.414361 0.215780 0.441901
O O11 0.373939 0.384648 0.421255
O O12 0.930785 0.585814 0.191918
O O13 0.915192 0.713608 0.111150
O O14 0.500000 0.497643 0.750000
O O15 0.296993 0.513844 0.868902
O O16 0.290624 0.033760 0.198323
O O17 0.500000 0.000000 0.000000
O O18 0.653581 0.867451 0.963750
#
# Coordination Sequence:
#
# PCOD9290612 Si02
#       8
#     8   8   8   8   8   8   8   8
#     4  11  22  43  66  98 140 180 222 278 353 422
#     4  11  24  39  68 103 134 181 229 279 352 416
#     4  11  25  44  67  90 128 187 225 285 341 409
#     4  10  23  45  63  94 131 176 232 274 350 408
#     4  12  24  43  65 101 139 175 235 285 342 410
#     4  11  25  44  67 101 135 173 235 294 345 412
#     4  10  23  40  64  95 132 178 217 283 344 403
#     4  10  22  41  67  98 137 178 226 280 356 420
#
# _framework density 21.623752
#
# number of rings (size 3 to 8) (size 9 to 14) (size 15 to 20)
#    0.000    1.250    1.250    4.875    3.500    6.000 
#    2.250    1.875    0.000    0.000    0.000    0.000 
#    0.000    0.000    0.000    0.000    0.000    0.000 
#
# Total GULP energy -178270.582699 kJ/mol
# GULP energy per Si atom -5570.955709 kJ/mol
# Density = 2.157454 g / cm^3
# Si number density = 21.623752 Si / 1000 Ang^3
#
#
#
# Elastic Constant Matrix: (Units=GPa)
#
#
# Indices 1 2 3 4 5 6 
#
# 1 122.6948 35.7284 12.3989 0.0000 -32.3665 0.0000
# 2 35.7284 108.1882 17.8932 0.0000 -15.4872 0.0000
# 3 12.3989 17.8932 76.7919 0.0000 -14.9580 0.0000
# 4 0.0000 0.0000 0.0000 25.4278 0.0000 6.5294
# 5 -32.3665 -15.4872 -14.9580 0.0000 26.3821 0.0000
# 6 0.0000 0.0000 0.0000 6.5294 0.0000 22.6633
#
#
#
# Elastic Compliance Matrix: (Units=1/GPa)
#
#
# Indices 1 2 3 4 5 6 
#
# 1 0.012605 -0.002257 0.001399 0.000000 0.014934 0.000000
# 2 -0.002257 0.010620 -0.001613 0.000000 0.002551 0.000000
# 3 0.001399 -0.001613 0.014976 0.000000 0.009261 0.000000
# 4 0.000000 0.000000 0.000000 0.042469 0.000000 -0.012235
# 5 0.014934 0.002551 0.009261 0.000000 0.062974 0.000000
# 6 0.000000 0.000000 0.000000 -0.012235 0.000000 0.047649
#
#
# Mechanical properties :
#
#
# Convention : Reuss Voigt Hill
#
# Bulk Modulus (GPa) = 30.06536 48.85732 39.46134
# Shear Modulus (GPa) = 24.11708 31.00493 27.56100
#
# Velocity S-wave (km/s) = 3.34324 3.79071 3.57399
# Velocity P-wave (km/s) = 5.37001 6.46550 5.94305
#
# Compressibility (1/GPa) = 0.03326087
#
# Stress axis : x y z
#
# Youngs Moduli (GPa) = 79.33096 94.15815 66.77326
#
# Poissons Ratio (x) = 0.21247 -0.09344
# Poissons Ratio (y) = 0.17901 0.10773
# Poissons Ratio (z) = -0.11101 0.15191
#
# Static dielectric constant tensor:
#      x y z
#    x 1.808750 0.000000 -0.038180 
#    y 0.000000 1.855080 0.000000 
#    z -0.038180 0.000000 1.827810 
# 
# From -- ./inp_files/211370.got.cif
#   From: 2010.05.17/outbox.cif.g08.bks.cpg/sg15_106_cif.got.tgz:211370.got - 2010.06.03 18:47:42.
