data_PCOD9290294
_publ_section_title
;
Structure prediction by ZEFSAII (Michael W. Deem and Ramdas Pophale) SiO2 
 PCOD9290294
Probable space group: C 2/C
;
_chemical_formula_sum "Si O2"
_cell_formula_units_Z 56
_cell_length_a 27.137514
_cell_length_b 5.611253
_cell_length_c 14.174774
_cell_angle_alpha 90.000000
_cell_angle_beta 103.522476
_cell_angle_gamma 90.000000
_cell_volume 2098.633658
_symmetry_space_group_name_H-M "C 2/C"
_symmetry_group_IT_number 15
_symmetry_cell_setting 'monoclinic'
loop_
_space_group_symop_operation_xyz
x,y,z
-x,y,1/2-z
-x,-y,-z
x,-y,1/2+z
1/2+x,1/2+y,z
1/2-x,1/2+y,1/2-z
1/2-x,1/2-y,-z
1/2+x,1/2-y,1/2+z
loop_
_atom_site_type_symbol
_atom_site_label
_atom_site_fract_x
_atom_site_fract_y
_atom_site_fract_z
Si Si1 0.769718 0.683833 0.305088
Si Si2 0.644146 0.438519 0.229666
Si Si3 0.106346 0.575194 0.898187
Si Si4 0.051106 0.313840 0.714578
Si Si5 0.800294 0.066626 0.067047
Si Si6 0.952952 0.175472 0.987515
Si Si7 0.143378 0.177341 0.058374
O O1 0.753288 0.439611 0.243176
O O2 0.829727 0.732438 0.322691
O O3 0.751635 0.646306 0.406030
O O4 0.585214 0.425582 0.227870
O O5 0.674606 0.404670 0.339551
O O6 0.654751 0.678211 0.174730
O O7 0.088731 0.481762 0.789319
O O8 0.157382 0.727277 0.914309
O O9 0.055881 0.701113 0.916854
O O10 0.120113 0.383558 0.984981
O O11 0.043679 0.355268 0.599942
O O12 0.000000 0.288970 0.750000
O O13 0.806837 0.915750 0.975057
O O14 0.901424 0.019991 0.960425
O O15 0.000000 0.000000 0.000000
#
# Coordination Sequence:
#
# PCOD9290294 Si02
#       7
#     8   8   8   8   8   8   8
#     4  10  22  42  71 103 138 189 233 291 359 428
#     4  10  22  43  67  96 137 175 226 291 347 425
#     4  11  23  42  66  96 136 176 233 288 343 423
#     4  11  23  40  67  94 128 178 224 275 347 416
#     4  10  22  41  68  94 136 179 224 289 349 421
#     4  10  24  43  63  94 138 177 229 291 340 418
#     4  10  22  41  64  97 132 177 229 283 351 417
#
# _framework density 26.684028000000001
#
# number of rings (size 3 to 8) (size 9 to 14) (size 15 to 20)
#    0.000    1.714    1.429    1.714    6.000    2.857 
#   10.286    0.714    0.000    0.000    0.000    0.000 
#    0.000    0.000    0.000    0.000    0.000    0.000 
#
# Total GULP energy -156386.855857 kJ/mol
# GULP energy per Si atom -5585.244852 kJ/mol
# Density = 2.662329 g / cm^3
# Si number density = 26.684028 Si / 1000 Ang^3
#
#
#
# Elastic Constant Matrix: (Units=GPa)
#
#
# Indices 1 2 3 4 5 6 
#
# 1 150.8853 38.7484 29.1408 0.0000 -25.9056 0.0000
# 2 38.7484 85.0811 33.6257 0.0000 -9.2751 0.0000
# 3 29.1408 33.6257 115.9298 0.0000 -32.8664 0.0000
# 4 0.0000 0.0000 0.0000 20.7632 0.0000 -8.8840
# 5 -25.9056 -9.2751 -32.8664 0.0000 48.7543 0.0000
# 6 0.0000 0.0000 0.0000 -8.8840 0.0000 42.3576
#
#
#
# Elastic Compliance Matrix: (Units=1/GPa)
#
#
# Indices 1 2 3 4 5 6 
#
# 1 0.008105 -0.003272 -0.000054 0.000000 0.003647 0.000000
# 2 -0.003272 0.014597 -0.003853 0.000000 -0.001559 0.000000
# 3 -0.000054 -0.003853 0.011796 0.000000 0.007190 0.000000
# 4 0.000000 0.000000 0.000000 0.052910 0.000000 0.011097
# 5 0.003647 -0.001559 0.007190 0.000000 0.026999 0.000000
# 6 0.000000 0.000000 0.000000 0.011097 0.000000 0.025936
#
#
# Mechanical properties :
#
#
# Convention : Reuss Voigt Hill
#
# Bulk Modulus (GPa) = 49.65829 61.65844 55.65836
# Shear Modulus (GPa) = 30.97625 39.06710 35.02167
#
# Velocity S-wave (km/s) = 3.41083 3.83046 3.62672
# Velocity P-wave (km/s) = 5.84481 6.53607 6.20008
#
# Compressibility (1/GPa) = 0.02013763
#
# Stress axis : x y z
#
# Youngs Moduli (GPa) = 123.38813 68.50906 84.77783
#
# Poissons Ratio (x) = 0.22416 0.00459
# Poissons Ratio (y) = 0.40373 0.32668
# Poissons Ratio (z) = 0.00667 0.26399
#
# Static dielectric constant tensor:
#      x y z
#    x 2.084170 0.000000 0.085800 
#    y 0.000000 2.163960 0.000000 
#    z 0.085800 0.000000 2.239810 
# 
# From -- ./inp_files/180122.got.cif
#   From: 2010.05.17/outbox.cif.g08.bks.cpg/sg15_91_cif.got.tgz:180122.got - 2010.06.03 18:47:42.
