data_PCOD9290838
_publ_section_title
;
Structure prediction by ZEFSAII (Michael W. Deem and Ramdas Pophale) SiO2 
 PCOD9290838
Probable space group: C 2/C
;
_chemical_formula_sum "Si O2"
_cell_formula_units_Z 52
_cell_length_a 14.575378
_cell_length_b 12.804166
_cell_length_c 21.168409
_cell_angle_alpha 90.000000
_cell_angle_beta 28.885720
_cell_angle_gamma 90.000000
_cell_volume 1908.376983
_symmetry_space_group_name_H-M "C 2/C"
_symmetry_group_IT_number 15
_symmetry_cell_setting 'monoclinic'
loop_
_space_group_symop_operation_xyz
x,y,z
-x,y,1/2-z
-x,-y,-z
x,-y,1/2+z
1/2+x,1/2+y,z
1/2-x,1/2+y,1/2-z
1/2-x,1/2-y,-z
1/2+x,1/2-y,1/2+z
loop_
_atom_site_type_symbol
_atom_site_label
_atom_site_fract_x
_atom_site_fract_y
_atom_site_fract_z
Si Si1 0.146479 0.925581 0.032589
Si Si2 0.476051 0.215016 0.582726
Si Si3 0.249346 0.152323 0.179175
Si Si4 0.000000 0.994565 0.250000
Si Si5 0.722788 0.465375 0.801748
Si Si6 0.533560 0.095432 0.663162
Si Si7 0.219182 0.272879 0.638429
O O1 0.163023 0.808615 0.994788
O O2 0.105270 0.928745 0.132187
O O3 0.979583 0.993493 0.100150
O O4 0.337282 0.993301 0.904869
O O5 0.627008 0.231495 0.435756
O O6 0.391621 0.295178 0.685010
O O7 0.600177 0.149277 0.558758
O O8 0.296631 0.187198 0.643370
O O9 0.356886 0.075469 0.163270
O O10 0.142376 0.072503 0.199111
O O11 0.733354 0.376616 0.848141
O O12 0.823551 0.564832 0.769173
O O13 0.500000 0.152991 0.750000
O O14 0.000000 0.269035 0.750000
#
# Coordination Sequence:
#
# PCOD9290838 Si02
#       7
#     8   8   8   4   8   8   8
#     4  11  21  42  73 106 143 186 251 310 365 428
#     4  11  27  44  69 107 154 190 239 306 378 445
#     4  10  24  45  65 100 151 193 235 304 369 437
#     4  10  22  42  66 110 136 186 248 316 350 430
#     4  10  22  41  71 108 138 187 256 309 351 438
#     4  12  24  43  75 110 136 193 252 304 369 444
#     4  11  22  46  73 103 145 199 243 301 371 450
#
# _framework density 27.248284000000002
#
# number of rings (size 3 to 8) (size 9 to 14) (size 15 to 20)
#    0.000    1.231    4.615    0.462    3.231    3.692 
#    0.000    4.615    1.692    0.000    0.000    0.000 
#    0.000    0.000    0.000    0.000    0.000    0.000 
#
# Total GULP energy -145025.748575 kJ/mol
# GULP energy per Si atom -5577.913407 kJ/mol
# Density = 2.718627 g / cm^3
# Si number density = 27.248284 Si / 1000 Ang^3
#
#
#
# Elastic Constant Matrix: (Units=GPa)
#
#
# Indices 1 2 3 4 5 6 
#
# 1 177.8158 36.1154 75.7083 0.0008 31.5766 0.0024
# 2 36.1154 51.1255 46.1528 -0.0014 12.6349 -0.0002
# 3 75.7083 46.1528 130.0462 -0.0034 36.9012 0.0046
# 4 0.0008 -0.0014 -0.0034 16.5806 0.0007 3.5552
# 5 31.5766 12.6349 36.9012 0.0007 52.6595 -0.0030
# 6 0.0024 -0.0002 0.0046 3.5552 -0.0030 35.1225
#
#
#
# Elastic Compliance Matrix: (Units=1/GPa)
#
#
# Indices 1 2 3 4 5 6 
#
# 1 0.007764 -0.002091 -0.003244 -0.000001 -0.001880 0.000000
# 2 -0.002091 0.029348 -0.009431 0.000000 0.000821 0.000002
# 3 -0.003244 -0.009431 0.014643 0.000003 -0.006053 -0.000003
# 4 -0.000001 0.000000 0.000003 0.061650 -0.000003 -0.006240
# 5 -0.001880 0.000821 -0.006053 -0.000003 0.024162 0.000003
# 6 0.000000 0.000002 -0.000003 -0.006240 0.000003 0.029104
#
#
# Mechanical properties :
#
#
# Convention : Reuss Voigt Hill
#
# Bulk Modulus (GPa) = 45.00101 74.99339 59.99720
# Shear Modulus (GPa) = 24.55694 34.27323 29.41508
#
# Velocity S-wave (km/s) = 3.00530 3.55041 3.28917
# Velocity P-wave (km/s) = 5.34729 6.66252 6.04081
#
# Compressibility (1/GPa) = 0.02222173
#
# Stress axis : x y z
#
# Youngs Moduli (GPa) = 128.80571 34.07429 68.29354
#
# Poissons Ratio (x) = 0.07125 0.22155
# Poissons Ratio (y) = 0.26934 0.64408
# Poissons Ratio (z) = 0.41785 0.32135
#
# Static dielectric constant tensor:
#      x y z
#    x 2.636400 -0.000020 0.290730 
#    y -0.000020 2.465130 -0.000010 
#    z 0.290730 -0.000010 2.279410 
# 
# From -- ./inp_files/245009.got.cif
#   From: 2010.05.17/outbox.cif.g08.bks.cpg/sg15_123_cif.got.tgz:245009.got - 2010.06.03 18:47:42.
