data_PCOD9290713
_publ_section_title
;
Structure prediction by ZEFSAII (Michael W. Deem and Ramdas Pophale) SiO2 
 PCOD9290713
Probable space group: C 2/C
;
_chemical_formula_sum "Si O2"
_cell_formula_units_Z 40
_cell_length_a 16.162306
_cell_length_b 11.910130
_cell_length_c 8.899384
_cell_angle_alpha 90.000000
_cell_angle_beta 82.689118
_cell_angle_gamma 90.000000
_cell_volume 1699.161488
_symmetry_space_group_name_H-M "C 2/C"
_symmetry_group_IT_number 15
_symmetry_cell_setting 'monoclinic'
loop_
_space_group_symop_operation_xyz
x,y,z
-x,y,1/2-z
-x,-y,-z
x,-y,1/2+z
1/2+x,1/2+y,z
1/2-x,1/2+y,1/2-z
1/2-x,1/2-y,-z
1/2+x,1/2-y,1/2+z
loop_
_atom_site_type_symbol
_atom_site_label
_atom_site_fract_x
_atom_site_fract_y
_atom_site_fract_z
Si Si1 0.167419 0.320939 0.077177
Si Si2 0.600021 0.566083 0.596104
Si Si3 0.666031 0.244406 0.924674
Si Si4 0.089477 0.860435 0.418908
Si Si5 0.565536 0.951933 0.599779
O O1 0.165419 0.292422 0.253672
O O2 0.141457 0.454278 0.087330
O O3 0.250000 0.250000 0.000000
O O4 0.099911 0.263985 0.979920
O O5 0.637165 0.628072 0.443478
O O6 0.615408 0.436831 0.555807
O O7 0.503412 0.599593 0.599090
O O8 0.633474 0.611562 0.748647
O O9 0.750000 0.250000 0.000000
O O10 0.605570 0.163127 0.033049
O O11 0.500000 0.933219 0.750000
O O12 0.500000 0.000000 0.500000
#
# Coordination Sequence:
#
# PCOD9290713 Si02
#       5
#     8   8   8   8   8
#     4  12  28  47  73 108 151 195 251 317 379 452
#     4  10  22  41  69 102 137 188 239 300 367 447
#     4  12  28  46  75 107 150 195 252 316 383 447
#     4  10  22  41  70 100 141 184 241 299 368 444
#     4  12  28  52  82 112 151 204 261 315 382 464
#
# _framework density 23.541021000000001
#
# number of rings (size 3 to 8) (size 9 to 14) (size 15 to 20)
#    0.000    0.800    2.000    3.600   11.200    1.600 
#    0.000    0.000    0.000    0.000    0.000    0.000 
#    0.000    0.000    0.000    0.000    0.000    0.000 
#
# Total GULP energy -111358.524645 kJ/mol
# GULP energy per Si atom -5567.926232 kJ/mol
# Density = 2.348744 g / cm^3
# Si number density = 23.541021 Si / 1000 Ang^3
#
#
#
# Elastic Constant Matrix: (Units=GPa)
#
#
# Indices 1 2 3 4 5 6 
#
# 1 75.8248 17.8445 22.1738 0.0000 -10.7851 0.0000
# 2 17.8445 79.7598 14.4909 0.0000 -8.7280 0.0000
# 3 22.1738 14.4909 158.2933 0.0000 0.3334 0.0000
# 4 0.0000 0.0000 0.0000 23.8733 0.0000 10.0065
# 5 -10.7851 -8.7280 0.3334 0.0000 33.5334 0.0000
# 6 0.0000 0.0000 0.0000 10.0065 0.0000 32.0437
#
#
#
# Elastic Compliance Matrix: (Units=1/GPa)
#
#
# Indices 1 2 3 4 5 6 
#
# 1 0.014924 -0.002545 -0.001866 0.000000 0.004156 0.000000
# 2 -0.002545 0.013567 -0.000891 0.000000 0.002721 0.000000
# 3 -0.001866 -0.000891 0.006662 0.000000 -0.000898 0.000000
# 4 0.000000 0.000000 0.000000 0.048196 0.000000 -0.015051
# 5 0.004156 0.002721 -0.000898 0.000000 0.031875 0.000000
# 6 0.000000 0.000000 0.000000 -0.015051 0.000000 0.035907
#
#
# Mechanical properties :
#
#
# Convention : Reuss Voigt Hill
#
# Bulk Modulus (GPa) = 40.73646 46.98848 43.86247
# Shear Modulus (GPa) = 29.42566 35.18132 32.30349
#
# Velocity S-wave (km/s) = 3.53933 3.87003 3.70837
# Velocity P-wave (km/s) = 5.83477 6.32243 6.08349
#
# Compressibility (1/GPa) = 0.02454803
#
# Stress axis : x y z
#
# Youngs Moduli (GPa) = 67.00533 73.70958 150.09836
#
# Poissons Ratio (x) = 0.18760 0.28014
# Poissons Ratio (y) = 0.17053 0.13376
# Poissons Ratio (z) = 0.12506 0.06569
#
# Static dielectric constant tensor:
#      x y z
#    x 1.969670 0.000000 0.016160 
#    y 0.000000 1.917140 0.000000 
#    z 0.016160 0.000000 1.764270 
# 
# From -- ./inp_files/46193.got.cif
#   From: 2010.05.17/outbox.cif.g08.bks.cpg/sg15_24_cif.got.tgz:46193.got - 2010.06.03 18:47:42.
