data_PCOD9290516
_publ_section_title
;
Structure prediction by ZEFSAII (Michael W. Deem and Ramdas Pophale) SiO2 
 PCOD9290516
Probable space group: C 2/C
;
_chemical_formula_sum "Si O2"
_cell_formula_units_Z 40
_cell_length_a 13.021173
_cell_length_b 8.948713
_cell_length_c 27.325442
_cell_angle_alpha 90.000000
_cell_angle_beta 149.495929
_cell_angle_gamma 90.000000
_cell_volume 1616.215028
_symmetry_space_group_name_H-M "C 2/C"
_symmetry_group_IT_number 15
_symmetry_cell_setting 'monoclinic'
loop_
_space_group_symop_operation_xyz
x,y,z
-x,y,1/2-z
-x,-y,-z
x,-y,1/2+z
1/2+x,1/2+y,z
1/2-x,1/2+y,1/2-z
1/2-x,1/2-y,-z
1/2+x,1/2-y,1/2+z
loop_
_atom_site_type_symbol
_atom_site_label
_atom_site_fract_x
_atom_site_fract_y
_atom_site_fract_z
Si Si1 0.148174 0.539562 0.933501
Si Si2 0.875600 0.147544 0.652819
Si Si3 0.123916 0.830988 0.882303
Si Si4 0.025275 0.850676 0.477762
Si Si5 0.161226 0.293114 0.688535
O O1 0.165942 0.654270 0.895109
O O2 0.307608 0.408718 0.992063
O O3 0.936273 0.458320 0.852343
O O4 0.218676 0.619954 0.011400
O O5 0.653029 0.221658 0.558009
O O6 0.000000 0.205775 0.750000
O O7 0.021906 0.195898 0.667939
O O8 0.859398 0.967691 0.648026
O O9 0.888420 0.817304 0.800509
O O10 0.853294 0.781406 0.371670
O O11 0.000000 0.000000 0.500000
#
# Coordination Sequence:
#
# PCOD9290516 Si02
#       5
#     8   8   8   8   8
#     4  10  22  41  66  98 134 170 224 276 336 404
#     4  11  24  42  65 100 137 172 230 284 334 409
#     4  11  22  40  69  98 130 176 218 282 343 397
#     4  11  24  43  67  96 135 181 227 279 336 406
#     4  11  22  45  70  97 133 182 226 275 345 406
#
# _framework density 24.749182000000001
#
# number of rings (size 3 to 8) (size 9 to 14) (size 15 to 20)
#    0.000    1.200    4.000    2.400    2.800    3.200 
#    0.000    3.000    0.000    0.000    0.000    0.000 
#    0.000    0.000    0.000    0.000    0.000    0.000 
#
# Total GULP energy -111569.092949 kJ/mol
# GULP energy per Si atom -5578.454647 kJ/mol
# Density = 2.469285 g / cm^3
# Si number density = 24.749182 Si / 1000 Ang^3
#
#
#
# Elastic Constant Matrix: (Units=GPa)
#
#
# Indices 1 2 3 4 5 6 
#
# 1 63.2180 35.4325 33.1101 0.0000 -11.7436 0.0000
# 2 35.4325 138.4402 39.0360 0.0000 4.3159 0.0000
# 3 33.1101 39.0360 66.8526 -0.0001 -3.0368 -0.0002
# 4 0.0000 0.0000 -0.0001 33.6752 0.0000 19.1615
# 5 -11.7436 4.3159 -3.0368 0.0000 34.7985 0.0000
# 6 0.0000 0.0000 -0.0002 19.1615 0.0000 16.8798
#
#
#
# Elastic Compliance Matrix: (Units=1/GPa)
#
#
# Indices 1 2 3 4 5 6 
#
# 1 0.024391 -0.003810 -0.009498 0.000000 0.007875 0.000000
# 2 -0.003810 0.009323 -0.003682 0.000000 -0.002763 0.000000
# 3 -0.009498 -0.003682 0.021774 0.000000 -0.000848 0.000000
# 4 0.000000 0.000000 0.000000 0.083868 0.000000 -0.095205
# 5 0.007875 -0.002763 -0.000848 0.000000 0.031663 0.000000
# 6 0.000000 0.000000 0.000000 -0.095205 0.000000 0.167316
#
#
# Mechanical properties :
#
#
# Convention : Reuss Voigt Hill
#
# Bulk Modulus (GPa) = 46.49506 53.74088 50.11797
# Shear Modulus (GPa) = 13.17577 27.79950 20.48763
#
# Velocity S-wave (km/s) = 2.30982 3.35513 2.88029
# Velocity P-wave (km/s) = 5.09323 6.06387 5.59962
#
# Compressibility (1/GPa) = 0.02150766
#
# Stress axis : x y z
#
# Youngs Moduli (GPa) = 40.99867 107.26240 45.92680
#
# Poissons Ratio (x) = 0.40868 0.43620
# Poissons Ratio (y) = 0.15621 0.16911
# Poissons Ratio (z) = 0.38939 0.39497
#
# Static dielectric constant tensor:
#      x y z
#    x 2.108430 0.000000 0.037510 
#    y 0.000000 1.997690 0.000000 
#    z 0.037510 0.000000 1.995010 
# 
# From -- ./inp_files/180986.got.cif
#   From: 2010.05.17/outbox.cif.g08.bks.cpg/sg15_91_cif.got.tgz:180986.got - 2010.06.03 18:47:42.
