data_PCOD9290500
_publ_section_title
;
Structure prediction by ZEFSAII (Michael W. Deem and Ramdas Pophale) SiO2 
 PCOD9290500
Probable space group: C 2/C
;
_chemical_formula_sum "Si O2"
_cell_formula_units_Z 56
_cell_length_a 20.156243
_cell_length_b 12.555754
_cell_length_c 10.944041
_cell_angle_alpha 90.000000
_cell_angle_beta 96.115689
_cell_angle_gamma 90.000000
_cell_volume 2753.920393
_symmetry_space_group_name_H-M "C 2/C"
_symmetry_group_IT_number 15
_symmetry_cell_setting 'monoclinic'
loop_
_space_group_symop_operation_xyz
x,y,z
-x,y,1/2-z
-x,-y,-z
x,-y,1/2+z
1/2+x,1/2+y,z
1/2-x,1/2+y,1/2-z
1/2-x,1/2-y,-z
1/2+x,1/2-y,1/2+z
loop_
_atom_site_type_symbol
_atom_site_label
_atom_site_fract_x
_atom_site_fract_y
_atom_site_fract_z
Si Si1 0.500000 0.234999 0.250000
Si Si2 0.749018 0.832919 0.388925
Si Si3 0.171858 0.672120 0.540016
Si Si4 0.151244 0.807742 0.752531
Si Si5 0.000000 0.244389 0.250000
Si Si6 0.480534 0.121340 0.987300
Si Si7 0.285603 0.501209 0.584121
Si Si8 0.352595 0.307759 0.189941
O O1 0.501025 0.172055 0.378480
O O2 0.429736 0.295325 0.236796
O O3 0.750000 0.750000 0.500000
O O4 0.676759 0.803879 0.319347
O O5 0.806184 0.811478 0.300417
O O6 0.766205 0.945522 0.453156
O O7 0.172708 0.781036 0.619016
O O8 0.098703 0.626386 0.543860
O O9 0.224147 0.583134 0.593174
O O10 0.174153 0.711512 0.400562
O O11 0.071038 0.817819 0.749509
O O12 0.193174 0.905034 0.819586
O O13 0.992049 0.315367 0.125389
O O14 0.500000 0.000000 0.000000
O O15 0.345758 0.583498 0.611580
#
# Coordination Sequence:
#
# PCOD9290500 Si02
#       8
#     4   8   8   8   4   8   8   8
#     4  10  25  43  66  96 136 178 220 282 340 398
#     4  10  24  40  63  97 127 173 222 272 326 395
#     4  10  23  43  65  98 133 170 224 281 329 398
#     4  10  23  43  64 101 133 177 221 278 334 397
#     4  10  23  41  66  96 142 168 226 284 320 402
#     4  10  22  41  66  96 129 178 220 274 342 399
#     4  11  24  39  69  93 132 178 222 271 343 392
#     4  11  24  44  66  95 136 171 225 282 327 409
#
# _framework density 20.334648000000001
#
# number of rings (size 3 to 8) (size 9 to 14) (size 15 to 20)
#    0.000    1.714    1.429    0.857    8.000    2.857 
#    2.571    0.714    0.000    0.000    0.000    0.000 
#    0.000    0.000    0.000    0.000    0.000    0.000 
#
# Total GULP energy -155924.717247 kJ/mol
# GULP energy per Si atom -5568.739902 kJ/mol
# Density = 2.028837 g / cm^3
# Si number density = 20.334648 Si / 1000 Ang^3
#
#
#
# Elastic Constant Matrix: (Units=GPa)
#
#
# Indices 1 2 3 4 5 6 
#
# 1 142.1614 58.0461 48.3184 0.0000 17.0371 0.0000
# 2 58.0461 94.9006 38.6203 0.0000 10.2619 0.0000
# 3 48.3184 38.6203 108.6361 0.0000 3.7354 0.0000
# 4 0.0000 0.0000 0.0000 33.5787 0.0000 15.9147
# 5 17.0371 10.2619 3.7354 0.0000 40.1432 0.0000
# 6 0.0000 0.0000 0.0000 15.9147 0.0000 15.7140
#
#
#
# Elastic Compliance Matrix: (Units=1/GPa)
#
#
# Indices 1 2 3 4 5 6 
#
# 1 0.010303 -0.004871 -0.002752 0.000000 -0.002871 0.000000
# 2 -0.004871 0.014933 -0.003092 0.000000 -0.001462 0.000000
# 3 -0.002752 -0.003092 0.011498 0.000000 0.000888 0.000000
# 4 0.000000 0.000000 0.000000 0.057271 0.000000 -0.058003
# 5 -0.002871 -0.001462 0.000888 0.000000 0.026421 0.000000
# 6 0.000000 0.000000 0.000000 -0.058003 0.000000 0.122381
#
#
# Mechanical properties :
#
#
# Convention : Reuss Voigt Hill
#
# Bulk Modulus (GPa) = 65.34477 70.62973 67.98725
# Shear Modulus (GPa) = 18.56403 31.26807 24.91605
#
# Velocity S-wave (km/s) = 3.02474 3.92557 3.50423
# Velocity P-wave (km/s) = 6.66357 7.44016 7.06255
#
# Compressibility (1/GPa) = 0.01530344
#
# Stress axis : x y z
#
# Youngs Moduli (GPa) = 97.06225 66.96463 86.97447
#
# Poissons Ratio (x) = 0.32620 0.23934
# Poissons Ratio (y) = 0.47282 0.26892
# Poissons Ratio (z) = 0.26710 0.20705
#
# Static dielectric constant tensor:
#      x y z
#    x 1.721700 0.000000 0.002200 
#    y 0.000000 1.782980 0.000000 
#    z 0.002200 0.000000 1.817700 
# 
# From -- ./inp_files/111155.got.cif
#   From: 2010.05.17/outbox.cif.g08.bks.cpg/sg15_56_cif.got.tgz:111155.got - 2010.06.03 18:47:42.
