data_PCOD9290920
_publ_section_title
;
Structure prediction by ZEFSAII (Michael W. Deem and Ramdas Pophale) SiO2 
 PCOD9290920
Probable space group: C 2/C
;
_chemical_formula_sum "Si O2"
_cell_formula_units_Z 48
_cell_length_a 16.469314
_cell_length_b 30.675651
_cell_length_c 7.913617
_cell_angle_alpha 90.000000
_cell_angle_beta 145.283057
_cell_angle_gamma 90.000000
_cell_volume 2276.959469
_symmetry_space_group_name_H-M "C 2/C"
_symmetry_group_IT_number 15
_symmetry_cell_setting 'monoclinic'
loop_
_space_group_symop_operation_xyz
x,y,z
-x,y,1/2-z
-x,-y,-z
x,-y,1/2+z
1/2+x,1/2+y,z
1/2-x,1/2+y,1/2-z
1/2-x,1/2-y,-z
1/2+x,1/2-y,1/2+z
loop_
_atom_site_type_symbol
_atom_site_label
_atom_site_fract_x
_atom_site_fract_y
_atom_site_fract_z
Si Si1 0.483663 0.949978 0.019660
Si Si2 0.247114 0.383683 0.851286
Si Si3 0.993327 0.317523 0.941373
Si Si4 0.105285 0.772510 0.686914
Si Si5 0.272794 0.115590 0.583171
Si Si6 0.000000 0.151603 0.250000
Si Si7 0.500000 0.668252 0.750000
O O1 0.500000 0.945465 0.250000
O O2 0.614535 0.921506 0.170848
O O3 0.332534 0.927091 0.717574
O O4 0.500000 0.000000 0.000000
O O5 0.131620 0.346320 0.694759
O O6 0.267937 0.389932 0.684004
O O7 0.397189 0.365470 0.174661
O O8 0.000000 0.320671 0.750000
O O9 0.993422 0.267141 0.990919
O O10 0.137847 0.339751 0.255066
O O11 0.113262 0.797201 0.521734
O O12 0.038469 0.812877 0.673049
O O13 0.250000 0.750000 0.000000
O O14 0.138686 0.121023 0.475992
#
# Coordination Sequence:
#
# PCOD9290920 Si02
#       7
#     8   8   8   8   8   4   4
#     4   9  20  42  69  93 120 156 203 258 325 399
#     4  10  23  41  64  85 128 165 206 263 323 379
#     4  11  23  37  58  87 120 166 220 264 303 371
#     4  12  26  39  58  88 127 174 220 267 310 366
#     4  10  22  42  60  91 125 166 205 259 328 374
#     4  12  24  38  67  84 130 168 219 264 312 374
#     4  12  24  42  59  88 130 170 221 262 328 364
#
# _framework density 21.080742999999998
#
# number of rings (size 3 to 8) (size 9 to 14) (size 15 to 20)
#    0.000    1.333    4.167    1.500    7.000    3.333 
#    0.000    0.833    0.000    4.000    0.000    0.000 
#    0.000    0.000    0.000    0.000    0.000    0.000 
#
# Total GULP energy -133723.925533 kJ/mol
# GULP energy per Si atom -5571.830231 kJ/mol
# Density = 2.103276 g / cm^3
# Si number density = 21.080743 Si / 1000 Ang^3
#
#
#
# Elastic Constant Matrix: (Units=GPa)
#
#
# Indices 1 2 3 4 5 6 
#
# 1 71.7151 28.1749 41.1623 0.0000 34.1274 0.0000
# 2 28.1749 156.3394 46.9780 0.0000 29.1302 0.0000
# 3 41.1623 46.9780 79.1694 0.0000 27.1886 0.0000
# 4 0.0000 0.0000 0.0000 26.1480 0.0000 -1.8263
# 5 34.1274 29.1302 27.1886 0.0000 41.9613 0.0000
# 6 0.0000 0.0000 0.0000 -1.8263 0.0000 28.0910
#
#
#
# Elastic Compliance Matrix: (Units=1/GPa)
#
#
# Indices 1 2 3 4 5 6 
#
# 1 0.026372 0.000902 -0.008573 0.000000 -0.016519 0.000000
# 2 0.000902 0.008142 -0.003996 0.000000 -0.003796 0.000000
# 3 -0.008573 -0.003996 0.020724 0.000000 -0.003681 0.000000
# 4 0.000000 0.000000 0.000000 0.038418 0.000000 0.002498
# 5 -0.016519 -0.003796 -0.003681 0.000000 0.042287 0.000000
# 6 0.000000 0.000000 0.000000 0.002498 0.000000 0.035761
#
#
# Mechanical properties :
#
#
# Convention : Reuss Voigt Hill
#
# Bulk Modulus (GPa) = 31.34644 59.98380 45.66512
# Shear Modulus (GPa) = 24.31025 31.96731 28.13878
#
# Velocity S-wave (km/s) = 3.39956 3.89835 3.65747
# Velocity P-wave (km/s) = 5.50557 6.98419 6.28849
#
# Compressibility (1/GPa) = 0.03190155
#
# Stress axis : x y z
#
# Youngs Moduli (GPa) = 37.91939 122.81901 48.25273
#
# Poissons Ratio (x) = -0.11072 0.41368
# Poissons Ratio (y) = -0.03418 0.19284
# Poissons Ratio (z) = 0.32509 0.49084
#
# Static dielectric constant tensor:
#      x y z
#    x 1.942430 0.000000 -0.130400 
#    y 0.000000 1.722510 0.000000 
#    z -0.130400 0.000000 1.911030 
# 
# From -- ./inp_files/52904.got.cif
#   From: 2010.05.17/outbox.cif.g08.bks.cpg/sg15_27_cif.got.tgz:52904.got - 2010.06.03 18:47:42.
