data_PCOD9290545
_publ_section_title
;
Structure prediction by ZEFSAII (Michael W. Deem and Ramdas Pophale) SiO2 
 PCOD9290545
Probable space group: C 2/C
;
_chemical_formula_sum "Si O2"
_cell_formula_units_Z 64
_cell_length_a 14.650939
_cell_length_b 13.350853
_cell_length_c 12.789527
_cell_angle_alpha 90.000000
_cell_angle_beta 82.843906
_cell_angle_gamma 90.000000
_cell_volume 2482.177048
_symmetry_space_group_name_H-M "C 2/C"
_symmetry_group_IT_number 15
_symmetry_cell_setting 'monoclinic'
loop_
_space_group_symop_operation_xyz
x,y,z
-x,y,1/2-z
-x,-y,-z
x,-y,1/2+z
1/2+x,1/2+y,z
1/2-x,1/2+y,1/2-z
1/2-x,1/2-y,-z
1/2+x,1/2-y,1/2+z
loop_
_atom_site_type_symbol
_atom_site_label
_atom_site_fract_x
_atom_site_fract_y
_atom_site_fract_z
Si Si1 0.871930 0.539267 0.124276
Si Si2 0.160519 0.735576 0.693114
Si Si3 0.671984 0.623980 0.857364
Si Si4 0.948614 0.104417 0.428831
Si Si5 0.319176 0.568054 0.884281
Si Si6 0.863081 0.182652 0.073730
Si Si7 0.847913 0.506167 0.847478
Si Si8 0.537835 0.879089 0.501841
O O1 0.769881 0.504551 0.109218
O O2 0.864413 0.564021 0.245846
O O3 0.936970 0.440468 0.105634
O O4 0.931771 0.617770 0.050739
O O5 0.263272 0.721436 0.632296
O O6 0.095766 0.810594 0.639584
O O7 0.172925 0.771702 0.811711
O O8 0.123500 0.621391 0.683160
O O9 0.663595 0.615815 0.732746
O O10 0.738911 0.528751 0.876504
O O11 0.587811 0.623847 0.948166
O O12 0.058005 0.104218 0.404088
O O13 0.905673 0.000858 0.397038
O O14 0.304170 0.643162 0.983971
O O15 0.923502 0.270464 0.013654
O O16 0.900679 0.447220 0.928987
#
# Coordination Sequence:
#
# PCOD9290545 Si02
#       8
#     8   8   8   8   8   8   8   8
#     4  10  22  41  67 106 140 181 236 296 375 434
#     4  10  24  46  76 107 142 193 248 303 378 449
#     4   9  23  47  71 110 145 183 247 304 374 448
#     4  12  26  45  76 103 148 198 250 310 366 442
#     4  11  26  50  70 103 150 199 248 315 369 450
#     4  12  27  48  73 110 148 202 255 306 376 456
#     4   9  20  43  69 102 146 183 230 301 368 457
#     4  11  22  39  72 106 144 181 235 308 370 442
#
# _framework density 25.783816999999999
#
# number of rings (size 3 to 8) (size 9 to 14) (size 15 to 20)
#    0.750    0.750    1.250    2.250    5.250    4.500 
#   11.250    0.000    0.000    0.000    0.000    0.000 
#    0.000    0.000    0.000    0.000    0.000    0.000 
#
# Total GULP energy -178870.956722 kJ/mol
# GULP energy per Si atom -5589.717398 kJ/mol
# Density = 2.572513 g / cm^3
# Si number density = 25.783817 Si / 1000 Ang^3
#
#
#
# Elastic Constant Matrix: (Units=GPa)
#
#
# Indices 1 2 3 4 5 6 
#
# 1 81.2532 11.3343 26.6546 0.0000 -7.5612 0.0000
# 2 11.3343 63.6638 25.0832 0.0000 9.2126 0.0000
# 3 26.6546 25.0832 146.0398 0.0000 -0.8843 0.0000
# 4 0.0000 0.0000 0.0000 40.5122 0.0000 3.4732
# 5 -7.5612 9.2126 -0.8843 0.0000 27.0056 0.0000
# 6 0.0000 0.0000 0.0000 3.4732 0.0000 39.4892
#
#
#
# Elastic Compliance Matrix: (Units=1/GPa)
#
#
# Indices 1 2 3 4 5 6 
#
# 1 0.013734 -0.002282 -0.002087 0.000000 0.004556 0.000000
# 2 -0.002282 0.018202 -0.002752 0.000000 -0.006938 0.000000
# 3 -0.002087 -0.002752 0.007705 0.000000 0.000607 0.000000
# 4 0.000000 0.000000 0.000000 0.024871 0.000000 -0.002188
# 5 0.004556 -0.006938 0.000607 0.000000 0.040692 0.000000
# 6 0.000000 0.000000 0.000000 -0.002188 0.000000 0.025516
#
#
# Mechanical properties :
#
#
# Convention : Reuss Voigt Hill
#
# Bulk Modulus (GPa) = 39.37182 46.34454 42.85818
# Shear Modulus (GPa) = 32.58855 36.59371 34.59113
#
# Velocity S-wave (km/s) = 3.55901 3.77138 3.66674
# Velocity P-wave (km/s) = 5.67379 6.08093 5.88089
#
# Compressibility (1/GPa) = 0.02539888
#
# Stress axis : x y z
#
# Youngs Moduli (GPa) = 72.81126 54.93889 129.79083
#
# Poissons Ratio (x) = 0.12537 0.27089
# Poissons Ratio (y) = 0.16616 0.35716
# Poissons Ratio (z) = 0.15197 0.15118
#
# Static dielectric constant tensor:
#      x y z
#    x 2.059630 0.000000 0.007180 
#    y 0.000000 2.120860 0.000000 
#    z 0.007180 0.000000 2.069060 
# 
# From -- ./inp_files/98769.got.cif
#   From: 2010.05.17/outbox.cif.g08.bks.cpg/sg15_50_cif.got.tgz:98769.got - 2010.06.03 18:47:42.
