data_PCOD9290445
_publ_section_title
;
Structure prediction by ZEFSAII (Michael W. Deem and Ramdas Pophale) SiO2 
 PCOD9290445
Probable space group: C 2/C
;
_chemical_formula_sum "Si O2"
_cell_formula_units_Z 40
_cell_length_a 14.502316
_cell_length_b 14.022872
_cell_length_c 12.810919
_cell_angle_alpha 90.000000
_cell_angle_beta 141.007617
_cell_angle_gamma 90.000000
_cell_volume 1639.287455
_symmetry_space_group_name_H-M "C 2/C"
_symmetry_group_IT_number 15
_symmetry_cell_setting 'monoclinic'
loop_
_space_group_symop_operation_xyz
x,y,z
-x,y,1/2-z
-x,-y,-z
x,-y,1/2+z
1/2+x,1/2+y,z
1/2-x,1/2+y,1/2-z
1/2-x,1/2-y,-z
1/2+x,1/2-y,1/2+z
loop_
_atom_site_type_symbol
_atom_site_label
_atom_site_fract_x
_atom_site_fract_y
_atom_site_fract_z
Si Si1 0.895732 0.073792 0.018380
Si Si2 0.500000 0.724251 0.250000
Si Si3 0.000000 0.538564 0.250000
Si Si4 0.580881 0.888970 0.165595
Si Si5 0.496831 0.364670 0.102478
Si Si6 0.673151 0.173222 0.528175
O O1 0.883156 0.150232 0.099723
O O2 0.739202 0.065436 0.826920
O O3 0.997442 0.120227 0.018096
O O4 0.953744 0.970718 0.100936
O O5 0.561261 0.792156 0.213848
O O6 0.018633 0.466034 0.363831
O O7 0.132344 0.611258 0.390608
O O8 0.572913 0.865931 0.037104
O O9 0.659571 0.337012 0.286090
O O10 0.385151 0.280987 0.034132
#
# Coordination Sequence:
#
# PCOD9290445 Si02
#       6
#     8   4   4   8   8   8
#     4  10  22  41  66 103 133 174 222 277 334 400
#     4  11  20  39  70 102 132 175 224 279 330 398
#     4  11  26  41  68 102 130 181 224 273 340 404
#     4  10  23  44  66 101 132 176 225 283 329 391
#     4  10  24  44  69  98 136 181 217 276 341 393
#     4  11  24  47  68  97 138 178 223 280 332 402
#
# _framework density 24.400843999999999
#
# number of rings (size 3 to 8) (size 9 to 14) (size 15 to 20)
#    0.000    1.600    2.000    1.200    5.600    1.600 
#    3.600    0.000    0.000    0.000    0.000    0.000 
#    0.000    0.000    0.000    0.000    0.000    0.000 
#
# Total GULP energy -111743.931107 kJ/mol
# GULP energy per Si atom -5587.196555 kJ/mol
# Density = 2.434531 g / cm^3
# Si number density = 24.400844 Si / 1000 Ang^3
#
#
#
# Elastic Constant Matrix: (Units=GPa)
#
#
# Indices 1 2 3 4 5 6 
#
# 1 47.1492 50.8134 0.3876 0.0000 -17.3198 0.0000
# 2 50.8134 217.0672 62.0725 0.0000 0.4445 0.0000
# 3 0.3876 62.0725 75.8435 0.0000 0.5854 0.0000
# 4 0.0000 0.0000 0.0000 15.5631 0.0000 -23.7880
# 5 -17.3198 0.4445 0.5854 0.0000 40.8802 0.0000
# 6 0.0000 0.0000 0.0000 -23.7880 0.0000 28.0931
#
#
#
# Elastic Compliance Matrix: (Units=1/GPa)
#
#
# Indices 1 2 3 4 5 6 
#
# 1 0.040852 -0.012403 0.009809 0.000000 0.017302 0.000000
# 2 -0.012403 0.009780 -0.007901 0.000000 -0.005248 0.000000
# 3 0.009809 -0.007901 0.019570 0.000000 0.003961 0.000000
# 4 0.000000 0.000000 0.000000 -0.218360 0.000000 -0.184898
# 5 0.017302 -0.005248 0.003961 0.000000 0.031792 0.000000
# 6 0.000000 0.000000 0.000000 -0.184898 0.000000 -0.120967
#
#
# Mechanical properties :
#
#
# Convention : Reuss Voigt Hill
#
# Bulk Modulus (GPa) = 20.32007 62.95633 41.63820
# Shear Modulus (GPa) = -25.00779 32.02635 3.50928
#
# Velocity S-wave (km/s) = -3.20484 3.62679 1.20054
# Velocity P-wave (km/s) = 2.31278 6.58749 4.36154
#
# Compressibility (1/GPa) = 0.04921242
#
# Stress axis : x y z
#
# Youngs Moduli (GPa) = 24.47874 102.24513 51.09739
#
# Poissons Ratio (x) = 1.26819 -0.50121
# Poissons Ratio (y) = 0.30362 0.40370
# Poissons Ratio (z) = -0.24011 0.80780
#
# Static dielectric constant tensor:
#      x y z
#    x 2.149500 0.000000 -0.018810 
#    y 0.000000 1.900770 0.000000 
#    z -0.018810 0.000000 1.903120 
# 
# From -- ./inp_files/70225.got.cif
#   From: 2010.05.17/outbox.cif.g08.bks.cpg/sg15_36_cif.got.tgz:70225.got - 2010.06.03 18:47:42.
