data_PCOD9290940
_publ_section_title
;
Structure prediction by ZEFSAII (Michael W. Deem and Ramdas Pophale) SiO2 
 PCOD9290940
Probable space group: C 2/C
;
_chemical_formula_sum "Si O2"
_cell_formula_units_Z 64
_cell_length_a 20.457721
_cell_length_b 26.239801
_cell_length_c 14.479550
_cell_angle_alpha 90.000000
_cell_angle_beta 157.949138
_cell_angle_gamma 90.000000
_cell_volume 2918.107363
_symmetry_space_group_name_H-M "C 2/C"
_symmetry_group_IT_number 15
_symmetry_cell_setting 'monoclinic'
loop_
_space_group_symop_operation_xyz
x,y,z
-x,y,1/2-z
-x,-y,-z
x,-y,1/2+z
1/2+x,1/2+y,z
1/2-x,1/2+y,1/2-z
1/2-x,1/2-y,-z
1/2+x,1/2-y,1/2+z
loop_
_atom_site_type_symbol
_atom_site_label
_atom_site_fract_x
_atom_site_fract_y
_atom_site_fract_z
Si Si1 0.367334 0.371652 0.321797
Si Si2 0.528496 0.200378 0.896950
Si Si3 0.369496 0.544445 0.300274
Si Si4 0.508681 0.170552 0.373158
Si Si5 0.987166 0.416990 0.119463
Si Si6 0.701182 0.485132 0.992807
Si Si7 0.814030 0.101935 0.542389
Si Si8 0.578342 0.268507 0.582735
O O1 0.510161 0.406087 0.559834
O O2 0.331576 0.398465 0.176580
O O3 0.448333 0.315992 0.411802
O O4 0.181034 0.361877 0.123431
O O5 0.500000 0.205991 0.750000
O O6 0.490075 0.142250 0.874673
O O7 0.422533 0.240534 0.819094
O O8 0.729243 0.211283 0.183191
O O9 0.500000 0.500000 0.500000
O O10 0.285997 0.521627 0.099769
O O11 0.208353 0.561595 0.153473
O O12 0.500000 0.174550 0.250000
O O13 0.522867 0.225699 0.437079
O O14 0.339146 0.140157 0.182913
O O15 0.000000 0.416684 0.250000
O O16 0.136541 0.450241 0.264740
O O17 0.500000 0.469875 0.750000
O O18 0.717937 0.544838 0.035972
O O19 0.000000 0.120079 0.750000
#
# Coordination Sequence:
#
# PCOD9290940 Si02
#       8
#     8   8   8   8   8   8   8   8
#     4  11  23  40  63  96 129 168 220 264 321 396
#     4  11  24  45  66  96 130 173 220 272 331 390
#     4  11  21  37  64  90 124 168 208 262 319 381
#     4  10  25  43  65  98 133 176 219 269 328 386
#     4   9  21  39  65  90 122 170 213 258 326 390
#     4  10  22  42  61  94 128 167 212 267 325 385
#     4  10  23  40  65  93 132 172 213 265 326 385
#     4  12  24  44  67  96 135 168 224 271 323 393
#
# _framework density 21.932023000000001
#
# number of rings (size 3 to 8) (size 9 to 14) (size 15 to 20)
#    0.000    1.500    3.750    0.375    3.500    5.000 
#    0.000    0.625    0.000    0.000    0.000    0.000 
#    0.000    0.000    0.000    0.000    0.000    0.000 
#
# Total GULP energy -178782.015880 kJ/mol
# GULP energy per Si atom -5586.937996 kJ/mol
# Density = 2.188210 g / cm^3
# Si number density = 21.932023 Si / 1000 Ang^3
#
#
#
# Elastic Constant Matrix: (Units=GPa)
#
#
# Indices 1 2 3 4 5 6 
#
# 1 45.9399 31.0948 10.2200 0.0000 4.1514 0.0000
# 2 31.0948 131.8906 79.3850 0.0000 26.8897 0.0000
# 3 10.2200 79.3850 117.3965 0.0000 30.0638 0.0000
# 4 0.0000 0.0000 0.0000 7.2765 0.0000 1.7557
# 5 4.1514 26.8897 30.0638 0.0000 37.2748 0.0000
# 6 0.0000 0.0000 0.0000 1.7557 0.0000 20.1838
#
#
#
# Elastic Compliance Matrix: (Units=1/GPa)
#
#
# Indices 1 2 3 4 5 6 
#
# 1 0.026622 -0.008270 0.003159 0.000000 0.000453 0.000000
# 2 -0.008270 0.015598 -0.009051 0.000000 -0.003031 0.000000
# 3 0.003159 -0.009051 0.016109 0.000000 -0.006815 0.000000
# 4 0.000000 0.000000 0.000000 0.140374 0.000000 -0.012210
# 5 0.000453 -0.003031 -0.006815 0.000000 0.034460 0.000000
# 6 0.000000 0.000000 0.000000 -0.012210 0.000000 0.050607
#
#
# Mechanical properties :
#
#
# Convention : Reuss Voigt Hill
#
# Bulk Modulus (GPa) = 33.33013 59.62518 46.47765
# Shear Modulus (GPa) = 15.52335 24.58219 20.05277
#
# Velocity S-wave (km/s) = 2.66333 3.35152 3.02704
# Velocity P-wave (km/s) = 4.96868 6.49787 5.78403
#
# Compressibility (1/GPa) = 0.03000289
#
# Stress axis : x y z
#
# Youngs Moduli (GPa) = 37.56360 64.11240 62.07734
#
# Poissons Ratio (x) = 0.53020 -0.19608
# Poissons Ratio (y) = 0.31065 0.56188
# Poissons Ratio (z) = -0.11865 0.58030
#
# Static dielectric constant tensor:
#      x y z
#    x 1.857160 0.000000 0.015390 
#    y 0.000000 1.772980 0.000000 
#    z 0.015390 0.000000 1.896670 
# 
# From -- ./inp_files/220275.got.cif
#   From: 2010.05.17/outbox.cif.g08.bks.cpg/sg15_111_cif.got.tgz:220275.got - 2010.06.03 18:47:42.
