data_PCOD9290955
_publ_section_title
;
Structure prediction by ZEFSAII (Michael W. Deem and Ramdas Pophale) SiO2 
 PCOD9290955
Probable space group: C 2/C
;
_chemical_formula_sum "Si O2"
_cell_formula_units_Z 36
_cell_length_a 11.886459
_cell_length_b 8.493230
_cell_length_c 14.138645
_cell_angle_alpha 90.000000
_cell_angle_beta 115.306001
_cell_angle_gamma 90.000000
_cell_volume 1290.386332
_symmetry_space_group_name_H-M "C 2/C"
_symmetry_group_IT_number 15
_symmetry_cell_setting 'monoclinic'
loop_
_space_group_symop_operation_xyz
x,y,z
-x,y,1/2-z
-x,-y,-z
x,-y,1/2+z
1/2+x,1/2+y,z
1/2-x,1/2+y,1/2-z
1/2-x,1/2-y,-z
1/2+x,1/2-y,1/2+z
loop_
_atom_site_type_symbol
_atom_site_label
_atom_site_fract_x
_atom_site_fract_y
_atom_site_fract_z
Si Si1 0.000000 0.942701 0.750000
Si Si2 0.487660 0.878119 0.350991
Si Si3 0.305021 0.937251 0.914052
Si Si4 0.128485 0.879129 0.143253
Si Si5 0.843755 0.113402 0.503343
O O1 0.015396 0.805982 0.673240
O O2 0.902494 0.067852 0.763238
O O3 0.500000 0.954409 0.250000
O O4 0.600060 0.917319 0.462918
O O5 0.367233 0.940088 0.364045
O O6 0.292485 0.774321 0.853165
O O7 0.180002 0.983665 0.923717
O O8 0.183268 0.022779 0.102686
O O9 0.987850 0.838136 0.054892
O O10 0.750000 0.250000 0.500000
#
# Coordination Sequence:
#
# PCOD9290955 Si02
#       5
#     4   8   8   8   8
#     4  10  22  42  62 102 142 176 222 284 344 396
#     4   9  21  40  70 100 139 174 223 291 334 398
#     4  11  21  43  73  99 132 185 231 273 347 408
#     4  11  24  42  68 100 142 175 222 292 332 406
#     4  11  23  43  70 101 131 185 226 273 352 404
#
# _framework density 27.898620999999999
#
# number of rings (size 3 to 8) (size 9 to 14) (size 15 to 20)
#    0.667    0.889    0.000    7.333    1.556    0.000 
#    4.000    0.000    0.000    0.000    0.000    0.000 
#    0.000    0.000    0.000    0.000    0.000    0.000 
#
# Total GULP energy -100750.119525 kJ/mol
# GULP energy per Si atom -5597.228863 kJ/mol
# Density = 2.783512 g / cm^3
# Si number density = 27.898621 Si / 1000 Ang^3
#
#
#
# Elastic Constant Matrix: (Units=GPa)
#
#
# Indices 1 2 3 4 5 6 
#
# 1 165.9346 71.5914 48.7231 0.0000 -43.8624 0.0000
# 2 71.5914 144.3569 26.7428 0.0000 -23.6347 0.0000
# 3 48.7231 26.7428 132.6315 0.0000 -49.8004 0.0000
# 4 0.0000 0.0000 0.0000 158.6451 0.0000 -137.1686
# 5 -43.8624 -23.6347 -49.8004 0.0000 62.7195 0.0000
# 6 0.0000 0.0000 0.0000 -137.1686 0.0000 180.3671
#
#
#
# Elastic Compliance Matrix: (Units=1/GPa)
#
#
# Indices 1 2 3 4 5 6 
#
# 1 0.008957 -0.003580 -0.001030 0.000000 0.004097 0.000000
# 2 -0.003580 0.008851 -0.000224 0.000000 0.000654 0.000000
# 3 -0.001030 -0.000224 0.010915 0.000000 0.007862 0.000000
# 4 0.000000 0.000000 0.000000 0.018406 0.000000 0.013998
# 5 0.004097 0.000654 0.007862 0.000000 0.025298 0.000000
# 6 0.000000 0.000000 0.000000 0.013998 0.000000 0.016190
#
#
# Mechanical properties :
#
#
# Convention : Reuss Voigt Hill
#
# Bulk Modulus (GPa) = 52.48149 81.89308 67.18728
# Shear Modulus (GPa) = 47.78389 100.07070 73.92730
#
# Velocity S-wave (km/s) = 4.14305 5.99560 5.15326
# Velocity P-wave (km/s) = 6.46056 8.79473 7.71641
#
# Compressibility (1/GPa) = 0.01905434
#
# Stress axis : x y z
#
# Youngs Moduli (GPa) = 111.65063 112.97655 91.61395
#
# Poissons Ratio (x) = 0.40449 0.09438
# Poissons Ratio (y) = 0.39974 0.02052
# Poissons Ratio (z) = 0.11502 0.02531
#
# Static dielectric constant tensor:
#      x y z
#    x 1.699710 0.000000 -0.792210 
#    y 0.000000 2.164580 0.000000 
#    z -0.792210 0.000000 0.265410 
# 
# From -- ./inp_files/195292.got.cif
#   From: 2010.05.17/outbox.cif.g08.bks.cpg/sg15_98_cif.got.tgz:195292.got - 2010.06.03 18:47:42.
