data_PCOD9290222
_publ_section_title
;
Structure prediction by ZEFSAII (Michael W. Deem and Ramdas Pophale) SiO2 
 PCOD9290222
Probable space group: C 2/C
;
_chemical_formula_sum "Si O2"
_cell_formula_units_Z 60
_cell_length_a 25.286167
_cell_length_b 15.040718
_cell_length_c 12.704673
_cell_angle_alpha 90.000000
_cell_angle_beta 35.215874
_cell_angle_gamma 90.000000
_cell_volume 2786.338660
_symmetry_space_group_name_H-M "C 2/C"
_symmetry_group_IT_number 15
_symmetry_cell_setting 'monoclinic'
loop_
_space_group_symop_operation_xyz
x,y,z
-x,y,1/2-z
-x,-y,-z
x,-y,1/2+z
1/2+x,1/2+y,z
1/2-x,1/2+y,1/2-z
1/2-x,1/2-y,-z
1/2+x,1/2-y,1/2+z
loop_
_atom_site_type_symbol
_atom_site_label
_atom_site_fract_x
_atom_site_fract_y
_atom_site_fract_z
Si Si1 0.975330 0.865360 0.103407
Si Si2 0.801072 0.662397 0.622272
Si Si3 0.000000 0.724385 0.250000
Si Si4 0.673344 0.208373 0.698482
Si Si5 0.832572 0.097809 0.215426
Si Si6 0.296273 0.147766 0.255436
Si Si7 0.721456 0.450033 0.071714
Si Si8 0.488773 0.769591 0.392010
O O1 0.979425 0.787679 0.184305
O O2 0.880647 0.914564 0.280563
O O3 0.973969 0.817406 0.990522
O O4 0.062624 0.931853 0.973503
O O5 0.908990 0.668501 0.421656
O O6 0.791447 0.648060 0.763442
O O7 0.753197 0.755019 0.661797
O O8 0.753920 0.587095 0.631065
O O9 0.750000 0.250000 0.500000
O O10 0.647520 0.297931 0.804310
O O11 0.582473 0.183929 0.781770
O O12 0.761542 0.093088 0.236375
O O13 0.788417 0.054875 0.391244
O O14 0.286265 0.093529 0.379417
O O15 0.400127 0.168489 0.053581
O O16 0.500000 0.748491 0.250000
#
# Coordination Sequence:
#
# PCOD9290222 Si02
#       8
#     8   8   4   8   8   8   8   8
#     4  11  20  37  62  93 127 163 206 258 316 375
#     4  11  21  35  63  90 120 162 209 257 305 365
#     4  12  18  38  64  90 126 162 212 264 312 354
#     4  10  22  41  64  86 120 163 206 264 313 365
#     4  10  23  40  56  90 132 163 196 258 331 369
#     4  11  21  40  62  89 122 167 208 262 313 368
#     4  12  23  36  63  94 127 163 211 258 311 393
#     4  11  21  37  65  94 116 159 217 260 306 369
#
# _framework density 21.533633999999999
#
# number of rings (size 3 to 8) (size 9 to 14) (size 15 to 20)
#    0.000    1.067    6.667    3.200    0.000    1.067 
#    2.400    0.000    5.867    4.000    0.000    0.000 
#    0.000    0.000    0.000    0.000    0.000    0.000 
#
# Total GULP energy -167378.127042 kJ/mol
# GULP energy per Si atom -5579.270901 kJ/mol
# Density = 2.148462 g / cm^3
# Si number density = 21.533634 Si / 1000 Ang^3
#
#
#
# Elastic Constant Matrix: (Units=GPa)
#
#
# Indices 1 2 3 4 5 6 
#
# 1 121.6683 16.5665 43.4328 0.0000 0.2339 0.0000
# 2 16.5665 34.7703 2.5507 0.0000 3.0218 0.0000
# 3 43.4328 2.5507 120.0555 0.0000 -5.9161 0.0000
# 4 0.0000 0.0000 0.0000 14.5828 0.0000 5.1901
# 5 0.2339 3.0218 -5.9161 0.0000 48.5479 0.0000
# 6 0.0000 0.0000 0.0000 5.1901 0.0000 7.9478
#
#
#
# Elastic Compliance Matrix: (Units=1/GPa)
#
#
# Indices 1 2 3 4 5 6 
#
# 1 0.010113 -0.004539 -0.003572 0.000000 -0.000202 0.000000
# 2 -0.004539 0.031013 0.000894 0.000000 -0.001800 0.000000
# 3 -0.003572 0.000894 0.009659 0.000000 0.001139 0.000000
# 4 0.000000 0.000000 0.000000 0.089337 0.000000 -0.058339
# 5 -0.000202 -0.001800 0.001139 0.000000 0.020850 0.000000
# 6 0.000000 0.000000 0.000000 -0.058339 0.000000 0.163917
#
#
# Mechanical properties :
#
#
# Convention : Reuss Voigt Hill
#
# Bulk Modulus (GPa) = 27.50854 44.62156 36.06505
# Shear Modulus (GPa) = 14.22722 28.47864 21.35293
#
# Velocity S-wave (km/s) = 2.57319 3.64059 3.15240
# Velocity P-wave (km/s) = 4.65090 6.19989 5.48040
#
# Compressibility (1/GPa) = 0.03635234
#
# Stress axis : x y z
#
# Youngs Moduli (GPa) = 98.88716 32.24415 103.53233
#
# Poissons Ratio (x) = 0.14634 0.36981
# Poissons Ratio (y) = 0.44881 -0.09259
# Poissons Ratio (z) = 0.35322 -0.02884
#
# Static dielectric constant tensor:
#      x y z
#    x 1.842790 0.000000 -0.026310 
#    y 0.000000 1.820920 0.000000 
#    z -0.026310 0.000000 1.841250 
# 
# From -- ./inp_files/119442.got.cif
#   From: 2010.05.17/outbox.cif.g08.bks.cpg/sg15_60_cif.got.tgz:119442.got - 2010.06.03 18:47:42.
