data_PCOD9290898
_publ_section_title
;
Structure prediction by ZEFSAII (Michael W. Deem and Ramdas Pophale) SiO2 
 PCOD9290898
Probable space group: C 2/C
;
_chemical_formula_sum "Si O2"
_cell_formula_units_Z 36
_cell_length_a 15.641355
_cell_length_b 8.978459
_cell_length_c 29.058042
_cell_angle_alpha 90.000000
_cell_angle_beta 151.676712
_cell_angle_gamma 90.000000
_cell_volume 1936.106985
_symmetry_space_group_name_H-M "C 2/C"
_symmetry_group_IT_number 15
_symmetry_cell_setting 'monoclinic'
loop_
_space_group_symop_operation_xyz
x,y,z
-x,y,1/2-z
-x,-y,-z
x,-y,1/2+z
1/2+x,1/2+y,z
1/2-x,1/2+y,1/2-z
1/2-x,1/2-y,-z
1/2+x,1/2-y,1/2+z
loop_
_atom_site_type_symbol
_atom_site_label
_atom_site_fract_x
_atom_site_fract_y
_atom_site_fract_z
Si Si1 0.358685 0.591031 0.463783
Si Si2 0.500000 0.215548 0.250000
Si Si3 0.581438 0.489056 0.740298
Si Si4 0.211865 0.922962 0.974526
Si Si5 0.989014 0.419246 0.945261
O O1 0.500000 0.500000 0.500000
O O2 0.320686 0.502516 0.492491
O O3 0.444468 0.751176 0.516452
O O4 0.169923 0.622632 0.348240
O O5 0.433078 0.332201 0.257760
O O6 0.500000 0.426909 0.750000
O O7 0.458936 0.444359 0.639777
O O8 0.784440 0.434967 0.831840
O O9 0.250000 0.750000 0.000000
O O10 0.377701 0.999319 0.026609
O O11 0.000000 0.500000 0.000000
#
# Coordination Sequence:
#
# PCOD9290898 Si02
#       5
#     8   4   8   8   8
#     4  12  27  44  72 103 141 179 234 289 341 410
#     4  10  22  44  74  96 138 186 230 278 354 404
#     4  10  22  41  77  95 135 186 226 275 356 406
#     4  12  27  44  69 106 138 179 230 284 344 413
#     4  12  21  44  72  98 138 179 226 286 341 407
#
# _framework density 18.594014000000001
#
# number of rings (size 3 to 8) (size 9 to 14) (size 15 to 20)
#    0.667    0.000    6.667    2.000    0.000    5.333 
#    0.000    0.000    0.000    0.000    0.000    0.000 
#    0.000    0.000    0.000    0.000    0.000    0.000 
#
# Total GULP energy -100595.499079 kJ/mol
# GULP energy per Si atom -5588.638838 kJ/mol
# Density = 1.855169 g / cm^3
# Si number density = 18.594014 Si / 1000 Ang^3
#
#
#
# Elastic Constant Matrix: (Units=GPa)
#
#
# Indices 1 2 3 4 5 6 
#
# 1 178.4194 102.5171 91.8189 0.0000 6.8066 -0.0001
# 2 102.5171 177.6512 89.6952 0.0000 -0.0027 0.0000
# 3 91.8189 89.6952 244.4817 -0.0005 13.5292 -0.0001
# 4 0.0000 0.0000 -0.0005 -16.1331 0.0000 5.6987
# 5 6.8066 -0.0027 13.5292 0.0000 39.6246 -0.0001
# 6 -0.0001 0.0000 -0.0001 5.6987 -0.0001 40.4208
#
#
#
# Elastic Compliance Matrix: (Units=1/GPa)
#
#
# Indices 1 2 3 4 5 6 
#
# 1 0.009028 -0.004326 -0.001751 0.000000 -0.000953 0.000000
# 2 -0.004326 0.009012 -0.001756 0.000000 0.001343 0.000000
# 3 -0.001751 -0.001756 0.005479 0.000000 -0.001570 0.000000
# 4 0.000000 0.000000 0.000000 -0.059044 0.000000 0.008324
# 5 -0.000953 0.001343 -0.001570 0.000000 0.025937 0.000000
# 6 0.000000 0.000000 0.000000 0.008324 0.000000 0.023566
#
#
# Mechanical properties :
#
#
# Convention : Reuss Voigt Hill
#
# Bulk Modulus (GPa) = 127.33026 129.84607 128.58817
# Shear Modulus (GPa) = 154.99184 33.88386 94.43785
#
# Velocity S-wave (km/s) = 9.13984 4.27347 7.13440
# Velocity P-wave (km/s) = 13.41679 9.71256 11.71205
#
# Compressibility (1/GPa) = 0.00785359
#
# Stress axis : x y z
#
# Youngs Moduli (GPa) = 110.77243 110.96548 182.51764
#
# Poissons Ratio (x) = 0.47999 0.31953
# Poissons Ratio (y) = 0.47916 0.32051
# Poissons Ratio (z) = 0.19393 0.19486
#
# Static dielectric constant tensor:
#      x y z
#    x 1.565450 0.000000 -0.108100 
#    y 0.000000 1.623980 0.000000 
#    z -0.108100 0.000000 1.390640 
# 
# From -- ./inp_files/150148.got.cif
#   From: 2010.05.17/outbox.cif.g08.bks.cpg/sg15_76_cif.got.tgz:150148.got - 2010.06.03 18:47:42.
