data_PCOD9290936
_publ_section_title
;
Structure prediction by ZEFSAII (Michael W. Deem and Ramdas Pophale) SiO2 
 PCOD9290936
Probable space group: C 2/C
;
_chemical_formula_sum "Si O2"
_cell_formula_units_Z 56
_cell_length_a 5.410136
_cell_length_b 29.980713
_cell_length_c 17.160852
_cell_angle_alpha 90.000000
_cell_angle_beta 60.343355
_cell_angle_gamma 90.000000
_cell_volume 2418.866205
_symmetry_space_group_name_H-M "C 2/C"
_symmetry_group_IT_number 15
_symmetry_cell_setting 'monoclinic'
loop_
_space_group_symop_operation_xyz
x,y,z
-x,y,1/2-z
-x,-y,-z
x,-y,1/2+z
1/2+x,1/2+y,z
1/2-x,1/2+y,1/2-z
1/2-x,1/2-y,-z
1/2+x,1/2-y,1/2+z
loop_
_atom_site_type_symbol
_atom_site_label
_atom_site_fract_x
_atom_site_fract_y
_atom_site_fract_z
Si Si1 0.171991 0.379383 0.071225
Si Si2 0.079637 0.753259 0.348081
Si Si3 0.500000 0.172504 0.750000
Si Si4 0.000000 0.675667 0.250000
Si Si5 0.161123 0.455853 0.309820
Si Si6 0.024212 0.295336 0.494646
Si Si7 0.662839 0.941745 0.808322
Si Si8 0.237400 0.369788 0.575896
O O1 0.115604 0.358739 0.164621
O O2 0.963670 0.421496 0.107172
O O3 0.126567 0.335182 0.026416
O O4 0.485652 0.394183 0.998861
O O5 0.242195 0.792985 0.280652
O O6 0.136719 0.708981 0.290489
O O7 0.155988 0.739646 0.425547
O O8 0.752745 0.768707 0.407796
O O9 0.229608 0.647255 0.166442
O O10 0.500000 0.447436 0.250000
O O11 0.121828 0.507207 0.341438
O O12 0.000000 0.451535 0.250000
O O13 0.201056 0.325418 0.529750
O O14 0.500000 0.939446 0.750000
O O15 0.524698 0.904145 0.884713
O O16 0.000000 0.934201 0.750000
#
# Coordination Sequence:
#
# PCOD9290936 Si02
#       8
#     8   8   4   4   8   8   8   8
#     4  12  26  40  69 101 138 184 233 295 348 425
#     4  10  22  42  61  92 132 187 235 291 348 408
#     4  12  24  40  65  92 130 190 235 280 356 408
#     4  10  22  42  67  90 136 180 233 288 354 410
#     4  10  24  46  75 105 142 186 233 285 350 429
#     4  10  24  42  62  94 139 172 241 293 344 412
#     4  10  23  47  76 105 140 185 233 285 352 431
#     4  11  24  43  67 106 135 176 236 287 355 420
#
# _framework density 23.151342
#
# number of rings (size 3 to 8) (size 9 to 14) (size 15 to 20)
#    0.000    1.429    2.857    0.857    8.000    1.143 
#    2.571    0.714    0.000    0.000    0.000    0.000 
#    0.000    0.000    0.000    0.000    0.000    0.000 
#
# Total GULP energy -156286.819690 kJ/mol
# GULP energy per Si atom -5581.672132 kJ/mol
# Density = 2.309865 g / cm^3
# Si number density = 23.151342 Si / 1000 Ang^3
#
#
#
# Elastic Constant Matrix: (Units=GPa)
#
#
# Indices 1 2 3 4 5 6 
#
# 1 86.3985 27.0694 36.4814 0.0000 -20.9358 0.0000
# 2 27.0694 138.8688 40.9203 0.0000 -30.1716 0.0000
# 3 36.4814 40.9203 124.9081 0.0000 -24.7396 0.0000
# 4 0.0000 0.0000 0.0000 20.2089 0.0000 -16.0942
# 5 -20.9358 -30.1716 -24.7396 0.0000 33.2585 0.0000
# 6 0.0000 0.0000 0.0000 -16.0942 0.0000 15.6059
#
#
#
# Elastic Compliance Matrix: (Units=1/GPa)
#
#
# Indices 1 2 3 4 5 6 
#
# 1 0.014507 -0.000596 -0.002744 0.000000 0.006550 0.000000
# 2 -0.000596 0.009259 -0.001489 0.000000 0.006916 0.000000
# 3 -0.002744 -0.001489 0.010186 0.000000 0.004499 0.000000
# 4 0.000000 0.000000 0.000000 0.276921 0.000000 0.285586
# 5 0.006550 0.006916 0.004499 0.000000 0.043811 0.000000
# 6 0.000000 0.000000 0.000000 0.285586 0.000000 0.358599
#
#
# Mechanical properties :
#
#
# Convention : Reuss Voigt Hill
#
# Bulk Modulus (GPa) = 41.16487 62.12417 51.64452
# Shear Modulus (GPa) = 6.83956 30.19494 18.51725
#
# Velocity S-wave (km/s) = 1.72067 3.61535 2.83120
# Velocity P-wave (km/s) = 4.66551 6.65731 5.74834
#
# Compressibility (1/GPa) = 0.02429256
#
# Stress axis : x y z
#
# Youngs Moduli (GPa) = 68.93228 108.00569 98.17083
#
# Poissons Ratio (x) = 0.06438 0.26943
# Poissons Ratio (y) = 0.04109 0.14620
# Poissons Ratio (z) = 0.18918 0.16084
#
# Static dielectric constant tensor:
#      x y z
#    x 2.076600 0.000000 0.037430 
#    y 0.000000 1.923380 0.000000 
#    z 0.037430 0.000000 1.908890 
# 
# From -- ./inp_files/186691.got.cif
#   From: 2010.05.17/outbox.cif.g08.bks.cpg/sg15_94_cif.got.tgz:186691.got - 2010.06.03 18:47:42.
