data_PCOD9290128
_publ_section_title
;
Structure prediction by ZEFSAII (Michael W. Deem and Ramdas Pophale) SiO2 
 PCOD9290128
Probable space group: C 2/C
;
_chemical_formula_sum "Si O2"
_cell_formula_units_Z 32
_cell_length_a 12.053272
_cell_length_b 16.519455
_cell_length_c 10.399876
_cell_angle_alpha 90.000000
_cell_angle_beta 38.204000
_cell_angle_gamma 90.000000
_cell_volume 1280.686221
_symmetry_space_group_name_H-M "C 2/C"
_symmetry_group_IT_number 15
_symmetry_cell_setting 'monoclinic'
loop_
_space_group_symop_operation_xyz
x,y,z
-x,y,1/2-z
-x,-y,-z
x,-y,1/2+z
1/2+x,1/2+y,z
1/2-x,1/2+y,1/2-z
1/2-x,1/2-y,-z
1/2+x,1/2-y,1/2+z
loop_
_atom_site_type_symbol
_atom_site_label
_atom_site_fract_x
_atom_site_fract_y
_atom_site_fract_z
Si Si1 0.222344 0.338024 0.392623
Si Si2 0.597569 0.098464 0.495310
Si Si3 0.905901 0.830996 0.575872
Si Si4 0.500000 0.052574 0.250000
Si Si5 0.000000 0.734131 0.750000
O O1 0.193876 0.241425 0.410610
O O2 0.164220 0.385915 0.573402
O O3 0.071038 0.367001 0.429046
O O4 0.420696 0.356844 0.162342
O O5 0.769679 0.099911 0.246734
O O6 0.640205 0.165404 0.568774
O O7 0.538269 0.013053 0.604134
O O8 0.970813 0.788384 0.650558
#
# Coordination Sequence:
#
# PCOD9290128 Si02
#       5
#     8   8   8   4   4
#     4  11  23  42  65  94 126 166 213 257 304 378
#     4  10  22  41  62  92 127 163 206 264 311 367
#     4  11  21  38  68  95 120 163 218 258 302 368
#     4  11  26  42  62  92 139 166 196 257 332 368
#     4   9  18  32  64  94 115 150 212 263 296 350
#
# _framework density 24.986604
#
# number of rings (size 3 to 8) (size 9 to 14) (size 15 to 20)
#    0.000    1.500    5.000    1.500    7.000    2.000 
#    0.000    2.500    0.000    0.000    0.000    0.000 
#    0.000    0.000    0.000    0.000    0.000    0.000 
#
# Total GULP energy -89294.601664 kJ/mol
# GULP energy per Si atom -5580.912604 kJ/mol
# Density = 2.492973 g / cm^3
# Si number density = 24.986604 Si / 1000 Ang^3
#
#
#
# Elastic Constant Matrix: (Units=GPa)
#
#
# Indices 1 2 3 4 5 6 
#
# 1 80.3141 49.2871 37.4121 -0.0032 20.7434 0.0029
# 2 49.2871 141.9808 77.6873 -0.0020 12.2029 0.0032
# 3 37.4121 77.6873 297.3416 -0.0032 -18.5574 0.0041
# 4 -0.0032 -0.0020 -0.0032 51.6598 0.0033 8.6942
# 5 20.7434 12.2029 -18.5574 0.0033 39.5728 -0.0041
# 6 0.0029 0.0032 0.0041 8.6942 -0.0041 29.4104
#
#
#
# Elastic Compliance Matrix: (Units=1/GPa)
#
#
# Indices 1 2 3 4 5 6 
#
# 1 0.018438 -0.004729 -0.001645 0.000002 -0.008978 -0.000003
# 2 -0.004729 0.009976 -0.002111 0.000000 -0.001587 -0.000001
# 3 -0.001645 -0.002111 0.004343 0.000000 0.003550 0.000000
# 4 0.000002 0.000000 0.000000 0.020371 -0.000003 -0.006022
# 5 -0.008978 -0.001587 0.003550 -0.000003 0.032130 0.000006
# 6 -0.000003 -0.000001 0.000000 -0.006022 0.000006 0.035782
#
#
# Mechanical properties :
#
#
# Convention : Reuss Voigt Hill
#
# Bulk Modulus (GPa) = 63.33613 94.26771 78.80192
# Shear Modulus (GPa) = 34.89882 47.81192 41.35537
#
# Velocity S-wave (km/s) = 3.74130 4.37911 4.07271
# Velocity P-wave (km/s) = 6.63824 7.96103 7.32953
#
# Compressibility (1/GPa) = 0.01578878
#
# Stress axis : x y z
#
# Youngs Moduli (GPa) = 54.23525 100.24001 230.25452
#
# Poissons Ratio (x) = 0.47404 0.37869
# Poissons Ratio (y) = 0.25648 0.48595
# Poissons Ratio (z) = 0.08920 0.21156
#
# Static dielectric constant tensor:
#      x y z
#    x 2.155330 0.000000 0.051360 
#    y 0.000000 1.950150 0.000000 
#    z 0.051360 0.000000 2.024190 
# 
# From -- ./inp_files/28498.got.cif
#   From: 2010.05.17/outbox.cif.g08.bks.cpg/sg15_15_cif.got.tgz:28498.got - 2010.06.03 18:47:42.
