data_PCOD9290231
_publ_section_title
;
Structure prediction by ZEFSAII (Michael W. Deem and Ramdas Pophale) SiO2 
 PCOD9290231
Probable space group: C 2/C
;
_chemical_formula_sum "Si O2"
_cell_formula_units_Z 40
_cell_length_a 9.634520
_cell_length_b 11.292044
_cell_length_c 15.073800
_cell_angle_alpha 90.000000
_cell_angle_beta 101.225814
_cell_angle_gamma 90.000000
_cell_volume 1608.554419
_symmetry_space_group_name_H-M "C 2/C"
_symmetry_group_IT_number 15
_symmetry_cell_setting 'monoclinic'
loop_
_space_group_symop_operation_xyz
x,y,z
-x,y,1/2-z
-x,-y,-z
x,-y,1/2+z
1/2+x,1/2+y,z
1/2-x,1/2+y,1/2-z
1/2-x,1/2-y,-z
1/2+x,1/2-y,1/2+z
loop_
_atom_site_type_symbol
_atom_site_label
_atom_site_fract_x
_atom_site_fract_y
_atom_site_fract_z
Si Si1 0.219541 0.378942 0.746624
Si Si2 0.261718 0.126271 0.051918
Si Si3 0.558970 0.337780 0.992589
Si Si4 0.637745 0.629654 0.708278
Si Si5 0.848831 0.589771 0.451789
O O1 0.172520 0.374584 0.842783
O O2 0.318328 0.496574 0.759728
O O3 0.251488 0.237100 0.736904
O O4 0.123732 0.408278 0.649252
O O5 0.250000 0.250000 0.000000
O O6 0.092792 0.105611 0.043938
O O7 0.346374 0.032697 0.003401
O O8 0.602740 0.363755 0.099710
O O9 0.567032 0.194941 0.989852
O O10 0.680731 0.378091 0.940768
O O11 0.500000 0.659704 0.750000
#
# Coordination Sequence:
#
# PCOD9290231 Si02
#       5
#     8   8   8   8   8
#     4  11  24  40  70 100 129 174 224 266 329 397
#     4  12  24  41  65  97 130 169 217 270 324 390
#     4  10  22  41  64  88 128 169 211 269 325 379
#     4  11  23  44  67  95 134 176 217 273 330 387
#     4  10  22  41  64  92 128 167 212 266 323 387
#
# _framework density 24.867046999999999
#
# number of rings (size 3 to 8) (size 9 to 14) (size 15 to 20)
#    0.000    1.200    2.000    4.200    2.800    0.800 
#    0.000    3.000    0.000    0.000    0.000    0.000 
#    0.000    0.000    0.000    0.000    0.000    0.000 
#
# Total GULP energy -111622.647654 kJ/mol
# GULP energy per Si atom -5581.132383 kJ/mol
# Density = 2.481045 g / cm^3
# Si number density = 24.867047 Si / 1000 Ang^3
#
#
#
# Elastic Constant Matrix: (Units=GPa)
#
#
# Indices 1 2 3 4 5 6 
#
# 1 94.8182 25.9434 18.7252 0.0000 -6.0525 0.0000
# 2 25.9434 201.2264 50.9899 0.0000 -6.6879 0.0000
# 3 18.7252 50.9899 174.1940 0.0000 -18.2915 0.0000
# 4 0.0000 0.0000 0.0000 47.4582 0.0000 -0.7749
# 5 -6.0525 -6.6879 -18.2915 0.0000 5.2560 0.0000
# 6 0.0000 0.0000 0.0000 -0.7749 0.0000 36.3046
#
#
#
# Elastic Compliance Matrix: (Units=1/GPa)
#
#
# Indices 1 2 3 4 5 6 
#
# 1 0.011643 -0.001180 0.000542 0.000000 0.013793 0.000000
# 2 -0.001180 0.005503 -0.001405 0.000000 0.000755 0.000000
# 3 0.000542 -0.001405 0.009410 0.000000 0.031586 0.000000
# 4 0.000000 0.000000 0.000000 0.021079 0.000000 0.000450
# 5 0.013793 0.000755 0.031586 0.000000 0.317027 0.000000
# 6 0.000000 0.000000 0.000000 0.000450 0.000000 0.027554
#
#
# Mechanical properties :
#
#
# Convention : Reuss Voigt Hill
#
# Bulk Modulus (GPa) = 44.50234 73.50617 59.00426
# Shear Modulus (GPa) = 12.38265 42.77577 27.57921
#
# Velocity S-wave (km/s) = 2.23391 4.15200 3.33388
# Velocity P-wave (km/s) = 4.95871 7.25323 6.21281
#
# Compressibility (1/GPa) = 0.02247073
#
# Stress axis : x y z
#
# Youngs Moduli (GPa) = 85.89060 181.72979 106.26565
#
# Poissons Ratio (x) = 0.21445 -0.05761
# Poissons Ratio (y) = 0.10135 0.14927
# Poissons Ratio (z) = -0.04657 0.25527
#
# Static dielectric constant tensor:
#      x y z
#    x 2.028010 0.000000 0.063730 
#    y 0.000000 2.070810 0.000000 
#    z 0.063730 0.000000 1.754690 
# 
# From -- ./inp_files/141847.got.cif
#   From: 2010.05.17/outbox.cif.g08.bks.cpg/sg15_71_cif.got.tgz:141847.got - 2010.06.03 18:47:42.
