data_PCOD9290015
_publ_section_title
;
Structure prediction by ZEFSAII (Michael W. Deem and Ramdas Pophale) SiO2 
 PCOD9290015
Probable space group: C 2/C
;
_chemical_formula_sum "Si O2"
_cell_formula_units_Z 40
_cell_length_a 15.326601
_cell_length_b 9.986415
_cell_length_c 12.661979
_cell_angle_alpha 90.000000
_cell_angle_beta 104.642406
_cell_angle_gamma 90.000000
_cell_volume 1875.072451
_symmetry_space_group_name_H-M "C 2/C"
_symmetry_group_IT_number 15
_symmetry_cell_setting 'monoclinic'
loop_
_space_group_symop_operation_xyz
x,y,z
-x,y,1/2-z
-x,-y,-z
x,-y,1/2+z
1/2+x,1/2+y,z
1/2-x,1/2+y,1/2-z
1/2-x,1/2-y,-z
1/2+x,1/2-y,1/2+z
loop_
_atom_site_type_symbol
_atom_site_label
_atom_site_fract_x
_atom_site_fract_y
_atom_site_fract_z
Si Si1 0.027223 0.144827 0.427425
Si Si2 0.183593 0.302603 0.387264
Si Si3 0.528026 0.662799 0.878050
Si Si4 0.178360 0.750221 0.648132
Si Si5 0.675528 0.104669 0.446501
O O1 0.091202 0.221933 0.369187
O O2 0.045587 0.192765 0.553769
O O3 0.922475 0.186242 0.378266
O O4 0.052471 0.988755 0.421065
O O5 0.250000 0.250000 0.500000
O O6 0.214800 0.279101 0.276186
O O7 0.158411 0.455742 0.403683
O O8 0.500000 0.650452 0.750000
O O9 0.600545 0.781494 0.902389
O O10 0.238325 0.849512 0.595295
O O11 0.183965 0.616636 0.576397
#
# Coordination Sequence:
#
# PCOD9290015 Si02
#       5
#     8   8   8   8   8
#     4  10  24  44  65  97 131 182 221 266 338 399
#     4  12  28  40  70 104 136 172 224 279 335 393
#     4  10  22  40  73  95 132 174 230 271 328 399
#     4  10  24  47  70  91 141 175 223 274 333 402
#     4  10  26  44  68 101 129 179 223 277 337 385
#
# _framework density 21.332508000000001
#
# number of rings (size 3 to 8) (size 9 to 14) (size 15 to 20)
#    0.000    1.600    0.000    1.800   16.800    4.800 
#    0.000    0.000    0.000    0.000    0.000    0.000 
#    0.000    0.000    0.000    0.000    0.000    0.000 
#
# Total GULP energy -111494.301463 kJ/mol
# GULP energy per Si atom -5574.715073 kJ/mol
# Density = 2.128395 g / cm^3
# Si number density = 21.332508 Si / 1000 Ang^3
#
#
#
# Elastic Constant Matrix: (Units=GPa)
#
#
# Indices 1 2 3 4 5 6 
#
# 1 70.5440 35.6080 39.4947 0.0000 -15.0176 0.0000
# 2 35.6080 118.5522 33.0104 0.0000 -4.6863 0.0000
# 3 39.4947 33.0104 208.5491 0.0000 -9.7469 0.0000
# 4 0.0000 0.0000 0.0000 18.2307 0.0000 -5.4921
# 5 -15.0176 -4.6863 -9.7469 0.0000 24.8501 0.0000
# 6 0.0000 0.0000 0.0000 -5.4921 0.0000 9.6508
#
#
#
# Elastic Compliance Matrix: (Units=1/GPa)
#
#
# Indices 1 2 3 4 5 6 
#
# 1 0.020334 -0.004981 -0.002579 0.000000 0.010338 0.000000
# 2 -0.004981 0.010076 -0.000717 0.000000 -0.001391 0.000000
# 3 -0.002579 -0.000717 0.005417 0.000000 0.000431 0.000000
# 4 0.000000 0.000000 0.000000 0.066202 0.000000 0.037674
# 5 0.010338 -0.001391 0.000431 0.000000 0.046395 0.000000
# 6 0.000000 0.000000 0.000000 0.037674 0.000000 0.125058
#
#
# Mechanical properties :
#
#
# Convention : Reuss Voigt Hill
#
# Bulk Modulus (GPa) = 51.88403 68.20795 60.04599
# Shear Modulus (GPa) = 16.86566 29.84847 23.35706
#
# Velocity S-wave (km/s) = 2.81483 3.74465 3.31252
# Velocity P-wave (km/s) = 5.91090 7.12318 6.54516
#
# Compressibility (1/GPa) = 0.01927375
#
# Stress axis : x y z
#
# Youngs Moduli (GPa) = 49.17766 99.24920 184.60152
#
# Poissons Ratio (x) = 0.49433 0.47616
# Poissons Ratio (y) = 0.24494 0.13229
# Poissons Ratio (z) = 0.12685 0.07112
#
# Static dielectric constant tensor:
#      x y z
#    x 1.810380 0.000000 0.029600 
#    y 0.000000 1.745100 0.000000 
#    z 0.029600 0.000000 1.871710 
# 
# From -- ./inp_files/102797.got.cif
#   From: 2010.05.17/outbox.cif.g08.bks.cpg/sg15_52_cif.got.tgz:102797.got - 2010.06.03 18:47:42.
