data_PCOD9290219
_publ_section_title
;
Structure prediction by ZEFSAII (Michael W. Deem and Ramdas Pophale) SiO2 
 PCOD9290219
Probable space group: C 2/C
;
_chemical_formula_sum "Si O2"
_cell_formula_units_Z 48
_cell_length_a 20.198275
_cell_length_b 12.015974
_cell_length_c 25.371484
_cell_angle_alpha 90.000000
_cell_angle_beta 22.622521
_cell_angle_gamma 90.000000
_cell_volume 2368.612942
_symmetry_space_group_name_H-M "C 2/C"
_symmetry_group_IT_number 15
_symmetry_cell_setting 'monoclinic'
loop_
_space_group_symop_operation_xyz
x,y,z
-x,y,1/2-z
-x,-y,-z
x,-y,1/2+z
1/2+x,1/2+y,z
1/2-x,1/2+y,1/2-z
1/2-x,1/2-y,-z
1/2+x,1/2-y,1/2+z
loop_
_atom_site_type_symbol
_atom_site_label
_atom_site_fract_x
_atom_site_fract_y
_atom_site_fract_z
Si Si1 0.393975 0.186460 0.927769
Si Si2 0.714539 0.039647 0.397554
Si Si3 0.371739 0.012250 0.801552
Si Si4 0.999240 0.324444 0.533462
Si Si5 0.725757 0.635178 0.316466
Si Si6 0.999638 0.916138 0.610850
O O1 0.530977 0.122678 0.790730
O O2 0.489167 0.282551 0.890865
O O3 0.250000 0.250000 0.000000
O O4 0.304093 0.098155 0.032532
O O5 0.603831 0.116654 0.438569
O O6 0.903399 0.038395 0.233100
O O7 0.630520 0.918126 0.458159
O O8 0.500000 0.959105 0.750000
O O9 0.328232 0.938387 0.782979
O O10 0.191037 0.040575 0.961642
O O11 0.098541 0.217702 0.439870
O O12 0.862105 0.299531 0.679909
O O13 0.615615 0.560891 0.356212
#
# Coordination Sequence:
#
# PCOD9290219 Si02
#       6
#     8   8   8   8   8   8
#     4  12  23  43  66  97 140 172 216 275 343 394
#     4  10  22  41  64 102 134 168 222 276 330 390
#     4  12  26  45  63  98 138 176 221 275 335 404
#     4  10  22  41  67  97 132 172 221 280 322 390
#     4  11  24  42  69  96 132 175 227 273 330 400
#     4  11  24  38  69 101 131 178 218 277 338 398
#
# _framework density 20.265025000000001
#
# number of rings (size 3 to 8) (size 9 to 14) (size 15 to 20)
#    0.000    1.000    5.000    1.500    4.667    0.000 
#    0.000    0.833    3.667    0.000    0.000    0.000 
#    0.000    0.000    0.000    0.000    0.000    0.000 
#
# Total GULP energy -134231.048777 kJ/mol
# GULP energy per Si atom -5592.960366 kJ/mol
# Density = 2.021890 g / cm^3
# Si number density = 20.265025 Si / 1000 Ang^3
#
#
#
# Elastic Constant Matrix: (Units=GPa)
#
#
# Indices 1 2 3 4 5 6 
#
# 1 87.6032 5.2031 38.1074 -0.0003 -9.9882 -0.0020
# 2 5.2031 13.4588 17.3843 -0.0136 -5.3554 -0.0043
# 3 38.1074 17.3843 174.1403 -0.0157 15.6567 -0.0036
# 4 -0.0003 -0.0136 -0.0157 18.5791 -0.0059 3.7997
# 5 -9.9882 -5.3554 15.6567 -0.0059 26.0338 -0.0005
# 6 -0.0020 -0.0043 -0.0036 3.7997 -0.0005 32.8814
#
#
#
# Elastic Compliance Matrix: (Units=1/GPa)
#
#
# Indices 1 2 3 4 5 6 
#
# 1 0.014009 0.003395 -0.004176 0.000002 0.008585 0.000001
# 2 0.003395 0.103075 -0.013803 0.000073 0.030807 0.000004
# 3 -0.004176 -0.013803 0.008916 -0.000006 -0.009804 -0.000001
# 4 0.000002 0.000073 -0.000006 0.055127 0.000031 -0.006370
# 5 0.008585 0.030807 -0.009804 0.000031 0.053938 0.000001
# 6 0.000001 0.000004 -0.000001 -0.006370 0.000001 0.031148
#
#
# Mechanical properties :
#
#
# Convention : Reuss Voigt Hill
#
# Bulk Modulus (GPa) = 10.32723 44.06576 27.19650
# Shear Modulus (GPa) = 15.25976 29.79937 22.52956
#
# Velocity S-wave (km/s) = 2.74708 3.83885 3.33790
# Velocity P-wave (km/s) = 3.89475 6.43746 5.32025
#
# Compressibility (1/GPa) = 0.09683139
#
# Stress axis : x y z
#
# Youngs Moduli (GPa) = 71.38284 9.70165 112.16138
#
# Poissons Ratio (x) = -0.03293 0.46842
# Poissons Ratio (y) = -0.24232 1.54812
# Poissons Ratio (z) = 0.29812 0.13391
#
# Static dielectric constant tensor:
#      x y z
#    x 1.752480 0.000000 -0.004570 
#    y 0.000000 1.689660 0.000010 
#    z -0.004570 0.000010 1.724250 
# 
# From -- ./inp_files/252515.got.cif
#   From: 2010.05.17/outbox.cif.g08.bks.cpg/sg15_127_cif.got.tgz:252515.got - 2010.06.03 18:47:42.
