data_PCOD9290981
_publ_section_title
;
Structure prediction by ZEFSAII (Michael W. Deem and Ramdas Pophale) SiO2 
 PCOD9290981
Probable space group: C 2/C
;
_chemical_formula_sum "Si O2"
_cell_formula_units_Z 44
_cell_length_a 18.784099
_cell_length_b 5.459578
_cell_length_c 24.563271
_cell_angle_alpha 90.000000
_cell_angle_beta 127.694895
_cell_angle_gamma 90.000000
_cell_volume 1993.263634
_symmetry_space_group_name_H-M "C 2/C"
_symmetry_group_IT_number 15
_symmetry_cell_setting 'monoclinic'
loop_
_space_group_symop_operation_xyz
x,y,z
-x,y,1/2-z
-x,-y,-z
x,-y,1/2+z
1/2+x,1/2+y,z
1/2-x,1/2+y,1/2-z
1/2-x,1/2-y,-z
1/2+x,1/2-y,1/2+z
loop_
_atom_site_type_symbol
_atom_site_label
_atom_site_fract_x
_atom_site_fract_y
_atom_site_fract_z
Si Si1 0.500000 0.781981 0.250000
Si Si2 0.729595 0.076212 0.673145
Si Si3 0.964573 0.932129 0.130209
Si Si4 0.655153 0.579027 0.663817
Si Si5 0.648788 0.127373 0.342412
Si Si6 0.285756 0.504047 0.989579
O O1 0.478838 0.625605 0.186067
O O2 0.587890 0.947644 0.278531
O O3 0.663613 0.311603 0.640462
O O4 0.772505 0.067393 0.753275
O O5 0.812311 0.140017 0.671630
O O6 0.680974 0.818825 0.641206
O O7 0.918415 0.707423 0.140832
O O8 0.892006 0.007788 0.050427
O O9 0.058525 0.881383 0.145755
O O10 0.736528 0.002644 0.408770
O O11 0.250000 0.250000 0.000000
O O12 0.250000 0.750000 0.000000
#
# Coordination Sequence:
#
# PCOD9290981 Si02
#       6
#     4   8   8   8   8   8
#     4  12  22  34  72  98 132 154 236 280 322 382
#     4  10  23  39  60  90 132 165 208 267 328 379
#     4  11  24  40  65  97 128 170 221 270 326 389
#     4  10  23  39  60  90 132 165 208 267 328 379
#     4  11  24  40  65  97 128 170 221 270 326 389
#     4  10  22  42  62  92 134 172 209 265 334 388
#
# _framework density 22.074351
#
# number of rings (size 3 to 8) (size 9 to 14) (size 15 to 20)
#    0.000    1.455    1.818    2.727   12.727    0.000 
#    0.000    1.818    0.000    0.000    0.000    0.000 
#    0.000    0.000    0.000    0.000    0.000    0.000 
#
# Total GULP energy -122841.060468 kJ/mol
# GULP energy per Si atom -5583.684567 kJ/mol
# Density = 2.202411 g / cm^3
# Si number density = 22.074351 Si / 1000 Ang^3
#
#
#
# Elastic Constant Matrix: (Units=GPa)
#
#
# Indices 1 2 3 4 5 6 
#
# 1 104.4349 64.1116 11.3876 0.0000 15.0496 -0.0001
# 2 64.1116 137.1313 47.3269 0.0003 19.9455 0.0011
# 3 11.3876 47.3269 80.3025 -0.0008 21.4112 -0.0004
# 4 0.0000 0.0003 -0.0008 5.1605 0.0004 -7.9281
# 5 15.0496 19.9455 21.4112 0.0004 17.3598 -0.0001
# 6 -0.0001 0.0011 -0.0004 -7.9281 -0.0001 34.8477
#
#
#
# Elastic Compliance Matrix: (Units=1/GPa)
#
#
# Indices 1 2 3 4 5 6 
#
# 1 0.014995 -0.007144 0.005009 0.000004 -0.010970 0.000001
# 2 -0.007144 0.012961 -0.006416 -0.000004 -0.000784 -0.000001
# 3 0.005009 -0.006416 0.021927 0.000009 -0.024014 0.000003
# 4 0.000004 -0.000004 0.000009 0.297906 -0.000016 0.067776
# 5 -0.010970 -0.000784 -0.024014 -0.000016 0.097634 -0.000004
# 6 0.000001 -0.000001 0.000003 0.067776 -0.000004 0.044116
#
#
# Mechanical properties :
#
#
# Convention : Reuss Voigt Hill
#
# Bulk Modulus (GPa) = 30.50614 63.05787 46.78200
# Shear Modulus (GPa) = 9.66055 24.74311 17.20183
#
# Velocity S-wave (km/s) = 2.09425 3.35161 2.79456
# Velocity P-wave (km/s) = 4.43819 6.60348 5.62599
#
# Compressibility (1/GPa) = 0.03278028
#
# Stress axis : x y z
#
# Youngs Moduli (GPa) = 66.68705 77.15717 45.60562
#
# Poissons Ratio (x) = 0.55119 -0.22842
# Poissons Ratio (y) = 0.47639 0.29262
# Poissons Ratio (z) = -0.33400 0.49506
#
# Static dielectric constant tensor:
#      x y z
#    x 1.815890 0.000000 -0.048960 
#    y 0.000000 1.851480 0.000000 
#    z -0.048960 0.000000 1.926130 
# 
# From -- ./inp_files/226929.got.cif
#   From: 2010.05.17/outbox.cif.g08.bks.cpg/sg15_114_cif.got.tgz:226929.got - 2010.06.03 18:47:42.
