data_PCOD9290628
_publ_section_title
;
Structure prediction by ZEFSAII (Michael W. Deem and Ramdas Pophale) SiO2 
 PCOD9290628
Probable space group: C 2/C
;
_chemical_formula_sum "Si O2"
_cell_formula_units_Z 44
_cell_length_a 14.091073
_cell_length_b 5.500569
_cell_length_c 21.723991
_cell_angle_alpha 90.000000
_cell_angle_beta 77.746952
_cell_angle_gamma 90.000000
_cell_volume 1645.445725
_symmetry_space_group_name_H-M "C 2/C"
_symmetry_group_IT_number 15
_symmetry_cell_setting 'monoclinic'
loop_
_space_group_symop_operation_xyz
x,y,z
-x,y,1/2-z
-x,-y,-z
x,-y,1/2+z
1/2+x,1/2+y,z
1/2-x,1/2+y,1/2-z
1/2-x,1/2-y,-z
1/2+x,1/2-y,1/2+z
loop_
_atom_site_type_symbol
_atom_site_label
_atom_site_fract_x
_atom_site_fract_y
_atom_site_fract_z
Si Si1 0.288112 0.832122 0.928484
Si Si2 0.000000 0.327005 0.750000
Si Si3 0.149424 0.537949 0.810919
Si Si4 0.800484 0.181821 0.359746
Si Si5 0.485001 0.443083 0.644687
Si Si6 0.493389 0.840858 0.562747
O O1 0.276997 0.587187 0.890735
O O2 0.400622 0.873412 0.924641
O O3 0.254799 0.085779 0.901797
O O4 0.250000 0.750000 0.000000
O O5 0.903522 0.475486 0.746649
O O6 0.995622 0.156536 0.809320
O O7 0.247497 0.376814 0.801980
O O8 0.088396 0.441641 0.879791
O O9 0.116562 0.817625 0.824514
O O10 0.916669 0.206564 0.354172
O O11 0.481832 0.547724 0.575380
O O12 0.500000 0.000000 0.500000
#
# Coordination Sequence:
#
# PCOD9290628 Si02
#       6
#     8   4   8   8   8   8
#     4  11  23  44  66 102 147 186 239 293 347 437
#     4  10  24  46  70 100 132 184 238 304 366 434
#     4  11  23  46  71 100 144 183 244 299 368 439
#     4  11  25  44  71 102 141 188 237 295 365 431
#     4  10  23  47  69  99 145 183 242 305 365 445
#     4  10  22  41  68 101 140 190 233 290 364 431
#
# _framework density 26.740472
#
# number of rings (size 3 to 8) (size 9 to 14) (size 15 to 20)
#    0.000    1.455    1.818    2.182    5.091    0.727 
#    6.545    0.000    0.000    0.000    0.000    0.000 
#    0.000    0.000    0.000    0.000    0.000    0.000 
#
# Total GULP energy -122541.370674 kJ/mol
# GULP energy per Si atom -5570.062303 kJ/mol
# Density = 2.667961 g / cm^3
# Si number density = 26.740472 Si / 1000 Ang^3
#
#
#
# Elastic Constant Matrix: (Units=GPa)
#
#
# Indices 1 2 3 4 5 6 
#
# 1 147.7442 51.5529 25.9708 0.0000 3.3602 0.0000
# 2 51.5529 168.9002 69.0229 0.0000 25.2679 0.0000
# 3 25.9708 69.0229 93.8380 0.0000 -6.6090 0.0000
# 4 0.0000 0.0000 0.0000 46.4779 0.0000 4.6752
# 5 3.3602 25.2679 -6.6090 0.0000 29.4096 0.0000
# 6 0.0000 0.0000 0.0000 4.6752 0.0000 31.2689
#
#
#
# Elastic Compliance Matrix: (Units=1/GPa)
#
#
# Indices 1 2 3 4 5 6 
#
# 1 0.007622 -0.002376 -0.000284 0.000000 0.001107 0.000000
# 2 -0.002376 0.012266 -0.009234 0.000000 -0.012342 0.000000
# 3 -0.000284 -0.009234 0.018379 0.000000 0.012096 0.000000
# 4 0.000000 0.000000 0.000000 0.021844 0.000000 -0.003266
# 5 0.001107 -0.012342 0.012096 0.000000 0.047198 0.000000
# 6 0.000000 0.000000 0.000000 -0.003266 0.000000 0.032469
#
#
# Mechanical properties :
#
#
# Convention : Reuss Voigt Hill
#
# Bulk Modulus (GPa) = 69.06227 78.17509 73.61868
# Shear Modulus (GPa) = 29.69253 39.02698 34.35976
#
# Velocity S-wave (km/s) = 3.33588 3.82445 3.58849
# Velocity P-wave (km/s) = 6.38125 6.98571 6.69031
#
# Compressibility (1/GPa) = 0.01447969
#
# Stress axis : x y z
#
# Youngs Moduli (GPa) = 131.19430 81.52763 54.40961
#
# Poissons Ratio (x) = 0.19372 0.01544
# Poissons Ratio (y) = 0.31173 0.50241
# Poissons Ratio (z) = 0.03724 0.75281
#
# Static dielectric constant tensor:
#      x y z
#    x 2.397720 0.000000 0.091410 
#    y 0.000000 2.373860 0.000000 
#    z 0.091410 0.000000 0.605690 
# 
# From -- ./inp_files/271869.got.cif
#   From: 2010.05.17/outbox.cif.g08.bks.cpg/sg15_136_cif.got.tgz:271869.got - 2010.06.03 18:47:42.
