data_PCOD9290229
_publ_section_title
;
Structure prediction by ZEFSAII (Michael W. Deem and Ramdas Pophale) SiO2 
 PCOD9290229
Probable space group: C 2/C
;
_chemical_formula_sum "Si O2"
_cell_formula_units_Z 48
_cell_length_a 16.890141
_cell_length_b 29.852677
_cell_length_c 9.364409
_cell_angle_alpha 90.000000
_cell_angle_beta 32.873011
_cell_angle_gamma 90.000000
_cell_volume 2562.830470
_symmetry_space_group_name_H-M "C 2/C"
_symmetry_group_IT_number 15
_symmetry_cell_setting 'monoclinic'
loop_
_space_group_symop_operation_xyz
x,y,z
-x,y,1/2-z
-x,-y,-z
x,-y,1/2+z
1/2+x,1/2+y,z
1/2-x,1/2+y,1/2-z
1/2-x,1/2-y,-z
1/2+x,1/2-y,1/2+z
loop_
_atom_site_type_symbol
_atom_site_label
_atom_site_fract_x
_atom_site_fract_y
_atom_site_fract_z
Si Si1 0.840849 0.456682 0.064977
Si Si2 0.180860 0.876629 0.813726
Si Si3 0.843887 0.453317 0.407449
Si Si4 0.684861 0.272369 0.737720
Si Si5 0.331189 0.381461 0.338519
Si Si6 0.164100 0.779078 0.242033
O O1 0.851976 0.458963 0.222022
O O2 0.741167 0.416352 0.159663
O O3 0.781487 0.502418 0.081561
O O4 0.000000 0.450643 0.750000
O O5 0.253634 0.909947 0.590884
O O6 0.217176 0.824893 0.720992
O O7 0.223191 0.886877 0.914899
O O8 0.006781 0.884283 0.071991
O O9 0.000000 0.448052 0.250000
O O10 0.750000 0.250000 0.500000
O O11 0.765114 0.240322 0.725593
O O12 0.508977 0.270938 0.006494
O O13 0.301715 0.330914 0.334304
O O14 0.250000 0.750000 0.000000
#
# Coordination Sequence:
#
# PCOD9290229 Si02
#       6
#     8   8   8   8   8   8
#     4  11  23  41  65  93 123 161 204 255 311 372
#     4  10  22  42  62  88 126 165 205 256 314 369
#     4  11  23  41  65  92 126 159 202 257 312 371
#     4  11  24  40  62  93 129 169 211 268 315 374
#     4  10  22  41  64  88 123 165 209 256 308 374
#     4  11  22  42  64  89 125 171 217 258 316 374
#
# _framework density 18.729291
#
# number of rings (size 3 to 8) (size 9 to 14) (size 15 to 20)
#    0.000    1.333    1.667    5.000    2.333    4.000 
#    0.000    0.000    0.000    0.000    0.000    0.000 
#    0.000    0.000    0.000    0.000    0.000    0.000 
#
# Total GULP energy -133810.477903 kJ/mol
# GULP energy per Si atom -5575.436579 kJ/mol
# Density = 1.868666 g / cm^3
# Si number density = 18.729291 Si / 1000 Ang^3
#
#
#
# Elastic Constant Matrix: (Units=GPa)
#
#
# Indices 1 2 3 4 5 6 
#
# 1 154.4013 68.6873 47.3469 0.0000 43.3286 0.0000
# 2 68.6873 122.5417 52.3660 0.0000 3.8666 0.0000
# 3 47.3469 52.3660 74.9654 0.0000 33.8368 0.0000
# 4 0.0000 0.0000 0.0000 37.1372 0.0000 -0.4120
# 5 43.3286 3.8666 33.8368 0.0000 41.9562 0.0000
# 6 0.0000 0.0000 0.0000 -0.4120 0.0000 34.7849
#
#
#
# Elastic Compliance Matrix: (Units=1/GPa)
#
#
# Indices 1 2 3 4 5 6 
#
# 1 0.014559 -0.010592 0.007153 0.000000 -0.019829 0.000000
# 2 -0.010592 0.021728 -0.019688 0.000000 0.024815 0.000000
# 3 0.007153 -0.019688 0.039451 0.000000 -0.037389 0.000000
# 4 0.000000 0.000000 0.000000 0.026931 0.000000 0.000319
# 5 -0.019829 0.024815 -0.037389 0.000000 0.072178 0.000000
# 6 0.000000 0.000000 0.000000 0.000319 0.000000 0.028752
#
#
# Mechanical properties :
#
#
# Convention : Reuss Voigt Hill
#
# Bulk Modulus (GPa) = 33.91670 76.52320 55.21995
# Shear Modulus (GPa) = 19.25434 35.00953 27.13193
#
# Velocity S-wave (km/s) = 3.20977 4.32816 3.81022
# Velocity P-wave (km/s) = 5.64669 8.11933 6.99316
#
# Compressibility (1/GPa) = 0.02948400
#
# Stress axis : x y z
#
# Youngs Moduli (GPa) = 68.68379 46.02321 25.34806
#
# Poissons Ratio (x) = 0.48748 -0.18133
# Poissons Ratio (y) = 0.72751 0.49906
# Poissons Ratio (z) = -0.49132 0.90613
#
# Static dielectric constant tensor:
#      x y z
#    x 1.649980 0.000000 0.012460 
#    y 0.000000 1.636880 0.000000 
#    z 0.012460 0.000000 1.652450 
# 
# From -- ./inp_files/43776.got.cif
#   From: 2010.05.17/outbox.cif.g08.bks.cpg/sg15_22_cif.got.tgz:43776.got - 2010.06.03 18:47:42.
