data_PCOD9290912
_publ_section_title
;
Structure prediction by ZEFSAII (Michael W. Deem and Ramdas Pophale) SiO2 
 PCOD9290912
Probable space group: C 2/C
;
_chemical_formula_sum "Si O2"
_cell_formula_units_Z 32
_cell_length_a 9.281705
_cell_length_b 10.949679
_cell_length_c 18.548043
_cell_angle_alpha 90.000000
_cell_angle_beta 53.618812
_cell_angle_gamma 90.000000
_cell_volume 1517.647517
_symmetry_space_group_name_H-M "C 2/C"
_symmetry_group_IT_number 15
_symmetry_cell_setting 'monoclinic'
loop_
_space_group_symop_operation_xyz
x,y,z
-x,y,1/2-z
-x,-y,-z
x,-y,1/2+z
1/2+x,1/2+y,z
1/2-x,1/2+y,1/2-z
1/2-x,1/2-y,-z
1/2+x,1/2-y,1/2+z
loop_
_atom_site_type_symbol
_atom_site_label
_atom_site_fract_x
_atom_site_fract_y
_atom_site_fract_z
Si Si1 0.620200 0.068853 0.906576
Si Si2 0.575756 0.334446 0.921066
Si Si3 0.558065 0.416967 0.084900
Si Si4 0.818437 0.507479 0.767887
O O1 0.533180 0.198160 0.910783
O O2 0.805914 0.102031 0.890993
O O3 0.652508 0.991304 0.825391
O O4 0.500000 0.000000 0.000000
O O5 0.432850 0.439232 0.941839
O O6 0.752821 0.385441 0.828614
O O7 0.596531 0.341980 0.001213
O O8 0.351541 0.403384 0.169771
O O9 0.000000 0.552194 0.750000
#
# Coordination Sequence:
#
# PCOD9290912 Si02
#       4
#     8   8   8   8
#     4  12  24  38  67  98 122 171 217 259 332 390
#     4   9  22  42  66  88 130 166 211 273 318 378
#     4   9  21  45  63  90 125 167 217 260 323 381
#     4  10  22  42  59  91 127 163 213 264 322 380
#
# _framework density 21.085267000000002
#
# number of rings (size 3 to 8) (size 9 to 14) (size 15 to 20)
#    1.500    0.500    0.000    3.000    0.000    5.000 
#    4.500    0.000    0.000    0.000    0.000    0.000 
#    0.000    0.000    0.000    0.000    0.000    0.000 
#
# Total GULP energy -89207.891854 kJ/mol
# GULP energy per Si atom -5575.493241 kJ/mol
# Density = 2.103728 g / cm^3
# Si number density = 21.085267 Si / 1000 Ang^3
#
#
#
# Elastic Constant Matrix: (Units=GPa)
#
#
# Indices 1 2 3 4 5 6 
#
# 1 58.3750 -2.6332 45.8034 0.0000 0.2356 0.0000
# 2 -2.6332 42.9943 11.1684 0.0000 -14.6196 0.0000
# 3 45.8034 11.1684 179.5753 0.0000 11.1309 0.0000
# 4 0.0000 0.0000 0.0000 9.5857 0.0000 -6.0592
# 5 0.2356 -14.6196 11.1309 0.0000 31.9521 0.0000
# 6 0.0000 0.0000 0.0000 -6.0592 0.0000 10.5122
#
#
#
# Elastic Compliance Matrix: (Units=1/GPa)
#
#
# Indices 1 2 3 4 5 6 
#
# 1 0.022142 0.004299 -0.006160 0.000000 0.003950 0.000000
# 2 0.004299 0.029570 -0.003856 0.000000 0.014841 0.000000
# 3 -0.006160 -0.003856 0.007651 0.000000 -0.004384 0.000000
# 4 0.000000 0.000000 0.000000 0.164118 0.000000 0.094597
# 5 0.003950 0.014841 -0.004384 0.000000 0.039586 0.000000
# 6 0.000000 0.000000 0.000000 0.094597 0.000000 0.149653
#
#
# Mechanical properties :
#
#
# Convention : Reuss Voigt Hill
#
# Bulk Modulus (GPa) = 20.86322 43.29132 32.07727
# Shear Modulus (GPa) = 11.36031 25.51706 18.43869
#
# Velocity S-wave (km/s) = 2.32368 3.48254 2.96037
# Velocity P-wave (km/s) = 4.13709 6.06193 5.18953
#
# Compressibility (1/GPa) = 0.04793125
#
# Stress axis : x y z
#
# Youngs Moduli (GPa) = 45.16330 33.81765 130.69502
#
# Poissons Ratio (x) = -0.14539 0.80506
# Poissons Ratio (y) = -0.19417 0.50391
# Poissons Ratio (z) = 0.27820 0.13039
#
# Static dielectric constant tensor:
#      x y z
#    x 1.746120 0.000000 -0.017070 
#    y 0.000000 1.862310 0.000000 
#    z -0.017070 0.000000 1.751210 
# 
# From -- ./inp_files/187534.got.cif
#   From: 2010.05.17/outbox.cif.g08.bks.cpg/sg15_94_cif.got.tgz:187534.got - 2010.06.03 18:47:42.
