data_PCOD9290326
_publ_section_title
;
Structure prediction by ZEFSAII (Michael W. Deem and Ramdas Pophale) SiO2 
 PCOD9290326
Probable space group: C 2/C
;
_chemical_formula_sum "Si O2"
_cell_formula_units_Z 64
_cell_length_a 23.411582
_cell_length_b 18.958828
_cell_length_c 18.170674
_cell_angle_alpha 90.000000
_cell_angle_beta 159.896656
_cell_angle_gamma 90.000000
_cell_volume 2772.114359
_symmetry_space_group_name_H-M "C 2/C"
_symmetry_group_IT_number 15
_symmetry_cell_setting 'monoclinic'
loop_
_space_group_symop_operation_xyz
x,y,z
-x,y,1/2-z
-x,-y,-z
x,-y,1/2+z
1/2+x,1/2+y,z
1/2-x,1/2+y,1/2-z
1/2-x,1/2-y,-z
1/2+x,1/2-y,1/2+z
loop_
_atom_site_type_symbol
_atom_site_label
_atom_site_fract_x
_atom_site_fract_y
_atom_site_fract_z
Si Si1 0.382529 0.082404 0.748264
Si Si2 0.648412 0.979307 0.017362
Si Si3 0.618133 0.798179 0.457917
Si Si4 0.166577 0.910171 0.854431
Si Si5 0.827513 0.920579 0.364966
Si Si6 0.821199 0.337906 0.542403
Si Si7 0.247148 0.274633 0.239562
Si Si8 0.364413 0.207807 0.245611
O O1 0.504426 0.144960 0.865955
O O2 0.213234 0.088967 0.496066
O O3 0.327518 0.086197 0.766198
O O4 0.477436 0.009136 0.844584
O O5 0.777472 0.974989 0.241202
O O6 0.703467 0.036175 0.024791
O O7 0.656399 0.906299 0.981551
O O8 0.500000 0.768954 0.250000
O O9 0.772880 0.835944 0.605158
O O10 0.699913 0.745860 0.614581
O O11 0.989635 0.933216 0.609631
O O12 0.851877 0.845704 0.353142
O O13 0.684007 0.284268 0.347101
O O14 0.804529 0.346667 0.610431
O O15 0.000000 0.299353 0.750000
O O16 0.282488 0.210613 0.226662
O O17 0.058701 0.296132 0.996110
#
# Coordination Sequence:
#
# PCOD9290326 Si02
#       8
#     8   8   8   8   8   8   8   8
#     4  10  22  41  65  89 123 168 215 271 317 391
#     4  11  22  42  68  89 125 174 217 258 329 393
#     4   9  21  40  62  91 122 171 213 260 330 387
#     4  10  22  41  65  88 126 164 217 272 318 383
#     4  12  23  39  62  98 126 164 209 274 329 376
#     4  11  21  40  66  91 127 172 215 256 324 382
#     4  12  23  40  65  95 136 167 215 267 327 396
#     4  11  23  39  63  95 129 172 211 263 314 392
#
# _framework density 23.087070000000001
#
# number of rings (size 3 to 8) (size 9 to 14) (size 15 to 20)
#    0.000    1.250    2.500    4.500    0.000    1.000 
#    0.000    5.625    5.500    0.000    0.000    0.000 
#    0.000    0.000    0.000    0.000    0.000    0.000 
#
# Total GULP energy -178686.754311 kJ/mol
# GULP energy per Si atom -5583.961072 kJ/mol
# Density = 2.303452 g / cm^3
# Si number density = 23.087070 Si / 1000 Ang^3
#
#
#
# Elastic Constant Matrix: (Units=GPa)
#
#
# Indices 1 2 3 4 5 6 
#
# 1 87.0774 0.1032 4.3118 0.0003 -23.5181 0.0002
# 2 0.1032 45.1460 3.2690 0.0001 -10.2471 0.0001
# 3 4.3118 3.2690 104.4553 0.0004 -24.7303 0.0005
# 4 0.0003 0.0001 0.0004 17.7646 0.0003 -3.4670
# 5 -23.5181 -10.2471 -24.7303 0.0003 39.6988 0.0003
# 6 0.0002 0.0001 0.0005 -3.4670 0.0003 23.7024
#
#
#
# Elastic Compliance Matrix: (Units=1/GPa)
#
#
# Indices 1 2 3 4 5 6 
#
# 1 0.014085 0.002103 0.001709 0.000000 0.009951 0.000000
# 2 0.002103 0.023903 0.001080 0.000000 0.008089 0.000000
# 3 0.001709 0.001080 0.011466 0.000000 0.008434 0.000000
# 4 0.000000 0.000000 0.000000 0.057946 -0.000001 0.008476
# 5 0.009951 0.008089 0.008434 -0.000001 0.038426 -0.000001
# 6 0.000000 0.000000 0.000000 0.008476 -0.000001 0.043430
#
#
# Mechanical properties :
#
#
# Convention : Reuss Voigt Hill
#
# Bulk Modulus (GPa) = 16.88134 28.00518 22.44326
# Shear Modulus (GPa) = 25.09813 31.49948 28.29881
#
# Velocity S-wave (km/s) = 3.30071 3.69776 3.50486
# Velocity P-wave (km/s) = 4.67484 5.51251 5.11087
#
# Compressibility (1/GPa) = 0.05923700
#
# Stress axis : x y z
#
# Youngs Moduli (GPa) = 70.99978 41.83533 87.21537
#
# Poissons Ratio (x) = -0.08797 -0.14903
# Poissons Ratio (y) = -0.14930 -0.09420
# Poissons Ratio (z) = -0.12132 -0.04519
#
# Static dielectric constant tensor:
#      x y z
#    x 1.907740 0.000000 -0.006810 
#    y 0.000000 1.881740 0.000000 
#    z -0.006810 0.000000 1.846380 
# 
# From -- ./inp_files/220277.got.cif
#   From: 2010.05.17/outbox.cif.g08.bks.cpg/sg15_111_cif.got.tgz:220277.got - 2010.06.03 18:47:42.
