data_PCOD9290971
_publ_section_title
;
Structure prediction by ZEFSAII (Michael W. Deem and Ramdas Pophale) SiO2 
 PCOD9290971
Probable space group: C 2/C
;
_chemical_formula_sum "Si O2"
_cell_formula_units_Z 52
_cell_length_a 15.418953
_cell_length_b 8.701284
_cell_length_c 32.543994
_cell_angle_alpha 90.000000
_cell_angle_beta 142.705086
_cell_angle_gamma 90.000000
_cell_volume 2645.591462
_symmetry_space_group_name_H-M "C 2/C"
_symmetry_group_IT_number 15
_symmetry_cell_setting 'monoclinic'
loop_
_space_group_symop_operation_xyz
x,y,z
-x,y,1/2-z
-x,-y,-z
x,-y,1/2+z
1/2+x,1/2+y,z
1/2-x,1/2+y,1/2-z
1/2-x,1/2-y,-z
1/2+x,1/2-y,1/2+z
loop_
_atom_site_type_symbol
_atom_site_label
_atom_site_fract_x
_atom_site_fract_y
_atom_site_fract_z
Si Si1 0.451484 0.796717 0.564357
Si Si2 0.571452 0.752616 0.698610
Si Si3 0.331160 0.908513 0.253443
Si Si4 0.374924 0.235545 0.605785
Si Si5 0.000000 0.074414 0.750000
Si Si6 0.195433 0.992769 0.981751
Si Si7 0.731386 0.683763 0.344047
O O1 0.475787 0.793176 0.622908
O O2 0.404141 0.623301 0.535956
O O3 0.600694 0.841969 0.600171
O O4 0.323113 0.913560 0.507438
O O5 0.692118 0.636480 0.727299
O O6 0.488335 0.677314 0.704958
O O7 0.647033 0.909874 0.741403
O O8 0.471137 0.838878 0.328121
O O9 0.313690 0.822602 0.203300
O O10 0.271177 0.117704 0.543064
O O11 0.385980 0.386727 0.581633
O O12 0.307107 0.276887 0.623951
O O13 0.863236 0.963755 0.703348
#
# Coordination Sequence:
#
# PCOD9290971 Si02
#       7
#     8   8   8   8   4   8   8
#     4  10  22  42  62  91 123 168 213 252 307 371
#     4  11  24  39  65  92 127 159 211 258 320 373
#     4  11  23  41  65  94 124 167 201 264 321 369
#     4  11  22  41  63  90 128 162 212 255 304 372
#     4  12  24  38  62 102 120 164 196 264 330 366
#     4  10  23  40  65  85 123 177 208 250 304 367
#     4  11  24  40  66  93 130 156 207 265 316 365
#
# _framework density 19.655341
#
# number of rings (size 3 to 8) (size 9 to 14) (size 15 to 20)
#    0.000    1.231    3.077    2.769    6.462    1.231 
#    0.000    0.000    0.000    0.000    0.000    0.000 
#    0.000    0.000    0.000    0.000    0.000    0.000 
#
# Total GULP energy -145369.288521 kJ/mol
# GULP energy per Si atom -5591.126482 kJ/mol
# Density = 1.961060 g / cm^3
# Si number density = 19.655341 Si / 1000 Ang^3
#
#
#
# Elastic Constant Matrix: (Units=GPa)
#
#
# Indices 1 2 3 4 5 6 
#
# 1 33.4191 -0.1499 6.7799 0.0000 6.0650 0.0000
# 2 -0.1499 86.6224 -4.4513 0.0000 5.9650 0.0000
# 3 6.7799 -4.4513 35.8833 0.0000 7.6349 0.0000
# 4 0.0000 0.0000 0.0000 8.2148 0.0000 4.8576
# 5 6.0650 5.9650 7.6349 0.0000 38.0383 0.0000
# 6 0.0000 0.0000 0.0000 4.8576 0.0000 20.6200
#
#
#
# Elastic Compliance Matrix: (Units=1/GPa)
#
#
# Indices 1 2 3 4 5 6 
#
# 1 0.031695 0.000070 -0.005121 0.000000 -0.004037 0.000000
# 2 0.000070 0.011798 0.001929 0.000000 -0.002248 0.000000
# 3 -0.005121 0.001929 0.030258 0.000000 -0.005559 0.000000
# 4 0.000000 0.000000 0.000000 0.141434 0.000000 -0.033319
# 5 -0.004037 -0.002248 -0.005559 0.000000 0.028401 0.000000
# 6 0.000000 0.000000 0.000000 -0.033319 0.000000 0.056346
#
#
# Mechanical properties :
#
#
# Convention : Reuss Voigt Hill
#
# Bulk Modulus (GPa) = 14.81349 17.80913 16.31131
# Shear Modulus (GPa) = 15.21238 23.62434 19.41836
#
# Velocity S-wave (km/s) = 2.78503 3.47065 3.14657
# Velocity P-wave (km/s) = 4.23023 5.01407 4.63873
#
# Compressibility (1/GPa) = 0.06750604
#
# Stress axis : x y z
#
# Youngs Moduli (GPa) = 31.55088 84.75707 33.04937
#
# Poissons Ratio (x) = -0.00590 0.16924
# Poissons Ratio (y) = -0.00220 -0.06375
# Poissons Ratio (z) = 0.16157 -0.16348
#
# Static dielectric constant tensor:
#      x y z
#    x 1.653880 0.000000 0.002960 
#    y 0.000000 1.704480 0.000000 
#    z 0.002960 0.000000 1.693330 
# 
# From -- ./inp_files/242515.got.cif
#   From: 2010.05.17/outbox.cif.g08.bks.cpg/sg15_122_cif.got.tgz:242515.got - 2010.06.03 18:47:42.
