data_PCOD9290904
_publ_section_title
;
Structure prediction by ZEFSAII (Michael W. Deem and Ramdas Pophale) SiO2 
 PCOD9290904
Probable space group: C 2/C
;
_chemical_formula_sum "Si O2"
_cell_formula_units_Z 60
_cell_length_a 10.097517
_cell_length_b 9.771940
_cell_length_c 28.917112
_cell_angle_alpha 90.000000
_cell_angle_beta 75.726541
_cell_angle_gamma 90.000000
_cell_volume 2765.237000
_symmetry_space_group_name_H-M "C 2/C"
_symmetry_group_IT_number 15
_symmetry_cell_setting 'monoclinic'
loop_
_space_group_symop_operation_xyz
x,y,z
-x,y,1/2-z
-x,-y,-z
x,-y,1/2+z
1/2+x,1/2+y,z
1/2-x,1/2+y,1/2-z
1/2-x,1/2-y,-z
1/2+x,1/2-y,1/2+z
loop_
_atom_site_type_symbol
_atom_site_label
_atom_site_fract_x
_atom_site_fract_y
_atom_site_fract_z
Si Si1 0.978362 0.623555 0.449282
Si Si2 0.487739 0.189191 0.548870
Si Si3 0.425144 0.230165 0.822992
Si Si4 0.694627 0.363206 0.574707
Si Si5 0.000000 0.025793 0.250000
Si Si6 0.808090 0.738702 0.653965
Si Si7 0.426705 0.645618 0.881287
Si Si8 0.806952 0.046177 0.690490
O O1 0.923093 0.672279 0.503789
O O2 0.142856 0.635880 0.440609
O O3 0.955020 0.462294 0.443710
O O4 0.927710 0.719332 0.412618
O O5 0.612261 0.295881 0.539656
O O6 0.380093 0.236693 0.596978
O O7 0.352783 0.272813 0.877089
O O8 0.441261 0.370847 0.793685
O O9 0.575471 0.174228 0.823233
O O10 0.332810 0.127086 0.802549
O O11 0.638404 0.515927 0.587275
O O12 0.878233 0.948124 0.234496
O O13 0.664630 0.667973 0.656676
O O14 0.787659 0.890157 0.675689
O O15 0.580387 0.610758 0.853511
#
# Coordination Sequence:
#
# PCOD9290904 Si02
#       8
#     8   8   8   8   4   8   8   8
#     4  11  24  38  61  95 130 171 218 265 310 372
#     4  10  22  42  57  90 137 169 211 273 313 355
#     4  10  22  44  68  89 130 165 200 259 323 381
#     4  11  21  42  62  89 127 172 212 262 315 376
#     4  10  22  42  64 100 128 150 204 270 318 386
#     4  10  23  40  63  93 129 169 214 259 308 371
#     4  12  23  38  67  95 123 171 219 256 311 379
#     4  11  23  44  68  94 126 167 206 260 322 383
#
# _framework density 21.697959000000001
#
# number of rings (size 3 to 8) (size 9 to 14) (size 15 to 20)
#    0.000    1.333    6.667    0.400    3.733    3.200 
#    0.000    0.000    0.000    0.000    0.000    0.000 
#    0.000    0.000    0.000    0.000    0.000    0.000 
#
# Total GULP energy -167672.793902 kJ/mol
# GULP energy per Si atom -5589.093130 kJ/mol
# Density = 2.164857 g / cm^3
# Si number density = 21.697959 Si / 1000 Ang^3
#
#
#
# Elastic Constant Matrix: (Units=GPa)
#
#
# Indices 1 2 3 4 5 6 
#
# 1 114.0192 46.0101 -5.7083 0.0000 21.0971 0.0000
# 2 46.0101 89.3067 4.8070 0.0000 32.1761 0.0000
# 3 -5.7083 4.8070 46.1733 0.0000 14.1461 0.0000
# 4 0.0000 0.0000 0.0000 27.4861 0.0000 20.8074
# 5 21.0971 32.1761 14.1461 0.0000 24.5834 0.0000
# 6 0.0000 0.0000 0.0000 20.8074 0.0000 30.3867
#
#
#
# Elastic Compliance Matrix: (Units=1/GPa)
#
#
# Indices 1 2 3 4 5 6 
#
# 1 0.011883 -0.003365 0.004364 0.000000 -0.008305 0.000000
# 2 -0.003365 0.024620 0.007295 0.000000 -0.033534 0.000000
# 3 0.004364 0.007295 0.030970 0.000000 -0.031114 0.000000
# 4 0.000000 0.000000 0.000000 0.075539 0.000000 -0.051726
# 5 -0.008305 -0.033534 -0.031114 0.000000 0.109600 0.000000
# 6 0.000000 0.000000 0.000000 -0.051726 0.000000 0.068329
#
#
# Mechanical properties :
#
#
# Convention : Reuss Voigt Hill
#
# Bulk Modulus (GPa) = 11.89613 37.74629 24.82121
# Shear Modulus (GPa) = 15.04325 30.11727 22.58026
#
# Velocity S-wave (km/s) = 2.63592 3.72966 3.22943
# Velocity P-wave (km/s) = 3.84169 5.99843 5.03685
#
# Compressibility (1/GPa) = 0.08406098
#
# Stress axis : x y z
#
# Youngs Moduli (GPa) = 84.15044 40.61707 32.28934
#
# Poissons Ratio (x) = 0.13667 -0.14091
# Poissons Ratio (y) = 0.28316 -0.23554
# Poissons Ratio (z) = -0.36722 -0.29629
#
# Static dielectric constant tensor:
#      x y z
#    x 1.817070 0.000000 0.001130 
#    y 0.000000 1.753750 0.000000 
#    z 0.001130 0.000000 1.844190 
# 
# From -- ./inp_files/309966.got.cif
#   From: 2010.05.17/outbox.cif.g08.bks.cpg/sg15_155_cif.got.tgz:309966.got - 2010.06.03 18:47:42.
