data_PCOD9290206
_publ_section_title
;
Structure prediction by ZEFSAII (Michael W. Deem and Ramdas Pophale) SiO2 
 PCOD9290206
Probable space group: C 2/C
;
_chemical_formula_sum "Si O2"
_cell_formula_units_Z 60
_cell_length_a 15.030324
_cell_length_b 11.815003
_cell_length_c 17.817115
_cell_angle_alpha 90.000000
_cell_angle_beta 99.943534
_cell_angle_gamma 90.000000
_cell_volume 3116.493836
_symmetry_space_group_name_H-M "C 2/C"
_symmetry_group_IT_number 15
_symmetry_cell_setting 'monoclinic'
loop_
_space_group_symop_operation_xyz
x,y,z
-x,y,1/2-z
-x,-y,-z
x,-y,1/2+z
1/2+x,1/2+y,z
1/2-x,1/2+y,1/2-z
1/2-x,1/2-y,-z
1/2+x,1/2-y,1/2+z
loop_
_atom_site_type_symbol
_atom_site_label
_atom_site_fract_x
_atom_site_fract_y
_atom_site_fract_z
Si Si1 0.518107 0.866995 0.011384
Si Si2 0.818367 0.084609 0.699152
Si Si3 0.886231 0.343572 0.318177
Si Si4 0.670019 0.680807 0.322202
Si Si5 0.646034 0.717428 0.485922
Si Si6 0.500000 0.033353 0.250000
Si Si7 0.357784 0.320745 0.358444
Si Si8 0.442396 0.773214 0.637153
O O1 0.561881 0.828387 0.095990
O O2 0.417601 0.816712 0.994793
O O3 0.574775 0.814858 0.950336
O O4 0.500000 0.000000 0.000000
O O5 0.716334 0.126961 0.675662
O O6 0.840577 0.090365 0.790777
O O7 0.882579 0.171073 0.661891
O O8 0.824963 0.953636 0.681001
O O9 0.879986 0.243792 0.254444
O O10 0.934554 0.451442 0.286990
O O11 0.622532 0.698653 0.395994
O O12 0.771411 0.735592 0.340390
O O13 0.750000 0.750000 0.500000
O O14 0.636616 0.632069 0.555363
O O15 0.559536 0.116169 0.310613
O O16 0.452649 0.264712 0.349466
#
# Coordination Sequence:
#
# PCOD9290206 Si02
#       8
#     8   8   8   8   8   4   8   8
#     4  11  23  41  65  98 130 166 216 275 320 383
#     4  11  23  40  63  95 132 174 207 269 331 390
#     4  11  25  40  66  97 129 168 219 270 326 381
#     4  10  22  41  63  95 132 163 216 275 324 379
#     4   9  20  39  65  91 122 165 217 259 320 388
#     4  12  20  40  68  92 120 170 218 258 308 390
#     4   9  19  41  64  91 117 171 220 254 315 398
#     4  11  22  40  68  90 126 172 220 252 325 392
#
# _framework density 19.252405
#
# number of rings (size 3 to 8) (size 9 to 14) (size 15 to 20)
#    0.000    1.600    2.667    1.600    5.600    0.533 
#    9.600    1.333    0.000    0.000    0.000    0.000 
#    0.000    0.000    0.000    0.000    0.000    0.000 
#
# Total GULP energy -167099.657754 kJ/mol
# GULP energy per Si atom -5569.988592 kJ/mol
# Density = 1.920859 g / cm^3
# Si number density = 19.252405 Si / 1000 Ang^3
#
#
#
# Elastic Constant Matrix: (Units=GPa)
#
#
# Indices 1 2 3 4 5 6 
#
# 1 74.9585 31.0991 33.2380 0.0000 -10.8124 0.0000
# 2 31.0991 86.0779 39.4888 0.0000 -20.0300 0.0000
# 3 33.2380 39.4888 138.0746 0.0000 -10.2927 0.0000
# 4 0.0000 0.0000 0.0000 8.8627 0.0000 -0.4136
# 5 -10.8124 -20.0300 -10.2927 0.0000 33.5533 0.0000
# 6 0.0000 0.0000 0.0000 -0.4136 0.0000 14.9209
#
#
#
# Elastic Compliance Matrix: (Units=1/GPa)
#
#
# Indices 1 2 3 4 5 6 
#
# 1 0.016578 -0.004341 -0.002604 0.000000 0.001952 0.000000
# 2 -0.004341 0.016316 -0.003070 0.000000 0.007399 0.000000
# 3 -0.002604 -0.003070 0.008748 0.000000 0.000012 0.000000
# 4 0.000000 0.000000 0.000000 0.112979 0.000000 0.003132
# 5 0.001952 0.007399 0.000012 0.000000 0.034853 0.000000
# 6 0.000000 0.000000 0.000000 0.003132 0.000000 0.067107
#
#
# Mechanical properties :
#
#
# Convention : Reuss Voigt Hill
#
# Bulk Modulus (GPa) = 46.26785 56.30699 51.28742
# Shear Modulus (GPa) = 17.61724 24.48638 21.05181
#
# Velocity S-wave (km/s) = 3.02829 3.57018 3.31034
# Velocity P-wave (km/s) = 6.02593 6.80479 6.42717
#
# Compressibility (1/GPa) = 0.02161328
#
# Stress axis : x y z
#
# Youngs Moduli (GPa) = 60.32192 61.29067 114.31080
#
# Poissons Ratio (x) = 0.26604 0.29764
# Poissons Ratio (y) = 0.26183 0.35091
# Poissons Ratio (z) = 0.15706 0.18815
#
# Static dielectric constant tensor:
#      x y z
#    x 1.664960 0.000000 0.007140 
#    y 0.000000 1.652080 0.000000 
#    z 0.007140 0.000000 1.783440 
# 
# From -- ./inp_files/204082.got.cif
#   From: 2010.05.17/outbox.cif.g08.bks.cpg/sg15_103_cif.got.tgz:204082.got - 2010.06.03 18:47:42.
