data_PCOD9290595
_publ_section_title
;
Structure prediction by ZEFSAII (Michael W. Deem and Ramdas Pophale) SiO2 
 PCOD9290595
Probable space group: C 2/C
;
_chemical_formula_sum "Si O2"
_cell_formula_units_Z 64
_cell_length_a 8.954650
_cell_length_b 30.054828
_cell_length_c 22.547073
_cell_angle_alpha 90.000000
_cell_angle_beta 29.176570
_cell_angle_gamma 90.000000
_cell_volume 2958.216927
_symmetry_space_group_name_H-M "C 2/C"
_symmetry_group_IT_number 15
_symmetry_cell_setting 'monoclinic'
loop_
_space_group_symop_operation_xyz
x,y,z
-x,y,1/2-z
-x,-y,-z
x,-y,1/2+z
1/2+x,1/2+y,z
1/2-x,1/2+y,1/2-z
1/2-x,1/2-y,-z
1/2+x,1/2-y,1/2+z
loop_
_atom_site_type_symbol
_atom_site_label
_atom_site_fract_x
_atom_site_fract_y
_atom_site_fract_z
Si Si1 0.268553 0.739535 0.199453
Si Si2 0.480909 0.051539 0.084794
Si Si3 0.314886 0.798259 0.953118
Si Si4 0.269501 0.956945 0.118221
Si Si5 0.778134 0.809684 0.051587
Si Si6 0.754624 0.532299 0.381681
Si Si7 0.761440 0.645582 0.122864
Si Si8 0.184609 0.103319 0.025501
O O1 0.498116 0.712068 0.076682
O O2 0.000000 0.759368 0.250000
O O3 0.077505 0.708467 0.311357
O O4 0.483698 0.776930 0.155878
O O5 0.556016 0.046873 0.126694
O O6 0.318144 0.097858 0.132486
O O7 0.299047 0.009038 0.122823
O O8 0.764548 0.051106 0.939942
O O9 0.433256 0.827312 0.967677
O O10 0.000358 0.813408 0.031290
O O11 0.250000 0.750000 0.000000
O O12 0.000000 0.937254 0.250000
O O13 0.574762 0.933532 0.036029
O O14 0.695547 0.860117 0.062354
O O15 0.500000 0.500000 0.500000
O O16 0.593379 0.574551 0.405318
O O17 0.000000 0.512123 0.250000
O O18 0.500000 0.670201 0.250000
O O19 0.648019 0.633682 0.096947
#
# Coordination Sequence:
#
# PCOD9290595 Si02
#       8
#     8   8   8   8   8   8   8   8
#     4   9  21  40  68  95 129 181 219 282 358 420
#     4  10  22  41  67  96 137 179 231 289 348 412
#     4  11  25  40  65  96 131 176 222 281 349 414
#     4  10  22  41  67  98 139 184 233 280 355 430
#     4  10  22  42  67  96 135 170 229 282 341 422
#     4  12  26  43  71 104 143 188 240 296 363 429
#     4  11  23  39  67  98 131 170 228 292 341 410
#     4  11  24  42  66 103 129 183 229 290 349 414
#
# _framework density 21.634654000000001
#
# number of rings (size 3 to 8) (size 9 to 14) (size 15 to 20)
#    0.000    1.500    1.250    2.625    8.750    2.000 
#    2.250    0.000    5.500    0.000    0.000    0.000 
#    0.000    0.000    0.000    0.000    0.000    0.000 
#
# Total GULP energy -178421.332655 kJ/mol
# GULP energy per Si atom -5575.666645 kJ/mol
# Density = 2.158541 g / cm^3
# Si number density = 21.634654 Si / 1000 Ang^3
#
#
#
# Elastic Constant Matrix: (Units=GPa)
#
#
# Indices 1 2 3 4 5 6 
#
# 1 119.3852 30.6519 31.7961 -0.0002 9.9465 -0.0011
# 2 30.6519 85.4047 -0.5981 0.0021 -16.4123 -0.0002
# 3 31.7961 -0.5981 73.4431 -0.0083 3.2284 0.0136
# 4 -0.0002 0.0021 -0.0083 10.7928 0.0020 5.4291
# 5 9.9465 -16.4123 3.2284 0.0020 24.3838 -0.0013
# 6 -0.0011 -0.0002 0.0136 5.4291 -0.0013 34.1671
#
#
#
# Elastic Compliance Matrix: (Units=1/GPa)
#
#
# Indices 1 2 3 4 5 6 
#
# 1 0.011835 -0.005842 -0.004814 -0.000002 -0.008123 0.000002
# 2 -0.005842 0.016339 0.002086 -0.000004 0.013104 0.000000
# 3 -0.004814 0.002086 0.015660 0.000016 0.001295 -0.000009
# 4 -0.000002 -0.000004 0.000016 0.100703 -0.000013 -0.016002
# 5 -0.008123 0.013104 0.001295 -0.000013 0.052973 0.000003
# 6 0.000002 0.000000 -0.000009 -0.016002 0.000003 0.031810
#
#
# Mechanical properties :
#
#
# Convention : Reuss Voigt Hill
#
# Bulk Modulus (GPa) = 37.46232 44.65920 41.06076
# Shear Modulus (GPa) = 19.58025 28.29430 23.93728
#
# Velocity S-wave (km/s) = 3.01165 3.62031 3.32992
# Velocity P-wave (km/s) = 5.42650 6.17760 5.81419
#
# Compressibility (1/GPa) = 0.02669349
#
# Stress axis : x y z
#
# Youngs Moduli (GPa) = 84.49355 61.20469 63.85538
#
# Poissons Ratio (x) = 0.35758 0.30743
# Poissons Ratio (y) = 0.49364 -0.13323
# Poissons Ratio (z) = 0.40679 -0.12770
#
# Static dielectric constant tensor:
#      x y z
#    x 1.885070 0.000000 0.003170 
#    y 0.000000 1.771570 0.000000 
#    z 0.003170 0.000000 1.906020 
# 
# From -- ./inp_files/266711.got.cif
#   From: 2010.05.17/outbox.cif.g08.bks.cpg/sg15_134_cif.got.tgz:266711.got - 2010.06.03 18:47:42.
