data_PCOD9290474
_publ_section_title
;
Structure prediction by ZEFSAII (Michael W. Deem and Ramdas Pophale) SiO2 
 PCOD9290474
Probable space group: C 2/C
;
_chemical_formula_sum "Si O2"
_cell_formula_units_Z 52
_cell_length_a 11.575747
_cell_length_b 14.386594
_cell_length_c 22.124030
_cell_angle_alpha 90.000000
_cell_angle_beta 143.043042
_cell_angle_gamma 90.000000
_cell_volume 2215.139018
_symmetry_space_group_name_H-M "C 2/C"
_symmetry_group_IT_number 15
_symmetry_cell_setting 'monoclinic'
loop_
_space_group_symop_operation_xyz
x,y,z
-x,y,1/2-z
-x,-y,-z
x,-y,1/2+z
1/2+x,1/2+y,z
1/2-x,1/2+y,1/2-z
1/2-x,1/2-y,-z
1/2+x,1/2-y,1/2+z
loop_
_atom_site_type_symbol
_atom_site_label
_atom_site_fract_x
_atom_site_fract_y
_atom_site_fract_z
Si Si1 0.233005 0.156047 0.953064
Si Si2 0.270211 0.611482 0.291397
Si Si3 0.929420 0.057774 0.910920
Si Si4 0.147639 0.444641 0.617115
Si Si5 0.000000 0.249916 0.750000
Si Si6 0.643939 0.322047 0.018812
Si Si7 0.615060 0.106421 0.978428
O O1 0.095409 0.084798 0.932798
O O2 0.138965 0.187815 0.850142
O O3 0.250000 0.250000 0.000000
O O4 0.444630 0.112109 0.034428
O O5 0.264269 0.505472 0.313166
O O6 0.273839 0.602234 0.221152
O O7 0.463342 0.648553 0.402215
O O8 0.109556 0.680476 0.249762
O O9 0.867112 0.153408 0.915755
O O10 0.000000 0.000000 0.000000
O O11 0.222689 0.442822 0.580099
O O12 0.083789 0.549814 0.606393
O O13 0.641228 0.212610 0.009624
O O14 0.809004 0.384863 0.057716
#
# Coordination Sequence:
#
# PCOD9290474 Si02
#       7
#     8   8   8   8   4   8   8
#     4  12  23  43  70 100 135 174 229 289 343 398
#     4  11  24  39  67  99 132 168 227 278 342 406
#     4  10  22  41  66  93 129 176 218 278 340 400
#     4  11  23  41  66  96 132 171 220 279 338 398
#     4  12  26  40  72 106 136 178 234 290 344 412
#     4  10  22  43  64  91 131 177 221 267 334 409
#     4  10  23  42  64  89 131 178 215 267 334 407
#
# _framework density 23.474824000000002
#
# number of rings (size 3 to 8) (size 9 to 14) (size 15 to 20)
#    0.000    1.231    1.538    5.538    2.154    4.308 
#    0.000    0.000    0.000    0.000    0.000    0.000 
#    0.000    0.000    0.000    0.000    0.000    0.000 
#
# Total GULP energy -145070.587093 kJ/mol
# GULP energy per Si atom -5579.637965 kJ/mol
# Density = 2.342139 g / cm^3
# Si number density = 23.474824 Si / 1000 Ang^3
#
#
#
# Elastic Constant Matrix: (Units=GPa)
#
#
# Indices 1 2 3 4 5 6 
#
# 1 102.0936 34.7244 4.4278 0.0000 -12.4111 0.0000
# 2 34.7244 91.8005 15.2736 0.0000 6.2907 0.0000
# 3 4.4278 15.2736 64.6578 0.0001 -20.7019 0.0000
# 4 0.0000 0.0000 0.0001 15.3174 0.0000 -0.6652
# 5 -12.4111 6.2907 -20.7019 0.0000 32.2874 0.0000
# 6 0.0000 0.0000 0.0000 -0.6652 0.0000 31.9414
#
#
#
# Elastic Compliance Matrix: (Units=1/GPa)
#
#
# Indices 1 2 3 4 5 6 
#
# 1 0.012607 -0.005821 0.003053 0.000000 0.007938 0.000000
# 2 -0.005821 0.014689 -0.005919 0.000000 -0.008895 0.000000
# 3 0.003053 -0.005919 0.021895 0.000000 0.016365 0.000000
# 4 0.000000 0.000000 0.000000 0.065344 0.000000 0.001361
# 5 0.007938 -0.008895 0.016365 0.000000 0.046249 0.000000
# 6 0.000000 0.000000 0.000000 0.001361 0.000000 0.031336
#
#
# Mechanical properties :
#
#
# Convention : Reuss Voigt Hill
#
# Bulk Modulus (GPa) = 31.42874 40.82261 36.12567
# Shear Modulus (GPa) = 22.71691 29.51764 26.11728
#
# Velocity S-wave (km/s) = 3.11418 3.54985 3.33913
# Velocity P-wave (km/s) = 5.13305 5.85061 5.50354
#
# Compressibility (1/GPa) = 0.03181802
#
# Stress axis : x y z
#
# Youngs Moduli (GPa) = 79.31936 68.07684 45.67244
#
# Poissons Ratio (x) = 0.39626 -0.13945
# Poissons Ratio (y) = 0.46170 0.27034
# Poissons Ratio (z) = -0.24217 0.40296
#
# Static dielectric constant tensor:
#      x y z
#    x 2.009890 0.000000 0.057670 
#    y 0.000000 2.043320 0.000000 
#    z 0.057670 0.000000 1.886180 
# 
# From -- ./inp_files/269994.got.cif
#   From: 2010.05.17/outbox.cif.g08.bks.cpg/sg15_135_cif.got.tgz:269994.got - 2010.06.03 18:47:42.
