data_PCOD9290514
_publ_section_title
;
Structure prediction by ZEFSAII (Michael W. Deem and Ramdas Pophale) SiO2 
 PCOD9290514
Probable space group: C 2/C
;
_chemical_formula_sum "Si O2"
_cell_formula_units_Z 52
_cell_length_a 9.587445
_cell_length_b 16.323923
_cell_length_c 17.704212
_cell_angle_alpha 90.000000
_cell_angle_beta 127.644869
_cell_angle_gamma 90.000000
_cell_volume 2193.945718
_symmetry_space_group_name_H-M "C 2/C"
_symmetry_group_IT_number 15
_symmetry_cell_setting 'monoclinic'
loop_
_space_group_symop_operation_xyz
x,y,z
-x,y,1/2-z
-x,-y,-z
x,-y,1/2+z
1/2+x,1/2+y,z
1/2-x,1/2+y,1/2-z
1/2-x,1/2-y,-z
1/2+x,1/2-y,1/2+z
loop_
_atom_site_type_symbol
_atom_site_label
_atom_site_fract_x
_atom_site_fract_y
_atom_site_fract_z
Si Si1 0.522338 0.101511 0.459227
Si Si2 0.605688 0.213396 0.216058
Si Si3 0.119945 0.826579 0.440379
Si Si4 0.400831 0.583326 0.989016
Si Si5 0.998105 0.427159 0.115781
Si Si6 0.007096 0.820979 0.833457
Si Si7 0.000000 0.333119 0.250000
O O1 0.434345 0.165569 0.374164
O O2 0.735666 0.102550 0.524441
O O3 0.487157 0.123933 0.534632
O O4 0.452967 0.014893 0.403661
O O5 0.500000 0.172255 0.250000
O O6 0.506295 0.299368 0.169358
O O7 0.813137 0.208431 0.296511
O O8 0.250000 0.750000 0.500000
O O9 0.993370 0.849832 0.466568
O O10 0.420804 0.619081 0.079905
O O11 0.500000 0.500000 0.000000
O O12 0.194585 0.567598 0.910694
O O13 0.100638 0.387663 0.220445
O O14 0.098021 0.734673 0.836981
O O15 0.000000 0.866049 0.750000
#
# Coordination Sequence:
#
# PCOD9290514 Si02
#       7
#     8   8   8   8   8   8   4
#     4  10  23  42  67  96 138 176 226 278 348 420
#     4  11  23  38  67  96 132 177 223 283 336 403
#     4  10  22  41  66  98 131 176 227 277 340 415
#     4  12  24  43  70  97 136 180 229 281 351 416
#     4  11  24  43  66  99 133 182 224 284 350 412
#     4  10  24  42  61  99 131 175 227 280 334 410
#     4  10  26  40  70  94 136 168 236 288 340 406
#
# _framework density 23.701588999999998
#
# number of rings (size 3 to 8) (size 9 to 14) (size 15 to 20)
#    0.462    0.923    1.538    3.692    7.538    0.615 
#    0.000    0.769    0.000    0.000    0.000    0.000 
#    0.000    0.000    0.000    0.000    0.000    0.000 
#
# Total GULP energy -144904.431642 kJ/mol
# GULP energy per Si atom -5573.247371 kJ/mol
# Density = 2.364764 g / cm^3
# Si number density = 23.701589 Si / 1000 Ang^3
#
#
#
# Elastic Constant Matrix: (Units=GPa)
#
#
# Indices 1 2 3 4 5 6 
#
# 1 117.0078 2.7111 28.0035 0.0000 -11.0641 0.0000
# 2 2.7111 73.0490 37.3821 0.0000 -19.0089 0.0000
# 3 28.0035 37.3821 94.4920 0.0000 -33.3887 0.0000
# 4 0.0000 0.0000 0.0000 29.4968 0.0000 -12.1699
# 5 -11.0641 -19.0089 -33.3887 0.0000 62.4998 0.0000
# 6 0.0000 0.0000 0.0000 -12.1699 0.0000 34.8911
#
#
#
# Elastic Compliance Matrix: (Units=1/GPa)
#
#
# Indices 1 2 3 4 5 6 
#
# 1 0.009309 0.001374 -0.003171 0.000000 0.000372 0.000000
# 2 0.001374 0.017565 -0.006635 0.000000 0.002041 0.000000
# 3 -0.003171 -0.006635 0.016316 0.000000 0.006137 0.000000
# 4 0.000000 0.000000 0.000000 0.039601 0.000000 0.013813
# 5 0.000372 0.002041 0.006137 0.000000 0.019965 0.000000
# 6 0.000000 0.000000 0.000000 0.013813 0.000000 0.033478
#
#
# Mechanical properties :
#
#
# Convention : Reuss Voigt Hill
#
# Bulk Modulus (GPa) = 37.98536 46.74911 42.36724
# Shear Modulus (GPa) = 30.88843 39.80768 35.34806
#
# Velocity S-wave (km/s) = 3.61393 4.10266 3.86603
# Velocity P-wave (km/s) = 5.78579 6.49687 6.15161
#
# Compressibility (1/GPa) = 0.02632593
#
# Stress axis : x y z
#
# Youngs Moduli (GPa) = 107.42703 56.93180 61.28970
#
# Poissons Ratio (x) = -0.07822 0.19434
# Poissons Ratio (y) = -0.14760 0.40665
# Poissons Ratio (z) = 0.34064 0.37773
#
# Static dielectric constant tensor:
#      x y z
#    x 1.955640 0.000000 0.037780 
#    y 0.000000 2.051340 0.000000 
#    z 0.037780 0.000000 2.039800 
# 
# From -- ./inp_files/191154.got.cif
#   From: 2010.05.17/outbox.cif.g08.bks.cpg/sg15_96_cif.got.tgz:191154.got - 2010.06.03 18:47:42.
