data_PCOD9290211
_publ_section_title
;
Structure prediction by ZEFSAII (Michael W. Deem and Ramdas Pophale) SiO2 
 PCOD9290211
Probable space group: C 2/C
;
_chemical_formula_sum "Si O2"
_cell_formula_units_Z 40
_cell_length_a 18.425273
_cell_length_b 7.677800
_cell_length_c 15.154097
_cell_angle_alpha 90.000000
_cell_angle_beta 58.844751
_cell_angle_gamma 90.000000
_cell_volume 1834.582046
_symmetry_space_group_name_H-M "C 2/C"
_symmetry_group_IT_number 15
_symmetry_cell_setting 'monoclinic'
loop_
_space_group_symop_operation_xyz
x,y,z
-x,y,1/2-z
-x,-y,-z
x,-y,1/2+z
1/2+x,1/2+y,z
1/2-x,1/2+y,1/2-z
1/2-x,1/2-y,-z
1/2+x,1/2-y,1/2+z
loop_
_atom_site_type_symbol
_atom_site_label
_atom_site_fract_x
_atom_site_fract_y
_atom_site_fract_z
Si Si1 0.858787 0.556488 0.702343
Si Si2 0.467735 0.080279 0.372189
Si Si3 0.757484 0.736758 0.353992
Si Si4 0.630735 0.416360 0.066872
Si Si5 0.155876 0.711605 0.594723
O O1 0.814266 0.373866 0.752246
O O2 0.808555 0.644695 0.655592
O O3 0.849668 0.673818 0.797059
O O4 0.956533 0.511868 0.623553
O O5 0.500000 0.080858 0.250000
O O6 0.384702 0.958655 0.424854
O O7 0.442588 0.277804 0.409475
O O8 0.701819 0.602452 0.446616
O O9 0.820349 0.843951 0.377417
O O10 0.604471 0.613805 0.101265
O O11 0.250000 0.750000 0.500000
#
# Coordination Sequence:
#
# PCOD9290211 Si02
#       5
#     8   8   8   8   8
#     4  11  23  43  62 100 135 168 224 279 323 390
#     4  10  22  41  63  96 133 166 219 276 323 388
#     4  11  22  40  65  94 128 172 217 267 331 391
#     4  11  21  41  69  92 123 179 216 260 338 396
#     4  11  20  40  70  93 127 171 220 267 326 401
#
# _framework density 21.803329999999999
#
# number of rings (size 3 to 8) (size 9 to 14) (size 15 to 20)
#    0.000    1.200    6.000    2.400    0.000    3.200 
#    3.600    1.000    0.000    0.000    0.000    0.000 
#    0.000    0.000    0.000    0.000    0.000    0.000 
#
# Total GULP energy -111867.298663 kJ/mol
# GULP energy per Si atom -5593.364933 kJ/mol
# Density = 2.175371 g / cm^3
# Si number density = 21.803330 Si / 1000 Ang^3
#
#
#
# Elastic Constant Matrix: (Units=GPa)
#
#
# Indices 1 2 3 4 5 6 
#
# 1 86.2421 10.6131 23.2935 0.0000 -11.2271 0.0001
# 2 10.6131 90.5492 16.0241 0.0000 -9.3713 0.0001
# 3 23.2935 16.0241 56.6384 0.0000 -10.9340 0.0000
# 4 0.0000 0.0000 0.0000 30.2516 0.0000 -7.3398
# 5 -11.2271 -9.3713 -10.9340 0.0000 29.6413 0.0000
# 6 0.0001 0.0001 0.0000 -7.3398 0.0000 38.5375
#
#
#
# Elastic Compliance Matrix: (Units=1/GPa)
#
#
# Indices 1 2 3 4 5 6 
#
# 1 0.013343 -0.000393 -0.004764 0.000000 0.003172 0.000000
# 2 -0.000393 0.011834 -0.002684 0.000000 0.002603 0.000000
# 3 -0.004764 -0.002684 0.021385 0.000000 0.005235 0.000000
# 4 0.000000 0.000000 0.000000 0.034658 0.000000 0.006601
# 5 0.003172 0.002603 0.005235 0.000000 0.037692 0.000000
# 6 0.000000 0.000000 0.000000 0.006601 0.000000 0.027206
#
#
# Mechanical properties :
#
#
# Convention : Reuss Voigt Hill
#
# Bulk Modulus (GPa) = 32.38244 37.03233 34.70738
# Shear Modulus (GPa) = 29.05384 31.91935 30.48659
#
# Velocity S-wave (km/s) = 3.65436 3.83033 3.74338
# Velocity P-wave (km/s) = 5.71752 6.04843 5.88530
#
# Compressibility (1/GPa) = 0.03088094
#
# Stress axis : x y z
#
# Youngs Moduli (GPa) = 74.94369 84.50159 46.76101
#
# Poissons Ratio (x) = 0.03317 0.22278
# Poissons Ratio (y) = 0.02942 0.12552
# Poissons Ratio (z) = 0.35705 0.22682
#
# Static dielectric constant tensor:
#      x y z
#    x 1.810360 0.000000 -0.006750 
#    y 0.000000 1.788430 0.000000 
#    z -0.006750 0.000000 1.810550 
# 
# From -- ./inp_files/159087.got.cif
#   From: 2010.05.17/outbox.cif.g08.bks.cpg/sg15_80_cif.got.tgz:159087.got - 2010.06.03 18:47:42.
