data_PCOD9290669
_publ_section_title
;
Structure prediction by ZEFSAII (Michael W. Deem and Ramdas Pophale) SiO2 
 PCOD9290669
Probable space group: C 2/C
;
_chemical_formula_sum "Si O2"
_cell_formula_units_Z 48
_cell_length_a 11.863792
_cell_length_b 21.985151
_cell_length_c 9.200410
_cell_angle_alpha 90.000000
_cell_angle_beta 80.437938
_cell_angle_gamma 90.000000
_cell_volume 2366.376629
_symmetry_space_group_name_H-M "C 2/C"
_symmetry_group_IT_number 15
_symmetry_cell_setting 'monoclinic'
loop_
_space_group_symop_operation_xyz
x,y,z
-x,y,1/2-z
-x,-y,-z
x,-y,1/2+z
1/2+x,1/2+y,z
1/2-x,1/2+y,1/2-z
1/2-x,1/2-y,-z
1/2+x,1/2-y,1/2+z
loop_
_atom_site_type_symbol
_atom_site_label
_atom_site_fract_x
_atom_site_fract_y
_atom_site_fract_z
Si Si1 0.480162 0.902397 0.080717
Si Si2 0.247825 0.557003 0.019637
Si Si3 0.799209 0.562555 0.131461
Si Si4 0.584861 0.219606 0.610545
Si Si5 0.811159 0.160054 0.534236
Si Si6 0.995175 0.064435 0.919520
O O1 0.500000 0.914695 0.250000
O O2 0.511305 0.831946 0.046968
O O3 0.353220 0.915141 0.055103
O O4 0.572671 0.937725 0.961869
O O5 0.208785 0.552294 0.195380
O O6 0.263732 0.490809 0.943150
O O7 0.369637 0.590518 0.985583
O O8 0.740927 0.626158 0.096821
O O9 0.500000 0.243989 0.750000
O O10 0.695700 0.180983 0.643621
O O11 0.628088 0.276433 0.511309
O O12 0.902293 0.112027 0.575103
O O13 0.000000 0.049881 0.750000
O O14 0.000000 0.000000 0.000000
#
# Coordination Sequence:
#
# PCOD9290669 Si02
#       6
#     8   8   8   8   8   8
#     4  10  22  41  68  95 132 173 219 270 321 385
#     4  12  24  39  64 100 130 176 211 267 332 387
#     4  11  23  39  66  95 138 167 219 267 322 402
#     4   9  21  41  72  89 129 175 222 267 324 385
#     4  10  23  43  65 100 126 178 220 266 326 389
#     4  12  27  42  66  96 139 170 219 271 330 400
#
# _framework density 20.284175000000001
#
# number of rings (size 3 to 8) (size 9 to 14) (size 15 to 20)
#    0.000    1.333    1.667    3.000    9.333    0.000 
#    0.000    5.833    0.000    0.000    0.000    0.000 
#    0.000    0.000    0.000    0.000    0.000    0.000 
#
# Total GULP energy -133864.530610 kJ/mol
# GULP energy per Si atom -5577.688775 kJ/mol
# Density = 2.023801 g / cm^3
# Si number density = 20.284175 Si / 1000 Ang^3
#
#
#
# Elastic Constant Matrix: (Units=GPa)
#
#
# Indices 1 2 3 4 5 6 
#
# 1 144.0447 39.4161 49.0265 0.0000 -4.8448 0.0000
# 2 39.4161 72.5881 30.1151 0.0000 1.3617 0.0000
# 3 49.0265 30.1151 144.5851 0.0000 1.5335 0.0000
# 4 0.0000 0.0000 0.0000 12.2428 0.0000 -9.4073
# 5 -4.8448 1.3617 1.5335 0.0000 29.4939 0.0000
# 6 0.0000 0.0000 0.0000 -9.4073 0.0000 30.1083
#
#
#
# Elastic Compliance Matrix: (Units=1/GPa)
#
#
# Indices 1 2 3 4 5 6 
#
# 1 0.008818 -0.003911 -0.002194 0.000000 0.001743 0.000000
# 2 -0.003911 0.016822 -0.002164 0.000000 -0.001307 0.000000
# 3 -0.002194 -0.002164 0.008118 0.000000 -0.000683 0.000000
# 4 0.000000 0.000000 0.000000 0.107487 0.000000 0.033584
# 5 0.001743 -0.001307 -0.000683 0.000000 0.034288 0.000000
# 6 0.000000 0.000000 0.000000 0.033584 0.000000 0.043707
#
#
# Mechanical properties :
#
#
# Convention : Reuss Voigt Hill
#
# Bulk Modulus (GPa) = 58.06810 66.48148 62.27479
# Shear Modulus (GPa) = 20.70247 30.54632 25.62439
#
# Velocity S-wave (km/s) = 3.19818 3.88483 3.55811
# Velocity P-wave (km/s) = 6.50594 7.27796 6.90275
#
# Compressibility (1/GPa) = 0.01722116
#
# Stress axis : x y z
#
# Youngs Moduli (GPa) = 113.40802 59.44548 123.17966
#
# Poissons Ratio (x) = 0.23247 0.27025
# Poissons Ratio (y) = 0.44349 0.26655
# Poissons Ratio (z) = 0.24881 0.12864
#
# Static dielectric constant tensor:
#      x y z
#    x 1.808600 0.000000 -0.054110 
#    y 0.000000 1.771970 0.000000 
#    z -0.054110 0.000000 1.741510 
# 
# From -- ./inp_files/31922.got.cif
#   From: 2010.05.17/outbox.cif.g08.bks.cpg/sg15_16_cif.got.tgz:31922.got - 2010.06.03 18:47:42.
