data_PCOD9290086
_publ_section_title
;
Structure prediction by ZEFSAII (Michael W. Deem and Ramdas Pophale) SiO2 
 PCOD9290086
Probable space group: C 2/C
;
_chemical_formula_sum "Si O2"
_cell_formula_units_Z 40
_cell_length_a 17.104014
_cell_length_b 8.172909
_cell_length_c 23.059185
_cell_angle_alpha 90.000000
_cell_angle_beta 32.677917
_cell_angle_gamma 90.000000
_cell_volume 1740.382923
_symmetry_space_group_name_H-M "C 2/C"
_symmetry_group_IT_number 15
_symmetry_cell_setting 'monoclinic'
loop_
_space_group_symop_operation_xyz
x,y,z
-x,y,1/2-z
-x,-y,-z
x,-y,1/2+z
1/2+x,1/2+y,z
1/2-x,1/2+y,1/2-z
1/2-x,1/2-y,-z
1/2+x,1/2-y,1/2+z
loop_
_atom_site_type_symbol
_atom_site_label
_atom_site_fract_x
_atom_site_fract_y
_atom_site_fract_z
Si Si1 0.047283 0.091900 0.626908
Si Si2 0.000000 0.163375 0.250000
Si Si3 0.000000 0.349330 0.750000
Si Si4 0.752514 0.771138 0.176105
Si Si5 0.700931 0.096077 0.829655
Si Si6 0.183662 0.088444 0.416040
O O1 0.125038 0.086031 0.517570
O O2 0.072648 0.245734 0.652626
O O3 0.875568 0.092341 0.723218
O O4 0.076515 0.942207 0.651699
O O5 0.865556 0.241767 0.300327
O O6 0.859681 0.427073 0.808725
O O7 0.668954 0.832018 0.286100
O O8 0.833055 0.596188 0.138046
O O9 0.856061 0.921929 0.093523
O O10 0.654015 0.236692 0.904065
#
# Coordination Sequence:
#
# PCOD9290086 Si02
#       6
#     8   4   4   8   8   8
#     4   9  20  39  63  92 124 163 201 252 311 359
#     4   9  21  40  62  91 127 158 201 257 302 361
#     4   9  19  36  62  93 127 158 203 255 306 359
#     4  11  21  40  62  88 123 164 202 250 307 356
#     4  10  22  41  61  89 127 160 202 256 306 358
#     4  11  21  38  67  89 122 166 206 248 306 370
#
# _framework density 22.983446000000001
#
# number of rings (size 3 to 8) (size 9 to 14) (size 15 to 20)
#    0.000    2.000    2.000    2.400    0.000    1.600 
#    0.000    9.000    0.000    0.000    0.000    0.000 
#    0.000    0.000    0.000    0.000    0.000    0.000 
#
# Total GULP energy -111560.582540 kJ/mol
# GULP energy per Si atom -5578.029127 kJ/mol
# Density = 2.293113 g / cm^3
# Si number density = 22.983446 Si / 1000 Ang^3
#
#
#
# Elastic Constant Matrix: (Units=GPa)
#
#
# Indices 1 2 3 4 5 6 
#
# 1 99.1889 39.2079 25.9803 0.0000 27.4936 0.0000
# 2 39.2079 208.0721 86.6177 -0.0001 35.6894 0.0000
# 3 25.9803 86.6177 120.0541 -0.0002 47.0121 0.0000
# 4 0.0000 -0.0001 -0.0002 38.4351 0.0001 -4.9156
# 5 27.4936 35.6894 47.0121 0.0001 54.3027 0.0000
# 6 0.0000 0.0000 0.0000 -4.9156 0.0000 21.5334
#
#
#
# Elastic Compliance Matrix: (Units=1/GPa)
#
#
# Indices 1 2 3 4 5 6 
#
# 1 0.012111 -0.001632 0.000814 0.000000 -0.005764 0.000000
# 2 -0.001632 0.007093 -0.004936 0.000000 0.000438 0.000000
# 3 0.000814 -0.004936 0.016045 0.000000 -0.011059 0.000000
# 4 0.000000 0.000000 0.000000 0.026800 0.000000 0.006118
# 5 -0.005764 0.000438 -0.011059 0.000000 0.030620 0.000000
# 6 0.000000 0.000000 0.000000 0.006118 0.000000 0.047836
#
#
# Mechanical properties :
#
#
# Convention : Reuss Voigt Hill
#
# Bulk Modulus (GPa) = 42.12098 81.21411 61.66755
# Shear Modulus (GPa) = 31.26382 41.22152 36.24267
#
# Velocity S-wave (km/s) = 3.69219 4.23960 3.97533
# Velocity P-wave (km/s) = 6.04507 7.70573 6.92536
#
# Compressibility (1/GPa) = 0.02374114
#
# Stress axis : x y z
#
# Youngs Moduli (GPa) = 82.56624 140.97848 62.32349
#
# Poissons Ratio (x) = 0.23013 -0.05072
# Poissons Ratio (y) = 0.13478 0.30762
# Poissons Ratio (z) = -0.06719 0.69585
#
# Static dielectric constant tensor:
#      x y z
#    x 1.901200 0.000000 -0.015550 
#    y 0.000000 1.969440 0.000000 
#    z -0.015550 0.000000 1.787070 
# 
# From -- ./inp_files/102728.got.cif
#   From: 2010.05.17/outbox.cif.g08.bks.cpg/sg15_52_cif.got.tgz:102728.got - 2010.06.03 18:47:42.
