data_PCOD9290027
_publ_section_title
;
Structure prediction by ZEFSAII (Michael W. Deem and Ramdas Pophale) SiO2 
 PCOD9290027
Probable space group: C 2/C
;
_chemical_formula_sum "Si O2"
_cell_formula_units_Z 60
_cell_length_a 21.856198
_cell_length_b 12.030199
_cell_length_c 17.337385
_cell_angle_alpha 90.000000
_cell_angle_beta 144.121541
_cell_angle_gamma 90.000000
_cell_volume 2671.645680
_symmetry_space_group_name_H-M "C 2/C"
_symmetry_group_IT_number 15
_symmetry_cell_setting 'monoclinic'
loop_
_space_group_symop_operation_xyz
x,y,z
-x,y,1/2-z
-x,-y,-z
x,-y,1/2+z
1/2+x,1/2+y,z
1/2-x,1/2+y,1/2-z
1/2-x,1/2-y,-z
1/2+x,1/2-y,1/2+z
loop_
_atom_site_type_symbol
_atom_site_label
_atom_site_fract_x
_atom_site_fract_y
_atom_site_fract_z
Si Si1 0.690321 0.083996 0.866694
Si Si2 0.912069 0.577963 0.008317
Si Si3 0.981719 0.928482 0.141525
Si Si4 0.000000 0.512031 0.750000
Si Si5 0.732438 0.667575 0.054443
Si Si6 0.383387 0.345055 0.484937
Si Si7 0.986172 0.642460 0.931303
Si Si8 0.317044 0.339421 0.240866
O O1 0.790907 0.160902 0.954366
O O2 0.618892 0.099525 0.717546
O O3 0.601167 0.089811 0.840815
O O4 0.733814 0.959326 0.923964
O O5 0.974800 0.566724 0.151908
O O6 0.929832 0.456085 0.989227
O O7 0.959265 0.661632 0.993048
O O8 0.790374 0.600746 0.893712
O O9 0.000000 0.955047 0.250000
O O10 0.085689 0.888264 0.206133
O O11 0.889432 0.837461 0.048380
O O12 0.940064 0.038282 0.057138
O O13 0.798336 0.714324 0.192946
O O14 0.750000 0.750000 0.000000
O O15 0.467404 0.247156 0.566024
O O16 0.333062 0.347102 0.348249
#
# Coordination Sequence:
#
# PCOD9290027 Si02
#       8
#     8   8   8   4   8   8   8   8
#     4  10  23  46  68 104 143 179 245 294 357 430
#     4  10  23  43  69 104 139 178 246 300 356 423
#     4  11  26  48  67 105 155 185 243 306 362 446
#     4  10  22  40  74  98 142 182 224 312 366 406
#     4  11  24  43  74 108 141 185 233 309 373 423
#     4  11  26  44  70 101 150 199 239 293 364 442
#     4  10  23  45  69 100 137 195 240 298 345 434
#     4  12  25  41  71 107 138 194 242 297 377 430
#
# _framework density 22.458068000000001
#
# number of rings (size 3 to 8) (size 9 to 14) (size 15 to 20)
#    0.000    1.333    2.667    1.200    9.333    2.133 
#    6.000    2.667    0.000    0.000    0.000    0.000 
#    0.000    0.000    0.000    0.000    0.000    0.000 
#
# Total GULP energy -167671.326568 kJ/mol
# GULP energy per Si atom -5589.044219 kJ/mol
# Density = 2.240695 g / cm^3
# Si number density = 22.458068 Si / 1000 Ang^3
#
#
#
# Elastic Constant Matrix: (Units=GPa)
#
#
# Indices 1 2 3 4 5 6 
#
# 1 139.9105 43.2187 26.4451 0.0000 31.9755 0.0000
# 2 43.2187 67.3114 16.6804 0.0000 8.7307 0.0000
# 3 26.4451 16.6804 72.2812 0.0000 7.2052 0.0000
# 4 0.0000 0.0000 0.0000 39.0409 0.0000 5.9702
# 5 31.9755 8.7307 7.2052 0.0000 55.2502 0.0000
# 6 0.0000 0.0000 0.0000 5.9702 0.0000 26.1325
#
#
#
# Elastic Compliance Matrix: (Units=1/GPa)
#
#
# Indices 1 2 3 4 5 6 
#
# 1 0.010341 -0.005508 -0.002029 0.000000 -0.004850 0.000000
# 2 -0.005508 0.018922 -0.002402 0.000000 0.000511 0.000000
# 3 -0.002029 -0.002402 0.015174 0.000000 -0.000425 0.000000
# 4 0.000000 0.000000 0.000000 0.026541 0.000000 -0.006064
# 5 -0.004850 0.000511 -0.000425 0.000000 0.020881 0.000000
# 6 0.000000 0.000000 0.000000 -0.006064 0.000000 0.039652
#
#
# Mechanical properties :
#
#
# Convention : Reuss Voigt Hill
#
# Bulk Modulus (GPa) = 40.71925 50.24349 45.48137
# Shear Modulus (GPa) = 31.33340 36.96197 34.14769
#
# Velocity S-wave (km/s) = 3.73928 4.06127 3.90360
# Velocity P-wave (km/s) = 6.06742 6.66428 6.37284
#
# Compressibility (1/GPa) = 0.02455841
#
# Stress axis : x y z
#
# Youngs Moduli (GPa) = 96.70670 52.84943 65.90253
#
# Poissons Ratio (x) = 0.29107 0.13370
# Poissons Ratio (y) = 0.53262 0.15833
# Poissons Ratio (z) = 0.19620 0.12697
#
# Static dielectric constant tensor:
#      x y z
#    x 1.889240 0.000000 0.006060 
#    y 0.000000 1.843350 0.000000 
#    z 0.006060 0.000000 1.819370 
# 
# From -- ./inp_files/215213.got.cif
#   From: 2010.05.17/outbox.cif.g08.bks.cpg/sg15_108_cif.got.tgz:215213.got - 2010.06.03 18:47:42.
