data_PCOD9290498
_publ_section_title
;
Structure prediction by ZEFSAII (Michael W. Deem and Ramdas Pophale) SiO2 
 PCOD9290498
Probable space group: C 2/C
;
_chemical_formula_sum "Si O2"
_cell_formula_units_Z 64
_cell_length_a 14.110238
_cell_length_b 9.931817
_cell_length_c 26.176086
_cell_angle_alpha 90.000000
_cell_angle_beta 45.123746
_cell_angle_gamma 90.000000
_cell_volume 2599.493372
_symmetry_space_group_name_H-M "C 2/C"
_symmetry_group_IT_number 15
_symmetry_cell_setting 'monoclinic'
loop_
_space_group_symop_operation_xyz
x,y,z
-x,y,1/2-z
-x,-y,-z
x,-y,1/2+z
1/2+x,1/2+y,z
1/2-x,1/2+y,1/2-z
1/2-x,1/2-y,-z
1/2+x,1/2-y,1/2+z
loop_
_atom_site_type_symbol
_atom_site_label
_atom_site_fract_x
_atom_site_fract_y
_atom_site_fract_z
Si Si1 0.847025 0.491883 0.291861
Si Si2 0.783431 0.192420 0.332070
Si Si3 0.796188 0.975080 0.253630
Si Si4 0.364155 0.325793 0.908217
Si Si5 0.158933 0.782025 0.173493
Si Si6 0.562229 0.149546 0.538384
Si Si7 0.927848 0.116561 0.900573
Si Si8 0.471517 0.157805 0.465286
O O1 0.782620 0.352833 0.333717
O O2 0.823993 0.495599 0.239918
O O3 0.791934 0.629893 0.336628
O O4 0.000000 0.483183 0.250000
O O5 0.831035 0.122708 0.261944
O O6 0.877051 0.146148 0.343064
O O7 0.631123 0.145225 0.395674
O O8 0.773415 0.883527 0.312118
O O9 0.919048 0.905676 0.176848
O O10 0.457934 0.214395 0.898426
O O11 0.383532 0.465718 0.930313
O O12 0.207202 0.286354 0.969632
O O13 0.156802 0.830004 0.115814
O O14 0.000000 0.781861 0.250000
O O15 0.462170 0.181411 0.529852
O O16 0.581244 0.988949 0.530253
O O17 0.921175 0.222560 0.948767
#
# Coordination Sequence:
#
# PCOD9290498 Si02
#       8
#     8   8   8   8   8   8   8   8
#     4  11  24  36  58  89 124 175 218 255 298 370
#     4  11  23  39  62  93 128 172 210 256 318 379
#     4  11  22  42  57  90 138 169 208 260 303 391
#     4  10  22  41  66  96 120 165 213 268 324 375
#     4   9  21  39  57  85 130 170 204 251 306 369
#     4   9  22  45  67  90 126 157 218 283 317 375
#     4  11  22  40  65  95 130 171 203 257 323 392
#     4  10  22  43  66  90 125 172 207 266 335 368
#
# _framework density 24.620182
#
# number of rings (size 3 to 8) (size 9 to 14) (size 15 to 20)
#    0.000    1.750    2.500    0.750    7.000    1.000 
#    2.250    0.000    0.000    0.000    0.000    0.000 
#    0.000    0.000    0.000    0.000    0.000    0.000 
#
# Total GULP energy -179023.669717 kJ/mol
# GULP energy per Si atom -5594.489679 kJ/mol
# Density = 2.456415 g / cm^3
# Si number density = 24.620182 Si / 1000 Ang^3
#
#
#
# Elastic Constant Matrix: (Units=GPa)
#
#
# Indices 1 2 3 4 5 6 
#
# 1 173.7480 64.1263 35.0808 0.0000 34.3875 0.0000
# 2 64.1263 167.3262 20.5865 0.0000 30.1303 0.0000
# 3 35.0808 20.5865 53.9192 0.0000 7.8119 0.0000
# 4 0.0000 0.0000 0.0000 30.6372 0.0000 23.1382
# 5 34.3875 30.1303 7.8119 0.0000 37.4616 0.0000
# 6 0.0000 0.0000 0.0000 23.1382 0.0000 23.6636
#
#
#
# Elastic Compliance Matrix: (Units=1/GPa)
#
#
# Indices 1 2 3 4 5 6 
#
# 1 0.008243 -0.001708 -0.003933 0.000000 -0.005373 0.000000
# 2 -0.001708 0.007539 -0.001151 0.000000 -0.004256 0.000000
# 3 -0.003933 -0.001151 0.021538 0.000000 0.000044 0.000000
# 4 0.000000 0.000000 0.000000 0.124802 0.000000 -0.122031
# 5 -0.005373 -0.004256 0.000044 0.000000 0.035040 0.000000
# 6 0.000000 0.000000 0.000000 -0.122031 0.000000 0.161580
#
#
# Mechanical properties :
#
#
# Convention : Reuss Voigt Hill
#
# Bulk Modulus (GPa) = 42.12707 70.50892 56.31800
# Shear Modulus (GPa) = 13.14972 36.69913 24.92443
#
# Velocity S-wave (km/s) = 2.31357 3.86503 3.18521
# Velocity P-wave (km/s) = 4.92796 6.97272 6.03753
#
# Compressibility (1/GPa) = 0.02373770
#
# Stress axis : x y z
#
# Youngs Moduli (GPa) = 121.31170 132.64819 46.42984
#
# Poissons Ratio (x) = 0.22653 0.18259
# Poissons Ratio (y) = 0.20717 0.05342
# Poissons Ratio (z) = 0.47708 0.15263
#
# Static dielectric constant tensor:
#      x y z
#    x 1.978180 0.000000 0.005950 
#    y 0.000000 1.911540 0.000000 
#    z 0.005950 0.000000 2.094420 
# 
# From -- ./inp_files/312900.got.cif
#   From: 2010.05.17/outbox.cif.g08.bks.cpg/sg15_157_cif.got.tgz:312900.got - 2010.06.03 18:47:42.
