data_PCOD9290782
_publ_section_title
;
Structure prediction by ZEFSAII (Michael W. Deem and Ramdas Pophale) SiO2 
 PCOD9290782
Probable space group: C 2/C
;
_chemical_formula_sum "Si O2"
_cell_formula_units_Z 56
_cell_length_a 28.011068
_cell_length_b 9.882405
_cell_length_c 22.549837
_cell_angle_alpha 90.000000
_cell_angle_beta 160.591208
_cell_angle_gamma 90.000000
_cell_volume 2074.310325
_symmetry_space_group_name_H-M "C 2/C"
_symmetry_group_IT_number 15
_symmetry_cell_setting 'monoclinic'
loop_
_space_group_symop_operation_xyz
x,y,z
-x,y,1/2-z
-x,-y,-z
x,-y,1/2+z
1/2+x,1/2+y,z
1/2-x,1/2+y,1/2-z
1/2-x,1/2-y,-z
1/2+x,1/2-y,1/2+z
loop_
_atom_site_type_symbol
_atom_site_label
_atom_site_fract_x
_atom_site_fract_y
_atom_site_fract_z
Si Si1 0.847859 0.427748 0.081466
Si Si2 0.866408 0.246381 0.342830
Si Si3 0.397577 0.846486 0.258105
Si Si4 0.814412 0.978817 0.414916
Si Si5 0.686378 0.021296 0.087797
Si Si6 0.581010 0.609081 0.782942
Si Si7 0.852717 0.251644 0.751138
O O1 0.888645 0.313917 0.178104
O O2 0.000000 0.503344 0.250000
O O3 0.801940 0.394914 0.960946
O O4 0.724891 0.524291 0.961196
O O5 0.939181 0.252805 0.362192
O O6 0.777162 0.109028 0.240271
O O7 0.242164 0.624410 0.782488
O O8 0.991904 0.247922 0.536662
O O9 0.517871 0.965495 0.404600
O O10 0.240920 0.897632 0.092264
O O11 0.978267 0.018424 0.618774
O O12 0.729186 0.118785 0.320239
O O13 0.755295 0.877338 0.155773
O O14 0.500000 0.636693 0.750000
O O15 0.623983 0.736338 0.792209
#
# Coordination Sequence:
#
# PCOD9290782 Si02
#       7
#     8   8   8   8   8   8   8
#     4   9  19  42  71 107 141 184 229 293 358 416
#     4  10  23  45  65  99 139 189 237 287 342 421
#     4   9  21  42  67  97 144 178 237 285 355 412
#     4  10  24  43  68 101 136 185 229 290 345 419
#     4  10  22  41  70 103 137 184 232 297 347 420
#     4  11  22  44  72 107 142 184 239 295 351 427
#     4  11  25  43  68 105 142 187 234 290 355 415
#
# _framework density 26.996924
#
# number of rings (size 3 to 8) (size 9 to 14) (size 15 to 20)
#    0.857    1.143    1.429    0.857    2.000    4.571 
#    0.000    5.000    0.000    0.000    0.000    0.000 
#    0.000    0.000    0.000    0.000    0.000    0.000 
#
# Total GULP energy -156486.826832 kJ/mol
# GULP energy per Si atom -5588.815244 kJ/mol
# Density = 2.693548 g / cm^3
# Si number density = 26.996924 Si / 1000 Ang^3
#
#
#
# Elastic Constant Matrix: (Units=GPa)
#
#
# Indices 1 2 3 4 5 6 
#
# 1 127.1385 29.8673 27.9996 0.0000 -2.2286 0.0000
# 2 29.8673 136.3894 34.4842 0.0000 1.4013 0.0000
# 3 27.9996 34.4842 131.9750 -0.0001 5.1415 -0.0001
# 4 0.0000 0.0000 -0.0001 15.8048 -0.0001 -13.7181
# 5 -2.2286 1.4013 5.1415 -0.0001 44.8548 -0.0001
# 6 0.0000 0.0000 -0.0001 -13.7181 -0.0001 27.2092
#
#
#
# Elastic Compliance Matrix: (Units=1/GPa)
#
#
# Indices 1 2 3 4 5 6 
#
# 1 0.008550 -0.001514 -0.001443 0.000000 0.000638 0.000000
# 2 -0.001514 0.008119 -0.001795 0.000000 -0.000123 0.000000
# 3 -0.001443 -0.001795 0.008391 0.000000 -0.000977 0.000000
# 4 0.000000 0.000000 0.000000 0.112504 0.000000 0.056721
# 5 0.000638 -0.000123 -0.000977 0.000000 0.022442 0.000000
# 6 0.000000 0.000000 0.000000 0.056721 0.000000 0.065349
#
#
# Mechanical properties :
#
#
# Convention : Reuss Voigt Hill
#
# Bulk Modulus (GPa) = 64.29121 64.46724 64.37923
# Shear Modulus (GPa) = 20.82949 37.78390 29.30670
#
# Velocity S-wave (km/s) = 2.78069 3.74513 3.29835
# Velocity P-wave (km/s) = 5.84599 6.52937 6.19711
#
# Compressibility (1/GPa) = 0.01555422
#
# Stress axis : x y z
#
# Youngs Moduli (GPa) = 116.95740 123.17259 119.18138
#
# Poissons Ratio (x) = 0.18648 0.17200
# Poissons Ratio (y) = 0.17707 0.21397
# Poissons Ratio (z) = 0.16880 0.22114
#
# Static dielectric constant tensor:
#      x y z
#    x 2.154210 0.000000 0.003280 
#    y 0.000000 2.108590 0.000000 
#    z 0.003280 0.000000 2.056910 
# 
# From -- ./inp_files/284644.got.cif
#   From: 2010.05.17/outbox.cif.g08.bks.cpg/sg15_143_cif.got.tgz:284644.got - 2010.06.03 18:47:42.
