data_PCOD9290483
_publ_section_title
;
Structure prediction by ZEFSAII (Michael W. Deem and Ramdas Pophale) SiO2 
 PCOD9290483
Probable space group: C 2/C
;
_chemical_formula_sum "Si O2"
_cell_formula_units_Z 40
_cell_length_a 20.722724
_cell_length_b 16.965481
_cell_length_c 11.267493
_cell_angle_alpha 90.000000
_cell_angle_beta 150.724896
_cell_angle_gamma 90.000000
_cell_volume 1937.100992
_symmetry_space_group_name_H-M "C 2/C"
_symmetry_group_IT_number 15
_symmetry_cell_setting 'monoclinic'
loop_
_space_group_symop_operation_xyz
x,y,z
-x,y,1/2-z
-x,-y,-z
x,-y,1/2+z
1/2+x,1/2+y,z
1/2-x,1/2+y,1/2-z
1/2-x,1/2-y,-z
1/2+x,1/2-y,1/2+z
loop_
_atom_site_type_symbol
_atom_site_label
_atom_site_fract_x
_atom_site_fract_y
_atom_site_fract_z
Si Si1 0.526922 0.607865 0.502171
Si Si2 0.915089 0.719951 0.493325
Si Si3 0.364518 0.639967 0.471515
Si Si4 0.958914 0.442447 0.325809
Si Si5 0.675348 0.502227 0.906191
O O1 0.569218 0.695665 0.541154
O O2 0.419578 0.612561 0.434798
O O3 0.647745 0.558418 0.748734
O O4 0.448626 0.556045 0.281957
O O5 0.760248 0.696855 0.248438
O O6 0.984882 0.643223 0.549329
O O7 0.000000 0.727803 0.750000
O O8 0.318408 0.564323 0.475241
O O9 0.500000 0.673045 0.750000
O O10 0.000000 0.456739 0.250000
O O11 0.000000 0.500000 0.500000
O O12 0.802287 0.450036 0.084216
#
# Coordination Sequence:
#
# PCOD9290483 Si02
#       5
#     8   8   8   8   8
#     4  10  23  43  65  94 130 176 219 275 339 401
#     4  11  24  43  67  98 132 168 227 283 337 400
#     4  10  22  43  66  91 133 173 214 280 332 404
#     4  11  23  44  70 101 136 175 224 283 337 402
#     4  10  22  41  66  94 133 175 224 268 336 403
#
# _framework density 20.649414
#
# number of rings (size 3 to 8) (size 9 to 14) (size 15 to 20)
#    0.000    1.600    2.000    2.400    0.000   10.400 
#    3.600    0.000    0.000    0.000    0.000    0.000 
#    0.000    0.000    0.000    0.000    0.000    0.000 
#
# Total GULP energy -111423.039518 kJ/mol
# GULP energy per Si atom -5571.151976 kJ/mol
# Density = 2.060242 g / cm^3
# Si number density = 20.649414 Si / 1000 Ang^3
#
#
#
# Elastic Constant Matrix: (Units=GPa)
#
#
# Indices 1 2 3 4 5 6 
#
# 1 54.9626 17.8486 26.4502 0.0000 -9.4047 0.0000
# 2 17.8486 130.2028 39.8010 0.0000 -1.2044 0.0000
# 3 26.4502 39.8010 120.4483 0.0000 7.5537 0.0000
# 4 0.0000 0.0000 0.0000 4.5212 0.0000 16.1574
# 5 -9.4047 -1.2044 7.5537 0.0000 23.1523 0.0000
# 6 0.0000 0.0000 0.0000 16.1574 0.0000 -10.1530
#
#
#
# Elastic Compliance Matrix: (Units=1/GPa)
#
#
# Indices 1 2 3 4 5 6 
#
# 1 0.023095 -0.001448 -0.005285 0.000000 0.011030 0.000000
# 2 -0.001448 0.008678 -0.002594 0.000000 0.000709 0.000000
# 3 -0.005285 -0.002594 0.010682 0.000000 -0.005767 0.000000
# 4 0.000000 0.000000 0.000000 0.033075 0.000000 0.052636
# 5 0.011030 0.000709 -0.005767 0.000000 0.049591 0.000000
# 6 0.000000 0.000000 0.000000 0.052636 0.000000 -0.014729
#
#
# Mechanical properties :
#
#
# Convention : Reuss Voigt Hill
#
# Bulk Modulus (GPa) = 42.01567 52.64592 47.33080
# Shear Modulus (GPa) = 36.50121 18.27168 27.38644
#
# Velocity S-wave (km/s) = 4.20892 2.97787 3.64573
# Velocity P-wave (km/s) = 6.63410 6.11344 6.37908
#
# Compressibility (1/GPa) = 0.02380064
#
# Stress axis : x y z
#
# Youngs Moduli (GPa) = 43.29894 115.22829 93.61805
#
# Poissons Ratio (x) = 0.16690 0.49475
# Poissons Ratio (y) = 0.06272 0.24286
# Poissons Ratio (z) = 0.22883 0.29892
#
# Static dielectric constant tensor:
#      x y z
#    x 1.768380 0.000000 -0.013230 
#    y 0.000000 1.736030 0.000000 
#    z -0.013230 0.000000 1.116770 
# 
# From -- ./inp_files/87080.got.cif
#   From: 2010.05.17/outbox.cif.g08.bks.cpg/sg15_44_cif.got.tgz:87080.got - 2010.06.03 18:47:42.
