data_PCOD9290266
_publ_section_title
;
Structure prediction by ZEFSAII (Michael W. Deem and Ramdas Pophale) SiO2 
 PCOD9290266
Probable space group: C 2/C
;
_chemical_formula_sum "Si O2"
_cell_formula_units_Z 60
_cell_length_a 22.772674
_cell_length_b 8.370105
_cell_length_c 15.009590
_cell_angle_alpha 90.000000
_cell_angle_beta 99.262923
_cell_angle_gamma 90.000000
_cell_volume 2823.666193
_symmetry_space_group_name_H-M "C 2/C"
_symmetry_group_IT_number 15
_symmetry_cell_setting 'monoclinic'
loop_
_space_group_symop_operation_xyz
x,y,z
-x,y,1/2-z
-x,-y,-z
x,-y,1/2+z
1/2+x,1/2+y,z
1/2-x,1/2+y,1/2-z
1/2-x,1/2-y,-z
1/2+x,1/2-y,1/2+z
loop_
_atom_site_type_symbol
_atom_site_label
_atom_site_fract_x
_atom_site_fract_y
_atom_site_fract_z
Si Si1 0.871447 0.341844 0.371076
Si Si2 0.342048 0.038746 0.202624
Si Si3 0.096844 0.672709 0.040964
Si Si4 0.000000 0.944639 0.750000
Si Si5 0.489853 0.665581 0.441791
Si Si6 0.614660 0.651864 0.731516
Si Si7 0.808550 0.270566 0.072053
Si Si8 0.287017 0.388382 0.757844
O O1 0.881654 0.421250 0.274749
O O2 0.876379 0.495856 0.436304
O O3 0.811851 0.239403 0.336488
O O4 0.921401 0.218423 0.416003
O O5 0.373144 0.207198 0.195435
O O6 0.281857 0.075664 0.243496
O O7 0.321453 0.948837 0.110054
O O8 0.101191 0.759855 0.136235
O O9 0.028930 0.693272 0.994308
O O10 0.136070 0.767416 0.977842
O O11 0.058926 0.047708 0.746600
O O12 0.010231 0.852243 0.844297
O O13 0.500000 0.500000 0.500000
O O14 0.672672 0.545626 0.727597
O O15 0.799178 0.176157 0.161571
O O16 0.750000 0.250000 0.000000
#
# Coordination Sequence:
#
# PCOD9290266 Si02
#       8
#     8   8   8   4   8   8   8   8
#     4  10  22  41  64  94 128 174 215 270 337 396
#     4  10  23  40  65  98 128 175 223 277 345 398
#     4  11  23  42  64  99 134 170 223 275 341 395
#     4  12  24  42  66  98 136 176 236 268 352 398
#     4  12  24  43  68  96 133 179 225 276 333 406
#     4  11  22  43  66  96 134 175 223 283 335 414
#     4  11  23  40  64  97 131 173 222 280 338 405
#     4  11  20  43  69  93 129 178 221 275 347 406
#
# _framework density 21.248971999999998
#
# number of rings (size 3 to 8) (size 9 to 14) (size 15 to 20)
#    0.000    1.067    2.667    5.200    1.867    1.067 
#    4.800    4.000    0.000    0.000    0.000    0.000 
#    0.000    0.000    0.000    0.000    0.000    0.000 
#
# Total GULP energy -167493.592374 kJ/mol
# GULP energy per Si atom -5583.119746 kJ/mol
# Density = 2.120061 g / cm^3
# Si number density = 21.248972 Si / 1000 Ang^3
#
#
#
# Elastic Constant Matrix: (Units=GPa)
#
#
# Indices 1 2 3 4 5 6 
#
# 1 48.7771 -7.3829 23.1330 0.0000 20.0516 0.0000
# 2 -7.3829 68.0345 41.9510 0.0000 25.4424 0.0000
# 3 23.1330 41.9510 116.4429 0.0000 15.5448 0.0000
# 4 0.0000 0.0000 0.0000 49.1526 0.0000 69.2019
# 5 20.0516 25.4424 15.5448 0.0000 40.6284 0.0000
# 6 0.0000 0.0000 0.0000 69.2019 0.0000 180.2350
#
#
#
# Elastic Compliance Matrix: (Units=1/GPa)
#
#
# Indices 1 2 3 4 5 6 
#
# 1 0.044008 0.025191 -0.013503 0.000000 -0.032329 0.000000
# 2 0.025191 0.037834 -0.014556 0.000000 -0.030556 0.000000
# 3 -0.013503 -0.014556 0.015184 0.000000 0.009970 0.000000
# 4 0.000000 0.000000 0.000000 0.044283 0.000000 -0.017002
# 5 -0.032329 -0.030556 0.009970 0.000000 0.055889 0.000000
# 6 0.000000 0.000000 0.000000 -0.017002 0.000000 0.012076
#
#
# Mechanical properties :
#
#
# Convention : Reuss Voigt Hill
#
# Bulk Modulus (GPa) = 10.95401 38.73966 24.84683
# Shear Modulus (GPa) = 20.37163 65.70676 43.03919
#
# Velocity S-wave (km/s) = 3.09967 5.56682 4.50541
# Velocity P-wave (km/s) = 4.23991 7.71947 6.22764
#
# Compressibility (1/GPa) = 0.09129081
#
# Stress axis : x y z
#
# Youngs Moduli (GPa) = 22.72320 26.43093 65.86075
#
# Poissons Ratio (x) = -0.66583 0.88930
# Poissons Ratio (y) = -0.57242 0.95867
# Poissons Ratio (z) = 0.30682 0.38473
#
# Static dielectric constant tensor:
#      x y z
#    x 1.760320 0.000000 0.009960 
#    y 0.000000 1.822590 0.000000 
#    z 0.009960 0.000000 1.774650 
# 
# From -- ./inp_files/171923.got.cif
#   From: 2010.05.17/outbox.cif.g08.bks.cpg/sg15_86_cif.got.tgz:171923.got - 2010.06.03 18:47:42.
