data_PCOD9290084
_publ_section_title
;
Structure prediction by ZEFSAII (Michael W. Deem and Ramdas Pophale) SiO2 
 PCOD9290084
Probable space group: C 2/C
;
_chemical_formula_sum "Si O2"
_cell_formula_units_Z 52
_cell_length_a 20.564864
_cell_length_b 15.344740
_cell_length_c 9.627628
_cell_angle_alpha 90.000000
_cell_angle_beta 49.732645
_cell_angle_gamma 90.000000
_cell_volume 2318.195812
_symmetry_space_group_name_H-M "C 2/C"
_symmetry_group_IT_number 15
_symmetry_cell_setting 'monoclinic'
loop_
_space_group_symop_operation_xyz
x,y,z
-x,y,1/2-z
-x,-y,-z
x,-y,1/2+z
1/2+x,1/2+y,z
1/2-x,1/2+y,1/2-z
1/2-x,1/2-y,-z
1/2+x,1/2-y,1/2+z
loop_
_atom_site_type_symbol
_atom_site_label
_atom_site_fract_x
_atom_site_fract_y
_atom_site_fract_z
Si Si1 0.612868 0.697310 0.456472
Si Si2 0.688075 0.792648 0.792450
Si Si3 0.406363 0.729003 0.314881
Si Si4 0.662531 0.540982 0.071952
Si Si5 0.093118 0.643202 0.159980
Si Si6 0.000000 0.060767 0.750000
Si Si7 0.764236 0.909069 0.318930
O O1 0.713773 0.677271 0.326504
O O2 0.588210 0.753950 0.354271
O O3 0.592922 0.755763 0.617091
O O4 0.550693 0.615952 0.564008
O O5 0.633641 0.850454 0.758967
O O6 0.697511 0.690263 0.727857
O O7 0.642435 0.788151 0.005648
O O8 0.500000 0.711625 0.250000
O O9 0.349405 0.641895 0.374799
O O10 0.570187 0.499823 0.219949
O O11 0.719273 0.475199 0.079454
O O12 0.695406 0.546249 0.870234
O O13 0.000000 0.607739 0.250000
O O14 0.163217 0.602583 0.960652
#
# Coordination Sequence:
#
# PCOD9290084 Si02
#       7
#     8   8   8   8   8   4   8
#     4  11  22  36  61  88 125 163 203 249 307 360
#     4  10  22  41  61  88 123 164 203 252 311 363
#     4  11  23  37  57  92 127 160 202 253 301 363
#     4  11  23  37  56  85 127 162 198 242 305 367
#     4  11  21  40  65  89 112 158 214 257 302 358
#     4  12  22  34  62  92 122 164 208 238 298 368
#     4  10  23  40  59  86 123 161 200 250 304 370
#
# _framework density 22.431235999999998
#
# number of rings (size 3 to 8) (size 9 to 14) (size 15 to 20)
#    0.000    1.231    1.538    6.000    4.308    1.231 
#    0.000    0.769    0.000    0.000    0.000    0.000 
#    0.000    0.000    0.000    0.000    0.000    0.000 
#
# Total GULP energy -145097.192520 kJ/mol
# GULP energy per Si atom -5580.661251 kJ/mol
# Density = 2.238018 g / cm^3
# Si number density = 22.431236 Si / 1000 Ang^3
#
#
#
# Elastic Constant Matrix: (Units=GPa)
#
#
# Indices 1 2 3 4 5 6 
#
# 1 126.4045 15.7632 36.9537 0.0000 -2.4752 0.0000
# 2 15.7632 35.2437 24.2613 0.0000 -0.9401 0.0000
# 3 36.9537 24.2613 78.4395 0.0000 3.2326 0.0000
# 4 0.0000 0.0000 0.0000 22.9194 0.0000 -5.3300
# 5 -2.4752 -0.9401 3.2326 0.0000 37.7485 0.0000
# 6 0.0000 0.0000 0.0000 -5.3300 0.0000 6.1288
#
#
#
# Elastic Compliance Matrix: (Units=1/GPa)
#
#
# Indices 1 2 3 4 5 6 
#
# 1 0.009263 -0.001383 -0.003974 0.000000 0.000913 0.000000
# 2 -0.001383 0.036386 -0.010674 0.000000 0.001730 0.000000
# 3 -0.003974 -0.010674 0.018007 0.000000 -0.002068 0.000000
# 4 0.000000 0.000000 0.000000 0.054692 0.000000 0.047563
# 5 0.000913 0.001730 -0.002068 0.000000 0.026771 0.000000
# 6 0.000000 0.000000 0.000000 0.047563 0.000000 0.204527
#
#
# Mechanical properties :
#
#
# Convention : Reuss Voigt Hill
#
# Bulk Modulus (GPa) = 31.65038 43.78268 37.71653
# Shear Modulus (GPa) = 12.74727 24.23330 18.49028
#
# Velocity S-wave (km/s) = 2.38645 3.29041 2.87419
# Velocity P-wave (km/s) = 4.66199 5.83067 5.27877
#
# Compressibility (1/GPa) = 0.03159520
#
# Stress axis : x y z
#
# Youngs Moduli (GPa) = 107.95397 27.48276 55.53250
#
# Poissons Ratio (x) = 0.03801 0.22068
# Poissons Ratio (y) = 0.14932 0.59275
# Poissons Ratio (z) = 0.42899 0.29335
#
# Static dielectric constant tensor:
#      x y z
#    x 1.717070 0.000000 -0.026440 
#    y 0.000000 1.882530 0.000000 
#    z -0.026440 0.000000 1.976990 
# 
# From -- ./inp_files/56932.got.cif
#   From: 2010.05.17/outbox.cif.g08.bks.cpg/sg15_29_cif.got.tgz:56932.got - 2010.06.03 18:47:42.
