data_PCOD9290764
_publ_section_title
;
Structure prediction by ZEFSAII (Michael W. Deem and Ramdas Pophale) SiO2 
 PCOD9290764
Probable space group: C 2/C
;
_chemical_formula_sum "Si O2"
_cell_formula_units_Z 64
_cell_length_a 8.440689
_cell_length_b 17.345219
_cell_length_c 29.289164
_cell_angle_alpha 90.000000
_cell_angle_beta 140.514280
_cell_angle_gamma 90.000000
_cell_volume 2726.740746
_symmetry_space_group_name_H-M "C 2/C"
_symmetry_group_IT_number 15
_symmetry_cell_setting 'monoclinic'
loop_
_space_group_symop_operation_xyz
x,y,z
-x,y,1/2-z
-x,-y,-z
x,-y,1/2+z
1/2+x,1/2+y,z
1/2-x,1/2+y,1/2-z
1/2-x,1/2-y,-z
1/2+x,1/2-y,1/2+z
loop_
_atom_site_type_symbol
_atom_site_label
_atom_site_fract_x
_atom_site_fract_y
_atom_site_fract_z
Si Si1 0.232186 0.367694 0.194290
Si Si2 0.717138 0.270219 0.204135
Si Si3 0.287146 0.096239 0.298568
Si Si4 0.804216 0.671687 0.540284
Si Si5 0.538201 0.265970 0.069065
Si Si6 0.642916 0.520433 0.445607
Si Si7 0.568537 0.913844 0.572307
Si Si8 0.932099 0.478533 0.186877
O O1 0.500000 0.408937 0.250000
O O2 0.290094 0.308341 0.248123
O O3 0.098159 0.333425 0.119775
O O4 0.021539 0.422164 0.167531
O O5 0.625008 0.183161 0.188963
O O6 0.583232 0.302390 0.129062
O O7 0.000000 0.265101 0.250000
O O8 0.427247 0.063627 0.374016
O O9 0.000000 0.094718 0.250000
O O10 0.372479 0.048805 0.274051
O O11 0.750000 0.750000 0.500000
O O12 0.650340 0.684949 0.552895
O O13 0.722920 0.594333 0.494913
O O14 0.639344 0.177253 0.087749
O O15 0.250000 0.250000 0.000000
O O16 0.730787 0.542870 0.414214
O O17 0.350205 0.504462 0.381774
O O18 0.803555 0.444619 0.494893
O O19 0.000000 0.439773 0.250000
#
# Coordination Sequence:
#
# PCOD9290764 Si02
#       8
#     8   8   8   8   8   8   8   8
#     4  12  29  48  74 105 149 197 246 311 372 439
#     4  10  22  45  70 101 139 188 240 292 367 431
#     4  10  22  41  69  98 138 182 232 292 360 436
#     4  12  27  47  74 115 151 192 254 310 377 445
#     4  11  25  42  75 107 148 192 242 307 364 454
#     4  11  26  45  73 104 148 192 244 308 365 450
#     4  10  23  46  68 102 143 194 234 292 376 434
#     4  12  28  46  73 105 142 191 250 302 366 450
#
# _framework density 23.471243999999999
#
# number of rings (size 3 to 8) (size 9 to 14) (size 15 to 20)
#    0.000    1.000    2.500    2.250    7.000    4.500 
#    0.000    0.000    0.000    0.000    0.000    0.000 
#    0.000    0.000    0.000    0.000    0.000    0.000 
#
# Total GULP energy -178868.103291 kJ/mol
# GULP energy per Si atom -5589.628228 kJ/mol
# Density = 2.341782 g / cm^3
# Si number density = 23.471244 Si / 1000 Ang^3
#
#
#
# Elastic Constant Matrix: (Units=GPa)
#
#
# Indices 1 2 3 4 5 6 
#
# 1 61.9337 31.2715 35.2621 0.0002 17.9326 -0.0003
# 2 31.2715 86.0161 33.3380 0.0003 -13.5651 -0.0002
# 3 35.2621 33.3380 133.9242 0.0011 14.9308 -0.0014
# 4 0.0002 0.0003 0.0011 27.0288 0.0004 10.1939
# 5 17.9326 -13.5651 14.9308 0.0004 42.1052 -0.0003
# 6 -0.0003 -0.0002 -0.0014 10.1939 -0.0003 -23.7865
#
#
#
# Elastic Compliance Matrix: (Units=1/GPa)
#
#
# Indices 1 2 3 4 5 6 
#
# 1 0.027570 -0.011163 -0.002884 0.000000 -0.014316 0.000000
# 2 -0.011163 0.018738 -0.003049 0.000000 0.011872 0.000000
# 3 -0.002884 -0.003049 0.009327 0.000000 -0.003061 0.000000
# 4 0.000000 0.000000 0.000000 0.031850 0.000000 0.013649
# 5 -0.014316 0.011872 -0.003061 0.000000 0.034757 0.000000
# 6 0.000000 0.000000 0.000000 0.013649 0.000000 -0.036191
#
#
# Mechanical properties :
#
#
# Convention : Reuss Voigt Hill
#
# Bulk Modulus (GPa) = 46.63690 53.51304 50.07497
# Shear Modulus (GPa) = 39.24944 21.20297 30.22620
#
# Velocity S-wave (km/s) = 4.09373 3.00885 3.59248
# Velocity P-wave (km/s) = 6.50060 5.90930 6.21199
#
# Compressibility (1/GPa) = 0.02144225
#
# Stress axis : x y z
#
# Youngs Moduli (GPa) = 36.27155 53.36726 107.22017
#
# Poissons Ratio (x) = 0.59573 0.30926
# Poissons Ratio (y) = 0.40489 0.32691
# Poissons Ratio (z) = 0.10462 0.16271
#
# Static dielectric constant tensor:
#      x y z
#    x 1.807220 0.000000 -0.025410 
#    y 0.000000 1.970020 0.000000 
#    z -0.025410 0.000000 1.927230 
# 
# From -- ./inp_files/308816.got.cif
#   From: 2010.05.17/outbox.cif.g08.bks.cpg/sg15_155_cif.got.tgz:308816.got - 2010.06.03 18:47:42.
