data_PCOD9290550
_publ_section_title
;
Structure prediction by ZEFSAII (Michael W. Deem and Ramdas Pophale) SiO2 
 PCOD9290550
Probable space group: C 2/C
;
_chemical_formula_sum "Si O2"
_cell_formula_units_Z 52
_cell_length_a 17.906278
_cell_length_b 19.633315
_cell_length_c 14.683825
_cell_angle_alpha 90.000000
_cell_angle_beta 153.780254
_cell_angle_gamma 90.000000
_cell_volume 2280.755149
_symmetry_space_group_name_H-M "C 2/C"
_symmetry_group_IT_number 15
_symmetry_cell_setting 'monoclinic'
loop_
_space_group_symop_operation_xyz
x,y,z
-x,y,1/2-z
-x,-y,-z
x,-y,1/2+z
1/2+x,1/2+y,z
1/2-x,1/2+y,1/2-z
1/2-x,1/2-y,-z
1/2+x,1/2-y,1/2+z
loop_
_atom_site_type_symbol
_atom_site_label
_atom_site_fract_x
_atom_site_fract_y
_atom_site_fract_z
Si Si1 0.500000 0.851972 0.250000
Si Si2 0.864072 0.192115 0.813568
Si Si3 0.609271 0.778839 0.182681
Si Si4 0.230995 0.123760 0.330639
Si Si5 0.301604 0.884108 0.523580
Si Si6 0.458761 0.492131 0.803795
Si Si7 0.308914 0.392151 0.896771
O O1 0.557002 0.810258 0.222374
O O2 0.653170 0.894639 0.457227
O O3 0.751072 0.180029 0.781005
O O4 0.739897 0.176676 0.593117
O O5 0.955726 0.262256 0.944297
O O6 0.029804 0.150064 0.963980
O O7 0.678685 0.702591 0.282888
O O8 0.315705 0.110269 0.325345
O O9 0.083246 0.068916 0.175922
O O10 0.500000 0.899100 0.750000
O O11 0.189043 0.949883 0.368538
O O12 0.242238 0.865407 0.560715
O O13 0.500000 0.463164 0.750000
O O14 0.625227 0.532088 0.016054
#
# Coordination Sequence:
#
# PCOD9290550 Si02
#       7
#     4   8   8   8   8   8   8
#     4  12  26  40  60  96 138 170 228 274 324 376
#     4  10  22  41  67  90 129 173 219 263 334 385
#     4  11  24  43  62  95 131 180 222 275 318 390
#     4  11  23  38  67  91 136 172 223 261 331 385
#     4  10  22  42  71  98 135 163 213 281 338 389
#     4   9  20  40  68  97 130 173 220 263 329 398
#     4   9  21  44  66  99 131 174 218 273 328 395
#
# _framework density 22.799465999999999
#
# number of rings (size 3 to 8) (size 9 to 14) (size 15 to 20)
#    0.000    1.846    1.538    2.308    4.308    1.231 
#    0.000   13.077    0.000    0.000    0.000    0.000 
#    0.000    0.000    0.000    0.000    0.000    0.000 
#
# Total GULP energy -144806.653936 kJ/mol
# GULP energy per Si atom -5569.486690 kJ/mol
# Density = 2.274757 g / cm^3
# Si number density = 22.799466 Si / 1000 Ang^3
#
#
#
# Elastic Constant Matrix: (Units=GPa)
#
#
# Indices 1 2 3 4 5 6 
#
# 1 188.9795 47.3518 28.9300 0.0000 -13.9642 0.0000
# 2 47.3518 40.6545 5.0430 0.0000 -10.3954 0.0000
# 3 28.9300 5.0430 78.1870 0.0000 -19.1079 0.0000
# 4 0.0000 0.0000 0.0000 11.6962 0.0000 -1.2947
# 5 -13.9642 -10.3954 -19.1079 0.0000 40.7251 0.0000
# 6 0.0000 0.0000 0.0000 -1.2947 0.0000 31.3919
#
#
#
# Elastic Compliance Matrix: (Units=1/GPa)
#
#
# Indices 1 2 3 4 5 6 
#
# 1 0.007897 -0.009089 -0.002531 0.000000 -0.000800 0.000000
# 2 -0.009089 0.036775 0.002850 0.000000 0.007608 0.000000
# 3 -0.002531 0.002850 0.015258 0.000000 0.007018 0.000000
# 4 0.000000 0.000000 0.000000 0.085890 0.000000 0.003542
# 5 -0.000800 0.007608 0.007018 0.000000 0.029516 0.000000
# 6 0.000000 0.000000 0.000000 0.003542 0.000000 0.032001
#
#
# Mechanical properties :
#
#
# Convention : Reuss Voigt Hill
#
# Bulk Modulus (GPa) = 23.58998 52.27451 37.93225
# Shear Modulus (GPa) = 20.91984 31.86241 26.39113
#
# Velocity S-wave (km/s) = 3.03241 3.74238 3.40594
# Velocity P-wave (km/s) = 4.75709 6.45381 5.66928
#
# Compressibility (1/GPa) = 0.04239088
#
# Stress axis : x y z
#
# Youngs Moduli (GPa) = 126.62503 27.19204 65.54015
#
# Poissons Ratio (x) = 0.24714 0.16590
# Poissons Ratio (y) = 1.15087 -0.18681
# Poissons Ratio (z) = 0.32053 -0.07750
#
# Static dielectric constant tensor:
#      x y z
#    x 1.879090 0.000000 0.001960 
#    y 0.000000 1.825280 0.000000 
#    z 0.001960 0.000000 2.027060 
# 
# From -- ./inp_files/163644.got.cif
#   From: 2010.05.17/outbox.cif.g08.bks.cpg/sg15_82_cif.got.tgz:163644.got - 2010.06.03 18:47:42.
