data_PCOD9290874
_publ_section_title
;
Structure prediction by ZEFSAII (Michael W. Deem and Ramdas Pophale) SiO2 
 PCOD9290874
Probable space group: C 2/C
;
_chemical_formula_sum "Si O2"
_cell_formula_units_Z 48
_cell_length_a 12.695567
_cell_length_b 8.430040
_cell_length_c 20.091077
_cell_angle_alpha 90.000000
_cell_angle_beta 83.360024
_cell_angle_gamma 90.000000
_cell_volume 2135.807157
_symmetry_space_group_name_H-M "C 2/C"
_symmetry_group_IT_number 15
_symmetry_cell_setting 'monoclinic'
loop_
_space_group_symop_operation_xyz
x,y,z
-x,y,1/2-z
-x,-y,-z
x,-y,1/2+z
1/2+x,1/2+y,z
1/2-x,1/2+y,1/2-z
1/2-x,1/2-y,-z
1/2+x,1/2-y,1/2+z
loop_
_atom_site_type_symbol
_atom_site_label
_atom_site_fract_x
_atom_site_fract_y
_atom_site_fract_z
Si Si1 0.784695 0.996833 0.697914
Si Si2 0.681124 0.588678 0.575279
Si Si3 0.246939 0.736219 0.594335
Si Si4 0.577156 0.851179 0.009093
Si Si5 0.387822 0.723597 0.789893
Si Si6 0.120208 0.178380 0.433143
O O1 0.740155 0.153990 0.665397
O O2 0.844405 0.063990 0.757476
O O3 0.693748 0.867652 0.716354
O O4 0.857883 0.922727 0.634212
O O5 0.696094 0.409127 0.596070
O O6 0.608104 0.686364 0.631802
O O7 0.795527 0.676088 0.572975
O O8 0.641306 0.597431 0.502845
O O9 0.366530 0.768506 0.558477
O O10 0.179617 0.623123 0.548960
O O11 0.499048 0.736898 0.054609
O O12 0.500000 0.000000 0.000000
O O13 0.500000 0.763101 0.750000
#
# Coordination Sequence:
#
# PCOD9290874 Si02
#       6
#     8   8   8   8   8   8
#     4  11  26  49  68 103 137 181 241 293 341 427
#     4  10  22  44  68 106 137 173 234 289 337 427
#     4  11  24  39  66 101 140 176 231 278 345 420
#     4  11  23  38  65 107 143 177 215 285 362 408
#     4  11  27  49  73  97 141 193 232 288 361 416
#     4  10  22  41  73 101 141 175 225 291 350 404
#
# _framework density 22.473939999999999
#
# number of rings (size 3 to 8) (size 9 to 14) (size 15 to 20)
#    0.000    1.333    1.667    3.000    9.333    1.333 
#    6.000    0.833    0.000    0.000    0.000    0.000 
#    0.000    0.000    0.000    0.000    0.000    0.000 
#
# Total GULP energy -134187.706799 kJ/mol
# GULP energy per Si atom -5591.154450 kJ/mol
# Density = 2.242279 g / cm^3
# Si number density = 22.473940 Si / 1000 Ang^3
#
#
#
# Elastic Constant Matrix: (Units=GPa)
#
#
# Indices 1 2 3 4 5 6 
#
# 1 97.7487 40.2045 59.4576 0.0000 -28.3354 0.0000
# 2 40.2045 106.0927 46.5553 0.0000 -9.9098 0.0000
# 3 59.4576 46.5553 106.7329 0.0000 -20.4188 0.0000
# 4 0.0000 0.0000 0.0000 46.2319 0.0000 -2.3383
# 5 -28.3354 -9.9098 -20.4188 0.0000 37.5250 0.0000
# 6 0.0000 0.0000 0.0000 -2.3383 0.0000 29.9494
#
#
#
# Elastic Compliance Matrix: (Units=1/GPa)
#
#
# Indices 1 2 3 4 5 6 
#
# 1 0.018566 -0.002980 -0.007268 0.000000 0.009278 0.000000
# 2 -0.002980 0.012139 -0.003853 0.000000 -0.001141 0.000000
# 3 -0.007268 -0.003853 0.015464 0.000000 0.001909 0.000000
# 4 0.000000 0.000000 0.000000 0.021716 0.000000 0.001695
# 5 0.009278 -0.001141 0.001909 0.000000 0.034392 0.000000
# 6 0.000000 0.000000 0.000000 0.001695 0.000000 0.033522
#
#
# Mechanical properties :
#
#
# Convention : Reuss Voigt Hill
#
# Bulk Modulus (GPa) = 55.65720 67.00100 61.32910
# Shear Modulus (GPa) = 29.41336 33.69838 31.55587
#
# Velocity S-wave (km/s) = 3.62163 3.87646 3.75121
# Velocity P-wave (km/s) = 6.50440 7.06494 6.79046
#
# Compressibility (1/GPa) = 0.01796713
#
# Stress axis : x y z
#
# Youngs Moduli (GPa) = 53.86087 82.37736 64.66685
#
# Poissons Ratio (x) = 0.24548 0.47000
# Poissons Ratio (y) = 0.16050 0.24918
# Poissons Ratio (z) = 0.39146 0.31742
#
# Static dielectric constant tensor:
#      x y z
#    x 1.806810 0.000000 0.011060 
#    y 0.000000 1.874320 0.000000 
#    z 0.011060 0.000000 1.849480 
# 
# From -- ./inp_files/268015.got.cif
#   From: 2010.05.17/outbox.cif.g08.bks.cpg/sg15_135_cif.got.tgz:268015.got - 2010.06.03 18:47:42.
