data_PCOD9290192
_publ_section_title
;
Structure prediction by ZEFSAII (Michael W. Deem and Ramdas Pophale) SiO2 
 PCOD9290192
Probable space group: C 2/C
;
_chemical_formula_sum "Si O2"
_cell_formula_units_Z 52
_cell_length_a 6.739617
_cell_length_b 23.641733
_cell_length_c 21.048751
_cell_angle_alpha 90.000000
_cell_angle_beta 126.927933
_cell_angle_gamma 90.000000
_cell_volume 2681.023183
_symmetry_space_group_name_H-M "C 2/C"
_symmetry_group_IT_number 15
_symmetry_cell_setting 'monoclinic'
loop_
_space_group_symop_operation_xyz
x,y,z
-x,y,1/2-z
-x,-y,-z
x,-y,1/2+z
1/2+x,1/2+y,z
1/2-x,1/2+y,1/2-z
1/2-x,1/2-y,-z
1/2+x,1/2-y,1/2+z
loop_
_atom_site_type_symbol
_atom_site_label
_atom_site_fract_x
_atom_site_fract_y
_atom_site_fract_z
Si Si1 0.527584 0.274724 0.051897
Si Si2 0.994635 0.211945 0.093729
Si Si3 0.208612 0.100565 0.183370
Si Si4 0.125559 0.028580 0.465565
Si Si5 0.500000 0.518478 0.250000
Si Si6 0.376809 0.684030 0.656351
Si Si7 0.681823 0.942987 0.104335
O O1 0.546431 0.302294 0.126059
O O2 0.738020 0.227740 0.079265
O O3 0.250000 0.250000 0.000000
O O4 0.545111 0.308295 0.987556
O O5 0.133943 0.165871 0.162934
O O6 0.160199 0.268632 0.118775
O O7 0.500000 0.096246 0.250000
O O8 0.086515 0.061835 0.213331
O O9 0.079523 0.072537 0.097830
O O10 0.388793 0.055583 0.535242
O O11 0.189995 0.979548 0.426930
O O12 0.000000 0.000000 0.500000
O O13 0.276085 0.477733 0.184260
O O14 0.500000 0.685181 0.750000
O O15 0.271854 0.621234 0.624963
#
# Coordination Sequence:
#
# PCOD9290192 Si02
#       7
#     8   8   8   8   4   8   8
#     4   9  22  41  62  92 129 169 213 265 324 387
#     4  10  23  41  63  96 128 168 222 265 328 398
#     4  11  24  40  65  94 128 167 217 273 327 390
#     4  10  23  40  64  90 123 167 222 265 328 395
#     4  10  22  44  62  92 134 170 210 280 332 378
#     4  11  23  40  66  94 134 169 212 270 329 395
#     4  10  22  41  63  93 126 171 216 269 332 395
#
# _framework density 19.395581
#
# number of rings (size 3 to 8) (size 9 to 14) (size 15 to 20)
#    0.000    1.846    0.769    1.385    8.615    4.308 
#    0.000    0.000    0.000    0.000    0.000    0.000 
#    0.000    0.000    0.000    0.000    0.000    0.000 
#
# Total GULP energy -144826.595536 kJ/mol
# GULP energy per Si atom -5570.253674 kJ/mol
# Density = 1.935144 g / cm^3
# Si number density = 19.395581 Si / 1000 Ang^3
#
#
#
# Elastic Constant Matrix: (Units=GPa)
#
#
# Indices 1 2 3 4 5 6 
#
# 1 102.7978 48.7035 50.1190 0.0000 2.0289 0.0000
# 2 48.7035 119.3416 55.0722 0.0000 3.7867 0.0000
# 3 50.1190 55.0722 127.5196 0.0000 2.5090 0.0000
# 4 0.0000 0.0000 0.0000 43.3996 0.0000 8.2752
# 5 2.0289 3.7867 2.5090 0.0000 35.4755 0.0000
# 6 0.0000 0.0000 0.0000 8.2752 0.0000 13.8978
#
#
#
# Elastic Compliance Matrix: (Units=1/GPa)
#
#
# Indices 1 2 3 4 5 6 
#
# 1 0.013256 -0.003751 -0.003588 0.000000 -0.000104 0.000000
# 2 -0.003751 0.011549 -0.003498 0.000000 -0.000771 0.000000
# 3 -0.003588 -0.003498 0.010767 0.000000 -0.000183 0.000000
# 4 0.000000 0.000000 0.000000 0.025993 0.000000 -0.015477
# 5 -0.000104 -0.000771 -0.000183 0.000000 0.028290 0.000000
# 6 0.000000 0.000000 0.000000 -0.015477 0.000000 0.081169
#
#
# Mechanical properties :
#
#
# Convention : Reuss Voigt Hill
#
# Bulk Modulus (GPa) = 71.95698 73.04983 72.50340
# Shear Modulus (GPa) = 25.33820 31.60554 28.47187
#
# Velocity S-wave (km/s) = 3.61832 4.04111 3.83555
# Velocity P-wave (km/s) = 7.39166 7.71486 7.55498
#
# Compressibility (1/GPa) = 0.01389719
#
# Stress axis : x y z
#
# Youngs Moduli (GPa) = 75.43541 86.58904 92.87956
#
# Poissons Ratio (x) = 0.32478 0.33327
# Poissons Ratio (y) = 0.28294 0.32492
# Poissons Ratio (z) = 0.27068 0.30291
#
# Static dielectric constant tensor:
#      x y z
#    x 1.552070 0.000000 -0.083430 
#    y 0.000000 1.650760 0.000000 
#    z -0.083430 0.000000 1.684480 
# 
# From -- ./inp_files/228052.got.cif
#   From: 2010.05.17/outbox.cif.g08.bks.cpg/sg15_115_cif.got.tgz:228052.got - 2010.06.03 18:47:42.
