data_PCOD9290282
_publ_section_title
;
Structure prediction by ZEFSAII (Michael W. Deem and Ramdas Pophale) SiO2 
 PCOD9290282
Probable space group: C 2/C
;
_chemical_formula_sum "Si O2"
_cell_formula_units_Z 36
_cell_length_a 10.919000
_cell_length_b 31.146886
_cell_length_c 5.479176
_cell_angle_alpha 90.000000
_cell_angle_beta 113.917060
_cell_angle_gamma 90.000000
_cell_volume 1703.422077
_symmetry_space_group_name_H-M "C 2/C"
_symmetry_group_IT_number 15
_symmetry_cell_setting 'monoclinic'
loop_
_space_group_symop_operation_xyz
x,y,z
-x,y,1/2-z
-x,-y,-z
x,-y,1/2+z
1/2+x,1/2+y,z
1/2-x,1/2+y,1/2-z
1/2-x,1/2-y,-z
1/2+x,1/2-y,1/2+z
loop_
_atom_site_type_symbol
_atom_site_label
_atom_site_fract_x
_atom_site_fract_y
_atom_site_fract_z
Si Si1 0.740639 0.213634 0.283740
Si Si2 0.000000 0.027769 0.250000
Si Si3 0.133309 0.366356 0.976497
Si Si4 0.500000 0.322213 0.750000
Si Si5 0.000000 0.302002 0.250000
Si Si6 0.889723 0.097633 0.870854
O O1 0.750000 0.250000 0.500000
O O2 0.705672 0.166341 0.352933
O O3 0.885235 0.205880 0.282737
O O4 0.612508 0.221934 0.004600
O O5 0.112476 0.063284 0.410180
O O6 0.000000 0.000000 0.500000
O O7 0.242296 0.400112 0.144586
O O8 0.085488 0.333807 0.148402
O O9 0.000000 0.385077 0.750000
O O10 0.428914 0.355171 0.503425
O O11 0.000000 0.087223 0.750000
#
# Coordination Sequence:
#
# PCOD9290282 Si02
#       6
#     8   4   8   4   4   8
#     4  11  24  42  64  90 131 178 234 305 370 412
#     4  11  24  42  69 116 154 178 218 286 358 425
#     4  10  22  41  64  96 129 173 236 280 348 424
#     4  11  22  41  68  96 128 176 246 290 350 426
#     4  10  22  45  59  86 132 170 234 288 354 423
#     4  11  21  41  74 102 136 180 229 288 340 430
#
# _framework density 21.133928999999998
#
# number of rings (size 3 to 8) (size 9 to 14) (size 15 to 20)
#    0.000    1.333    5.556    0.000    0.000    1.778 
#   12.000    2.222    0.000    1.333    0.000    0.000 
#    0.000    0.000    0.000    0.000    0.000    0.000 
#
# Total GULP energy -100455.356540 kJ/mol
# GULP energy per Si atom -5580.853141 kJ/mol
# Density = 2.108583 g / cm^3
# Si number density = 21.133929 Si / 1000 Ang^3
#
#
#
# Elastic Constant Matrix: (Units=GPa)
#
#
# Indices 1 2 3 4 5 6 
#
# 1 150.4011 37.9159 68.9691 0.0000 17.5252 0.0000
# 2 37.9159 88.1808 61.8369 0.0000 9.4155 0.0000
# 3 68.9691 61.8369 172.6927 0.0000 35.0482 0.0000
# 4 0.0000 0.0000 0.0000 56.9904 0.0000 5.8243
# 5 17.5252 9.4155 35.0482 0.0000 44.1130 0.0000
# 6 0.0000 0.0000 0.0000 5.8243 0.0000 1.2783
#
#
#
# Elastic Compliance Matrix: (Units=1/GPa)
#
#
# Indices 1 2 3 4 5 6 
#
# 1 0.008351 -0.001716 -0.002530 0.000000 -0.000942 0.000000
# 2 -0.001716 0.015557 -0.005186 0.000000 0.001482 0.000000
# 3 -0.002530 -0.005186 0.009811 0.000000 -0.005683 0.000000
# 4 0.000000 0.000000 0.000000 0.032837 0.000000 -0.149610
# 5 -0.000942 0.001482 -0.005683 0.000000 0.027242 0.000000
# 6 0.000000 0.000000 0.000000 -0.149610 0.000000 1.463921
#
#
# Mechanical properties :
#
#
# Convention : Reuss Voigt Hill
#
# Bulk Modulus (GPa) = 67.31382 83.19094 75.25238
# Shear Modulus (GPa) = 3.16149 36.64651 19.90400
#
# Velocity S-wave (km/s) = 1.22441 4.16867 3.07221
# Velocity P-wave (km/s) = 5.82401 7.91325 6.94761
#
# Compressibility (1/GPa) = 0.01485579
#
# Stress axis : x y z
#
# Youngs Moduli (GPa) = 119.74158 64.28137 101.92501
#
# Poissons Ratio (x) = 0.11034 0.25783
# Poissons Ratio (y) = 0.20554 0.52854
# Poissons Ratio (z) = 0.30289 0.33334
#
# Static dielectric constant tensor:
#      x y z
#    x 1.200220 0.000000 0.063680 
#    y 0.000000 1.780840 0.000000 
#    z 0.063680 0.000000 1.874190 
# 
# From -- ./inp_files/5663.got.cif
#   From: 2010.05.17/outbox.cif.g08.bks.cpg/sg15_3_cif.got.tgz:5663.got - 2010.06.03 18:47:42.
