data_PCOD9290456
_publ_section_title
;
Structure prediction by ZEFSAII (Michael W. Deem and Ramdas Pophale) SiO2 
 PCOD9290456
Probable space group: C 2/C
;
_chemical_formula_sum "Si O2"
_cell_formula_units_Z 56
_cell_length_a 24.023132
_cell_length_b 8.745728
_cell_length_c 21.044938
_cell_angle_alpha 90.000000
_cell_angle_beta 144.169351
_cell_angle_gamma 90.000000
_cell_volume 2588.329843
_symmetry_space_group_name_H-M "C 2/C"
_symmetry_group_IT_number 15
_symmetry_cell_setting 'monoclinic'
loop_
_space_group_symop_operation_xyz
x,y,z
-x,y,1/2-z
-x,-y,-z
x,-y,1/2+z
1/2+x,1/2+y,z
1/2-x,1/2+y,1/2-z
1/2-x,1/2-y,-z
1/2+x,1/2-y,1/2+z
loop_
_atom_site_type_symbol
_atom_site_label
_atom_site_fract_x
_atom_site_fract_y
_atom_site_fract_z
Si Si1 0.530262 0.509330 0.847470
Si Si2 0.521834 0.011725 0.836087
Si Si3 0.377584 0.244353 0.893240
Si Si4 0.445150 0.251665 0.528909
Si Si5 0.377248 0.749615 0.737471
Si Si6 0.311349 0.897002 0.808580
Si Si7 0.163820 0.273846 0.997172
O O1 0.500000 0.450321 0.750000
O O2 0.567263 0.389984 0.933790
O O3 0.437598 0.594391 0.790754
O O4 0.613022 0.635187 0.913955
O O5 0.500000 0.093988 0.750000
O O6 0.512481 0.117427 0.888122
O O7 0.446129 0.874865 0.770084
O O8 0.625253 0.932957 0.934144
O O9 0.477970 0.281099 0.954809
O O10 0.300941 0.370042 0.800723
O O11 0.341840 0.074380 0.839482
O O12 0.378999 0.238420 0.970758
O O13 0.351847 0.187855 0.408163
O O14 0.354210 0.811485 0.786644
O O15 0.276300 0.736730 0.608730
#
# Coordination Sequence:
#
# PCOD9290456 Si02
#       7
#     8   8   8   8   8   8   8
#     4  11  26  42  60  93 125 165 215 251 296 368
#     4  11  22  39  62  88 120 169 210 248 302 365
#     4  11  24  41  66  98 126 157 204 256 314 376
#     4  12  24  40  64  89 132 162 198 260 312 359
#     4  10  22  41  66  90 122 159 207 258 309 364
#     4  11  24  41  66  98 126 157 204 256 314 376
#     4  10  22  41  66  90 122 159 207 258 309 364
#
# _framework density 21.635573999999998
#
# number of rings (size 3 to 8) (size 9 to 14) (size 15 to 20)
#    0.000    1.143    2.857    4.286    8.000    3.429 
#    0.000    0.000    0.000    5.143    0.000    0.000 
#    0.000    0.000    0.000    0.000    0.000    0.000 
#
# Total GULP energy -156617.820870 kJ/mol
# GULP energy per Si atom -5593.493602 kJ/mol
# Density = 2.158633 g / cm^3
# Si number density = 21.635574 Si / 1000 Ang^3
#
#
#
# Elastic Constant Matrix: (Units=GPa)
#
#
# Indices 1 2 3 4 5 6 
#
# 1 39.0158 3.2244 14.8176 0.0000 -1.9551 0.0000
# 2 3.2244 47.1116 -5.1526 0.0000 -4.4119 0.0000
# 3 14.8176 -5.1526 98.4433 0.0000 -7.4370 0.0000
# 4 0.0000 0.0000 0.0000 6.4117 0.0000 6.5234
# 5 -1.9551 -4.4119 -7.4370 0.0000 28.4959 0.0000
# 6 0.0000 0.0000 0.0000 6.5234 0.0000 12.5135
#
#
#
# Elastic Compliance Matrix: (Units=1/GPa)
#
#
# Indices 1 2 3 4 5 6 
#
# 1 0.027444 -0.002300 -0.004219 0.000000 0.000426 0.000000
# 2 -0.002300 0.021924 0.001773 0.000000 0.003699 0.000000
# 3 -0.004219 0.001773 0.011104 0.000000 0.002883 0.000000
# 4 0.000000 0.000000 0.000000 0.332117 0.000000 -0.173136
# 5 0.000426 0.003699 0.002883 0.000000 0.036447 0.000000
# 6 0.000000 0.000000 0.000000 -0.173136 0.000000 0.170172
#
#
# Mechanical properties :
#
#
# Convention : Reuss Voigt Hill
#
# Bulk Modulus (GPa) = 19.61536 23.37216 21.49376
# Shear Modulus (GPa) = 7.99113 20.92963 14.46038
#
# Velocity S-wave (km/s) = 1.92394 3.11363 2.58807
# Velocity P-wave (km/s) = 3.74450 4.87364 4.34590
#
# Compressibility (1/GPa) = 0.05098046
#
# Stress axis : x y z
#
# Youngs Moduli (GPa) = 36.43723 45.61211 90.05925
#
# Poissons Ratio (x) = 0.10491 0.37997
# Poissons Ratio (y) = 0.08380 -0.15969
# Poissons Ratio (z) = 0.15373 -0.08088
#
# Static dielectric constant tensor:
#      x y z
#    x 1.787640 0.000000 -0.023720 
#    y 0.000000 1.788730 0.000000 
#    z -0.023720 0.000000 1.776860 
# 
# From -- ./inp_files/222060.got.cif
#   From: 2010.05.17/outbox.cif.g08.bks.cpg/sg15_112_cif.got.tgz:222060.got - 2010.06.03 18:47:42.
