data_PCOD9290728
_publ_section_title
;
Structure prediction by ZEFSAII (Michael W. Deem and Ramdas Pophale) SiO2 
 PCOD9290728
Probable space group: C 2/C
;
_chemical_formula_sum "Si O2"
_cell_formula_units_Z 64
_cell_length_a 12.034209
_cell_length_b 20.533521
_cell_length_c 18.624036
_cell_angle_alpha 90.000000
_cell_angle_beta 47.648310
_cell_angle_gamma 90.000000
_cell_volume 3401.050676
_symmetry_space_group_name_H-M "C 2/C"
_symmetry_group_IT_number 15
_symmetry_cell_setting 'monoclinic'
loop_
_space_group_symop_operation_xyz
x,y,z
-x,y,1/2-z
-x,-y,-z
x,-y,1/2+z
1/2+x,1/2+y,z
1/2-x,1/2+y,1/2-z
1/2-x,1/2-y,-z
1/2+x,1/2-y,1/2+z
loop_
_atom_site_type_symbol
_atom_site_label
_atom_site_fract_x
_atom_site_fract_y
_atom_site_fract_z
Si Si1 0.590675 0.442026 0.998837
Si Si2 0.400931 0.772379 0.725106
Si Si3 0.078305 0.882214 0.291463
Si Si4 0.108974 0.578628 0.899217
Si Si5 0.072452 0.693659 0.445836
Si Si6 0.380436 0.367513 0.864454
Si Si7 0.569699 0.686036 0.413366
Si Si8 0.188051 0.510331 0.500544
O O1 0.501454 0.417175 0.107905
O O2 0.746928 0.469643 0.961767
O O3 0.500000 0.500000 0.000000
O O4 0.604169 0.380886 0.940055
O O5 0.500000 0.793268 0.750000
O O6 0.432358 0.695875 0.698042
O O7 0.440089 0.809088 0.634568
O O8 0.226694 0.782609 0.820242
O O9 0.252058 0.901828 0.210270
O O10 0.000000 0.900423 0.250000
O O11 0.168013 0.533264 0.938102
O O12 0.034794 0.641297 0.969196
O O13 0.975104 0.542045 0.916164
O O14 0.242866 0.675454 0.393400
O O15 0.020306 0.763872 0.496916
O O16 0.500000 0.383155 0.750000
O O17 0.467904 0.330085 0.888988
O O18 0.305167 0.432350 0.930019
#
# Coordination Sequence:
#
# PCOD9290728 Si02
#       8
#     8   8   8   8   8   8   8   8
#     4  12  25  42  65  96 137 173 219 272 329 392
#     4  11  25  40  63 102 131 169 217 268 337 393
#     4  11  22  41  69  94 127 177 222 267 323 397
#     4  10  22  41  69  91 126 166 221 271 317 386
#     4  11  23  43  67  96 131 164 221 274 329 387
#     4  11  23  41  68  93 125 174 219 267 322 394
#     4  12  24  43  67  95 134 172 215 273 333 386
#     4  10  23  41  62  94 124 171 214 261 324 382
#
# _framework density 18.817713999999999
#
# number of rings (size 3 to 8) (size 9 to 14) (size 15 to 20)
#    0.000    1.000    6.250    0.375    3.500    0.500 
#    2.250    0.625    2.750    0.000    0.000    0.000 
#    0.000    0.000    0.000    0.000    0.000    0.000 
#
# Total GULP energy -178855.230794 kJ/mol
# GULP energy per Si atom -5589.225962 kJ/mol
# Density = 1.877488 g / cm^3
# Si number density = 18.817714 Si / 1000 Ang^3
#
#
#
# Elastic Constant Matrix: (Units=GPa)
#
#
# Indices 1 2 3 4 5 6 
#
# 1 132.2601 43.0743 34.1126 -0.0001 5.8152 0.0000
# 2 43.0743 73.5679 9.0651 -0.0001 3.6977 0.0000
# 3 34.1126 9.0651 59.0359 -0.0003 4.6275 0.0001
# 4 -0.0001 -0.0001 -0.0003 17.6067 0.0001 -3.5289
# 5 5.8152 3.6977 4.6275 0.0001 31.2777 0.0000
# 6 0.0000 0.0000 0.0001 -3.5289 0.0000 33.1969
#
#
#
# Elastic Compliance Matrix: (Units=1/GPa)
#
#
# Indices 1 2 3 4 5 6 
#
# 1 0.010795 -0.005636 -0.005329 0.000000 -0.000552 0.000000
# 2 -0.005636 0.016853 0.000752 0.000000 -0.001056 0.000000
# 3 -0.005329 0.000752 0.020065 0.000000 -0.002067 0.000000
# 4 0.000000 0.000000 0.000000 0.058033 0.000000 0.006169
# 5 -0.000552 -0.001056 -0.002067 0.000000 0.032505 0.000000
# 6 0.000000 0.000000 0.000000 0.006169 0.000000 0.030779
#
#
# Mechanical properties :
#
#
# Convention : Reuss Voigt Hill
#
# Bulk Modulus (GPa) = 36.64876 48.59642 42.62259
# Shear Modulus (GPa) = 25.18220 28.32371 26.75296
#
# Velocity S-wave (km/s) = 3.66213 3.88385 3.77462
# Velocity P-wave (km/s) = 6.11552 6.78184 6.45728
#
# Compressibility (1/GPa) = 0.02728605
#
# Stress axis : x y z
#
# Youngs Moduli (GPa) = 92.63369 59.33538 49.83882
#
# Poissons Ratio (x) = 0.33443 0.26559
# Poissons Ratio (y) = 0.52210 -0.03746
# Poissons Ratio (z) = 0.49365 -0.04460
#
# Static dielectric constant tensor:
#      x y z
#    x 1.636330 0.000000 -0.006630 
#    y 0.000000 1.649960 0.000000 
#    z -0.006630 0.000000 1.612700 
# 
# From -- ./inp_files/200362.got.cif
#   From: 2010.05.17/outbox.cif.g08.bks.cpg/sg15_101_cif.got.tgz:200362.got - 2010.06.03 18:47:42.
