data_PCOD9290889
_publ_section_title
;
Structure prediction by ZEFSAII (Michael W. Deem and Ramdas Pophale) SiO2 
 PCOD9290889
Probable space group: C 2/C
;
_chemical_formula_sum "Si O2"
_cell_formula_units_Z 44
_cell_length_a 8.090563
_cell_length_b 24.656214
_cell_length_c 12.296287
_cell_angle_alpha 90.000000
_cell_angle_beta 130.947703
_cell_angle_gamma 90.000000
_cell_volume 1852.692147
_symmetry_space_group_name_H-M "C 2/C"
_symmetry_group_IT_number 15
_symmetry_cell_setting 'monoclinic'
loop_
_space_group_symop_operation_xyz
x,y,z
-x,y,1/2-z
-x,-y,-z
x,-y,1/2+z
1/2+x,1/2+y,z
1/2-x,1/2+y,1/2-z
1/2-x,1/2-y,-z
1/2+x,1/2-y,1/2+z
loop_
_atom_site_type_symbol
_atom_site_label
_atom_site_fract_x
_atom_site_fract_y
_atom_site_fract_z
Si Si1 0.634999 0.087660 0.087889
Si Si2 0.341056 0.322333 0.270980
Si Si3 0.000000 0.822128 0.750000
Si Si4 0.391729 0.725955 0.427705
Si Si5 0.000000 0.002436 0.750000
Si Si6 0.000000 0.361570 0.750000
Si Si7 0.683982 0.930426 0.246675
O O1 0.790968 0.139505 0.142835
O O2 0.541680 0.098500 0.167126
O O3 0.794691 0.036637 0.137420
O O4 0.440293 0.080736 0.919931
O O5 0.500000 0.348971 0.250000
O O6 0.458468 0.279995 0.402186
O O7 0.188234 0.286855 0.126816
O O8 0.251785 0.369544 0.309862
O O9 0.003755 0.787716 0.642805
O O10 0.202414 0.679847 0.357691
O O11 0.098048 0.036068 0.689844
O O12 0.500000 0.952850 0.250000
#
# Coordination Sequence:
#
# PCOD9290889 Si02
#       7
#     8   8   4   8   4   4   8
#     4  10  23  47  70 103 135 183 234 289 356 414
#     4  12  25  42  66 102 143 183 237 281 344 414
#     4   9  22  42  66  96 144 178 242 283 342 418
#     4  11  24  40  66 101 137 193 227 286 341 415
#     4  11  26  49  72 104 132 183 238 295 348 424
#     4  10  22  41  74  96 138 183 234 284 350 410
#     4  12  27  46  71 103 144 183 229 296 350 412
#
# _framework density 23.749224000000002
#
# number of rings (size 3 to 8) (size 9 to 14) (size 15 to 20)
#    0.000    1.091    1.818    3.273    7.636    1.455 
#    0.000    0.000    0.000    0.000    0.000    0.000 
#    0.000    0.000    0.000    0.000    0.000    0.000 
#
# Total GULP energy -122964.347906 kJ/mol
# GULP energy per Si atom -5589.288541 kJ/mol
# Density = 2.369517 g / cm^3
# Si number density = 23.749224 Si / 1000 Ang^3
#
#
#
# Elastic Constant Matrix: (Units=GPa)
#
#
# Indices 1 2 3 4 5 6 
#
# 1 141.7434 30.6543 -0.3006 0.0000 -31.7484 0.0000
# 2 30.6543 72.4908 -5.5624 0.0000 -2.5781 0.0000
# 3 -0.3006 -5.5624 42.6510 0.0000 -1.0246 0.0000
# 4 0.0000 0.0000 0.0000-3675.0933 0.0000 535.2589
# 5 -31.7484 -2.5781 -1.0246 0.0000 27.1133 0.0000
# 6 0.0000 0.0000 0.0000 535.2589 0.0000 -68.5878
#
#
#
# Elastic Compliance Matrix: (Units=1/GPa)
#
#
# Indices 1 2 3 4 5 6 
#
# 1 0.010640 -0.004083 -0.000168 0.000000 0.012064 0.000000
# 2 -0.004083 0.015554 0.001922 0.000000 -0.003229 0.000000
# 3 -0.000168 0.001922 0.023717 0.000000 0.000883 0.000000
# 4 0.000000 0.000000 0.000000 0.001992 0.000000 0.015544
# 5 0.012064 -0.003229 0.000883 0.000000 0.050735 0.000000
# 6 0.000000 0.000000 0.000000 0.015544 0.000000 0.106724
#
#
# Mechanical properties :
#
#
# Convention : Reuss Voigt Hill
#
# Bulk Modulus (GPa) = 22.09771 34.05197 28.07484
# Shear Modulus (GPa) = 21.82419 -727.84064 -353.00823
#
# Velocity S-wave (km/s) = 3.03470 -17.52525 -12.20502
# Velocity P-wave (km/s) = 4.64801 19.87822 13.66637
#
# Compressibility (1/GPa) = 0.04525356
#
# Stress axis : x y z
#
# Youngs Moduli (GPa) = 93.98601 64.29165 42.16413
#
# Poissons Ratio (x) = 0.26251 0.00707
# Poissons Ratio (y) = 0.38375 -0.08105
# Poissons Ratio (z) = 0.01576 -0.12358
#
# Static dielectric constant tensor:
#      x y z
#    x 1.990190 0.000000 0.039040 
#    y 0.000000 1.932210 0.000000 
#    z 0.039040 0.000000 1.847020 
# 
# From -- ./inp_files/81617.got.cif
#   From: 2010.05.17/outbox.cif.g08.bks.cpg/sg15_41_cif.got.tgz:81617.got - 2010.06.03 18:47:42.
