data_PCOD9290212
_publ_section_title
;
Structure prediction by ZEFSAII (Michael W. Deem and Ramdas Pophale) SiO2 
 PCOD9290212
Probable space group: C 2/C
;
_chemical_formula_sum "Si O2"
_cell_formula_units_Z 44
_cell_length_a 7.629326
_cell_length_b 18.044012
_cell_length_c 17.052998
_cell_angle_alpha 90.000000
_cell_angle_beta 72.658790
_cell_angle_gamma 90.000000
_cell_volume 2240.872701
_symmetry_space_group_name_H-M "C 2/C"
_symmetry_group_IT_number 15
_symmetry_cell_setting 'monoclinic'
loop_
_space_group_symop_operation_xyz
x,y,z
-x,y,1/2-z
-x,-y,-z
x,-y,1/2+z
1/2+x,1/2+y,z
1/2-x,1/2+y,1/2-z
1/2-x,1/2-y,-z
1/2+x,1/2-y,1/2+z
loop_
_atom_site_type_symbol
_atom_site_label
_atom_site_fract_x
_atom_site_fract_y
_atom_site_fract_z
Si Si1 0.039949 0.176520 0.334537
Si Si2 0.580848 0.415054 0.055878
Si Si3 0.500000 0.934496 0.250000
Si Si4 0.799037 0.033791 0.126509
Si Si5 0.619781 0.158545 0.878321
Si Si6 0.236321 0.161629 0.002279
O O1 0.183130 0.110755 0.329850
O O2 0.105343 0.253103 0.365892
O O3 0.000000 0.191256 0.250000
O O4 0.854323 0.146693 0.401558
O O5 0.481967 0.483455 0.111849
O O6 0.704318 0.366279 0.096185
O O7 0.414171 0.368275 0.039288
O O8 0.698444 0.446446 0.966588
O O9 0.389764 0.882412 0.204125
O O10 0.632495 0.985882 0.180776
O O11 0.437073 0.134527 0.951326
O O12 0.250000 0.250000 0.000000
#
# Coordination Sequence:
#
# PCOD9290212 Si02
#       6
#     8   8   4   8   8   8
#     4  10  22  41  63  96 136 168 212 279 328 378
#     4  10  22  44  67  94 128 177 220 263 330 393
#     4  12  24  42  64 102 130 170 226 270 326 392
#     4  10  24  42  62  96 135 164 219 273 326 391
#     4  11  23  42  72  92 130 176 222 268 323 397
#     4   9  20  40  65  94 129 169 217 267 316 390
#
# _framework density 19.635207000000001
#
# number of rings (size 3 to 8) (size 9 to 14) (size 15 to 20)
#    0.000    1.818    2.727    0.000    2.545    8.727 
#    0.000    3.636    0.000    0.000    0.000    0.000 
#    0.000    0.000    0.000    0.000    0.000    0.000 
#
# Total GULP energy -122746.096349 kJ/mol
# GULP energy per Si atom -5579.368016 kJ/mol
# Density = 1.959052 g / cm^3
# Si number density = 19.635207 Si / 1000 Ang^3
#
#
#
# Elastic Constant Matrix: (Units=GPa)
#
#
# Indices 1 2 3 4 5 6 
#
# 1 85.6517 50.4628 43.4410 0.0000 14.0159 0.0000
# 2 50.4628 130.5554 38.1283 0.0000 1.8201 0.0000
# 3 43.4410 38.1283 50.6056 0.0000 8.6914 0.0000
# 4 0.0000 0.0000 0.0000 26.1666 0.0000 -3.0712
# 5 14.0159 1.8201 8.6914 0.0000 16.5407 0.0000
# 6 0.0000 0.0000 0.0000 -3.0712 0.0000 34.5499
#
#
#
# Elastic Compliance Matrix: (Units=1/GPa)
#
#
# Indices 1 2 3 4 5 6 
#
# 1 0.024038 -0.004741 -0.015008 0.000000 -0.011961 0.000000
# 2 -0.004741 0.010901 -0.005086 0.000000 0.005491 0.000000
# 3 -0.015008 -0.005086 0.037588 0.000000 -0.006474 0.000000
# 4 0.000000 0.000000 0.000000 0.038620 0.000000 0.003433
# 5 -0.011961 0.005491 -0.006474 0.000000 0.073390 0.000000
# 6 0.000000 0.000000 0.000000 0.003433 0.000000 0.029249
#
#
# Mechanical properties :
#
#
# Convention : Reuss Voigt Hill
#
# Bulk Modulus (GPa) = 43.75298 58.98631 51.36965
# Shear Modulus (GPa) = 18.44516 24.43680 21.44098
#
# Velocity S-wave (km/s) = 3.06828 3.53163 3.30808
# Velocity P-wave (km/s) = 5.90624 6.83639 6.38827
#
# Compressibility (1/GPa) = 0.02285558
#
# Stress axis : x y z
#
# Youngs Moduli (GPa) = 41.60165 91.73378 26.60440
#
# Poissons Ratio (x) = 0.43494 0.39927
# Poissons Ratio (y) = 0.19725 0.13532
# Poissons Ratio (z) = 0.62435 0.46658
#
# Static dielectric constant tensor:
#      x y z
#    x 1.692700 0.000000 -0.038870 
#    y 0.000000 1.700510 0.000000 
#    z -0.038870 0.000000 1.718240 
# 
# From -- ./inp_files/189694.got.cif
#   From: 2010.05.17/outbox.cif.g08.bks.cpg/sg15_95_cif.got.tgz:189694.got - 2010.06.03 18:47:42.
