data_PCOD9290007
_publ_section_title
;
Structure prediction by ZEFSAII (Michael W. Deem and Ramdas Pophale) SiO2 
 PCOD9290007
Probable space group: C 2/C
;
_chemical_formula_sum "Si O2"
_cell_formula_units_Z 44
_cell_length_a 26.582670
_cell_length_b 8.605976
_cell_length_c 14.653644
_cell_angle_alpha 90.000000
_cell_angle_beta 39.469099
_cell_angle_gamma 90.000000
_cell_volume 2130.936939
_symmetry_space_group_name_H-M "C 2/C"
_symmetry_group_IT_number 15
_symmetry_cell_setting 'monoclinic'
loop_
_space_group_symop_operation_xyz
x,y,z
-x,y,1/2-z
-x,-y,-z
x,-y,1/2+z
1/2+x,1/2+y,z
1/2-x,1/2+y,1/2-z
1/2-x,1/2-y,-z
1/2+x,1/2-y,1/2+z
loop_
_atom_site_type_symbol
_atom_site_label
_atom_site_fract_x
_atom_site_fract_y
_atom_site_fract_z
Si Si1 0.288492 0.196868 0.803579
Si Si2 0.637062 0.530129 0.049661
Si Si3 0.560504 0.960879 0.335198
Si Si4 0.794862 0.032815 0.735130
Si Si5 0.841142 0.228461 0.840333
Si Si6 0.500000 0.781336 0.250000
O O1 0.277534 0.394281 0.045552
O O2 0.374725 0.163079 0.720101
O O3 0.274904 0.120980 0.721811
O O4 0.268946 0.377722 0.822641
O O5 0.620297 0.390122 0.141220
O O6 0.574583 0.667298 0.139518
O O7 0.648059 0.481614 0.928402
O O8 0.511870 0.888537 0.320678
O O9 0.500000 0.000000 0.500000
O O10 0.610755 0.112265 0.234994
O O11 0.835824 0.148352 0.748441
O O12 0.750000 0.250000 0.000000
#
# Coordination Sequence:
#
# PCOD9290007 Si02
#       6
#     8   8   8   8   8   4
#     4  10  22  44  69 100 135 188 224 286 346 424
#     4  10  25  44  68 103 140 186 241 278 362 420
#     4  12  28  46  67 106 143 181 234 300 360 415
#     4  10  22  40  72  98 140 173 241 289 343 416
#     4  12  23  43  74 105 134 186 245 288 352 434
#     4  12  28  44  68  98 148 182 232 300 354 422
#
# _framework density 20.648195000000001
#
# number of rings (size 3 to 8) (size 9 to 14) (size 15 to 20)
#    1.091    0.000    1.818    4.364    5.091    5.091 
#    0.000    3.636    0.000    0.000    0.000    0.000 
#    0.000    0.000    0.000    0.000    0.000    0.000 
#
# Total GULP energy -122899.886634 kJ/mol
# GULP energy per Si atom -5586.358483 kJ/mol
# Density = 2.060120 g / cm^3
# Si number density = 20.648195 Si / 1000 Ang^3
#
#
#
# Elastic Constant Matrix: (Units=GPa)
#
#
# Indices 1 2 3 4 5 6 
#
# 1 101.9391 41.6930 41.1326 -0.0001 17.6645 0.0001
# 2 41.6930 108.0000 19.3330 0.0000 8.9067 0.0001
# 3 41.1326 19.3330 79.7484 0.0000 6.2198 0.0000
# 4 -0.0001 0.0000 0.0000 23.6429 0.0000 0.6097
# 5 17.6645 8.9067 6.2198 0.0000 41.6328 0.0000
# 6 0.0001 0.0001 0.0000 0.6097 0.0000 50.9958
#
#
#
# Elastic Compliance Matrix: (Units=1/GPa)
#
#
# Indices 1 2 3 4 5 6 
#
# 1 0.014852 -0.004241 -0.006285 0.000000 -0.004456 0.000000
# 2 -0.004241 0.011017 -0.000445 0.000000 -0.000491 0.000000
# 3 -0.006285 -0.000445 0.015858 0.000000 0.000393 0.000000
# 4 0.000000 0.000000 0.000000 0.042309 0.000000 -0.000506
# 5 -0.004456 -0.000491 0.000393 0.000000 0.025956 0.000000
# 6 0.000000 0.000000 0.000000 -0.000506 0.000000 0.019616
#
#
# Mechanical properties :
#
#
# Convention : Reuss Voigt Hill
#
# Bulk Modulus (GPa) = 50.54244 54.88942 52.71593
# Shear Modulus (GPa) = 31.61643 35.75623 33.68633
#
# Velocity S-wave (km/s) = 3.91729 4.16587 4.04349
# Velocity P-wave (km/s) = 6.70756 7.05551 6.88373
#
# Compressibility (1/GPa) = 0.01978535
#
# Stress axis : x y z
#
# Youngs Moduli (GPa) = 67.32875 90.77137 63.05844
#
# Poissons Ratio (x) = 0.38498 0.39632
# Poissons Ratio (y) = 0.28556 0.02805
# Poissons Ratio (z) = 0.42316 0.04038
#
# Static dielectric constant tensor:
#      x y z
#    x 1.729730 0.000000 0.027860 
#    y 0.000000 1.736420 0.000000 
#    z 0.027860 0.000000 1.797230 
# 
# From -- ./inp_files/116671.got.cif
#   From: 2010.05.17/outbox.cif.g08.bks.cpg/sg15_59_cif.got.tgz:116671.got - 2010.06.03 18:47:42.
