data_PCOD9290102
_publ_section_title
;
Structure prediction by ZEFSAII (Michael W. Deem and Ramdas Pophale) SiO2 
 PCOD9290102
Probable space group: C 2/C
;
_chemical_formula_sum "Si O2"
_cell_formula_units_Z 44
_cell_length_a 19.951953
_cell_length_b 12.959119
_cell_length_c 13.961471
_cell_angle_alpha 90.000000
_cell_angle_beta 29.870535
_cell_angle_gamma 90.000000
_cell_volume 1797.868478
_symmetry_space_group_name_H-M "C 2/C"
_symmetry_group_IT_number 15
_symmetry_cell_setting 'monoclinic'
loop_
_space_group_symop_operation_xyz
x,y,z
-x,y,1/2-z
-x,-y,-z
x,-y,1/2+z
1/2+x,1/2+y,z
1/2-x,1/2+y,1/2-z
1/2-x,1/2-y,-z
1/2+x,1/2-y,1/2+z
loop_
_atom_site_type_symbol
_atom_site_label
_atom_site_fract_x
_atom_site_fract_y
_atom_site_fract_z
Si Si1 0.960677 0.546316 0.946071
Si Si2 0.763660 0.470553 0.926460
Si Si3 0.000000 0.081523 0.250000
Si Si4 0.722351 0.663993 0.298692
Si Si5 0.706045 0.145329 0.934397
Si Si6 0.521007 0.616114 0.013729
O O1 0.110701 0.548365 0.715637
O O2 0.873487 0.649554 0.068206
O O3 0.869966 0.456924 0.009745
O O4 0.000000 0.500000 0.000000
O O5 0.728816 0.435486 0.861756
O O6 0.625361 0.516719 0.135471
O O7 0.798850 0.369887 0.945935
O O8 0.946465 0.131137 0.414463
O O9 0.654596 0.749931 0.451710
O O10 0.621576 0.665723 0.335040
O O11 0.855672 0.152046 0.704911
O O12 0.500000 0.500000 0.000000
#
# Coordination Sequence:
#
# PCOD9290102 Si02
#       6
#     8   8   4   8   8   8
#     4  10  22  41  61  96 141 186 220 278 358 421
#     4  11  21  40  69 104 138 172 229 292 359 412
#     4  12  22  44  76  96 130 186 236 284 346 420
#     4  11  24  41  67 102 142 181 224 287 355 416
#     4  12  24  41  68 103 139 177 236 290 345 413
#     4  12  22  44  68  95 133 184 229 279 348 418
#
# _framework density 24.473424999999999
#
# number of rings (size 3 to 8) (size 9 to 14) (size 15 to 20)
#    0.000    0.727    5.455    2.182    5.091    0.000 
#    6.545    0.909    4.000    0.000    0.000    0.000 
#    0.000    0.000    0.000    0.000    0.000    0.000 
#
# Total GULP energy -122596.997370 kJ/mol
# GULP energy per Si atom -5572.590790 kJ/mol
# Density = 2.441772 g / cm^3
# Si number density = 24.473425 Si / 1000 Ang^3
#
#
#
# Elastic Constant Matrix: (Units=GPa)
#
#
# Indices 1 2 3 4 5 6 
#
# 1 121.5955 1.7788 8.8526 0.0000 7.1493 0.0000
# 2 1.7788 28.3683 0.9665 0.0000 -2.4262 0.0000
# 3 8.8526 0.9665 102.3286 0.0000 -13.6954 0.0000
# 4 0.0000 0.0000 0.0000 14.0965 0.0000 19.1767
# 5 7.1493 -2.4262 -13.6954 0.0000 40.1410 0.0000
# 6 0.0000 0.0000 0.0000 19.1767 0.0000 11.1106
#
#
#
# Elastic Compliance Matrix: (Units=1/GPa)
#
#
# Indices 1 2 3 4 5 6 
#
# 1 0.008414 -0.000654 -0.000972 0.000000 -0.001870 0.000000
# 2 -0.000654 0.035485 0.000025 0.000000 0.002270 0.000000
# 3 -0.000972 0.000025 0.010352 0.000000 0.003707 0.000000
# 4 0.000000 0.000000 0.000000 -0.052626 0.000000 0.090831
# 5 -0.001870 0.002270 0.003707 0.000000 0.026647 0.000000
# 6 0.000000 0.000000 0.000000 0.090831 0.000000 -0.066768
#
#
# Mechanical properties :
#
#
# Convention : Reuss Voigt Hill
#
# Bulk Modulus (GPa) = 19.58891 30.60981 25.09936
# Shear Modulus (GPa) = -273.57459 29.11591 -122.22934
#
# Velocity S-wave (km/s) = -10.58428 3.45294 -7.07475
# Velocity P-wave (km/s) = 11.88898 5.33212 7.51386
#
# Compressibility (1/GPa) = 0.05104929
#
# Stress axis : x y z
#
# Youngs Moduli (GPa) = 118.84585 28.18095 96.59608
#
# Poissons Ratio (x) = 0.01844 0.09389
# Poissons Ratio (y) = 0.07777 -0.00244
# Poissons Ratio (z) = 0.11552 -0.00071
#
# Static dielectric constant tensor:
#      x y z
#    x 2.050010 0.000000 0.030530 
#    y 0.000000 2.375300 0.000000 
#    z 0.030530 0.000000 2.063820 
# 
# From -- ./inp_files/168420.got.cif
#   From: 2010.05.17/outbox.cif.g08.bks.cpg/sg15_85_cif.got.tgz:168420.got - 2010.06.03 18:47:42.
