data_PCOD9290907
_publ_section_title
;
Structure prediction by ZEFSAII (Michael W. Deem and Ramdas Pophale) SiO2 
 PCOD9290907
Probable space group: C 2/C
;
_chemical_formula_sum "Si O2"
_cell_formula_units_Z 36
_cell_length_a 21.214810
_cell_length_b 6.129107
_cell_length_c 26.675739
_cell_angle_alpha 90.000000
_cell_angle_beta 26.818919
_cell_angle_gamma 90.000000
_cell_volume 1564.930973
_symmetry_space_group_name_H-M "C 2/C"
_symmetry_group_IT_number 15
_symmetry_cell_setting 'monoclinic'
loop_
_space_group_symop_operation_xyz
x,y,z
-x,y,1/2-z
-x,-y,-z
x,-y,1/2+z
1/2+x,1/2+y,z
1/2-x,1/2+y,1/2-z
1/2-x,1/2-y,-z
1/2+x,1/2-y,1/2+z
loop_
_atom_site_type_symbol
_atom_site_label
_atom_site_fract_x
_atom_site_fract_y
_atom_site_fract_z
Si Si1 0.955466 0.781841 0.698437
Si Si2 0.232181 0.848546 0.131983
Si Si3 0.458640 0.564858 0.948410
Si Si4 0.282745 0.496246 0.167214
Si Si5 0.000000 0.538111 0.250000
O O1 0.044713 0.948785 0.602438
O O2 0.858365 0.639093 0.730577
O O3 0.034684 0.618200 0.678685
O O4 0.845623 0.924301 0.809070
O O5 0.247405 0.746400 0.177503
O O6 0.128365 0.687787 0.175758
O O7 0.385393 0.803437 0.000293
O O8 0.612336 0.553940 0.862847
O O9 0.367061 0.437836 0.055705
#
# Coordination Sequence:
#
# PCOD9290907 Si02
#       5
#     8   8   8   8   4
#     4  11  21  38  66  81 119 172 181 245 315 320
#     4   9  20  40  55  88 119 148 206 245 270 364
#     4   9  20  39  59  92 120 153 194 242 298 355
#     4   8  20  39  54  92 127 136 205 244 275 379
#     4  10  22  42  58  84 126 148 214 252 264 360
#
# _framework density 23.00421
#
# number of rings (size 3 to 8) (size 9 to 14) (size 15 to 20)
#    1.333    1.333    0.000    0.667    3.111    1.778 
#    8.000    2.222    0.000    0.000    0.000    0.000 
#    0.000    0.000    0.000    0.000    0.000    0.000 
#
# Total GULP energy -100296.605524 kJ/mol
# GULP energy per Si atom -5572.033640 kJ/mol
# Density = 2.295185 g / cm^3
# Si number density = 23.004210 Si / 1000 Ang^3
#
#
#
# Elastic Constant Matrix: (Units=GPa)
#
#
# Indices 1 2 3 4 5 6 
#
# 1 90.6299 11.6328 26.6682 0.0102 -12.0609 -0.0046
# 2 11.6328 38.2308 14.3811 0.0197 -2.1597 0.0381
# 3 26.6682 14.3811 43.5181 0.0114 6.3256 0.0011
# 4 0.0102 0.0197 0.0114 29.8858 -0.0085 5.6352
# 5 -12.0609 -2.1597 6.3256 -0.0085 26.3193 0.0146
# 6 -0.0046 0.0381 0.0011 5.6352 0.0146 17.0665
#
#
#
# Elastic Compliance Matrix: (Units=1/GPa)
#
#
# Indices 1 2 3 4 5 6 
#
# 1 0.015555 -0.000073 -0.010925 0.000002 0.009748 -0.000004
# 2 -0.000073 0.030519 -0.010776 -0.000001 0.005061 -0.000071
# 3 -0.010925 -0.010776 0.035326 -0.000013 -0.014381 0.000036
# 4 0.000002 -0.000001 -0.000013 0.035682 0.000022 -0.011782
# 5 0.009748 0.005061 -0.014381 0.000022 0.046334 -0.000055
# 6 -0.000004 -0.000071 0.000036 -0.011782 -0.000055 0.062485
#
#
# Mechanical properties :
#
#
# Convention : Reuss Voigt Hill
#
# Bulk Modulus (GPa) = 26.41950 30.86033 28.63992
# Shear Modulus (GPa) = 17.72633 22.63410 20.18022
#
# Velocity S-wave (km/s) = 2.77892 3.14014 2.96504
# Velocity P-wave (km/s) = 4.66970 5.15669 4.91923
#
# Compressibility (1/GPa) = 0.03785083
#
# Stress axis : x y z
#
# Youngs Moduli (GPa) = 64.28673 32.76674 28.30811
#
# Poissons Ratio (x) = 0.00238 0.30927
# Poissons Ratio (y) = 0.00468 0.30506
# Poissons Ratio (z) = 0.70235 0.35311
#
# Static dielectric constant tensor:
#      x y z
#    x 1.839680 -0.000020 -0.005030 
#    y -0.000020 1.880470 0.000010 
#    z -0.005030 0.000010 1.886860 
# 
# From -- ./inp_files/318184.got.cif
#   From: 2010.05.17/outbox.cif.g08.bks.cpg/sg15_160_cif.got.tgz:318184.got - 2010.06.03 18:47:42.
