data_PCOD9290263
_publ_section_title
;
Structure prediction by ZEFSAII (Michael W. Deem and Ramdas Pophale) SiO2 
 PCOD9290263
Probable space group: C 2/C
;
_chemical_formula_sum "Si O2"
_cell_formula_units_Z 32
_cell_length_a 14.124368
_cell_length_b 17.759983
_cell_length_c 12.475868
_cell_angle_alpha 90.000000
_cell_angle_beta 28.637980
_cell_angle_gamma 90.000000
_cell_volume 1499.912696
_symmetry_space_group_name_H-M "C 2/C"
_symmetry_group_IT_number 15
_symmetry_cell_setting 'monoclinic'
loop_
_space_group_symop_operation_xyz
x,y,z
-x,y,1/2-z
-x,-y,-z
x,-y,1/2+z
1/2+x,1/2+y,z
1/2-x,1/2+y,1/2-z
1/2-x,1/2-y,-z
1/2+x,1/2-y,1/2+z
loop_
_atom_site_type_symbol
_atom_site_label
_atom_site_fract_x
_atom_site_fract_y
_atom_site_fract_z
Si Si1 0.748593 0.925563 0.308129
Si Si2 0.420815 0.081325 0.947428
Si Si3 0.503129 0.795788 0.629235
Si Si4 0.636091 0.654944 0.380456
O O1 0.608228 0.920964 0.342294
O O2 0.680669 0.854534 0.446434
O O3 0.691768 0.001805 0.424954
O O4 0.975661 0.910417 0.054049
O O5 0.500000 0.092732 0.750000
O O6 0.261584 0.142381 0.147965
O O7 0.500000 0.760809 0.750000
O O8 0.529417 0.734415 0.509151
O O9 0.306147 0.843335 0.801942
#
# Coordination Sequence:
#
# PCOD9290263 Si02
#       4
#     8   8   8   8
#     4  10  22  41  64  94 126 159 212 267 313 377
#     4  10  23  44  64  90 128 166 210 260 313 374
#     4  11  22  38  63  98 132 161 205 267 320 370
#     4  11  22  38  63  94 128 164 208 256 315 378
#
# _framework density 21.334574
#
# number of rings (size 3 to 8) (size 9 to 14) (size 15 to 20)
#    0.000    1.500    2.500    2.250    0.000    1.000 
#    0.000    7.500    0.000    0.000    0.000    0.000 
#    0.000    0.000    0.000    0.000    0.000    0.000 
#
# Total GULP energy -89303.314347 kJ/mol
# GULP energy per Si atom -5581.457147 kJ/mol
# Density = 2.128602 g / cm^3
# Si number density = 21.334574 Si / 1000 Ang^3
#
#
#
# Elastic Constant Matrix: (Units=GPa)
#
#
# Indices 1 2 3 4 5 6 
#
# 1 56.7376 30.9243 75.9661 -0.0041 9.3151 0.0027
# 2 30.9243 97.3788 62.2190 0.0088 20.1425 -0.0033
# 3 75.9661 62.2190 184.5481 0.0079 6.9914 -0.0010
# 4 -0.0041 0.0088 0.0079 43.2776 0.0005 -5.0796
# 5 9.3151 20.1425 6.9914 0.0005 45.1988 -0.0021
# 6 0.0027 -0.0033 -0.0010 -5.0796 -0.0021 20.5048
#
#
#
# Elastic Compliance Matrix: (Units=1/GPa)
#
#
# Indices 1 2 3 4 5 6 
#
# 1 0.040925 -0.001631 -0.016098 0.000007 -0.005217 -0.000005
# 2 -0.001631 0.014482 -0.004003 -0.000002 -0.005498 0.000001
# 3 -0.016098 -0.004003 0.013279 -0.000003 0.003047 0.000002
# 4 0.000007 -0.000002 -0.000003 0.023799 0.000000 0.005896
# 5 -0.005217 -0.005498 0.003047 0.000000 0.025179 0.000003
# 6 -0.000005 0.000001 0.000002 0.005896 0.000003 0.050230
#
#
# Mechanical properties :
#
#
# Convention : Reuss Voigt Hill
#
# Bulk Modulus (GPa) = 39.64896 75.20926 57.42911
# Shear Modulus (GPa) = 22.75154 33.09991 27.92572
#
# Velocity S-wave (km/s) = 3.26915 3.94314 3.62186
# Velocity P-wave (km/s) = 5.73363 7.48732 6.66837
#
# Compressibility (1/GPa) = 0.02522135
#
# Stress axis : x y z
#
# Youngs Moduli (GPa) = 24.43497 69.05094 75.30509
#
# Poissons Ratio (x) = 0.11265 1.21229
# Poissons Ratio (y) = 0.03986 0.30142
# Poissons Ratio (z) = 0.39336 0.27639
#
# Static dielectric constant tensor:
#      x y z
#    x 1.734450 0.000000 -0.031630 
#    y 0.000000 1.810290 0.000000 
#    z -0.031630 0.000000 1.830430 
# 
# From -- ./inp_files/89929.got.cif
#   From: 2010.05.17/outbox.cif.g08.bks.cpg/sg15_45_cif.got.tgz:89929.got - 2010.06.03 18:47:42.
