data_PCOD9290126
_publ_section_title
;
Structure prediction by ZEFSAII (Michael W. Deem and Ramdas Pophale) SiO2 
 PCOD9290126
Probable space group: C 2/C
;
_chemical_formula_sum "Si O2"
_cell_formula_units_Z 52
_cell_length_a 6.700781
_cell_length_b 26.935344
_cell_length_c 15.005736
_cell_angle_alpha 90.000000
_cell_angle_beta 71.707289
_cell_angle_gamma 90.000000
_cell_volume 2571.487409
_symmetry_space_group_name_H-M "C 2/C"
_symmetry_group_IT_number 15
_symmetry_cell_setting 'monoclinic'
loop_
_space_group_symop_operation_xyz
x,y,z
-x,y,1/2-z
-x,-y,-z
x,-y,1/2+z
1/2+x,1/2+y,z
1/2-x,1/2+y,1/2-z
1/2-x,1/2-y,-z
1/2+x,1/2-y,1/2+z
loop_
_atom_site_type_symbol
_atom_site_label
_atom_site_fract_x
_atom_site_fract_y
_atom_site_fract_z
Si Si1 0.142975 0.786272 0.644466
Si Si2 0.555649 0.391713 0.058337
Si Si3 0.133833 0.098816 0.107173
Si Si4 0.000000 0.950561 0.250000
Si Si5 0.263183 0.965217 0.791224
Si Si6 0.437429 0.043179 0.443199
Si Si7 0.472429 0.275860 0.468140
O O1 0.170275 0.845628 0.636285
O O2 0.358664 0.755376 0.612351
O O3 0.000000 0.773767 0.750000
O O4 0.040666 0.775542 0.562400
O O5 0.508751 0.417856 0.159364
O O6 0.548628 0.332128 0.063892
O O7 0.401951 0.402972 0.995259
O O8 0.785218 0.413327 0.000274
O O9 0.336390 0.067954 0.108661
O O10 0.918960 0.075393 0.175896
O O11 0.194230 0.988813 0.239420
O O12 0.500000 0.944615 0.750000
O O13 0.294244 0.983720 0.888506
O O14 0.500000 0.000000 0.500000
O O15 0.250000 0.250000 0.500000
#
# Coordination Sequence:
#
# PCOD9290126 Si02
#       7
#     8   8   8   4   8   8   8
#     4  10  23  40  67  98 127 166 215 274 341 385
#     4  10  23  40  61  91 121 172 214 259 327 384
#     4  10  22  41  62  90 130 163 210 272 324 384
#     4  12  24  40  58  88 134 166 218 260 308 392
#     4  11  23  36  57  89 124 168 209 258 313 376
#     4  11  21  37  61  86 123 171 213 258 320 376
#     4  10  22  45  66  94 131 165 215 277 330 396
#
# _framework density 20.221758999999999
#
# number of rings (size 3 to 8) (size 9 to 14) (size 15 to 20)
#    0.000    1.538    0.000    4.615    3.231    4.308 
#    0.000    0.769    0.000    0.000    0.000    0.000 
#    0.000    0.000    0.000    0.000    0.000    0.000 
#
# Total GULP energy -144962.180764 kJ/mol
# GULP energy per Si atom -5575.468491 kJ/mol
# Density = 2.017573 g / cm^3
# Si number density = 20.221759 Si / 1000 Ang^3
#
#
#
# Elastic Constant Matrix: (Units=GPa)
#
#
# Indices 1 2 3 4 5 6 
#
# 1 135.4222 85.3711 53.8291 0.0000 -6.2219 0.0000
# 2 85.3711 139.3472 68.0124 0.0000 -4.8768 0.0000
# 3 53.8291 68.0124 120.9624 0.0000 -7.1472 0.0000
# 4 0.0000 0.0000 0.0000 31.0247 0.0000 -0.3831
# 5 -6.2219 -4.8768 -7.1472 0.0000 39.4535 0.0000
# 6 0.0000 0.0000 0.0000 -0.3831 0.0000 37.0862
#
#
#
# Elastic Compliance Matrix: (Units=1/GPa)
#
#
# Indices 1 2 3 4 5 6 
#
# 1 0.012305 -0.006700 -0.001661 0.000000 0.000812 0.000000
# 2 -0.006700 0.013540 -0.004645 0.000000 -0.000224 0.000000
# 3 -0.001661 -0.004645 0.011694 0.000000 0.001282 0.000000
# 4 0.000000 0.000000 0.000000 0.032237 0.000000 0.000333
# 5 0.000812 -0.000224 0.001282 0.000000 0.025679 0.000000
# 6 0.000000 0.000000 0.000000 0.000333 0.000000 0.026968
#
#
# Mechanical properties :
#
#
# Convention : Reuss Voigt Hill
#
# Bulk Modulus (GPa) = 86.74710 90.01744 88.38227
# Shear Modulus (GPa) = 32.83502 34.08082 33.45792
#
# Velocity S-wave (km/s) = 4.03395 4.10976 4.07203
# Velocity P-wave (km/s) = 8.04288 8.19341 8.11850
#
# Compressibility (1/GPa) = 0.01152776
#
# Stress axis : x y z
#
# Youngs Moduli (GPa) = 81.26468 73.85402 85.51682
#
# Poissons Ratio (x) = 0.49481 0.14204
# Poissons Ratio (y) = 0.54446 0.39722
# Poissons Ratio (z) = 0.13498 0.34305
#
# Static dielectric constant tensor:
#      x y z
#    x 1.684000 0.000000 0.015650 
#    y 0.000000 1.686660 0.000000 
#    z 0.015650 0.000000 1.933100 
# 
# From -- ./inp_files/130698.got.cif
#   From: 2010.05.17/outbox.cif.g08.bks.cpg/sg15_66_cif.got.tgz:130698.got - 2010.06.03 18:47:42.
