data_PCOD9290095
_publ_section_title
;
Structure prediction by ZEFSAII (Michael W. Deem and Ramdas Pophale) SiO2 
 PCOD9290095
Probable space group: C 2/C
;
_chemical_formula_sum "Si O2"
_cell_formula_units_Z 64
_cell_length_a 17.755445
_cell_length_b 21.862943
_cell_length_c 24.344981
_cell_angle_alpha 90.000000
_cell_angle_beta 160.253671
_cell_angle_gamma 90.000000
_cell_volume 3192.874097
_symmetry_space_group_name_H-M "C 2/C"
_symmetry_group_IT_number 15
_symmetry_cell_setting 'monoclinic'
loop_
_space_group_symop_operation_xyz
x,y,z
-x,y,1/2-z
-x,-y,-z
x,-y,1/2+z
1/2+x,1/2+y,z
1/2-x,1/2+y,1/2-z
1/2-x,1/2-y,-z
1/2+x,1/2-y,1/2+z
loop_
_atom_site_type_symbol
_atom_site_label
_atom_site_fract_x
_atom_site_fract_y
_atom_site_fract_z
Si Si1 0.595466 0.854189 0.009739
Si Si2 0.266447 0.800415 0.058248
Si Si3 0.045901 0.128619 0.658104
Si Si4 0.240124 0.274168 0.893124
Si Si5 0.145236 0.821765 0.649369
Si Si6 0.707516 0.546190 0.928938
Si Si7 0.581402 0.568091 0.566900
Si Si8 0.426409 0.068547 0.638153
O O1 0.344579 0.831237 0.829508
O O2 0.709588 0.863538 0.147349
O O3 0.738782 0.798149 0.083148
O O4 0.626359 0.916106 0.996301
O O5 0.500000 0.793460 0.250000
O O6 0.279196 0.869781 0.042515
O O7 0.250000 0.750000 0.000000
O O8 0.064002 0.793350 0.962254
O O9 0.046512 0.085312 0.605919
O O10 0.931770 0.190809 0.558566
O O11 0.892138 0.096075 0.597647
O O12 0.277431 0.287779 0.853733
O O13 0.000000 0.295853 0.750000
O O14 0.061780 0.886938 0.569461
O O15 0.500000 0.524768 0.750000
O O16 0.810613 0.488640 0.030113
O O17 0.500000 0.500000 0.500000
O O18 0.839974 0.580688 0.731646
O O19 0.500000 0.050664 0.750000
#
# Coordination Sequence:
#
# PCOD9290095 Si02
#       8
#     8   8   8   8   8   8   8   8
#     4  11  23  40  62  96 139 173 212 266 334 399
#     4  11  26  48  71  97 130 176 234 290 341 396
#     4  10  23  39  61  94 133 172 214 263 326 394
#     4  11  23  40  67  99 136 179 221 265 328 407
#     4  11  24  42  66  98 131 174 224 274 335 400
#     4  10  22  41  61  93 135 169 207 265 332 403
#     4  11  22  41  67  95 125 169 222 276 332 397
#     4  11  22  44  67  90 126 166 224 280 326 394
#
# _framework density 20.044636000000001
#
# number of rings (size 3 to 8) (size 9 to 14) (size 15 to 20)
#    0.000    1.250    2.500    4.125    1.750    5.500 
#    2.250    1.875    0.000    0.000    0.000    0.000 
#    0.000    0.000    0.000    0.000    0.000    0.000 
#
# Total GULP energy -178801.613800 kJ/mol
# GULP energy per Si atom -5587.550431 kJ/mol
# Density = 1.999901 g / cm^3
# Si number density = 20.044636 Si / 1000 Ang^3
#
#
#
# Elastic Constant Matrix: (Units=GPa)
#
#
# Indices 1 2 3 4 5 6 
#
# 1 94.3911 37.1217 44.6013 -0.0311 0.4937 -0.0344
# 2 37.1217 117.1420 39.8467 -0.2872 -23.5274 0.2254
# 3 44.6013 39.8467 119.8063 -0.4506 -7.6014 0.2534
# 4 -0.0311 -0.2872 -0.4506 -1.9080 -0.0234 30.5760
# 5 0.4937 -23.5274 -7.6014 -0.0234 38.4708 0.0984
# 6 -0.0344 0.2254 0.2534 30.5760 0.0984 -36.4731
#
#
#
# Elastic Compliance Matrix: (Units=1/GPa)
#
#
# Indices 1 2 3 4 5 6 
#
# 1 0.014047 -0.003672 -0.004215 -0.000014 -0.003259 -0.000086
# 2 -0.003672 0.011796 -0.002122 0.000001 0.006842 0.000081
# 3 -0.004215 -0.002122 0.010677 0.000086 0.000865 0.000139
# 4 -0.000014 0.000001 0.000086 0.042152 -0.000047 0.035337
# 5 -0.003259 0.006842 0.000865 -0.000047 0.030390 0.000094
# 6 -0.000086 0.000081 0.000139 0.035337 0.000094 0.002208
#
#
# Mechanical properties :
#
#
# Convention : Reuss Voigt Hill
#
# Bulk Modulus (GPa) = 60.60046 63.83098 62.21572
# Shear Modulus (GPa) = 36.55277 14.00259 25.27768
#
# Velocity S-wave (km/s) = 4.27496 2.64592 3.55501
# Velocity P-wave (km/s) = 7.39361 6.42246 6.92508
#
# Compressibility (1/GPa) = 0.01650153
#
# Stress axis : x y z
#
# Youngs Moduli (GPa) = 71.19032 84.77294 93.66230
#
# Poissons Ratio (x) = 0.31129 0.39475
# Poissons Ratio (y) = 0.26142 0.19879
# Poissons Ratio (z) = 0.30004 0.17992
#
# Static dielectric constant tensor:
#      x y z
#    x 1.935740 -0.000060 0.063780 
#    y -0.000060 1.694730 -0.000040 
#    z 0.063780 -0.000040 1.724150 
# 
# From -- ./inp_files/278155.got.cif
#   From: 2010.05.17/outbox.cif.g08.bks.cpg/sg15_140_cif.got.tgz:278155.got - 2010.06.03 18:47:42.
