data_PCOD9290122
_publ_section_title
;
Structure prediction by ZEFSAII (Michael W. Deem and Ramdas Pophale) SiO2 
 PCOD9290122
Probable space group: C 2/C
;
_chemical_formula_sum "Si O2"
_cell_formula_units_Z 40
_cell_length_a 12.060133
_cell_length_b 7.692752
_cell_length_c 23.187093
_cell_angle_alpha 90.000000
_cell_angle_beta 50.288095
_cell_angle_gamma 90.000000
_cell_volume 1654.844271
_symmetry_space_group_name_H-M "C 2/C"
_symmetry_group_IT_number 15
_symmetry_cell_setting 'monoclinic'
loop_
_space_group_symop_operation_xyz
x,y,z
-x,y,1/2-z
-x,-y,-z
x,-y,1/2+z
1/2+x,1/2+y,z
1/2-x,1/2+y,1/2-z
1/2-x,1/2-y,-z
1/2+x,1/2-y,1/2+z
loop_
_atom_site_type_symbol
_atom_site_label
_atom_site_fract_x
_atom_site_fract_y
_atom_site_fract_z
Si Si1 0.493941 0.776786 0.987643
Si Si2 0.558418 0.442825 0.559836
Si Si3 0.197077 0.910290 0.127883
Si Si4 0.215250 0.586501 0.191407
Si Si5 0.236909 0.301800 0.812904
O O1 0.410474 0.602586 0.993398
O O2 0.592259 0.805023 0.899405
O O3 0.594803 0.725625 0.008889
O O4 0.365297 0.899492 0.050948
O O5 0.619348 0.497107 0.600824
O O6 0.388159 0.414946 0.625652
O O7 0.154220 0.715657 0.162697
O O8 0.180405 0.032340 0.189253
O O9 0.195051 0.670217 0.260850
O O10 0.181070 0.381052 0.203947
#
# Coordination Sequence:
#
# PCOD9290122 Si02
#       5
#     8   8   8   8   8
#     4   9  20  38  62  93 122 165 207 262 322 376
#     4   9  20  39  65  92 125 159 215 263 313 378
#     4  11  21  39  69  89 123 166 211 262 319 377
#     4  10  22  41  62  89 126 174 206 257 327 378
#     4  11  21  39  62  88 128 164 209 255 322 380
#
# _framework density 24.171457
#
# number of rings (size 3 to 8) (size 9 to 14) (size 15 to 20)
#    0.000    2.000    2.000    2.400    0.000    1.600 
#    0.000    8.000   13.200    0.000    0.000    0.000 
#    0.000    0.000    0.000    0.000    0.000    0.000 
#
# Total GULP energy -111605.501065 kJ/mol
# GULP energy per Si atom -5580.275053 kJ/mol
# Density = 2.411644 g / cm^3
# Si number density = 24.171457 Si / 1000 Ang^3
#
#
#
# Elastic Constant Matrix: (Units=GPa)
#
#
# Indices 1 2 3 4 5 6 
#
# 1 87.8736 11.1479 31.1590 0.0000 24.7402 0.0000
# 2 11.1479 123.8777 32.9928 0.0000 8.3968 0.0000
# 3 31.1590 32.9928 125.5341 0.0000 28.0897 0.0000
# 4 0.0000 0.0000 0.0000 42.6645 0.0000 19.8449
# 5 24.7402 8.3968 28.0897 0.0000 34.6942 0.0000
# 6 0.0000 0.0000 0.0000 19.8449 0.0000 19.4798
#
#
#
# Elastic Compliance Matrix: (Units=1/GPa)
#
#
# Indices 1 2 3 4 5 6 
#
# 1 0.014497 -0.000293 -0.001495 0.000000 -0.009057 0.000000
# 2 -0.000293 0.008689 -0.002182 0.000000 -0.000127 0.000000
# 3 -0.001495 -0.002182 0.010446 0.000000 -0.006864 0.000000
# 4 0.000000 0.000000 0.000000 0.044548 0.000000 -0.045383
# 5 -0.009057 -0.000127 -0.006864 0.000000 0.040869 0.000000
# 6 0.000000 0.000000 0.000000 -0.045383 0.000000 0.097569
#
#
# Mechanical properties :
#
#
# Convention : Reuss Voigt Hill
#
# Bulk Modulus (GPa) = 38.92230 54.20941 46.56585
# Shear Modulus (GPa) = 21.44794 36.83341 29.14068
#
# Velocity S-wave (km/s) = 2.98203 3.90787 3.47592
# Velocity P-wave (km/s) = 5.29096 6.54505 5.95113
#
# Compressibility (1/GPa) = 0.02569222
#
# Stress axis : x y z
#
# Youngs Moduli (GPa) = 68.97983 115.09213 95.72651
#
# Poissons Ratio (x) = 0.03367 0.14310
# Poissons Ratio (y) = 0.02018 0.20892
# Poissons Ratio (z) = 0.10312 0.25118
#
# Static dielectric constant tensor:
#      x y z
#    x 1.954960 0.000000 -0.012020 
#    y 0.000000 2.103230 0.000000 
#    z -0.012020 0.000000 1.971120 
# 
# From -- ./inp_files/267548.got.cif
#   From: 2010.05.17/outbox.cif.g08.bks.cpg/sg15_134_cif.got.tgz:267548.got - 2010.06.03 18:47:42.
