data_PCOD9290785
_publ_section_title
;
Structure prediction by ZEFSAII (Michael W. Deem and Ramdas Pophale) SiO2 
 PCOD9290785
Probable space group: C 2/C
;
_chemical_formula_sum "Si O2"
_cell_formula_units_Z 48
_cell_length_a 5.336853
_cell_length_b 29.701905
_cell_length_c 13.384753
_cell_angle_alpha 90.000000
_cell_angle_beta 111.389917
_cell_angle_gamma 90.000000
_cell_volume 1975.538818
_symmetry_space_group_name_H-M "C 2/C"
_symmetry_group_IT_number 15
_symmetry_cell_setting 'monoclinic'
loop_
_space_group_symop_operation_xyz
x,y,z
-x,y,1/2-z
-x,-y,-z
x,-y,1/2+z
1/2+x,1/2+y,z
1/2-x,1/2+y,1/2-z
1/2-x,1/2-y,-z
1/2+x,1/2-y,1/2+z
loop_
_atom_site_type_symbol
_atom_site_label
_atom_site_fract_x
_atom_site_fract_y
_atom_site_fract_z
Si Si1 0.500000 0.859392 0.250000
Si Si2 0.192484 0.232862 0.177095
Si Si3 0.013891 0.318669 0.049239
Si Si4 0.006445 0.139409 0.094869
Si Si5 0.000000 0.068955 0.250000
Si Si6 0.191759 0.004639 0.930860
Si Si7 0.033754 0.895483 0.384298
O O1 0.407047 0.828237 0.146095
O O2 0.766764 0.889083 0.278844
O O3 0.500000 0.245568 0.250000
O O4 0.089505 0.266856 0.074922
O O5 0.000000 0.232264 0.250000
O O6 0.190805 0.183569 0.125984
O O7 0.264824 0.352804 0.087358
O O8 0.790423 0.336451 0.939369
O O9 0.128273 0.105252 0.193427
O O10 0.959896 0.108303 0.991490
O O11 0.851972 0.034669 0.155803
O O12 0.147621 0.055076 0.884807
O O13 0.500000 0.000000 0.000000
O O14 0.000000 0.000000 0.000000
#
# Coordination Sequence:
#
# PCOD9290785 Si02
#       7
#     4   8   8   8   4   8   8
#     4  10  22  41  70 104 144 196 247 320 386 456
#     4  12  27  46  76 110 153 205 262 318 392 470
#     4  11  24  46  72 108 152 202 261 318 391 465
#     4  11  26  48  76 106 155 203 260 321 395 464
#     4  12  26  53  80 112 160 204 257 332 386 466
#     4  12  29  52  77 113 153 202 261 319 393 470
#     4  11  25  44  75 109 150 198 260 323 394 470
#
# _framework density 24.297170999999999
#
# number of rings (size 3 to 8) (size 9 to 14) (size 15 to 20)
#    0.000    0.667    3.333    3.000    9.333    2.667 
#    3.000    0.000    0.000    0.000    0.000    0.000 
#    0.000    0.000    0.000    0.000    0.000    0.000 
#
# Total GULP energy -133839.828331 kJ/mol
# GULP energy per Si atom -5576.659514 kJ/mol
# Density = 2.424187 g / cm^3
# Si number density = 24.297171 Si / 1000 Ang^3
#
#
#
# Elastic Constant Matrix: (Units=GPa)
#
#
# Indices 1 2 3 4 5 6 
#
# 1 86.6803 18.8820 25.1815 0.0000 23.6765 0.0000
# 2 18.8820 210.1213 44.0780 0.0000 4.6668 0.0000
# 3 25.1815 44.0780 89.0896 0.0000 3.1482 0.0000
# 4 0.0000 0.0000 0.0000 45.9450 0.0000 -8.7734
# 5 23.6765 4.6668 3.1482 0.0000 26.2412 0.0000
# 6 0.0000 0.0000 0.0000 -8.7734 0.0000 25.4934
#
#
#
# Elastic Compliance Matrix: (Units=1/GPa)
#
#
# Indices 1 2 3 4 5 6 
#
# 1 0.016773 -0.000331 -0.004062 0.000000 -0.014588 0.000000
# 2 -0.000331 0.005327 -0.002530 0.000000 -0.000345 0.000000
# 3 -0.004062 -0.002530 0.013536 0.000000 0.002491 0.000000
# 4 0.000000 0.000000 0.000000 0.023296 0.000000 0.008017
# 5 -0.014588 -0.000345 0.002491 0.000000 0.051033 0.000000
# 6 0.000000 0.000000 0.000000 0.008017 0.000000 0.041985
#
#
# Mechanical properties :
#
#
# Convention : Reuss Voigt Hill
#
# Bulk Modulus (GPa) = 45.88969 62.46382 54.17675
# Shear Modulus (GPa) = 28.89168 39.38590 34.13879
#
# Velocity S-wave (km/s) = 3.45207 4.03054 3.75247
# Velocity P-wave (km/s) = 5.90058 6.88654 6.41254
#
# Compressibility (1/GPa) = 0.02179139
#
# Stress axis : x y z
#
# Youngs Moduli (GPa) = 59.61826 187.71249 73.87499
#
# Poissons Ratio (x) = 0.06218 0.30006
# Poissons Ratio (y) = 0.01975 0.18690
# Poissons Ratio (z) = 0.24215 0.47490
#
# Static dielectric constant tensor:
#      x y z
#    x 2.143930 0.000000 -0.169070 
#    y 0.000000 1.916800 0.000000 
#    z -0.169070 0.000000 2.054340 
# 
# From -- ./inp_files/130974.got.cif
#   From: 2010.05.17/outbox.cif.g08.bks.cpg/sg15_66_cif.got.tgz:130974.got - 2010.06.03 18:47:42.
