data_PCOD9290539
_publ_section_title
;
Structure prediction by ZEFSAII (Michael W. Deem and Ramdas Pophale) SiO2 
 PCOD9290539
Probable space group: C 2/C
;
_chemical_formula_sum "Si O2"
_cell_formula_units_Z 48
_cell_length_a 13.880468
_cell_length_b 18.818238
_cell_length_c 12.443861
_cell_angle_alpha 90.000000
_cell_angle_beta 138.202593
_cell_angle_gamma 90.000000
_cell_volume 2166.394503
_symmetry_space_group_name_H-M "C 2/C"
_symmetry_group_IT_number 15
_symmetry_cell_setting 'monoclinic'
loop_
_space_group_symop_operation_xyz
x,y,z
-x,y,1/2-z
-x,-y,-z
x,-y,1/2+z
1/2+x,1/2+y,z
1/2-x,1/2+y,1/2-z
1/2-x,1/2-y,-z
1/2+x,1/2-y,1/2+z
loop_
_atom_site_type_symbol
_atom_site_label
_atom_site_fract_x
_atom_site_fract_y
_atom_site_fract_z
Si Si1 0.297667 0.119946 0.757557
Si Si2 0.500000 0.857600 0.750000
Si Si3 0.332944 0.391420 0.575064
Si Si4 0.500000 0.631154 0.750000
Si Si5 0.568119 0.800203 0.414001
Si Si6 0.718278 0.959410 0.054991
Si Si7 0.100097 0.237053 0.672942
O O1 0.183039 0.110614 0.566994
O O2 0.453748 0.136064 0.838217
O O3 0.301765 0.050968 0.834653
O O4 0.246471 0.189230 0.784782
O O5 0.403732 0.911416 0.600900
O O6 0.590366 0.805697 0.743577
O O7 0.500000 0.393412 0.750000
O O8 0.230964 0.326880 0.530580
O O9 0.245871 0.460807 0.542512
O O10 0.635887 0.581485 0.853483
O O11 0.490934 0.682108 0.638941
O O12 0.500000 0.765274 0.250000
O O13 0.565249 0.757346 0.522151
#
# Coordination Sequence:
#
# PCOD9290539 Si02
#       7
#     8   4   8   4   8   8   8
#     4  10  24  43  68  98 134 173 215 283 321 388
#     4  11  24  38  76 104 126 175 218 274 334 391
#     4  11  26  46  65  95 133 180 226 265 330 393
#     4   9  22  42  70  96 136 167 216 286 326 383
#     4  10  23  43  68  96 133 178 217 272 326 393
#     4  11  23  45  67 101 132 170 223 273 330 392
#     4  10  22  41  67 102 133 167 219 271 333 391
#
# _framework density 22.15663
#
# number of rings (size 3 to 8) (size 9 to 14) (size 15 to 20)
#    0.000    1.667    2.500    0.000    5.833    9.333 
#    3.000    0.000    0.000    0.000    0.000    0.000 
#    0.000    0.000    0.000    0.000    0.000    0.000 
#
# Total GULP energy -134002.314668 kJ/mol
# GULP energy per Si atom -5583.429778 kJ/mol
# Density = 2.210620 g / cm^3
# Si number density = 22.156630 Si / 1000 Ang^3
#
#
#
# Elastic Constant Matrix: (Units=GPa)
#
#
# Indices 1 2 3 4 5 6 
#
# 1 82.2345 34.7097 46.5538 0.0000 -14.0191 0.0000
# 2 34.7097 115.9054 37.7915 0.0000 -8.0667 0.0000
# 3 46.5538 37.7915 101.0356 0.0000 -6.1084 0.0000
# 4 0.0000 0.0000 0.0000 17.4934 0.0000 -11.1525
# 5 -14.0191 -8.0667 -6.1084 0.0000 47.5377 0.0000
# 6 0.0000 0.0000 0.0000 -11.1525 0.0000 7.7710
#
#
#
# Elastic Compliance Matrix: (Units=1/GPa)
#
#
# Indices 1 2 3 4 5 6 
#
# 1 0.017981 -0.002833 -0.006988 0.000000 0.003924 0.000000
# 2 -0.002833 0.010341 -0.002527 0.000000 0.000595 0.000000
# 3 -0.006988 -0.002527 0.014021 0.000000 -0.000688 0.000000
# 4 0.000000 0.000000 0.000000 0.672082 0.000000 0.964536
# 5 0.003924 0.000595 -0.000688 0.000000 0.022206 0.000000
# 6 0.000000 0.000000 0.000000 0.964536 0.000000 1.512933
#
#
# Mechanical properties :
#
#
# Convention : Reuss Voigt Hill
#
# Bulk Modulus (GPa) = 56.66552 59.69838 58.18195
# Shear Modulus (GPa) = 2.19284 26.56846 14.38065
#
# Velocity S-wave (km/s) = 0.99592 3.46659 2.55040
# Velocity P-wave (km/s) = 5.19162 6.55937 5.91516
#
# Compressibility (1/GPa) = 0.01764741
#
# Stress axis : x y z
#
# Youngs Moduli (GPa) = 55.61367 96.69880 71.32198
#
# Poissons Ratio (x) = 0.27396 0.49841
# Poissons Ratio (y) = 0.15756 0.18021
# Poissons Ratio (z) = 0.38864 0.24433
#
# Static dielectric constant tensor:
#      x y z
#    x 1.787850 0.000000 -0.150700 
#    y 0.000000 1.820350 0.000000 
#    z -0.150700 0.000000 1.407320 
# 
# From -- ./inp_files/100090.got.cif
#   From: 2010.05.17/outbox.cif.g08.bks.cpg/sg15_51_cif.got.tgz:100090.got - 2010.06.03 18:47:42.
