data_PCOD9290207
_publ_section_title
;
Structure prediction by ZEFSAII (Michael W. Deem and Ramdas Pophale) SiO2 
 PCOD9290207
Probable space group: C 2/C
;
_chemical_formula_sum "Si O2"
_cell_formula_units_Z 56
_cell_length_a 28.784848
_cell_length_b 5.431667
_cell_length_c 17.214250
_cell_angle_alpha 90.000000
_cell_angle_beta 101.143151
_cell_angle_gamma 90.000000
_cell_volume 2640.702259
_symmetry_space_group_name_H-M "C 2/C"
_symmetry_group_IT_number 15
_symmetry_cell_setting 'monoclinic'
loop_
_space_group_symop_operation_xyz
x,y,z
-x,y,1/2-z
-x,-y,-z
x,-y,1/2+z
1/2+x,1/2+y,z
1/2-x,1/2+y,1/2-z
1/2-x,1/2-y,-z
1/2+x,1/2-y,1/2+z
loop_
_atom_site_type_symbol
_atom_site_label
_atom_site_fract_x
_atom_site_fract_y
_atom_site_fract_z
Si Si1 0.043624 0.090052 0.810501
Si Si2 0.963025 0.847148 0.538446
Si Si3 0.903345 0.451474 0.554506
Si Si4 0.632813 0.471753 0.241875
Si Si5 0.167213 0.457404 0.330868
Si Si6 0.865816 0.938189 0.939775
Si Si7 0.240916 0.001414 0.544593
O O1 0.072866 0.269438 0.875249
O O2 0.080880 0.987024 0.761422
O O3 0.000000 0.203274 0.750000
O O4 0.025832 0.891254 0.867243
O O5 0.950990 0.561048 0.530025
O O6 0.909574 0.934003 0.498527
O O7 0.000000 0.000000 0.500000
O O8 0.865245 0.577274 0.601186
O O9 0.873488 0.339006 0.473840
O O10 0.663295 0.700901 0.283695
O O11 0.629528 0.500887 0.148754
O O12 0.650100 0.201355 0.277388
O O13 0.220955 0.502154 0.374053
O O14 0.813523 0.010546 0.948003
O O15 0.250000 0.750000 0.500000
O O16 0.250000 0.250000 0.500000
#
# Coordination Sequence:
#
# PCOD9290207 Si02
#       7
#     8   8   8   8   8   8   8
#     4  10  22  41  63  95 134 180 231 287 354 416
#     4  11  23  43  68  99 139 181 241 287 353 426
#     4  10  22  43  69  95 138 185 237 292 349 436
#     4  11  25  44  67 100 144 184 228 301 359 423
#     4  11  23  45  69 100 141 186 236 286 366 423
#     4  11  26  42  69 104 139 184 241 300 355 430
#     4  12  25  42  75 104 137 187 241 295 360 429
#
# _framework density 21.206482000000001
#
# number of rings (size 3 to 8) (size 9 to 14) (size 15 to 20)
#    0.000    1.143    2.857    2.571    4.000    4.000 
#    5.143    0.000    0.000    0.000    0.000    0.000 
#    0.000    0.000    0.000    0.000    0.000    0.000 
#
# Total GULP energy -156012.529834 kJ/mol
# GULP energy per Si atom -5571.876065 kJ/mol
# Density = 2.115822 g / cm^3
# Si number density = 21.206482 Si / 1000 Ang^3
#
#
#
# Elastic Constant Matrix: (Units=GPa)
#
#
# Indices 1 2 3 4 5 6 
#
# 1 135.0229 26.6905 70.1845 0.0000 -5.0017 0.0000
# 2 26.6905 73.3069 37.2427 0.0000 -14.2889 0.0000
# 3 70.1845 37.2427 126.1044 0.0000 -10.2468 0.0000
# 4 0.0000 0.0000 0.0000 8.9713 0.0000 6.4893
# 5 -5.0017 -14.2889 -10.2468 0.0000 37.1600 0.0000
# 6 0.0000 0.0000 0.0000 6.4893 0.0000 33.0161
#
#
#
# Elastic Compliance Matrix: (Units=1/GPa)
#
#
# Indices 1 2 3 4 5 6 
#
# 1 0.010493 -0.001103 -0.005559 0.000000 -0.000544 0.000000
# 2 -0.001103 0.017118 -0.004009 0.000000 0.005328 0.000000
# 3 -0.005559 -0.004009 0.012297 0.000000 0.001101 0.000000
# 4 0.000000 0.000000 0.000000 0.129940 0.000000 -0.025539
# 5 -0.000544 0.005328 0.001101 0.000000 0.029190 0.000000
# 6 0.000000 0.000000 0.000000 -0.025539 0.000000 0.035308
#
#
# Mechanical properties :
#
#
# Convention : Reuss Voigt Hill
#
# Bulk Modulus (GPa) = 53.85602 66.96328 60.40965
# Shear Modulus (GPa) = 19.09302 29.18393 24.13847
#
# Velocity S-wave (km/s) = 3.00382 3.71371 3.37747
# Velocity P-wave (km/s) = 6.12223 7.07349 6.61498
#
# Compressibility (1/GPa) = 0.01856803
#
# Stress axis : x y z
#
# Youngs Moduli (GPa) = 95.29813 58.41805 81.31954
#
# Poissons Ratio (x) = 0.06441 0.45204
# Poissons Ratio (y) = 0.10508 0.32600
# Poissons Ratio (z) = 0.52974 0.23419
#
# Static dielectric constant tensor:
#      x y z
#    x 1.814500 0.000000 -0.037010 
#    y 0.000000 2.034290 0.000000 
#    z -0.037010 0.000000 1.750760 
# 
# From -- ./inp_files/221198.got.cif
#   From: 2010.05.17/outbox.cif.g08.bks.cpg/sg15_111_cif.got.tgz:221198.got - 2010.06.03 18:47:42.
