data_PCOD9290393
_publ_section_title
;
Structure prediction by ZEFSAII (Michael W. Deem and Ramdas Pophale) SiO2 
 PCOD9290393
Probable space group: C 2/C
;
_chemical_formula_sum "Si O2"
_cell_formula_units_Z 40
_cell_length_a 20.073198
_cell_length_b 4.668378
_cell_length_c 15.308279
_cell_angle_alpha 90.000000
_cell_angle_beta 85.253389
_cell_angle_gamma 90.000000
_cell_volume 1429.607883
_symmetry_space_group_name_H-M "C 2/C"
_symmetry_group_IT_number 15
_symmetry_cell_setting 'monoclinic'
loop_
_space_group_symop_operation_xyz
x,y,z
-x,y,1/2-z
-x,-y,-z
x,-y,1/2+z
1/2+x,1/2+y,z
1/2-x,1/2+y,1/2-z
1/2-x,1/2-y,-z
1/2+x,1/2-y,1/2+z
loop_
_atom_site_type_symbol
_atom_site_label
_atom_site_fract_x
_atom_site_fract_y
_atom_site_fract_z
Si Si1 0.581420 0.893525 0.382384
Si Si2 0.327016 0.616681 0.663425
Si Si3 0.372143 0.408209 0.828399
Si Si4 0.750000 0.750000 0.000000
Si Si5 0.500000 0.226446 0.250000
Si Si6 0.369637 0.108612 0.446306
O O1 0.644251 0.064447 0.333996
O O2 0.524229 0.019895 0.326488
O O3 0.573521 0.933315 0.487086
O O4 0.606798 0.566144 0.374580
O O5 0.317709 0.487473 0.761266
O O6 0.270076 0.611118 0.597785
O O7 0.441239 0.562440 0.792091
O O8 0.379839 0.084292 0.859011
O O9 0.352937 0.567583 0.920920
O O10 0.693004 0.986271 0.996091
#
# Coordination Sequence:
#
# PCOD9290393 Si02
#       6
#     8   8   8   4   4   8
#     4  10  22  41  65  95 130 173 226 270 332 405
#     4  10  22  41  65  95 129 171 222 273 332 408
#     4  11  24  41  65  98 132 172 230 276 335 411
#     4  10  24  44  68  90 134 174 206 280 344 376
#     4  10  24  44  68  92 140 188 216 292 348 378
#     4  11  24  41  65  99 130 171 229 278 333 417
#
# _framework density 27.979700000000001
#
# number of rings (size 3 to 8) (size 9 to 14) (size 15 to 20)
#    0.000    1.600    0.000    4.800    0.000   17.600 
#    0.000    0.000    0.000    0.000    0.000    0.000 
#    0.000    0.000    0.000    0.000    0.000    0.000 
#
# Total GULP energy -111448.204847 kJ/mol
# GULP energy per Si atom -5572.410242 kJ/mol
# Density = 2.791602 g / cm^3
# Si number density = 27.979700 Si / 1000 Ang^3
#
#
#
# Elastic Constant Matrix: (Units=GPa)
#
#
# Indices 1 2 3 4 5 6 
#
# 1 62.0884 -14.7636 13.7061 0.0000 26.6318 0.0000
# 2 -14.7636 105.8925 20.6057 0.0000 7.6282 0.0000
# 3 13.7061 20.6057 210.8509 0.0000 65.2327 0.0000
# 4 0.0000 0.0000 0.0000 53.8793 0.0000 -9.6389
# 5 26.6318 7.6282 65.2327 0.0000 65.1136 0.0000
# 6 0.0000 0.0000 0.0000 -9.6389 0.0000 10.3123
#
#
#
# Elastic Compliance Matrix: (Units=1/GPa)
#
#
# Indices 1 2 3 4 5 6 
#
# 1 0.021122 0.003402 0.001580 0.000000 -0.010621 0.000000
# 2 0.003402 0.010178 -0.000603 0.000000 -0.001979 0.000000
# 3 0.001580 -0.000603 0.007068 0.000000 -0.007656 0.000000
# 4 0.000000 0.000000 0.000000 0.022287 0.000000 0.020831
# 5 -0.010621 -0.001979 -0.007656 0.000000 0.027604 0.000000
# 6 0.000000 0.000000 0.000000 0.020831 0.000000 0.116443
#
#
# Mechanical properties :
#
#
# Convention : Reuss Voigt Hill
#
# Bulk Modulus (GPa) = 21.21973 46.43646 33.82810
# Shear Modulus (GPa) = 23.62385 49.81327 36.71856
#
# Velocity S-wave (km/s) = 2.90887 4.22398 3.62654
# Velocity P-wave (km/s) = 4.34540 6.35782 5.44538
#
# Compressibility (1/GPa) = 0.04712596
#
# Stress axis : x y z
#
# Youngs Moduli (GPa) = 47.34437 98.25185 141.49102
#
# Poissons Ratio (x) = -0.33429 -0.22360
# Poissons Ratio (y) = -0.16108 0.08538
# Poissons Ratio (z) = -0.07482 0.05929
#
# Static dielectric constant tensor:
#      x y z
#    x 2.032010 0.000000 0.096930 
#    y 0.000000 4.665840 0.000000 
#    z 0.096930 0.000000 2.118800 
# 
# From -- ./inp_files/170574.got.cif
#   From: 2010.05.17/outbox.cif.g08.bks.cpg/sg15_86_cif.got.tgz:170574.got - 2010.06.03 18:47:42.
