data_PCOD9290842
_publ_section_title
;
Structure prediction by ZEFSAII (Michael W. Deem and Ramdas Pophale) SiO2 
 PCOD9290842
Probable space group: C 2/C
;
_chemical_formula_sum "Si O2"
_cell_formula_units_Z 60
_cell_length_a 19.908688
_cell_length_b 9.487186
_cell_length_c 23.642046
_cell_angle_alpha 90.000000
_cell_angle_beta 141.199957
_cell_angle_gamma 90.000000
_cell_volume 2798.069847
_symmetry_space_group_name_H-M "C 2/C"
_symmetry_group_IT_number 15
_symmetry_cell_setting 'monoclinic'
loop_
_space_group_symop_operation_xyz
x,y,z
-x,y,1/2-z
-x,-y,-z
x,-y,1/2+z
1/2+x,1/2+y,z
1/2-x,1/2+y,1/2-z
1/2-x,1/2-y,-z
1/2+x,1/2-y,1/2+z
loop_
_atom_site_type_symbol
_atom_site_label
_atom_site_fract_x
_atom_site_fract_y
_atom_site_fract_z
Si Si1 0.788046 0.963796 0.890321
Si Si2 0.767098 0.792260 0.289400
Si Si3 0.910737 0.070011 0.288251
Si Si4 0.839057 0.655672 0.025476
Si Si5 0.223255 0.173249 0.836127
Si Si6 0.502557 0.348058 0.429183
Si Si7 0.798155 0.380101 0.066928
Si Si8 0.500000 0.745658 0.250000
O O1 0.756396 0.066091 0.819148
O O2 0.789445 0.050177 0.949439
O O3 0.703162 0.836380 0.837952
O O4 0.904567 0.887458 0.964882
O O5 0.689844 0.669121 0.260802
O O6 0.742250 0.822097 0.207112
O O7 0.895691 0.766177 0.378848
O O8 0.989637 0.157347 0.300753
O O9 0.871055 0.938602 0.224619
O O10 0.961097 0.994574 0.375441
O O11 0.942171 0.754173 0.083655
O O12 0.845504 0.505800 0.059930
O O13 0.750000 0.750000 0.000000
O O14 0.803340 0.625028 0.937509
O O15 0.891672 0.331287 0.170442
O O16 0.750000 0.250000 0.000000
#
# Coordination Sequence:
#
# PCOD9290842 Si02
#       8
#     8   8   8   8   8   8   8   4
#     4  11  22  45  72  98 140 182 227 292 348 419
#     4  11  23  43  67 103 139 177 234 282 344 417
#     4  11  24  43  68 101 138 179 230 286 340 427
#     4  11  23  45  70 101 133 178 234 289 348 418
#     4  10  22  41  71  93 132 179 223 284 340 407
#     4  10  23  43  73  98 134 189 228 280 361 412
#     4  12  25  45  72 103 145 181 234 298 355 412
#     4  12  26  40  68 106 136 188 230 282 374 406
#
# _framework density 21.443352999999998
#
# number of rings (size 3 to 8) (size 9 to 14) (size 15 to 20)
#    0.000    1.067    4.000    3.600    1.867    3.200 
#    4.800    2.667    0.000    0.000    0.000    0.000 
#    0.000    0.000    0.000    0.000    0.000    0.000 
#
# Total GULP energy -167365.305686 kJ/mol
# GULP energy per Si atom -5578.843523 kJ/mol
# Density = 2.139455 g / cm^3
# Si number density = 21.443353 Si / 1000 Ang^3
#
#
#
# Elastic Constant Matrix: (Units=GPa)
#
#
# Indices 1 2 3 4 5 6 
#
# 1 72.1488 22.6851 4.3118 0.0000 2.0351 0.0000
# 2 22.6851 92.8920 19.7259 0.0000 -2.9662 0.0000
# 3 4.3118 19.7259 77.5842 0.0000 -8.3455 0.0000
# 4 0.0000 0.0000 0.0000 41.1799 0.0000 -6.3979
# 5 2.0351 -2.9662 -8.3455 0.0000 41.5324 0.0000
# 6 0.0000 0.0000 0.0000 -6.3979 0.0000 33.8541
#
#
#
# Elastic Compliance Matrix: (Units=1/GPa)
#
#
# Indices 1 2 3 4 5 6 
#
# 1 0.015055 -0.003708 -0.000002 0.000000 -0.001003 0.000000
# 2 -0.003708 0.012295 -0.002868 0.000000 0.000484 0.000000
# 3 -0.000002 -0.002868 0.013897 0.000000 0.002588 0.000000
# 4 0.000000 0.000000 0.000000 0.025018 0.000000 0.004728
# 5 -0.001003 0.000484 0.002588 0.000000 0.024681 0.000000
# 6 0.000000 0.000000 0.000000 0.004728 0.000000 0.030432
#
#
# Mechanical properties :
#
#
# Convention : Reuss Voigt Hill
#
# Bulk Modulus (GPa) = 35.59870 37.34119 36.46994
# Shear Modulus (GPa) = 34.74695 36.37342 35.56018
#
# Velocity S-wave (km/s) = 4.02979 4.12303 4.07668
# Velocity P-wave (km/s) = 6.18786 6.33384 6.26128
#
# Compressibility (1/GPa) = 0.02809091
#
# Stress axis : x y z
#
# Youngs Moduli (GPa) = 66.42510 81.33245 71.95875
#
# Poissons Ratio (x) = 0.30159 0.00013
# Poissons Ratio (y) = 0.24631 0.20638
# Poissons Ratio (z) = 0.00012 0.23326
#
# Static dielectric constant tensor:
#      x y z
#    x 1.817590 0.000000 0.005420 
#    y 0.000000 1.787360 0.000000 
#    z 0.005420 0.000000 1.796660 
# 
# From -- ./inp_files/279715.got.cif
#   From: 2010.05.17/outbox.cif.g08.bks.cpg/sg15_140_cif.got.tgz:279715.got - 2010.06.03 18:47:42.
