data_PCOD9290906
_publ_section_title
;
Structure prediction by ZEFSAII (Michael W. Deem and Ramdas Pophale) SiO2 
 PCOD9290906
Probable space group: C 2/C
;
_chemical_formula_sum "Si O2"
_cell_formula_units_Z 44
_cell_length_a 11.904811
_cell_length_b 13.739790
_cell_length_c 21.568817
_cell_angle_alpha 90.000000
_cell_angle_beta 141.565436
_cell_angle_gamma 90.000000
_cell_volume 2193.078657
_symmetry_space_group_name_H-M "C 2/C"
_symmetry_group_IT_number 15
_symmetry_cell_setting 'monoclinic'
loop_
_space_group_symop_operation_xyz
x,y,z
-x,y,1/2-z
-x,-y,-z
x,-y,1/2+z
1/2+x,1/2+y,z
1/2-x,1/2+y,1/2-z
1/2-x,1/2-y,-z
1/2+x,1/2-y,1/2+z
loop_
_atom_site_type_symbol
_atom_site_label
_atom_site_fract_x
_atom_site_fract_y
_atom_site_fract_z
Si Si1 0.619342 0.905278 0.038903
Si Si2 0.038840 0.197921 0.037684
Si Si3 0.188393 0.586270 0.836902
Si Si4 0.233198 0.423245 0.954081
Si Si5 0.500000 0.480988 0.250000
Si Si6 0.586583 0.538117 0.155908
O O1 0.536823 0.813161 0.038515
O O2 0.826678 0.920087 0.151090
O O3 0.620368 0.891550 0.964771
O O4 0.500000 0.000000 0.000000
O O5 0.188465 0.165762 0.051661
O O6 0.090741 0.141316 0.122957
O O7 0.850182 0.152446 0.932538
O O8 0.150146 0.499073 0.869420
O O9 0.259565 0.532361 0.805716
O O10 0.000000 0.641348 0.750000
O O11 0.404256 0.484103 0.054120
O O12 0.574994 0.542071 0.224399
#
# Coordination Sequence:
#
# PCOD9290906 Si02
#       6
#     8   8   8   8   4   8
#     4  11  23  39  61  86 126 158 196 247 302 353
#     4   9  18  39  62  89 115 156 204 248 293 350
#     4   9  17  32  63  92 119 154 202 248 296 358
#     4   8  17  36  61  84 116 155 194 250 296 344
#     4  10  22  42  58  82 124 166 196 242 302 354
#     4   8  17  36  61  85 119 155 198 246 294 351
#
# _framework density 20.063120000000001
#
# number of rings (size 3 to 8) (size 9 to 14) (size 15 to 20)
#    0.000    2.909    0.000    2.727    2.545    0.000 
#    8.182   13.636    0.000    2.182    0.000    0.000 
#    0.000    0.000    0.000    0.000    0.000    0.000 
#
# Total GULP energy -122653.128128 kJ/mol
# GULP energy per Si atom -5575.142188 kJ/mol
# Density = 2.001746 g / cm^3
# Si number density = 20.063120 Si / 1000 Ang^3
#
#
#
# Elastic Constant Matrix: (Units=GPa)
#
#
# Indices 1 2 3 4 5 6 
#
# 1 104.0683 32.3062 50.5034 0.0000 -23.1888 0.0000
# 2 32.3062 118.4854 16.9921 0.0000 -4.1947 0.0000
# 3 50.5034 16.9921 54.1507 0.0001 0.9296 0.0000
# 4 0.0000 0.0000 0.0001 9.1864 0.0000 1.1888
# 5 -23.1888 -4.1947 0.9296 0.0000 43.0741 0.0000
# 6 0.0000 0.0000 0.0000 1.1888 0.0000 16.8553
#
#
#
# Elastic Compliance Matrix: (Units=1/GPa)
#
#
# Indices 1 2 3 4 5 6 
#
# 1 0.023924 -0.002962 -0.021607 0.000000 0.013057 0.000000
# 2 -0.002962 0.009241 -0.000125 0.000000 -0.000692 0.000000
# 3 -0.021607 -0.000125 0.038872 0.000000 -0.012483 0.000000
# 4 0.000000 0.000000 0.000000 0.109859 0.000000 -0.007748
# 5 0.013057 -0.000692 -0.012483 0.000000 0.030447 0.000000
# 6 0.000000 0.000000 0.000000 -0.007748 0.000000 0.059875
#
#
# Mechanical properties :
#
#
# Convention : Reuss Voigt Hill
#
# Bulk Modulus (GPa) = 44.15367 52.92310 48.53838
# Shear Modulus (GPa) = 15.19034 25.61666 20.40350
#
# Velocity S-wave (km/s) = 2.75458 3.57712 3.19245
# Velocity P-wave (km/s) = 5.67205 6.59519 6.15096
#
# Compressibility (1/GPa) = 0.02264818
#
# Stress axis : x y z
#
# Youngs Moduli (GPa) = 41.79948 108.21368 25.72525
#
# Poissons Ratio (x) = 0.32054 0.55585
# Poissons Ratio (y) = 0.12381 0.00322
# Poissons Ratio (z) = 0.90316 0.01356
#
# Static dielectric constant tensor:
#      x y z
#    x 1.733740 0.000000 0.006390 
#    y 0.000000 1.679110 0.000000 
#    z 0.006390 0.000000 1.772260 
# 
# From -- ./inp_files/238871.got.cif
#   From: 2010.05.17/outbox.cif.g08.bks.cpg/sg15_120_cif.got.tgz:238871.got - 2010.06.03 18:47:42.
