data_PCOD9290774
_publ_section_title
;
Structure prediction by ZEFSAII (Michael W. Deem and Ramdas Pophale) SiO2 
 PCOD9290774
Probable space group: C 2/C
;
_chemical_formula_sum "Si O2"
_cell_formula_units_Z 64
_cell_length_a 16.371498
_cell_length_b 23.582529
_cell_length_c 13.401150
_cell_angle_alpha 90.000000
_cell_angle_beta 144.433605
_cell_angle_gamma 90.000000
_cell_volume 3009.397734
_symmetry_space_group_name_H-M "C 2/C"
_symmetry_group_IT_number 15
_symmetry_cell_setting 'monoclinic'
loop_
_space_group_symop_operation_xyz
x,y,z
-x,y,1/2-z
-x,-y,-z
x,-y,1/2+z
1/2+x,1/2+y,z
1/2-x,1/2+y,1/2-z
1/2-x,1/2-y,-z
1/2+x,1/2-y,1/2+z
loop_
_atom_site_type_symbol
_atom_site_label
_atom_site_fract_x
_atom_site_fract_y
_atom_site_fract_z
Si Si1 0.359452 0.975333 0.464545
Si Si2 0.658231 0.065124 0.217568
Si Si3 0.258145 0.140908 0.773866
Si Si4 0.564063 0.189773 0.079119
Si Si5 0.154582 0.299633 0.448780
Si Si6 0.150661 0.984471 0.439888
Si Si7 0.858781 0.119324 0.051579
Si Si8 0.632801 0.718746 0.814957
O O1 0.524269 0.962493 0.641381
O O2 0.303545 0.924093 0.338923
O O3 0.343572 0.034623 0.391266
O O4 0.267106 0.975398 0.470943
O O5 0.631833 0.131364 0.184711
O O6 0.799651 0.049553 0.414473
O O7 0.158789 0.142982 0.578226
O O8 0.194905 0.166996 0.812219
O O9 0.401185 0.175713 0.895075
O O10 0.579772 0.236438 0.179566
O O11 0.641058 0.205872 0.053805
O O12 0.250000 0.250000 0.500000
O O13 0.228678 0.357508 0.486797
O O14 0.000000 0.296664 0.250000
O O15 0.142915 0.051351 0.455830
O O16 0.000000 0.966114 0.250000
O O17 0.000000 0.137101 0.250000
O O18 0.500000 0.701891 0.750000
O O19 0.750000 0.750000 0.000000
#
# Coordination Sequence:
#
# PCOD9290774 Si02
#       8
#     8   8   8   8   8   8   8   8
#     4  10  22  41  70 100 133 177 234 281 337 412
#     4  10  22  43  68 100 131 179 233 278 338 408
#     4  11  23  47  72  99 140 183 237 292 342 413
#     4  11  25  44  72 101 137 182 234 290 342 418
#     4  12  25  43  73 102 136 176 228 283 352 419
#     4  11  24  41  65  99 141 182 218 279 351 408
#     4  11  24  45  68 102 143 181 226 282 348 418
#     4  12  27  47  71 101 139 184 236 291 348 403
#
# _framework density 21.266714
#
# number of rings (size 3 to 8) (size 9 to 14) (size 15 to 20)
#    0.000    1.000    3.750    2.250    1.750    3.000 
#    2.250    0.000    0.000    0.000    0.000    0.000 
#    0.000    0.000    0.000    0.000    0.000    0.000 
#
# Total GULP energy -179101.342080 kJ/mol
# GULP energy per Si atom -5596.916940 kJ/mol
# Density = 2.121831 g / cm^3
# Si number density = 21.266714 Si / 1000 Ang^3
#
#
#
# Elastic Constant Matrix: (Units=GPa)
#
#
# Indices 1 2 3 4 5 6 
#
# 1 102.5057 2.6613 24.7268 0.0000 -5.2964 0.0000
# 2 2.6613 45.1706 16.9497 0.0000 10.5346 0.0000
# 3 24.7268 16.9497 145.4517 0.0000 7.4171 0.0000
# 4 0.0000 0.0000 0.0000 20.8668 0.0000 2.7347
# 5 -5.2964 10.5346 7.4171 0.0000 25.6017 0.0000
# 6 0.0000 0.0000 0.0000 2.7347 0.0000 26.8938
#
#
#
# Elastic Compliance Matrix: (Units=1/GPa)
#
#
# Indices 1 2 3 4 5 6 
#
# 1 0.010367 -0.000602 -0.001841 0.000000 0.002926 0.000000
# 2 -0.000602 0.025359 -0.002349 0.000000 -0.009879 0.000000
# 3 -0.001841 -0.002349 0.007543 0.000000 -0.001600 0.000000
# 4 0.000000 0.000000 0.000000 0.048570 0.000000 -0.004939
# 5 0.002926 -0.009879 -0.001600 0.000000 0.044194 0.000000
# 6 0.000000 0.000000 0.000000 -0.004939 0.000000 0.037686
#
#
# Mechanical properties :
#
#
# Convention : Reuss Voigt Hill
#
# Bulk Modulus (GPa) = 29.68765 42.42263 36.05514
# Shear Modulus (GPa) = 25.70278 31.25848 28.48063
#
# Velocity S-wave (km/s) = 3.48025 3.83800 3.66349
# Velocity P-wave (km/s) = 5.48995 6.29536 5.90640
#
# Compressibility (1/GPa) = 0.03368404
#
# Stress axis : x y z
#
# Youngs Moduli (GPa) = 96.46423 39.43359 132.56485
#
# Poissons Ratio (x) = 0.02375 0.24410
# Poissons Ratio (y) = 0.05809 0.31140
# Poissons Ratio (z) = 0.17762 0.09263
#
# Static dielectric constant tensor:
#      x y z
#    x 1.742880 0.000000 0.001070 
#    y 0.000000 1.753800 0.000000 
#    z 0.001070 0.000000 1.750090 
# 
# From -- ./inp_files/101359.got.cif
#   From: 2010.05.17/outbox.cif.g08.bks.cpg/sg15_51_cif.got.tgz:101359.got - 2010.06.03 18:47:42.
