data_PCOD9290850
_publ_section_title
;
Structure prediction by ZEFSAII (Michael W. Deem and Ramdas Pophale) SiO2 
 PCOD9290850
Probable space group: C 2/C
;
_chemical_formula_sum "Si O2"
_cell_formula_units_Z 56
_cell_length_a 14.197477
_cell_length_b 11.576906
_cell_length_c 17.362977
_cell_angle_alpha 90.000000
_cell_angle_beta 112.165393
_cell_angle_gamma 90.000000
_cell_volume 2642.926676
_symmetry_space_group_name_H-M "C 2/C"
_symmetry_group_IT_number 15
_symmetry_cell_setting 'monoclinic'
loop_
_space_group_symop_operation_xyz
x,y,z
-x,y,1/2-z
-x,-y,-z
x,-y,1/2+z
1/2+x,1/2+y,z
1/2-x,1/2+y,1/2-z
1/2-x,1/2-y,-z
1/2+x,1/2-y,1/2+z
loop_
_atom_site_type_symbol
_atom_site_label
_atom_site_fract_x
_atom_site_fract_y
_atom_site_fract_z
Si Si1 0.180337 0.405699 0.485078
Si Si2 0.027877 0.346642 0.167762
Si Si3 0.686434 0.705875 0.603187
Si Si4 0.505905 0.584692 0.930640
Si Si5 0.741715 0.919248 0.218129
Si Si6 0.087194 0.906477 0.712249
Si Si7 0.729635 0.361682 0.443567
O O1 0.265433 0.380104 0.446030
O O2 0.207001 0.327959 0.568073
O O3 0.189714 0.538557 0.510666
O O4 0.072652 0.368618 0.414008
O O5 0.120035 0.434011 0.180478
O O6 0.076119 0.218297 0.168642
O O7 0.000000 0.354062 0.250000
O O8 0.564821 0.693715 0.572972
O O9 0.733350 0.660740 0.698619
O O10 0.449466 0.513285 0.848490
O O11 0.618364 0.602354 0.936967
O O12 0.500000 0.500000 0.000000
O O13 0.771374 0.852330 0.149042
O O14 0.801122 0.042889 0.233829
O O15 0.000000 0.897727 0.750000
O O16 0.750000 0.250000 0.500000
#
# Coordination Sequence:
#
# PCOD9290850 Si02
#       7
#     8   8   8   8   8   8   8
#     4  11  24  46  71 110 145 189 246 309 366 426
#     4  11  24  43  73 106 141 188 246 309 366 436
#     4  10  23  41  76 107 136 180 256 314 354 423
#     4  11  21  41  69 102 131 186 236 298 354 428
#     4  11  25  44  68 106 143 191 239 302 377 441
#     4  10  22  41  72 100 135 178 242 299 357 433
#     4  12  29  46  68 103 157 196 236 298 379 452
#
# _framework density 21.188632999999999
#
# number of rings (size 3 to 8) (size 9 to 14) (size 15 to 20)
#    0.000    1.143    4.286    0.857    8.000    0.571 
#    0.000    0.000    0.000    0.000    0.000    0.000 
#    0.000    0.000    0.000    0.000    0.000    0.000 
#
# Total GULP energy -156170.738864 kJ/mol
# GULP energy per Si atom -5577.526388 kJ/mol
# Density = 2.114041 g / cm^3
# Si number density = 21.188633 Si / 1000 Ang^3
#
#
#
# Elastic Constant Matrix: (Units=GPa)
#
#
# Indices 1 2 3 4 5 6 
#
# 1 123.0091 17.5738 39.5684 0.0000 -1.4554 0.0000
# 2 17.5738 91.9909 48.4439 0.0000 -5.1564 0.0000
# 3 39.5684 48.4439 116.5848 0.0000 -11.7332 0.0000
# 4 0.0000 0.0000 0.0000 29.1562 0.0000 4.7219
# 5 -1.4554 -5.1564 -11.7332 0.0000 37.6831 0.0000
# 6 0.0000 0.0000 0.0000 4.7219 0.0000 16.8796
#
#
#
# Elastic Compliance Matrix: (Units=1/GPa)
#
#
# Indices 1 2 3 4 5 6 
#
# 1 0.009142 -0.000147 -0.003106 0.000000 -0.000634 0.000000
# 2 -0.000147 0.013918 -0.005722 0.000000 0.000117 0.000000
# 3 -0.003106 -0.005722 0.012304 0.000000 0.002928 0.000000
# 4 0.000000 0.000000 0.000000 0.035926 0.000000 -0.010050
# 5 -0.000634 0.000117 0.002928 0.000000 0.027440 0.000000
# 6 0.000000 0.000000 0.000000 -0.010050 0.000000 0.062054
#
#
# Mechanical properties :
#
#
# Convention : Reuss Voigt Hill
#
# Bulk Modulus (GPa) = 57.41862 60.30634 58.86248
# Shear Modulus (GPa) = 27.09469 31.81037 29.45253
#
# Velocity S-wave (km/s) = 3.57982 3.87886 3.73234
# Velocity P-wave (km/s) = 6.65165 6.97023 6.81280
#
# Compressibility (1/GPa) = 0.01741595
#
# Stress axis : x y z
#
# Youngs Moduli (GPa) = 109.38631 71.84704 81.27577
#
# Poissons Ratio (x) = 0.01053 0.25241
# Poissons Ratio (y) = 0.01603 0.46506
# Poissons Ratio (z) = 0.33972 0.41110
#
# Static dielectric constant tensor:
#      x y z
#    x 1.801510 0.000000 0.016830 
#    y 0.000000 1.795170 0.000000 
#    z 0.016830 0.000000 1.692090 
# 
# From -- ./inp_files/204525.got.cif
#   From: 2010.05.17/outbox.cif.g08.bks.cpg/sg15_103_cif.got.tgz:204525.got - 2010.06.03 18:47:42.
