data_PCOD9290460
_publ_section_title
;
Structure prediction by ZEFSAII (Michael W. Deem and Ramdas Pophale) SiO2 
 PCOD9290460
Probable space group: C 2/C
;
_chemical_formula_sum "Si O2"
_cell_formula_units_Z 60
_cell_length_a 20.411718
_cell_length_b 10.936230
_cell_length_c 25.383351
_cell_angle_alpha 90.000000
_cell_angle_beta 146.701921
_cell_angle_gamma 90.000000
_cell_volume 3110.744752
_symmetry_space_group_name_H-M "C 2/C"
_symmetry_group_IT_number 15
_symmetry_cell_setting 'monoclinic'
loop_
_space_group_symop_operation_xyz
x,y,z
-x,y,1/2-z
-x,-y,-z
x,-y,1/2+z
1/2+x,1/2+y,z
1/2-x,1/2+y,1/2-z
1/2-x,1/2-y,-z
1/2+x,1/2-y,1/2+z
loop_
_atom_site_type_symbol
_atom_site_label
_atom_site_fract_x
_atom_site_fract_y
_atom_site_fract_z
Si Si1 0.000000 0.035477 0.250000
Si Si2 0.990033 0.706207 0.595757
Si Si3 0.228929 0.794446 0.925923
Si Si4 0.885373 0.511106 0.886875
Si Si5 0.177070 0.625678 0.254912
Si Si6 0.556686 0.547200 0.091786
Si Si7 0.371038 0.405105 0.258949
Si Si8 0.595747 0.896882 0.269827
O O1 0.954723 0.955324 0.268897
O O2 0.885142 0.117217 0.156240
O O3 0.858431 0.650352 0.498485
O O4 0.089718 0.633109 0.630351
O O5 0.986029 0.844796 0.573646
O O6 0.031427 0.690297 0.683674
O O7 0.199024 0.680641 0.867484
O O8 0.250000 0.750000 0.000000
O O9 0.880464 0.402061 0.841015
O O10 0.758576 0.528165 0.829996
O O11 0.000000 0.500000 0.000000
O O12 0.316371 0.604656 0.338505
O O13 0.147162 0.759876 0.255215
O O14 0.136265 0.518589 0.267130
O O15 0.577761 0.442471 0.149351
O O16 0.500000 0.500000 0.000000
O O17 0.500000 0.928132 0.250000
#
# Coordination Sequence:
#
# PCOD9290460 Si02
#       8
#     4   8   8   8   8   8   8   8
#     4  12  26  42  64  98 132 172 210 268 326 392
#     4  11  22  39  66  96 124 164 217 264 325 377
#     4  12  21  39  63  94 125 164 214 263 317 380
#     4  10  22  41  66  91 124 168 214 265 317 380
#     4  10  24  40  65  94 127 171 214 259 326 384
#     4  11  23  42  67  98 128 165 217 272 326 378
#     4  11  24  44  64  95 133 168 215 263 327 393
#     4  11  22  41  64  93 130 169 213 261 316 390
#
# _framework density 19.287984999999999
#
# number of rings (size 3 to 8) (size 9 to 14) (size 15 to 20)
#    0.000    1.067    3.333    3.200    2.800    1.067 
#    0.000    0.000    0.000    4.000    0.000    0.000 
#    0.000    0.000    0.000    0.000    0.000    0.000 
#
# Total GULP energy -167575.343248 kJ/mol
# GULP energy per Si atom -5585.844775 kJ/mol
# Density = 1.924408 g / cm^3
# Si number density = 19.287985 Si / 1000 Ang^3
#
#
#
# Elastic Constant Matrix: (Units=GPa)
#
#
# Indices 1 2 3 4 5 6 
#
# 1 127.0836 51.4268 55.0634 0.0000 -2.8818 0.0000
# 2 51.4268 104.6638 39.8757 0.0001 -20.2607 0.0000
# 3 55.0634 39.8757 145.2756 0.0001 -18.7553 0.0000
# 4 0.0000 0.0001 0.0001 18.9825 0.0000 0.9862
# 5 -2.8818 -20.2607 -18.7553 0.0000 33.4161 0.0000
# 6 0.0000 0.0000 0.0000 0.9862 0.0000 27.4433
#
#
#
# Elastic Compliance Matrix: (Units=1/GPa)
#
#
# Indices 1 2 3 4 5 6 
#
# 1 0.011289 -0.005017 -0.003416 0.000000 -0.003986 0.000000
# 2 -0.005017 0.013810 -0.000932 0.000000 0.007418 0.000000
# 3 -0.003416 -0.000932 0.008973 0.000000 0.004177 0.000000
# 4 0.000000 0.000000 0.000000 0.052779 0.000000 -0.001897
# 5 -0.003986 0.007418 0.004177 0.000000 0.036424 0.000000
# 6 0.000000 0.000000 0.000000 -0.001897 0.000000 0.036507
#
#
# Mechanical properties :
#
#
# Convention : Reuss Voigt Hill
#
# Bulk Modulus (GPa) = 65.17566 74.41721 69.79643
# Shear Modulus (GPa) = 27.22936 31.34552 29.28744
#
# Velocity S-wave (km/s) = 3.76137 4.03567 3.90093
# Velocity P-wave (km/s) = 7.26141 7.77055 7.52029
#
# Compressibility (1/GPa) = 0.01534315
#
# Stress axis : x y z
#
# Youngs Moduli (GPa) = 88.58322 72.41005 111.44196
#
# Poissons Ratio (x) = 0.36326 0.38072
# Poissons Ratio (y) = 0.44440 0.10381
# Poissons Ratio (z) = 0.30263 0.06745
#
# Static dielectric constant tensor:
#      x y z
#    x 1.750200 0.000000 -0.004320 
#    y 0.000000 1.683750 0.000000 
#    z -0.004320 0.000000 1.677620 
# 
# From -- ./inp_files/280106.got.cif
#   From: 2010.05.17/outbox.cif.g08.bks.cpg/sg15_141_cif.got.tgz:280106.got - 2010.06.03 18:47:42.
