data_PCOD9290837
_publ_section_title
;
Structure prediction by ZEFSAII (Michael W. Deem and Ramdas Pophale) SiO2 
 PCOD9290837
Probable space group: C 2/C
;
_chemical_formula_sum "Si O2"
_cell_formula_units_Z 60
_cell_length_a 18.059756
_cell_length_b 5.137938
_cell_length_c 25.541144
_cell_angle_alpha 90.000000
_cell_angle_beta 66.819689
_cell_angle_gamma 90.000000
_cell_volume 2178.635027
_symmetry_space_group_name_H-M "C 2/C"
_symmetry_group_IT_number 15
_symmetry_cell_setting 'monoclinic'
loop_
_space_group_symop_operation_xyz
x,y,z
-x,y,1/2-z
-x,-y,-z
x,-y,1/2+z
1/2+x,1/2+y,z
1/2-x,1/2+y,1/2-z
1/2-x,1/2-y,-z
1/2+x,1/2-y,1/2+z
loop_
_atom_site_type_symbol
_atom_site_label
_atom_site_fract_x
_atom_site_fract_y
_atom_site_fract_z
Si Si1 0.026767 0.034456 0.881272
Si Si2 0.710698 0.750117 0.123308
Si Si3 0.701251 0.106449 0.828791
Si Si4 0.194893 0.006201 0.525763
Si Si5 0.000000 0.957011 0.750000
Si Si6 0.640416 0.728941 0.769451
Si Si7 0.545912 0.061730 0.644698
Si Si8 0.870558 0.937003 0.558675
O O1 0.112592 0.026706 0.823625
O O2 0.057829 0.077336 0.931111
O O3 0.983145 0.276465 0.864621
O O4 0.977406 0.764032 0.894991
O O5 0.737250 0.629063 0.170517
O O6 0.681411 0.526834 0.091288
O O7 0.638621 0.951981 0.136668
O O8 0.792082 0.885413 0.083671
O O9 0.771504 0.267714 0.780534
O O10 0.657466 0.198517 0.895027
O O11 0.637578 0.991108 0.805200
O O12 0.250000 0.750000 0.500000
O O13 0.122108 0.075367 0.506144
O O14 0.250000 0.250000 0.500000
O O15 0.013344 0.751636 0.699839
O O16 0.074918 0.146572 0.743651
#
# Coordination Sequence:
#
# PCOD9290837 Si02
#       8
#     8   8   8   8   4   8   8   8
#     4  11  25  44  64  97 142 184 229 277 354 418
#     4  11  24  44  71 103 135 184 236 296 345 421
#     4  12  23  42  70 100 144 176 245 288 356 410
#     4  10  22  41  71 107 136 175 237 294 359 413
#     4  10  24  46  64  94 138 188 230 278 342 418
#     4  11  24  42  65 102 134 185 229 283 342 421
#     4  11  26  44  67  97 140 186 231 279 349 416
#     4  11  24  44  72 100 137 184 233 300 352 420
#
# _framework density 27.540177
#
# number of rings (size 3 to 8) (size 9 to 14) (size 15 to 20)
#    0.000    1.067    4.000    1.600    1.867    4.267 
#    0.000    1.333    0.000    0.000    0.000    2.800 
#    0.000    0.000    0.000    0.000    0.000    0.000 
#
# Total GULP energy -167309.098451 kJ/mol
# GULP energy per Si atom -5576.969948 kJ/mol
# Density = 2.747749 g / cm^3
# Si number density = 27.540177 Si / 1000 Ang^3
#
#
#
# Elastic Constant Matrix: (Units=GPa)
#
#
# Indices 1 2 3 4 5 6 
#
# 1 156.0061 36.3211 35.0640 0.0112 26.7304 0.0074
# 2 36.3211 150.6800 22.2870 0.0506 8.5361 -0.0273
# 3 35.0640 22.2870 64.3183 0.0647 37.3883 -0.0133
# 4 0.0112 0.0506 0.0647 31.6026 -0.0020 8.7365
# 5 26.7304 8.5361 37.3883 -0.0020 48.0320 0.0069
# 6 0.0074 -0.0273 -0.0133 8.7365 0.0069 46.4167
#
#
#
# Elastic Compliance Matrix: (Units=1/GPa)
#
#
# Indices 1 2 3 4 5 6 
#
# 1 0.007641 -0.001356 -0.002491 0.000005 -0.002072 -0.000003
# 2 -0.001356 0.007272 -0.002681 -0.000007 0.001549 0.000005
# 3 -0.002491 -0.002681 0.030597 -0.000065 -0.021954 0.000023
# 4 0.000005 -0.000007 -0.000065 0.033380 0.000051 -0.006283
# 5 -0.002072 0.001549 -0.021954 0.000051 0.038786 -0.000021
# 6 -0.000003 0.000005 0.000023 -0.006283 -0.000021 0.022727
#
#
# Mechanical properties :
#
#
# Convention : Reuss Voigt Hill
#
# Bulk Modulus (GPa) = 30.81395 62.03874 46.42634
# Shear Modulus (GPa) = 30.43651 43.69909 37.06780
#
# Velocity S-wave (km/s) = 3.32801 3.98771 3.67270
# Velocity P-wave (km/s) = 5.09711 6.61649 5.90587
#
# Compressibility (1/GPa) = 0.03245284
#
# Stress axis : x y z
#
# Youngs Moduli (GPa) = 130.87964 137.50900 32.68336
#
# Poissons Ratio (x) = 0.18645 0.08142
# Poissons Ratio (y) = 0.17746 0.08764
# Poissons Ratio (z) = 0.32603 0.36871
#
# Static dielectric constant tensor:
#      x y z
#    x 2.300770 0.000010 -0.146220 
#    y 0.000010 2.176620 -0.000060 
#    z -0.146220 -0.000060 2.504270 
# 
# From -- ./inp_files/314881.got.cif
#   From: 2010.05.17/outbox.cif.g08.bks.cpg/sg15_158_cif.got.tgz:314881.got - 2010.06.03 18:47:42.
