data_PCOD9290673
_publ_section_title
;
Structure prediction by ZEFSAII (Michael W. Deem and Ramdas Pophale) SiO2 
 PCOD9290673
Probable space group: C 2/C
;
_chemical_formula_sum "Si O2"
_cell_formula_units_Z 44
_cell_length_a 19.650593
_cell_length_b 8.028399
_cell_length_c 11.654128
_cell_angle_alpha 90.000000
_cell_angle_beta 96.137243
_cell_angle_gamma 90.000000
_cell_volume 1828.050308
_symmetry_space_group_name_H-M "C 2/C"
_symmetry_group_IT_number 15
_symmetry_cell_setting 'monoclinic'
loop_
_space_group_symop_operation_xyz
x,y,z
-x,y,1/2-z
-x,-y,-z
x,-y,1/2+z
1/2+x,1/2+y,z
1/2-x,1/2+y,1/2-z
1/2-x,1/2-y,-z
1/2+x,1/2-y,1/2+z
loop_
_atom_site_type_symbol
_atom_site_label
_atom_site_fract_x
_atom_site_fract_y
_atom_site_fract_z
Si Si1 0.742887 0.728580 0.685453
Si Si2 0.317580 0.288521 0.933013
Si Si3 0.601105 0.576813 0.653244
Si Si4 0.500000 0.635482 0.250000
Si Si5 0.466493 0.178610 0.519128
Si Si6 0.820698 0.549659 0.513815
O O1 0.791510 0.769024 0.798506
O O2 0.666369 0.680298 0.708886
O O3 0.776447 0.575218 0.620419
O O4 0.729536 0.881024 0.595170
O O5 0.365923 0.450226 0.936474
O O6 0.250000 0.250000 0.000000
O O7 0.355244 0.122514 0.981925
O O8 0.567341 0.476384 0.750444
O O9 0.541831 0.693175 0.588341
O O10 0.498158 0.742294 0.364539
O O11 0.386114 0.165895 0.538509
O O12 0.500000 0.000000 0.500000
#
# Coordination Sequence:
#
# PCOD9290673 Si02
#       6
#     8   8   8   4   8   8
#     4  10  22  42  66 103 141 185 231 292 376 432
#     4  12  23  39  69 106 138 179 232 299 369 431
#     4  11  25  45  69 106 141 185 244 300 355 440
#     4  12  26  46  76  96 148 190 244 310 354 430
#     4  11  26  49  69 100 143 193 250 293 364 438
#     4  10  22  41  68  95 143 181 233 301 357 439
#
# _framework density 24.06936
#
# number of rings (size 3 to 8) (size 9 to 14) (size 15 to 20)
#    0.000    1.091    1.818    3.818    2.545    0.727 
#    3.273    0.000    0.000    0.000    0.000    0.000 
#    0.000    0.000    0.000    0.000    0.000    0.000 
#
# Total GULP energy -122848.535125 kJ/mol
# GULP energy per Si atom -5584.024324 kJ/mol
# Density = 2.401458 g / cm^3
# Si number density = 24.069360 Si / 1000 Ang^3
#
#
#
# Elastic Constant Matrix: (Units=GPa)
#
#
# Indices 1 2 3 4 5 6 
#
# 1 81.2226 21.1733 22.8779 0.0000 -15.3123 0.0000
# 2 21.1733 117.5742 24.8392 0.0000 -2.8013 0.0000
# 3 22.8779 24.8392 71.0399 0.0000 2.9614 0.0000
# 4 0.0000 0.0000 0.0000 21.1847 0.0000 -3.0927
# 5 -15.3123 -2.8013 2.9614 0.0000 30.3142 0.0000
# 6 0.0000 0.0000 0.0000 -3.0927 0.0000 49.8929
#
#
#
# Elastic Compliance Matrix: (Units=1/GPa)
#
#
# Indices 1 2 3 4 5 6 
#
# 1 0.015636 -0.001602 -0.004818 0.000000 0.008221 0.000000
# 2 -0.001602 0.009389 -0.002781 0.000000 0.000330 0.000000
# 3 -0.004818 -0.002781 0.016781 0.000000 -0.004330 0.000000
# 4 0.000000 0.000000 0.000000 0.047635 0.000000 0.002953
# 5 0.008221 0.000330 -0.004330 0.000000 0.037594 0.000000
# 6 0.000000 0.000000 0.000000 0.002953 0.000000 0.020226
#
#
# Mechanical properties :
#
#
# Convention : Reuss Voigt Hill
#
# Bulk Modulus (GPa) = 42.72655 45.29083 44.00869
# Shear Modulus (GPa) = 28.82427 33.67476 31.24951
#
# Velocity S-wave (km/s) = 3.46432 3.74447 3.60712
# Velocity P-wave (km/s) = 5.81309 6.12800 5.97262
#
# Compressibility (1/GPa) = 0.02340465
#
# Stress axis : x y z
#
# Youngs Moduli (GPa) = 63.95325 106.50630 59.59108
#
# Poissons Ratio (x) = 0.17064 0.28712
# Poissons Ratio (y) = 0.10246 0.16571
# Poissons Ratio (z) = 0.30813 0.29616
#
# Static dielectric constant tensor:
#      x y z
#    x 2.035360 0.000000 -0.001750 
#    y 0.000000 2.206410 0.000000 
#    z -0.001750 0.000000 1.883890 
# 
# From -- ./inp_files/110160.got.cif
#   From: 2010.05.17/outbox.cif.g08.bks.cpg/sg15_56_cif.got.tgz:110160.got - 2010.06.03 18:47:42.
