data_PCOD9290274
_publ_section_title
;
Structure prediction by ZEFSAII (Michael W. Deem and Ramdas Pophale) SiO2 
 PCOD9290274
Probable space group: C 2/C
;
_chemical_formula_sum "Si O2"
_cell_formula_units_Z 44
_cell_length_a 19.320756
_cell_length_b 17.373848
_cell_length_c 16.422211
_cell_angle_alpha 90.000000
_cell_angle_beta 156.943537
_cell_angle_gamma 90.000000
_cell_volume 2158.920532
_symmetry_space_group_name_H-M "C 2/C"
_symmetry_group_IT_number 15
_symmetry_cell_setting 'monoclinic'
loop_
_space_group_symop_operation_xyz
x,y,z
-x,y,1/2-z
-x,-y,-z
x,-y,1/2+z
1/2+x,1/2+y,z
1/2-x,1/2+y,1/2-z
1/2-x,1/2-y,-z
1/2+x,1/2-y,1/2+z
loop_
_atom_site_type_symbol
_atom_site_label
_atom_site_fract_x
_atom_site_fract_y
_atom_site_fract_z
Si Si1 0.597157 0.995520 0.019183
Si Si2 0.311945 0.346713 0.748654
Si Si3 0.152100 0.422209 0.355401
Si Si4 0.000000 0.989306 0.250000
Si Si5 0.960006 0.068753 0.889246
Si Si6 0.892504 0.205733 0.049456
O O1 0.696044 0.076997 0.116127
O O2 0.745180 0.930399 0.164647
O O3 0.438143 0.003774 0.784256
O O4 0.500000 0.000000 0.000000
O O5 0.183572 0.276147 0.586343
O O6 0.466991 0.340839 0.850946
O O7 0.423823 0.359341 0.952980
O O8 0.330926 0.457442 0.583106
O O9 0.224833 0.349800 0.383896
O O10 0.000000 0.393530 0.250000
O O11 0.014559 0.947775 0.354432
O O12 0.000000 0.000000 0.000000
O O13 0.000000 0.223485 0.250000
#
# Coordination Sequence:
#
# PCOD9290274 Si02
#       6
#     8   8   8   4   8   8
#     4  11  21  39  63  92 131 178 231 281 339 404
#     4  11  24  42  60  93 137 178 232 279 339 413
#     4  12  22  38  64  99 136 178 226 270 352 418
#     4  12  22  44  70 100 142 180 228 296 340 412
#     4  10  22  41  64  95 133 177 229 292 340 399
#     4  12  24  40  62  96 143 188 222 276 343 428
#
# _framework density 20.380555000000001
#
# number of rings (size 3 to 8) (size 9 to 14) (size 15 to 20)
#    0.000    0.727    2.727    8.182    0.000    1.455 
#    0.000    0.000    0.000    1.091    0.000    0.000 
#    0.000    0.000    0.000    0.000    0.000    0.000 
#
# Total GULP energy -122568.624341 kJ/mol
# GULP energy per Si atom -5571.301106 kJ/mol
# Density = 2.033417 g / cm^3
# Si number density = 20.380555 Si / 1000 Ang^3
#
#
#
# Elastic Constant Matrix: (Units=GPa)
#
#
# Indices 1 2 3 4 5 6 
#
# 1 156.8106 39.0861 48.0409 0.0004 10.0394 -0.0126
# 2 39.0861 52.5211 47.0753 -0.0002 -9.1630 -0.0103
# 3 48.0409 47.0753 142.4860 0.0005 7.5451 -0.0202
# 4 0.0004 -0.0002 0.0005 51.1656 0.0003 -105.1068
# 5 10.0394 -9.1630 7.5451 0.0003 49.0329 -0.0130
# 6 -0.0126 -0.0103 -0.0202 -105.1068 -0.0130 1009.0146
#
#
#
# Elastic Compliance Matrix: (Units=1/GPa)
#
#
# Indices 1 2 3 4 5 6 
#
# 1 0.008254 -0.006041 -0.000643 0.000000 -0.002720 0.000000
# 2 -0.006041 0.033682 -0.009568 0.000001 0.009003 0.000000
# 3 -0.000643 -0.009568 0.010570 0.000000 -0.003283 0.000000
# 4 0.000000 0.000001 0.000000 0.024865 0.000001 0.002590
# 5 -0.002720 0.009003 -0.003283 0.000001 0.023139 0.000000
# 6 0.000000 0.000000 0.000000 0.002590 0.000000 0.001261
#
#
# Mechanical properties :
#
#
# Convention : Reuss Voigt Hill
#
# Bulk Modulus (GPa) = 49.99415 68.91361 59.45388
# Shear Modulus (GPa) = 35.47533 236.35032 135.91282
#
# Velocity S-wave (km/s) = 4.17663 10.78055 8.17510
# Velocity P-wave (km/s) = 6.91683 13.74217 10.87864
#
# Compressibility (1/GPa) = 0.02000234
#
# Stress axis : x y z
#
# Youngs Moduli (GPa) = 121.15398 29.68916 94.60614
#
# Poissons Ratio (x) = 0.17934 0.06085
# Poissons Ratio (y) = 0.73185 0.90522
# Poissons Ratio (z) = 0.07792 0.28407
#
# Static dielectric constant tensor:
#      x y z
#    x 1.984800 0.000000 -0.112050 
#    y 0.000000 1.780730 0.000000 
#    z -0.112050 0.000000 1.880050 
# 
# From -- ./inp_files/216208.got.cif
#   From: 2010.05.17/outbox.cif.g08.bks.cpg/sg15_109_cif.got.tgz:216208.got - 2010.06.03 18:47:42.
