data_PCOD9290671
_publ_section_title
;
Structure prediction by ZEFSAII (Michael W. Deem and Ramdas Pophale) SiO2 
 PCOD9290671
Probable space group: C 2/C
;
_chemical_formula_sum "Si O2"
_cell_formula_units_Z 60
_cell_length_a 8.415826
_cell_length_b 21.563649
_cell_length_c 19.102074
_cell_angle_alpha 90.000000
_cell_angle_beta 129.603890
_cell_angle_gamma 90.000000
_cell_volume 2670.885300
_symmetry_space_group_name_H-M "C 2/C"
_symmetry_group_IT_number 15
_symmetry_cell_setting 'monoclinic'
loop_
_space_group_symop_operation_xyz
x,y,z
-x,y,1/2-z
-x,-y,-z
x,-y,1/2+z
1/2+x,1/2+y,z
1/2-x,1/2+y,1/2-z
1/2-x,1/2-y,-z
1/2+x,1/2-y,1/2+z
loop_
_atom_site_type_symbol
_atom_site_label
_atom_site_fract_x
_atom_site_fract_y
_atom_site_fract_z
Si Si1 0.945389 0.430811 0.115538
Si Si2 0.894125 0.402843 0.481449
Si Si3 0.305562 0.545135 0.443399
Si Si4 0.047510 0.851485 0.951145
Si Si5 0.190764 0.872146 0.838491
Si Si6 0.177481 0.250352 0.702294
Si Si7 0.000000 0.342114 0.250000
Si Si8 0.206250 0.265714 0.101123
O O1 0.054096 0.388089 0.202290
O O2 0.077148 0.439197 0.082488
O O3 0.877805 0.497663 0.124425
O O4 0.742349 0.388447 0.038972
O O5 0.723822 0.425932 0.487534
O O6 0.865259 0.331789 0.448591
O O7 0.106999 0.408797 0.583675
O O8 0.500000 0.500000 0.500000
O O9 0.355293 0.601104 0.405331
O O10 0.966342 0.786967 0.959908
O O11 0.111665 0.842687 0.889015
O O12 0.255895 0.818097 0.803897
O O13 0.000000 0.907703 0.750000
O O14 0.302140 0.202460 0.688280
O O15 0.250777 0.235922 0.802708
O O16 0.930197 0.247155 0.630372
#
# Coordination Sequence:
#
# PCOD9290671 Si02
#       8
#     8   8   8   8   8   8   4   8
#     4  10  24  42  68  93 129 183 223 272 324 399
#     4  11  24  42  70  99 133 176 227 273 341 404
#     4  10  23  45  67  93 129 173 228 285 320 389
#     4  10  22  41  68  95 133 170 225 270 334 399
#     4  11  22  40  64  97 132 177 209 273 336 404
#     4  11  23  38  62  96 143 167 210 272 339 402
#     4  12  22  42  62  94 132 178 216 270 336 396
#     4  11  23  39  64 105 132 171 213 276 343 408
#
# _framework density 22.464462000000001
#
# number of rings (size 3 to 8) (size 9 to 14) (size 15 to 20)
#    0.000    1.333    3.333    1.200    5.600    2.133 
#    2.400    0.000    0.000    0.000    0.000    0.000 
#    0.000    0.000    0.000    0.000    0.000    0.000 
#
# Total GULP energy -167599.599711 kJ/mol
# GULP energy per Si atom -5586.653324 kJ/mol
# Density = 2.241333 g / cm^3
# Si number density = 22.464462 Si / 1000 Ang^3
#
#
#
# Elastic Constant Matrix: (Units=GPa)
#
#
# Indices 1 2 3 4 5 6 
#
# 1 127.9506 37.8685 9.9299 0.0000 -3.3069 0.0000
# 2 37.8685 80.2654 -2.2137 0.0000 -0.7100 0.0000
# 3 9.9299 -2.2137 45.2205 0.0000 -3.1167 0.0000
# 4 0.0000 0.0000 0.0000 3.0448 0.0000 3.7717
# 5 -3.3069 -0.7100 -3.1167 0.0000 15.6158 0.0000
# 6 0.0000 0.0000 0.0000 3.7717 0.0000 43.3404
#
#
#
# Elastic Compliance Matrix: (Units=1/GPa)
#
#
# Indices 1 2 3 4 5 6 
#
# 1 0.009337 -0.004453 -0.002176 0.000000 0.001340 0.000000
# 2 -0.004453 0.014607 0.001697 0.000000 0.000060 0.000000
# 3 -0.002176 0.001697 0.022964 0.000000 0.004200 0.000000
# 4 0.000000 0.000000 0.000000 0.368106 0.000000 -0.032034
# 5 0.001340 0.000060 0.004200 0.000000 0.065162 0.000000
# 6 0.000000 0.000000 0.000000 -0.032034 0.000000 0.025861
#
#
# Mechanical properties :
#
#
# Convention : Reuss Voigt Hill
#
# Bulk Modulus (GPa) = 26.99496 38.28955 32.64225
# Shear Modulus (GPa) = 9.46523 26.25700 17.86111
#
# Velocity S-wave (km/s) = 2.05489 3.42252 2.82278
# Velocity P-wave (km/s) = 4.20392 5.71836 5.01859
#
# Compressibility (1/GPa) = 0.03704396
#
# Stress axis : x y z
#
# Youngs Moduli (GPa) = 107.10046 68.46027 43.54610
#
# Poissons Ratio (x) = 0.30487 0.09475
# Poissons Ratio (y) = 0.47695 -0.07390
# Poissons Ratio (z) = 0.23304 -0.11618
#
# Static dielectric constant tensor:
#      x y z
#    x 1.852590 0.000000 0.011540 
#    y 0.000000 1.817390 0.000000 
#    z 0.011540 0.000000 1.863030 
# 
# From -- ./inp_files/234080.got.cif
#   From: 2010.05.17/outbox.cif.g08.bks.cpg/sg15_118_cif.got.tgz:234080.got - 2010.06.03 18:47:42.
