data_PCOD9290501
_publ_section_title
;
Structure prediction by ZEFSAII (Michael W. Deem and Ramdas Pophale) SiO2 
 PCOD9290501
Probable space group: C 2/C
;
_chemical_formula_sum "Si O2"
_cell_formula_units_Z 48
_cell_length_a 23.276150
_cell_length_b 5.344428
_cell_length_c 22.587891
_cell_angle_alpha 90.000000
_cell_angle_beta 133.321351
_cell_angle_gamma 90.000000
_cell_volume 2044.237218
_symmetry_space_group_name_H-M "C 2/C"
_symmetry_group_IT_number 15
_symmetry_cell_setting 'monoclinic'
loop_
_space_group_symop_operation_xyz
x,y,z
-x,y,1/2-z
-x,-y,-z
x,-y,1/2+z
1/2+x,1/2+y,z
1/2-x,1/2+y,1/2-z
1/2-x,1/2-y,-z
1/2+x,1/2-y,1/2+z
loop_
_atom_site_type_symbol
_atom_site_label
_atom_site_fract_x
_atom_site_fract_y
_atom_site_fract_z
Si Si1 0.658892 0.806945 0.914352
Si Si2 0.066982 0.747260 0.070511
Si Si3 0.414390 0.853758 0.510593
Si Si4 0.706851 0.640163 0.157715
Si Si5 0.594139 0.692801 0.305833
Si Si6 0.855043 0.399162 0.277036
O O1 0.603382 0.828071 0.933709
O O2 0.627879 0.568547 0.854809
O O3 0.641174 0.073956 0.869800
O O4 0.750000 0.750000 0.000000
O O5 0.089894 0.552175 0.139771
O O6 0.981892 0.836807 0.034556
O O7 0.142287 0.921983 0.117699
O O8 0.058172 0.610078 0.001170
O O9 0.331612 0.813707 0.418835
O O10 0.794823 0.581360 0.201415
O O11 0.704255 0.757480 0.220763
O O12 0.500000 0.712534 0.250000
O O13 0.605574 0.723441 0.243158
#
# Coordination Sequence:
#
# PCOD9290501 Si02
#       6
#     8   8   8   8   8   8
#     4  12  28  48  74 105 145 197 242 296 355 432
#     4  10  22  41  66  96 132 170 223 292 349 405
#     4  10  24  41  66  96 132 174 230 281 350 416
#     4  11  22  38  67  97 129 175 218 299 344 404
#     4  12  29  48  75 105 148 198 241 295 356 436
#     4  11  24  40  67 101 135 175 235 284 355 418
#
# _framework density 23.480637999999999
#
# number of rings (size 3 to 8) (size 9 to 14) (size 15 to 20)
#    0.000    1.000    1.667    3.500    9.333    0.000 
#    0.000    0.000    0.000    0.000    0.000    0.000 
#    0.000    0.000    0.000    0.000    0.000    0.000 
#
# Total GULP energy -133997.942669 kJ/mol
# GULP energy per Si atom -5583.247611 kJ/mol
# Density = 2.342720 g / cm^3
# Si number density = 23.480638 Si / 1000 Ang^3
#
#
#
# Elastic Constant Matrix: (Units=GPa)
#
#
# Indices 1 2 3 4 5 6 
#
# 1 76.9736 3.1522 20.5090 -0.0002 -11.9843 -0.0007
# 2 3.1522 101.5801 34.4682 -0.0002 0.4325 0.0109
# 3 20.5090 34.4682 78.7589 -0.0004 23.4041 -0.0006
# 4 -0.0002 -0.0002 -0.0004 30.8033 -0.0011 10.9498
# 5 -11.9843 0.4325 23.4041 -0.0011 60.2250 0.0013
# 6 -0.0007 0.0109 -0.0006 10.9498 0.0013 24.8972
#
#
#
# Elastic Compliance Matrix: (Units=1/GPa)
#
#
# Indices 1 2 3 4 5 6 
#
# 1 0.015502 0.001675 -0.006425 0.000001 0.005570 -0.000001
# 2 0.001675 0.011989 -0.006508 0.000002 0.002776 -0.000007
# 3 -0.006425 -0.006508 0.019880 -0.000002 -0.008957 0.000004
# 4 0.000001 0.000002 -0.000002 0.038480 0.000002 -0.016924
# 5 0.005570 0.002776 -0.008957 0.000002 0.021174 -0.000003
# 6 -0.000001 -0.000007 0.000004 -0.016924 -0.000003 0.047608
#
#
# Mechanical properties :
#
#
# Convention : Reuss Voigt Hill
#
# Bulk Modulus (GPa) = 40.23280 41.50794 40.87037
# Shear Modulus (GPa) = 26.96380 36.46397 31.71389
#
# Velocity S-wave (km/s) = 3.39240 3.94501 3.67909
# Velocity P-wave (km/s) = 5.70229 6.20215 5.95747
#
# Compressibility (1/GPa) = 0.02485534
#
# Stress axis : x y z
#
# Youngs Moduli (GPa) = 64.50823 83.40976 50.30142
#
# Poissons Ratio (x) = -0.13974 0.32319
# Poissons Ratio (y) = -0.10807 0.32737
# Poissons Ratio (z) = 0.41447 0.54285
#
# Static dielectric constant tensor:
#      x y z
#    x 1.876650 -0.000010 0.057430 
#    y -0.000010 2.077020 0.000010 
#    z 0.057430 0.000010 1.981540 
# 
# From -- ./inp_files/254465.got.cif
#   From: 2010.05.17/outbox.cif.g08.bks.cpg/sg15_128_cif.got.tgz:254465.got - 2010.06.03 18:47:42.
