data_PCOD9290794
_publ_section_title
;
Structure prediction by ZEFSAII (Michael W. Deem and Ramdas Pophale) SiO2 
 PCOD9290794
Probable space group: C 2/C
;
_chemical_formula_sum "Si O2"
_cell_formula_units_Z 56
_cell_length_a 4.873491
_cell_length_b 18.817684
_cell_length_c 26.988832
_cell_angle_alpha 90.000000
_cell_angle_beta 92.294350
_cell_angle_gamma 90.000000
_cell_volume 2473.102616
_symmetry_space_group_name_H-M "C 2/C"
_symmetry_group_IT_number 15
_symmetry_cell_setting 'monoclinic'
loop_
_space_group_symop_operation_xyz
x,y,z
-x,y,1/2-z
-x,-y,-z
x,-y,1/2+z
1/2+x,1/2+y,z
1/2-x,1/2+y,1/2-z
1/2-x,1/2-y,-z
1/2+x,1/2-y,1/2+z
loop_
_atom_site_type_symbol
_atom_site_label
_atom_site_fract_x
_atom_site_fract_y
_atom_site_fract_z
Si Si1 0.214359 0.430923 0.653605
Si Si2 0.000000 0.137481 0.250000
Si Si3 0.188591 0.865953 0.600447
Si Si4 0.058074 0.681679 0.491545
Si Si5 0.005177 0.164282 0.837871
Si Si6 0.500000 0.232848 0.250000
Si Si7 0.512101 0.078677 0.810197
Si Si8 0.160123 0.734047 0.918932
O O1 0.450370 0.420408 0.614285
O O2 0.094245 0.507736 0.664599
O O3 0.565318 0.285941 0.607976
O O4 0.959363 0.381804 0.634707
O O5 0.860656 0.093851 0.205220
O O6 0.244405 0.185924 0.231645
O O7 0.280490 0.871239 0.543384
O O8 0.250000 0.750000 0.500000
O O9 0.960327 0.670987 0.547136
O O10 0.805363 0.709330 0.456716
O O11 0.823675 0.093996 0.827595
O O12 0.894684 0.200507 0.886654
O O13 0.912042 0.217544 0.794113
O O14 0.318710 0.142235 0.829943
O O15 0.500000 0.074875 0.750000
#
# Coordination Sequence:
#
# PCOD9290794 Si02
#       8
#     8   4   8   8   8   4   8   8
#     4  12  27  42  69  93 135 184 235 280 322 406
#     4  12  28  39  64  99 136 168 218 280 356 400
#     4  11  22  42  67 105 135 170 220 285 344 398
#     4   9  20  39  68 106 143 174 208 269 362 427
#     4  12  26  44  69  93 138 175 229 279 325 418
#     4  12  24  43  62 103 134 168 208 292 362 386
#     4  12  27  49  66  89 130 196 242 272 322 388
#     4  10  22  41  70 109 137 176 215 276 364 412
#
# _framework density 22.643619000000001
#
# number of rings (size 3 to 8) (size 9 to 14) (size 15 to 20)
#    0.000    0.857    2.857    3.429   11.000    0.000 
#    0.000    0.000    0.000    5.143    0.000    0.000 
#    0.000    0.000    0.000    0.000    0.000    0.000 
#
# Total GULP energy -156537.353157 kJ/mol
# GULP energy per Si atom -5590.619756 kJ/mol
# Density = 2.259208 g / cm^3
# Si number density = 22.643619 Si / 1000 Ang^3
#
#
#
# Elastic Constant Matrix: (Units=GPa)
#
#
# Indices 1 2 3 4 5 6 
#
# 1 107.3968 -2.3551 -9.6197 0.0000 -3.5204 0.0000
# 2 -2.3551 40.5781 -0.6169 0.0000 -3.5207 0.0000
# 3 -9.6197 -0.6169 87.9559 0.0000 -32.8168 0.0000
# 4 0.0000 0.0000 0.0000 59.7822 0.0000 -21.2875
# 5 -3.5204 -3.5207 -32.8168 0.0000 45.2597 0.0000
# 6 0.0000 0.0000 0.0000 -21.2875 0.0000 36.7890
#
#
#
# Elastic Compliance Matrix: (Units=1/GPa)
#
#
# Indices 1 2 3 4 5 6 
#
# 1 0.009564 0.000770 0.001853 0.000000 0.002147 0.000000
# 2 0.000770 0.024970 0.001380 0.000000 0.003003 0.000000
# 3 0.001853 0.001380 0.016005 0.000000 0.011857 0.000000
# 4 0.000000 0.000000 0.000000 0.021068 0.000000 0.012191
# 5 0.002147 0.003003 0.011857 0.000000 0.031092 0.000000
# 6 0.000000 0.000000 0.000000 0.012191 0.000000 0.034236
#
#
# Mechanical properties :
#
#
# Convention : Reuss Voigt Hill
#
# Bulk Modulus (GPa) = 17.08142 23.41638 20.24890
# Shear Modulus (GPa) = 33.68186 44.93432 39.30809
#
# Velocity S-wave (km/s) = 3.86097 4.45951 4.17099
# Velocity P-wave (km/s) = 5.23794 6.07289 5.67081
#
# Compressibility (1/GPa) = 0.05854314
#
# Stress axis : x y z
#
# Youngs Moduli (GPa) = 104.55382 40.04806 62.47902
#
# Poissons Ratio (x) = -0.03082 -0.11574
# Poissons Ratio (y) = -0.08046 -0.08620
# Poissons Ratio (z) = -0.19369 -0.05525
#
# Static dielectric constant tensor:
#      x y z
#    x 1.906520 0.000000 -0.013180 
#    y 0.000000 1.844090 0.000000 
#    z -0.013180 0.000000 1.920150 
# 
# From -- ./inp_files/286048.got.cif
#   From: 2010.05.17/outbox.cif.g08.bks.cpg/sg15_144_cif.got.tgz:286048.got - 2010.06.03 18:47:42.
