data_PCOD9290056
_publ_section_title
;
Structure prediction by ZEFSAII (Michael W. Deem and Ramdas Pophale) SiO2 
 PCOD9290056
Probable space group: C 2/C
;
_chemical_formula_sum "Si O2"
_cell_formula_units_Z 40
_cell_length_a 13.371422
_cell_length_b 26.174729
_cell_length_c 5.050912
_cell_angle_alpha 90.000000
_cell_angle_beta 79.561565
_cell_angle_gamma 90.000000
_cell_volume 1738.529018
_symmetry_space_group_name_H-M "C 2/C"
_symmetry_group_IT_number 15
_symmetry_cell_setting 'monoclinic'
loop_
_space_group_symop_operation_xyz
x,y,z
-x,y,1/2-z
-x,-y,-z
x,-y,1/2+z
1/2+x,1/2+y,z
1/2-x,1/2+y,1/2-z
1/2-x,1/2-y,-z
1/2+x,1/2-y,1/2+z
loop_
_atom_site_type_symbol
_atom_site_label
_atom_site_fract_x
_atom_site_fract_y
_atom_site_fract_z
Si Si1 0.380313 0.804796 0.286122
Si Si2 0.697270 0.701543 0.257282
Si Si3 0.754254 0.389034 0.101662
Si Si4 0.430941 0.627644 0.523823
Si Si5 0.112230 0.466650 0.759653
O O1 0.500000 0.802624 0.250000
O O2 0.343539 0.756156 0.131344
O O3 0.309843 0.795895 0.577517
O O4 0.346321 0.860331 0.203259
O O5 0.701599 0.657466 0.470211
O O6 0.620229 0.679516 0.068950
O O7 0.666539 0.406512 0.345176
O O8 0.799701 0.429432 0.878569
O O9 0.500000 0.634732 0.750000
O O10 0.500000 0.607115 0.250000
O O11 0.118276 0.515722 0.559710
O O12 0.000000 0.444406 0.750000
#
# Coordination Sequence:
#
# PCOD9290056 Si02
#       5
#     8   8   8   8   8
#     4  10  23  37  60  98 143 184 225 279 330 398
#     4  10  22  41  59 100 136 185 230 275 329 403
#     4  11  24  40  70  97 138 175 235 274 344 398
#     4  11  22  40  67  96 130 183 226 272 327 395
#     4  10  25  45  72 102 134 173 219 279 350 413
#
# _framework density 23.007957999999999
#
# number of rings (size 3 to 8) (size 9 to 14) (size 15 to 20)
#    0.000    1.600    2.000    1.200    8.400    0.800 
#    0.000    0.000    0.000    3.600    0.000    0.000 
#    0.000    0.000    0.000    0.000    0.000    0.000 
#
# Total GULP energy -111759.094175 kJ/mol
# GULP energy per Si atom -5587.954709 kJ/mol
# Density = 2.295559 g / cm^3
# Si number density = 23.007958 Si / 1000 Ang^3
#
#
#
# Elastic Constant Matrix: (Units=GPa)
#
#
# Indices 1 2 3 4 5 6 
#
# 1 150.9789 15.7560 45.8789 0.0000 -36.3212 0.0000
# 2 15.7560 28.3203 11.4970 0.0000 -14.1585 0.0000
# 3 45.8789 11.4970 99.7852 0.0000 -13.9433 0.0000
# 4 0.0000 0.0000 0.0000 32.4572 0.0000 -10.3041
# 5 -36.3212 -14.1585 -13.9433 0.0000 43.9599 0.0000
# 6 0.0000 0.0000 0.0000 -10.3041 0.0000 10.0900
#
#
#
# Elastic Compliance Matrix: (Units=1/GPa)
#
#
# Indices 1 2 3 4 5 6 
#
# 1 0.009218 -0.000608 -0.003276 0.000000 0.006381 0.000000
# 2 -0.000608 0.043059 -0.002944 0.000000 0.012432 0.000000
# 3 -0.003276 -0.002944 0.011883 0.000000 0.000114 0.000000
# 4 0.000000 0.000000 0.000000 0.045590 0.000000 0.046558
# 5 0.006381 0.012432 0.000114 0.000000 0.032060 0.000000
# 6 0.000000 0.000000 0.000000 0.046558 0.000000 0.146654
#
#
# Mechanical properties :
#
#
# Convention : Reuss Voigt Hill
#
# Bulk Modulus (GPa) = 19.80112 47.26090 33.53101
# Shear Modulus (GPa) = 15.67615 31.03158 23.35386
#
# Velocity S-wave (km/s) = 2.61307 3.67649 3.18942
# Velocity P-wave (km/s) = 4.21059 6.21352 5.30740
#
# Compressibility (1/GPa) = 0.05050220
#
# Stress axis : x y z
#
# Youngs Moduli (GPa) = 108.48883 23.22381 84.15348
#
# Poissons Ratio (x) = 0.01412 0.27571
# Poissons Ratio (y) = 0.06597 0.24778
# Poissons Ratio (z) = 0.35545 0.06838
#
# Static dielectric constant tensor:
#      x y z
#    x 1.901190 0.000000 0.031710 
#    y 0.000000 1.870340 0.000000 
#    z 0.031710 0.000000 1.963380 
# 
# From -- ./inp_files/4910.got.cif
#   From: 2010.05.17/outbox.cif.g08.bks.cpg/sg15_3_cif.got.tgz:4910.got - 2010.06.03 18:47:42.
