data_PCOD9290373
_publ_section_title
;
Structure prediction by ZEFSAII (Michael W. Deem and Ramdas Pophale) SiO2 
 PCOD9290373
Probable space group: C 2/C
;
_chemical_formula_sum "Si O2"
_cell_formula_units_Z 36
_cell_length_a 24.136655
_cell_length_b 11.603083
_cell_length_c 13.072005
_cell_angle_alpha 90.000000
_cell_angle_beta 28.344979
_cell_angle_gamma 90.000000
_cell_volume 1738.138708
_symmetry_space_group_name_H-M "C 2/C"
_symmetry_group_IT_number 15
_symmetry_cell_setting 'monoclinic'
loop_
_space_group_symop_operation_xyz
x,y,z
-x,y,1/2-z
-x,-y,-z
x,-y,1/2+z
1/2+x,1/2+y,z
1/2-x,1/2+y,1/2-z
1/2-x,1/2-y,-z
1/2+x,1/2-y,1/2+z
loop_
_atom_site_type_symbol
_atom_site_label
_atom_site_fract_x
_atom_site_fract_y
_atom_site_fract_z
Si Si1 0.201740 0.121194 0.058999
Si Si2 0.419194 0.867700 0.081521
Si Si3 0.937335 0.397026 0.457163
Si Si4 0.169309 0.120397 0.339499
Si Si5 0.500000 0.462428 0.750000
O O1 0.181490 0.070413 0.204150
O O2 0.084457 0.111531 0.185062
O O3 0.250000 0.250000 0.000000
O O4 0.307481 0.072993 0.819521
O O5 0.508707 0.841451 0.028086
O O6 0.381532 0.749609 0.089379
O O7 0.461025 0.966417 0.937093
O O8 0.800480 0.373239 0.668584
O O9 0.000000 0.362644 0.250000
O O10 0.084324 0.042427 0.544671
#
# Coordination Sequence:
#
# PCOD9290373 Si02
#       5
#     8   8   8   8   4
#     4  10  22  41  65  94 127 168 219 254 318 383
#     4  10  23  42  63 101 125 169 221 256 332 386
#     4  11  22  42  69  91 135 167 213 276 315 389
#     4  11  24  42  66  97 126 174 211 266 327 383
#     4  12  24  44  64  96 140 164 210 278 316 384
#
# _framework density 20.711811000000001
#
# number of rings (size 3 to 8) (size 9 to 14) (size 15 to 20)
#    0.000    1.333    4.444    0.667    1.556    7.111 
#    4.000    1.111    0.000    0.000    0.000    0.000 
#    0.000    0.000    0.000    0.000    0.000    0.000 
#
# Total GULP energy -100542.206090 kJ/mol
# GULP energy per Si atom -5585.678116 kJ/mol
# Density = 2.066467 g / cm^3
# Si number density = 20.711811 Si / 1000 Ang^3
#
#
#
# Elastic Constant Matrix: (Units=GPa)
#
#
# Indices 1 2 3 4 5 6 
#
# 1 200.1358 60.8611 64.3868 0.0000 -41.2178 0.0000
# 2 60.8611 90.7458 31.4887 0.0000 -4.3212 0.0000
# 3 64.3868 31.4887 117.5547 0.0000 -10.5710 0.0000
# 4 0.0000 0.0000 0.0000 12.2740 0.0000 -2.0595
# 5 -41.2178 -4.3212 -10.5710 0.0000 44.1346 0.0000
# 6 0.0000 0.0000 0.0000 -2.0595 0.0000 33.6874
#
#
#
# Elastic Compliance Matrix: (Units=1/GPa)
#
#
# Indices 1 2 3 4 5 6 
#
# 1 0.008775 -0.004522 -0.002962 0.000000 0.007043 0.000000
# 2 -0.004522 0.014487 -0.001692 0.000000 -0.003210 0.000000
# 3 -0.002962 -0.001692 0.010546 0.000000 -0.000406 0.000000
# 4 0.000000 0.000000 0.000000 0.082318 0.000000 0.005033
# 5 0.007043 -0.003210 -0.000406 0.000000 0.028824 0.000000
# 6 0.000000 0.000000 0.000000 0.005033 0.000000 0.029992
#
#
# Mechanical properties :
#
#
# Convention : Reuss Voigt Hill
#
# Bulk Modulus (GPa) = 64.70187 80.21217 72.45702
# Shear Modulus (GPa) = 25.19574 34.79918 29.99746
#
# Velocity S-wave (km/s) = 3.49161 4.10342 3.80982
# Velocity P-wave (km/s) = 6.89652 7.82704 7.37647
#
# Compressibility (1/GPa) = 0.01545550
#
# Stress axis : x y z
#
# Youngs Moduli (GPa) = 113.95866 69.02685 94.82584
#
# Poissons Ratio (x) = 0.31215 0.28084
# Poissons Ratio (y) = 0.51535 0.16048
# Poissons Ratio (z) = 0.33750 0.11682
#
# Static dielectric constant tensor:
#      x y z
#    x 1.749600 0.000000 0.011770 
#    y 0.000000 1.749990 0.000000 
#    z 0.011770 0.000000 1.790170 
# 
# From -- ./inp_files/85778.got.cif
#   From: 2010.05.17/outbox.cif.g08.bks.cpg/sg15_43_cif.got.tgz:85778.got - 2010.06.03 18:47:42.
