data_PCOD9290031
_publ_section_title
;
Structure prediction by ZEFSAII (Michael W. Deem and Ramdas Pophale) SiO2 
 PCOD9290031
Probable space group: C 2/C
;
_chemical_formula_sum "Si O2"
_cell_formula_units_Z 44
_cell_length_a 7.715263
_cell_length_b 13.759524
_cell_length_c 20.766716
_cell_angle_alpha 90.000000
_cell_angle_beta 130.232172
_cell_angle_gamma 90.000000
_cell_volume 1683.035087
_symmetry_space_group_name_H-M "C 2/C"
_symmetry_group_IT_number 15
_symmetry_cell_setting 'monoclinic'
loop_
_space_group_symop_operation_xyz
x,y,z
-x,y,1/2-z
-x,-y,-z
x,-y,1/2+z
1/2+x,1/2+y,z
1/2-x,1/2+y,1/2-z
1/2-x,1/2-y,-z
1/2+x,1/2-y,1/2+z
loop_
_atom_site_type_symbol
_atom_site_label
_atom_site_fract_x
_atom_site_fract_y
_atom_site_fract_z
Si Si1 0.707664 0.666361 0.433095
Si Si2 0.834759 0.187207 0.432196
Si Si3 0.433001 0.432719 0.422408
Si Si4 0.643543 0.095312 0.158798
Si Si5 0.315858 0.090903 0.912744
Si Si6 0.500000 0.013219 0.250000
O O1 0.750000 0.750000 0.500000
O O2 0.461829 0.638809 0.402214
O O3 0.705477 0.660539 0.354161
O O4 0.987861 0.825183 0.465287
O O5 0.613549 0.135965 0.408327
O O6 0.768241 0.294338 0.392651
O O7 0.500000 0.500000 0.500000
O O8 0.614502 0.443530 0.410006
O O9 0.819075 0.550093 0.664900
O O10 0.642084 0.080715 0.235003
O O11 0.678688 0.984101 0.144011
O O12 0.573369 0.097782 0.001498
#
# Coordination Sequence:
#
# PCOD9290031 Si02
#       6
#     8   8   8   8   8   4
#     4  10  22  40  75 122 153 206 274 342 413 504
#     4  11  24  46  80 114 159 215 269 349 414 497
#     4  12  23  46  79 112 158 212 268 339 417 496
#     4  12  25  48  72 117 163 207 284 335 426 511
#     4  11  24  43  77 115 153 210 269 338 418 497
#     4  12  28  46  80 118 160 224 270 348 430 498
#
# _framework density 26.143246999999999
#
# number of rings (size 3 to 8) (size 9 to 14) (size 15 to 20)
#    0.000    0.727    3.636    3.273    2.545    0.727 
#    0.000    1.818    0.000    0.000    0.000    0.000 
#    0.000    0.000    0.000    0.000    0.000    0.000 
#
# Total GULP energy -122540.996178 kJ/mol
# GULP energy per Si atom -5570.045281 kJ/mol
# Density = 2.608374 g / cm^3
# Si number density = 26.143247 Si / 1000 Ang^3
#
#
#
# Elastic Constant Matrix: (Units=GPa)
#
#
# Indices 1 2 3 4 5 6 
#
# 1 236.3517 56.3655 74.4828 0.0000 -59.5431 0.0000
# 2 56.3655 130.4228 50.6758 0.0000 -12.4922 0.0000
# 3 74.4828 50.6758 151.4346 0.0000 -13.8474 0.0000
# 4 0.0000 0.0000 0.0000 12.9567 0.0000 -14.0972
# 5 -59.5431 -12.4922 -13.8474 0.0000 67.8329 0.0000
# 6 0.0000 0.0000 0.0000 -14.0972 0.0000 50.5346
#
#
#
# Elastic Compliance Matrix: (Units=1/GPa)
#
#
# Indices 1 2 3 4 5 6 
#
# 1 0.006566 -0.001471 -0.002277 0.000000 0.005028 0.000000
# 2 -0.001471 0.009216 -0.002367 0.000000 -0.000078 0.000000
# 3 -0.002277 -0.002367 0.008451 0.000000 -0.000710 0.000000
# 4 0.000000 0.000000 0.000000 0.110814 0.000000 0.030913
# 5 0.005028 -0.000078 -0.000710 0.000000 0.018996 0.000000
# 6 0.000000 0.000000 0.000000 0.030913 0.000000 0.028412
#
#
# Mechanical properties :
#
#
# Convention : Reuss Voigt Hill
#
# Bulk Modulus (GPa) = 83.32906 97.91748 90.62327
# Shear Modulus (GPa) = 25.16516 48.71051 36.93784
#
# Velocity S-wave (km/s) = 3.10592 4.32118 3.76294
# Velocity P-wave (km/s) = 6.69370 7.90141 7.32250
#
# Compressibility (1/GPa) = 0.01200062
#
# Stress axis : x y z
#
# Youngs Moduli (GPa) = 152.29455 108.51142 118.32954
#
# Poissons Ratio (x) = 0.15965 0.26949
# Poissons Ratio (y) = 0.22407 0.28013
# Poissons Ratio (z) = 0.34685 0.25689
#
# Static dielectric constant tensor:
#      x y z
#    x 2.141940 0.000000 0.022660 
#    y 0.000000 2.418780 0.000000 
#    z 0.022660 0.000000 2.178290 
# 
# From -- ./inp_files/197434.got.cif
#   From: 2010.05.17/outbox.cif.g08.bks.cpg/sg15_99_cif.got.tgz:197434.got - 2010.06.03 18:47:42.
