data_PCOD9290077
_publ_section_title
;
Structure prediction by ZEFSAII (Michael W. Deem and Ramdas Pophale) SiO2 
 PCOD9290077
Probable space group: C 2/C
;
_chemical_formula_sum "Si O2"
_cell_formula_units_Z 44
_cell_length_a 20.886444
_cell_length_b 8.737742
_cell_length_c 11.771705
_cell_angle_alpha 90.000000
_cell_angle_beta 122.952510
_cell_angle_gamma 90.000000
_cell_volume 1802.719055
_symmetry_space_group_name_H-M "C 2/C"
_symmetry_group_IT_number 15
_symmetry_cell_setting 'monoclinic'
loop_
_space_group_symop_operation_xyz
x,y,z
-x,y,1/2-z
-x,-y,-z
x,-y,1/2+z
1/2+x,1/2+y,z
1/2-x,1/2+y,1/2-z
1/2-x,1/2-y,-z
1/2+x,1/2-y,1/2+z
loop_
_atom_site_type_symbol
_atom_site_label
_atom_site_fract_x
_atom_site_fract_y
_atom_site_fract_z
Si Si1 0.124601 0.737354 0.856886
Si Si2 0.189342 0.725389 0.280969
Si Si3 0.578065 0.262371 0.380549
Si Si4 0.000000 0.046511 0.250000
Si Si5 0.080508 0.478603 0.515939
Si Si6 0.238204 0.075905 0.629051
O O1 0.059972 0.846582 0.743539
O O2 0.179878 0.646603 0.826984
O O3 0.083646 0.617969 0.901908
O O4 0.179307 0.845728 0.985611
O O5 0.139533 0.770953 0.340276
O O6 0.136119 0.619762 0.148936
O O7 0.216212 0.869222 0.233565
O O8 0.256140 0.606189 0.376449
O O9 0.500000 0.190668 0.250000
O O10 0.546567 0.431852 0.377346
O O11 0.605016 0.149287 0.503853
O O12 0.000000 0.500000 0.500000
#
# Coordination Sequence:
#
# PCOD9290077 Si02
#       6
#     8   8   8   4   8   8
#     4  10  23  43  64  95 129 171 215 266 320 386
#     4  11  23  41  65  93 129 174 214 264 326 383
#     4  10  22  41  60  97 134 157 220 273 310 386
#     4  10  24  38  68  90 130 168 206 272 330 356
#     4  11  21  39  68  95 122 167 218 262 324 382
#     4  10  24  42  64  93 131 171 217 258 323 394
#
# _framework density 24.407572999999999
#
# number of rings (size 3 to 8) (size 9 to 14) (size 15 to 20)
#    0.545    1.091    3.636    0.000    6.364    1.455 
#    0.000   10.000    0.000    0.000    0.000    0.000 
#    0.000    0.000    0.000    0.000    0.000    0.000 
#
# Total GULP energy -123077.877763 kJ/mol
# GULP energy per Si atom -5594.448989 kJ/mol
# Density = 2.435202 g / cm^3
# Si number density = 24.407573 Si / 1000 Ang^3
#
#
#
# Elastic Constant Matrix: (Units=GPa)
#
#
# Indices 1 2 3 4 5 6 
#
# 1 160.4459 61.8799 44.0648 0.0000 -25.8807 0.0000
# 2 61.8799 102.7485 23.6382 0.0000 8.4076 0.0000
# 3 44.0648 23.6382 59.2396 0.0000 -6.1429 0.0000
# 4 0.0000 0.0000 0.0000 38.0086 0.0000 15.3823
# 5 -25.8807 8.4076 -6.1429 0.0000 28.0076 0.0000
# 6 0.0000 0.0000 0.0000 15.3823 0.0000 47.8505
#
#
#
# Elastic Compliance Matrix: (Units=1/GPa)
#
#
# Indices 1 2 3 4 5 6 
#
# 1 0.012530 -0.007426 -0.005040 0.000000 0.012702 0.000000
# 2 -0.007426 0.015636 -0.001958 0.000000 -0.011985 0.000000
# 3 -0.005040 -0.001958 0.021477 0.000000 0.000642 0.000000
# 4 0.000000 0.000000 0.000000 0.030245 0.000000 -0.009723
# 5 0.012702 -0.011985 0.000642 0.000000 0.051180 0.000000
# 6 0.000000 0.000000 0.000000 -0.009723 0.000000 0.024024
#
#
# Mechanical properties :
#
#
# Convention : Reuss Voigt Hill
#
# Bulk Modulus (GPa) = 48.08858 64.62222 56.35540
# Shear Modulus (GPa) = 26.19568 35.63007 30.91288
#
# Velocity S-wave (km/s) = 3.27962 3.82487 3.56269
# Velocity P-wave (km/s) = 5.83835 6.78528 6.32954
#
# Compressibility (1/GPa) = 0.02079496
#
# Stress axis : x y z
#
# Youngs Moduli (GPa) = 79.81141 63.95544 46.56072
#
# Poissons Ratio (x) = 0.47492 0.23465
# Poissons Ratio (y) = 0.59266 0.09118
# Poissons Ratio (z) = 0.40223 0.12525
#
# Static dielectric constant tensor:
#      x y z
#    x 1.902330 0.000000 0.088270 
#    y 0.000000 1.932480 0.000000 
#    z 0.088270 0.000000 1.960390 
# 
# From -- ./inp_files/110192.got.cif
#   From: 2010.05.17/outbox.cif.g08.bks.cpg/sg15_56_cif.got.tgz:110192.got - 2010.06.03 18:47:42.
