data_PCOD9290827
_publ_section_title
;
Structure prediction by ZEFSAII (Michael W. Deem and Ramdas Pophale) SiO2 
 PCOD9290827
Probable space group: C 2/C
;
_chemical_formula_sum "Si O2"
_cell_formula_units_Z 56
_cell_length_a 21.617959
_cell_length_b 8.124282
_cell_length_c 14.933529
_cell_angle_alpha 90.000000
_cell_angle_beta 126.828862
_cell_angle_gamma 90.000000
_cell_volume 2099.351814
_symmetry_space_group_name_H-M "C 2/C"
_symmetry_group_IT_number 15
_symmetry_cell_setting 'monoclinic'
loop_
_space_group_symop_operation_xyz
x,y,z
-x,y,1/2-z
-x,-y,-z
x,-y,1/2+z
1/2+x,1/2+y,z
1/2-x,1/2+y,1/2-z
1/2-x,1/2-y,-z
1/2+x,1/2-y,1/2+z
loop_
_atom_site_type_symbol
_atom_site_label
_atom_site_fract_x
_atom_site_fract_y
_atom_site_fract_z
Si Si1 0.300230 0.999497 0.713797
Si Si2 0.157811 0.279150 0.908745
Si Si3 0.018040 0.616323 0.371967
Si Si4 0.295532 0.367659 0.716037
Si Si5 0.170873 0.923097 0.955256
Si Si6 0.977394 0.730138 0.634058
Si Si7 0.447393 0.453928 0.370700
O O1 0.328274 0.183584 0.760963
O O2 0.225136 0.034603 0.585775
O O3 0.349415 0.889560 0.686982
O O4 0.276825 0.900904 0.782282
O O5 0.112072 0.364440 0.949689
O O6 0.127418 0.091581 0.886868
O O7 0.250000 0.250000 0.000000
O O8 0.004866 0.436627 0.404016
O O9 0.000000 0.644625 0.250000
O O10 0.974785 0.769644 0.377789
O O11 0.285323 0.377123 0.599319
O O12 0.356438 0.509768 0.798300
O O13 0.110792 0.787828 0.937027
O O14 0.000000 0.664414 0.750000
O O15 0.026914 0.894780 0.669590
O O16 0.500000 0.500000 0.500000
#
# Coordination Sequence:
#
# PCOD9290827 Si02
#       7
#     8   8   8   8   8   8   8
#     4  11  26  45  70 111 150 201 254 313 395 463
#     4  10  22  41  71 101 142 185 240 301 373 455
#     4  11  24  43  74 104 137 187 248 306 370 449
#     4  12  25  45  68 105 152 193 253 322 378 468
#     4  11  21  44  75 105 145 196 252 316 383 460
#     4  11  22  43  71 105 137 185 248 306 370 446
#     4  12  26  46  71 101 149 196 246 311 381 452
#
# _framework density 26.674900999999998
#
# number of rings (size 3 to 8) (size 9 to 14) (size 15 to 20)
#    0.000    0.857    2.857    4.286    4.000    1.714 
#    2.571    0.000    0.000    0.000    0.000    0.000 
#    0.000    0.000    0.000    0.000    0.000    0.000 
#
# Total GULP energy -156450.472638 kJ/mol
# GULP energy per Si atom -5587.516880 kJ/mol
# Density = 2.661419 g / cm^3
# Si number density = 26.674901 Si / 1000 Ang^3
#
#
#
# Elastic Constant Matrix: (Units=GPa)
#
#
# Indices 1 2 3 4 5 6 
#
# 1 91.9834 50.3794 9.7740 0.0000 1.6894 0.0000
# 2 50.3794 222.2427 12.3560 0.0000 -3.8833 0.0000
# 3 9.7740 12.3560 72.4712 0.0000 -4.2011 0.0000
# 4 0.0000 0.0000 0.0000 44.1200 0.0000 5.4679
# 5 1.6894 -3.8833 -4.2011 0.0000 34.7783 0.0000
# 6 0.0000 0.0000 0.0000 5.4679 0.0000 55.6282
#
#
#
# Elastic Compliance Matrix: (Units=1/GPa)
#
#
# Indices 1 2 3 4 5 6 
#
# 1 0.012558 -0.002794 -0.001280 0.000000 -0.001077 0.000000
# 2 -0.002794 0.005170 -0.000467 0.000000 0.000657 0.000000
# 3 -0.001280 -0.000467 0.014150 0.000000 0.001719 0.000000
# 4 0.000000 0.000000 0.000000 0.022945 0.000000 -0.002255
# 5 -0.001077 0.000657 0.001719 0.000000 0.029087 0.000000
# 6 0.000000 0.000000 0.000000 -0.002255 0.000000 0.018198
#
#
# Mechanical properties :
#
#
# Convention : Reuss Voigt Hill
#
# Bulk Modulus (GPa) = 43.86456 59.07958 51.47207
# Shear Modulus (GPa) = 42.09150 47.85117 44.97133
#
# Velocity S-wave (km/s) = 3.97664 4.24000 4.11043
# Velocity P-wave (km/s) = 6.12901 6.79457 6.47035
#
# Compressibility (1/GPa) = 0.02279745
#
# Stress axis : x y z
#
# Youngs Moduli (GPa) = 79.63216 193.40716 70.66941
#
# Poissons Ratio (x) = 0.54045 0.09043
# Poissons Ratio (y) = 0.22252 0.03297
# Poissons Ratio (z) = 0.10190 0.09024
#
# Static dielectric constant tensor:
#      x y z
#    x 2.469230 0.000000 0.011390 
#    y 0.000000 2.038990 0.000000 
#    z 0.011390 0.000000 2.126030 
# 
# From -- ./inp_files/172470.got.cif
#   From: 2010.05.17/outbox.cif.g08.bks.cpg/sg15_87_cif.got.tgz:172470.got - 2010.06.03 18:47:42.
