data_PCOD9290985
_publ_section_title
;
Structure prediction by ZEFSAII (Michael W. Deem and Ramdas Pophale) SiO2 
 PCOD9290985
Probable space group: C 2/C
;
_chemical_formula_sum "Si O2"
_cell_formula_units_Z 32
_cell_length_a 7.512193
_cell_length_b 12.029147
_cell_length_c 14.761828
_cell_angle_alpha 90.000000
_cell_angle_beta 113.355081
_cell_angle_gamma 90.000000
_cell_volume 1224.659829
_symmetry_space_group_name_H-M "C 2/C"
_symmetry_group_IT_number 15
_symmetry_cell_setting 'monoclinic'
loop_
_space_group_symop_operation_xyz
x,y,z
-x,y,1/2-z
-x,-y,-z
x,-y,1/2+z
1/2+x,1/2+y,z
1/2-x,1/2+y,1/2-z
1/2-x,1/2-y,-z
1/2+x,1/2-y,1/2+z
loop_
_atom_site_type_symbol
_atom_site_label
_atom_site_fract_x
_atom_site_fract_y
_atom_site_fract_z
Si Si1 0.724324 0.511549 0.072726
Si Si2 0.310087 0.870967 0.920082
Si Si3 0.079963 0.763453 0.590258
Si Si4 0.271327 0.443895 0.227948
O O1 0.733787 0.641231 0.097800
O O2 0.761353 0.444003 0.171535
O O3 0.500000 0.500000 0.000000
O O4 0.824942 0.458832 0.006473
O O5 0.096862 0.815404 0.886367
O O6 0.319129 0.942683 0.831406
O O7 0.469313 0.779564 0.977665
O O8 0.180167 0.662514 0.661679
O O9 0.500000 0.447437 0.250000
#
# Coordination Sequence:
#
# PCOD9290985 Si02
#       4
#     8   8   8   8
#     4  10  22  42  62  93 127 162 209 261 307 375
#     4  10  23  46  64  91 130 163 215 263 305 379
#     4  10  23  42  69  89 125 177 203 258 328 359
#     4  12  23  42  64  96 130 161 214 264 309 379
#
# _framework density 26.129705000000001
#
# number of rings (size 3 to 8) (size 9 to 14) (size 15 to 20)
#    0.000    1.500    5.000    0.750    0.000   10.000 
#    4.500    0.000    0.000    0.000    0.000    0.000 
#    0.000    0.000    0.000    0.000    0.000    0.000 
#
# Total GULP energy -89786.447304 kJ/mol
# GULP energy per Si atom -5611.652957 kJ/mol
# Density = 2.607023 g / cm^3
# Si number density = 26.129705 Si / 1000 Ang^3
#
#
#
# Elastic Constant Matrix: (Units=GPa)
#
#
# Indices 1 2 3 4 5 6 
#
# 1 82.0277 18.5865 21.8993 0.0000 4.2408 0.0000
# 2 18.5865 142.5213 39.3050 0.0000 12.6448 0.0000
# 3 21.8993 39.3050 123.4356 0.0000 -4.4672 0.0000
# 4 0.0000 0.0000 0.0000 45.6561 0.0000 20.7636
# 5 4.2408 12.6448 -4.4672 0.0000 40.1962 0.0000
# 6 0.0000 0.0000 0.0000 20.7636 0.0000 39.8748
#
#
#
# Elastic Compliance Matrix: (Units=1/GPa)
#
#
# Indices 1 2 3 4 5 6 
#
# 1 0.013032 -0.001026 -0.002032 0.000000 -0.001278 0.000000
# 2 -0.001026 0.008077 -0.002488 0.000000 -0.002709 0.000000
# 3 -0.002032 -0.002488 0.009328 0.000000 0.002034 0.000000
# 4 0.000000 0.000000 0.000000 0.028699 0.000000 -0.014944
# 5 -0.001278 -0.002709 0.002034 0.000000 0.026091 0.000000
# 6 0.000000 0.000000 0.000000 -0.014944 0.000000 0.032860
#
#
# Mechanical properties :
#
#
# Convention : Reuss Voigt Hill
#
# Bulk Modulus (GPa) = 51.69148 56.39626 54.04387
# Shear Modulus (GPa) = 36.86604 43.02500 39.94552
#
# Velocity S-wave (km/s) = 3.76025 4.06223 3.91415
# Velocity P-wave (km/s) = 6.21918 6.60547 6.41524
#
# Compressibility (1/GPa) = 0.01934555
#
# Stress axis : x y z
#
# Youngs Moduli (GPa) = 76.73469 123.81230 107.20827
#
# Poissons Ratio (x) = 0.12701 0.21781
# Poissons Ratio (y) = 0.07872 0.26672
# Poissons Ratio (z) = 0.15590 0.30803
#
# Static dielectric constant tensor:
#      x y z
#    x 2.125020 0.000000 0.031370 
#    y 0.000000 2.087660 0.000000 
#    z 0.031370 0.000000 1.998990 
# 
# From -- ./inp_files/141553.got.cif
#   From: 2010.05.17/outbox.cif.g08.bks.cpg/sg15_71_cif.got.tgz:141553.got - 2010.06.03 18:47:42.
