data_PCOD9290297
_publ_section_title
;
Structure prediction by ZEFSAII (Michael W. Deem and Ramdas Pophale) SiO2 
 PCOD9290297
Probable space group: C 2/C
;
_chemical_formula_sum "Si O2"
_cell_formula_units_Z 56
_cell_length_a 35.285517
_cell_length_b 14.206470
_cell_length_c 13.912330
_cell_angle_alpha 90.000000
_cell_angle_beta 23.448080
_cell_angle_gamma 90.000000
_cell_volume 2775.083131
_symmetry_space_group_name_H-M "C 2/C"
_symmetry_group_IT_number 15
_symmetry_cell_setting 'monoclinic'
loop_
_space_group_symop_operation_xyz
x,y,z
-x,y,1/2-z
-x,-y,-z
x,-y,1/2+z
1/2+x,1/2+y,z
1/2-x,1/2+y,1/2-z
1/2-x,1/2-y,-z
1/2+x,1/2-y,1/2+z
loop_
_atom_site_type_symbol
_atom_site_label
_atom_site_fract_x
_atom_site_fract_y
_atom_site_fract_z
Si Si1 0.082342 0.990357 0.981288
Si Si2 0.298100 0.003974 0.537920
Si Si3 0.851582 0.365973 0.246877
Si Si4 0.395010 0.972004 0.514864
Si Si5 0.631308 0.663106 0.216985
Si Si6 0.009893 0.194408 0.114477
Si Si7 0.332032 0.171556 0.318224
O O1 0.082364 0.919354 0.891902
O O2 0.185162 0.986544 0.792795
O O3 0.000000 0.970077 0.250000
O O4 0.067014 0.096227 0.979890
O O5 0.320026 0.105411 0.439072
O O6 0.345363 0.924151 0.360488
O O7 0.338998 0.993045 0.548238
O O8 0.909331 0.431255 0.040341
O O9 0.743828 0.357695 0.456594
O O10 0.885274 0.261121 0.188783
O O11 0.334967 0.901387 0.721975
O O12 0.500000 0.932820 0.250000
O O13 0.589035 0.674781 0.209235
O O14 0.000000 0.218007 0.250000
O O15 0.068667 0.272699 0.920339
O O16 0.250000 0.250000 0.500000
#
# Coordination Sequence:
#
# PCOD9290297 Si02
#       7
#     8   8   8   8   8   8   8
#     4  10  22  41  64  98 125 168 212 263 330 382
#     4  10  23  45  65  91 133 165 213 272 318 385
#     4   9  23  42  66  91 127 176 213 257 333 373
#     4  11  26  42  67  95 131 173 221 266 324 382
#     4  10  22  42  64  93 131 169 213 269 317 395
#     4  11  24  38  68  96 129 165 217 264 327 380
#     4  11  24  44  65  97 127 168 217 261 330 386
#
# _framework density 20.179576000000001
#
# number of rings (size 3 to 8) (size 9 to 14) (size 15 to 20)
#    0.000    1.714    1.429    0.857   10.000    2.857 
#    5.143    0.000    0.000    0.000    0.000    0.000 
#    0.000    0.000    0.000    0.000    0.000    0.000 
#
# Total GULP energy -156477.617093 kJ/mol
# GULP energy per Si atom -5588.486325 kJ/mol
# Density = 2.013365 g / cm^3
# Si number density = 20.179576 Si / 1000 Ang^3
#
#
#
# Elastic Constant Matrix: (Units=GPa)
#
#
# Indices 1 2 3 4 5 6 
#
# 1 102.7566 16.3496 22.5784 0.0000 14.3155 0.0000
# 2 16.3496 106.8402 26.3640 0.0000 11.0697 0.0000
# 3 22.5784 26.3640 59.5050 0.0000 16.2412 0.0000
# 4 0.0000 0.0000 0.0000 32.0312 0.0000 1.1173
# 5 14.3155 11.0697 16.2412 0.0000 12.4032 0.0000
# 6 0.0000 0.0000 0.0000 1.1173 0.0000 11.1642
#
#
#
# Elastic Compliance Matrix: (Units=1/GPa)
#
#
# Indices 1 2 3 4 5 6 
#
# 1 0.011657 -0.000298 -0.001076 0.000000 -0.011779 0.000000
# 2 -0.000298 0.010728 -0.003300 0.000000 -0.004910 0.000000
# 3 -0.001076 -0.003300 0.027284 0.000000 -0.031540 0.000000
# 4 0.000000 0.000000 0.000000 0.031329 0.000000 -0.003135
# 5 -0.011779 -0.004910 -0.031540 0.000000 0.139901 0.000000
# 6 0.000000 0.000000 0.000000 -0.003135 0.000000 0.089886
#
#
# Mechanical properties :
#
#
# Convention : Reuss Voigt Hill
#
# Bulk Modulus (GPa) = 24.80096 44.40953 34.60524
# Shear Modulus (GPa) = 14.98922 24.70705 19.84813
#
# Velocity S-wave (km/s) = 2.72838 3.50288 3.13960
# Velocity P-wave (km/s) = 4.71616 6.19800 5.50715
#
# Compressibility (1/GPa) = 0.04032102
#
# Stress axis : x y z
#
# Youngs Moduli (GPa) = 85.78879 93.21039 36.65128
#
# Poissons Ratio (x) = 0.02776 0.03944
# Poissons Ratio (y) = 0.02555 0.12096
# Poissons Ratio (z) = 0.09231 0.30761
#
# Static dielectric constant tensor:
#      x y z
#    x 1.681950 0.000000 -0.001330 
#    y 0.000000 1.711200 0.000000 
#    z -0.001330 0.000000 1.722220 
# 
# From -- ./inp_files/126961.got.cif
#   From: 2010.05.17/outbox.cif.g08.bks.cpg/sg15_64_cif.got.tgz:126961.got - 2010.06.03 18:47:42.
