data_PCOD9290937
_publ_section_title
;
Structure prediction by ZEFSAII (Michael W. Deem and Ramdas Pophale) SiO2 
 PCOD9290937
Probable space group: C 2/C
;
_chemical_formula_sum "Si O2"
_cell_formula_units_Z 32
_cell_length_a 17.544797
_cell_length_b 6.661288
_cell_length_c 13.383523
_cell_angle_alpha 90.000000
_cell_angle_beta 111.453469
_cell_angle_gamma 90.000000
_cell_volume 1455.773054
_symmetry_space_group_name_H-M "C 2/C"
_symmetry_group_IT_number 15
_symmetry_cell_setting 'monoclinic'
loop_
_space_group_symop_operation_xyz
x,y,z
-x,y,1/2-z
-x,-y,-z
x,-y,1/2+z
1/2+x,1/2+y,z
1/2-x,1/2+y,1/2-z
1/2-x,1/2-y,-z
1/2+x,1/2-y,1/2+z
loop_
_atom_site_type_symbol
_atom_site_label
_atom_site_fract_x
_atom_site_fract_y
_atom_site_fract_z
Si Si1 0.688079 0.966897 0.324032
Si Si2 0.359242 0.378384 0.832744
Si Si3 0.107086 0.547314 0.481690
Si Si4 0.437983 0.775666 0.864286
O O1 0.657149 0.748418 0.274961
O O2 0.778731 0.998262 0.325594
O O3 0.677627 0.003429 0.436330
O O4 0.629765 0.127180 0.240171
O O5 0.432023 0.536816 0.856100
O O6 0.372431 0.215745 0.926323
O O7 0.083827 0.350867 0.534109
O O8 0.026420 0.628535 0.386648
#
# Coordination Sequence:
#
# PCOD9290937 Si02
#       4
#     8   8   8   8
#     4  11  22  40  63  92 129 165 207 261 310 370
#     4  11  22  40  64  92 127 165 212 258 310 372
#     4  10  23  40  64  90 126 167 209 257 312 371
#     4  10  22  42  61  93 128 161 209 261 308 376
#
# _framework density 21.981449000000001
#
# number of rings (size 3 to 8) (size 9 to 14) (size 15 to 20)
#    0.000    1.500    2.500    2.250    0.000    3.000 
#    0.000    7.500    0.000    0.000    0.000    0.000 
#    0.000    0.000    0.000    0.000    0.000    0.000 
#
# Total GULP energy -89487.918285 kJ/mol
# GULP energy per Si atom -5592.994893 kJ/mol
# Density = 2.193142 g / cm^3
# Si number density = 21.981449 Si / 1000 Ang^3
#
#
#
# Elastic Constant Matrix: (Units=GPa)
#
#
# Indices 1 2 3 4 5 6 
#
# 1 27.4335 -4.6643 1.8206 0.0000 -10.7640 0.0000
# 2 -4.6643 109.2347 4.8422 0.0000 -8.4273 0.0000
# 3 1.8206 4.8422 28.6723 0.0000 -3.9565 0.0000
# 4 0.0000 0.0000 0.0000 18.6094 0.0000 18.0579
# 5 -10.7640 -8.4273 -3.9565 0.0000 34.3666 0.0000
# 6 0.0000 0.0000 0.0000 18.0579 0.0000 21.1150
#
#
#
# Elastic Compliance Matrix: (Units=1/GPa)
#
#
# Indices 1 2 3 4 5 6 
#
# 1 0.042483 0.002942 -0.001279 0.000000 0.013880 0.000000
# 2 0.002942 0.009581 -0.001375 0.000000 0.003113 0.000000
# 3 -0.001279 -0.001375 0.035655 0.000000 0.003367 0.000000
# 4 0.000000 0.000000 0.000000 0.315861 0.000000 -0.270130
# 5 0.013880 0.003113 0.003367 0.000000 0.034596 0.000000
# 6 0.000000 0.000000 0.000000 -0.270130 0.000000 0.278380
#
#
# Mechanical properties :
#
#
# Convention : Reuss Voigt Hill
#
# Bulk Modulus (GPa) = 11.32583 18.81525 15.07054
# Shear Modulus (GPa) = 6.70768 25.70767 16.20768
#
# Velocity S-wave (km/s) = 1.74876 3.42353 2.71834
# Velocity P-wave (km/s) = 3.03993 4.91992 4.08942
#
# Compressibility (1/GPa) = 0.08829376
#
# Stress axis : x y z
#
# Youngs Moduli (GPa) = 23.53889 104.36995 28.04656
#
# Poissons Ratio (x) = -0.30701 0.03587
# Poissons Ratio (y) = -0.06924 0.03857
# Poissons Ratio (z) = 0.03010 0.14355
#
# Static dielectric constant tensor:
#      x y z
#    x 1.792920 0.000000 0.018310 
#    y 0.000000 1.786350 0.000000 
#    z 0.018310 0.000000 1.809110 
# 
# From -- ./inp_files/158162.got.cif
#   From: 2010.05.17/outbox.cif.g08.bks.cpg/sg15_80_cif.got.tgz:158162.got - 2010.06.03 18:47:42.
