data_PCOD9290740
_publ_section_title
;
Structure prediction by ZEFSAII (Michael W. Deem and Ramdas Pophale) SiO2 
 PCOD9290740
Probable space group: C 2/C
;
_chemical_formula_sum "Si O2"
_cell_formula_units_Z 52
_cell_length_a 26.579800
_cell_length_b 16.902264
_cell_length_c 8.599370
_cell_angle_alpha 90.000000
_cell_angle_beta 38.653852
_cell_angle_gamma 90.000000
_cell_volume 2413.097376
_symmetry_space_group_name_H-M "C 2/C"
_symmetry_group_IT_number 15
_symmetry_cell_setting 'monoclinic'
loop_
_space_group_symop_operation_xyz
x,y,z
-x,y,1/2-z
-x,-y,-z
x,-y,1/2+z
1/2+x,1/2+y,z
1/2-x,1/2+y,1/2-z
1/2-x,1/2-y,-z
1/2+x,1/2-y,1/2+z
loop_
_atom_site_type_symbol
_atom_site_label
_atom_site_fract_x
_atom_site_fract_y
_atom_site_fract_z
Si Si1 0.621432 0.777446 0.021220
Si Si2 0.864902 0.413734 0.000786
Si Si3 0.959255 0.278922 0.607449
Si Si4 0.500000 0.640678 0.750000
Si Si5 0.356852 0.472425 0.711947
Si Si6 0.180863 0.894543 0.380104
Si Si7 0.678379 0.073985 0.537013
O O1 0.541609 0.794092 0.315010
O O2 0.678801 0.848933 0.928894
O O3 0.604361 0.771912 0.879530
O O4 0.652089 0.691842 0.994660
O O5 0.777382 0.390000 0.141899
O O6 0.857412 0.410848 0.205030
O O7 0.930875 0.353126 0.779010
O O8 0.871621 0.504238 0.926455
O O9 0.970646 0.200769 0.684773
O O10 0.571976 0.582825 0.522318
O O11 0.362254 0.566083 0.664421
O O12 0.346092 0.453529 0.918052
O O13 0.270638 0.450523 0.844035
#
# Coordination Sequence:
#
# PCOD9290740 Si02
#       7
#     8   8   8   4   8   8   8
#     4  11  24  43  65  95 140 169 228 277 333 390
#     4  10  22  41  69  95 134 174 222 272 335 391
#     4  11  25  41  63  99 131 176 219 277 330 399
#     4  12  24  42  64  96 132 178 226 268 330 398
#     4  10  24  41  66  95 137 177 223 271 333 395
#     4  10  23  43  64  98 132 177 221 277 327 393
#     4  10  22  43  68  99 133 176 225 274 332 398
#
# _framework density 21.549067999999998
#
# number of rings (size 3 to 8) (size 9 to 14) (size 15 to 20)
#    0.000    1.538    1.538    1.846    4.308    5.538 
#    0.000    1.538    0.000    0.000    0.000    0.000 
#    0.000    0.000    0.000    0.000    0.000    0.000 
#
# Total GULP energy -145279.082059 kJ/mol
# GULP energy per Si atom -5587.657002 kJ/mol
# Density = 2.150002 g / cm^3
# Si number density = 21.549068 Si / 1000 Ang^3
#
#
#
# Elastic Constant Matrix: (Units=GPa)
#
#
# Indices 1 2 3 4 5 6 
#
# 1 60.0906 31.5249 18.1170 0.0000 18.8551 0.0000
# 2 31.5249 128.7489 38.4364 0.0000 2.4989 0.0000
# 3 18.1170 38.4364 72.8532 0.0000 3.8311 0.0000
# 4 0.0000 0.0000 0.0000 143.5789 0.0000 -157.7736
# 5 18.8551 2.4989 3.8311 0.0000 15.3995 0.0000
# 6 0.0000 0.0000 0.0000 -157.7736 0.0000 281.7923
#
#
#
# Elastic Compliance Matrix: (Units=1/GPa)
#
#
# Indices 1 2 3 4 5 6 
#
# 1 0.033032 -0.006519 -0.002740 0.000000 -0.038705 0.000000
# 2 -0.006519 0.010507 -0.004309 0.000000 0.007349 0.000000
# 3 -0.002740 -0.004309 0.016686 0.000000 -0.000097 0.000000
# 4 0.000000 0.000000 0.000000 0.018102 0.000000 0.010135
# 5 -0.038705 0.007349 -0.000097 0.000000 0.111159 0.000000
# 6 0.000000 0.000000 0.000000 0.010135 0.000000 0.009223
#
#
# Mechanical properties :
#
#
# Convention : Reuss Voigt Hill
#
# Bulk Modulus (GPa) = 30.22024 48.64993 39.43509
# Shear Modulus (GPa) = 21.10823 99.72842 60.41833
#
# Velocity S-wave (km/s) = 3.13316 6.81030 5.30079
# Velocity P-wave (km/s) = 5.20992 9.19052 7.47024
#
# Compressibility (1/GPa) = 0.03309040
#
# Stress axis : x y z
#
# Youngs Moduli (GPa) = 30.27333 95.17532 59.93104
#
# Poissons Ratio (x) = 0.62045 0.16420
# Poissons Ratio (y) = 0.19735 0.25822
# Poissons Ratio (z) = 0.08294 0.41007
#
# Static dielectric constant tensor:
#      x y z
#    x 1.800970 0.000000 0.004280 
#    y 0.000000 1.805110 0.000000 
#    z 0.004280 0.000000 1.770070 
# 
# From -- ./inp_files/70086.got.cif
#   From: 2010.05.17/outbox.cif.g08.bks.cpg/sg15_36_cif.got.tgz:70086.got - 2010.06.03 18:47:42.
