data_PCOD9290271
_publ_section_title
;
Structure prediction by ZEFSAII (Michael W. Deem and Ramdas Pophale) SiO2 
 PCOD9290271
Probable space group: C 2/C
;
_chemical_formula_sum "Si O2"
_cell_formula_units_Z 40
_cell_length_a 11.979482
_cell_length_b 17.983130
_cell_length_c 9.078494
_cell_angle_alpha 90.000000
_cell_angle_beta 71.653877
_cell_angle_gamma 90.000000
_cell_volume 1856.360156
_symmetry_space_group_name_H-M "C 2/C"
_symmetry_group_IT_number 15
_symmetry_cell_setting 'monoclinic'
loop_
_space_group_symop_operation_xyz
x,y,z
-x,y,1/2-z
-x,-y,-z
x,-y,1/2+z
1/2+x,1/2+y,z
1/2-x,1/2+y,1/2-z
1/2-x,1/2-y,-z
1/2+x,1/2-y,1/2+z
loop_
_atom_site_type_symbol
_atom_site_label
_atom_site_fract_x
_atom_site_fract_y
_atom_site_fract_z
Si Si1 0.000000 0.229075 0.750000
Si Si2 0.844571 0.360795 0.925342
Si Si3 0.500000 0.013565 0.250000
Si Si4 0.264745 0.053537 0.718743
Si Si5 0.162502 0.100564 0.249396
Si Si6 0.422303 0.372525 0.008841
O O1 0.092506 0.283406 0.629476
O O2 0.048736 0.181498 0.867094
O O3 0.761514 0.372131 0.819528
O O4 0.940326 0.427968 0.887327
O O5 0.773441 0.377689 0.102712
O O6 0.607098 0.965827 0.269191
O O7 0.172043 0.072233 0.883000
O O8 0.210332 0.978693 0.671255
O O9 0.043570 0.093235 0.395184
O O10 0.137101 0.153933 0.120671
#
# Coordination Sequence:
#
# PCOD9290271 Si02
#       6
#     4   8   4   8   8   8
#     4  11  26  44  60  90 128 177 214 238 302 375
#     4  10  22  41  66  89 126 166 208 258 302 373
#     4   9  20  38  64  98 122 151 206 268 324 361
#     4  11  21  39  68  96 122 157 206 267 322 362
#     4  10  22  41  64  95 123 158 206 263 319 360
#     4  11  24  39  61  92 131 165 203 254 308 380
#
# _framework density 21.547542
#
# number of rings (size 3 to 8) (size 9 to 14) (size 15 to 20)
#    0.000    1.600    0.000    4.800    0.000   10.400 
#    0.000    4.000    0.000    0.000    0.000    0.000 
#    0.000    0.000    0.000    0.000    0.000    0.000 
#
# Total GULP energy -111551.779792 kJ/mol
# GULP energy per Si atom -5577.588990 kJ/mol
# Density = 2.149850 g / cm^3
# Si number density = 21.547542 Si / 1000 Ang^3
#
#
#
# Elastic Constant Matrix: (Units=GPa)
#
#
# Indices 1 2 3 4 5 6 
#
# 1 118.6897 77.1143 53.1703 0.0000 12.5779 0.0000
# 2 77.1143 67.8091 73.9044 0.0000 15.7377 0.0000
# 3 53.1703 73.9044 135.2742 0.0000 13.5801 0.0000
# 4 0.0000 0.0000 0.0000 13.5820 0.0000 -13.6343
# 5 12.5779 15.7377 13.5801 0.0000 22.5789 0.0000
# 6 0.0000 0.0000 0.0000 -13.6343 0.0000 -52.1720
#
#
#
# Elastic Compliance Matrix: (Units=1/GPa)
#
#
# Indices 1 2 3 4 5 6 
#
# 1 0.093494 -0.174936 0.055142 0.000000 0.036685 0.000000
# 2 -0.174936 0.368695 -0.124150 0.000000 -0.084863 0.000000
# 3 0.055142 -0.124150 0.051023 0.000000 0.025129 0.000000
# 4 0.000000 0.000000 0.000000 0.058326 0.000000 -0.015242
# 5 0.036685 -0.084863 0.025129 0.000000 0.067890 0.000000
# 6 0.000000 0.000000 0.000000 -0.015242 0.000000 -0.015184
#
#
# Mechanical properties :
#
#
# Convention : Reuss Voigt Hill
#
# Bulk Modulus (GPa) = 39.49046 81.12788 60.30917
# Shear Modulus (GPa) = 4.46200 4.63673 4.54937
#
# Velocity S-wave (km/s) = 1.44058 1.46851 1.45461
# Velocity P-wave (km/s) = 4.59717 6.37242 5.55615
#
# Compressibility (1/GPa) = 0.02532257
#
# Stress axis : x y z
#
# Youngs Moduli (GPa) = 10.69589 2.71227 19.59905
#
# Poissons Ratio (x) = 0.47447 -1.08073
# Poissons Ratio (y) = 1.87110 2.43323
# Poissons Ratio (z) = -0.58979 0.33673
#
# Static dielectric constant tensor:
#      x y z
#    x 1.824680 0.000000 -0.020790 
#    y 0.000000 1.778660 0.000000 
#    z -0.020790 0.000000 1.826580 
# 
# From -- ./inp_files/30320.got.cif
#   From: 2010.05.17/outbox.cif.g08.bks.cpg/sg15_16_cif.got.tgz:30320.got - 2010.06.03 18:47:42.
