data_PCOD9290047
_publ_section_title
;
Structure prediction by ZEFSAII (Michael W. Deem and Ramdas Pophale) SiO2 
 PCOD9290047
Probable space group: C 2/C
;
_chemical_formula_sum "Si O2"
_cell_formula_units_Z 64
_cell_length_a 16.864084
_cell_length_b 5.504652
_cell_length_c 27.943612
_cell_angle_alpha 90.000000
_cell_angle_beta 70.192590
_cell_angle_gamma 90.000000
_cell_volume 2440.560253
_symmetry_space_group_name_H-M "C 2/C"
_symmetry_group_IT_number 15
_symmetry_cell_setting 'monoclinic'
loop_
_space_group_symop_operation_xyz
x,y,z
-x,y,1/2-z
-x,-y,-z
x,-y,1/2+z
1/2+x,1/2+y,z
1/2-x,1/2+y,1/2-z
1/2-x,1/2-y,-z
1/2+x,1/2-y,1/2+z
loop_
_atom_site_type_symbol
_atom_site_label
_atom_site_fract_x
_atom_site_fract_y
_atom_site_fract_z
Si Si1 0.924416 0.890482 0.483637
Si Si2 0.787500 0.921417 0.358733
Si Si3 0.086571 0.437078 0.647446
Si Si4 0.640675 0.968085 0.241767
Si Si5 0.188407 0.786425 0.557822
Si Si6 0.954885 0.402288 0.598928
Si Si7 0.825563 0.987654 0.243889
Si Si8 0.358118 0.600059 0.094694
O O1 0.852326 0.884242 0.538193
O O2 0.966994 0.650855 0.453396
O O3 0.888074 0.052511 0.448425
O O4 0.000000 0.000000 0.500000
O O5 0.881552 0.836810 0.351182
O O6 0.788287 0.023875 0.305569
O O7 0.732724 0.676708 0.368059
O O8 0.761143 0.080768 0.409309
O O9 0.100781 0.553379 0.696935
O O10 0.145573 0.565710 0.595295
O O11 0.996164 0.427532 0.642159
O O12 0.743522 0.971621 0.227605
O O13 0.619651 0.726882 0.276101
O O14 0.623024 0.239518 0.263811
O O15 0.250000 0.750000 0.500000
O O16 0.912461 0.659073 0.596230
O O17 0.896704 0.157153 0.604861
#
# Coordination Sequence:
#
# PCOD9290047 Si02
#       8
#     8   8   8   8   8   8   8   8
#     4  10  22  41  57  80 116 165 209 249 290 361
#     4  11  24  39  61  91 128 159 206 258 316 369
#     4  11  22  39  64  90 123 161 209 263 304 363
#     4   9  18  33  60  90 121 150 198 249 308 361
#     4  12  25  37  61  92 130 163 205 262 312 363
#     4  11  24  42  61  85 119 165 210 251 300 360
#     4   9  18  35  57  91 122 154 190 250 312 369
#     4  11  26  40  60  85 122 167 203 250 307 368
#
# _framework density 26.223488
#
# number of rings (size 3 to 8) (size 9 to 14) (size 15 to 20)
#    0.000    1.500    2.500    2.625    7.000    1.000 
#    0.000    0.000    0.000    0.750    0.000    3.500 
#    0.000    0.000    0.000    0.000    0.000    0.000 
#
# Total GULP energy -178784.986145 kJ/mol
# GULP energy per Si atom -5587.030817 kJ/mol
# Density = 2.616380 g / cm^3
# Si number density = 26.223488 Si / 1000 Ang^3
#
#
#
# Elastic Constant Matrix: (Units=GPa)
#
#
# Indices 1 2 3 4 5 6 
#
# 1 67.4186 44.5367 59.0502 -0.0004 35.8487 -0.0007
# 2 44.5367 167.7039 52.1358 -0.0043 23.5720 -0.0022
# 3 59.0502 52.1358 154.8400 -0.0008 26.4556 -0.0009
# 4 -0.0004 -0.0043 -0.0008 51.6579 -0.0009 14.1153
# 5 35.8487 23.5720 26.4556 -0.0009 46.2051 -0.0008
# 6 -0.0007 -0.0022 -0.0009 14.1153 -0.0008 49.8139
#
#
#
# Elastic Compliance Matrix: (Units=1/GPa)
#
#
# Indices 1 2 3 4 5 6 
#
# 1 0.036625 -0.003939 -0.009011 -0.000001 -0.021247 0.000000
# 2 -0.003939 0.007321 -0.000939 0.000001 -0.000141 0.000000
# 3 -0.009011 -0.000939 0.009903 0.000000 0.001800 0.000000
# 4 -0.000001 0.000001 0.000000 0.020983 0.000000 -0.005946
# 5 -0.021247 -0.000141 0.001800 0.000000 0.037169 0.000000
# 6 0.000000 0.000000 0.000000 -0.005946 0.000000 0.021759
#
#
# Mechanical properties :
#
#
# Convention : Reuss Voigt Hill
#
# Bulk Modulus (GPa) = 38.35516 77.93421 58.14469
# Shear Modulus (GPa) = 29.37254 45.15134 37.26194
#
# Velocity S-wave (km/s) = 3.35040 4.15395 3.77362
# Velocity P-wave (km/s) = 5.44288 7.26573 6.41933
#
# Compressibility (1/GPa) = 0.02607211
#
# Stress axis : x y z
#
# Youngs Moduli (GPa) = 27.30393 136.60179 100.97671
#
# Poissons Ratio (x) = 0.53802 0.90990
# Poissons Ratio (y) = 0.10754 0.09479
# Poissons Ratio (z) = 0.24603 0.12823
#
# Static dielectric constant tensor:
#      x y z
#    x 2.093010 0.000000 -0.059710 
#    y 0.000000 2.145320 0.000000 
#    z -0.059710 0.000000 2.086670 
# 
# From -- ./inp_files/315098.got.cif
#   From: 2010.05.17/outbox.cif.g08.bks.cpg/sg15_158_cif.got.tgz:315098.got - 2010.06.03 18:47:42.
