data_PCOD9290640
_publ_section_title
;
Structure prediction by ZEFSAII (Michael W. Deem and Ramdas Pophale) SiO2 
 PCOD9290640
Probable space group: C 2/C
;
_chemical_formula_sum "Si O2"
_cell_formula_units_Z 52
_cell_length_a 13.183720
_cell_length_b 13.643078
_cell_length_c 17.728487
_cell_angle_alpha 90.000000
_cell_angle_beta 138.017860
_cell_angle_gamma 90.000000
_cell_volume 2132.958980
_symmetry_space_group_name_H-M "C 2/C"
_symmetry_group_IT_number 15
_symmetry_cell_setting 'monoclinic'
loop_
_space_group_symop_operation_xyz
x,y,z
-x,y,1/2-z
-x,-y,-z
x,-y,1/2+z
1/2+x,1/2+y,z
1/2-x,1/2+y,1/2-z
1/2-x,1/2-y,-z
1/2+x,1/2-y,1/2+z
loop_
_atom_site_type_symbol
_atom_site_label
_atom_site_fract_x
_atom_site_fract_y
_atom_site_fract_z
Si Si1 0.688662 0.655838 0.764816
Si Si2 0.500000 0.513324 0.750000
Si Si3 0.276861 0.901769 0.980133
Si Si4 0.900159 0.496987 0.856712
Si Si5 0.384798 0.777074 0.913289
Si Si6 0.182850 0.512443 0.852054
Si Si7 0.281095 0.703138 0.436230
O O1 0.550176 0.583516 0.708325
O O2 0.830462 0.586905 0.865695
O O3 0.710008 0.707269 0.695609
O O4 0.675982 0.744936 0.816190
O O5 0.364180 0.446599 0.643409
O O6 0.425161 0.972825 0.056593
O O7 0.250338 0.905280 0.055643
O O8 0.326177 0.802867 0.964568
O O9 0.887324 0.386509 0.877738
O O10 0.791850 0.507381 0.723375
O O11 0.549201 0.727119 0.997622
O O12 0.243304 0.410472 0.917450
O O13 0.000000 0.518874 0.750000
O O14 0.250000 0.750000 0.500000
#
# Coordination Sequence:
#
# PCOD9290640 Si02
#       7
#     8   4   8   8   8   8   8
#     4  12  24  40  68 103 139 177 232 289 346 418
#     4  12  24  40  68 108 142 174 238 294 356 402
#     4  11  23  43  70  98 140 191 226 288 353 425
#     4  11  22  45  68  99 139 187 227 287 356 425
#     4  12  23  41  67 100 142 181 231 285 361 420
#     4  10  22  41  68 103 142 179 233 283 350 415
#     4  12  23  37  64 107 139 169 226 292 350 411
#
# _framework density 24.379276999999998
#
# number of rings (size 3 to 8) (size 9 to 14) (size 15 to 20)
#    0.000    0.615    4.615    6.000    1.077    0.000 
#    0.000    5.385    5.077    0.000    0.000    0.000 
#    0.000    0.000    0.000    0.000    0.000    0.000 
#
# Total GULP energy -145265.863374 kJ/mol
# GULP energy per Si atom -5587.148591 kJ/mol
# Density = 2.432379 g / cm^3
# Si number density = 24.379277 Si / 1000 Ang^3
#
#
#
# Elastic Constant Matrix: (Units=GPa)
#
#
# Indices 1 2 3 4 5 6 
#
# 1 56.3060 23.8536 38.3366 0.0000 -13.0231 0.0000
# 2 23.8536 137.0984 53.8037 0.0000 1.6833 0.0000
# 3 38.3366 53.8037 136.9307 0.0000 -20.6713 0.0000
# 4 0.0000 0.0000 0.0000 29.1711 0.0000 -4.4670
# 5 -13.0231 1.6833 -20.6713 0.0000 47.7085 0.0000
# 6 0.0000 0.0000 0.0000 -4.4670 0.0000 42.8633
#
#
#
# Elastic Compliance Matrix: (Units=1/GPa)
#
#
# Indices 1 2 3 4 5 6 
#
# 1 0.023014 -0.002099 -0.004985 0.000000 0.004196 0.000000
# 2 -0.002099 0.008979 -0.003290 0.000000 -0.002315 0.000000
# 3 -0.004985 -0.003290 0.010489 0.000000 0.003300 0.000000
# 4 0.000000 0.000000 0.000000 0.034836 0.000000 0.003630
# 5 0.004196 -0.002315 0.003300 0.000000 0.023618 0.000000
# 6 0.000000 0.000000 0.000000 0.003630 0.000000 0.023708
#
#
# Mechanical properties :
#
#
# Convention : Reuss Voigt Hill
#
# Bulk Modulus (GPa) = 46.01036 62.48030 54.24533
# Shear Modulus (GPa) = 32.75734 38.23800 35.49767
#
# Velocity S-wave (km/s) = 3.66957 3.96468 3.81997
# Velocity P-wave (km/s) = 6.07190 6.82952 6.46182
#
# Compressibility (1/GPa) = 0.02173423
#
# Stress axis : x y z
#
# Youngs Moduli (GPa) = 43.45166 111.37373 95.33423
#
# Poissons Ratio (x) = 0.23382 0.47523
# Poissons Ratio (y) = 0.09122 0.31362
# Poissons Ratio (z) = 0.21660 0.36639
#
# Static dielectric constant tensor:
#      x y z
#    x 2.147490 0.000000 -0.095230 
#    y 0.000000 1.874950 0.000000 
#    z -0.095230 0.000000 2.014480 
# 
# From -- ./inp_files/205764.got.cif
#   From: 2010.05.17/outbox.cif.g08.bks.cpg/sg15_103_cif.got.tgz:205764.got - 2010.06.03 18:47:42.
