data_PCOD9290482
_publ_section_title
;
Structure prediction by ZEFSAII (Michael W. Deem and Ramdas Pophale) SiO2 
 PCOD9290482
Probable space group: C 2/C
;
_chemical_formula_sum "Si O2"
_cell_formula_units_Z 56
_cell_length_a 24.173980
_cell_length_b 6.835565
_cell_length_c 20.236618
_cell_angle_alpha 90.000000
_cell_angle_beta 132.221860
_cell_angle_gamma 90.000000
_cell_volume 2476.360547
_symmetry_space_group_name_H-M "C 2/C"
_symmetry_group_IT_number 15
_symmetry_cell_setting 'monoclinic'
loop_
_space_group_symop_operation_xyz
x,y,z
-x,y,1/2-z
-x,-y,-z
x,-y,1/2+z
1/2+x,1/2+y,z
1/2-x,1/2+y,1/2-z
1/2-x,1/2-y,-z
1/2+x,1/2-y,1/2+z
loop_
_atom_site_type_symbol
_atom_site_label
_atom_site_fract_x
_atom_site_fract_y
_atom_site_fract_z
Si Si1 0.925422 0.918365 0.542508
Si Si2 0.601180 0.607780 0.202926
Si Si3 0.088327 0.929448 0.330291
Si Si4 0.327488 0.909315 0.918209
Si Si5 0.797855 0.588369 0.677122
Si Si6 0.823526 0.170620 0.368774
Si Si7 0.314045 0.087045 0.052258
O O1 0.900887 0.724489 0.483702
O O2 0.014650 0.930978 0.617279
O O3 0.895799 0.928344 0.594617
O O4 0.881855 0.093913 0.471088
O O5 0.622205 0.493706 0.287165
O O6 0.621503 0.834394 0.235982
O O7 0.648944 0.567937 0.176003
O O8 0.113146 0.712912 0.370390
O O9 0.000000 0.937087 0.250000
O O10 0.260638 0.758841 0.850669
O O11 0.328938 0.095102 0.871540
O O12 0.316736 0.993830 0.983034
O O13 0.759471 0.396745 0.677203
O O14 0.798293 0.560282 0.599005
O O15 0.250000 0.250000 0.000000
#
# Coordination Sequence:
#
# PCOD9290482 Si02
#       7
#     8   8   8   8   8   8   8
#     4  10  22  47  68  93 125 174 220 269 320 391
#     4  11  25  42  66  96 135 167 214 274 331 384
#     4  10  22  41  66  94 130 169 214 274 330 378
#     4  11  22  41  68  91 129 167 219 265 317 388
#     4  11  25  39  63  99 131 168 213 272 322 381
#     4  11  24  44  65  94 132 175 216 262 327 395
#     4  12  20  39  67  95 125 171 218 259 321 387
#
# _framework density 22.613831999999999
#
# number of rings (size 3 to 8) (size 9 to 14) (size 15 to 20)
#    0.000    1.143    2.857    3.429    2.000    1.714 
#    2.571    0.000    0.000    0.000    0.000    0.000 
#    0.000    0.000    0.000    0.000    0.000    0.000 
#
# Total GULP energy -156516.111730 kJ/mol
# GULP energy per Si atom -5589.861133 kJ/mol
# Density = 2.256236 g / cm^3
# Si number density = 22.613832 Si / 1000 Ang^3
#
#
#
# Elastic Constant Matrix: (Units=GPa)
#
#
# Indices 1 2 3 4 5 6 
#
# 1 62.6587 -5.3814 6.3318 -0.0001 -27.8190 0.0000
# 2 -5.3814 78.0323 9.7099 -0.0005 3.9742 -0.0003
# 3 6.3318 9.7099 75.3709 0.0000 -5.0352 0.0000
# 4 -0.0001 -0.0005 0.0000 35.6519 0.0000 -6.9153
# 5 -27.8190 3.9742 -5.0352 0.0000 31.6849 0.0000
# 6 0.0000 -0.0003 0.0000 -6.9153 0.0000 24.3475
#
#
#
# Elastic Compliance Matrix: (Units=1/GPa)
#
#
# Indices 1 2 3 4 5 6 
#
# 1 0.026230 0.000744 -0.000775 0.000000 0.022813 0.000000
# 2 0.000744 0.013162 -0.001844 0.000000 -0.001291 0.000000
# 3 -0.000775 -0.001844 0.013686 0.000000 0.001726 0.000000
# 4 0.000000 0.000000 0.000000 0.029684 0.000000 0.008431
# 5 0.022813 -0.001291 0.001726 0.000000 0.052027 0.000000
# 6 0.000000 0.000000 0.000000 0.008431 0.000000 0.043467
#
#
# Mechanical properties :
#
#
# Convention : Reuss Voigt Hill
#
# Bulk Modulus (GPa) = 20.27344 26.37583 23.32463
# Shear Modulus (GPa) = 25.19530 32.03031 28.61280
#
# Velocity S-wave (km/s) = 3.34152 3.76760 3.56093
# Velocity P-wave (km/s) = 4.88591 5.53311 5.21955
#
# Compressibility (1/GPa) = 0.04932562
#
# Stress axis : x y z
#
# Youngs Moduli (GPa) = 38.12378 75.97778 73.06881
#
# Poissons Ratio (x) = -0.05649 0.05665
# Poissons Ratio (y) = -0.02835 0.13476
# Poissons Ratio (z) = 0.02956 0.14013
#
# Static dielectric constant tensor:
#      x y z
#    x 1.838330 0.000000 -0.002350 
#    y 0.000000 1.885610 0.000000 
#    z -0.002350 0.000000 1.898130 
# 
# From -- ./inp_files/283028.got.cif
#   From: 2010.05.17/outbox.cif.g08.bks.cpg/sg15_142_cif.got.tgz:283028.got - 2010.06.03 18:47:42.
