data_PCOD9290033
_publ_section_title
;
Structure prediction by ZEFSAII (Michael W. Deem and Ramdas Pophale) SiO2 
 PCOD9290033
Probable space group: C 2/C
;
_chemical_formula_sum "Si O2"
_cell_formula_units_Z 60
_cell_length_a 22.457525
_cell_length_b 8.267089
_cell_length_c 17.487616
_cell_angle_alpha 90.000000
_cell_angle_beta 127.305437
_cell_angle_gamma 90.000000
_cell_volume 2582.494594
_symmetry_space_group_name_H-M "C 2/C"
_symmetry_group_IT_number 15
_symmetry_cell_setting 'monoclinic'
loop_
_space_group_symop_operation_xyz
x,y,z
-x,y,1/2-z
-x,-y,-z
x,-y,1/2+z
1/2+x,1/2+y,z
1/2-x,1/2+y,1/2-z
1/2-x,1/2-y,-z
1/2+x,1/2-y,1/2+z
loop_
_atom_site_type_symbol
_atom_site_label
_atom_site_fract_x
_atom_site_fract_y
_atom_site_fract_z
Si Si1 0.546170 0.215943 0.115478
Si Si2 0.233290 0.177237 0.172032
Si Si3 0.723150 0.572336 0.001812
Si Si4 0.000000 0.643086 0.250000
Si Si5 0.374399 0.920302 0.075188
Si Si6 0.412052 0.422695 0.676321
Si Si7 0.598640 0.070701 0.566762
Si Si8 0.157415 0.039596 0.727011
O O1 0.589821 0.379304 0.126442
O O2 0.524517 0.227539 0.188818
O O3 0.591413 0.048501 0.133445
O O4 0.474235 0.179773 0.007042
O O5 0.226091 0.060079 0.094656
O O6 0.165559 0.304064 0.121727
O O7 0.304144 0.293156 0.215891
O O8 0.220829 0.064932 0.235237
O O9 0.785986 0.454210 0.016581
O O10 0.750000 0.750000 0.000000
O O11 0.638688 0.551736 0.907892
O O12 0.927710 0.538227 0.166980
O O13 0.395387 0.743392 0.119907
O O14 0.392774 0.957311 0.001346
O O15 0.500000 0.449604 0.750000
O O16 0.377578 0.430755 0.734164
#
# Coordination Sequence:
#
# PCOD9290033 Si02
#       8
#     8   8   8   4   8   8   8   8
#     4  10  24  42  69 100 137 187 232 292 364 431
#     4  12  27  46  70 105 143 193 243 301 371 439
#     4  12  25  48  74 103 142 199 249 302 367 447
#     4  10  22  40  76 102 140 192 240 300 364 440
#     4  11  23  45  73 103 145 191 245 298 367 444
#     4  12  29  46  73 111 149 190 255 312 368 440
#     4  10  23  44  70 100 140 183 241 288 365 445
#     4  12  28  44  71 104 149 188 242 309 364 435
#
# _framework density 23.233350999999999
#
# number of rings (size 3 to 8) (size 9 to 14) (size 15 to 20)
#    0.000    0.800    3.333    2.000    8.400    1.600 
#    0.000    0.000    0.000    0.000    0.000    0.000 
#    0.000    0.000    0.000    0.000    0.000    0.000 
#
# Total GULP energy -167744.327384 kJ/mol
# GULP energy per Si atom -5591.477579 kJ/mol
# Density = 2.318047 g / cm^3
# Si number density = 23.233351 Si / 1000 Ang^3
#
#
#
# Elastic Constant Matrix: (Units=GPa)
#
#
# Indices 1 2 3 4 5 6 
#
# 1 96.3027 13.2602 26.1635 0.0000 12.0107 0.0000
# 2 13.2602 77.9818 18.5711 0.0000 13.7716 0.0000
# 3 26.1635 18.5711 57.0160 0.0000 11.3625 0.0000
# 4 0.0000 0.0000 0.0000 34.2921 0.0000 3.6456
# 5 12.0107 13.7716 11.3625 0.0000 42.4853 0.0000
# 6 0.0000 0.0000 0.0000 3.6456 0.0000 27.2574
#
#
#
# Elastic Compliance Matrix: (Units=1/GPa)
#
#
# Indices 1 2 3 4 5 6 
#
# 1 0.012046 -0.000527 -0.004977 0.000000 -0.001904 0.000000
# 2 -0.000527 0.014430 -0.003756 0.000000 -0.003524 0.000000
# 3 -0.004977 -0.003756 0.021678 0.000000 -0.003173 0.000000
# 4 0.000000 0.000000 0.000000 0.029582 0.000000 -0.003956
# 5 -0.001904 -0.003524 -0.003173 0.000000 0.026067 0.000000
# 6 0.000000 0.000000 0.000000 -0.003956 0.000000 0.037216
#
#
# Mechanical properties :
#
#
# Convention : Reuss Voigt Hill
#
# Bulk Modulus (GPa) = 33.74377 38.58779 36.16578
# Shear Modulus (GPa) = 29.51302 32.36068 30.93685
#
# Velocity S-wave (km/s) = 3.56797 3.73615 3.65303
# Velocity P-wave (km/s) = 5.61510 5.93772 5.77866
#
# Compressibility (1/GPa) = 0.02963510
#
# Stress axis : x y z
#
# Youngs Moduli (GPa) = 83.01541 69.30051 46.12888
#
# Poissons Ratio (x) = 0.03652 0.22957
# Poissons Ratio (y) = 0.04375 0.17326
# Poissons Ratio (z) = 0.41314 0.26029
#
# Static dielectric constant tensor:
#      x y z
#    x 1.897940 0.000000 0.026050 
#    y 0.000000 1.861660 0.000000 
#    z 0.026050 0.000000 1.917790 
# 
# From -- ./inp_files/214322.got.cif
#   From: 2010.05.17/outbox.cif.g08.bks.cpg/sg15_108_cif.got.tgz:214322.got - 2010.06.03 18:47:42.
