data_PCOD9290895
_publ_section_title
;
Structure prediction by ZEFSAII (Michael W. Deem and Ramdas Pophale) SiO2 
 PCOD9290895
Probable space group: C 2/C
;
_chemical_formula_sum "Si O2"
_cell_formula_units_Z 32
_cell_length_a 6.680208
_cell_length_b 14.533125
_cell_length_c 13.524084
_cell_angle_alpha 90.000000
_cell_angle_beta 103.957871
_cell_angle_gamma 90.000000
_cell_volume 1274.208407
_symmetry_space_group_name_H-M "C 2/C"
_symmetry_group_IT_number 15
_symmetry_cell_setting 'monoclinic'
loop_
_space_group_symop_operation_xyz
x,y,z
-x,y,1/2-z
-x,-y,-z
x,-y,1/2+z
1/2+x,1/2+y,z
1/2-x,1/2+y,1/2-z
1/2-x,1/2-y,-z
1/2+x,1/2-y,1/2+z
loop_
_atom_site_type_symbol
_atom_site_label
_atom_site_fract_x
_atom_site_fract_y
_atom_site_fract_z
Si Si1 0.730099 0.646661 0.543640
Si Si2 0.000000 0.174673 0.250000
Si Si3 0.698119 0.327021 0.573372
Si Si4 0.500000 0.098087 0.750000
Si Si5 0.387047 0.059850 0.378185
O O1 0.750000 0.750000 0.500000
O O2 0.491491 0.620057 0.501525
O O3 0.855824 0.573793 0.492014
O O4 0.821200 0.647395 0.664617
O O5 0.888534 0.215584 0.334605
O O6 0.813621 0.114383 0.184370
O O7 0.750000 0.250000 0.500000
O O8 0.898161 0.387788 0.619389
O O9 0.611974 0.033941 0.682504
#
# Coordination Sequence:
#
# PCOD9290895 Si02
#       5
#     8   4   8   4   8
#     4  11  26  48  77 112 155 198 263 319 379 471
#     4  10  22  41  76 107 154 202 252 310 387 446
#     4  11  22  45  74 110 153 199 254 318 385 457
#     4  12  26  51  76 109 156 210 248 324 397 444
#     4  11  23  49  74 109 150 200 257 315 381 464
#
# _framework density 25.113630000000001
#
# number of rings (size 3 to 8) (size 9 to 14) (size 15 to 20)
#    0.000    1.000    5.000    0.750    0.000    5.000 
#    9.000    0.000    0.000    0.000    0.000    0.000 
#    0.000    0.000    0.000    0.000    0.000    0.000 
#
# Total GULP energy -89444.729108 kJ/mol
# GULP energy per Si atom -5590.295569 kJ/mol
# Density = 2.505647 g / cm^3
# Si number density = 25.113630 Si / 1000 Ang^3
#
#
#
# Elastic Constant Matrix: (Units=GPa)
#
#
# Indices 1 2 3 4 5 6 
#
# 1 157.1856 27.0650 69.3531 0.0000 15.9630 0.0000
# 2 27.0650 85.8223 48.4734 0.0000 4.9812 0.0000
# 3 69.3531 48.4734 243.1738 0.0000 3.5516 0.0000
# 4 0.0000 0.0000 0.0000 50.7257 0.0000 -8.0518
# 5 15.9630 4.9812 3.5516 0.0000 57.0117 0.0000
# 6 0.0000 0.0000 0.0000 -8.0518 0.0000 22.7403
#
#
#
# Elastic Compliance Matrix: (Units=1/GPa)
#
#
# Indices 1 2 3 4 5 6 
#
# 1 0.007602 -0.001215 -0.001898 0.000000 -0.001904 0.000000
# 2 -0.001215 0.013380 -0.002311 0.000000 -0.000685 0.000000
# 3 -0.001898 -0.002311 0.005108 0.000000 0.000415 0.000000
# 4 0.000000 0.000000 0.000000 0.020888 0.000000 0.007396
# 5 -0.001904 -0.000685 0.000415 0.000000 0.018107 0.000000
# 6 0.000000 0.000000 0.000000 0.007396 0.000000 0.046593
#
#
# Mechanical properties :
#
#
# Convention : Reuss Voigt Hill
#
# Bulk Modulus (GPa) = 65.60411 86.21829 75.91120
# Shear Modulus (GPa) = 39.18290 48.84822 44.01556
#
# Velocity S-wave (km/s) = 3.95425 4.41510 4.19102
# Velocity P-wave (km/s) = 6.85768 7.77153 7.32886
#
# Compressibility (1/GPa) = 0.01524295
#
# Stress axis : x y z
#
# Youngs Moduli (GPa) = 131.54567 74.73898 195.76523
#
# Poissons Ratio (x) = 0.09079 0.37158
# Poissons Ratio (y) = 0.15980 0.45234
# Poissons Ratio (z) = 0.24969 0.17270
#
# Static dielectric constant tensor:
#      x y z
#    x 1.985020 0.000000 0.036100 
#    y 0.000000 2.239150 0.000000 
#    z 0.036100 0.000000 2.109910 
# 
# From -- ./inp_files/128214.got.cif
#   From: 2010.05.17/outbox.cif.g08.bks.cpg/sg15_65_cif.got.tgz:128214.got - 2010.06.03 18:47:42.
