data_PCOD9290137
_publ_section_title
;
Structure prediction by ZEFSAII (Michael W. Deem and Ramdas Pophale) SiO2 
 PCOD9290137
Probable space group: C 2/C
;
_chemical_formula_sum "Si O2"
_cell_formula_units_Z 48
_cell_length_a 25.666430
_cell_length_b 11.351472
_cell_length_c 8.620117
_cell_angle_alpha 90.000000
_cell_angle_beta 121.394769
_cell_angle_gamma 90.000000
_cell_volume 2143.800565
_symmetry_space_group_name_H-M "C 2/C"
_symmetry_group_IT_number 15
_symmetry_cell_setting 'monoclinic'
loop_
_space_group_symop_operation_xyz
x,y,z
-x,y,1/2-z
-x,-y,-z
x,-y,1/2+z
1/2+x,1/2+y,z
1/2-x,1/2+y,1/2-z
1/2-x,1/2-y,-z
1/2+x,1/2-y,1/2+z
loop_
_atom_site_type_symbol
_atom_site_label
_atom_site_fract_x
_atom_site_fract_y
_atom_site_fract_z
Si Si1 0.602390 0.977823 0.128343
Si Si2 0.185853 0.136279 0.795450
Si Si3 0.380266 0.541577 0.102553
Si Si4 0.540527 0.394039 0.499802
Si Si5 0.674437 0.877232 0.961552
Si Si6 0.506491 0.820454 0.428961
O O1 0.659897 0.016614 0.320512
O O2 0.551341 0.906418 0.142354
O O3 0.566371 0.098189 0.028070
O O4 0.625434 0.899427 0.020929
O O5 0.144012 0.115239 0.580432
O O6 0.169693 0.257422 0.856138
O O7 0.257197 0.127730 0.866052
O O8 0.172368 0.033593 0.897817
O O9 0.427196 0.444347 0.103349
O O10 0.408497 0.618029 0.285467
O O11 0.500000 0.500000 0.500000
O O12 0.500673 0.276026 0.447269
O O13 0.500000 0.761445 0.250000
#
# Coordination Sequence:
#
# PCOD9290137 Si02
#       6
#     8   8   8   8   8   8
#     4  11  24  41  64  90 131 170 210 268 317 395
#     4  10  23  41  66  94 128 169 224 270 327 385
#     4  10  22  41  62  94 128 168 206 276 318 382
#     4  11  23  39  63  95 129 169 212 261 323 387
#     4  11  23  42  65  94 126 175 219 273 324 384
#     4  11  23  40  60  93 126 169 211 256 328 387
#
# _framework density 22.390143999999999
#
# number of rings (size 3 to 8) (size 9 to 14) (size 15 to 20)
#    0.000    1.333    1.667    3.500    7.000    0.000 
#    3.000    0.000    0.000   11.000    0.000    0.000 
#    0.000    0.000    0.000    0.000    0.000    0.000 
#
# Total GULP energy -134137.228876 kJ/mol
# GULP energy per Si atom -5589.051203 kJ/mol
# Density = 2.233918 g / cm^3
# Si number density = 22.390144 Si / 1000 Ang^3
#
#
#
# Elastic Constant Matrix: (Units=GPa)
#
#
# Indices 1 2 3 4 5 6 
#
# 1 93.3233 11.7691 17.4048 0.0000 3.3708 0.0000
# 2 11.7691 45.4035 7.0166 0.0000 13.7497 0.0000
# 3 17.4048 7.0166 86.3237 0.0000 -6.6001 0.0000
# 4 0.0000 0.0000 0.0000 29.1571 0.0000 -2.2674
# 5 3.3708 13.7497 -6.6001 0.0000 28.4548 0.0000
# 6 0.0000 0.0000 0.0000 -2.2674 0.0000 33.3804
#
#
#
# Elastic Compliance Matrix: (Units=1/GPa)
#
#
# Indices 1 2 3 4 5 6 
#
# 1 0.011450 -0.002426 -0.002164 0.000000 -0.000686 0.000000
# 2 -0.002426 0.027158 -0.002749 0.000000 -0.013473 0.000000
# 3 -0.002164 -0.002749 0.012588 0.000000 0.004504 0.000000
# 4 0.000000 0.000000 0.000000 0.034479 0.000000 0.002342
# 5 -0.000686 -0.013473 0.004504 0.000000 0.042780 0.000000
# 6 0.000000 0.000000 0.000000 0.002342 0.000000 0.030117
#
#
# Mechanical properties :
#
#
# Convention : Reuss Voigt Hill
#
# Bulk Modulus (GPa) = 27.38203 33.04795 30.21499
# Shear Modulus (GPa) = 26.96552 30.78912 28.87732
#
# Velocity S-wave (km/s) = 3.47414 3.71228 3.59518
# Velocity P-wave (km/s) = 5.32437 5.75906 5.54598
#
# Compressibility (1/GPa) = 0.03652030
#
# Stress axis : x y z
#
# Youngs Moduli (GPa) = 87.33866 36.82098 79.43837
#
# Poissons Ratio (x) = 0.08932 0.17189
# Poissons Ratio (y) = 0.21186 0.21834
# Poissons Ratio (z) = 0.18898 0.10120
#
# Static dielectric constant tensor:
#      x y z
#    x 1.798320 0.000000 0.017100 
#    y 0.000000 1.817850 0.000000 
#    z 0.017100 0.000000 1.879360 
# 
# From -- ./inp_files/65247.got.cif
#   From: 2010.05.17/outbox.cif.g08.bks.cpg/sg15_33_cif.got.tgz:65247.got - 2010.06.03 18:47:42.
