data_PCOD9290854
_publ_section_title
;
Structure prediction by ZEFSAII (Michael W. Deem and Ramdas Pophale) SiO2 
 PCOD9290854
Probable space group: C 2/C
;
_chemical_formula_sum "Si O2"
_cell_formula_units_Z 40
_cell_length_a 14.583290
_cell_length_b 18.188123
_cell_length_c 10.657460
_cell_angle_alpha 90.000000
_cell_angle_beta 141.580616
_cell_angle_gamma 90.000000
_cell_volume 1756.618112
_symmetry_space_group_name_H-M "C 2/C"
_symmetry_group_IT_number 15
_symmetry_cell_setting 'monoclinic'
loop_
_space_group_symop_operation_xyz
x,y,z
-x,y,1/2-z
-x,-y,-z
x,-y,1/2+z
1/2+x,1/2+y,z
1/2-x,1/2+y,1/2-z
1/2-x,1/2-y,-z
1/2+x,1/2-y,1/2+z
loop_
_atom_site_type_symbol
_atom_site_label
_atom_site_fract_x
_atom_site_fract_y
_atom_site_fract_z
Si Si1 0.826653 0.104143 0.850785
Si Si2 0.849057 0.698746 0.017550
Si Si3 0.150511 0.161793 0.139802
Si Si4 0.335536 0.467881 0.016547
Si Si5 0.675268 0.896993 0.442035
O O1 0.736246 0.130125 0.633412
O O2 0.749740 0.134657 0.894934
O O3 0.991876 0.132074 0.012940
O O4 0.833031 0.017757 0.887168
O O5 0.875066 0.754946 0.929623
O O6 0.750000 0.750000 0.000000
O O7 0.000000 0.680262 0.250000
O O8 0.263635 0.145713 0.372391
O O9 0.200529 0.112723 0.073062
O O10 0.500000 0.467190 0.250000
O O11 0.231726 0.517771 0.994044
O O12 0.500000 0.894743 0.250000
#
# Coordination Sequence:
#
# PCOD9290854 Si02
#       5
#     8   8   8   8   8
#     4  10  23  45  68  95 137 177 230 269 330 410
#     4  12  27  44  67 105 137 181 226 277 347 399
#     4  12  23  44  74  98 137 179 230 275 333 414
#     4  10  22  41  72 103 129 177 229 276 328 410
#     4  10  24  41  66 106 136 174 220 278 351 387
#
# _framework density 22.771025999999999
#
# number of rings (size 3 to 8) (size 9 to 14) (size 15 to 20)
#    1.200    0.000    4.000    1.800    2.800    1.600 
#    0.000    3.000    0.000    0.000    0.000    0.000 
#    0.000    0.000    0.000    0.000    0.000    0.000 
#
# Total GULP energy -111753.288438 kJ/mol
# GULP energy per Si atom -5587.664422 kJ/mol
# Density = 2.271920 g / cm^3
# Si number density = 22.771026 Si / 1000 Ang^3
#
#
#
# Elastic Constant Matrix: (Units=GPa)
#
#
# Indices 1 2 3 4 5 6 
#
# 1 70.0343 -0.4283 43.1542 0.0000 -7.8130 0.0000
# 2 -0.4283 83.2693 39.1457 0.0000 -12.2725 0.0000
# 3 43.1542 39.1457 214.7710 0.0000 -4.0993 0.0000
# 4 0.0000 0.0000 0.0000 29.4934 0.0000 -17.1945
# 5 -7.8130 -12.2725 -4.0993 0.0000 43.4413 0.0000
# 6 0.0000 0.0000 0.0000 -17.1945 0.0000 15.6366
#
#
#
# Elastic Compliance Matrix: (Units=1/GPa)
#
#
# Indices 1 2 3 4 5 6 
#
# 1 0.016999 0.002362 -0.003782 0.000000 0.003368 0.000000
# 2 0.002362 0.014013 -0.002950 0.000000 0.004105 0.000000
# 3 -0.003782 -0.002950 0.005936 0.000000 -0.000954 0.000000
# 4 0.000000 0.000000 0.000000 0.094467 0.000000 0.103880
# 5 0.003368 0.004105 -0.000954 0.000000 0.024695 0.000000
# 6 0.000000 0.000000 0.000000 0.103880 0.000000 0.178183
#
#
# Mechanical properties :
#
#
# Convention : Reuss Voigt Hill
#
# Bulk Modulus (GPa) = 35.45214 59.09088 47.27151
# Shear Modulus (GPa) = 14.18694 36.79446 25.49070
#
# Velocity S-wave (km/s) = 2.49876 4.02412 3.34943
# Velocity P-wave (km/s) = 4.89161 6.89911 5.98020
#
# Compressibility (1/GPa) = 0.02820704
#
# Stress axis : x y z
#
# Youngs Moduli (GPa) = 58.82640 71.36027 168.47595
#
# Poissons Ratio (x) = -0.16853 0.63715
# Poissons Ratio (y) = -0.13893 0.49706
# Poissons Ratio (z) = 0.22247 0.21054
#
# Static dielectric constant tensor:
#      x y z
#    x 1.926040 0.000000 -0.055020 
#    y 0.000000 1.881140 0.000000 
#    z -0.055020 0.000000 1.776800 
# 
# From -- ./inp_files/106896.got.cif
#   From: 2010.05.17/outbox.cif.g08.bks.cpg/sg15_54_cif.got.tgz:106896.got - 2010.06.03 18:47:42.
