data_PCOD9290485
_publ_section_title
;
Structure prediction by ZEFSAII (Michael W. Deem and Ramdas Pophale) SiO2 
 PCOD9290485
Probable space group: C 2/C
;
_chemical_formula_sum "Si O2"
_cell_formula_units_Z 36
_cell_length_a 5.132001
_cell_length_b 14.044083
_cell_length_c 22.708939
_cell_angle_alpha 90.000000
_cell_angle_beta 63.372098
_cell_angle_gamma 90.000000
_cell_volume 1463.131734
_symmetry_space_group_name_H-M "C 2/C"
_symmetry_group_IT_number 15
_symmetry_cell_setting 'monoclinic'
loop_
_space_group_symop_operation_xyz
x,y,z
-x,y,1/2-z
-x,-y,-z
x,-y,1/2+z
1/2+x,1/2+y,z
1/2-x,1/2+y,1/2-z
1/2-x,1/2-y,-z
1/2+x,1/2-y,1/2+z
loop_
_atom_site_type_symbol
_atom_site_label
_atom_site_fract_x
_atom_site_fract_y
_atom_site_fract_z
Si Si1 0.500000 0.361809 0.250000
Si Si2 0.443109 0.322690 0.391566
Si Si3 0.700762 0.909920 0.039848
Si Si4 0.710134 0.881413 0.565934
Si Si5 0.824247 0.551277 0.212128
O O1 0.517323 0.313928 0.313548
O O2 0.766092 0.437667 0.218371
O O3 0.654475 0.387606 0.410199
O O4 0.428725 0.222039 0.426986
O O5 0.116494 0.364253 0.427793
O O6 0.683726 0.023193 0.029911
O O7 0.938590 0.869141 0.969120
O O8 0.525090 0.918227 0.639344
O O9 0.500000 0.593404 0.250000
O O10 0.000000 0.582205 0.250000
#
# Coordination Sequence:
#
# PCOD9290485 Si02
#       5
#     4   8   8   8   8
#     4  10  24  44  66  96 142 176 224 290 330 402
#     4  12  26  45  70 102 138 182 228 281 345 406
#     4  11  26  47  70 103 143 173 229 293 332 406
#     4  11  25  45  75 101 135 187 227 278 352 405
#     4  10  22  41  66  94 138 176 223 283 335 399
#
# _framework density 24.604759000000001
#
# number of rings (size 3 to 8) (size 9 to 14) (size 15 to 20)
#    0.667    0.444    2.222    2.667    1.556    8.889 
#    0.000    0.000    0.000    0.000    0.000    0.000 
#    0.000    0.000    0.000    0.000    0.000    0.000 
#
# Total GULP energy -100381.843467 kJ/mol
# GULP energy per Si atom -5576.769082 kJ/mol
# Density = 2.454876 g / cm^3
# Si number density = 24.604759 Si / 1000 Ang^3
#
#
#
# Elastic Constant Matrix: (Units=GPa)
#
#
# Indices 1 2 3 4 5 6 
#
# 1 167.6058 30.7657 61.7325 0.0000 -2.3830 0.0000
# 2 30.7657 121.7819 32.4414 0.0000 7.2311 0.0000
# 3 61.7325 32.4414 189.5380 0.0000 -11.0695 0.0000
# 4 0.0000 0.0000 0.0000 36.9281 0.0000 -8.6814
# 5 -2.3830 7.2311 -11.0695 0.0000 34.9798 0.0000
# 6 0.0000 0.0000 0.0000 -8.6814 0.0000 10.3311
#
#
#
# Elastic Compliance Matrix: (Units=1/GPa)
#
#
# Indices 1 2 3 4 5 6 
#
# 1 0.006945 -0.001213 -0.002050 0.000000 0.000075 0.000000
# 2 -0.001213 0.008999 -0.001282 0.000000 -0.002349 0.000000
# 3 -0.002050 -0.001282 0.006287 0.000000 0.002115 0.000000
# 4 0.000000 0.000000 0.000000 0.033746 0.000000 0.028357
# 5 0.000075 -0.002349 0.002115 0.000000 0.029748 0.000000
# 6 0.000000 0.000000 0.000000 0.028357 0.000000 0.120624
#
#
# Mechanical properties :
#
#
# Convention : Reuss Voigt Hill
#
# Bulk Modulus (GPa) = 76.10304 80.97832 78.54068
# Shear Modulus (GPa) = 22.74594 40.04688 31.39641
#
# Velocity S-wave (km/s) = 3.04378 4.03874 3.57603
# Velocity P-wave (km/s) = 6.58408 7.39808 7.00292
#
# Compressibility (1/GPa) = 0.01314008
#
# Stress axis : x y z
#
# Youngs Moduli (GPa) = 143.98515 111.12480 159.06613
#
# Poissons Ratio (x) = 0.13478 0.32609
# Poissons Ratio (y) = 0.17464 0.20398
# Poissons Ratio (z) = 0.29518 0.14250
#
# Static dielectric constant tensor:
#      x y z
#    x 1.995290 0.000000 0.005480 
#    y 0.000000 1.970880 0.000000 
#    z 0.005480 0.000000 1.948880 
# 
# From -- ./inp_files/285307.got.cif
#   From: 2010.05.17/outbox.cif.g08.bks.cpg/sg15_143_cif.got.tgz:285307.got - 2010.06.03 18:47:42.
