data_PCOD9290617
_publ_section_title
;
Structure prediction by ZEFSAII (Michael W. Deem and Ramdas Pophale) SiO2 
 PCOD9290617
Probable space group: C 2/C
;
_chemical_formula_sum "Si O2"
_cell_formula_units_Z 60
_cell_length_a 27.129885
_cell_length_b 8.495873
_cell_length_c 22.624383
_cell_angle_alpha 90.000000
_cell_angle_beta 28.662527
_cell_angle_gamma 90.000000
_cell_volume 2501.248848
_symmetry_space_group_name_H-M "C 2/C"
_symmetry_group_IT_number 15
_symmetry_cell_setting 'monoclinic'
loop_
_space_group_symop_operation_xyz
x,y,z
-x,y,1/2-z
-x,-y,-z
x,-y,1/2+z
1/2+x,1/2+y,z
1/2-x,1/2+y,1/2-z
1/2-x,1/2-y,-z
1/2+x,1/2-y,1/2+z
loop_
_atom_site_type_symbol
_atom_site_label
_atom_site_fract_x
_atom_site_fract_y
_atom_site_fract_z
Si Si1 0.775573 0.659985 0.634555
Si Si2 0.965919 0.722112 0.980191
Si Si3 0.628120 0.530833 0.471104
Si Si4 0.869524 0.394400 0.464958
Si Si5 0.885638 0.101718 0.386020
Si Si6 0.833489 0.542550 0.691458
Si Si7 0.833845 0.181893 0.865726
Si Si8 0.000000 0.625159 0.250000
O O1 0.794781 0.491202 0.584783
O O2 0.761455 0.620848 0.717120
O O3 0.694624 0.719023 0.671592
O O4 0.872897 0.779891 0.534771
O O5 0.950364 0.667615 0.928464
O O6 0.079641 0.667172 0.879982
O O7 0.937897 0.909358 0.000637
O O8 0.891840 0.611044 0.100723
O O9 0.606434 0.502378 0.562861
O O10 0.748699 0.495889 0.329942
O O11 0.825309 0.251602 0.473927
O O12 0.919959 0.517169 0.368005
O O13 0.000000 0.159194 0.250000
O O14 0.845260 0.998398 0.374667
O O15 0.939624 0.266149 0.768590
O O16 0.750000 0.250000 0.000000
#
# Coordination Sequence:
#
# PCOD9290617 Si02
#       8
#     8   8   8   8   8   8   8   4
#     4  11  24  44  68 104 141 180 242 295 363 430
#     4   9  22  42  68  99 139 185 241 292 364 423
#     4  11  22  42  71 101 142 185 242 297 362 438
#     4  10  22  41  67  99 135 183 228 293 356 429
#     4  11  23  44  69 103 145 181 238 295 356 444
#     4  10  22  45  69 101 142 190 241 301 358 435
#     4  12  24  43  68 104 139 186 229 297 359 430
#     4  12  22  40  68  96 134 182 234 276 360 424
#
# _framework density 23.988015999999998
#
# number of rings (size 3 to 8) (size 9 to 14) (size 15 to 20)
#    0.000    1.333    4.000    0.800    1.867    1.067 
#    2.400   10.667    0.000    0.000    0.000    0.000 
#    0.000    0.000    0.000    0.000    0.000    0.000 
#
# Total GULP energy -167305.659949 kJ/mol
# GULP energy per Si atom -5576.855332 kJ/mol
# Density = 2.393342 g / cm^3
# Si number density = 23.988016 Si / 1000 Ang^3
#
#
#
# Elastic Constant Matrix: (Units=GPa)
#
#
# Indices 1 2 3 4 5 6 
#
# 1 134.7558 38.9136 1.1644 0.0019 -4.5364 -0.0012
# 2 38.9136 118.2317 -13.5267 0.0051 -7.3314 -0.0065
# 3 1.1644 -13.5267 34.4835 0.0028 9.6628 -0.0036
# 4 0.0019 0.0051 0.0028 27.1976 -0.0014 9.1407
# 5 -4.5364 -7.3314 9.6628 -0.0014 26.1224 0.0011
# 6 -0.0012 -0.0065 -0.0036 9.1407 0.0011 19.9336
#
#
#
# Elastic Compliance Matrix: (Units=1/GPa)
#
#
# Indices 1 2 3 4 5 6 
#
# 1 0.008304 -0.002855 -0.001762 0.000001 0.001293 -0.000001
# 2 -0.002855 0.009879 0.003719 -0.000004 0.000901 0.000005
# 3 -0.001762 0.003719 0.033816 -0.000009 -0.011771 0.000012
# 4 0.000001 -0.000004 -0.000009 0.043467 0.000005 -0.019932
# 5 0.001293 0.000901 -0.011771 0.000005 0.043113 -0.000007
# 6 -0.000001 0.000005 0.000012 -0.019932 -0.000007 0.059307
#
#
# Mechanical properties :
#
#
# Convention : Reuss Voigt Hill
#
# Bulk Modulus (GPa) = 19.91912 37.84150 28.88031
# Shear Modulus (GPa) = 23.10372 32.04536 27.57454
#
# Velocity S-wave (km/s) = 3.10681 3.65895 3.39413
# Velocity P-wave (km/s) = 4.60342 5.80172 5.23696
#
# Compressibility (1/GPa) = 0.05020302
#
# Stress axis : x y z
#
# Youngs Moduli (GPa) = 120.42561 101.22642 29.57169
#
# Poissons Ratio (x) = 0.28895 0.05212
# Poissons Ratio (y) = 0.34376 -0.10998
# Poissons Ratio (z) = 0.21224 -0.37646
#
# Static dielectric constant tensor:
#      x y z
#    x 1.849100 0.000000 -0.049190 
#    y 0.000000 2.067640 0.000000 
#    z -0.049190 0.000000 1.907670 
# 
# From -- ./inp_files/283373.got.cif
#   From: 2010.05.17/outbox.cif.g08.bks.cpg/sg15_142_cif.got.tgz:283373.got - 2010.06.03 18:47:42.
