data_PCOD9290518
_publ_section_title
;
Structure prediction by ZEFSAII (Michael W. Deem and Ramdas Pophale) SiO2 
 PCOD9290518
Probable space group: C 2/C
;
_chemical_formula_sum "Si O2"
_cell_formula_units_Z 48
_cell_length_a 12.952340
_cell_length_b 19.475776
_cell_length_c 10.183063
_cell_angle_alpha 90.000000
_cell_angle_beta 109.543818
_cell_angle_gamma 90.000000
_cell_volume 2420.751621
_symmetry_space_group_name_H-M "C 2/C"
_symmetry_group_IT_number 15
_symmetry_cell_setting 'monoclinic'
loop_
_space_group_symop_operation_xyz
x,y,z
-x,y,1/2-z
-x,-y,-z
x,-y,1/2+z
1/2+x,1/2+y,z
1/2-x,1/2+y,1/2-z
1/2-x,1/2-y,-z
1/2+x,1/2-y,1/2+z
loop_
_atom_site_type_symbol
_atom_site_label
_atom_site_fract_x
_atom_site_fract_y
_atom_site_fract_z
Si Si1 0.424640 0.514194 0.094393
Si Si2 0.213651 0.434968 0.394110
Si Si3 0.689268 0.615037 0.827838
Si Si4 0.000000 0.340603 0.250000
Si Si5 0.943625 0.541091 0.090479
Si Si6 0.906484 0.309282 0.486118
Si Si7 0.500000 0.710587 0.750000
O O1 0.500000 0.534761 0.250000
O O2 0.372007 0.440053 0.108231
O O3 0.500000 0.500000 0.000000
O O4 0.328673 0.570033 0.022204
O O5 0.248234 0.428768 0.257101
O O6 0.105236 0.385329 0.350189
O O7 0.173586 0.508524 0.430410
O O8 0.594234 0.662840 0.728832
O O9 0.778470 0.668265 0.924965
O O10 0.951823 0.300222 0.356323
O O11 0.955389 0.619526 0.060030
O O12 0.000000 0.527088 0.250000
O O13 0.000000 0.500000 0.000000
O O14 0.943675 0.253575 0.608306
#
# Coordination Sequence:
#
# PCOD9290518 Si02
#       7
#     8   8   8   4   8   8   4
#     4  12  23  39  62  94 132 176 215 263 330 400
#     4  11  21  38  69  96 133 167 210 271 345 392
#     4  11  23  43  67  91 131 184 214 274 327 382
#     4  10  22  41  66  98 135 164 204 284 354 372
#     4  12  21  35  63 103 133 158 205 276 348 393
#     4  11  23  40  66  97 127 173 218 275 327 391
#     4  12  24  45  66  86 135 174 246 254 308 404
#
# _framework density 19.828551000000001
#
# number of rings (size 3 to 8) (size 9 to 14) (size 15 to 20)
#    0.000    0.667    7.500    1.500    0.000    0.000 
#    3.000    3.333    7.333    0.000    0.000    0.000 
#    0.000    0.000    0.000    0.000    0.000    0.000 
#
# Total GULP energy -133601.498856 kJ/mol
# GULP energy per Si atom -5566.729119 kJ/mol
# Density = 1.978342 g / cm^3
# Si number density = 19.828551 Si / 1000 Ang^3
#
#
#
# Elastic Constant Matrix: (Units=GPa)
#
#
# Indices 1 2 3 4 5 6 
#
# 1 115.7607 28.0741 56.8546 0.0000 0.8987 0.0000
# 2 28.0741 48.3718 20.7297 0.0000 -11.5884 0.0000
# 3 56.8546 20.7297 121.9407 0.0000 3.7897 0.0000
# 4 0.0000 0.0000 0.0000 3.9828 0.0000 -0.2667
# 5 0.8987 -11.5884 3.7897 0.0000 52.0410 0.0000
# 6 0.0000 0.0000 0.0000 -0.2667 0.0000 19.8193
#
#
#
# Elastic Compliance Matrix: (Units=1/GPa)
#
#
# Indices 1 2 3 4 5 6 
#
# 1 0.012294 -0.005333 -0.004793 0.000000 -0.001051 0.000000
# 2 -0.005333 0.026142 -0.002146 0.000000 0.006070 0.000000
# 3 -0.004793 -0.002146 0.010837 0.000000 -0.001184 0.000000
# 4 0.000000 0.000000 0.000000 0.251308 0.000000 0.003382
# 5 -0.001051 0.006070 -0.001184 0.000000 0.020672 0.000000
# 6 0.000000 0.000000 0.000000 0.003382 0.000000 0.050501
#
#
# Mechanical properties :
#
#
# Convention : Reuss Voigt Hill
#
# Bulk Modulus (GPa) = 40.43811 55.26552 47.85182
# Shear Modulus (GPa) = 12.35967 27.19628 19.77797
#
# Velocity S-wave (km/s) = 2.49936 3.70749 3.16167
# Velocity P-wave (km/s) = 5.36351 6.80144 6.12482
#
# Compressibility (1/GPa) = 0.02472915
#
# Stress axis : x y z
#
# Youngs Moduli (GPa) = 81.34095 38.25225 92.27648
#
# Poissons Ratio (x) = 0.20400 0.44226
# Poissons Ratio (y) = 0.43379 0.19805
# Poissons Ratio (z) = 0.38985 0.08210
#
# Static dielectric constant tensor:
#      x y z
#    x 1.775600 0.000000 0.053570 
#    y 0.000000 1.674530 0.000000 
#    z 0.053570 0.000000 1.720790 
# 
# From -- ./inp_files/32180.got.cif
#   From: 2010.05.17/outbox.cif.g08.bks.cpg/sg15_17_cif.got.tgz:32180.got - 2010.06.03 18:47:42.
