data_PCOD9290731
_publ_section_title
;
Structure prediction by ZEFSAII (Michael W. Deem and Ramdas Pophale) SiO2 
 PCOD9290731
Probable space group: C 2/C
;
_chemical_formula_sum "Si O2"
_cell_formula_units_Z 52
_cell_length_a 5.622417
_cell_length_b 28.709750
_cell_length_c 15.941263
_cell_angle_alpha 90.000000
_cell_angle_beta 112.347593
_cell_angle_gamma 90.000000
_cell_volume 2379.946791
_symmetry_space_group_name_H-M "C 2/C"
_symmetry_group_IT_number 15
_symmetry_cell_setting 'monoclinic'
loop_
_space_group_symop_operation_xyz
x,y,z
-x,y,1/2-z
-x,-y,-z
x,-y,1/2+z
1/2+x,1/2+y,z
1/2-x,1/2+y,1/2-z
1/2-x,1/2-y,-z
1/2+x,1/2-y,1/2+z
loop_
_atom_site_type_symbol
_atom_site_label
_atom_site_fract_x
_atom_site_fract_y
_atom_site_fract_z
Si Si1 0.500000 0.038677 0.250000
Si Si2 0.692320 0.646383 0.696731
Si Si3 0.875946 0.880200 0.003727
Si Si4 0.987987 0.537735 0.427094
Si Si5 0.933232 0.290660 0.489926
Si Si6 0.004620 0.105109 0.159437
Si Si7 0.837496 0.743093 0.650115
O O1 0.483133 0.012755 0.335598
O O2 0.252265 0.071663 0.205310
O O3 0.500000 0.637564 0.750000
O O4 0.598631 0.618022 0.602554
O O5 0.667833 0.700953 0.666381
O O6 0.000000 0.639067 0.750000
O O7 0.732515 0.928936 0.973349
O O8 0.681860 0.841170 0.011351
O O9 0.958935 0.865982 0.920733
O O10 0.741994 0.572226 0.391334
O O11 0.000000 0.500000 0.500000
O O12 0.750000 0.250000 0.500000
O O13 0.997635 0.281262 0.401650
O O14 0.181552 0.282563 0.581284
O O15 0.000000 0.129426 0.250000
O O16 0.000000 0.760527 0.750000
#
# Coordination Sequence:
#
# PCOD9290731 Si02
#       7
#     4   8   8   8   8   8   8
#     4   8  18  40  62  94 124 170 208 270 334 410
#     4  11  24  42  71  97 139 188 229 284 352 407
#     4  11  23  40  69  96 136 172 226 290 337 411
#     4  10  22  41  69  93 129 175 220 277 352 411
#     4  11  23  41  64  96 131 177 234 278 336 409
#     4   9  20  40  68  90 132 175 215 274 344 407
#     4  10  23  41  67  90 135 183 224 282 342 405
#
# _framework density 21.849229999999999
#
# number of rings (size 3 to 8) (size 9 to 14) (size 15 to 20)
#    0.000    1.846    1.538    1.846    4.308    2.462 
#    0.000   17.692    3.385    0.000    0.000    0.000 
#    0.000    0.000    0.000    0.000    0.000    0.000 
#
# Total GULP energy -145157.300658 kJ/mol
# GULP energy per Si atom -5582.973102 kJ/mol
# Density = 2.179950 g / cm^3
# Si number density = 21.849230 Si / 1000 Ang^3
#
#
#
# Elastic Constant Matrix: (Units=GPa)
#
#
# Indices 1 2 3 4 5 6 
#
# 1 85.6900 13.2182 77.8879 0.0000 1.8919 0.0000
# 2 13.2182 47.9932 49.8356 0.0000 3.2972 0.0000
# 3 77.8879 49.8356 234.0836 0.0000 -11.2929 0.0000
# 4 0.0000 0.0000 0.0000 21.5264 0.0000 -8.0258
# 5 1.8919 3.2972 -11.2929 0.0000 38.9664 0.0000
# 6 0.0000 0.0000 0.0000 -8.0258 0.0000 12.7397
#
#
#
# Elastic Compliance Matrix: (Units=1/GPa)
#
#
# Indices 1 2 3 4 5 6 
#
# 1 0.017106 0.001967 -0.006246 0.000000 -0.002807 0.000000
# 2 0.001967 0.027596 -0.006741 0.000000 -0.004384 0.000000
# 3 -0.006246 -0.006741 0.007939 0.000000 0.003174 0.000000
# 4 0.000000 0.000000 0.000000 0.060715 0.000000 0.038250
# 5 -0.002807 -0.004384 0.003174 0.000000 0.027090 0.000000
# 6 0.000000 0.000000 0.000000 0.038250 0.000000 0.102591
#
#
# Mechanical properties :
#
#
# Convention : Reuss Voigt Hill
#
# Bulk Modulus (GPa) = 32.67936 72.18336 52.43136
# Shear Modulus (GPa) = 18.16356 29.76819 23.96587
#
# Velocity S-wave (km/s) = 2.88638 3.69512 3.31550
# Velocity P-wave (km/s) = 5.10857 7.16338 6.22139
#
# Compressibility (1/GPa) = 0.03060036
#
# Stress axis : x y z
#
# Youngs Moduli (GPa) = 58.45994 36.23779 125.96796
#
# Poissons Ratio (x) = -0.07129 0.78679
# Poissons Ratio (y) = -0.11501 0.84916
# Poissons Ratio (z) = 0.36514 0.24428
#
# Static dielectric constant tensor:
#      x y z
#    x 1.865650 0.000000 0.008340 
#    y 0.000000 1.759770 0.000000 
#    z 0.008340 0.000000 1.827990 
# 
# From -- ./inp_files/130863.got.cif
#   From: 2010.05.17/outbox.cif.g08.bks.cpg/sg15_66_cif.got.tgz:130863.got - 2010.06.03 18:47:42.
