data_PCOD9290799
_publ_section_title
;
Structure prediction by ZEFSAII (Michael W. Deem and Ramdas Pophale) SiO2 
 PCOD9290799
Probable space group: C 2/C
;
_chemical_formula_sum "Si O2"
_cell_formula_units_Z 40
_cell_length_a 13.384142
_cell_length_b 8.911042
_cell_length_c 13.823766
_cell_angle_alpha 90.000000
_cell_angle_beta 58.934288
_cell_angle_gamma 90.000000
_cell_volume 1412.249158
_symmetry_space_group_name_H-M "C 2/C"
_symmetry_group_IT_number 15
_symmetry_cell_setting 'monoclinic'
loop_
_space_group_symop_operation_xyz
x,y,z
-x,y,1/2-z
-x,-y,-z
x,-y,1/2+z
1/2+x,1/2+y,z
1/2-x,1/2+y,1/2-z
1/2-x,1/2-y,-z
1/2+x,1/2-y,1/2+z
loop_
_atom_site_type_symbol
_atom_site_label
_atom_site_fract_x
_atom_site_fract_y
_atom_site_fract_z
Si Si1 0.642585 0.008440 0.724666
Si Si2 0.995364 0.028270 0.384554
Si Si3 0.730989 0.662326 0.178646
Si Si4 0.887365 0.717184 0.430438
Si Si5 0.547777 0.840432 0.042677
O O1 0.720473 0.158050 0.668613
O O2 0.701460 0.875219 0.755753
O O3 0.544350 0.085655 0.839336
O O4 0.392409 0.918175 0.852634
O O5 0.922594 0.182285 0.419541
O O6 0.111184 0.076542 0.266967
O O7 0.942518 0.875608 0.372733
O O8 0.000000 0.000000 0.500000
O O9 0.825594 0.600154 0.054077
O O10 0.750000 0.750000 0.500000
O O11 0.964132 0.680068 0.488885
#
# Coordination Sequence:
#
# PCOD9290799 Si02
#       5
#     8   8   8   8   8
#     4  11  23  41  74 117 163 215 271 334 409 485
#     4   9  19  39  71 112 156 212 275 331 401 477
#     4  11  22  44  74 110 164 220 266 335 411 481
#     4  11  21  41  75 119 162 215 280 337 399 488
#     4  10  22  41  70 113 163 215 271 339 410 478
#
# _framework density 28.323612000000001
#
# number of rings (size 3 to 8) (size 9 to 14) (size 15 to 20)
#    0.000    1.600    0.000    7.800    0.000    0.800 
#    0.000    4.000    0.000   14.400    0.000   21.000 
#    0.000    0.000    0.000    0.000    0.000    0.000 
#
# Total GULP energy -111795.185097 kJ/mol
# GULP energy per Si atom -5589.759255 kJ/mol
# Density = 2.825915 g / cm^3
# Si number density = 28.323612 Si / 1000 Ang^3
#
#
#
# Elastic Constant Matrix: (Units=GPa)
#
#
# Indices 1 2 3 4 5 6 
#
# 1 127.0824 84.0205 76.3100 0.0000 19.3803 0.0000
# 2 84.0205 188.1483 63.0083 0.0000 2.8012 0.0000
# 3 76.3100 63.0083 261.0742 0.0000 -7.1897 0.0000
# 4 0.0000 0.0000 0.0000 62.7751 0.0000 0.3273
# 5 19.3803 2.8012 -7.1897 0.0000 45.2707 0.0000
# 6 0.0000 0.0000 0.0000 0.3273 0.0000 65.8244
#
#
#
# Elastic Compliance Matrix: (Units=1/GPa)
#
#
# Indices 1 2 3 4 5 6 
#
# 1 0.014044 -0.005165 -0.003028 0.000000 -0.006174 0.000000
# 2 -0.005165 0.007698 -0.000301 0.000000 0.001687 0.000000
# 3 -0.003028 -0.000301 0.004846 0.000000 0.002085 0.000000
# 4 0.000000 0.000000 0.000000 0.015930 0.000000 -0.000079
# 5 -0.006174 0.001687 0.002085 0.000000 0.024959 0.000000
# 6 0.000000 0.000000 0.000000 -0.000079 0.000000 0.015192
#
#
# Mechanical properties :
#
#
# Convention : Reuss Voigt Hill
#
# Bulk Modulus (GPa) = 104.20307 113.66472 108.93389
# Shear Modulus (GPa) = 48.61070 58.30512 53.45791
#
# Velocity S-wave (km/s) = 4.14727 4.54203 4.34913
# Velocity P-wave (km/s) = 7.73325 8.22949 7.98523
#
# Compressibility (1/GPa) = 0.00959665
#
# Stress axis : x y z
#
# Youngs Moduli (GPa) = 71.20489 129.91208 206.37123
#
# Poissons Ratio (x) = 0.67106 0.62495
# Poissons Ratio (y) = 0.36781 0.06221
# Poissons Ratio (z) = 0.21563 0.03916
#
# Static dielectric constant tensor:
#      x y z
#    x 2.432180 0.000000 -0.030820 
#    y 0.000000 2.316920 0.000000 
#    z -0.030820 0.000000 2.229210 
# 
# From -- ./inp_files/298283.got.cif
#   From: 2010.05.17/outbox.cif.g08.bks.cpg/sg15_150_cif.got.tgz:298283.got - 2010.06.03 18:47:42.
