data_PCOD9290288
_publ_section_title
;
Structure prediction by ZEFSAII (Michael W. Deem and Ramdas Pophale) SiO2 
 PCOD9290288
Probable space group: C 2/C
;
_chemical_formula_sum "Si O2"
_cell_formula_units_Z 48
_cell_length_a 13.940055
_cell_length_b 15.312640
_cell_length_c 16.072339
_cell_angle_alpha 90.000000
_cell_angle_beta 40.078379
_cell_angle_gamma 90.000000
_cell_volume 2208.859955
_symmetry_space_group_name_H-M "C 2/C"
_symmetry_group_IT_number 15
_symmetry_cell_setting 'monoclinic'
loop_
_space_group_symop_operation_xyz
x,y,z
-x,y,1/2-z
-x,-y,-z
x,-y,1/2+z
1/2+x,1/2+y,z
1/2-x,1/2+y,1/2-z
1/2-x,1/2-y,-z
1/2+x,1/2-y,1/2+z
loop_
_atom_site_type_symbol
_atom_site_label
_atom_site_fract_x
_atom_site_fract_y
_atom_site_fract_z
Si Si1 0.440351 0.068307 0.697038
Si Si2 0.426996 0.270590 0.389355
Si Si3 0.124108 0.390233 0.822130
Si Si4 0.210269 0.346922 0.944800
Si Si5 0.680668 0.650349 0.957010
Si Si6 0.574594 0.405194 0.968530
O O1 0.500000 0.050340 0.750000
O O2 0.540675 0.142924 0.589947
O O3 0.272814 0.098374 0.825834
O O4 0.460193 0.981982 0.629735
O O5 0.500000 0.276917 0.250000
O O6 0.250000 0.250000 0.500000
O O7 0.515960 0.191769 0.377380
O O8 0.449209 0.360157 0.426489
O O9 0.251093 0.398520 0.667292
O O10 0.208120 0.385178 0.854457
O O11 0.302614 0.387239 0.960721
O O12 0.252777 0.245906 0.910310
O O13 0.512532 0.655230 0.039588
O O14 0.500000 0.500000 0.000000
#
# Coordination Sequence:
#
# PCOD9290288 Si02
#       6
#     8   8   8   8   8   8
#     4  10  22  41  64  96 140 183 239 299 369 439
#     4  12  27  50  80 109 150 202 257 313 385 464
#     4  12  24  43  71 103 141 190 244 310 372 452
#     4  10  23  39  68  99 131 181 236 291 357 449
#     4  10  22  43  65  96 137 179 223 295 366 432
#     4  12  26  47  70 103 150 189 243 312 376 443
#
# _framework density 21.730667
#
# number of rings (size 3 to 8) (size 9 to 14) (size 15 to 20)
#    0.000    1.000    5.000    1.000    2.333    2.000 
#    6.000    0.000    0.000    0.000    0.000    0.000 
#    0.000    0.000    0.000    0.000    0.000    0.000 
#
# Total GULP energy -133893.667558 kJ/mol
# GULP energy per Si atom -5578.902815 kJ/mol
# Density = 2.168121 g / cm^3
# Si number density = 21.730667 Si / 1000 Ang^3
#
#
#
# Elastic Constant Matrix: (Units=GPa)
#
#
# Indices 1 2 3 4 5 6 
#
# 1 55.9784 19.1278 38.7802 0.0000 4.0665 0.0000
# 2 19.1278 91.9131 27.9386 0.0000 10.7272 0.0000
# 3 38.7802 27.9386 88.7936 -0.0001 10.8465 0.0001
# 4 0.0000 0.0000 -0.0001 29.0256 0.0001 3.1596
# 5 4.0665 10.7272 10.8465 0.0001 45.4370 -0.0001
# 6 0.0000 0.0000 0.0001 3.1596 -0.0001 32.0037
#
#
#
# Elastic Compliance Matrix: (Units=1/GPa)
#
#
# Indices 1 2 3 4 5 6 
#
# 1 0.026024 -0.002236 -0.010756 0.000000 0.000766 0.000000
# 2 -0.002236 0.012401 -0.002670 0.000000 -0.002090 0.000000
# 3 -0.010756 -0.002670 0.017104 0.000000 -0.002490 0.000000
# 4 0.000000 0.000000 0.000000 0.034827 0.000000 -0.003438
# 5 0.000766 -0.002090 -0.002490 0.000000 0.023028 0.000000
# 6 0.000000 0.000000 0.000000 -0.003438 0.000000 0.031586
#
#
# Mechanical properties :
#
#
# Convention : Reuss Voigt Hill
#
# Bulk Modulus (GPa) = 41.31385 45.37538 43.34461
# Shear Modulus (GPa) = 27.12082 31.34914 29.23498
#
# Velocity S-wave (km/s) = 3.53660 3.80231 3.67186
# Velocity P-wave (km/s) = 5.97744 6.34057 6.16168
#
# Compressibility (1/GPa) = 0.02420496
#
# Stress axis : x y z
#
# Youngs Moduli (GPa) = 38.42656 80.64073 58.46612
#
# Poissons Ratio (x) = 0.18029 0.62885
# Poissons Ratio (y) = 0.08591 0.15611
# Poissons Ratio (z) = 0.41331 0.21532
#
# Static dielectric constant tensor:
#      x y z
#    x 1.817040 0.000000 0.001440 
#    y 0.000000 1.864770 0.000000 
#    z 0.001440 0.000000 1.820820 
# 
# From -- ./inp_files/155087.got.cif
#   From: 2010.05.17/outbox.cif.g08.bks.cpg/sg15_78_cif.got.tgz:155087.got - 2010.06.03 18:47:42.
