data_PCOD9290549
_publ_section_title
;
Structure prediction by ZEFSAII (Michael W. Deem and Ramdas Pophale) SiO2 
 PCOD9290549
Probable space group: C 2/C
;
_chemical_formula_sum "Si O2"
_cell_formula_units_Z 48
_cell_length_a 18.288404
_cell_length_b 18.790669
_cell_length_c 10.213177
_cell_angle_alpha 90.000000
_cell_angle_beta 43.579417
_cell_angle_gamma 90.000000
_cell_volume 2419.494150
_symmetry_space_group_name_H-M "C 2/C"
_symmetry_group_IT_number 15
_symmetry_cell_setting 'monoclinic'
loop_
_space_group_symop_operation_xyz
x,y,z
-x,y,1/2-z
-x,-y,-z
x,-y,1/2+z
1/2+x,1/2+y,z
1/2-x,1/2+y,1/2-z
1/2-x,1/2-y,-z
1/2+x,1/2-y,1/2+z
loop_
_atom_site_type_symbol
_atom_site_label
_atom_site_fract_x
_atom_site_fract_y
_atom_site_fract_z
Si Si1 0.091293 0.694271 0.224212
Si Si2 0.168488 0.149842 0.540639
Si Si3 0.123587 0.844349 0.551116
Si Si4 0.109752 0.956626 0.336518
Si Si5 0.221102 0.899683 0.691941
Si Si6 0.586559 0.193083 0.525495
O O1 0.119450 0.773515 0.137035
O O2 0.046068 0.699026 0.430168
O O3 0.000000 0.663164 0.250000
O O4 0.205565 0.654820 0.085187
O O5 0.113558 0.089423 0.699353
O O6 0.160442 0.132122 0.397413
O O7 0.131515 0.902312 0.426608
O O8 0.183587 0.866545 0.603979
O O9 0.154073 0.765663 0.461640
O O10 0.000000 0.841421 0.750000
O O11 0.199112 0.016999 0.216214
O O12 0.000000 0.000000 0.500000
O O13 0.340814 0.875768 0.557535
O O14 0.500000 0.190234 0.750000
#
# Coordination Sequence:
#
# PCOD9290549 Si02
#       6
#     8   8   8   8   8   8
#     4  10  22  41  67  90 123 170 210 261 307 363
#     4  10  24  41  60  97 128 160 217 254 310 382
#     4  11  22  39  58  93 123 163 206 249 309 367
#     4  12  24  41  61  94 133 164 202 258 320 379
#     4  11  24  39  62  89 127 167 200 258 311 365
#     4  10  23  42  62  91 120 162 216 255 303 364
#
# _framework density 19.838857999999998
#
# number of rings (size 3 to 8) (size 9 to 14) (size 15 to 20)
#    0.000    1.333    3.333    1.500    7.000    1.333 
#    0.000    0.833    0.000    5.000    0.000    0.000 
#    0.000    0.000    0.000    0.000    0.000    0.000 
#
# Total GULP energy -134103.671665 kJ/mol
# GULP energy per Si atom -5587.652986 kJ/mol
# Density = 1.979370 g / cm^3
# Si number density = 19.838858 Si / 1000 Ang^3
#
#
#
# Elastic Constant Matrix: (Units=GPa)
#
#
# Indices 1 2 3 4 5 6 
#
# 1 66.0053 6.0020 30.9362 0.0000 16.1317 0.0000
# 2 6.0020 82.7019 18.5316 0.0000 -1.3206 0.0000
# 3 30.9362 18.5316 106.2246 0.0000 29.1216 0.0000
# 4 0.0000 0.0000 0.0000 34.7407 0.0000 -1.9873
# 5 16.1317 -1.3206 29.1216 0.0000 34.3386 0.0000
# 6 0.0000 0.0000 0.0000 -1.9873 0.0000 16.2591
#
#
#
# Elastic Compliance Matrix: (Units=1/GPa)
#
#
# Indices 1 2 3 4 5 6 
#
# 1 0.018283 -0.000578 -0.003730 0.000000 -0.005448 0.000000
# 2 -0.000578 0.012853 -0.002976 0.000000 0.003289 0.000000
# 3 -0.003730 -0.002976 0.013773 0.000000 -0.010042 0.000000
# 4 0.000000 0.000000 0.000000 0.028987 0.000000 0.003543
# 5 -0.005448 0.003289 -0.010042 0.000000 0.040324 0.000000
# 6 0.000000 0.000000 0.000000 0.003543 0.000000 0.061937
#
#
# Mechanical properties :
#
#
# Convention : Reuss Voigt Hill
#
# Bulk Modulus (GPa) = 32.95960 40.65239 36.80599
# Shear Modulus (GPa) = 24.89574 30.36516 27.63045
#
# Velocity S-wave (km/s) = 3.54630 3.91652 3.73600
# Velocity P-wave (km/s) = 5.78083 6.40218 6.09942
#
# Compressibility (1/GPa) = 0.03034018
#
# Stress axis : x y z
#
# Youngs Moduli (GPa) = 54.69690 77.80354 72.60797
#
# Poissons Ratio (x) = 0.04497 0.27084
# Poissons Ratio (y) = 0.03161 0.21606
# Poissons Ratio (z) = 0.20403 0.23152
#
# Static dielectric constant tensor:
#      x y z
#    x 1.662940 0.000000 -0.037340 
#    y 0.000000 1.685400 0.000000 
#    z -0.037340 0.000000 1.695990 
# 
# From -- ./inp_files/48357.got.cif
#   From: 2010.05.17/outbox.cif.g08.bks.cpg/sg15_25_cif.got.tgz:48357.got - 2010.06.03 18:47:42.
