data_PCOD9290359
_publ_section_title
;
Structure prediction by ZEFSAII (Michael W. Deem and Ramdas Pophale) SiO2 
 PCOD9290359
Probable space group: C 2/C
;
_chemical_formula_sum "Si O2"
_cell_formula_units_Z 48
_cell_length_a 26.313972
_cell_length_b 10.105767
_cell_length_c 9.121363
_cell_angle_alpha 90.000000
_cell_angle_beta 90.250433
_cell_angle_gamma 90.000000
_cell_volume 2425.555856
_symmetry_space_group_name_H-M "C 2/C"
_symmetry_group_IT_number 15
_symmetry_cell_setting 'monoclinic'
loop_
_space_group_symop_operation_xyz
x,y,z
-x,y,1/2-z
-x,-y,-z
x,-y,1/2+z
1/2+x,1/2+y,z
1/2-x,1/2+y,1/2-z
1/2-x,1/2-y,-z
1/2+x,1/2-y,1/2+z
loop_
_atom_site_type_symbol
_atom_site_label
_atom_site_fract_x
_atom_site_fract_y
_atom_site_fract_z
Si Si1 0.870201 0.494011 0.036003
Si Si2 0.543567 0.812698 0.854325
Si Si3 0.015053 0.864852 0.920568
Si Si4 0.779654 0.754923 0.345923
Si Si5 0.604861 0.722965 0.600066
Si Si6 0.201736 0.553874 0.706362
O O1 0.914542 0.584766 0.094795
O O2 0.839646 0.425143 0.166612
O O3 0.892491 0.380198 0.932758
O O4 0.827981 0.575164 0.945350
O O5 0.500000 0.873253 0.750000
O O6 0.571698 0.706592 0.747636
O O7 0.516562 0.747698 0.993314
O O8 0.000000 0.865786 0.750000
O O9 0.074129 0.839903 0.964473
O O10 0.000000 0.000000 0.000000
O O11 0.750000 0.750000 0.500000
O O12 0.836409 0.811553 0.373564
O O13 0.783742 0.602432 0.292571
O O14 0.748377 0.849709 0.237616
#
# Coordination Sequence:
#
# PCOD9290359 Si02
#       6
#     8   8   8   8   8   8
#     4  11  21  41  65  97 130 169 213 272 324 387
#     4  10  22  41  65  93 127 165 210 265 319 388
#     4  11  25  45  66  93 128 167 213 265 321 395
#     4  11  22  45  65  98 136 175 218 280 327 391
#     4  10  22  42  65  89 136 166 210 270 324 378
#     4  11  23  42  68  92 140 174 222 275 331 391
#
# _framework density 19.789277999999999
#
# number of rings (size 3 to 8) (size 9 to 14) (size 15 to 20)
#    0.000    1.333    6.667    1.500    2.333    4.000 
#    9.000    0.000    0.000    0.000    0.000    0.000 
#    0.000    0.000    0.000    0.000    0.000    0.000 
#
# Total GULP energy -133950.859732 kJ/mol
# GULP energy per Si atom -5581.285822 kJ/mol
# Density = 1.974424 g / cm^3
# Si number density = 19.789278 Si / 1000 Ang^3
#
#
#
# Elastic Constant Matrix: (Units=GPa)
#
#
# Indices 1 2 3 4 5 6 
#
# 1 138.8875 41.4782 46.5382 0.0000 43.5848 0.0000
# 2 41.4782 64.2305 27.2988 0.0000 31.3152 0.0000
# 3 46.5382 27.2988 116.6685 0.0000 25.6519 0.0000
# 4 0.0000 0.0000 0.0000 25.8567 0.0000 9.4045
# 5 43.5848 31.3152 25.6519 0.0000 53.5705 0.0000
# 6 0.0000 0.0000 0.0000 9.4045 0.0000 36.9653
#
#
#
# Elastic Compliance Matrix: (Units=1/GPa)
#
#
# Indices 1 2 3 4 5 6 
#
# 1 0.010715 -0.003126 -0.002266 0.000000 -0.005805 0.000000
# 2 -0.003126 0.023397 -0.001989 0.000000 -0.010181 0.000000
# 3 -0.002266 -0.001989 0.010372 0.000000 -0.001960 0.000000
# 4 0.000000 0.000000 0.000000 0.042618 0.000000 -0.010843
# 5 -0.005805 -0.010181 -0.001960 0.000000 0.030280 0.000000
# 6 0.000000 0.000000 0.000000 -0.010843 0.000000 0.029811
#
#
# Mechanical properties :
#
#
# Convention : Reuss Voigt Hill
#
# Bulk Modulus (GPa) = 33.64682 61.15743 47.40212
# Shear Modulus (GPa) = 29.09327 36.90993 33.00160
#
# Velocity S-wave (km/s) = 3.83842 4.32342 4.08812
# Velocity P-wave (km/s) = 6.05674 7.47623 6.80361
#
# Compressibility (1/GPa) = 0.02972049
#
# Stress axis : x y z
#
# Youngs Moduli (GPa) = 93.33025 42.74126 96.41710
#
# Poissons Ratio (x) = 0.13360 0.21850
# Poissons Ratio (y) = 0.29174 0.19178
# Poissons Ratio (z) = 0.21151 0.08502
#
# Static dielectric constant tensor:
#      x y z
#    x 1.722900 0.000000 -0.013250 
#    y 0.000000 1.692070 0.000000 
#    z -0.013250 0.000000 1.747990 
# 
# From -- ./inp_files/60685.got.cif
#   From: 2010.05.17/outbox.cif.g08.bks.cpg/sg15_31_cif.got.tgz:60685.got - 2010.06.03 18:47:42.
