data_PCOD9290949
_publ_section_title
;
Structure prediction by ZEFSAII (Michael W. Deem and Ramdas Pophale) SiO2 
 PCOD9290949
Probable space group: C 2/C
;
_chemical_formula_sum "Si O2"
_cell_formula_units_Z 36
_cell_length_a 10.180551
_cell_length_b 13.897294
_cell_length_c 10.791992
_cell_angle_alpha 90.000000
_cell_angle_beta 61.739396
_cell_angle_gamma 90.000000
_cell_volume 1344.875215
_symmetry_space_group_name_H-M "C 2/C"
_symmetry_group_IT_number 15
_symmetry_cell_setting 'monoclinic'
loop_
_space_group_symop_operation_xyz
x,y,z
-x,y,1/2-z
-x,-y,-z
x,-y,1/2+z
1/2+x,1/2+y,z
1/2-x,1/2+y,1/2-z
1/2-x,1/2-y,-z
1/2+x,1/2-y,1/2+z
loop_
_atom_site_type_symbol
_atom_site_label
_atom_site_fract_x
_atom_site_fract_y
_atom_site_fract_z
Si Si1 0.527726 0.885474 0.555383
Si Si2 0.286450 0.476628 0.034307
Si Si3 0.000000 0.215053 0.750000
Si Si4 0.678048 0.407295 0.743211
Si Si5 0.803121 0.679936 0.741502
O O1 0.546872 0.783630 0.615685
O O2 0.359407 0.916237 0.654653
O O3 0.566815 0.868263 0.395543
O O4 0.645547 0.957995 0.560350
O O5 0.362222 0.538387 0.111293
O O6 0.233736 0.376292 0.117597
O O7 0.368935 0.449494 0.869575
O O8 0.151177 0.165630 0.727667
O O9 0.658303 0.292091 0.759998
#
# Coordination Sequence:
#
# PCOD9290949 Si02
#       5
#     8   8   4   8   8
#     4  11  21  39  70  94 132 171 219 267 329 383
#     4  12  22  40  66 101 132 166 218 275 323 384
#     4  10  22  42  62 100 128 180 218 262 332 396
#     4  11  25  40  67 106 132 166 218 278 327 388
#     4  11  24  40  66  93 139 173 219 264 333 387
#
# _framework density 26.768283
#
# number of rings (size 3 to 8) (size 9 to 14) (size 15 to 20)
#    0.000    0.889    6.667    2.000    3.111    0.000 
#    0.000    1.111    0.000    0.000    0.000    0.000 
#    0.000    0.000    0.000    0.000    0.000    0.000 
#
# Total GULP energy -100979.349257 kJ/mol
# GULP energy per Si atom -5609.963848 kJ/mol
# Density = 2.670736 g / cm^3
# Si number density = 26.768283 Si / 1000 Ang^3
#
#
#
# Elastic Constant Matrix: (Units=GPa)
#
#
# Indices 1 2 3 4 5 6 
#
# 1 127.9476 20.7641 45.5202 0.0000 21.1909 0.0000
# 2 20.7641 158.7666 71.8454 0.0000 15.9119 0.0000
# 3 45.5202 71.8454 208.1131 0.0000 6.1994 0.0000
# 4 0.0000 0.0000 0.0000 60.5331 0.0000 15.9243
# 5 21.1909 15.9119 6.1994 0.0000 42.3979 0.0000
# 6 0.0000 0.0000 0.0000 15.9243 0.0000 23.7013
#
#
#
# Elastic Compliance Matrix: (Units=1/GPa)
#
#
# Indices 1 2 3 4 5 6 
#
# 1 0.009203 0.000101 -0.001918 0.000000 -0.004357 0.000000
# 2 0.000101 0.007725 -0.002612 0.000000 -0.002568 0.000000
# 3 -0.001918 -0.002612 0.006095 0.000000 0.001048 0.000000
# 4 0.000000 0.000000 0.000000 0.020067 0.000000 -0.013482
# 5 -0.004357 -0.002568 0.001048 0.000000 0.026574 0.000000
# 6 0.000000 0.000000 0.000000 -0.013482 0.000000 0.051250
#
#
# Mechanical properties :
#
#
# Convention : Reuss Voigt Hill
#
# Bulk Modulus (GPa) = 70.59881 85.67632 78.13756
# Shear Modulus (GPa) = 37.17610 49.10630 43.14120
#
# Velocity S-wave (km/s) = 3.73072 4.28775 4.01890
# Velocity P-wave (km/s) = 6.70738 7.52258 7.12665
#
# Compressibility (1/GPa) = 0.01416454
#
# Stress axis : x y z
#
# Youngs Moduli (GPa) = 108.65556 129.45234 164.06151
#
# Poissons Ratio (x) = -0.01308 0.31469
# Poissons Ratio (y) = -0.01098 0.42860
# Poissons Ratio (z) = 0.20841 0.33818
#
# Static dielectric constant tensor:
#      x y z
#    x 2.115650 0.000000 0.038420 
#    y 0.000000 2.061310 0.000000 
#    z 0.038420 0.000000 2.041690 
# 
# From -- ./inp_files/85427.got.cif
#   From: 2010.05.17/outbox.cif.g08.bks.cpg/sg15_43_cif.got.tgz:85427.got - 2010.06.03 18:47:42.
