data_PCOD9290692
_publ_section_title
;
Structure prediction by ZEFSAII (Michael W. Deem and Ramdas Pophale) SiO2 
 PCOD9290692
Probable space group: C 2/C
;
_chemical_formula_sum "Si O2"
_cell_formula_units_Z 56
_cell_length_a 24.887841
_cell_length_b 13.959607
_cell_length_c 8.408468
_cell_angle_alpha 90.000000
_cell_angle_beta 68.221949
_cell_angle_gamma 90.000000
_cell_volume 2712.808118
_symmetry_space_group_name_H-M "C 2/C"
_symmetry_group_IT_number 15
_symmetry_cell_setting 'monoclinic'
loop_
_space_group_symop_operation_xyz
x,y,z
-x,y,1/2-z
-x,-y,-z
x,-y,1/2+z
1/2+x,1/2+y,z
1/2-x,1/2+y,1/2-z
1/2-x,1/2-y,-z
1/2+x,1/2-y,1/2+z
loop_
_atom_site_type_symbol
_atom_site_label
_atom_site_fract_x
_atom_site_fract_y
_atom_site_fract_z
Si Si1 0.500000 0.552535 0.750000
Si Si2 0.759551 0.362746 0.981735
Si Si3 0.768044 0.626311 0.128953
Si Si4 0.297236 0.354124 0.126066
Si Si5 0.000000 0.734934 0.750000
Si Si6 0.447873 0.938127 0.130325
Si Si7 0.567753 0.608949 0.981856
Si Si8 0.365058 0.969620 0.958256
O O1 0.539306 0.608074 0.836518
O O2 0.542943 0.484901 0.599654
O O3 0.735978 0.394186 0.180650
O O4 0.750000 0.250000 0.000000
O O5 0.737334 0.396189 0.832794
O O6 0.826414 0.393903 0.906921
O O7 0.788059 0.737915 0.123767
O O8 0.728529 0.612374 0.015613
O O9 0.823800 0.559460 0.040639
O O10 0.363374 0.383046 0.083697
O O11 0.030160 0.664393 0.840539
O O12 0.043747 0.801723 0.607563
O O13 0.421940 0.996546 0.305469
O O14 0.390682 0.924500 0.087954
O O15 0.500000 0.000000 0.000000
#
# Coordination Sequence:
#
# PCOD9290692 Si02
#       8
#     4   8   8   8   4   8   8   8
#     4   9  22  48  69 100 128 176 221 282 350 403
#     4  10  23  41  60  94 130 170 224 265 333 403
#     4  10  22  42  64  95 136 173 224 268 345 404
#     4  10  22  41  68  98 130 176 220 281 334 411
#     4  11  24  44  65 102 134 180 231 278 352 415
#     4  12  24  40  64  97 132 178 234 273 335 410
#     4  10  22  46  72  95 138 169 225 290 342 411
#     4  12  22  42  65  87 137 178 206 289 333 390
#
# _framework density 20.642817000000001
#
# number of rings (size 3 to 8) (size 9 to 14) (size 15 to 20)
#    0.000    1.429    2.857    1.714    0.000    3.429 
#   15.429    0.000    0.000    0.000    0.000    0.000 
#    0.000    0.000    0.000    0.000    0.000    0.000 
#
# Total GULP energy -156233.252104 kJ/mol
# GULP energy per Si atom -5579.759004 kJ/mol
# Density = 2.059583 g / cm^3
# Si number density = 20.642817 Si / 1000 Ang^3
#
#
#
# Elastic Constant Matrix: (Units=GPa)
#
#
# Indices 1 2 3 4 5 6 
#
# 1 145.8644 26.2847 64.4707 0.0000 18.0517 0.0000
# 2 26.2847 68.2960 27.4311 0.0000 0.6115 0.0000
# 3 64.4707 27.4311 127.7466 0.0000 17.0838 0.0000
# 4 0.0000 0.0000 0.0000 11.1859 0.0000 23.1600
# 5 18.0517 0.6115 17.0838 0.0000 43.0130 0.0000
# 6 0.0000 0.0000 0.0000 23.1600 0.0000 16.1584
#
#
#
# Elastic Compliance Matrix: (Units=1/GPa)
#
#
# Indices 1 2 3 4 5 6 
#
# 1 0.009228 -0.001952 -0.003933 0.000000 -0.002283 0.000000
# 2 -0.001952 0.016496 -0.002783 0.000000 0.001690 0.000000
# 3 -0.003933 -0.002783 0.010756 0.000000 -0.002582 0.000000
# 4 0.000000 0.000000 0.000000 -0.045435 0.000000 0.065122
# 5 -0.002283 0.001690 -0.002582 0.000000 0.025208 0.000000
# 6 0.000000 0.000000 0.000000 0.065122 0.000000 -0.031453
#
#
# Mechanical properties :
#
#
# Convention : Reuss Voigt Hill
#
# Bulk Modulus (GPa) = 52.23423 64.25334 58.24378
# Shear Modulus (GPa) = 587.02106 28.98616 308.00361
#
# Velocity S-wave (km/s) = 16.88159 3.75130 12.22825
# Velocity P-wave (km/s) = 20.13312 7.06801 15.08807
#
# Compressibility (1/GPa) = 0.01914453
#
# Stress axis : x y z
#
# Youngs Moduli (GPa) = 108.36368 60.62073 92.97340
#
# Poissons Ratio (x) = 0.11830 0.36565
# Poissons Ratio (y) = 0.21147 0.25878
# Poissons Ratio (z) = 0.42618 0.16873
#
# Static dielectric constant tensor:
#      x y z
#    x 1.273210 0.000000 -0.241690 
#    y 0.000000 1.737360 0.000000 
#    z -0.241690 0.000000 1.607110 
# 
# From -- ./inp_files/61647.got.cif
#   From: 2010.05.17/outbox.cif.g08.bks.cpg/sg15_31_cif.got.tgz:61647.got - 2010.06.03 18:47:42.
