data_PCOD9290418
_publ_section_title
;
Structure prediction by ZEFSAII (Michael W. Deem and Ramdas Pophale) SiO2 
 PCOD9290418
Probable space group: C 2/C
;
_chemical_formula_sum "Si O2"
_cell_formula_units_Z 36
_cell_length_a 23.513567
_cell_length_b 5.143320
_cell_length_c 22.400077
_cell_angle_alpha 90.000000
_cell_angle_beta 147.737287
_cell_angle_gamma 90.000000
_cell_volume 1446.078592
_symmetry_space_group_name_H-M "C 2/C"
_symmetry_group_IT_number 15
_symmetry_cell_setting 'monoclinic'
loop_
_space_group_symop_operation_xyz
x,y,z
-x,y,1/2-z
-x,-y,-z
x,-y,1/2+z
1/2+x,1/2+y,z
1/2-x,1/2+y,1/2-z
1/2-x,1/2-y,-z
1/2+x,1/2-y,1/2+z
loop_
_atom_site_type_symbol
_atom_site_label
_atom_site_fract_x
_atom_site_fract_y
_atom_site_fract_z
Si Si1 0.716136 0.438135 0.685601
Si Si2 0.538417 0.452553 0.449971
Si Si3 0.653884 0.339085 0.297650
Si Si4 0.366151 0.059280 0.524582
Si Si5 0.500000 0.034426 0.250000
O O1 0.739837 0.725580 0.729137
O O2 0.591491 0.381988 0.560974
O O3 0.780443 0.375502 0.681788
O O4 0.419011 0.469731 0.318548
O O5 0.585531 0.219374 0.450977
O O6 0.592689 0.726381 0.484320
O O7 0.739892 0.523857 0.406142
O O8 0.580085 0.208005 0.281716
O O9 0.422179 0.125307 0.637082
#
# Coordination Sequence:
#
# PCOD9290418 Si02
#       5
#     8   8   8   8   4
#     4  11  24  43  67  95 131 174 220 269 322 384
#     4  10  23  42  66  96 128 172 219 264 327 384
#     4  10  23  44  68  97 136 171 216 271 324 387
#     4  10  22  41  65  97 134 169 213 266 322 389
#     4  10  22  42  70 102 130 174 216 264 330 390
#
# _framework density 24.894914
#
# number of rings (size 3 to 8) (size 9 to 14) (size 15 to 20)
#    0.000    1.778    0.000    3.333    0.000   16.000 
#    0.000   10.000    0.000    0.000    0.000    0.000 
#    0.000    0.000    0.000    0.000    0.000    0.000 
#
# Total GULP energy -100610.082577 kJ/mol
# GULP energy per Si atom -5589.449032 kJ/mol
# Density = 2.483825 g / cm^3
# Si number density = 24.894914 Si / 1000 Ang^3
#
#
#
# Elastic Constant Matrix: (Units=GPa)
#
#
# Indices 1 2 3 4 5 6 
#
# 1 43.2126 28.5106 -6.7891 -0.0003 8.0929 0.0003
# 2 28.5106 23.7944 38.1298 0.0065 12.5040 0.0152
# 3 -6.7891 38.1298 207.8462 0.0028 -21.7629 0.0047
# 4 -0.0003 0.0065 0.0028 14.0220 0.0004 -25.4388
# 5 8.0929 12.5040 -21.7629 0.0004 53.6971 0.0011
# 6 0.0003 0.0152 0.0047 -25.4388 0.0011 -5.2376
#
#
#
# Elastic Compliance Matrix: (Units=1/GPa)
#
#
# Indices 1 2 3 4 5 6 
#
# 1 -0.043001 0.102348 -0.022972 0.000045 -0.026663 0.000048
# 2 0.102348 -0.156696 0.035815 -0.000069 0.035579 -0.000074
# 3 -0.022972 0.035815 -0.003154 0.000017 -0.006156 0.000018
# 4 0.000045 -0.000069 0.000017 0.007269 0.000017 -0.035304
# 5 -0.026663 0.035579 -0.006156 0.000017 0.011862 0.000018
# 6 0.000048 -0.000074 0.000018 -0.035304 0.000018 -0.019460
#
#
# Mechanical properties :
#
#
# Convention : Reuss Voigt Hill
#
# Bulk Modulus (GPa) = 36.32468 43.83954 40.08211
# Shear Modulus (GPa) = -11.78176 26.82977 7.52400
#
# Velocity S-wave (km/s) = -2.17781 3.28643 1.74036
# Velocity P-wave (km/s) = 2.88081 5.66117 4.49154
#
# Compressibility (1/GPa) = 0.02752949
#
# Stress axis : x y z
#
# Youngs Moduli (GPa) = -23.25520 -6.38178 -317.06129
#
# Poissons Ratio (x) = 0.65316 -7.28363
# Poissons Ratio (y) = 2.38012 11.35545
# Poissons Ratio (z) = -0.53423 0.22856
#
# Static dielectric constant tensor:
#      x y z
#    x 2.077510 0.000000 -0.012610 
#    y 0.000000 1.860140 0.000000 
#    z -0.012610 0.000000 2.085320 
# 
# From -- ./inp_files/124706.got.cif
#   From: 2010.05.17/outbox.cif.g08.bks.cpg/sg15_63_cif.got.tgz:124706.got - 2010.06.03 18:47:42.
