data_PCOD9290285
_publ_section_title
;
Structure prediction by ZEFSAII (Michael W. Deem and Ramdas Pophale) SiO2 
 PCOD9290285
Probable space group: C 2/C
;
_chemical_formula_sum "Si O2"
_cell_formula_units_Z 64
_cell_length_a 14.266388
_cell_length_b 24.386970
_cell_length_c 8.292212
_cell_angle_alpha 90.000000
_cell_angle_beta 86.919924
_cell_angle_gamma 90.000000
_cell_volume 2880.808855
_symmetry_space_group_name_H-M "C 2/C"
_symmetry_group_IT_number 15
_symmetry_cell_setting 'monoclinic'
loop_
_space_group_symop_operation_xyz
x,y,z
-x,y,1/2-z
-x,-y,-z
x,-y,1/2+z
1/2+x,1/2+y,z
1/2-x,1/2+y,1/2-z
1/2-x,1/2-y,-z
1/2+x,1/2-y,1/2+z
loop_
_atom_site_type_symbol
_atom_site_label
_atom_site_fract_x
_atom_site_fract_y
_atom_site_fract_z
Si Si1 0.951028 0.380155 0.994589
Si Si2 0.079297 0.125490 0.026768
Si Si3 0.381837 0.657286 0.106317
Si Si4 0.088533 0.742160 0.120895
Si Si5 0.721982 0.535723 0.030209
Si Si6 0.136754 0.386553 0.150793
Si Si7 0.719926 0.289873 0.359203
Si Si8 0.775846 0.574147 0.381677
O O1 0.912064 0.395184 0.174514
O O2 0.062290 0.383467 0.010953
O O3 0.927227 0.318762 0.941810
O O4 0.887492 0.418373 0.887558
O O5 0.102468 0.149982 0.203593
O O6 0.122513 0.064998 0.009643
O O7 0.968035 0.124121 0.017351
O O8 0.135055 0.167873 0.908318
O O9 0.281358 0.630323 0.078009
O O10 0.400440 0.717166 0.032202
O O11 0.182081 0.752957 0.217046
O O12 0.000000 0.753443 0.250000
O O13 0.750815 0.554486 0.205581
O O14 0.792028 0.565625 0.899971
O O15 0.733852 0.471677 0.003867
O O16 0.192002 0.329761 0.169763
O O17 0.750000 0.250000 0.500000
#
# Coordination Sequence:
#
# PCOD9290285 Si02
#       8
#     8   8   8   8   8   8   8   8
#     4  11  26  42  65  96 129 171 220 264 321 385
#     4   9  21  41  65  94 133 168 214 262 321 388
#     4  10  22  41  64  96 131 170 214 263 318 387
#     4  12  25  39  64  99 133 171 214 265 318 383
#     4  10  23  44  68  96 129 169 217 270 330 376
#     4  10  24  44  64  92 129 170 215 267 317 387
#     4  11  23  38  62  90 129 174 209 259 320 376
#     4  11  24  42  68  95 127 171 216 274 322 385
#
# _framework density 22.215982
#
# number of rings (size 3 to 8) (size 9 to 14) (size 15 to 20)
#    0.000    1.500    1.250    2.250    8.750    4.000 
#    0.000    0.000    0.000    0.000    0.000    0.000 
#    0.000    0.000    0.000    0.000    0.000    0.000 
#
# Total GULP energy -178783.716019 kJ/mol
# GULP energy per Si atom -5586.991126 kJ/mol
# Density = 2.216542 g / cm^3
# Si number density = 22.215982 Si / 1000 Ang^3
#
#
#
# Elastic Constant Matrix: (Units=GPa)
#
#
# Indices 1 2 3 4 5 6 
#
# 1 72.3696 -13.5897 4.1146 0.0000 9.3411 0.0000
# 2 -13.5897 51.7747 3.5380 0.0000 -1.9361 0.0000
# 3 4.1146 3.5380 39.4029 0.0000 -6.5088 0.0000
# 4 0.0000 0.0000 0.0000 24.5256 0.0000 4.0706
# 5 9.3411 -1.9361 -6.5088 0.0000 27.4598 0.0000
# 6 0.0000 0.0000 0.0000 4.0706 0.0000 17.2647
#
#
#
# Elastic Compliance Matrix: (Units=1/GPa)
#
#
# Indices 1 2 3 4 5 6 
#
# 1 0.015476 0.004049 -0.002916 0.000000 -0.005670 0.000000
# 2 0.004049 0.020519 -0.002346 0.000000 -0.000487 0.000000
# 3 -0.002916 -0.002346 0.027091 0.000000 0.007248 0.000000
# 4 0.000000 0.000000 0.000000 0.042434 0.000000 -0.010005
# 5 -0.005670 -0.000487 0.007248 0.000000 0.040030 0.000000
# 6 0.000000 0.000000 0.000000 -0.010005 0.000000 0.060281
#
#
# Mechanical properties :
#
#
# Convention : Reuss Voigt Hill
#
# Bulk Modulus (GPa) = 16.48493 16.85255 16.66874
# Shear Modulus (GPa) = 21.88406 25.14897 23.51652
#
# Velocity S-wave (km/s) = 3.14197 3.36820 3.25705
# Velocity P-wave (km/s) = 4.53862 4.76746 4.65444
#
# Compressibility (1/GPa) = 0.06066148
#
# Stress axis : x y z
#
# Youngs Moduli (GPa) = 64.61596 48.73440 36.91227
#
# Poissons Ratio (x) = -0.19734 0.10765
# Poissons Ratio (y) = -0.26165 0.08658
# Poissons Ratio (z) = 0.18844 0.11431
#
# Static dielectric constant tensor:
#      x y z
#    x 1.852200 0.000000 0.005280 
#    y 0.000000 1.788320 0.000000 
#    z 0.005280 0.000000 1.810770 
# 
# From -- ./inp_files/42648.got.cif
#   From: 2010.05.17/outbox.cif.g08.bks.cpg/sg15_22_cif.got.tgz:42648.got - 2010.06.03 18:47:42.
