data_PCOD9290408
_publ_section_title
;
Structure prediction by ZEFSAII (Michael W. Deem and Ramdas Pophale) SiO2 
 PCOD9290408
Probable space group: C 2/C
;
_chemical_formula_sum "Si O2"
_cell_formula_units_Z 48
_cell_length_a 13.504839
_cell_length_b 19.032941
_cell_length_c 12.339784
_cell_angle_alpha 90.000000
_cell_angle_beta 53.132521
_cell_angle_gamma 90.000000
_cell_volume 2537.503245
_symmetry_space_group_name_H-M "C 2/C"
_symmetry_group_IT_number 15
_symmetry_cell_setting 'monoclinic'
loop_
_space_group_symop_operation_xyz
x,y,z
-x,y,1/2-z
-x,-y,-z
x,-y,1/2+z
1/2+x,1/2+y,z
1/2-x,1/2+y,1/2-z
1/2-x,1/2-y,-z
1/2+x,1/2-y,1/2+z
loop_
_atom_site_type_symbol
_atom_site_label
_atom_site_fract_x
_atom_site_fract_y
_atom_site_fract_z
Si Si1 0.256167 0.382965 0.498570
Si Si2 0.000000 0.876870 0.750000
Si Si3 0.000000 0.665210 0.250000
Si Si4 0.094958 0.743343 0.775249
Si Si5 0.713411 0.630870 0.775383
Si Si6 0.469972 0.283817 0.441298
Si Si7 0.382612 0.477648 0.006374
O O1 0.242444 0.379272 0.377196
O O2 0.341601 0.317472 0.482600
O O3 0.323259 0.454766 0.488473
O O4 0.123921 0.377463 0.643852
O O5 0.106293 0.822916 0.722442
O O6 0.062327 0.924021 0.617979
O O7 0.986823 0.718410 0.158314
O O8 0.211274 0.693694 0.716906
O O9 0.000000 0.710582 0.750000
O O10 0.039178 0.757492 0.930237
O O11 0.571488 0.655723 0.862505
O O12 0.712638 0.562248 0.851209
O O13 0.500000 0.500000 0.000000
#
# Coordination Sequence:
#
# PCOD9290408 Si02
#       7
#     8   4   4   8   8   8   8
#     4  12  25  42  67 103 135 176 226 269 341 402
#     4  10  22  41  65  96 134 168 226 274 324 394
#     4  12  24  41  67 102 138 168 224 284 336 392
#     4  10  23  41  63 104 134 169 224 276 346 383
#     4  12  22  42  73  97 133 175 222 289 330 395
#     4  12  21  40  71 103 131 165 227 292 330 389
#     4  12  24  41  66  97 135 177 221 268 330 406
#
# _framework density 18.916231
#
# number of rings (size 3 to 8) (size 9 to 14) (size 15 to 20)
#    0.500    0.000    6.667    2.500    0.000    2.667 
#    1.500    2.500    0.000    0.000    0.000    0.000 
#    0.000    0.000    0.000    0.000    0.000    0.000 
#
# Total GULP energy -133971.122227 kJ/mol
# GULP energy per Si atom -5582.130093 kJ/mol
# Density = 1.887318 g / cm^3
# Si number density = 18.916231 Si / 1000 Ang^3
#
#
#
# Elastic Constant Matrix: (Units=GPa)
#
#
# Indices 1 2 3 4 5 6 
#
# 1 88.7826 52.2819 54.6310 0.0000 13.3151 0.0000
# 2 52.2819 105.4177 45.0019 0.0000 6.8301 0.0000
# 3 54.6310 45.0019 107.8919 0.0000 10.0959 0.0000
# 4 0.0000 0.0000 0.0000 27.0405 0.0000 -3.8571
# 5 13.3151 6.8301 10.0959 0.0000 37.9899 0.0000
# 6 0.0000 0.0000 0.0000 -3.8571 0.0000 43.6007
#
#
#
# Elastic Compliance Matrix: (Units=1/GPa)
#
#
# Indices 1 2 3 4 5 6 
#
# 1 0.020148 -0.006738 -0.007018 0.000000 -0.003985 0.000000
# 2 -0.006738 0.013819 -0.002400 0.000000 0.000515 0.000000
# 3 -0.007018 -0.002400 0.013899 0.000000 -0.000802 0.000000
# 4 0.000000 0.000000 0.000000 0.037454 0.000000 0.003313
# 5 -0.003985 0.000515 -0.000802 0.000000 0.027840 0.000000
# 6 0.000000 0.000000 0.000000 0.003313 0.000000 0.023229
#
#
# Mechanical properties :
#
#
# Convention : Reuss Voigt Hill
#
# Bulk Modulus (GPa) = 64.30139 67.32462 65.81300
# Shear Modulus (GPa) = 28.75456 31.73805 30.24630
#
# Velocity S-wave (km/s) = 3.90308 4.10056 4.00304
# Velocity P-wave (km/s) = 7.37418 7.62153 7.49887
#
# Compressibility (1/GPa) = 0.01555176
#
# Stress axis : x y z
#
# Youngs Moduli (GPa) = 49.63379 72.36369 71.94971
#
# Poissons Ratio (x) = 0.48758 0.50497
# Poissons Ratio (y) = 0.33443 0.17271
# Poissons Ratio (z) = 0.34835 0.17370
#
# Static dielectric constant tensor:
#      x y z
#    x 1.656480 0.000000 -0.024310 
#    y 0.000000 1.652940 0.000000 
#    z -0.024310 0.000000 1.594940 
# 
# From -- ./inp_files/89461.got.cif
#   From: 2010.05.17/outbox.cif.g08.bks.cpg/sg15_45_cif.got.tgz:89461.got - 2010.06.03 18:47:42.
