data_PCOD9290179
_publ_section_title
;
Structure prediction by ZEFSAII (Michael W. Deem and Ramdas Pophale) SiO2 
 PCOD9290179
Probable space group: C 2/C
;
_chemical_formula_sum "Si O2"
_cell_formula_units_Z 44
_cell_length_a 25.224827
_cell_length_b 8.317821
_cell_length_c 15.564306
_cell_angle_alpha 90.000000
_cell_angle_beta 30.627550
_cell_angle_gamma 90.000000
_cell_volume 1663.694405
_symmetry_space_group_name_H-M "C 2/C"
_symmetry_group_IT_number 15
_symmetry_cell_setting 'monoclinic'
loop_
_space_group_symop_operation_xyz
x,y,z
-x,y,1/2-z
-x,-y,-z
x,-y,1/2+z
1/2+x,1/2+y,z
1/2-x,1/2+y,1/2-z
1/2-x,1/2-y,-z
1/2+x,1/2-y,1/2+z
loop_
_atom_site_type_symbol
_atom_site_label
_atom_site_fract_x
_atom_site_fract_y
_atom_site_fract_z
Si Si1 0.632577 0.980559 0.359985
Si Si2 0.643186 0.538939 0.933639
Si Si3 0.500000 0.309360 0.250000
Si Si4 0.475655 0.738728 0.088955
Si Si5 0.336285 0.884805 0.874937
Si Si6 0.879957 0.704769 0.892208
O O1 0.541778 0.097820 0.518971
O O2 0.656971 0.053529 0.231664
O O3 0.740516 0.997582 0.259784
O O4 0.588890 0.800422 0.403370
O O5 0.581278 0.415239 0.081159
O O6 0.564599 0.603057 0.969721
O O7 0.664117 0.684026 0.972407
O O8 0.561347 0.200085 0.231509
O O9 0.396255 0.705918 0.277629
O O10 0.321134 0.041360 0.954486
O O11 0.250000 0.750000 0.000000
O O12 0.000000 0.672805 0.750000
#
# Coordination Sequence:
#
# PCOD9290179 Si02
#       6
#     8   8   4   8   8   8
#     4  10  22  41  63  90 130 168 203 258 333 378
#     4  11  21  41  69  94 118 172 221 260 306 390
#     4  12  22  38  64  96 124 156 226 276 296 382
#     4   9  20  41  61  88 126 162 206 261 314 376
#     4  11  22  37  59  93 128 162 203 263 325 372
#     4   9  18  37  65  85 117 165 204 252 313 367
#
# _framework density 26.447164000000001
#
# number of rings (size 3 to 8) (size 9 to 14) (size 15 to 20)
#    0.000    1.818    5.455    0.000    0.000    4.364 
#   16.364    0.909    0.000    0.000    0.000    0.000 
#    0.000    0.000    0.000    0.000    0.000    0.000 
#
# Total GULP energy -123145.126902 kJ/mol
# GULP energy per Si atom -5597.505768 kJ/mol
# Density = 2.638697 g / cm^3
# Si number density = 26.447164 Si / 1000 Ang^3
#
#
#
# Elastic Constant Matrix: (Units=GPa)
#
#
# Indices 1 2 3 4 5 6 
#
# 1 98.5629 38.0944 43.4643 0.0002 -17.5538 0.0000
# 2 38.0944 66.2376 20.5905 0.0005 -14.7598 -0.0002
# 3 43.4643 20.5905 86.8722 0.0006 -17.8016 -0.0001
# 4 0.0002 0.0005 0.0006 45.0496 -0.0002 -14.7788
# 5 -17.5538 -14.7598 -17.8016 -0.0002 54.9191 0.0000
# 6 0.0000 -0.0002 -0.0001 -14.7788 0.0000 51.7009
#
#
#
# Elastic Compliance Matrix: (Units=1/GPa)
#
#
# Indices 1 2 3 4 5 6 
#
# 1 0.015643 -0.006875 -0.005946 0.000000 0.001225 0.000000
# 2 -0.006875 0.019916 -0.000679 0.000000 0.002935 0.000000
# 3 -0.005946 -0.000679 0.015232 0.000000 0.002854 0.000000
# 4 0.000000 0.000000 0.000000 0.024495 0.000000 0.007002
# 5 0.001225 0.002935 0.002854 0.000000 0.020314 0.000000
# 6 0.000000 0.000000 0.000000 0.007002 0.000000 0.021343
#
#
# Mechanical properties :
#
#
# Convention : Reuss Voigt Hill
#
# Bulk Modulus (GPa) = 42.03403 50.66344 46.34873
# Shear Modulus (GPa) = 32.92157 40.30218 36.61188
#
# Velocity S-wave (km/s) = 3.53201 3.90792 3.72471
# Velocity P-wave (km/s) = 5.70627 6.28971 6.00508
#
# Compressibility (1/GPa) = 0.02379025
#
# Stress axis : x y z
#
# Youngs Moduli (GPa) = 63.92456 50.20966 65.65102
#
# Poissons Ratio (x) = 0.34521 0.39037
# Poissons Ratio (y) = 0.43951 0.04459
# Poissons Ratio (z) = 0.38011 0.03410
#
# Static dielectric constant tensor:
#      x y z
#    x 2.134040 0.000000 -0.055040 
#    y 0.000000 2.117460 0.000000 
#    z -0.055040 0.000000 2.035840 
# 
# From -- ./inp_files/165708.got.cif
#   From: 2010.05.17/outbox.cif.g08.bks.cpg/sg15_83_cif.got.tgz:165708.got - 2010.06.03 18:47:42.
