data_PCOD9290691
_publ_section_title
;
Structure prediction by ZEFSAII (Michael W. Deem and Ramdas Pophale) SiO2 
 PCOD9290691
Probable space group: C 2/C
;
_chemical_formula_sum "Si O2"
_cell_formula_units_Z 64
_cell_length_a 11.281871
_cell_length_b 14.829283
_cell_length_c 19.252295
_cell_angle_alpha 90.000000
_cell_angle_beta 93.720043
_cell_angle_gamma 90.000000
_cell_volume 3214.161977
_symmetry_space_group_name_H-M "C 2/C"
_symmetry_group_IT_number 15
_symmetry_cell_setting 'monoclinic'
loop_
_space_group_symop_operation_xyz
x,y,z
-x,y,1/2-z
-x,-y,-z
x,-y,1/2+z
1/2+x,1/2+y,z
1/2-x,1/2+y,1/2-z
1/2-x,1/2-y,-z
1/2+x,1/2-y,1/2+z
loop_
_atom_site_type_symbol
_atom_site_label
_atom_site_fract_x
_atom_site_fract_y
_atom_site_fract_z
Si Si1 0.142652 0.743407 0.250650
Si Si2 0.670902 0.770987 0.910644
Si Si3 0.036573 0.452956 0.929331
Si Si4 0.828097 0.836896 0.517895
Si Si5 0.295325 0.514609 0.908791
Si Si6 0.640956 0.545409 0.743223
Si Si7 0.596428 0.341667 0.517530
Si Si8 0.708760 0.082904 0.150290
O O1 0.181096 0.717061 0.329420
O O2 0.174518 0.848378 0.241119
O O3 0.192065 0.673915 0.195600
O O4 0.000000 0.736905 0.250000
O O5 0.585742 0.850160 0.937532
O O6 0.804377 0.778764 0.943589
O O7 0.612570 0.678667 0.936076
O O8 0.153595 0.502910 0.906346
O O9 0.922982 0.452027 0.874741
O O10 0.000000 0.500000 0.000000
O O11 0.750000 0.750000 0.500000
O O12 0.827650 0.892682 0.446510
O O13 0.771515 0.891999 0.579742
O O14 0.965814 0.818729 0.537830
O O15 0.334464 0.505261 0.831621
O O16 0.361640 0.440139 0.958370
O O17 0.500000 0.539725 0.750000
O O18 0.715567 0.489911 0.803299
#
# Coordination Sequence:
#
# PCOD9290691 Si02
#       8
#     8   8   8   8   8   8   8   8
#     4  11  24  43  71  94 135 180 233 272 337 423
#     4  10  22  41  68  98 128 177 227 283 333 411
#     4  11  22  41  67 103 135 169 227 288 343 413
#     4  12  25  40  66  98 139 179 222 280 349 407
#     4  11  24  43  65  96 136 176 226 289 338 402
#     4  11  27  44  68 100 137 179 237 284 342 414
#     4  10  23  39  68  94 131 169 228 276 339 399
#     4  12  24  43  71  98 137 185 223 282 354 408
#
# _framework density 19.911878000000002
#
# number of rings (size 3 to 8) (size 9 to 14) (size 15 to 20)
#    0.000    1.000    2.500    4.125    5.250    1.000 
#    0.000    0.000    5.500    0.000    0.000    0.000 
#    0.000    0.000    0.000    0.000    0.000    0.000 
#
# Total GULP energy -178760.683519 kJ/mol
# GULP energy per Si atom -5586.271360 kJ/mol
# Density = 1.986656 g / cm^3
# Si number density = 19.911878 Si / 1000 Ang^3
#
#
#
# Elastic Constant Matrix: (Units=GPa)
#
#
# Indices 1 2 3 4 5 6 
#
# 1 144.5452 39.0133 35.2285 0.0000 13.2063 0.0000
# 2 39.0133 77.5521 19.7032 0.0000 15.9192 0.0000
# 3 35.2285 19.7032 94.1410 0.0000 8.1600 0.0000
# 4 0.0000 0.0000 0.0000 36.8356 0.0000 -1.1497
# 5 13.2063 15.9192 8.1600 0.0000 31.1386 0.0000
# 6 0.0000 0.0000 0.0000 -1.1497 0.0000 19.2032
#
#
#
# Elastic Compliance Matrix: (Units=1/GPa)
#
#
# Indices 1 2 3 4 5 6 
#
# 1 0.008537 -0.003438 -0.002367 0.000000 -0.001243 0.000000
# 2 -0.003438 0.016356 -0.001574 0.000000 -0.006491 0.000000
# 3 -0.002367 -0.001574 0.011952 0.000000 -0.001323 0.000000
# 4 0.000000 0.000000 0.000000 0.027198 0.000000 0.001628
# 5 -0.001243 -0.006491 -0.001323 0.000000 0.036307 0.000000
# 6 0.000000 0.000000 0.000000 0.001628 0.000000 0.052172
#
#
# Mechanical properties :
#
#
# Convention : Reuss Voigt Hill
#
# Bulk Modulus (GPa) = 45.27581 56.01425 50.64503
# Shear Modulus (GPa) = 28.62969 32.25505 30.44237
#
# Velocity S-wave (km/s) = 3.79597 4.02915 3.91430
# Velocity P-wave (km/s) = 6.48074 7.05957 6.77634
#
# Compressibility (1/GPa) = 0.02208685
#
# Stress axis : x y z
#
# Youngs Moduli (GPa) = 117.14220 61.13780 83.66536
#
# Poissons Ratio (x) = 0.21019 0.19806
# Poissons Ratio (y) = 0.40273 0.13170
# Poissons Ratio (z) = 0.27730 0.09624
#
# Static dielectric constant tensor:
#      x y z
#    x 1.693720 0.000000 0.031210 
#    y 0.000000 1.748590 0.000000 
#    z 0.031210 0.000000 1.764350 
# 
# From -- ./inp_files/198354.got.cif
#   From: 2010.05.17/outbox.cif.g08.bks.cpg/sg15_100_cif.got.tgz:198354.got - 2010.06.03 18:47:42.
