data_PCOD9290902
_publ_section_title
;
Structure prediction by ZEFSAII (Michael W. Deem and Ramdas Pophale) SiO2 
 PCOD9290902
Probable space group: C 2/C
;
_chemical_formula_sum "Si O2"
_cell_formula_units_Z 48
_cell_length_a 21.959019
_cell_length_b 21.097773
_cell_length_c 5.849215
_cell_angle_alpha 90.000000
_cell_angle_beta 131.781165
_cell_angle_gamma 90.000000
_cell_volume 2020.730548
_symmetry_space_group_name_H-M "C 2/C"
_symmetry_group_IT_number 15
_symmetry_cell_setting 'monoclinic'
loop_
_space_group_symop_operation_xyz
x,y,z
-x,y,1/2-z
-x,-y,-z
x,-y,1/2+z
1/2+x,1/2+y,z
1/2-x,1/2+y,1/2-z
1/2-x,1/2-y,-z
1/2+x,1/2-y,1/2+z
loop_
_atom_site_type_symbol
_atom_site_label
_atom_site_fract_x
_atom_site_fract_y
_atom_site_fract_z
Si Si1 0.239082 0.509449 0.453726
Si Si2 0.694520 0.690910 0.303005
Si Si3 0.531147 0.327255 0.580023
Si Si4 0.414692 0.085453 0.969092
Si Si5 0.913433 0.718730 0.253304
Si Si6 0.332097 0.867240 0.873432
O O1 0.280693 0.495026 0.803962
O O2 0.204317 0.580780 0.385079
O O3 0.159533 0.464494 0.215361
O O4 0.750000 0.750000 0.500000
O O5 0.629387 0.667196 0.323780
O O6 0.759836 0.641754 0.375465
O O7 0.635547 0.721366 0.967164
O O8 0.500000 0.351794 0.750000
O O9 0.501422 0.252547 0.502736
O O10 0.500000 0.353253 0.250000
O O11 0.500000 0.054897 0.250000
O O12 0.411355 0.152809 0.102424
O O13 0.411745 0.106813 0.698632
O O14 0.859800 0.697836 0.334256
#
# Coordination Sequence:
#
# PCOD9290902 Si02
#       6
#     8   8   8   8   8   8
#     4  10  22  42  56  83 118 156 208 249 286 346
#     4  11  21  38  57  87 118 158 202 250 303 361
#     4  10  23  39  57  81 119 155 196 241 291 360
#     4  11  23  38  56  83 122 163 207 244 289 351
#     4  11  22  38  57  85 118 163 196 244 299 360
#     4  11  23  38  61  84 118 165 206 249 302 350
#
# _framework density 23.753786999999999
#
# number of rings (size 3 to 8) (size 9 to 14) (size 15 to 20)
#    0.000    1.333    3.333    3.000    4.667    4.000 
#    0.000    0.000    0.000    0.000    0.000    0.000 
#    0.000   69.333    0.000    0.000    0.000    0.500 
#
# Total GULP energy -133631.306574 kJ/mol
# GULP energy per Si atom -5567.971107 kJ/mol
# Density = 2.369972 g / cm^3
# Si number density = 23.753787 Si / 1000 Ang^3
#
#
#
# Elastic Constant Matrix: (Units=GPa)
#
#
# Indices 1 2 3 4 5 6 
#
# 1 123.6966 -3.4965 38.1947 0.0000 -9.7817 0.0000
# 2 -3.4965 40.3843 -12.4034 0.0000 7.4314 0.0000
# 3 38.1947 -12.4034 44.7211 0.0000 -12.7059 0.0000
# 4 0.0000 0.0000 0.0000 14.2257 0.0000 -11.0870
# 5 -9.7817 7.4314 -12.7059 0.0000 41.7855 0.0000
# 6 0.0000 0.0000 0.0000 -11.0870 0.0000 25.1831
#
#
#
# Elastic Compliance Matrix: (Units=1/GPa)
#
#
# Indices 1 2 3 4 5 6 
#
# 1 0.011147 -0.002131 -0.010138 0.000000 -0.000094 0.000000
# 2 -0.002131 0.027772 0.008732 0.000000 -0.002783 0.000000
# 3 -0.010138 0.008732 0.035383 0.000000 0.006833 0.000000
# 4 0.000000 0.000000 0.000000 0.107014 0.000000 0.047113
# 5 -0.000094 -0.002783 0.006833 0.000000 0.026482 0.000000
# 6 0.000000 0.000000 0.000000 0.047113 0.000000 0.060451
#
#
# Mechanical properties :
#
#
# Convention : Reuss Voigt Hill
#
# Bulk Modulus (GPa) = 14.87512 28.15460 21.51486
# Shear Modulus (GPa) = 16.79363 28.67266 22.73314
#
# Velocity S-wave (km/s) = 2.66181 3.47807 3.09695
# Velocity P-wave (km/s) = 3.96519 5.29223 4.67603
#
# Compressibility (1/GPa) = 0.06722634
#
# Stress axis : x y z
#
# Youngs Moduli (GPa) = 89.70997 36.00804 28.26252
#
# Poissons Ratio (x) = 0.07674 0.28653
# Poissons Ratio (y) = 0.19120 -0.24679
# Poissons Ratio (z) = 0.90950 -0.31442
#
# Static dielectric constant tensor:
#      x y z
#    x 1.956530 0.000000 -0.197320 
#    y 0.000000 1.765750 0.000000 
#    z -0.197320 0.000000 1.908480 
# 
# From -- ./inp_files/10726.got.cif
#   From: 2010.05.17/outbox.cif.g08.bks.cpg/sg15_6_cif.got.tgz:10726.got - 2010.06.03 18:47:42.
