data_PCOD9290174
_publ_section_title
;
Structure prediction by ZEFSAII (Michael W. Deem and Ramdas Pophale) SiO2 
 PCOD9290174
Probable space group: C 2/C
;
_chemical_formula_sum "Si O2"
_cell_formula_units_Z 56
_cell_length_a 19.058902
_cell_length_b 15.020044
_cell_length_c 10.159212
_cell_angle_alpha 90.000000
_cell_angle_beta 74.217134
_cell_angle_gamma 90.000000
_cell_volume 2798.590197
_symmetry_space_group_name_H-M "C 2/C"
_symmetry_group_IT_number 15
_symmetry_cell_setting 'monoclinic'
loop_
_space_group_symop_operation_xyz
x,y,z
-x,y,1/2-z
-x,-y,-z
x,-y,1/2+z
1/2+x,1/2+y,z
1/2-x,1/2+y,1/2-z
1/2-x,1/2-y,-z
1/2+x,1/2-y,1/2+z
loop_
_atom_site_type_symbol
_atom_site_label
_atom_site_fract_x
_atom_site_fract_y
_atom_site_fract_z
Si Si1 0.007083 0.276887 0.590717
Si Si2 0.222291 0.446449 0.985871
Si Si3 0.845071 0.358548 0.983683
Si Si4 0.843526 0.688334 0.179095
Si Si5 0.017471 0.097616 0.439035
Si Si6 0.290329 0.800464 0.291708
Si Si7 0.125611 0.875551 0.659119
O O1 0.925993 0.301978 0.587687
O O2 0.030823 0.179207 0.530969
O O3 0.000000 0.273370 0.750000
O O4 0.068967 0.348976 0.526022
O O5 0.188805 0.543760 0.010573
O O6 0.190981 0.398179 0.871524
O O7 0.309898 0.438708 0.926567
O O8 0.199903 0.387599 0.124235
O O9 0.807362 0.313307 0.129109
O O10 0.838215 0.316502 0.840786
O O11 0.793480 0.769349 0.155704
O O12 0.944417 0.127980 0.399171
O O13 0.088714 0.089810 0.311936
O O14 0.000000 0.000000 0.500000
O O15 0.338906 0.720251 0.325862
#
# Coordination Sequence:
#
# PCOD9290174 Si02
#       7
#     8   8   8   8   8   8   8
#     4  10  22  41  63  89 130 168 206 264 330 384
#     4  11  23  40  65  95 132 167 221 270 318 387
#     4  11  23  40  63  97 129 170 221 268 324 389
#     4  10  22  41  65  90 128 172 215 263 327 390
#     4  11  23  40  65  95 126 162 217 267 330 394
#     4  11  21  42  66  92 128 177 217 264 329 389
#     4  10  23  41  63  93 127 170 213 267 331 390
#
# _framework density 20.010075000000001
#
# number of rings (size 3 to 8) (size 9 to 14) (size 15 to 20)
#    0.000    1.429    1.429    4.714    2.000    5.143 
#    2.571    1.429    0.000    0.000    0.000    0.000 
#    0.000    0.000    0.000    0.000    0.000    0.000 
#
# Total GULP energy -156271.318107 kJ/mol
# GULP energy per Si atom -5581.118504 kJ/mol
# Density = 1.996453 g / cm^3
# Si number density = 20.010075 Si / 1000 Ang^3
#
#
#
# Elastic Constant Matrix: (Units=GPa)
#
#
# Indices 1 2 3 4 5 6 
#
# 1 86.0779 41.1072 23.8143 0.0000 -14.6207 0.0000
# 2 41.1072 99.4601 24.2450 0.0000 -16.8022 0.0000
# 3 23.8143 24.2450 70.8321 0.0000 -21.2864 0.0000
# 4 0.0000 0.0000 0.0000 31.9734 0.0000 -0.0668
# 5 -14.6207 -16.8022 -21.2864 0.0000 28.4996 0.0000
# 6 0.0000 0.0000 0.0000 -0.0668 0.0000 19.5676
#
#
#
# Elastic Compliance Matrix: (Units=1/GPa)
#
#
# Indices 1 2 3 4 5 6 
#
# 1 0.015293 -0.005224 -0.002477 0.000000 0.002915 0.000000
# 2 -0.005224 0.013270 -0.001599 0.000000 0.003949 0.000000
# 3 -0.002477 -0.001599 0.019126 0.000000 0.012072 0.000000
# 4 0.000000 0.000000 0.000000 0.031276 0.000000 0.000107
# 5 0.002915 0.003949 0.012072 0.000000 0.047928 0.000000
# 6 0.000000 0.000000 0.000000 0.000107 0.000000 0.051105
#
#
# Mechanical properties :
#
#
# Convention : Reuss Voigt Hill
#
# Bulk Modulus (GPa) = 34.37858 48.30034 41.33946
# Shear Modulus (GPa) = 24.23702 27.15502 25.69602
#
# Velocity S-wave (km/s) = 3.48406 3.68784 3.58740
# Velocity P-wave (km/s) = 5.77952 6.50568 6.15332
#
# Compressibility (1/GPa) = 0.02908788
#
# Stress axis : x y z
#
# Youngs Moduli (GPa) = 65.39042 75.35557 52.28528
#
# Poissons Ratio (x) = 0.39367 0.12953
# Poissons Ratio (y) = 0.34161 0.08361
# Poissons Ratio (z) = 0.16199 0.12050
#
# Static dielectric constant tensor:
#      x y z
#    x 1.741380 0.000000 -0.002300 
#    y 0.000000 1.676500 0.000000 
#    z -0.002300 0.000000 1.727480 
# 
# From -- ./inp_files/105303.got.cif
#   From: 2010.05.17/outbox.cif.g08.bks.cpg/sg15_53_cif.got.tgz:105303.got - 2010.06.03 18:47:42.
