data_PCOD9290001
_publ_section_title
;
Structure prediction by ZEFSAII (Michael W. Deem and Ramdas Pophale) SiO2 
 PCOD9290001
Probable space group: C 2/C
;
_chemical_formula_sum "Si O2"
_cell_formula_units_Z 36
_cell_length_a 27.195473
_cell_length_b 5.034651
_cell_length_c 17.413747
_cell_angle_alpha 90.000000
_cell_angle_beta 138.234691
_cell_angle_gamma 90.000000
_cell_volume 1588.127085
_symmetry_space_group_name_H-M "C 2/C"
_symmetry_group_IT_number 15
_symmetry_cell_setting 'monoclinic'
loop_
_space_group_symop_operation_xyz
x,y,z
-x,y,1/2-z
-x,-y,-z
x,-y,1/2+z
1/2+x,1/2+y,z
1/2-x,1/2+y,1/2-z
1/2-x,1/2-y,-z
1/2+x,1/2-y,1/2+z
loop_
_atom_site_type_symbol
_atom_site_label
_atom_site_fract_x
_atom_site_fract_y
_atom_site_fract_z
Si Si1 0.000000 0.754455 0.250000
Si Si2 0.433437 0.269531 0.476897
Si Si3 0.875498 0.692245 0.988560
Si Si4 0.741114 0.499193 0.433095
Si Si5 0.424973 0.465624 0.805146
O O1 0.936537 0.618514 0.125080
O O2 0.953218 0.920278 0.257316
O O3 0.392468 0.505761 0.479379
O O4 0.516091 0.236539 0.607213
O O5 0.438219 0.349368 0.394244
O O6 0.390940 0.996651 0.435215
O O7 0.798977 0.589324 0.934818
O O8 0.750000 0.750000 0.500000
O O9 0.661984 0.559567 0.303301
O O10 0.750000 0.250000 0.500000
#
# Coordination Sequence:
#
# PCOD9290001 Si02
#       5
#     4   8   8   8   8
#     4  10  22  40  72  94 136 172 222 274 312 406
#     4  10  25  44  69  97 131 179 215 274 323 399
#     4  11  24  43  67 100 132 173 222 264 339 382
#     4  12  26  42  66 102 132 170 215 279 325 385
#     4  10  24  45  68  98 136 171 225 267 332 386
#
# _framework density 22.668213000000002
#
# number of rings (size 3 to 8) (size 9 to 14) (size 15 to 20)
#    0.000    1.333    2.222    1.333    6.222   12.444 
#    0.000    0.000    0.000    0.000    0.000    0.000 
#    0.000    0.000    0.000    0.000    0.000    0.000 
#
# Total GULP energy -100381.596495 kJ/mol
# GULP energy per Si atom -5576.755361 kJ/mol
# Density = 2.261662 g / cm^3
# Si number density = 22.668213 Si / 1000 Ang^3
#
#
#
# Elastic Constant Matrix: (Units=GPa)
#
#
# Indices 1 2 3 4 5 6 
#
# 1 127.9214 14.7471 29.1595 0.0002 9.9253 0.0002
# 2 14.7471 99.6343 14.8513 0.0003 7.2425 0.0006
# 3 29.1595 14.8513 106.1107 0.0002 14.1520 0.0003
# 4 0.0002 0.0003 0.0002 -1.0216 0.0001 -2.6856
# 5 9.9253 7.2425 14.1520 0.0001 49.2562 0.0000
# 6 0.0002 0.0006 0.0003 -2.6856 0.0000 35.3716
#
#
#
# Elastic Compliance Matrix: (Units=1/GPa)
#
#
# Indices 1 2 3 4 5 6 
#
# 1 0.008467 -0.000873 -0.002074 0.000001 -0.000982 0.000000
# 2 -0.000873 0.010402 -0.001077 0.000003 -0.001044 0.000000
# 3 -0.002074 -0.001077 0.010469 0.000001 -0.002432 0.000000
# 4 0.000001 0.000003 0.000001 -0.816017 0.000001 -0.061957
# 5 -0.000982 -0.001044 -0.002432 0.000001 0.021352 0.000000
# 6 0.000000 0.000000 0.000000 -0.061957 0.000000 0.023567
#
#
# Mechanical properties :
#
#
# Convention : Reuss Voigt Hill
#
# Bulk Modulus (GPa) = 46.96637 50.13136 48.54887
# Shear Modulus (GPa) = -6.88122 35.04848 14.08363
#
# Velocity S-wave (km/s) = -1.74419 3.93638 2.49528
# Velocity P-wave (km/s) = 4.08751 6.54396 5.45578
#
# Compressibility (1/GPa) = 0.02129183
#
# Stress axis : x y z
#
# Youngs Moduli (GPa) = 118.10884 96.13267 95.52034
#
# Poissons Ratio (x) = 0.08390 0.19807
# Poissons Ratio (y) = 0.10308 0.10286
# Poissons Ratio (z) = 0.24491 0.10352
#
# Static dielectric constant tensor:
#      x y z
#    x 1.924700 0.000000 0.018590 
#    y 0.000000 1.862840 0.000000 
#    z 0.018590 0.000000 1.903180 
# 
# From -- ./inp_files/175268.got.cif
#   From: 2010.05.17/outbox.cif.g08.bks.cpg/sg15_88_cif.got.tgz:175268.got - 2010.06.03 18:47:42.
