data_PCOD9290338
_publ_section_title
;
Structure prediction by ZEFSAII (Michael W. Deem and Ramdas Pophale) SiO2 
 PCOD9290338
Probable space group: C 2/C
;
_chemical_formula_sum "Si O2"
_cell_formula_units_Z 64
_cell_length_a 28.283588
_cell_length_b 15.722011
_cell_length_c 8.973862
_cell_angle_alpha 90.000000
_cell_angle_beta 52.707432
_cell_angle_gamma 90.000000
_cell_volume 3174.611606
_symmetry_space_group_name_H-M "C 2/C"
_symmetry_group_IT_number 15
_symmetry_cell_setting 'monoclinic'
loop_
_space_group_symop_operation_xyz
x,y,z
-x,y,1/2-z
-x,-y,-z
x,-y,1/2+z
1/2+x,1/2+y,z
1/2-x,1/2+y,1/2-z
1/2-x,1/2-y,-z
1/2+x,1/2-y,1/2+z
loop_
_atom_site_type_symbol
_atom_site_label
_atom_site_fract_x
_atom_site_fract_y
_atom_site_fract_z
Si Si1 0.303379 0.315879 0.427351
Si Si2 0.666118 0.172127 0.607057
Si Si3 0.594990 0.751819 0.982111
Si Si4 0.949236 0.603878 0.130237
Si Si5 0.565765 0.432718 0.590811
Si Si6 0.144928 0.006991 0.693694
Si Si7 0.582708 0.936780 0.470919
Si Si8 0.801281 0.838888 0.771083
O O1 0.250000 0.250000 0.500000
O O2 0.350461 0.284887 0.217029
O O3 0.304509 0.419358 0.407758
O O4 0.318562 0.308954 0.572747
O O5 0.619658 0.187487 0.563744
O O6 0.637076 0.108676 0.782719
O O7 0.730291 0.145955 0.419547
O O8 0.679048 0.263399 0.657378
O O9 0.558643 0.805061 0.930721
O O10 0.565492 0.669030 0.110363
O O11 0.921510 0.535902 0.066643
O O12 0.919011 0.584995 0.349442
O O13 0.019388 0.593737 0.024887
O O14 0.500000 0.466179 0.750000
O O15 0.618366 0.472488 0.590072
O O16 0.587205 0.453404 0.384042
O O17 0.167899 0.925363 0.738062
#
# Coordination Sequence:
#
# PCOD9290338 Si02
#       8
#     8   8   8   8   8   8   8   8
#     4  11  23  43  66  92 130 173 218 272 327 400
#     4  11  23  38  65  94 130 166 221 271 327 394
#     4  11  23  38  64  96 127 173 218 273 335 394
#     4  10  22  41  65  90 132 172 218 272 334 398
#     4  11  24  42  65  98 128 173 221 274 333 403
#     4  11  23  43  68  92 135 172 215 277 335 391
#     4  10  22  42  63  95 130 174 219 275 331 394
#     4  11  23  43  64  94 130 175 214 271 324 395
#
# _framework density 20.159945
#
# number of rings (size 3 to 8) (size 9 to 14) (size 15 to 20)
#    0.000    1.250    3.750    1.875    1.750    2.000 
#    2.250    0.000    0.000    0.000    0.000    0.000 
#    0.000    0.000    0.000    0.000    0.000    0.000 
#
# Total GULP energy -178431.321260 kJ/mol
# GULP energy per Si atom -5575.978789 kJ/mol
# Density = 2.011406 g / cm^3
# Si number density = 20.159945 Si / 1000 Ang^3
#
#
#
# Elastic Constant Matrix: (Units=GPa)
#
#
# Indices 1 2 3 4 5 6 
#
# 1 45.1796 25.4933 2.2977 0.0000 14.6499 0.0000
# 2 25.4933 84.3005 -16.0622 0.0000 0.3336 0.0000
# 3 2.2977 -16.0622 42.1420 0.0000 0.5363 0.0000
# 4 0.0000 0.0000 0.0000 21.8458 0.0000 13.2074
# 5 14.6499 0.3336 0.5363 0.0000 33.3560 0.0000
# 6 0.0000 0.0000 0.0000 13.2074 0.0000 26.4423
#
#
#
# Elastic Compliance Matrix: (Units=1/GPa)
#
#
# Indices 1 2 3 4 5 6 
#
# 1 0.033436 -0.011178 -0.005899 0.000000 -0.014478 0.000000
# 2 -0.011178 0.016530 0.006851 0.000000 0.004634 0.000000
# 3 -0.005899 0.006851 0.026635 0.000000 0.002094 0.000000
# 4 0.000000 0.000000 0.000000 0.065578 0.000000 -0.032755
# 5 -0.014478 0.004634 0.002094 0.000000 0.036259 0.000000
# 6 0.000000 0.000000 0.000000 -0.032755 0.000000 0.054178
#
#
# Mechanical properties :
#
#
# Convention : Reuss Voigt Hill
#
# Bulk Modulus (GPa) = 17.81017 21.67553 19.74285
# Shear Modulus (GPa) = 18.39687 26.98839 22.69263
#
# Velocity S-wave (km/s) = 3.02411 3.66281 3.35868
# Velocity P-wave (km/s) = 4.58773 5.35382 4.98551
#
# Compressibility (1/GPa) = 0.05614769
#
# Stress axis : x y z
#
# Youngs Moduli (GPa) = 29.90781 60.49731 37.54409
#
# Poissons Ratio (x) = 0.67625 0.22148
# Poissons Ratio (y) = 0.33431 -0.25720
# Poissons Ratio (z) = 0.17643 -0.41445
#
# Static dielectric constant tensor:
#      x y z
#    x 1.693300 0.000000 0.081020 
#    y 0.000000 1.734720 0.000000 
#    z 0.081020 0.000000 1.452190 
# 
# From -- ./inp_files/70137.got.cif
#   From: 2010.05.17/outbox.cif.g08.bks.cpg/sg15_36_cif.got.tgz:70137.got - 2010.06.03 18:47:42.
