data_PCOD9290513
_publ_section_title
;
Structure prediction by ZEFSAII (Michael W. Deem and Ramdas Pophale) SiO2 
 PCOD9290513
Probable space group: C 2/C
;
_chemical_formula_sum "Si O2"
_cell_formula_units_Z 56
_cell_length_a 14.082223
_cell_length_b 18.798157
_cell_length_c 11.785569
_cell_angle_alpha 90.000000
_cell_angle_beta 59.169940
_cell_angle_gamma 90.000000
_cell_volume 2679.008091
_symmetry_space_group_name_H-M "C 2/C"
_symmetry_group_IT_number 15
_symmetry_cell_setting 'monoclinic'
loop_
_space_group_symop_operation_xyz
x,y,z
-x,y,1/2-z
-x,-y,-z
x,-y,1/2+z
1/2+x,1/2+y,z
1/2-x,1/2+y,1/2-z
1/2-x,1/2-y,-z
1/2+x,1/2-y,1/2+z
loop_
_atom_site_type_symbol
_atom_site_label
_atom_site_fract_x
_atom_site_fract_y
_atom_site_fract_z
Si Si1 0.544395 0.829439 0.096295
Si Si2 0.695791 0.804510 0.345623
Si Si3 0.368313 0.421490 0.825913
Si Si4 0.117277 0.850789 0.921709
Si Si5 0.557846 0.013288 0.589172
Si Si6 0.225680 0.070031 0.552869
Si Si7 0.361411 0.316591 0.036860
O O1 0.500000 0.818785 0.250000
O O2 0.430951 0.829935 0.092894
O O3 0.600250 0.905783 0.049493
O O4 0.619280 0.762545 0.022203
O O5 0.681933 0.723859 0.397720
O O6 0.762367 0.857859 0.384487
O O7 0.763261 0.810896 0.187041
O O8 0.500000 0.429603 0.750000
O O9 0.348047 0.377928 0.723811
O O10 0.320312 0.500882 0.854563
O O11 0.337687 0.374409 0.954313
O O12 0.152886 0.910383 0.989111
O O13 0.984732 0.837264 0.008401
O O14 0.500000 0.015299 0.750000
O O15 0.500000 0.000000 0.500000
O O16 0.650965 0.954769 0.550644
#
# Coordination Sequence:
#
# PCOD9290513 Si02
#       7
#     8   8   8   8   8   8   8
#     4  10  22  41  66  98 131 166 228 282 330 405
#     4  11  24  43  69  95 134 175 222 267 339 402
#     4  10  25  42  67  98 131 168 221 277 333 395
#     4  10  25  46  63  98 132 172 225 271 324 410
#     4  11  26  45  67 102 139 175 224 282 341 404
#     4  12  27  42  69  95 135 175 219 267 342 399
#     4  10  23  42  69  97 128 174 219 280 334 395
#
# _framework density 20.903258999999998
#
# number of rings (size 3 to 8) (size 9 to 14) (size 15 to 20)
#    0.000    1.429    1.429    2.571   12.000    2.286 
#    0.000    0.000    0.000    0.000    0.000    0.000 
#    0.000    0.000    0.000    0.000    0.000    0.000 
#
# Total GULP energy -156309.941554 kJ/mol
# GULP energy per Si atom -5582.497913 kJ/mol
# Density = 2.085568 g / cm^3
# Si number density = 20.903259 Si / 1000 Ang^3
#
#
#
# Elastic Constant Matrix: (Units=GPa)
#
#
# Indices 1 2 3 4 5 6 
#
# 1 69.8659 37.5245 21.3900 0.0000 2.4567 0.0000
# 2 37.5245 119.2194 25.2439 0.0000 -5.5483 0.0000
# 3 21.3900 25.2439 44.2820 0.0000 -8.2220 0.0000
# 4 0.0000 0.0000 0.0000 21.0145 0.0000 -8.1467
# 5 2.4567 -5.5483 -8.2220 0.0000 20.2554 0.0000
# 6 0.0000 0.0000 0.0000 -8.1467 0.0000 30.1508
#
#
#
# Elastic Compliance Matrix: (Units=1/GPa)
#
#
# Indices 1 2 3 4 5 6 
#
# 1 0.019585 -0.004789 -0.008019 0.000000 -0.006942 0.000000
# 2 -0.004789 0.010714 -0.003398 0.000000 0.002137 0.000000
# 3 -0.008019 -0.003398 0.030716 0.000000 0.012510 0.000000
# 4 0.000000 0.000000 0.000000 0.053154 0.000000 0.014362
# 5 -0.006942 0.002137 0.012510 0.000000 0.055875 0.000000
# 6 0.000000 0.000000 0.000000 0.014362 0.000000 0.037047
#
#
# Mechanical properties :
#
#
# Convention : Reuss Voigt Hill
#
# Bulk Modulus (GPa) = 34.96189 44.63157 39.79673
# Shear Modulus (GPa) = 20.07735 24.23139 22.15437
#
# Velocity S-wave (km/s) = 3.10254 3.40842 3.25907
# Velocity P-wave (km/s) = 5.44024 6.07352 5.76558
#
# Compressibility (1/GPa) = 0.02860257
#
# Stress axis : x y z
#
# Youngs Moduli (GPa) = 51.06029 93.33365 32.55665
#
# Poissons Ratio (x) = 0.44702 0.26107
# Poissons Ratio (y) = 0.24455 0.11062
# Poissons Ratio (z) = 0.40945 0.31712
#
# Static dielectric constant tensor:
#      x y z
#    x 1.798190 0.000000 0.022640 
#    y 0.000000 1.727450 0.000000 
#    z 0.022640 0.000000 1.735940 
# 
# From -- ./inp_files/98648.got.cif
#   From: 2010.05.17/outbox.cif.g08.bks.cpg/sg15_50_cif.got.tgz:98648.got - 2010.06.03 18:47:42.
