data_PCOD9290990
_publ_section_title
;
Structure prediction by ZEFSAII (Michael W. Deem and Ramdas Pophale) SiO2 
 PCOD9290990
Probable space group: C 2/C
;
_chemical_formula_sum "Si O2"
_cell_formula_units_Z 44
_cell_length_a 15.168559
_cell_length_b 9.538794
_cell_length_c 25.673652
_cell_angle_alpha 90.000000
_cell_angle_beta 29.410305
_cell_angle_gamma 90.000000
_cell_volume 1824.149350
_symmetry_space_group_name_H-M "C 2/C"
_symmetry_group_IT_number 15
_symmetry_cell_setting 'monoclinic'
loop_
_space_group_symop_operation_xyz
x,y,z
-x,y,1/2-z
-x,-y,-z
x,-y,1/2+z
1/2+x,1/2+y,z
1/2-x,1/2+y,1/2-z
1/2-x,1/2-y,-z
1/2+x,1/2-y,1/2+z
loop_
_atom_site_type_symbol
_atom_site_label
_atom_site_fract_x
_atom_site_fract_y
_atom_site_fract_z
Si Si1 0.142403 0.104656 0.404033
Si Si2 0.000000 0.356427 0.750000
Si Si3 0.785411 0.228672 0.245646
Si Si4 0.102734 0.853803 0.642694
Si Si5 0.076711 0.349281 0.952537
Si Si6 0.076388 0.163468 0.611798
O O1 0.331553 0.048144 0.325491
O O2 0.164536 0.146157 0.332623
O O3 0.091982 0.246645 0.460309
O O4 0.000000 0.000000 0.500000
O O5 0.027216 0.253857 0.687697
O O6 0.686843 0.144910 0.342507
O O7 0.618829 0.334120 0.318046
O O8 0.980510 0.254791 0.172275
O O9 0.295639 0.804554 0.564869
O O10 0.000000 0.885358 0.750000
O O11 0.121090 0.001906 0.602491
O O12 0.000000 0.500000 0.000000
O O13 0.250000 0.250000 0.500000
#
# Coordination Sequence:
#
# PCOD9290990 Si02
#       6
#     8   4   8   8   8   8
#     4  11  26  45  67 104 147 184 234 297 368 420
#     4  10  22  42  62  94 132 184 230 282 336 426
#     4  10  25  40  68  99 138 186 231 298 352 425
#     4  10  22  42  65  99 135 176 237 296 344 424
#     4  11  24  45  72 102 136 187 246 292 349 429
#     4  11  21  39  67  95 130 182 239 285 350 412
#
# _framework density 24.120832
#
# number of rings (size 3 to 8) (size 9 to 14) (size 15 to 20)
#    0.000    1.455    0.909    3.273   12.727    0.727 
#    4.909    0.000    0.000    0.000    0.000    0.000 
#    0.000    0.000    0.000    0.000    0.000    0.000 
#
# Total GULP energy -122747.771059 kJ/mol
# GULP energy per Si atom -5579.444139 kJ/mol
# Density = 2.406593 g / cm^3
# Si number density = 24.120832 Si / 1000 Ang^3
#
#
#
# Elastic Constant Matrix: (Units=GPa)
#
#
# Indices 1 2 3 4 5 6 
#
# 1 77.8322 1.9827 63.0763 -0.0002 -20.8499 0.0000
# 2 1.9827 50.5947 17.4986 -0.0001 6.7617 0.0000
# 3 63.0763 17.4986 129.1883 -0.0012 1.3220 0.0000
# 4 -0.0002 -0.0001 -0.0012 28.0341 0.0002 1.0109
# 5 -20.8499 6.7617 1.3220 0.0002 54.8539 0.0000
# 6 0.0000 0.0000 0.0000 1.0109 0.0000 24.0441
#
#
#
# Elastic Compliance Matrix: (Units=1/GPa)
#
#
# Indices 1 2 3 4 5 6 
#
# 1 0.026126 0.002193 -0.013155 0.000000 0.009977 0.000000
# 2 0.002193 0.021266 -0.003934 0.000000 -0.001693 0.000000
# 3 -0.013155 -0.003934 0.014746 0.000001 -0.004871 0.000000
# 4 0.000000 0.000000 0.000001 0.035725 0.000000 -0.001502
# 5 0.009977 -0.001693 -0.004871 0.000000 0.022349 0.000000
# 6 0.000000 0.000000 0.000000 -0.001502 0.000000 0.041653
#
#
# Mechanical properties :
#
#
# Convention : Reuss Voigt Hill
#
# Bulk Modulus (GPa) = 30.91594 46.97002 38.94298
# Shear Modulus (GPa) = 24.69866 33.05692 28.87779
#
# Velocity S-wave (km/s) = 3.20340 3.70600 3.46383
# Velocity P-wave (km/s) = 5.15047 6.15042 5.67252
#
# Compressibility (1/GPa) = 0.03234578
#
# Stress axis : x y z
#
# Youngs Moduli (GPa) = 38.27566 47.02392 67.81329
#
# Poissons Ratio (x) = -0.10311 0.89210
# Poissons Ratio (y) = -0.08392 0.26676
# Poissons Ratio (z) = 0.50353 0.18498
#
# Static dielectric constant tensor:
#      x y z
#    x 2.025580 0.000000 -0.087750 
#    y 0.000000 1.849090 0.000000 
#    z -0.087750 0.000000 1.949000 
# 
# From -- ./inp_files/295869.got.cif
#   From: 2010.05.17/outbox.cif.g08.bks.cpg/sg15_148_cif.got.tgz:295869.got - 2010.06.03 18:47:42.
