data_PCOD9290604
_publ_section_title
;
Structure prediction by ZEFSAII (Michael W. Deem and Ramdas Pophale) SiO2 
 PCOD9290604
Probable space group: C 2/C
;
_chemical_formula_sum "Si O2"
_cell_formula_units_Z 52
_cell_length_a 9.660317
_cell_length_b 16.764715
_cell_length_c 18.138913
_cell_angle_alpha 90.000000
_cell_angle_beta 48.811790
_cell_angle_gamma 90.000000
_cell_volume 2210.723466
_symmetry_space_group_name_H-M "C 2/C"
_symmetry_group_IT_number 15
_symmetry_cell_setting 'monoclinic'
loop_
_space_group_symop_operation_xyz
x,y,z
-x,y,1/2-z
-x,-y,-z
x,-y,1/2+z
1/2+x,1/2+y,z
1/2-x,1/2+y,1/2-z
1/2-x,1/2-y,-z
1/2+x,1/2-y,1/2+z
loop_
_atom_site_type_symbol
_atom_site_label
_atom_site_fract_x
_atom_site_fract_y
_atom_site_fract_z
Si Si1 0.393949 0.984531 0.924879
Si Si2 0.000000 0.287147 0.750000
Si Si3 0.000000 0.581978 0.750000
Si Si4 0.234221 0.338614 0.290491
Si Si5 0.590067 0.761656 0.997530
Si Si6 0.000000 0.022339 0.750000
Si Si7 0.790394 0.583871 0.099047
Si Si8 0.204368 0.829943 0.968146
O O1 0.592545 0.945948 0.872267
O O2 0.245351 0.914241 0.992269
O O3 0.392640 0.026063 0.846126
O O4 0.379822 0.052357 0.992001
O O5 0.890041 0.229016 0.732962
O O6 0.850036 0.333623 0.849653
O O7 0.868393 0.637679 0.747630
O O8 0.340666 0.417848 0.279810
O O9 0.085928 0.304082 0.401185
O O10 0.499340 0.684478 0.991855
O O11 0.750000 0.750000 0.000000
O O12 0.684721 0.822074 0.907652
O O13 0.094355 0.958325 0.663122
O O14 0.250000 0.750000 0.000000
#
# Coordination Sequence:
#
# PCOD9290604 Si02
#       8
#     8   4   4   8   8   4   8   8
#     4  11  23  42  73  99 137 177 235 287 344 411
#     4   9  23  42  64  94 140 178 230 270 346 436
#     4  12  21  40  68 104 133 166 230 302 335 392
#     4  10  22  41  67  97 134 178 221 284 346 410
#     4  11  24  47  67  99 141 183 232 287 347 416
#     4  11  22  42  74  98 129 184 234 266 351 426
#     4  11  22  45  69  97 136 185 222 280 352 426
#     4  11  23  42  70  99 132 185 230 282 345 419
#
# _framework density 23.521711
#
# number of rings (size 3 to 8) (size 9 to 14) (size 15 to 20)
#    0.000    1.231    4.615    1.385    4.308    2.462 
#    5.538    1.538    0.000    0.000    0.000    0.000 
#    0.000    0.000    0.000    0.000    0.000    0.000 
#
# Total GULP energy -145230.529681 kJ/mol
# GULP energy per Si atom -5585.789603 kJ/mol
# Density = 2.346817 g / cm^3
# Si number density = 23.521711 Si / 1000 Ang^3
#
#
#
# Elastic Constant Matrix: (Units=GPa)
#
#
# Indices 1 2 3 4 5 6 
#
# 1 119.3479 34.1158 1.3424 -0.0003 2.4021 0.0003
# 2 34.1158 73.4247 1.5361 -0.0008 -5.0283 0.0007
# 3 1.3424 1.5361 46.9051 -0.0010 0.5417 0.0009
# 4 -0.0003 -0.0008 -0.0010 23.4256 0.0007 3.6274
# 5 2.4021 -5.0283 0.5417 0.0007 36.5571 -0.0006
# 6 0.0003 0.0007 0.0009 3.6274 -0.0006 40.9769
#
#
#
# Elastic Compliance Matrix: (Units=1/GPa)
#
#
# Indices 1 2 3 4 5 6 
#
# 1 0.009721 -0.004601 -0.000113 0.000000 -0.001270 0.000000
# 2 -0.004601 0.015937 -0.000419 0.000000 0.002501 0.000000
# 3 -0.000113 -0.000419 0.021341 0.000001 -0.000366 -0.000001
# 4 0.000000 0.000000 0.000001 0.043282 -0.000001 -0.003831
# 5 -0.001270 0.002501 -0.000366 -0.000001 0.027787 0.000000
# 6 0.000000 0.000000 -0.000001 -0.003831 0.000000 0.024743
#
#
# Mechanical properties :
#
#
# Convention : Reuss Voigt Hill
#
# Bulk Modulus (GPa) = 27.22379 34.85180 31.03779
# Shear Modulus (GPa) = 30.24397 33.70413 31.97405
#
# Velocity S-wave (km/s) = 3.58968 3.78947 3.69093
# Velocity P-wave (km/s) = 5.36471 5.83059 5.60249
#
# Compressibility (1/GPa) = 0.03673258
#
# Stress axis : x y z
#
# Youngs Moduli (GPa) = 102.87012 62.74563 46.85852
#
# Poissons Ratio (x) = 0.28871 0.00529
# Poissons Ratio (y) = 0.47334 0.01964
# Poissons Ratio (z) = 0.01161 0.02630
#
# Static dielectric constant tensor:
#      x y z
#    x 1.638160 0.000000 -0.119800 
#    y 0.000000 1.005530 0.000000 
#    z -0.119800 0.000000 1.921750 
# 
# From -- ./inp_files/190881.got.cif
#   From: 2010.05.17/outbox.cif.g08.bks.cpg/sg15_96_cif.got.tgz:190881.got - 2010.06.03 18:47:42.
