data_PCOD9290536
_publ_section_title
;
Structure prediction by ZEFSAII (Michael W. Deem and Ramdas Pophale) SiO2 
 PCOD9290536
Probable space group: C 2/C
;
_chemical_formula_sum "Si O2"
_cell_formula_units_Z 56
_cell_length_a 24.941549
_cell_length_b 6.336282
_cell_length_c 23.541510
_cell_angle_alpha 90.000000
_cell_angle_beta 135.449952
_cell_angle_gamma 90.000000
_cell_volume 2609.995361
_symmetry_space_group_name_H-M "C 2/C"
_symmetry_group_IT_number 15
_symmetry_cell_setting 'monoclinic'
loop_
_space_group_symop_operation_xyz
x,y,z
-x,y,1/2-z
-x,-y,-z
x,-y,1/2+z
1/2+x,1/2+y,z
1/2-x,1/2+y,1/2-z
1/2-x,1/2-y,-z
1/2+x,1/2-y,1/2+z
loop_
_atom_site_type_symbol
_atom_site_label
_atom_site_fract_x
_atom_site_fract_y
_atom_site_fract_z
Si Si1 0.287757 0.918422 0.369973
Si Si2 0.029795 0.819020 0.981195
Si Si3 0.913922 0.979195 0.172879
Si Si4 0.711442 0.202455 0.877328
Si Si5 0.131918 0.676322 0.261572
Si Si6 0.146840 0.077097 0.994362
Si Si7 0.909648 0.505208 0.378774
O O1 0.209049 0.795517 0.303701
O O2 0.337389 0.778366 0.452593
O O3 0.326498 0.936778 0.337721
O O4 0.264059 0.139411 0.380497
O O5 0.090673 0.918242 0.984987
O O6 0.064876 0.633739 0.046244
O O7 0.957601 0.701767 0.899670
O O8 0.000000 0.000000 0.000000
O O9 0.903234 0.799382 0.212375
O O10 0.000000 0.062096 0.250000
O O11 0.847648 0.155606 0.131369
O O12 0.894741 0.880746 0.096786
O O13 0.770804 0.040000 0.952142
O O14 0.657519 0.057833 0.797830
O O15 0.082347 0.660955 0.167884
#
# Coordination Sequence:
#
# PCOD9290536 Si02
#       7
#     8   8   8   8   8   8   8
#     4  10  22  41  67 101 126 174 219 270 334 392
#     4  11  24  40  67  99 133 179 217 272 335 388
#     4  11  27  45  67  97 132 177 222 278 338 393
#     4  10  23  46  67 100 125 181 225 267 341 392
#     4  10  26  42  64  96 138 169 216 278 331 400
#     4  11  23  44  71  95 136 175 228 278 322 402
#     4  11  24  41  65 100 137 170 221 266 335 407
#
# _framework density 21.455976
#
# number of rings (size 3 to 8) (size 9 to 14) (size 15 to 20)
#    0.000    1.429    2.857    0.429    6.000    8.000 
#    0.000    0.000    0.000    0.000    0.000    0.000 
#    0.000    0.000    0.000    0.000    0.000    0.000 
#
# Total GULP energy -156301.399412 kJ/mol
# GULP energy per Si atom -5582.192836 kJ/mol
# Density = 2.140714 g / cm^3
# Si number density = 21.455976 Si / 1000 Ang^3
#
#
#
# Elastic Constant Matrix: (Units=GPa)
#
#
# Indices 1 2 3 4 5 6 
#
# 1 94.6330 22.0490 32.1574 0.0002 3.5939 0.0010
# 2 22.0490 61.5944 -6.9473 0.0011 -1.8176 0.0027
# 3 32.1574 -6.9473 47.0549 -0.0002 -7.4005 -0.0015
# 4 0.0002 0.0011 -0.0002 21.6006 0.0002 -0.1839
# 5 3.5939 -1.8176 -7.4005 0.0002 27.0888 -0.0005
# 6 0.0010 0.0027 -0.0015 -0.1839 -0.0005 15.8055
#
#
#
# Elastic Compliance Matrix: (Units=1/GPa)
#
#
# Indices 1 2 3 4 5 6 
#
# 1 0.017553 -0.008091 -0.014254 0.000000 -0.006766 -0.000001
# 2 -0.008091 0.020329 0.009314 -0.000001 0.004982 -0.000002
# 3 -0.014254 0.009314 0.034235 0.000000 0.011869 0.000003
# 4 0.000000 -0.000001 0.000000 0.046300 0.000000 0.000539
# 5 -0.006766 0.004982 0.011869 0.000000 0.041390 0.000002
# 6 -0.000001 -0.000002 0.000003 0.000539 0.000002 0.063275
#
#
# Mechanical properties :
#
#
# Convention : Reuss Voigt Hill
#
# Bulk Modulus (GPa) = 21.71304 33.08896 27.40100
# Shear Modulus (GPa) = 18.90386 23.30052 21.10219
#
# Velocity S-wave (km/s) = 2.97147 3.29898 3.13950
# Velocity P-wave (km/s) = 4.68131 5.47415 5.09318
#
# Compressibility (1/GPa) = 0.04605527
#
# Stress axis : x y z
#
# Youngs Moduli (GPa) = 56.97020 49.19049 29.20978
#
# Poissons Ratio (x) = 0.39800 0.41637
# Poissons Ratio (y) = 0.46094 -0.27207
# Poissons Ratio (z) = 0.81208 -0.45818
#
# Static dielectric constant tensor:
#      x y z
#    x 1.836920 0.000000 0.031730 
#    y 0.000000 1.782300 0.000000 
#    z 0.031730 0.000000 1.858140 
# 
# From -- ./inp_files/221309.got.cif
#   From: 2010.05.17/outbox.cif.g08.bks.cpg/sg15_111_cif.got.tgz:221309.got - 2010.06.03 18:47:42.
