data_PCOD9290488
_publ_section_title
;
Structure prediction by ZEFSAII (Michael W. Deem and Ramdas Pophale) SiO2 
 PCOD9290488
Probable space group: C 2/C
;
_chemical_formula_sum "Si O2"
_cell_formula_units_Z 52
_cell_length_a 26.409943
_cell_length_b 6.259006
_cell_length_c 17.724577
_cell_angle_alpha 90.000000
_cell_angle_beta 127.623984
_cell_angle_gamma 90.000000
_cell_volume 2320.559071
_symmetry_space_group_name_H-M "C 2/C"
_symmetry_group_IT_number 15
_symmetry_cell_setting 'monoclinic'
loop_
_space_group_symop_operation_xyz
x,y,z
-x,y,1/2-z
-x,-y,-z
x,-y,1/2+z
1/2+x,1/2+y,z
1/2-x,1/2+y,1/2-z
1/2-x,1/2-y,-z
1/2+x,1/2-y,1/2+z
loop_
_atom_site_type_symbol
_atom_site_label
_atom_site_fract_x
_atom_site_fract_y
_atom_site_fract_z
Si Si1 0.286439 0.965736 0.711304
Si Si2 0.552153 0.008655 0.949163
Si Si3 0.951368 0.183156 0.432373
Si Si4 0.317885 0.806367 0.904489
Si Si5 0.000000 0.408419 0.250000
Si Si6 0.618500 0.693662 0.275900
Si Si7 0.728017 0.406744 0.414167
O O1 0.218287 0.083926 0.641505
O O2 0.337513 0.108201 0.711526
O O3 0.306616 0.935581 0.816148
O O4 0.282708 0.738847 0.668670
O O5 0.489371 0.122610 0.926035
O O6 0.533777 0.958423 0.846845
O O7 0.607881 0.183795 0.008633
O O8 0.573574 0.800647 0.015332
O O9 0.903150 0.097003 0.325071
O O10 0.000000 0.000000 0.500000
O O11 0.282208 0.924267 0.940861
O O12 0.943735 0.266397 0.235251
O O13 0.662590 0.536997 0.364891
O O14 0.750000 0.250000 0.500000
#
# Coordination Sequence:
#
# PCOD9290488 Si02
#       7
#     8   8   8   8   4   8   8
#     4  11  23  42  70  97 133 173 222 282 335 409
#     4  10  23  41  65  94 131 172 222 275 336 391
#     4  10  22  41  66  95 124 174 224 274 322 394
#     4  11  23  41  69  99 131 174 222 276 337 408
#     4  10  24  46  66  96 136 188 224 288 350 400
#     4  10  24  45  66  95 139 173 226 278 336 402
#     4  11  27  43  66 103 134 175 221 277 350 407
#
# _framework density 22.408391999999999
#
# number of rings (size 3 to 8) (size 9 to 14) (size 15 to 20)
#    0.000    1.538    3.077    0.000    6.462    2.462 
#    2.769    1.538    0.000    0.000    0.000    0.000 
#    0.000    0.000    0.000    0.000    0.000    0.000 
#
# Total GULP energy -145298.776441 kJ/mol
# GULP energy per Si atom -5588.414478 kJ/mol
# Density = 2.235739 g / cm^3
# Si number density = 22.408392 Si / 1000 Ang^3
#
#
#
# Elastic Constant Matrix: (Units=GPa)
#
#
# Indices 1 2 3 4 5 6 
#
# 1 85.4549 10.9011 32.2165 0.0000 4.6506 -0.0001
# 2 10.9011 33.1450 -2.7700 0.0003 0.7271 0.0004
# 3 32.2165 -2.7700 111.1154 0.0000 -3.8934 0.0000
# 4 0.0000 0.0003 0.0000 30.3571 0.0000 1.1976
# 5 4.6506 0.7271 -3.8934 0.0000 30.7371 0.0000
# 6 -0.0001 0.0004 0.0000 1.1976 0.0000 21.1575
#
#
#
# Elastic Compliance Matrix: (Units=1/GPa)
#
#
# Indices 1 2 3 4 5 6 
#
# 1 0.014092 -0.004938 -0.004299 0.000000 -0.002560 0.000000
# 2 -0.004938 0.031976 0.002238 0.000000 0.000274 -0.000001
# 3 -0.004299 0.002238 0.010369 0.000000 0.001911 0.000000
# 4 0.000000 0.000000 0.000000 0.033015 0.000000 -0.001869
# 5 -0.002560 0.000274 0.001911 0.000000 0.033157 0.000000
# 6 0.000000 -0.000001 0.000000 -0.001869 0.000000 0.047370
#
#
# Mechanical properties :
#
#
# Convention : Reuss Voigt Hill
#
# Bulk Modulus (GPa) = 23.56259 34.49008 29.02633
# Shear Modulus (GPa) = 25.23714 29.07485 27.15600
#
# Velocity S-wave (km/s) = 3.35958 3.60599 3.48496
# Velocity P-wave (km/s) = 5.05836 5.72386 5.40137
#
# Compressibility (1/GPa) = 0.04244016
#
# Stress axis : x y z
#
# Youngs Moduli (GPa) = 70.96312 31.27394 96.44399
#
# Poissons Ratio (x) = 0.15442 0.41457
# Poissons Ratio (y) = 0.35040 -0.21588
# Poissons Ratio (z) = 0.30504 -0.07000
#
# Static dielectric constant tensor:
#      x y z
#    x 1.859500 0.000000 -0.019580 
#    y 0.000000 1.799800 0.000000 
#    z -0.019580 0.000000 1.862790 
# 
# From -- ./inp_files/221357.got.cif
#   From: 2010.05.17/outbox.cif.g08.bks.cpg/sg15_111_cif.got.tgz:221357.got - 2010.06.03 18:47:42.
