data_PCOD9290099
_publ_section_title
;
Structure prediction by ZEFSAII (Michael W. Deem and Ramdas Pophale) SiO2 
 PCOD9290099
Probable space group: C 2/C
;
_chemical_formula_sum "Si O2"
_cell_formula_units_Z 56
_cell_length_a 18.881681
_cell_length_b 20.258443
_cell_length_c 15.626418
_cell_angle_alpha 90.000000
_cell_angle_beta 151.927635
_cell_angle_gamma 90.000000
_cell_volume 2812.842983
_symmetry_space_group_name_H-M "C 2/C"
_symmetry_group_IT_number 15
_symmetry_cell_setting 'monoclinic'
loop_
_space_group_symop_operation_xyz
x,y,z
-x,y,1/2-z
-x,-y,-z
x,-y,1/2+z
1/2+x,1/2+y,z
1/2-x,1/2+y,1/2-z
1/2-x,1/2-y,-z
1/2+x,1/2-y,1/2+z
loop_
_atom_site_type_symbol
_atom_site_label
_atom_site_fract_x
_atom_site_fract_y
_atom_site_fract_z
Si Si1 0.609456 0.326180 0.647829
Si Si2 0.514124 0.834903 0.866107
Si Si3 0.313071 0.731953 0.753904
Si Si4 0.620959 0.526783 0.196262
Si Si5 0.500000 0.083143 0.750000
Si Si6 0.000000 0.073969 0.250000
Si Si7 0.781797 0.824903 0.555477
Si Si8 0.541752 0.016650 0.447047
O O1 0.447382 0.312673 0.434183
O O2 0.729912 0.276074 0.736734
O O3 0.660140 0.401771 0.697412
O O4 0.607568 0.315984 0.746639
O O5 0.500000 0.834091 0.750000
O O6 0.394329 0.783820 0.777833
O O7 0.680592 0.810405 0.070367
O O8 0.489231 0.909233 0.871538
O O9 0.553064 0.535562 0.220701
O O10 0.776543 0.487229 0.368548
O O11 0.500000 0.500000 0.000000
O O12 0.366684 0.133074 0.581473
O O13 0.524071 0.034916 0.693742
O O14 0.864208 0.123723 0.080603
O O15 0.750000 0.750000 0.500000
O O16 0.500000 0.000000 0.500000
#
# Coordination Sequence:
#
# PCOD9290099 Si02
#       8
#     8   8   8   8   4   4   8   8
#     4  10  22  41  61  95 130 168 221 265 328 396
#     4  11  23  43  70  96 131 173 222 283 339 393
#     4  10  23  41  66  96 129 168 225 278 328 400
#     4  11  24  43  65  94 132 175 221 269 336 399
#     4  12  25  46  64 104 139 170 236 280 330 423
#     4  10  23  44  60  98 133 170 224 276 320 407
#     4  11  25  39  68  95 136 180 218 274 338 393
#     4  12  26  44  71  99 137 182 223 277 346 404
#
# _framework density 19.908683
#
# number of rings (size 3 to 8) (size 9 to 14) (size 15 to 20)
#    0.000    1.143    3.571    2.571    8.000    1.143 
#    2.571    0.000    3.143    0.000    0.000    0.000 
#    0.000    0.000    0.000    0.000    0.000    0.000 
#
# Total GULP energy -156170.732476 kJ/mol
# GULP energy per Si atom -5577.526160 kJ/mol
# Density = 1.986337 g / cm^3
# Si number density = 19.908683 Si / 1000 Ang^3
#
#
#
# Elastic Constant Matrix: (Units=GPa)
#
#
# Indices 1 2 3 4 5 6 
#
# 1 126.9365 26.1740 31.6097 0.0000 -12.9581 0.0000
# 2 26.1740 93.9797 10.3875 0.0000 -13.5716 0.0000
# 3 31.6097 10.3875 40.5874 0.0000 -7.8783 0.0000
# 4 0.0000 0.0000 0.0000 25.5317 0.0000 6.6093
# 5 -12.9581 -13.5716 -7.8783 0.0000 31.2656 0.0000
# 6 0.0000 0.0000 0.0000 6.6093 0.0000 5.7480
#
#
#
# Elastic Compliance Matrix: (Units=1/GPa)
#
#
# Indices 1 2 3 4 5 6 
#
# 1 0.010203 -0.001813 -0.007164 0.000000 0.001636 0.000000
# 2 -0.001813 0.011839 -0.000805 0.000000 0.004184 0.000000
# 3 -0.007164 -0.000805 0.031311 0.000000 0.004571 0.000000
# 4 0.000000 0.000000 0.000000 0.055766 0.000000 -0.064121
# 5 0.001636 0.004184 0.004571 0.000000 0.035630 0.000000
# 6 0.000000 0.000000 0.000000 -0.064121 0.000000 0.247701
#
#
# Mechanical properties :
#
#
# Convention : Reuss Voigt Hill
#
# Bulk Modulus (GPa) = 29.59748 44.20513 36.90131
# Shear Modulus (GPa) = 11.81254 25.39790 18.60522
#
# Velocity S-wave (km/s) = 2.43849 3.57560 3.06032
# Velocity P-wave (km/s) = 4.77778 6.26887 5.57341
#
# Compressibility (1/GPa) = 0.03378665
#
# Stress axis : x y z
#
# Youngs Moduli (GPa) = 98.01043 84.46690 31.93742
#
# Poissons Ratio (x) = 0.15318 0.22881
# Poissons Ratio (y) = 0.17774 0.02572
# Poissons Ratio (z) = 0.70219 0.06803
#
# Static dielectric constant tensor:
#      x y z
#    x 1.719100 0.000000 -0.010970 
#    y 0.000000 1.568460 0.000000 
#    z -0.010970 0.000000 1.651710 
# 
# From -- ./inp_files/163848.got.cif
#   From: 2010.05.17/outbox.cif.g08.bks.cpg/sg15_82_cif.got.tgz:163848.got - 2010.06.03 18:47:42.
