data_PCOD9290721
_publ_section_title
;
Structure prediction by ZEFSAII (Michael W. Deem and Ramdas Pophale) SiO2 
 PCOD9290721
Probable space group: C 2/C
;
_chemical_formula_sum "Si O2"
_cell_formula_units_Z 28
_cell_length_a 9.534933
_cell_length_b 22.686418
_cell_length_c 4.888118
_cell_angle_alpha 90.000000
_cell_angle_beta 95.579839
_cell_angle_gamma 90.000000
_cell_volume 1052.355652
_symmetry_space_group_name_H-M "C 2/C"
_symmetry_group_IT_number 15
_symmetry_cell_setting 'monoclinic'
loop_
_space_group_symop_operation_xyz
x,y,z
-x,y,1/2-z
-x,-y,-z
x,-y,1/2+z
1/2+x,1/2+y,z
1/2-x,1/2+y,1/2-z
1/2-x,1/2-y,-z
1/2+x,1/2-y,1/2+z
loop_
_atom_site_type_symbol
_atom_site_label
_atom_site_fract_x
_atom_site_fract_y
_atom_site_fract_z
Si Si1 0.354908 0.960017 0.856446
Si Si2 0.710486 0.636586 0.051009
Si Si3 0.500000 0.452583 0.250000
Si Si4 0.500000 0.731732 0.250000
Si Si5 0.000000 0.306660 0.750000
O O1 0.500000 0.935584 0.750000
O O2 0.238860 0.911693 0.790869
O O3 0.346826 0.017449 0.661535
O O4 0.612260 0.689373 0.125506
O O5 0.868211 0.663596 0.057154
O O6 0.627419 0.594509 0.823367
O O7 0.500000 0.500000 0.500000
O O8 0.565919 0.769163 0.512469
#
# Coordination Sequence:
#
# PCOD9290721 Si02
#       5
#     8   8   4   4   4
#     4  10  22  41  69 107 143 185 245 304 368 456
#     4  12  26  52  78 113 154 211 249 327 390 455
#     4  12  28  48  76 118 158 196 244 308 394 482
#     4  12  29  48  78 114 158 200 269 330 390 444
#     4  12  29  52  78 114 148 208 277 324 372 458
#
# _framework density 26.606971999999999
#
# number of rings (size 3 to 8) (size 9 to 14) (size 15 to 20)
#    0.000    0.571    1.429    5.143    0.000   11.429 
#    0.000    0.000    0.000    0.000    0.000    0.000 
#    0.000    0.000    0.000    0.000    0.000    0.000 
#
# Total GULP energy -78071.209846 kJ/mol
# GULP energy per Si atom -5576.514989 kJ/mol
# Density = 2.654641 g / cm^3
# Si number density = 26.606972 Si / 1000 Ang^3
#
#
#
# Elastic Constant Matrix: (Units=GPa)
#
#
# Indices 1 2 3 4 5 6 
#
# 1 121.9052 65.3750 54.8988 0.0000 19.5598 0.0000
# 2 65.3750 86.4773 59.5777 0.0000 14.4281 0.0000
# 3 54.8988 59.5777 151.0631 0.0000 -3.1068 0.0000
# 4 0.0000 0.0000 0.0000 -48.4908 0.0000 6.6849
# 5 19.5598 14.4281 -3.1068 0.0000 36.9528 0.0000
# 6 0.0000 0.0000 0.0000 6.6849 0.0000 33.3593
#
#
#
# Elastic Compliance Matrix: (Units=1/GPa)
#
#
# Indices 1 2 3 4 5 6 
#
# 1 0.014561 -0.009032 -0.001819 0.000000 -0.004334 0.000000
# 2 -0.009032 0.023352 -0.006027 0.000000 -0.004844 0.000000
# 3 -0.001819 -0.006027 0.009743 0.000000 0.004135 0.000000
# 4 0.000000 0.000000 0.000000 -0.020068 0.000000 0.004021
# 5 -0.004334 -0.004844 0.004135 0.000000 0.031595 0.000000
# 6 0.000000 0.000000 0.000000 0.004021 0.000000 0.029171
#
#
# Mechanical properties :
#
#
# Convention : Reuss Voigt Hill
#
# Bulk Modulus (GPa) = 71.93974 79.90541 75.92257
# Shear Modulus (GPa) = 39.45020 16.33720 27.89370
#
# Velocity S-wave (km/s) = 3.85476 2.48063 3.24135
# Velocity P-wave (km/s) = 6.84901 6.18883 6.52727
#
# Compressibility (1/GPa) = 0.01390052
#
# Stress axis : x y z
#
# Youngs Moduli (GPa) = 68.67610 42.82288 102.63947
#
# Poissons Ratio (x) = 0.38676 0.18669
# Poissons Ratio (y) = 0.62026 0.61862
# Poissons Ratio (z) = 0.12491 0.25810
#
# Static dielectric constant tensor:
#      x y z
#    x 2.779400 0.000000 0.055030 
#    y 0.000000 2.196900 0.000000 
#    z 0.055030 0.000000 2.056500 
# 
# From -- ./inp_files/3746.got.cif
#   From: 2010.05.17/outbox.cif.g08.bks.cpg/sg15_2_cif.got.tgz:3746.got - 2010.06.03 18:47:42.
