data_PCOD9290029
_publ_section_title
;
Structure prediction by ZEFSAII (Michael W. Deem and Ramdas Pophale) SiO2 
 PCOD9290029
Probable space group: C 2/C
;
_chemical_formula_sum "Si O2"
_cell_formula_units_Z 40
_cell_length_a 11.125088
_cell_length_b 8.986471
_cell_length_c 18.195431
_cell_angle_alpha 90.000000
_cell_angle_beta 73.874654
_cell_angle_gamma 90.000000
_cell_volume 1747.523613
_symmetry_space_group_name_H-M "C 2/C"
_symmetry_group_IT_number 15
_symmetry_cell_setting 'monoclinic'
loop_
_space_group_symop_operation_xyz
x,y,z
-x,y,1/2-z
-x,-y,-z
x,-y,1/2+z
1/2+x,1/2+y,z
1/2-x,1/2+y,1/2-z
1/2-x,1/2-y,-z
1/2+x,1/2-y,1/2+z
loop_
_atom_site_type_symbol
_atom_site_label
_atom_site_fract_x
_atom_site_fract_y
_atom_site_fract_z
Si Si1 0.441241 0.629343 0.062792
Si Si2 0.428260 0.115603 0.458959
Si Si3 0.669732 0.825090 0.077551
Si Si4 0.834870 0.297461 0.678221
Si Si5 0.372150 0.502195 0.729957
O O1 0.539719 0.739568 0.087469
O O2 0.381257 0.549014 0.143314
O O3 0.500000 0.500000 0.000000
O O4 0.378662 0.747766 0.016732
O O5 0.536354 0.172720 0.386109
O O6 0.500000 0.000000 0.500000
O O7 0.336173 0.002518 0.433124
O O8 0.735798 0.781490 0.141033
O O9 0.750000 0.750000 0.000000
O O10 0.757660 0.439515 0.716860
O O11 0.863510 0.180045 0.736540
O O12 0.500000 0.454235 0.750000
#
# Coordination Sequence:
#
# PCOD9290029 Si02
#       5
#     8   8   8   8   8
#     4  11  21  45  69  97 140 179 231 292 339 417
#     4  10  22  40  74  99 136 178 236 286 347 422
#     4  11  21  41  73 103 134 181 230 291 349 416
#     4  12  26  45  68 101 141 184 232 288 362 413
#     4  12  28  45  68 101 143 184 231 291 352 422
#
# _framework density 22.889534000000001
#
# number of rings (size 3 to 8) (size 9 to 14) (size 15 to 20)
#    0.000    0.800    8.000    0.000    5.600    1.600 
#    0.000    2.000    0.000    0.000    0.000    0.000 
#    0.000    0.000    0.000    0.000    0.000    0.000 
#
# Total GULP energy -111647.753194 kJ/mol
# GULP energy per Si atom -5582.387660 kJ/mol
# Density = 2.283744 g / cm^3
# Si number density = 22.889534 Si / 1000 Ang^3
#
#
#
# Elastic Constant Matrix: (Units=GPa)
#
#
# Indices 1 2 3 4 5 6 
#
# 1 64.6353 19.0199 17.7854 0.0000 11.5150 0.0000
# 2 19.0199 125.7716 11.3801 0.0000 8.3913 0.0000
# 3 17.7854 11.3801 56.6177 0.0000 12.0681 0.0000
# 4 0.0000 0.0000 0.0000 48.4018 0.0000 -3.3802
# 5 11.5150 8.3913 12.0681 0.0000 20.1114 0.0000
# 6 0.0000 0.0000 0.0000 -3.3802 0.0000 45.2011
#
#
#
# Elastic Compliance Matrix: (Units=1/GPa)
#
#
# Indices 1 2 3 4 5 6 
#
# 1 0.018418 -0.001944 -0.003807 0.000000 -0.007450 0.000000
# 2 -0.001944 0.008439 -0.000656 0.000000 -0.002014 0.000000
# 3 -0.003807 -0.000656 0.021176 0.000000 -0.010253 0.000000
# 4 0.000000 0.000000 0.000000 0.020769 0.000000 0.001553
# 5 -0.007450 -0.002014 -0.010253 0.000000 0.060981 0.000000
# 6 0.000000 0.000000 0.000000 0.001553 0.000000 0.022240
#
#
# Mechanical properties :
#
#
# Convention : Reuss Voigt Hill
#
# Bulk Modulus (GPa) = 28.39433 38.15504 33.27468
# Shear Modulus (GPa) = 28.31645 35.99882 32.15763
#
# Velocity S-wave (km/s) = 3.52105 3.97005 3.75227
# Velocity P-wave (km/s) = 5.38166 6.14170 5.77420
#
# Compressibility (1/GPa) = 0.03521830
#
# Stress axis : x y z
#
# Youngs Moduli (GPa) = 54.29406 118.50255 47.22420
#
# Poissons Ratio (x) = 0.23034 0.17979
# Poissons Ratio (y) = 0.10554 0.03099
# Poissons Ratio (z) = 0.20670 0.07776
#
# Static dielectric constant tensor:
#      x y z
#    x 1.894850 0.000000 -0.009630 
#    y 0.000000 1.893230 0.000000 
#    z -0.009630 0.000000 1.825720 
# 
# From -- ./inp_files/195059.got.cif
#   From: 2010.05.17/outbox.cif.g08.bks.cpg/sg15_98_cif.got.tgz:195059.got - 2010.06.03 18:47:42.
