data_PCOD9290601
_publ_section_title
;
Structure prediction by ZEFSAII (Michael W. Deem and Ramdas Pophale) SiO2 
 PCOD9290601
Probable space group: C 2/C
;
_chemical_formula_sum "Si O2"
_cell_formula_units_Z 48
_cell_length_a 30.668569
_cell_length_b 16.186395
_cell_length_c 14.360263
_cell_angle_alpha 90.000000
_cell_angle_beta 160.227755
_cell_angle_gamma 90.000000
_cell_volume 2411.487760
_symmetry_space_group_name_H-M "C 2/C"
_symmetry_group_IT_number 15
_symmetry_cell_setting 'monoclinic'
loop_
_space_group_symop_operation_xyz
x,y,z
-x,y,1/2-z
-x,-y,-z
x,-y,1/2+z
1/2+x,1/2+y,z
1/2-x,1/2+y,1/2-z
1/2-x,1/2-y,-z
1/2+x,1/2-y,1/2+z
loop_
_atom_site_type_symbol
_atom_site_label
_atom_site_fract_x
_atom_site_fract_y
_atom_site_fract_z
Si Si1 0.000000 0.419010 0.750000
Si Si2 0.690927 0.231133 0.618311
Si Si3 0.347221 0.779457 0.115825
Si Si4 0.064711 0.181628 0.479171
Si Si5 0.907456 0.001631 0.404407
Si Si6 0.000000 0.127446 0.750000
Si Si7 0.895688 0.526100 0.713599
O O1 0.884211 0.352439 0.501980
O O2 0.947859 0.479024 0.726431
O O3 0.601782 0.307814 0.411982
O O4 0.769881 0.261336 0.866114
O O5 0.789117 0.211192 0.733096
O O6 0.475810 0.724241 0.376913
O O7 0.390185 0.874457 0.200369
O O8 0.250000 0.750000 0.000000
O O9 0.000000 0.202926 0.250000
O O10 0.064867 0.084374 0.489777
O O11 0.940935 0.072599 0.547624
O O12 0.000000 0.000000 0.500000
O O13 0.755268 0.003754 0.072838
O O14 0.000000 0.500000 0.000000
#
# Coordination Sequence:
#
# PCOD9290601 Si02
#       7
#     4   8   8   8   8   4   8
#     4  11  24  44  71  92 142 180 235 288 344 419
#     4  10  22  43  67  97 131 184 227 283 351 407
#     4  11  23  42  69 100 140 178 229 285 346 413
#     4  10  22  41  67  97 133 176 225 280 345 409
#     4  12  25  45  69 104 138 182 232 289 349 413
#     4  11  24  44  71  96 136 178 235 286 344 409
#     4  12  27  45  69 106 142 188 231 286 353 416
#
# _framework density 19.904726
#
# number of rings (size 3 to 8) (size 9 to 14) (size 15 to 20)
#    0.000    1.000    4.167    2.000    3.500    4.000 
#    0.000    1.667    0.000    0.000    0.000    0.000 
#    0.000    0.000    0.000    0.000    0.000    0.000 
#
# Total GULP energy -133869.874726 kJ/mol
# GULP energy per Si atom -5577.911447 kJ/mol
# Density = 1.985942 g / cm^3
# Si number density = 19.904726 Si / 1000 Ang^3
#
#
#
# Elastic Constant Matrix: (Units=GPa)
#
#
# Indices 1 2 3 4 5 6 
#
# 1 99.1308 57.3352 66.8560 0.0000 27.1722 0.0000
# 2 57.3352 176.9044 65.6225 0.0000 21.8904 0.0000
# 3 66.8560 65.6225 129.2307 0.0000 29.4093 0.0000
# 4 0.0000 0.0000 0.0000 24.5168 0.0000 9.1892
# 5 27.1722 21.8904 29.4093 0.0000 40.2629 0.0000
# 6 0.0000 0.0000 0.0000 9.1892 0.0000 22.2370
#
#
#
# Elastic Compliance Matrix: (Units=1/GPa)
#
#
# Indices 1 2 3 4 5 6 
#
# 1 0.017480 -0.002571 -0.006442 0.000000 -0.005693 0.000000
# 2 -0.002571 0.007414 -0.002293 0.000000 -0.000620 0.000000
# 3 -0.006442 -0.002293 0.013147 0.000000 -0.004009 0.000000
# 4 0.000000 0.000000 0.000000 0.048264 0.000000 -0.019945
# 5 -0.005693 -0.000620 -0.004009 0.000000 0.031945 0.000000
# 6 0.000000 0.000000 0.000000 -0.019945 0.000000 0.053212
#
#
# Mechanical properties :
#
#
# Convention : Reuss Voigt Hill
#
# Bulk Modulus (GPa) = 64.81413 87.21038 76.01225
# Shear Modulus (GPa) = 25.09831 31.76681 28.43256
#
# Velocity S-wave (km/s) = 3.55480 3.99926 3.78356
# Velocity P-wave (km/s) = 7.03432 8.07679 7.57351
#
# Compressibility (1/GPa) = 0.01542874
#
# Stress axis : x y z
#
# Youngs Moduli (GPa) = 57.20887 134.88854 76.06025
#
# Poissons Ratio (x) = 0.34683 0.48995
# Poissons Ratio (y) = 0.14710 0.17442
# Poissons Ratio (z) = 0.36852 0.30932
#
# Static dielectric constant tensor:
#      x y z
#    x 1.707990 0.000000 0.030990 
#    y 0.000000 1.682040 0.000000 
#    z 0.030990 0.000000 1.739480 
# 
# From -- ./inp_files/182558.got.cif
#   From: 2010.05.17/outbox.cif.g08.bks.cpg/sg15_92_cif.got.tgz:182558.got - 2010.06.03 18:47:42.
