data_PCOD9290010
_publ_section_title
;
Structure prediction by ZEFSAII (Michael W. Deem and Ramdas Pophale) SiO2 
 PCOD9290010
Probable space group: C 2/C
;
_chemical_formula_sum "Si O2"
_cell_formula_units_Z 44
_cell_length_a 5.380273
_cell_length_b 19.732694
_cell_length_c 18.665718
_cell_angle_alpha 90.000000
_cell_angle_beta 79.853053
_cell_angle_gamma 90.000000
_cell_volume 1950.693245
_symmetry_space_group_name_H-M "C 2/C"
_symmetry_group_IT_number 15
_symmetry_cell_setting 'monoclinic'
loop_
_space_group_symop_operation_xyz
x,y,z
-x,y,1/2-z
-x,-y,-z
x,-y,1/2+z
1/2+x,1/2+y,z
1/2-x,1/2+y,1/2-z
1/2-x,1/2-y,-z
1/2+x,1/2-y,1/2+z
loop_
_atom_site_type_symbol
_atom_site_label
_atom_site_fract_x
_atom_site_fract_y
_atom_site_fract_z
Si Si1 0.067014 0.538115 0.331549
Si Si2 0.000000 0.098517 0.250000
Si Si3 0.906108 0.818981 0.989207
Si Si4 0.703739 0.827825 0.653446
Si Si5 0.615125 0.104735 0.613271
Si Si6 0.901446 0.178229 0.870572
O O1 0.368013 0.549983 0.314798
O O2 0.000000 0.528981 0.250000
O O3 0.954984 0.608364 0.366360
O O4 0.953944 0.473311 0.375431
O O5 0.793780 0.147777 0.226607
O O6 0.719507 0.877071 0.028529
O O7 0.114209 0.816452 0.042000
O O8 0.750000 0.750000 0.000000
O O9 0.044322 0.824181 0.907419
O O10 0.574637 0.754882 0.657972
O O11 0.357562 0.145340 0.642642
O O12 0.845510 0.132885 0.651366
#
# Coordination Sequence:
#
# PCOD9290010 Si02
#       6
#     8   4   8   8   8   8
#     4  10  25  46  65  93 137 189 230 282 340 409
#     4  10  26  42  72  92 140 186 236 286 342 410
#     4  10  22  40  73 103 138 176 218 292 349 407
#     4  11  22  43  70  99 138 177 231 278 348 416
#     4  10  24  42  69 102 135 174 226 278 350 394
#     4  10  23  41  70 102 132 176 217 283 342 403
#
# _framework density 22.556083000000001
#
# number of rings (size 3 to 8) (size 9 to 14) (size 15 to 20)
#    1.091    0.727    1.818    0.545   10.182    0.727 
#    1.636    1.818    0.000    0.000    0.000    0.000 
#    0.000    0.000    0.000    0.000    0.000    0.000 
#
# Total GULP energy -122728.629654 kJ/mol
# GULP energy per Si atom -5578.574075 kJ/mol
# Density = 2.250474 g / cm^3
# Si number density = 22.556083 Si / 1000 Ang^3
#
#
#
# Elastic Constant Matrix: (Units=GPa)
#
#
# Indices 1 2 3 4 5 6 
#
# 1 121.2044 55.9061 2.1774 0.0000 -22.6839 0.0000
# 2 55.9061 149.1677 9.9227 0.0000 -33.4005 0.0000
# 3 2.1774 9.9227 38.8826 0.0000 -17.9348 0.0000
# 4 0.0000 0.0000 0.0000 44.6310 0.0000 -27.1827
# 5 -22.6839 -33.4005 -17.9348 0.0000 32.7637 0.0000
# 6 0.0000 0.0000 0.0000 -27.1827 0.0000 56.9316
#
#
#
# Elastic Compliance Matrix: (Units=1/GPa)
#
#
# Indices 1 2 3 4 5 6 
#
# 1 0.010639 -0.002816 0.002938 0.000000 0.006103 0.000000
# 2 -0.002816 0.009618 0.001774 0.000000 0.008826 0.000000
# 3 0.002938 0.001774 0.035951 0.000000 0.023522 0.000000
# 4 0.000000 0.000000 0.000000 0.031593 0.000000 0.015085
# 5 0.006103 0.008826 0.023522 0.000000 0.056621 0.000000
# 6 0.000000 0.000000 0.000000 0.015085 0.000000 0.024767
#
#
# Mechanical properties :
#
#
# Convention : Reuss Voigt Hill
#
# Bulk Modulus (GPa) = 16.66672 49.47413 33.07042
# Shear Modulus (GPa) = 26.96927 42.94849 34.95888
#
# Velocity S-wave (km/s) = 3.46157 4.36831 3.94110
# Velocity P-wave (km/s) = 4.83546 6.88653 5.95004
#
# Compressibility (1/GPa) = 0.05999979
#
# Stress axis : x y z
#
# Youngs Moduli (GPa) = 93.99400 103.97666 27.81572
#
# Poissons Ratio (x) = 0.29282 -0.08172
# Poissons Ratio (y) = 0.26471 -0.04935
# Poissons Ratio (z) = -0.27616 -0.18449
#
# Static dielectric constant tensor:
#      x y z
#    x 1.914990 0.000000 0.001730 
#    y 0.000000 1.811790 0.000000 
#    z 0.001730 0.000000 1.923310 
# 
# From -- ./inp_files/226969.got.cif
#   From: 2010.05.17/outbox.cif.g08.bks.cpg/sg15_114_cif.got.tgz:226969.got - 2010.06.03 18:47:42.
