data_PCOD9290081
_publ_section_title
;
Structure prediction by ZEFSAII (Michael W. Deem and Ramdas Pophale) SiO2 
 PCOD9290081
Probable space group: C 2/C
;
_chemical_formula_sum "Si O2"
_cell_formula_units_Z 64
_cell_length_a 30.084256
_cell_length_b 12.772747
_cell_length_c 8.688144
_cell_angle_alpha 90.000000
_cell_angle_beta 105.517019
_cell_angle_gamma 90.000000
_cell_volume 3216.809304
_symmetry_space_group_name_H-M "C 2/C"
_symmetry_group_IT_number 15
_symmetry_cell_setting 'monoclinic'
loop_
_space_group_symop_operation_xyz
x,y,z
-x,y,1/2-z
-x,-y,-z
x,-y,1/2+z
1/2+x,1/2+y,z
1/2-x,1/2+y,1/2-z
1/2-x,1/2-y,-z
1/2+x,1/2-y,1/2+z
loop_
_atom_site_type_symbol
_atom_site_label
_atom_site_fract_x
_atom_site_fract_y
_atom_site_fract_z
Si Si1 0.816909 0.228520 0.431740
Si Si2 0.149386 0.546001 0.198893
Si Si3 0.418186 0.226781 0.484630
Si Si4 0.145762 0.123183 0.737290
Si Si5 0.493015 0.117249 0.059869
Si Si6 0.717246 0.065728 0.530380
Si Si7 0.601247 0.169622 0.688676
Si Si8 0.810583 0.001416 0.481699
O O1 0.834603 0.207249 0.622863
O O2 0.777681 0.317982 0.392331
O O3 0.858221 0.270313 0.363943
O O4 0.804454 0.109649 0.377596
O O5 0.115374 0.634730 0.108529
O O6 0.187086 0.584624 0.352582
O O7 0.119654 0.448505 0.237064
O O8 0.181880 0.499408 0.098238
O O9 0.400316 0.331329 0.382035
O O10 0.469076 0.192410 0.482400
O O11 0.412067 0.224739 0.663392
O O12 0.178045 0.091651 0.622998
O O13 0.148030 0.023666 0.857126
O O14 0.500000 0.115439 0.250000
O O15 0.442564 0.156224 0.963300
O O16 0.500000 0.000000 0.000000
O O17 0.763204 0.003128 0.532972
#
# Coordination Sequence:
#
# PCOD9290081 Si02
#       8
#     8   8   8   8   8   8   8   8
#     4   9  22  37  62  86 119 165 209 265 321 370
#     4  11  21  34  57  90 132 166 201 252 315 374
#     4  12  23  40  61  96 128 168 206 254 316 389
#     4  10  23  39  64  88 121 163 217 272 320 375
#     4  12  25  38  65  97 135 165 204 248 308 394
#     4  11  20  38  58  87 127 169 212 266 313 374
#     4  11  23  39  62  93 131 167 206 252 323 385
#     4  10  22  41  61  86 118 169 221 270 318 366
#
# _framework density 19.895491
#
# number of rings (size 3 to 8) (size 9 to 14) (size 15 to 20)
#    0.750    0.500    3.750    3.000    3.500    0.000 
#    0.000    0.625    0.000    0.750    0.000    0.000 
#    0.000    0.000    0.000    0.000    0.000    0.000 
#
# Total GULP energy -178301.865791 kJ/mol
# GULP energy per Si atom -5571.933306 kJ/mol
# Density = 1.985021 g / cm^3
# Si number density = 19.895491 Si / 1000 Ang^3
#
#
#
# Elastic Constant Matrix: (Units=GPa)
#
#
# Indices 1 2 3 4 5 6 
#
# 1 77.4130 16.0980 22.7550 0.0000 -8.5311 0.0000
# 2 16.0980 32.1407 21.2011 0.0000 -8.3351 0.0000
# 3 22.7550 21.2011 106.7767 0.0000 -7.2914 0.0000
# 4 0.0000 0.0000 0.0000 26.0178 0.0000 2.0374
# 5 -8.5311 -8.3351 -7.2914 0.0000 32.4424 0.0000
# 6 0.0000 0.0000 0.0000 2.0374 0.0000 27.8503
#
#
#
# Elastic Compliance Matrix: (Units=1/GPa)
#
#
# Indices 1 2 3 4 5 6 
#
# 1 0.014881 -0.005669 -0.001907 0.000000 0.002028 0.000000
# 2 -0.005669 0.039972 -0.006225 0.000000 0.007380 0.000000
# 3 -0.001907 -0.006225 0.011034 0.000000 0.000379 0.000000
# 4 0.000000 0.000000 0.000000 0.038657 0.000000 -0.002828
# 5 0.002028 0.007380 0.000379 0.000000 0.033338 0.000000
# 6 0.000000 0.000000 0.000000 -0.002828 0.000000 0.036113
#
#
# Mechanical properties :
#
#
# Convention : Reuss Voigt Hill
#
# Bulk Modulus (GPa) = 26.12003 37.38208 31.75106
# Shear Modulus (GPa) = 23.32542 27.68053 25.50298
#
# Velocity S-wave (km/s) = 3.42774 3.73406 3.58417
# Velocity P-wave (km/s) = 5.36871 6.11726 5.75517
#
# Compressibility (1/GPa) = 0.03828479
#
# Stress axis : x y z
#
# Youngs Moduli (GPa) = 67.20114 25.01720 90.63248
#
# Poissons Ratio (x) = 0.14183 0.17284
# Poissons Ratio (y) = 0.38098 0.56415
# Poissons Ratio (z) = 0.12816 0.15572
#
# Static dielectric constant tensor:
#      x y z
#    x 1.678160 0.000000 0.003240 
#    y 0.000000 1.760900 0.000000 
#    z 0.003240 0.000000 1.694340 
# 
# From -- ./inp_files/66255.got.cif
#   From: 2010.05.17/outbox.cif.g08.bks.cpg/sg15_34_cif.got.tgz:66255.got - 2010.06.03 18:47:42.
