data_PCOD9290843
_publ_section_title
;
Structure prediction by ZEFSAII (Michael W. Deem and Ramdas Pophale) SiO2 
 PCOD9290843
Probable space group: C 2/C
;
_chemical_formula_sum "Si O2"
_cell_formula_units_Z 56
_cell_length_a 13.899956
_cell_length_b 14.298282
_cell_length_c 19.965911
_cell_angle_alpha 90.000000
_cell_angle_beta 146.491869
_cell_angle_gamma 90.000000
_cell_volume 2190.629910
_symmetry_space_group_name_H-M "C 2/C"
_symmetry_group_IT_number 15
_symmetry_cell_setting 'monoclinic'
loop_
_space_group_symop_operation_xyz
x,y,z
-x,y,1/2-z
-x,-y,-z
x,-y,1/2+z
1/2+x,1/2+y,z
1/2-x,1/2+y,1/2-z
1/2-x,1/2-y,-z
1/2+x,1/2-y,1/2+z
loop_
_atom_site_type_symbol
_atom_site_label
_atom_site_fract_x
_atom_site_fract_y
_atom_site_fract_z
Si Si1 0.875438 0.885682 0.234656
Si Si2 0.947627 0.710027 0.112511
Si Si3 0.546055 0.007303 0.853043
Si Si4 0.502024 0.171123 0.994206
Si Si5 0.205586 0.148310 0.440960
Si Si6 0.687960 0.553361 0.660829
Si Si7 0.470188 0.635757 0.413803
O O1 0.669401 0.895991 0.098942
O O2 0.917526 0.921184 0.333883
O O3 0.000000 0.928469 0.250000
O O4 0.931896 0.777105 0.273479
O O5 0.940818 0.602238 0.128781
O O6 0.750000 0.750000 0.000000
O O7 0.026595 0.708013 0.083622
O O8 0.500000 0.023174 0.750000
O O9 0.713685 0.060156 0.974235
O O10 0.388815 0.064895 0.796123
O O11 0.687261 0.145327 0.066885
O O12 0.433194 0.258474 0.911048
O O13 0.250000 0.250000 0.500000
O O14 0.009501 0.135827 0.356537
O O15 0.624104 0.605096 0.556915
O O16 0.669398 0.441074 0.644620
#
# Coordination Sequence:
#
# PCOD9290843 Si02
#       7
#     8   8   8   8   8   8   8
#     4  12  24  42  65  99 139 178 225 281 348 408
#     4  12  27  41  68 101 138 187 225 284 348 408
#     4  12  25  43  71 103 136 176 235 283 344 415
#     4  11  23  44  66  96 139 176 225 278 345 405
#     4  10  23  43  69  98 131 177 224 286 343 413
#     4  11  23  41  69 101 132 175 229 286 331 412
#     4  10  22  41  71  96 130 176 231 275 341 401
#
# _framework density 25.563424000000001
#
# number of rings (size 3 to 8) (size 9 to 14) (size 15 to 20)
#    0.000    0.857    5.714    1.286    4.000    0.571 
#    2.571    0.000    0.000    0.000    0.000    0.000 
#    0.000    0.000    0.000    0.000    0.000    0.000 
#
# Total GULP energy -156209.090826 kJ/mol
# GULP energy per Si atom -5578.896101 kJ/mol
# Density = 2.550524 g / cm^3
# Si number density = 25.563424 Si / 1000 Ang^3
#
#
#
# Elastic Constant Matrix: (Units=GPa)
#
#
# Indices 1 2 3 4 5 6 
#
# 1 175.5118 -9.5653 18.1115 0.0002 -23.3866 0.0001
# 2 -9.5653 79.9026 -10.1119 0.0005 0.3839 0.0002
# 3 18.1115 -10.1119 57.1720 0.0015 8.6255 0.0006
# 4 0.0002 0.0005 0.0015 13.5925 0.0005 -6.6263
# 5 -23.3866 0.3839 8.6255 0.0005 32.4770 0.0002
# 6 0.0001 0.0002 0.0006 -6.6263 0.0002 28.1481
#
#
#
# Elastic Compliance Matrix: (Units=1/GPa)
#
#
# Indices 1 2 3 4 5 6 
#
# 1 0.006775 0.000414 -0.002926 0.000000 0.005651 0.000000
# 2 0.000414 0.012846 0.002207 -0.000001 -0.000440 0.000000
# 3 -0.002926 0.002207 0.019929 -0.000002 -0.007426 -0.000001
# 4 0.000000 -0.000001 -0.000002 0.083107 -0.000001 0.019564
# 5 0.005651 -0.000440 -0.007426 -0.000001 0.036837 0.000000
# 6 0.000000 0.000000 -0.000001 0.019564 0.000000 0.040132
#
#
# Mechanical properties :
#
#
# Convention : Reuss Voigt Hill
#
# Bulk Modulus (GPa) = 25.67998 34.38390 30.03194
# Shear Modulus (GPa) = 23.45047 35.78703 29.61875
#
# Velocity S-wave (km/s) = 3.03206 3.74562 3.40757
# Velocity P-wave (km/s) = 4.72496 5.67326 5.22069
#
# Compressibility (1/GPa) = 0.03894084
#
# Stress axis : x y z
#
# Youngs Moduli (GPa) = 147.60098 77.84387 50.17914
#
# Poissons Ratio (x) = -0.03220 0.14681
# Poissons Ratio (y) = -0.06106 -0.11077
# Poissons Ratio (z) = 0.43182 -0.17184
#
# Static dielectric constant tensor:
#      x y z
#    x 2.176600 0.000000 0.010910 
#    y 0.000000 2.037620 0.000000 
#    z 0.010910 0.000000 2.087940 
# 
# From -- ./inp_files/244558.got.cif
#   From: 2010.05.17/outbox.cif.g08.bks.cpg/sg15_123_cif.got.tgz:244558.got - 2010.06.03 18:47:42.
