data_PCOD9290926
_publ_section_title
;
Structure prediction by ZEFSAII (Michael W. Deem and Ramdas Pophale) SiO2 
 PCOD9290926
Probable space group: C 2/C
;
_chemical_formula_sum "Si O2"
_cell_formula_units_Z 52
_cell_length_a 17.764912
_cell_length_b 17.481574
_cell_length_c 8.750703
_cell_angle_alpha 90.000000
_cell_angle_beta 129.231570
_cell_angle_gamma 90.000000
_cell_volume 2105.047288
_symmetry_space_group_name_H-M "C 2/C"
_symmetry_group_IT_number 15
_symmetry_cell_setting 'monoclinic'
loop_
_space_group_symop_operation_xyz
x,y,z
-x,y,1/2-z
-x,-y,-z
x,-y,1/2+z
1/2+x,1/2+y,z
1/2-x,1/2+y,1/2-z
1/2-x,1/2-y,-z
1/2+x,1/2-y,1/2+z
loop_
_atom_site_type_symbol
_atom_site_label
_atom_site_fract_x
_atom_site_fract_y
_atom_site_fract_z
Si Si1 0.360670 0.773910 0.134593
Si Si2 0.425462 0.533904 0.281510
Si Si3 0.401263 0.672381 0.438102
Si Si4 0.500000 0.096952 0.750000
Si Si5 0.606067 0.712029 0.644060
Si Si6 0.566843 0.111300 0.182547
Si Si7 0.719754 0.604039 0.959279
O O1 0.397698 0.752609 0.349289
O O2 0.399131 0.857609 0.149725
O O3 0.250000 0.750000 0.000000
O O4 0.404644 0.725620 0.050076
O O5 0.500000 0.560691 0.250000
O O6 0.500000 0.500000 0.500000
O O7 0.371318 0.605796 0.282920
O O8 0.350283 0.469537 0.133193
O O9 0.517077 0.664768 0.606071
O O10 0.325733 0.662371 0.474509
O O11 0.475075 0.077654 0.533774
O O12 0.596858 0.797995 0.699993
O O13 0.700684 0.658190 0.787978
O O14 0.500000 0.101958 0.250000
O O15 0.672448 0.077711 0.363218
#
# Coordination Sequence:
#
# PCOD9290926 Si02
#       7
#     8   8   8   4   8   8   8
#     4  11  22  36  60  95 130 172 215 264 338 404
#     4  12  23  41  63  94 133 167 208 269 332 393
#     4  12  21  39  64  92 134 167 209 276 332 398
#     4  10  22  42  60  96 138 168 220 272 340 402
#     4  11  21  37  62  96 135 171 215 268 342 402
#     4  11  24  42  66  94 136 179 222 279 328 399
#     4  12  25  39  60 100 126 175 228 264 337 405
#
# _framework density 24.702534
#
# number of rings (size 3 to 8) (size 9 to 14) (size 15 to 20)
#    0.000    0.615    6.154    4.615    2.154    0.000 
#    0.000    0.000    0.000    0.923    2.000    0.000 
#    0.000    0.000    0.000    0.000    0.000    0.000 
#
# Total GULP energy -144909.577516 kJ/mol
# GULP energy per Si atom -5573.445289 kJ/mol
# Density = 2.464631 g / cm^3
# Si number density = 24.702534 Si / 1000 Ang^3
#
#
#
# Elastic Constant Matrix: (Units=GPa)
#
#
# Indices 1 2 3 4 5 6 
#
# 1 113.7452 3.6268 54.3619 0.0000 15.9417 0.0000
# 2 3.6268 46.5951 -0.4940 0.0000 -1.4536 0.0000
# 3 54.3619 -0.4940 125.5508 0.0000 12.7280 0.0000
# 4 0.0000 0.0000 0.0000 2.3021 0.0000 -15.4281
# 5 15.9417 -1.4536 12.7280 0.0000 45.4433 0.0000
# 6 0.0000 0.0000 0.0000 -15.4281 0.0000 6.0800
#
#
#
# Elastic Compliance Matrix: (Units=1/GPa)
#
#
# Indices 1 2 3 4 5 6 
#
# 1 0.011446 -0.001026 -0.004682 0.000000 -0.002737 0.000000
# 2 -0.001026 0.021575 0.000435 0.000000 0.000928 0.000000
# 3 -0.004682 0.000435 0.010113 0.000000 -0.001176 0.000000
# 4 0.000000 0.000000 0.000000 -0.027139 0.000000 -0.068866
# 5 -0.002737 0.000928 -0.001176 0.000000 0.023324 0.000000
# 6 0.000000 0.000000 0.000000 -0.068866 0.000000 -0.010276
#
#
# Mechanical properties :
#
#
# Convention : Reuss Voigt Hill
#
# Bulk Modulus (GPa) = 30.68691 44.54227 37.61459
# Shear Modulus (GPa) = 99.10393 25.99152 62.54773
#
# Velocity S-wave (km/s) = 6.34082 3.24725 5.03739
# Velocity P-wave (km/s) = 8.12758 5.66834 7.00670
#
# Compressibility (1/GPa) = 0.03258718
#
# Stress axis : x y z
#
# Youngs Moduli (GPa) = 87.36909 46.35012 98.87984
#
# Poissons Ratio (x) = 0.04755 0.46300
# Poissons Ratio (y) = 0.08963 -0.04301
# Poissons Ratio (z) = 0.40910 -0.02016
#
# Static dielectric constant tensor:
#      x y z
#    x 1.916560 0.000000 0.056850 
#    y 0.000000 1.992390 0.000000 
#    z 0.056850 0.000000 2.279310 
# 
# From -- ./inp_files/50725.got.cif
#   From: 2010.05.17/outbox.cif.g08.bks.cpg/sg15_26_cif.got.tgz:50725.got - 2010.06.03 18:47:42.
