data_PCOD9290258
_publ_section_title
;
Structure prediction by ZEFSAII (Michael W. Deem and Ramdas Pophale) SiO2 
 PCOD9290258
Probable space group: C 2/C
;
_chemical_formula_sum "Si O2"
_cell_formula_units_Z 48
_cell_length_a 14.687664
_cell_length_b 12.141317
_cell_length_c 18.554362
_cell_angle_alpha 90.000000
_cell_angle_beta 43.652300
_cell_angle_gamma 90.000000
_cell_volume 2283.968042
_symmetry_space_group_name_H-M "C 2/C"
_symmetry_group_IT_number 15
_symmetry_cell_setting 'monoclinic'
loop_
_space_group_symop_operation_xyz
x,y,z
-x,y,1/2-z
-x,-y,-z
x,-y,1/2+z
1/2+x,1/2+y,z
1/2-x,1/2+y,1/2-z
1/2-x,1/2-y,-z
1/2+x,1/2-y,1/2+z
loop_
_atom_site_type_symbol
_atom_site_label
_atom_site_fract_x
_atom_site_fract_y
_atom_site_fract_z
Si Si1 0.500000 0.631268 0.750000
Si Si2 0.416247 0.025164 0.476894
Si Si3 0.213600 0.723377 0.886229
Si Si4 0.853686 0.946139 0.915482
Si Si5 0.363223 0.104434 0.719017
Si Si6 0.500000 0.741107 0.250000
Si Si7 0.653442 0.519580 0.423351
O O1 0.369723 0.699304 0.804205
O O2 0.450800 0.547800 0.840728
O O3 0.367347 0.151482 0.507833
O O4 0.500000 0.000000 0.500000
O O5 0.279060 0.959122 0.555120
O O6 0.512774 0.978957 0.360679
O O7 0.164168 0.674175 0.837879
O O8 0.184290 0.851311 0.910393
O O9 0.926909 0.836176 0.849946
O O10 0.812087 0.959207 0.021577
O O11 0.398352 0.185793 0.763617
O O12 0.236453 0.033163 0.811441
O O13 0.500000 0.500000 0.500000
#
# Coordination Sequence:
#
# PCOD9290258 Si02
#       7
#     4   8   8   8   8   4   8
#     4   9  20  41  66  92 122 163 206 247 308 370
#     4   9  21  41  64  93 124 162 207 249 302 368
#     4  10  23  42  66  90 127 167 199 257 309 354
#     4  10  22  41  64  93 126 161 205 252 306 371
#     4  11  24  40  63  94 124 162 210 252 305 371
#     4  11  24  43  66  90 126 165 200 259 314 356
#     4  12  26  41  62  93 124 161 212 256 305 372
#
# _framework density 21.016055999999999
#
# number of rings (size 3 to 8) (size 9 to 14) (size 15 to 20)
#    0.000    1.667    0.000    3.000    0.000   18.000 
#    0.000    0.000    0.000    0.000    0.000    0.000 
#    0.000    0.000    0.000    0.000    0.000    0.000 
#
# Total GULP energy -134113.411989 kJ/mol
# GULP energy per Si atom -5588.058833 kJ/mol
# Density = 2.096822 g / cm^3
# Si number density = 21.016056 Si / 1000 Ang^3
#
#
#
# Elastic Constant Matrix: (Units=GPa)
#
#
# Indices 1 2 3 4 5 6 
#
# 1 79.6399 39.0258 17.4933 0.0000 -24.3806 0.0000
# 2 39.0258 125.3296 68.4919 0.0000 -14.5754 0.0000
# 3 17.4933 68.4919 111.6325 0.0000 -19.7150 0.0000
# 4 0.0000 0.0000 0.0000 -9.5076 0.0000 -10.9910
# 5 -24.3806 -14.5754 -19.7150 0.0000 44.3255 0.0000
# 6 0.0000 0.0000 0.0000 -10.9910 0.0000 21.3140
#
#
#
# Elastic Compliance Matrix: (Units=1/GPa)
#
#
# Indices 1 2 3 4 5 6 
#
# 1 0.017534 -0.005693 0.002299 0.000000 0.008794 0.000000
# 2 -0.005693 0.013874 -0.007996 0.000000 -0.002126 0.000000
# 3 0.002299 -0.007996 0.014393 0.000000 0.005037 0.000000
# 4 0.000000 0.000000 0.000000 -0.065897 0.000000 -0.033981
# 5 0.008794 -0.002126 0.005037 0.000000 0.028939 0.000000
# 6 0.000000 0.000000 0.000000 -0.033981 0.000000 0.029395
#
#
# Mechanical properties :
#
#
# Convention : Reuss Voigt Hill
#
# Bulk Modulus (GPa) = 43.43980 62.95824 53.19902
# Shear Modulus (GPa) = 72.78894 23.99911 48.39403
#
# Velocity S-wave (km/s) = 5.89153 3.38293 4.80387
# Velocity P-wave (km/s) = 8.18504 6.72913 7.49253
#
# Compressibility (1/GPa) = 0.02302036
#
# Stress axis : x y z
#
# Youngs Moduli (GPa) = 57.03296 72.07659 69.47802
#
# Poissons Ratio (x) = 0.41034 -0.15970
# Poissons Ratio (y) = 0.32470 0.55552
# Poissons Ratio (z) = -0.13109 0.57630
#
# Static dielectric constant tensor:
#      x y z
#    x 1.749280 0.000000 0.044740 
#    y 0.000000 1.738360 0.000000 
#    z 0.044740 0.000000 1.767700 
# 
# From -- ./inp_files/243960.got.cif
#   From: 2010.05.17/outbox.cif.g08.bks.cpg/sg15_122_cif.got.tgz:243960.got - 2010.06.03 18:47:42.
