data_PCOD9290195
_publ_section_title
;
Structure prediction by ZEFSAII (Michael W. Deem and Ramdas Pophale) SiO2 
 PCOD9290195
Probable space group: C 2/C
;
_chemical_formula_sum "Si O2"
_cell_formula_units_Z 40
_cell_length_a 7.871176
_cell_length_b 17.041226
_cell_length_c 17.417059
_cell_angle_alpha 90.000000
_cell_angle_beta 57.426849
_cell_angle_gamma 90.000000
_cell_volume 1968.750751
_symmetry_space_group_name_H-M "C 2/C"
_symmetry_group_IT_number 15
_symmetry_cell_setting 'monoclinic'
loop_
_space_group_symop_operation_xyz
x,y,z
-x,y,1/2-z
-x,-y,-z
x,-y,1/2+z
1/2+x,1/2+y,z
1/2-x,1/2+y,1/2-z
1/2-x,1/2-y,-z
1/2+x,1/2-y,1/2+z
loop_
_atom_site_type_symbol
_atom_site_label
_atom_site_fract_x
_atom_site_fract_y
_atom_site_fract_z
Si Si1 0.344360 0.559006 0.080590
Si Si2 0.783519 0.407892 0.331052
Si Si3 0.566491 0.151255 0.031984
Si Si4 0.554982 0.703642 0.649985
Si Si5 0.210171 0.157199 0.016875
O O1 0.241424 0.501843 0.166691
O O2 0.187091 0.591520 0.056876
O O3 0.500000 0.500000 0.000000
O O4 0.477541 0.630445 0.081615
O O5 0.600146 0.365699 0.332881
O O6 0.774901 0.380334 0.420931
O O7 0.000000 0.382438 0.250000
O O8 0.525078 0.226918 0.095532
O O9 0.718227 0.174538 0.925115
O O10 0.355382 0.124753 0.047873
O O11 0.500000 0.728238 0.750000
O O12 0.250000 0.250000 0.000000
#
# Coordination Sequence:
#
# PCOD9290195 Si02
#       5
#     8   8   8   8   8
#     4  10  22  41  63  93 131 164 212 261 323 392
#     4  11  23  42  62  95 134 168 212 272 323 385
#     4  11  21  41  71  94 125 177 212 268 332 375
#     4  11  22  40  65  98 130 168 220 265 321 390
#     4  11  20  40  71  95 122 171 221 261 320 392
#
# _framework density 20.317451999999999
#
# number of rings (size 3 to 8) (size 9 to 14) (size 15 to 20)
#    0.000    1.200    6.000    2.400    0.000    4.000 
#    3.600    0.000    0.000    0.000    0.000    0.000 
#    0.000    0.000    0.000    0.000    0.000    0.000 
#
# Total GULP energy -111605.767342 kJ/mol
# GULP energy per Si atom -5580.288367 kJ/mol
# Density = 2.027121 g / cm^3
# Si number density = 20.317452 Si / 1000 Ang^3
#
#
#
# Elastic Constant Matrix: (Units=GPa)
#
#
# Indices 1 2 3 4 5 6 
#
# 1 122.4183 26.9628 18.2988 0.0000 6.8952 0.0000
# 2 26.9628 85.7802 11.4452 0.0000 -6.4906 0.0000
# 3 18.2988 11.4452 85.5003 0.0000 -2.9988 0.0000
# 4 0.0000 0.0000 0.0000 16.2705 0.0000 6.4866
# 5 6.8952 -6.4906 -2.9988 0.0000 17.1891 0.0000
# 6 0.0000 0.0000 0.0000 6.4866 0.0000 32.8034
#
#
#
# Elastic Compliance Matrix: (Units=1/GPa)
#
#
# Indices 1 2 3 4 5 6 
#
# 1 0.009419 -0.003122 -0.001783 0.000000 -0.005268 0.000000
# 2 -0.003122 0.013218 -0.000888 0.000000 0.006088 0.000000
# 3 -0.001783 -0.000888 0.012285 0.000000 0.002523 0.000000
# 4 0.000000 0.000000 0.000000 0.066721 0.000000 -0.013193
# 5 -0.005268 0.006088 0.002523 0.000000 0.063029 0.000000
# 6 0.000000 0.000000 0.000000 -0.013193 0.000000 0.033093
#
#
# Mechanical properties :
#
#
# Convention : Reuss Voigt Hill
#
# Bulk Modulus (GPa) = 42.84876 45.23472 44.04174
# Shear Modulus (GPa) = 23.02778 29.05207 26.03992
#
# Velocity S-wave (km/s) = 3.37025 3.78551 3.58390
# Velocity P-wave (km/s) = 6.02331 6.43577 6.23295
#
# Compressibility (1/GPa) = 0.02333790
#
# Stress axis : x y z
#
# Youngs Moduli (GPa) = 106.16316 75.65437 81.40162
#
# Poissons Ratio (x) = 0.23616 0.14513
# Poissons Ratio (y) = 0.33139 0.07227
# Poissons Ratio (z) = 0.18928 0.06716
#
# Static dielectric constant tensor:
#      x y z
#    x 1.722650 0.000000 -0.043910 
#    y 0.000000 1.795320 0.000000 
#    z -0.043910 0.000000 1.753320 
# 
# From -- ./inp_files/188697.got.cif
#   From: 2010.05.17/outbox.cif.g08.bks.cpg/sg15_95_cif.got.tgz:188697.got - 2010.06.03 18:47:42.
