data_PCOD9290120
_publ_section_title
;
Structure prediction by ZEFSAII (Michael W. Deem and Ramdas Pophale) SiO2 
 PCOD9290120
Probable space group: C 2/C
;
_chemical_formula_sum "Si O2"
_cell_formula_units_Z 56
_cell_length_a 13.967629
_cell_length_b 15.233958
_cell_length_c 21.711621
_cell_angle_alpha 90.000000
_cell_angle_beta 35.029371
_cell_angle_gamma 90.000000
_cell_volume 2651.775589
_symmetry_space_group_name_H-M "C 2/C"
_symmetry_group_IT_number 15
_symmetry_cell_setting 'monoclinic'
loop_
_space_group_symop_operation_xyz
x,y,z
-x,y,1/2-z
-x,-y,-z
x,-y,1/2+z
1/2+x,1/2+y,z
1/2-x,1/2+y,1/2-z
1/2-x,1/2-y,-z
1/2+x,1/2-y,1/2+z
loop_
_atom_site_type_symbol
_atom_site_label
_atom_site_fract_x
_atom_site_fract_y
_atom_site_fract_z
Si Si1 0.774285 0.982332 0.520253
Si Si2 0.670414 0.845158 0.777459
Si Si3 0.172036 0.319573 0.492312
Si Si4 0.782595 0.660862 0.019957
Si Si5 0.000000 0.595548 0.250000
Si Si6 0.659770 0.183619 0.855821
Si Si7 0.634972 0.518578 0.796809
Si Si8 0.500000 0.583970 0.250000
O O1 0.738024 0.079632 0.515990
O O2 0.972596 0.971724 0.425726
O O3 0.727311 0.914038 0.490115
O O4 0.653098 0.959087 0.640522
O O5 0.568705 0.844810 0.767785
O O6 0.814727 0.774616 0.694097
O O7 0.738140 0.943256 0.748508
O O8 0.529662 0.817847 0.899857
O O9 0.250000 0.250000 0.500000
O O10 0.215380 0.307695 0.397948
O O11 0.646262 0.643295 0.144749
O O12 0.750000 0.750000 0.000000
O O13 0.967012 0.658271 0.951208
O O14 0.772895 0.109347 0.764406
O O15 0.566510 0.478431 0.768966
#
# Coordination Sequence:
#
# PCOD9290120 Si02
#       8
#     8   8   8   8   4   8   8   4
#     4  10  22  41  62  89 124 160 202 250 304 367
#     4  11  24  40  59  91 126 155 202 257 301 361
#     4  11  23  40  64  93 122 156 204 256 309 366
#     4  11  24  41  61  88 124 165 207 246 296 368
#     4  10  22  42  62  84 126 164 192 254 316 350
#     4  12  22  38  67  92 119 164 202 246 311 361
#     4  11  23  40  65  93 121 158 207 253 302 367
#     4  10  22  42  62  86 124 158 198 262 306 346
#
# _framework density 21.117927000000002
#
# number of rings (size 3 to 8) (size 9 to 14) (size 15 to 20)
#    0.000    1.143    0.000    8.571    0.000    4.571 
#    0.000    5.714    0.000    0.000    0.000    0.000 
#    0.000    0.000    0.000    0.000    0.000    0.000 
#
# Total GULP energy -156529.727924 kJ/mol
# GULP energy per Si atom -5590.347426 kJ/mol
# Density = 2.106986 g / cm^3
# Si number density = 21.117927 Si / 1000 Ang^3
#
#
#
# Elastic Constant Matrix: (Units=GPa)
#
#
# Indices 1 2 3 4 5 6 
#
# 1 43.2183 -0.0244 6.0779 0.0000 -6.8784 0.0000
# 2 -0.0244 98.6299 33.4355 -0.0006 10.7662 0.0001
# 3 6.0779 33.4355 154.9746 -0.0021 -3.6465 0.0005
# 4 0.0000 -0.0006 -0.0021 36.4589 0.0004 -5.7862
# 5 -6.8784 10.7662 -3.6465 0.0004 28.2537 0.0000
# 6 0.0000 0.0001 0.0005 -5.7862 0.0000 30.3492
#
#
#
# Elastic Compliance Matrix: (Units=1/GPa)
#
#
# Indices 1 2 3 4 5 6 
#
# 1 0.024186 -0.000398 -0.000723 0.000000 0.005947 0.000000
# 2 -0.000398 0.011544 -0.002589 0.000000 -0.004830 0.000000
# 3 -0.000723 -0.002589 0.007080 0.000000 0.001724 0.000000
# 4 0.000000 0.000000 0.000000 0.028284 0.000000 0.005392
# 5 0.005947 -0.004830 0.001724 0.000000 0.038904 0.000000
# 6 0.000000 0.000000 0.000000 0.005392 0.000000 0.033978
#
#
# Mechanical properties :
#
#
# Convention : Reuss Voigt Hill
#
# Bulk Modulus (GPa) = 28.25576 41.75566 35.00571
# Shear Modulus (GPa) = 30.63883 36.16796 33.40339
#
# Velocity S-wave (km/s) = 3.81313 4.14293 3.98144
# Velocity P-wave (km/s) = 5.72675 6.53457 6.14395
#
# Compressibility (1/GPa) = 0.03539101
#
# Stress axis : x y z
#
# Youngs Moduli (GPa) = 41.34587 86.62870 141.24188
#
# Poissons Ratio (x) = 0.03449 0.10208
# Poissons Ratio (y) = 0.01646 0.36561
# Poissons Ratio (z) = 0.02988 0.22424
#
# Static dielectric constant tensor:
#      x y z
#    x 0.911160 0.000000 1.303330 
#    y 0.000000 1.724280 0.000000 
#    z 1.303330 0.000000 -0.217260 
# 
# From -- ./inp_files/274484.got.cif
#   From: 2010.05.17/outbox.cif.g08.bks.cpg/sg15_138_cif.got.tgz:274484.got - 2010.06.03 18:47:42.
