data_PCOD9290945
_publ_section_title
;
Structure prediction by ZEFSAII (Michael W. Deem and Ramdas Pophale) SiO2 
 PCOD9290945
Probable space group: C 2/C
;
_chemical_formula_sum "Si O2"
_cell_formula_units_Z 48
_cell_length_a 11.348192
_cell_length_b 13.664999
_cell_length_c 19.662084
_cell_angle_alpha 90.000000
_cell_angle_beta 45.183473
_cell_angle_gamma 90.000000
_cell_volume 2162.903214
_symmetry_space_group_name_H-M "C 2/C"
_symmetry_group_IT_number 15
_symmetry_cell_setting 'monoclinic'
loop_
_space_group_symop_operation_xyz
x,y,z
-x,y,1/2-z
-x,-y,-z
x,-y,1/2+z
1/2+x,1/2+y,z
1/2-x,1/2+y,1/2-z
1/2-x,1/2-y,-z
1/2+x,1/2-y,1/2+z
loop_
_atom_site_type_symbol
_atom_site_label
_atom_site_fract_x
_atom_site_fract_y
_atom_site_fract_z
Si Si1 0.238456 0.719152 0.426716
Si Si2 0.642131 0.718574 0.607388
Si Si3 0.000000 0.603658 0.250000
Si Si4 0.899344 0.619441 0.597427
Si Si5 0.500000 0.576844 0.250000
Si Si6 0.714755 0.291190 0.298176
Si Si7 0.806279 0.555633 0.204743
O O1 0.250000 0.750000 0.500000
O O2 0.382823 0.644201 0.345651
O O3 0.244275 0.803934 0.366670
O O4 0.058412 0.668116 0.498707
O O5 0.750000 0.750000 0.500000
O O6 0.608866 0.819281 0.662156
O O7 0.744188 0.643712 0.612122
O O8 0.466773 0.677210 0.653021
O O9 0.879582 0.541686 0.250177
O O10 0.850747 0.668691 0.690395
O O11 0.923576 0.506059 0.606778
O O12 0.624992 0.523544 0.251250
O O13 0.704008 0.172751 0.296515
#
# Coordination Sequence:
#
# PCOD9290945 Si02
#       7
#     8   8   4   8   4   8   8
#     4  11  23  40  66  93 135 180 222 278 353 412
#     4  11  20  38  70  99 126 177 235 283 337 399
#     4  10  22  45  65  94 148 174 224 301 339 400
#     4  12  23  40  74  97 129 184 235 270 349 425
#     4  10  24  41  59  98 140 170 220 299 341 394
#     4  10  22  42  61  97 136 172 223 295 334 393
#     4  10  23  41  67  96 133 179 223 279 345 406
#
# _framework density 22.192394
#
# number of rings (size 3 to 8) (size 9 to 14) (size 15 to 20)
#    0.000    1.333    5.000    2.000    2.333    4.000 
#    0.000    0.000    0.000    4.000    0.000    0.000 
#    0.000    0.000    0.000    0.000    0.000    0.000 
#
# Total GULP energy -133910.158732 kJ/mol
# GULP energy per Si atom -5579.589947 kJ/mol
# Density = 2.214188 g / cm^3
# Si number density = 22.192394 Si / 1000 Ang^3
#
#
#
# Elastic Constant Matrix: (Units=GPa)
#
#
# Indices 1 2 3 4 5 6 
#
# 1 166.0486 14.2259 32.4480 0.0000 18.7192 0.0000
# 2 14.2259 67.3013 24.5000 0.0000 13.4469 0.0000
# 3 32.4480 24.5000 157.9817 0.0000 18.2405 0.0000
# 4 0.0000 0.0000 0.0000 26.2506 0.0000 0.0866
# 5 18.7192 13.4469 18.2405 0.0000 45.3031 0.0000
# 6 0.0000 0.0000 0.0000 0.0866 0.0000 -13.2808
#
#
#
# Elastic Compliance Matrix: (Units=1/GPa)
#
#
# Indices 1 2 3 4 5 6 
#
# 1 0.006506 -0.000589 -0.001001 0.000000 -0.002110 0.000000
# 2 -0.000589 0.016476 -0.001990 0.000000 -0.003846 0.000000
# 3 -0.001001 -0.001990 0.007056 0.000000 -0.001837 0.000000
# 4 0.000000 0.000000 0.000000 0.038094 0.000000 0.000248
# 5 -0.002110 -0.003846 -0.001837 0.000000 0.024827 0.000000
# 6 0.000000 0.000000 0.000000 0.000248 0.000000 -0.075295
#
#
# Mechanical properties :
#
#
# Convention : Reuss Voigt Hill
#
# Bulk Modulus (GPa) = 43.71118 59.29770 51.50444
# Shear Modulus (GPa) = 154.08203 32.99843 93.54023
#
# Velocity S-wave (km/s) = 8.34151 3.86025 6.49932
# Velocity P-wave (km/s) = 10.60725 6.82983 8.92077
#
# Compressibility (1/GPa) = 0.02287744
#
# Stress axis : x y z
#
# Youngs Moduli (GPa) = 153.69508 60.69464 141.71956
#
# Poissons Ratio (x) = 0.03576 0.14191
# Poissons Ratio (y) = 0.09054 0.28203
# Poissons Ratio (z) = 0.15390 0.12079
#
# Static dielectric constant tensor:
#      x y z
#    x 1.915300 0.000000 -0.001180 
#    y 0.000000 1.838940 0.000000 
#    z -0.001180 0.000000 1.754320 
# 
# From -- ./inp_files/238982.got.cif
#   From: 2010.05.17/outbox.cif.g08.bks.cpg/sg15_120_cif.got.tgz:238982.got - 2010.06.03 18:47:42.
