data_PCOD9290272
_publ_section_title
;
Structure prediction by ZEFSAII (Michael W. Deem and Ramdas Pophale) SiO2 
 PCOD9290272
Probable space group: C 2/C
;
_chemical_formula_sum "Si O2"
_cell_formula_units_Z 36
_cell_length_a 16.417055
_cell_length_b 9.412579
_cell_length_c 9.148687
_cell_angle_alpha 90.000000
_cell_angle_beta 81.374900
_cell_angle_gamma 90.000000
_cell_volume 1397.729529
_symmetry_space_group_name_H-M "C 2/C"
_symmetry_group_IT_number 15
_symmetry_cell_setting 'monoclinic'
loop_
_space_group_symop_operation_xyz
x,y,z
-x,y,1/2-z
-x,-y,-z
x,-y,1/2+z
1/2+x,1/2+y,z
1/2-x,1/2+y,1/2-z
1/2-x,1/2-y,-z
1/2+x,1/2-y,1/2+z
loop_
_atom_site_type_symbol
_atom_site_label
_atom_site_fract_x
_atom_site_fract_y
_atom_site_fract_z
Si Si1 0.500000 0.815600 0.250000
Si Si2 0.441730 0.173102 0.068704
Si Si3 0.798403 0.486646 0.165633
Si Si4 0.684767 0.422163 0.467395
Si Si5 0.390124 0.272111 0.530675
O O1 0.458932 0.891801 0.400327
O O2 0.568814 0.723654 0.317085
O O3 0.385242 0.063843 0.170616
O O4 0.385515 0.310421 0.051569
O O5 0.532377 0.224774 0.088940
O O6 0.748940 0.435766 0.317936
O O7 0.740770 0.598142 0.095354
O O8 0.822232 0.350964 0.059768
O O9 0.643248 0.575993 0.502036
#
# Coordination Sequence:
#
# PCOD9290272 Si02
#       5
#     4   8   8   8   8
#     4   8  20  38  70  82 132 158 232 234 328 360
#     4  10  22  42  65  93 127 178 210 257 320 389
#     4  12  24  42  66  98 133 167 214 267 326 377
#     4  12  24  42  66  98 133 167 214 267 326 377
#     4  10  22  41  64  95 126 171 215 264 311 385
#
# _framework density 25.756057999999999
#
# number of rings (size 3 to 8) (size 9 to 14) (size 15 to 20)
#    1.333    0.000    0.000    6.667    0.000    0.000 
#    0.000    2.222    0.000    0.000    0.000    0.000 
#    0.000    0.000    0.000    0.000    0.000    0.000 
#
# Total GULP energy -100742.025397 kJ/mol
# GULP energy per Si atom -5596.779189 kJ/mol
# Density = 2.569744 g / cm^3
# Si number density = 25.756058 Si / 1000 Ang^3
#
#
#
# Elastic Constant Matrix: (Units=GPa)
#
#
# Indices 1 2 3 4 5 6 
#
# 1 98.7090 36.1283 31.6875 0.0000 -27.4541 0.0000
# 2 36.1283 134.3490 21.8599 0.0000 -38.9278 0.0000
# 3 31.6875 21.8599 130.3570 0.0000 -32.6336 0.0000
# 4 0.0000 0.0000 0.0000 20.1796 0.0000 -7.2762
# 5 -27.4541 -38.9278 -32.6336 0.0000 44.7050 0.0000
# 6 0.0000 0.0000 0.0000 -7.2762 0.0000 47.6216
#
#
#
# Elastic Compliance Matrix: (Units=1/GPa)
#
#
# Indices 1 2 3 4 5 6 
#
# 1 0.012674 -0.001639 -0.001486 0.000000 0.005271 0.000000
# 2 -0.001639 0.010207 0.000807 0.000000 0.008471 0.000000
# 3 -0.001486 0.000807 0.009599 0.000000 0.006797 0.000000
# 4 0.000000 0.000000 0.000000 0.052444 0.000000 0.008013
# 5 0.005271 0.008471 0.006797 0.000000 0.037944 0.000000
# 6 0.000000 0.000000 0.000000 0.008013 0.000000 0.022223
#
#
# Mechanical properties :
#
#
# Convention : Reuss Voigt Hill
#
# Bulk Modulus (GPa) = 35.91494 60.30736 48.11115
# Shear Modulus (GPa) = 31.44490 40.75055 36.09772
#
# Velocity S-wave (km/s) = 3.49789 3.98197 3.74775
# Velocity P-wave (km/s) = 5.50347 6.67885 6.11945
#
# Compressibility (1/GPa) = 0.02784356
#
# Stress axis : x y z
#
# Youngs Moduli (GPa) = 78.90244 97.97059 104.18026
#
# Poissons Ratio (x) = 0.16058 0.15485
# Poissons Ratio (y) = 0.12933 -0.08411
# Poissons Ratio (z) = 0.11728 -0.07910
#
# Static dielectric constant tensor:
#      x y z
#    x 2.064820 0.000000 0.037630 
#    y 0.000000 1.990340 0.000000 
#    z 0.037630 0.000000 2.027010 
# 
# From -- ./inp_files/165588.got.cif
#   From: 2010.05.17/outbox.cif.g08.bks.cpg/sg15_83_cif.got.tgz:165588.got - 2010.06.03 18:47:42.
