data_PCOD9290006
_publ_section_title
;
Structure prediction by ZEFSAII (Michael W. Deem and Ramdas Pophale) SiO2 
 PCOD9290006
Probable space group: C 2/C
;
_chemical_formula_sum "Si O2"
_cell_formula_units_Z 44
_cell_length_a 24.484251
_cell_length_b 16.194364
_cell_length_c 5.099398
_cell_angle_alpha 90.000000
_cell_angle_beta 114.086820
_cell_angle_gamma 90.000000
_cell_volume 1845.891610
_symmetry_space_group_name_H-M "C 2/C"
_symmetry_group_IT_number 15
_symmetry_cell_setting 'monoclinic'
loop_
_space_group_symop_operation_xyz
x,y,z
-x,y,1/2-z
-x,-y,-z
x,-y,1/2+z
1/2+x,1/2+y,z
1/2-x,1/2+y,1/2-z
1/2-x,1/2-y,-z
1/2+x,1/2-y,1/2+z
loop_
_atom_site_type_symbol
_atom_site_label
_atom_site_fract_x
_atom_site_fract_y
_atom_site_fract_z
Si Si1 0.888984 0.949727 0.698522
Si Si2 0.865715 0.302031 0.513736
Si Si3 0.308871 0.345084 0.181595
Si Si4 0.500000 0.660816 0.250000
Si Si5 0.801716 0.442544 0.714135
Si Si6 0.500000 0.225704 0.250000
Si Si7 0.250000 0.750000 0.000000
O O1 0.834480 0.898533 0.472612
O O2 0.946578 0.897993 0.733978
O O3 0.889056 0.029398 0.505235
O O4 0.856385 0.209230 0.616937
O O5 0.845234 0.371948 0.681518
O O6 0.818946 0.294936 0.181199
O O7 0.935253 0.317167 0.576417
O O8 0.268130 0.281858 0.256486
O O9 0.265048 0.401908 0.924005
O O10 0.512034 0.718564 0.519889
O O11 0.807748 0.516033 0.510162
#
# Coordination Sequence:
#
# PCOD9290006 Si02
#       7
#     8   8   8   4   8   4   4
#     4  12  25  41  64  98 145 190 231 285 351 422
#     4  11  26  45  75 105 145 188 247 298 357 431
#     4  11  24  42  70 100 142 183 241 293 355 429
#     4  12  24  45  66  97 146 188 246 286 338 427
#     4  11  26  44  69 104 142 179 232 300 369 424
#     4  12  26  47  76 105 138 198 250 300 354 427
#     4  10  22  40  72  98 134 176 238 306 344 410
#
# _framework density 23.836718999999999
#
# number of rings (size 3 to 8) (size 9 to 14) (size 15 to 20)
#    0.000    0.727    1.818    6.000   12.727    0.000 
#    0.000    0.909    0.000    0.000    0.000    0.000 
#    0.000    0.000    0.000    0.000    0.000    0.000 
#
# Total GULP energy -122560.822826 kJ/mol
# GULP energy per Si atom -5570.946492 kJ/mol
# Density = 2.378247 g / cm^3
# Si number density = 23.836719 Si / 1000 Ang^3
#
#
#
# Elastic Constant Matrix: (Units=GPa)
#
#
# Indices 1 2 3 4 5 6 
#
# 1 123.9461 25.8282 16.4258 0.0000 32.4039 0.0000
# 2 25.8282 80.4893 8.2468 0.0000 -3.0293 0.0000
# 3 16.4258 8.2468 51.6739 0.0000 7.4202 0.0000
# 4 0.0000 0.0000 0.0000 32.4058 0.0000 9.1175
# 5 32.4039 -3.0293 7.4202 0.0000 39.6318 0.0000
# 6 0.0000 0.0000 0.0000 9.1175 0.0000 34.9204
#
#
#
# Elastic Compliance Matrix: (Units=1/GPa)
#
#
# Indices 1 2 3 4 5 6 
#
# 1 0.011574 -0.003895 -0.001702 0.000000 -0.009442 0.000000
# 2 -0.003895 0.014015 -0.001654 0.000000 0.004566 0.000000
# 3 -0.001702 -0.001654 0.020527 0.000000 -0.002579 0.000000
# 4 0.000000 0.000000 0.000000 0.033305 0.000000 -0.008696
# 5 -0.009442 0.004566 -0.002579 0.000000 0.033784 0.000000
# 6 0.000000 0.000000 0.000000 -0.008696 0.000000 0.030907
#
#
# Mechanical properties :
#
#
# Convention : Reuss Voigt Hill
#
# Bulk Modulus (GPa) = 31.63078 39.67900 35.65489
# Shear Modulus (GPa) = 29.55922 35.09882 32.32902
#
# Velocity S-wave (km/s) = 3.52528 3.84144 3.68675
# Velocity P-wave (km/s) = 5.46523 6.02975 5.75442
#
# Compressibility (1/GPa) = 0.03161478
#
# Stress axis : x y z
#
# Youngs Moduli (GPa) = 86.40346 71.35135 48.71565
#
# Poissons Ratio (x) = 0.27790 0.08289
# Poissons Ratio (y) = 0.33653 0.08059
# Poissons Ratio (z) = 0.14702 0.11803
#
# Static dielectric constant tensor:
#      x y z
#    x 1.906180 0.000000 0.071490 
#    y 0.000000 2.047260 0.000000 
#    z 0.071490 0.000000 1.948230 
# 
# From -- ./inp_files/15126.got.cif
#   From: 2010.05.17/outbox.cif.g08.bks.cpg/sg15_8_cif.got.tgz:15126.got - 2010.06.03 18:47:42.
