data_PCOD9290496
_publ_section_title
;
Structure prediction by ZEFSAII (Michael W. Deem and Ramdas Pophale) SiO2 
 PCOD9290496
Probable space group: C 2/C
;
_chemical_formula_sum "Si O2"
_cell_formula_units_Z 60
_cell_length_a 26.601074
_cell_length_b 8.336121
_cell_length_c 11.745316
_cell_angle_alpha 90.000000
_cell_angle_beta 118.858274
_cell_angle_gamma 90.000000
_cell_volume 2281.081933
_symmetry_space_group_name_H-M "C 2/C"
_symmetry_group_IT_number 15
_symmetry_cell_setting 'monoclinic'
loop_
_space_group_symop_operation_xyz
x,y,z
-x,y,1/2-z
-x,-y,-z
x,-y,1/2+z
1/2+x,1/2+y,z
1/2-x,1/2+y,1/2-z
1/2-x,1/2-y,-z
1/2+x,1/2-y,1/2+z
loop_
_atom_site_type_symbol
_atom_site_label
_atom_site_fract_x
_atom_site_fract_y
_atom_site_fract_z
Si Si1 0.343113 0.219215 0.053923
Si Si2 0.000000 0.906607 0.750000
Si Si3 0.279490 0.600608 0.678536
Si Si4 0.370613 0.901366 0.194985
Si Si5 0.433335 0.839988 0.478415
Si Si6 0.090771 0.289455 0.488038
Si Si7 0.038361 0.125684 0.614158
Si Si8 0.261824 0.760585 0.147710
O O1 0.318826 0.347949 0.115416
O O2 0.376953 0.084453 0.164113
O O3 0.285978 0.137419 0.937363
O O4 0.386703 0.260835 0.000215
O O5 0.035690 0.791741 0.869908
O O6 0.955541 0.028877 0.762925
O O7 0.285292 0.413106 0.706662
O O8 0.282985 0.691721 0.803451
O O9 0.419353 0.829381 0.329118
O O10 0.366407 0.803921 0.071831
O O11 0.312768 0.891003 0.205154
O O12 0.496083 0.778396 0.579842
O O13 0.422206 0.026944 0.492801
O O14 0.093743 0.181157 0.604480
O O15 0.000000 0.000000 0.500000
O O16 0.250000 0.750000 0.000000
#
# Coordination Sequence:
#
# PCOD9290496 Si02
#       8
#     8   4   8   8   8   8   8   8
#     4  10  23  42  66  94 130 176 224 280 333 390
#     4  10  22  44  66  94 134 176 218 280 322 398
#     4  11  24  42  67  95 133 174 229 278 337 398
#     4  11  22  41  65  99 136 170 223 280 327 403
#     4  11  23  40  68  99 134 174 224 275 334 406
#     4  10  23  41  66  98 130 178 223 267 332 402
#     4  10  22  41  66  95 136 173 214 273 340 397
#     4  12  25  42  69  97 133 182 225 276 342 394
#
# _framework density 26.303308000000001
#
# number of rings (size 3 to 8) (size 9 to 14) (size 15 to 20)
#    0.000    1.333    2.667    2.800    1.867    4.800 
#    0.000    4.000    0.000    0.000    0.000    0.000 
#    0.000    0.000    0.000    0.000    0.000    0.000 
#
# Total GULP energy -167820.991274 kJ/mol
# GULP energy per Si atom -5594.033042 kJ/mol
# Density = 2.624344 g / cm^3
# Si number density = 26.303308 Si / 1000 Ang^3
#
#
#
# Elastic Constant Matrix: (Units=GPa)
#
#
# Indices 1 2 3 4 5 6 
#
# 1 151.2032 17.9384 22.6704 0.0000 -37.8723 0.0000
# 2 17.9384 70.6636 29.0804 0.0000 -32.9736 0.0000
# 3 22.6704 29.0804 122.8075 0.0000 -18.2312 0.0000
# 4 0.0000 0.0000 0.0000 39.0129 0.0000 -14.2260
# 5 -37.8723 -32.9736 -18.2312 0.0000 47.9889 0.0000
# 6 0.0000 0.0000 0.0000 -14.2260 0.0000 34.8905
#
#
#
# Elastic Compliance Matrix: (Units=1/GPa)
#
#
# Indices 1 2 3 4 5 6 
#
# 1 0.008415 0.001708 -0.000845 0.000000 0.007493 0.000000
# 2 0.001708 0.022256 -0.003301 0.000000 0.015387 0.000000
# 3 -0.000845 -0.003301 0.009162 0.000000 0.000545 0.000000
# 4 0.000000 0.000000 0.000000 0.030109 0.000000 0.012277
# 5 0.007493 0.015387 0.000545 0.000000 0.037531 0.000000
# 6 0.000000 0.000000 0.000000 0.012277 0.000000 0.033667
#
#
# Mechanical properties :
#
#
# Convention : Reuss Voigt Hill
#
# Bulk Modulus (GPa) = 28.60767 53.78365 41.19566
# Shear Modulus (GPa) = 31.71217 42.71080 37.21148
#
# Velocity S-wave (km/s) = 3.47599 4.03399 3.76534
# Velocity P-wave (km/s) = 5.19709 6.49533 5.88213
#
# Compressibility (1/GPa) = 0.03495566
#
# Stress axis : x y z
#
# Youngs Moduli (GPa) = 118.84115 44.93103 109.15182
#
# Poissons Ratio (x) = -0.07676 0.09229
# Poissons Ratio (y) = -0.20304 0.36036
# Poissons Ratio (z) = 0.10048 0.14834
#
# Static dielectric constant tensor:
#      x y z
#    x 2.160830 0.000000 -0.042740 
#    y 0.000000 1.972640 0.000000 
#    z -0.042740 0.000000 2.154540 
# 
# From -- ./inp_files/125944.got.cif
#   From: 2010.05.17/outbox.cif.g08.bks.cpg/sg15_63_cif.got.tgz:125944.got - 2010.06.03 18:47:42.
