data_PCOD9290929
_publ_section_title
;
Structure prediction by ZEFSAII (Michael W. Deem and Ramdas Pophale) SiO2 
 PCOD9290929
Probable space group: C 2/C
;
_chemical_formula_sum "Si O2"
_cell_formula_units_Z 36
_cell_length_a 13.488594
_cell_length_b 11.334001
_cell_length_c 9.477015
_cell_angle_alpha 90.000000
_cell_angle_beta 111.733785
_cell_angle_gamma 90.000000
_cell_volume 1345.851633
_symmetry_space_group_name_H-M "C 2/C"
_symmetry_group_IT_number 15
_symmetry_cell_setting 'monoclinic'
loop_
_space_group_symop_operation_xyz
x,y,z
-x,y,1/2-z
-x,-y,-z
x,-y,1/2+z
1/2+x,1/2+y,z
1/2-x,1/2+y,1/2-z
1/2-x,1/2-y,-z
1/2+x,1/2-y,1/2+z
loop_
_atom_site_type_symbol
_atom_site_label
_atom_site_fract_x
_atom_site_fract_y
_atom_site_fract_z
Si Si1 0.863067 0.248023 0.743118
Si Si2 0.697581 0.875987 0.526136
Si Si3 0.105045 0.013697 0.218904
Si Si4 0.885714 0.761803 0.940605
Si Si5 0.500000 0.124618 0.750000
O O1 0.736741 0.227653 0.649384
O O2 0.899450 0.122597 0.822993
O O3 0.865507 0.347067 0.862606
O O4 0.088111 0.269539 0.885236
O O5 0.750000 0.750000 0.500000
O O6 0.794379 0.957689 0.626925
O O7 0.610619 0.928852 0.371597
O O8 0.112423 0.098639 0.088876
O O9 0.000000 0.044340 0.250000
O O10 0.956106 0.701892 0.857265
#
# Coordination Sequence:
#
# PCOD9290929 Si02
#       5
#     8   8   8   8   4
#     4  10  24  40  67 101 145 174 227 291 342 406
#     4  11  23  44  66 100 142 182 221 284 344 415
#     4  11  23  41  71 107 133 177 234 285 348 399
#     4  10  22  42  61 101 142 179 222 281 352 402
#     4  12  22  42  72  90 140 196 222 262 358 414
#
# _framework density 26.748861999999999
#
# number of rings (size 3 to 8) (size 9 to 14) (size 15 to 20)
#    0.000    1.333    5.556    0.000    6.222    0.889 
#    0.000    1.111    0.000    0.000    0.000    0.000 
#    0.000    0.000    0.000    0.000    0.000    0.000 
#
# Total GULP energy -100906.543471 kJ/mol
# GULP energy per Si atom -5605.919082 kJ/mol
# Density = 2.668798 g / cm^3
# Si number density = 26.748862 Si / 1000 Ang^3
#
#
#
# Elastic Constant Matrix: (Units=GPa)
#
#
# Indices 1 2 3 4 5 6 
#
# 1 161.3243 37.5857 50.3762 0.0000 -21.6429 0.0000
# 2 37.5857 60.9747 19.2322 0.0000 -2.8785 0.0000
# 3 50.3762 19.2322 218.2955 0.0000 17.6574 0.0000
# 4 0.0000 0.0000 0.0000 19.1299 0.0000 -1.5809
# 5 -21.6429 -2.8785 17.6574 0.0000 62.0982 0.0000
# 6 0.0000 0.0000 0.0000 -1.5809 0.0000 27.5810
#
#
#
# Elastic Compliance Matrix: (Units=1/GPa)
#
#
# Indices 1 2 3 4 5 6 
#
# 1 0.008182 -0.004340 -0.001761 0.000000 0.003151 0.000000
# 2 -0.004340 0.019263 -0.000661 0.000000 -0.000432 0.000000
# 3 -0.001761 -0.000661 0.005218 0.000000 -0.002128 0.000000
# 4 0.000000 0.000000 0.000000 0.052523 0.000000 0.003011
# 5 0.003151 -0.000432 -0.002128 0.000000 0.017787 0.000000
# 6 0.000000 0.000000 0.000000 0.003011 0.000000 0.036429
#
#
# Mechanical properties :
#
#
# Convention : Reuss Voigt Hill
#
# Bulk Modulus (GPa) = 52.24409 72.77587 62.50998
# Shear Modulus (GPa) = 31.38628 43.98850 37.68739
#
# Velocity S-wave (km/s) = 3.42916 4.05964 3.75765
# Velocity P-wave (km/s) = 5.93739 7.01715 6.49973
#
# Compressibility (1/GPa) = 0.01914092
#
# Stress axis : x y z
#
# Youngs Moduli (GPa) = 122.21417 51.91229 191.65784
#
# Poissons Ratio (x) = 0.22528 0.33748
# Poissons Ratio (y) = 0.53036 0.12664
# Poissons Ratio (z) = 0.21520 0.03430
#
# Static dielectric constant tensor:
#      x y z
#    x 2.078600 0.000000 0.065370 
#    y 0.000000 2.014090 0.000000 
#    z 0.065370 0.000000 2.130980 
# 
# From -- ./inp_files/151561.got.cif
#   From: 2010.05.17/outbox.cif.g08.bks.cpg/sg15_76_cif.got.tgz:151561.got - 2010.06.03 18:47:42.
