data_PCOD9290675
_publ_section_title
;
Structure prediction by ZEFSAII (Michael W. Deem and Ramdas Pophale) SiO2 
 PCOD9290675
Probable space group: C 2/C
;
_chemical_formula_sum "Si O2"
_cell_formula_units_Z 48
_cell_length_a 23.465371
_cell_length_b 15.286229
_cell_length_c 8.246746
_cell_angle_alpha 90.000000
_cell_angle_beta 43.716670
_cell_angle_gamma 90.000000
_cell_volume 2044.309878
_symmetry_space_group_name_H-M "C 2/C"
_symmetry_group_IT_number 15
_symmetry_cell_setting 'monoclinic'
loop_
_space_group_symop_operation_xyz
x,y,z
-x,y,1/2-z
-x,-y,-z
x,-y,1/2+z
1/2+x,1/2+y,z
1/2-x,1/2+y,1/2-z
1/2-x,1/2-y,-z
1/2+x,1/2-y,1/2+z
loop_
_atom_site_type_symbol
_atom_site_label
_atom_site_fract_x
_atom_site_fract_y
_atom_site_fract_z
Si Si1 0.896573 0.778472 0.812814
Si Si2 0.584946 0.044369 0.385106
Si Si3 0.832072 0.401549 0.465551
Si Si4 0.917453 0.259503 0.651978
Si Si5 0.908543 0.035054 0.148630
Si Si6 0.164445 0.104810 0.510549
O O1 0.879525 0.879229 0.808597
O O2 0.985831 0.763498 0.546162
O O3 0.843650 0.694874 0.865918
O O4 0.896486 0.763745 0.007366
O O5 0.596713 0.072159 0.548848
O O6 0.593598 0.138928 0.284237
O O7 0.500000 0.000000 0.500000
O O8 0.656203 0.975820 0.192392
O O9 0.749869 0.399283 0.740803
O O10 0.862662 0.200694 0.881036
O O11 0.845394 0.956661 0.313628
O O12 0.901371 0.065006 0.979272
O O13 0.000000 0.000000 0.000000
#
# Coordination Sequence:
#
# PCOD9290675 Si02
#       6
#     8   8   8   8   8   8
#     4  10  22  42  67  94 131 174 222 270 328 395
#     4  11  22  43  70  98 134 178 223 267 325 401
#     4  11  25  43  68 101 138 172 218 279 336 385
#     4  10  22  41  68  96 129 175 222 269 328 398
#     4  12  25  42  68  95 133 177 225 270 326 402
#     4  12  26  43  66 102 135 172 222 279 338 384
#
# _framework density 23.479807999999998
#
# number of rings (size 3 to 8) (size 9 to 14) (size 15 to 20)
#    0.000    1.000    3.333    3.000    2.333    6.000 
#    3.000    0.000    0.000    0.000    0.000    0.000 
#    0.000    0.000    0.000    0.000    0.000    0.000 
#
# Total GULP energy -134123.280388 kJ/mol
# GULP energy per Si atom -5588.470016 kJ/mol
# Density = 2.342637 g / cm^3
# Si number density = 23.479808 Si / 1000 Ang^3
#
#
#
# Elastic Constant Matrix: (Units=GPa)
#
#
# Indices 1 2 3 4 5 6 
#
# 1 43.2247 7.7298 5.7782 0.0000 -5.0994 0.0000
# 2 7.7298 204.0547 52.6049 0.0000 2.1368 0.0000
# 3 5.7782 52.6049 109.3183 0.0000 -12.8708 0.0000
# 4 0.0000 0.0000 0.0000 51.8428 0.0000 8.0624
# 5 -5.0994 2.1368 -12.8708 0.0000 24.2128 0.0000
# 6 0.0000 0.0000 0.0000 8.0624 0.0000 21.3365
#
#
#
# Elastic Compliance Matrix: (Units=1/GPa)
#
#
# Indices 1 2 3 4 5 6 
#
# 1 0.023916 -0.000895 -0.000247 0.000000 0.004985 0.000000
# 2 -0.000895 0.005726 -0.002976 0.000000 -0.002276 0.000000
# 3 -0.000247 -0.002976 0.011326 0.000000 0.006231 0.000000
# 4 0.000000 0.000000 0.000000 0.020493 0.000000 -0.007744
# 5 0.004985 -0.002276 0.006231 0.000000 0.045863 0.000000
# 6 0.000000 0.000000 0.000000 -0.007744 0.000000 0.049794
#
#
# Mechanical properties :
#
#
# Convention : Reuss Voigt Hill
#
# Bulk Modulus (GPa) = 30.54974 54.31373 42.43174
# Shear Modulus (GPa) = 28.36653 38.84408 33.60531
#
# Velocity S-wave (km/s) = 3.47958 4.07180 3.78728
# Velocity P-wave (km/s) = 5.40209 6.72966 6.10209
#
# Compressibility (1/GPa) = 0.03273350
#
# Stress axis : x y z
#
# Youngs Moduli (GPa) = 41.81311 174.65672 88.29013
#
# Poissons Ratio (x) = 0.15624 0.02179
# Poissons Ratio (y) = 0.03740 0.26273
# Poissons Ratio (z) = 0.01032 0.51974
#
# Static dielectric constant tensor:
#      x y z
#    x 2.000850 0.000000 0.001040 
#    y 0.000000 1.914420 0.000000 
#    z 0.001040 0.000000 1.895270 
# 
# From -- ./inp_files/66391.got.cif
#   From: 2010.05.17/outbox.cif.g08.bks.cpg/sg15_34_cif.got.tgz:66391.got - 2010.06.03 18:47:42.
