data_PCOD9290829
_publ_section_title
;
Structure prediction by ZEFSAII (Michael W. Deem and Ramdas Pophale) SiO2 
 PCOD9290829
Probable space group: C 2/C
;
_chemical_formula_sum "Si O2"
_cell_formula_units_Z 56
_cell_length_a 18.969635
_cell_length_b 9.057708
_cell_length_c 25.264732
_cell_angle_alpha 90.000000
_cell_angle_beta 145.831992
_cell_angle_gamma 90.000000
_cell_volume 2438.011183
_symmetry_space_group_name_H-M "C 2/C"
_symmetry_group_IT_number 15
_symmetry_cell_setting 'monoclinic'
loop_
_space_group_symop_operation_xyz
x,y,z
-x,y,1/2-z
-x,-y,-z
x,-y,1/2+z
1/2+x,1/2+y,z
1/2-x,1/2+y,1/2-z
1/2-x,1/2-y,-z
1/2+x,1/2-y,1/2+z
loop_
_atom_site_type_symbol
_atom_site_label
_atom_site_fract_x
_atom_site_fract_y
_atom_site_fract_z
Si Si1 0.155756 0.664416 0.196347
Si Si2 0.397804 0.619650 0.278083
Si Si3 0.000000 0.656209 0.250000
Si Si4 0.496963 0.069687 0.653086
Si Si5 0.542273 0.712346 0.006177
Si Si6 0.897696 0.914777 0.511871
Si Si7 0.250000 0.250000 0.500000
Si Si8 0.794837 0.151164 0.665488
O O1 0.288046 0.625465 0.252964
O O2 0.177658 0.763450 0.261966
O O3 0.080937 0.513380 0.161663
O O4 0.073123 0.757353 0.104099
O O5 0.430710 0.784657 0.281694
O O6 0.522330 0.557553 0.384460
O O7 0.349313 0.512402 0.202781
O O8 0.988995 0.552405 0.192908
O O9 0.877132 0.758662 0.175077
O O10 0.362478 0.133495 0.552984
O O11 0.483797 0.688203 0.027751
O O12 0.646364 0.838739 0.066323
O O13 0.612391 0.563352 0.029132
O O14 0.773142 0.841668 0.457578
#
# Coordination Sequence:
#
# PCOD9290829 Si02
#       8
#     8   8   4   8   8   8   4   8
#     4  11  23  42  70 102 136 178 225 293 342 403
#     4  11  22  42  68  97 138 177 227 290 351 396
#     4  10  24  46  66  96 134 188 224 278 354 424
#     4  10  24  43  68  94 140 186 218 286 355 413
#     4  11  23  41  72 105 131 184 241 283 349 419
#     4  10  22  41  71 102 136 189 231 288 346 422
#     4  10  22  44  62  98 142 178 226 282 348 418
#     4  11  23  44  67  99 137 175 233 286 338 418
#
# _framework density 22.969541
#
# number of rings (size 3 to 8) (size 9 to 14) (size 15 to 20)
#    0.000    1.429    2.857    1.714    2.000    3.429 
#    7.714    2.143    0.000    0.000    0.000    0.000 
#    0.000    0.000    0.000    0.000    0.000    0.000 
#
# Total GULP energy -156066.152559 kJ/mol
# GULP energy per Si atom -5573.791163 kJ/mol
# Density = 2.291726 g / cm^3
# Si number density = 22.969541 Si / 1000 Ang^3
#
#
#
# Elastic Constant Matrix: (Units=GPa)
#
#
# Indices 1 2 3 4 5 6 
#
# 1 77.0547 29.8606 -7.5150 0.0000 11.3347 0.0000
# 2 29.8606 89.5373 -16.9315 0.0000 5.9396 0.0000
# 3 -7.5150 -16.9315 39.2671 0.0000 -1.9404 0.0000
# 4 0.0000 0.0000 0.0000 0.5386 0.0000 -3.0519
# 5 11.3347 5.9396 -1.9404 0.0000 16.1632 0.0000
# 6 0.0000 0.0000 0.0000 -3.0519 0.0000 24.4526
#
#
#
# Elastic Compliance Matrix: (Units=1/GPa)
#
#
# Indices 1 2 3 4 5 6 
#
# 1 0.016262 -0.004667 0.000625 0.000000 -0.009614 0.000000
# 2 -0.004667 0.013744 0.004975 -0.000001 -0.001180 0.000000
# 3 0.000625 0.004975 0.027784 -0.000004 0.001069 -0.000001
# 4 0.000000 -0.000001 -0.000004 6.341032 -0.000002 0.791409
# 5 -0.009614 -0.001180 0.001069 -0.000002 0.069173 0.000000
# 6 0.000000 0.000000 -0.000001 0.791409 0.000000 0.139669
#
#
# Mechanical properties :
#
#
# Convention : Reuss Voigt Hill
#
# Bulk Modulus (GPa) = 16.76344 24.07636 20.41990
# Shear Modulus (GPa) = 0.75464 21.59388 11.17426
#
# Velocity S-wave (km/s) = 0.57381 3.06945 2.20803
# Velocity P-wave (km/s) = 2.78441 4.80277 3.92553
#
# Compressibility (1/GPa) = 0.05965363
#
# Stress axis : x y z
#
# Youngs Moduli (GPa) = 61.49462 72.75843 35.99189
#
# Poissons Ratio (x) = 0.33959 -0.02248
# Poissons Ratio (y) = 0.28702 -0.17905
# Poissons Ratio (z) = -0.03841 -0.36195
#
# Static dielectric constant tensor:
#      x y z
#    x 1.858790 0.000000 0.008020 
#    y 0.000000 1.884390 0.000000 
#    z 0.008020 0.000000 1.867690 
# 
# From -- ./inp_files/317603.got.cif
#   From: 2010.05.17/outbox.cif.g08.bks.cpg/sg15_159_cif.got.tgz:317603.got - 2010.06.03 18:47:42.
