data_PCOD9290817
_publ_section_title
;
Structure prediction by ZEFSAII (Michael W. Deem and Ramdas Pophale) SiO2 
 PCOD9290817
Probable space group: C 2/C
;
_chemical_formula_sum "Si O2"
_cell_formula_units_Z 56
_cell_length_a 11.804765
_cell_length_b 8.446729
_cell_length_c 22.229708
_cell_angle_alpha 90.000000
_cell_angle_beta 113.107805
_cell_angle_gamma 90.000000
_cell_volume 2038.721866
_symmetry_space_group_name_H-M "C 2/C"
_symmetry_group_IT_number 15
_symmetry_cell_setting 'monoclinic'
loop_
_space_group_symop_operation_xyz
x,y,z
-x,y,1/2-z
-x,-y,-z
x,-y,1/2+z
1/2+x,1/2+y,z
1/2-x,1/2+y,1/2-z
1/2-x,1/2-y,-z
1/2+x,1/2-y,1/2+z
loop_
_atom_site_type_symbol
_atom_site_label
_atom_site_fract_x
_atom_site_fract_y
_atom_site_fract_z
Si Si1 0.027351 0.545737 0.436187
Si Si2 0.000000 0.252144 0.750000
Si Si3 0.754850 0.457931 0.724252
Si Si4 0.607205 0.757517 0.105214
Si Si5 0.307590 0.724043 0.878169
Si Si6 0.500000 0.500000 0.500000
Si Si7 0.786333 0.069228 0.993926
Si Si8 0.828652 0.025709 0.655644
O O1 0.988832 0.387756 0.391448
O O2 0.932057 0.677234 0.395057
O O3 0.000000 0.500000 0.500000
O O4 0.173067 0.546050 0.462037
O O5 0.884450 0.364232 0.743573
O O6 0.951430 0.128314 0.689146
O O7 0.653856 0.352790 0.668390
O O8 0.750357 0.623676 0.687330
O O9 0.715937 0.491229 0.784166
O O10 0.552110 0.671374 0.036618
O O11 0.726151 0.856444 0.108827
O O12 0.347266 0.597793 0.938876
O O13 0.205377 0.853276 0.878269
O O14 0.592837 0.491200 0.455144
O O15 0.750000 0.250000 0.000000
#
# Coordination Sequence:
#
# PCOD9290817 Si02
#       8
#     8   4   8   8   8   4   8   8
#     4  11  23  44  69 103 148 192 245 302 366 443
#     4  10  24  46  68 100 142 180 238 294 360 426
#     4  11  23  45  72 105 144 189 247 301 364 444
#     4  10  22  41  70  98 147 180 240 306 351 440
#     4  11  23  42  73 104 139 191 249 294 374 438
#     4  12  22  46  66 108 140 188 244 290 372 450
#     4  12  24  43  72 100 148 192 239 303 362 438
#     4  10  24  45  68 103 146 184 243 308 359 435
#
# _framework density 27.468188999999999
#
# number of rings (size 3 to 8) (size 9 to 14) (size 15 to 20)
#    0.000    1.143    4.286    1.714    0.000    5.143 
#    0.000    2.857    0.000    0.000    0.000    0.000 
#    0.000    0.000    0.000    0.000    0.000    0.000 
#
# Total GULP energy -156395.477084 kJ/mol
# GULP energy per Si atom -5585.552753 kJ/mol
# Density = 2.740567 g / cm^3
# Si number density = 27.468189 Si / 1000 Ang^3
#
#
#
# Elastic Constant Matrix: (Units=GPa)
#
#
# Indices 1 2 3 4 5 6 
#
# 1 135.9887 48.3787 34.9346 0.0000 38.2082 0.0000
# 2 48.3787 160.8902 53.5412 0.0000 10.3977 0.0000
# 3 34.9346 53.5412 143.8128 0.0000 18.7372 0.0000
# 4 0.0000 0.0000 0.0000 78.5210 0.0000 22.9544
# 5 38.2082 10.3977 18.7372 0.0000 42.8186 0.0000
# 6 0.0000 0.0000 0.0000 22.9544 0.0000 48.8339
#
#
#
# Elastic Compliance Matrix: (Units=1/GPa)
#
#
# Indices 1 2 3 4 5 6 
#
# 1 0.010878 -0.002515 -0.000553 0.000000 -0.008854 0.000000
# 2 -0.002515 0.007690 -0.002440 0.000000 0.001444 0.000000
# 3 -0.000553 -0.002440 0.008330 0.000000 -0.002559 0.000000
# 4 0.000000 0.000000 0.000000 0.014764 0.000000 -0.006940
# 5 -0.008854 0.001444 -0.002559 0.000000 0.032024 0.000000
# 6 0.000000 0.000000 0.000000 -0.006940 0.000000 0.023740
#
#
# Mechanical properties :
#
#
# Convention : Reuss Voigt Hill
#
# Bulk Modulus (GPa) = 62.96283 79.37785 71.17034
# Shear Modulus (GPa) = 43.96144 54.29050 49.12597
#
# Velocity S-wave (km/s) = 4.00490 4.45059 4.23362
# Velocity P-wave (km/s) = 6.66014 7.44118 7.06147
#
# Compressibility (1/GPa) = 0.01588239
#
# Stress axis : x y z
#
# Youngs Moduli (GPa) = 91.92979 130.03261 120.05186
#
# Poissons Ratio (x) = 0.32701 0.06634
# Poissons Ratio (y) = 0.23119 0.29298
# Poissons Ratio (z) = 0.05080 0.31733
#
# Static dielectric constant tensor:
#      x y z
#    x 2.539320 0.000000 0.107700 
#    y 0.000000 2.221590 0.000000 
#    z 0.107700 0.000000 2.429770 
# 
# From -- ./inp_files/310413.got.cif
#   From: 2010.05.17/outbox.cif.g08.bks.cpg/sg15_156_cif.got.tgz:310413.got - 2010.06.03 18:47:42.
