data_PCOD9290436
_publ_section_title
;
Structure prediction by ZEFSAII (Michael W. Deem and Ramdas Pophale) SiO2 
 PCOD9290436
Probable space group: C 2/C
;
_chemical_formula_sum "Si O2"
_cell_formula_units_Z 56
_cell_length_a 17.218522
_cell_length_b 22.618341
_cell_length_c 9.471010
_cell_angle_alpha 90.000000
_cell_angle_beta 40.946709
_cell_angle_gamma 90.000000
_cell_volume 2417.300901
_symmetry_space_group_name_H-M "C 2/C"
_symmetry_group_IT_number 15
_symmetry_cell_setting 'monoclinic'
loop_
_space_group_symop_operation_xyz
x,y,z
-x,y,1/2-z
-x,-y,-z
x,-y,1/2+z
1/2+x,1/2+y,z
1/2-x,1/2+y,1/2-z
1/2-x,1/2-y,-z
1/2+x,1/2-y,1/2+z
loop_
_atom_site_type_symbol
_atom_site_label
_atom_site_fract_x
_atom_site_fract_y
_atom_site_fract_z
Si Si1 0.336558 0.942357 0.717605
Si Si2 0.718453 0.225089 0.696103
Si Si3 0.512957 0.154212 0.878314
Si Si4 0.819332 0.545420 0.917662
Si Si5 0.635645 0.276572 0.073838
Si Si6 0.895170 0.090332 0.794405
Si Si7 0.622906 0.608358 0.002085
O O1 0.408268 0.881422 0.597449
O O2 0.303099 0.964981 0.606523
O O3 0.391764 0.994697 0.736073
O O4 0.223921 0.931276 0.970155
O O5 0.750000 0.250000 0.500000
O O6 0.590771 0.193505 0.872459
O O7 0.809364 0.171821 0.608098
O O8 0.695665 0.278295 0.835921
O O9 0.500000 0.190775 0.750000
O O10 0.599644 0.103028 0.703741
O O11 0.703338 0.565216 0.989184
O O12 0.500000 0.249928 0.250000
O O13 0.608840 0.339157 0.180573
O O14 0.750000 0.250000 0.000000
O O15 0.899735 0.080102 0.621039
O O16 0.000000 0.066763 0.750000
O O17 0.500000 0.618806 0.250000
#
# Coordination Sequence:
#
# PCOD9290436 Si02
#       7
#     8   8   8   8   8   8   8
#     4  11  22  42  71  95 140 172 230 283 357 424
#     4  11  26  40  68  97 135 184 235 286 350 419
#     4   9  22  40  64 100 135 175 226 282 346 417
#     4  10  22  41  66 101 131 176 220 286 348 427
#     4  11  26  45  67 100 141 182 239 292 357 420
#     4  11  25  43  66  94 133 179 227 291 351 415
#     4  11  24  44  65  96 135 176 232 284 349 427
#
# _framework density 23.166333999999999
#
# number of rings (size 3 to 8) (size 9 to 14) (size 15 to 20)
#    0.000    1.429    1.429    2.143   12.000    1.143 
#    0.000    7.857    0.000    0.000    0.000    0.000 
#    0.000    0.000    0.000    0.000    0.000    0.000 
#
# Total GULP energy -156152.107590 kJ/mol
# GULP energy per Si atom -5576.860985 kJ/mol
# Density = 2.311361 g / cm^3
# Si number density = 23.166334 Si / 1000 Ang^3
#
#
#
# Elastic Constant Matrix: (Units=GPa)
#
#
# Indices 1 2 3 4 5 6 
#
# 1 101.5510 12.4514 49.9004 0.0000 18.2876 0.0000
# 2 12.4514 30.1786 6.4580 0.0000 1.4130 0.0000
# 3 49.9004 6.4580 140.2144 0.0000 27.7282 0.0000
# 4 0.0000 0.0000 0.0000 16.0108 0.0000 30.9398
# 5 18.2876 1.4130 27.7282 0.0000 46.3584 0.0000
# 6 0.0000 0.0000 0.0000 30.9398 0.0000 -26.0055
#
#
#
# Elastic Compliance Matrix: (Units=1/GPa)
#
#
# Indices 1 2 3 4 5 6 
#
# 1 0.012718 -0.004310 -0.003813 0.000000 -0.002605 0.000000
# 2 -0.004310 0.034927 -0.000228 0.000000 0.000772 0.000000
# 3 -0.003813 -0.000228 0.009301 0.000000 -0.004052 0.000000
# 4 0.000000 0.000000 0.000000 0.018932 0.000000 0.022524
# 5 -0.002605 0.000772 -0.004052 0.000000 0.024999 0.000000
# 6 0.000000 0.000000 0.000000 0.022524 0.000000 -0.011656
#
#
# Mechanical properties :
#
#
# Convention : Reuss Voigt Hill
#
# Bulk Modulus (GPa) = 24.84705 45.50708 35.17707
# Shear Modulus (GPa) = 41.89873 20.81500 31.35687
#
# Velocity S-wave (km/s) = 4.25738 3.00075 3.68306
# Velocity P-wave (km/s) = 5.90896 5.62959 5.77097
#
# Compressibility (1/GPa) = 0.04024622
#
# Stress axis : x y z
#
# Youngs Moduli (GPa) = 78.62696 28.63139 107.52054
#
# Poissons Ratio (x) = 0.12339 0.40993
# Poissons Ratio (y) = 0.33885 0.02446
# Poissons Ratio (z) = 0.29977 0.00651
#
# Static dielectric constant tensor:
#      x y z
#    x 1.912100 0.000000 -0.046510 
#    y 0.000000 1.998760 0.000000 
#    z -0.046510 0.000000 1.826340 
# 
# From -- ./inp_files/52295.got.cif
#   From: 2010.05.17/outbox.cif.g08.bks.cpg/sg15_27_cif.got.tgz:52295.got - 2010.06.03 18:47:42.
