data_PCOD9290004
_publ_section_title
;
Structure prediction by ZEFSAII (Michael W. Deem and Ramdas Pophale) SiO2 
 PCOD9290004
Probable space group: C 2/C
;
_chemical_formula_sum "Si O2"
_cell_formula_units_Z 52
_cell_length_a 14.867304
_cell_length_b 18.964144
_cell_length_c 14.296919
_cell_angle_alpha 90.000000
_cell_angle_beta 37.496333
_cell_angle_gamma 90.000000
_cell_volume 2453.685094
_symmetry_space_group_name_H-M "C 2/C"
_symmetry_group_IT_number 15
_symmetry_cell_setting 'monoclinic'
loop_
_space_group_symop_operation_xyz
x,y,z
-x,y,1/2-z
-x,-y,-z
x,-y,1/2+z
1/2+x,1/2+y,z
1/2-x,1/2+y,1/2-z
1/2-x,1/2-y,-z
1/2+x,1/2-y,1/2+z
loop_
_atom_site_type_symbol
_atom_site_label
_atom_site_fract_x
_atom_site_fract_y
_atom_site_fract_z
Si Si1 0.000000 0.003378 0.750000
Si Si2 0.784877 0.840479 0.639629
Si Si3 0.284570 0.086462 0.499065
Si Si4 0.839431 0.351741 0.273324
Si Si5 0.500000 0.261796 0.750000
Si Si6 0.039826 0.302085 0.522247
Si Si7 0.000000 0.472754 0.250000
Si Si8 0.974915 0.116666 0.423509
O O1 0.135803 0.053841 0.663336
O O2 0.040756 0.951527 0.630132
O O3 0.748890 0.884753 0.577186
O O4 0.894546 0.776208 0.524091
O O5 0.874961 0.885701 0.641420
O O6 0.631640 0.810140 0.808186
O O7 0.361821 0.148072 0.492866
O O8 0.398210 0.022478 0.396020
O O9 0.868155 0.290689 0.327289
O O10 0.929550 0.327827 0.108416
O O11 0.668796 0.368512 0.395043
O O12 0.904907 0.422407 0.262927
O O13 0.521582 0.314799 0.646264
#
# Coordination Sequence:
#
# PCOD9290004 Si02
#       8
#     4   8   8   8   4   8   4   8
#     4  11  28  45  73 104 139 192 224 290 349 412
#     4  12  27  46  73 103 139 184 237 290 344 408
#     4  12  27  50  69  98 146 186 237 281 344 419
#     4  11  24  42  73 103 140 179 233 285 348 414
#     4  10  22  40  72  96 146 176 224 282 346 400
#     4  12  27  46  73 104 136 188 234 291 345 405
#     4  11  24  49  69 100 141 188 228 282 351 416
#     4  11  24  44  69 106 142 175 236 284 349 411
#
# _framework density 21.192613000000001
#
# number of rings (size 3 to 8) (size 9 to 14) (size 15 to 20)
#    0.000    0.615    4.615    1.846    6.462    3.692 
#    0.000    0.000    0.000    0.000    0.000    0.000 
#    0.000    0.000    0.000    0.000    0.000    0.000 
#
# Total GULP energy -145448.482709 kJ/mol
# GULP energy per Si atom -5594.172412 kJ/mol
# Density = 2.114438 g / cm^3
# Si number density = 21.192613 Si / 1000 Ang^3
#
#
#
# Elastic Constant Matrix: (Units=GPa)
#
#
# Indices 1 2 3 4 5 6 
#
# 1 96.0513 16.3132 13.1936 0.0004 -4.5692 -0.0003
# 2 16.3132 52.2940 10.1238 0.0004 0.8016 0.0000
# 3 13.1936 10.1238 74.0941 -0.0004 -22.3897 0.0010
# 4 0.0004 0.0004 -0.0004 24.1944 0.0004 -3.9282
# 5 -4.5692 0.8016 -22.3897 0.0004 38.9341 -0.0003
# 6 -0.0003 0.0000 0.0010 -3.9282 -0.0003 16.8690
#
#
#
# Elastic Compliance Matrix: (Units=1/GPa)
#
#
# Indices 1 2 3 4 5 6 
#
# 1 0.011176 -0.003230 -0.001370 0.000000 0.000590 0.000000
# 2 -0.003230 0.020756 -0.003031 0.000000 -0.002550 0.000000
# 3 -0.001370 -0.003031 0.017096 0.000000 0.009733 -0.000001
# 4 0.000000 0.000000 0.000000 0.042956 0.000000 0.010003
# 5 0.000590 -0.002550 0.009733 0.000000 0.031403 0.000000
# 6 0.000000 0.000000 -0.000001 0.010003 0.000000 0.061610
#
#
# Mechanical properties :
#
#
# Convention : Reuss Voigt Hill
#
# Bulk Modulus (GPa) = 29.61721 33.52228 31.56975
# Shear Modulus (GPa) = 23.63901 28.18676 25.91288
#
# Velocity S-wave (km/s) = 3.34344 3.65091 3.50055
# Velocity P-wave (km/s) = 5.37684 5.79866 5.59173
#
# Compressibility (1/GPa) = 0.03376415
#
# Stress axis : x y z
#
# Youngs Moduli (GPa) = 89.47741 48.17837 58.49463
#
# Poissons Ratio (x) = 0.15562 0.08016
# Poissons Ratio (y) = 0.28902 0.17731
# Poissons Ratio (z) = 0.12262 0.14604
#
# Static dielectric constant tensor:
#      x y z
#    x 1.700120 0.000000 0.139250 
#    y 0.000000 1.729130 0.000000 
#    z 0.139250 0.000000 1.392590 
# 
# From -- ./inp_files/155465.got.cif
#   From: 2010.05.17/outbox.cif.g08.bks.cpg/sg15_78_cif.got.tgz:155465.got - 2010.06.03 18:47:42.
