data_PCOD9290242
_publ_section_title
;
Structure prediction by ZEFSAII (Michael W. Deem and Ramdas Pophale) SiO2 
 PCOD9290242
Probable space group: C 2/C
;
_chemical_formula_sum "Si O2"
_cell_formula_units_Z 48
_cell_length_a 15.941176
_cell_length_b 8.626098
_cell_length_c 27.390987
_cell_angle_alpha 90.000000
_cell_angle_beta 146.293521
_cell_angle_gamma 90.000000
_cell_volume 2090.197303
_symmetry_space_group_name_H-M "C 2/C"
_symmetry_group_IT_number 15
_symmetry_cell_setting 'monoclinic'
loop_
_space_group_symop_operation_xyz
x,y,z
-x,y,1/2-z
-x,-y,-z
x,-y,1/2+z
1/2+x,1/2+y,z
1/2-x,1/2+y,1/2-z
1/2-x,1/2-y,-z
1/2+x,1/2-y,1/2+z
loop_
_atom_site_type_symbol
_atom_site_label
_atom_site_fract_x
_atom_site_fract_y
_atom_site_fract_z
Si Si1 0.088125 0.277485 0.017913
Si Si2 0.031186 0.213777 0.647149
Si Si3 0.120142 0.709738 0.899137
Si Si4 0.871881 0.612822 0.148525
Si Si5 0.827554 0.118936 0.271082
Si Si6 0.224624 0.612701 0.108834
O O1 0.055002 0.253251 0.944509
O O2 0.924626 0.277771 0.964201
O O3 0.209474 0.150206 0.092809
O O4 0.163423 0.444404 0.064134
O O5 0.172642 0.330738 0.721648
O O6 0.923254 0.240111 0.640929
O O7 0.100400 0.042652 0.677680
O O8 0.135185 0.533128 0.890425
O O9 0.152288 0.818389 0.867923
O O10 0.954944 0.749823 0.839272
O O11 0.250000 0.750000 0.000000
O O12 0.000000 0.582287 0.250000
O O13 0.785361 0.107349 0.193310
#
# Coordination Sequence:
#
# PCOD9290242 Si02
#       6
#     8   8   8   8   8   8
#     4  10  22  41  64  91 122 164 207 250 304 365
#     4  11  23  41  65  92 125 162 206 253 305 364
#     4  12  25  41  63  91 125 162 205 255 307 365
#     4  12  24  38  61  93 126 159 203 257 306 360
#     4  11  23  41  65  91 123 165 206 252 306 366
#     4  10  22  42  65  89 124 167 207 247 305 372
#
# _framework density 22.964338999999999
#
# number of rings (size 3 to 8) (size 9 to 14) (size 15 to 20)
#    0.000    1.000    0.000    7.000    0.000    6.000 
#    0.000    0.000    0.000    0.000    0.000    0.000 
#    0.000    0.000    0.000    0.000    0.000    0.000 
#
# Total GULP energy -134462.621341 kJ/mol
# GULP energy per Si atom -5602.609223 kJ/mol
# Density = 2.291207 g / cm^3
# Si number density = 22.964339 Si / 1000 Ang^3
#
#
#
# Elastic Constant Matrix: (Units=GPa)
#
#
# Indices 1 2 3 4 5 6 
#
# 1 37.8886 -13.5111 19.2701 0.0000 5.5940 0.0000
# 2 -13.5111 83.1073 27.4088 0.0000 11.1147 0.0000
# 3 19.2701 27.4088 145.3996 0.0000 14.3537 0.0000
# 4 0.0000 0.0000 0.0000 22.4337 0.0000 8.2013
# 5 5.5940 11.1147 14.3537 0.0000 29.2417 0.0000
# 6 0.0000 0.0000 0.0000 8.2013 0.0000 27.8749
#
#
#
# Elastic Compliance Matrix: (Units=1/GPa)
#
#
# Indices 1 2 3 4 5 6 
#
# 1 0.032870 0.007960 -0.005189 0.000000 -0.006767 0.000000
# 2 0.007960 0.015190 -0.003361 0.000000 -0.005647 0.000000
# 3 -0.005189 -0.003361 0.008381 0.000000 -0.001844 0.000000
# 4 0.000000 0.000000 0.000000 0.049948 0.000000 -0.014696
# 5 -0.006767 -0.005647 -0.001844 0.000000 0.038544 0.000000
# 6 0.000000 0.000000 0.000000 -0.014696 0.000000 0.040198
#
#
# Mechanical properties :
#
#
# Convention : Reuss Voigt Hill
#
# Bulk Modulus (GPa) = 18.09582 36.97012 27.53297
# Shear Modulus (GPa) = 24.42228 31.45858 27.94043
#
# Velocity S-wave (km/s) = 3.26465 3.70522 3.49189
# Velocity P-wave (km/s) = 4.70188 5.86845 5.31725
#
# Compressibility (1/GPa) = 0.05526137
#
# Stress axis : x y z
#
# Youngs Moduli (GPa) = 30.42310 65.83116 119.31942
#
# Poissons Ratio (x) = -0.52402 0.61913
# Poissons Ratio (y) = -0.24217 0.40103
# Poissons Ratio (z) = 0.15786 0.22126
#
# Static dielectric constant tensor:
#      x y z
#    x 1.819690 0.000000 -0.001620 
#    y 0.000000 1.827080 0.000000 
#    z -0.001620 0.000000 1.815680 
# 
# From -- ./inp_files/209302.got.cif
#   From: 2010.05.17/outbox.cif.g08.bks.cpg/sg15_105_cif.got.tgz:209302.got - 2010.06.03 18:47:42.
