data_PCOD9290859
_publ_section_title
;
Structure prediction by ZEFSAII (Michael W. Deem and Ramdas Pophale) SiO2 
 PCOD9290859
Probable space group: C 2/C
;
_chemical_formula_sum "Si O2"
_cell_formula_units_Z 44
_cell_length_a 11.178526
_cell_length_b 24.164864
_cell_length_c 7.667989
_cell_angle_alpha 90.000000
_cell_angle_beta 120.498365
_cell_angle_gamma 90.000000
_cell_volume 1784.752776
_symmetry_space_group_name_H-M "C 2/C"
_symmetry_group_IT_number 15
_symmetry_cell_setting 'monoclinic'
loop_
_space_group_symop_operation_xyz
x,y,z
-x,y,1/2-z
-x,-y,-z
x,-y,1/2+z
1/2+x,1/2+y,z
1/2-x,1/2+y,1/2-z
1/2-x,1/2-y,-z
1/2+x,1/2-y,1/2+z
loop_
_atom_site_type_symbol
_atom_site_label
_atom_site_fract_x
_atom_site_fract_y
_atom_site_fract_z
Si Si1 0.758436 0.148752 0.231187
Si Si2 0.978597 0.767499 0.939653
Si Si3 0.777479 0.562878 0.846598
Si Si4 0.859580 0.964746 0.907451
Si Si5 0.500000 0.105432 0.250000
Si Si6 0.763576 0.317746 0.182667
O O1 0.865982 0.187430 0.413991
O O2 0.834938 0.088836 0.267023
O O3 0.622485 0.139055 0.246424
O O4 0.721664 0.176872 0.017528
O O5 0.898196 0.709302 0.873250
O O6 0.871119 0.780401 0.370763
O O7 0.000000 0.780536 0.750000
O O8 0.761418 0.509031 0.718608
O O9 0.745083 0.619652 0.726392
O O10 0.665561 0.556606 0.917562
O O11 0.925706 0.569635 0.046563
O O12 0.000000 0.000000 0.000000
#
# Coordination Sequence:
#
# PCOD9290859 Si02
#       6
#     8   8   8   8   4   8
#     4  10  22  43  71 104 145 185 237 293 346 435
#     4  10  22  41  72 107 135 186 244 289 352 421
#     4  11  25  42  71 105 137 186 229 291 354 430
#     4  11  23  44  72 102 141 181 231 291 359 419
#     4  10  26  44  66 102 152 184 234 276 372 416
#     4  11  24  43  77 103 141 187 245 296 351 424
#
# _framework density 24.653272999999999
#
# number of rings (size 3 to 8) (size 9 to 14) (size 15 to 20)
#    0.000    1.455    0.000    4.909    5.091    7.273 
#    0.000    3.636    4.000    0.000    0.000    0.000 
#    0.000    0.000    0.000    0.000    0.000    0.000 
#
# Total GULP energy -123110.382855 kJ/mol
# GULP energy per Si atom -5595.926493 kJ/mol
# Density = 2.459716 g / cm^3
# Si number density = 24.653273 Si / 1000 Ang^3
#
#
#
# Elastic Constant Matrix: (Units=GPa)
#
#
# Indices 1 2 3 4 5 6 
#
# 1 117.6745 29.8514 28.1335 0.0000 21.9537 0.0000
# 2 29.8514 147.9636 33.0713 0.0000 6.4973 0.0000
# 3 28.1335 33.0713 81.0292 0.0000 14.0469 0.0000
# 4 0.0000 0.0000 0.0000 31.1207 0.0000 2.0239
# 5 21.9537 6.4973 14.0469 0.0000 26.8539 0.0000
# 6 0.0000 0.0000 0.0000 2.0239 0.0000 50.4720
#
#
#
# Elastic Compliance Matrix: (Units=1/GPa)
#
#
# Indices 1 2 3 4 5 6 
#
# 1 0.010684 -0.001417 -0.001843 0.000000 -0.007427 0.000000
# 2 -0.001417 0.007626 -0.002751 0.000000 0.000752 0.000000
# 3 -0.001843 -0.002751 0.015096 0.000000 -0.005724 0.000000
# 4 0.000000 0.000000 0.000000 0.032217 0.000000 -0.001292
# 5 -0.007427 0.000752 -0.005724 0.000000 0.046122 0.000000
# 6 0.000000 0.000000 0.000000 -0.001292 0.000000 0.019865
#
#
# Mechanical properties :
#
#
# Convention : Reuss Voigt Hill
#
# Bulk Modulus (GPa) = 46.76597 58.75330 52.75963
# Shear Modulus (GPa) = 33.16493 38.73007 35.94750
#
# Velocity S-wave (km/s) = 3.67175 3.96787 3.82268
# Velocity P-wave (km/s) = 6.08164 6.69893 6.39773
#
# Compressibility (1/GPa) = 0.02138307
#
# Stress axis : x y z
#
# Youngs Moduli (GPa) = 93.59854 131.12750 66.24126
#
# Poissons Ratio (x) = 0.18585 0.12211
# Poissons Ratio (y) = 0.13266 0.18222
# Poissons Ratio (z) = 0.17255 0.36072
#
# Static dielectric constant tensor:
#      x y z
#    x 1.968280 0.000000 0.013930 
#    y 0.000000 1.990180 0.000000 
#    z 0.013930 0.000000 1.990570 
# 
# From -- ./inp_files/32723.got.cif
#   From: 2010.05.17/outbox.cif.g08.bks.cpg/sg15_17_cif.got.tgz:32723.got - 2010.06.03 18:47:42.
