data_PCOD9290770
_publ_section_title
;
Structure prediction by ZEFSAII (Michael W. Deem and Ramdas Pophale) SiO2 
 PCOD9290770
Probable space group: C 2/C
;
_chemical_formula_sum "Si O2"
_cell_formula_units_Z 56
_cell_length_a 27.770383
_cell_length_b 14.406758
_cell_length_c 12.771996
_cell_angle_alpha 90.000000
_cell_angle_beta 27.744300
_cell_angle_gamma 90.000000
_cell_volume 2378.763633
_symmetry_space_group_name_H-M "C 2/C"
_symmetry_group_IT_number 15
_symmetry_cell_setting 'monoclinic'
loop_
_space_group_symop_operation_xyz
x,y,z
-x,y,1/2-z
-x,-y,-z
x,-y,1/2+z
1/2+x,1/2+y,z
1/2-x,1/2+y,1/2-z
1/2-x,1/2-y,-z
1/2+x,1/2-y,1/2+z
loop_
_atom_site_type_symbol
_atom_site_label
_atom_site_fract_x
_atom_site_fract_y
_atom_site_fract_z
Si Si1 0.768602 0.312730 0.235499
Si Si2 0.591865 0.078102 0.502811
Si Si3 0.086636 0.211019 0.947601
Si Si4 0.913970 0.411766 0.109707
Si Si5 0.224642 0.624237 0.429838
Si Si6 0.076366 0.251193 0.743485
Si Si7 0.051929 0.901017 0.918754
O O1 0.666502 0.341513 0.368227
O O2 0.826503 0.389291 0.190429
O O3 0.741187 0.231403 0.369489
O O4 0.848575 0.269473 0.996821
O O5 0.500000 0.037491 0.750000
O O6 0.581086 0.022314 0.415995
O O7 0.573134 0.186906 0.519866
O O8 0.693472 0.075707 0.380406
O O9 0.134715 0.227516 0.739663
O O10 0.980366 0.159296 0.122105
O O11 0.868715 0.386817 0.309358
O O12 0.005983 0.342254 0.899717
O O13 0.328343 0.589014 0.285615
O O14 0.999475 0.161761 0.889323
O O15 0.000000 0.000000 0.000000
#
# Coordination Sequence:
#
# PCOD9290770 Si02
#       7
#     8   8   8   8   8   8   8
#     4  11  21  41  71  99 138 185 228 282 343 407
#     4  11  25  43  70 103 140 180 230 284 349 417
#     4   9  23  41  67 101 138 177 228 287 338 404
#     4  12  25  42  69 103 138 182 227 289 349 416
#     4  11  26  45  67  98 148 177 232 285 347 403
#     4  10  22  41  69  99 136 178 232 280 345 402
#     4  10  24  44  69  96 136 185 229 284 339 408
#
# _framework density 23.541642
#
# number of rings (size 3 to 8) (size 9 to 14) (size 15 to 20)
#    0.857    0.571    1.429    3.000    2.000    6.857 
#    0.000    0.000    3.143    0.000    0.000    0.000 
#    0.000    0.000    0.000    0.000    0.000    0.000 
#
# Total GULP energy -156419.754212 kJ/mol
# GULP energy per Si atom -5586.419793 kJ/mol
# Density = 2.348806 g / cm^3
# Si number density = 23.541642 Si / 1000 Ang^3
#
#
#
# Elastic Constant Matrix: (Units=GPa)
#
#
# Indices 1 2 3 4 5 6 
#
# 1 84.2209 1.6996 23.5787 0.0000 -17.6375 0.0000
# 2 1.6996 81.6992 17.3817 0.0000 -3.6507 0.0000
# 3 23.5787 17.3817 89.6013 0.0000 -11.3254 0.0000
# 4 0.0000 0.0000 0.0000 10.3709 0.0000 -5.7009
# 5 -17.6375 -3.6507 -11.3254 0.0000 64.1581 0.0000
# 6 0.0000 0.0000 0.0000 -5.7009 0.0000 36.2988
#
#
#
# Elastic Compliance Matrix: (Units=1/GPa)
#
#
# Indices 1 2 3 4 5 6 
#
# 1 0.013430 0.000551 -0.003243 0.000000 0.003151 0.000000
# 2 0.000551 0.012795 -0.002573 0.000000 0.000425 0.000000
# 3 -0.003243 -0.002573 0.012665 0.000000 0.001198 0.000000
# 4 0.000000 0.000000 0.000000 0.105534 0.000000 0.016575
# 5 0.003151 0.000425 0.001198 0.000000 0.016688 0.000000
# 6 0.000000 0.000000 0.000000 0.016575 0.000000 0.030152
#
#
# Mechanical properties :
#
#
# Convention : Reuss Voigt Hill
#
# Bulk Modulus (GPa) = 35.26111 37.87128 36.56620
# Shear Modulus (GPa) = 23.66891 36.35634 30.01262
#
# Velocity S-wave (km/s) = 3.17425 3.93407 3.57441
# Velocity P-wave (km/s) = 5.33341 6.06282 5.70977
#
# Compressibility (1/GPa) = 0.02835985
#
# Stress axis : x y z
#
# Youngs Moduli (GPa) = 74.45927 78.15517 78.96084
#
# Poissons Ratio (x) = -0.04309 0.25606
# Poissons Ratio (y) = -0.04105 0.20320
# Poissons Ratio (z) = 0.24146 0.20113
#
# Static dielectric constant tensor:
#      x y z
#    x 1.930500 0.000000 -0.041480 
#    y 0.000000 1.876160 0.000000 
#    z -0.041480 0.000000 1.941890 
# 
# From -- ./inp_files/173775.got.cif
#   From: 2010.05.17/outbox.cif.g08.bks.cpg/sg15_87_cif.got.tgz:173775.got - 2010.06.03 18:47:42.
