data_PCOD9290736
_publ_section_title
;
Structure prediction by ZEFSAII (Michael W. Deem and Ramdas Pophale) SiO2 
 PCOD9290736
Probable space group: C 2/C
;
_chemical_formula_sum "Si O2"
_cell_formula_units_Z 48
_cell_length_a 14.413324
_cell_length_b 4.832307
_cell_length_c 31.388333
_cell_angle_alpha 90.000000
_cell_angle_beta 72.357450
_cell_angle_gamma 90.000000
_cell_volume 2083.359694
_symmetry_space_group_name_H-M "C 2/C"
_symmetry_group_IT_number 15
_symmetry_cell_setting 'monoclinic'
loop_
_space_group_symop_operation_xyz
x,y,z
-x,y,1/2-z
-x,-y,-z
x,-y,1/2+z
1/2+x,1/2+y,z
1/2-x,1/2+y,1/2-z
1/2-x,1/2-y,-z
1/2+x,1/2-y,1/2+z
loop_
_atom_site_type_symbol
_atom_site_label
_atom_site_fract_x
_atom_site_fract_y
_atom_site_fract_z
Si Si1 0.831193 0.123383 0.346348
Si Si2 0.055032 0.637325 0.198356
Si Si3 0.128704 0.815083 0.566533
Si Si4 0.459282 0.935518 0.624303
Si Si5 0.311990 0.452787 0.520911
Si Si6 0.653017 0.447193 0.889530
O O1 0.910859 0.323848 0.314171
O O2 0.857005 0.023755 0.391050
O O3 0.740674 0.341184 0.363410
O O4 0.850627 0.839233 0.318289
O O5 0.000000 0.676785 0.250000
O O6 0.981580 0.672678 0.168646
O O7 0.236289 0.690743 0.544542
O O8 0.052925 0.580344 0.590468
O O9 0.106604 0.942499 0.523387
O O10 0.375657 0.175387 0.633847
O O11 0.434462 0.664588 0.601087
O O12 0.250000 0.250000 0.500000
O O13 0.340378 0.338080 0.562954
#
# Coordination Sequence:
#
# PCOD9290736 Si02
#       6
#     8   8   8   8   8   8
#     4  10  22  41  69  94 129 176 214 257 333 396
#     4  11  23  44  73  98 122 167 226 270 320 408
#     4   9  22  38  61  90 127 177 218 263 307 387
#     4  11  24  42  64  97 135 166 212 276 337 369
#     4  10  23  38  63  90 129 176 231 253 305 391
#     4  11  25  41  64  99 137 173 207 271 329 376
#
# _framework density 23.039711
#
# number of rings (size 3 to 8) (size 9 to 14) (size 15 to 20)
#    0.000    1.667    0.000    3.500   16.333    1.333 
#    0.000    3.333    0.000    0.000    0.000    0.000 
#    0.000    0.000    0.000    0.000    0.000    0.000 
#
# Total GULP energy -133731.239573 kJ/mol
# GULP energy per Si atom -5572.134982 kJ/mol
# Density = 2.298727 g / cm^3
# Si number density = 23.039711 Si / 1000 Ang^3
#
#
#
# Elastic Constant Matrix: (Units=GPa)
#
#
# Indices 1 2 3 4 5 6 
#
# 1 57.8270 20.2220 56.2527 -0.0008 1.7044 -0.0003
# 2 20.2220 104.8014 43.7686 0.0011 1.1976 0.0017
# 3 56.2527 43.7686 168.5271 -0.0003 -12.3001 0.0004
# 4 -0.0008 0.0011 -0.0003 22.6930 0.0010 -2.8136
# 5 1.7044 1.1976 -12.3001 0.0010 21.7156 0.0014
# 6 -0.0003 0.0017 0.0004 -2.8136 0.0014 50.0436
#
#
#
# Elastic Compliance Matrix: (Units=1/GPa)
#
#
# Indices 1 2 3 4 5 6 
#
# 1 0.026867 -0.001274 -0.009165 0.000001 -0.007229 0.000001
# 2 -0.001274 0.010870 -0.002539 -0.000001 -0.001938 0.000000
# 3 -0.009165 -0.002539 0.010134 0.000000 0.006599 0.000000
# 4 0.000001 -0.000001 0.000000 0.044376 -0.000003 0.002495
# 5 -0.007229 -0.001938 0.006599 -0.000003 0.050462 -0.000002
# 6 0.000001 0.000000 0.000000 0.002495 -0.000002 0.020123
#
#
# Mechanical properties :
#
#
# Convention : Reuss Voigt Hill
#
# Bulk Modulus (GPa) = 45.63072 63.51580 54.57326
# Shear Modulus (GPa) = 25.49816 32.95126 29.22471
#
# Velocity S-wave (km/s) = 3.33033 3.78589 3.56539
# Velocity P-wave (km/s) = 5.88527 6.83655 6.37867
#
# Compressibility (1/GPa) = 0.02191506
#
# Stress axis : x y z
#
# Youngs Moduli (GPa) = 37.22090 91.99341 98.67805
#
# Poissons Ratio (x) = 0.11720 0.90434
# Poissons Ratio (y) = 0.04742 0.25058
# Poissons Ratio (z) = 0.34111 0.23360
#
# Static dielectric constant tensor:
#      x y z
#    x 2.016230 0.000000 -0.005940 
#    y 0.000000 1.913830 0.000000 
#    z -0.005940 0.000000 1.901690 
# 
# From -- ./inp_files/312038.got.cif
#   From: 2010.05.17/outbox.cif.g08.bks.cpg/sg15_157_cif.got.tgz:312038.got - 2010.06.03 18:47:42.
