data_PCOD9290136
_publ_section_title
;
Structure prediction by ZEFSAII (Michael W. Deem and Ramdas Pophale) SiO2 
 PCOD9290136
Probable space group: C 2/C
;
_chemical_formula_sum "Si O2"
_cell_formula_units_Z 44
_cell_length_a 10.290002
_cell_length_b 11.746147
_cell_length_c 18.926768
_cell_angle_alpha 90.000000
_cell_angle_beta 129.497771
_cell_angle_gamma 90.000000
_cell_volume 1765.254519
_symmetry_space_group_name_H-M "C 2/C"
_symmetry_group_IT_number 15
_symmetry_cell_setting 'monoclinic'
loop_
_space_group_symop_operation_xyz
x,y,z
-x,y,1/2-z
-x,-y,-z
x,-y,1/2+z
1/2+x,1/2+y,z
1/2-x,1/2+y,1/2-z
1/2-x,1/2-y,-z
1/2+x,1/2-y,1/2+z
loop_
_atom_site_type_symbol
_atom_site_label
_atom_site_fract_x
_atom_site_fract_y
_atom_site_fract_z
Si Si1 0.612249 0.965381 0.106617
Si Si2 0.772230 0.552731 0.710329
Si Si3 0.500000 0.738087 0.250000
Si Si4 0.894744 0.124544 0.616952
Si Si5 0.055006 0.224148 0.422291
Si Si6 0.230333 0.867202 0.581761
O O1 0.640163 0.017358 0.194109
O O2 0.797969 0.949738 0.140438
O O3 0.536643 0.845103 0.104294
O O4 0.500000 0.000000 0.000000
O O5 0.848776 0.673567 0.712333
O O6 0.584711 0.588377 0.669182
O O7 0.788716 0.471746 0.648694
O O8 0.527481 0.675866 0.333951
O O9 0.796642 0.105493 0.509190
O O10 0.850936 0.255540 0.624365
O O11 0.250000 0.250000 0.500000
O O12 0.955582 0.157412 0.448733
#
# Coordination Sequence:
#
# PCOD9290136 Si02
#       6
#     8   8   4   8   8   8
#     4  10  24  41  62  96 134 176 229 283 344 407
#     4  11  23  43  69  96 133 183 224 283 347 419
#     4  10  24  42  60  98 134 166 224 282 344 402
#     4  10  22  44  68  99 139 173 229 289 341 418
#     4  10  22  41  62  93 133 170 216 278 337 406
#     4  10  23  41  70 104 126 182 228 271 356 411
#
# _framework density 24.925584000000001
#
# number of rings (size 3 to 8) (size 9 to 14) (size 15 to 20)
#    0.000    1.818    0.000    2.182    7.636    1.455 
#    9.818    0.000    0.000    0.000    0.000    0.000 
#    0.000    0.000    0.000    0.000    0.000    0.000 
#
# Total GULP energy -122946.564130 kJ/mol
# GULP energy per Si atom -5588.480188 kJ/mol
# Density = 2.486885 g / cm^3
# Si number density = 24.925584 Si / 1000 Ang^3
#
#
#
# Elastic Constant Matrix: (Units=GPa)
#
#
# Indices 1 2 3 4 5 6 
#
# 1 178.1658 35.9036 35.0105 0.0000 2.7276 0.0000
# 2 35.9036 45.3974 18.0584 0.0000 -4.8106 0.0000
# 3 35.0105 18.0584 89.6698 0.0000 -22.9261 0.0000
# 4 0.0000 0.0000 0.0000 27.4860 0.0000 -3.5842
# 5 2.7276 -4.8106 -22.9261 0.0000 46.3648 0.0000
# 6 0.0000 0.0000 0.0000 -3.5842 0.0000 31.8012
#
#
#
# Elastic Compliance Matrix: (Units=1/GPa)
#
#
# Indices 1 2 3 4 5 6 
#
# 1 0.007086 -0.004906 -0.002307 0.000000 -0.002067 0.000000
# 2 -0.004906 0.027343 -0.003196 0.000000 0.001545 0.000000
# 3 -0.002307 -0.003196 0.014477 0.000000 0.006962 0.000000
# 4 0.000000 0.000000 0.000000 0.036925 0.000000 0.004162
# 5 -0.002067 0.001545 0.006962 0.000000 0.025293 0.000000
# 6 0.000000 0.000000 0.000000 0.004162 0.000000 0.031914
#
#
# Mechanical properties :
#
#
# Convention : Reuss Voigt Hill
#
# Bulk Modulus (GPa) = 35.60288 54.57533 45.08910
# Shear Modulus (GPa) = 28.86539 36.08109 32.47324
#
# Velocity S-wave (km/s) = 3.40672 3.80880 3.61336
# Velocity P-wave (km/s) = 5.45793 6.42537 5.96131
#
# Compressibility (1/GPa) = 0.02808762
#
# Stress axis : x y z
#
# Youngs Moduli (GPa) = 141.11636 36.57309 69.07700
#
# Poissons Ratio (x) = 0.17941 0.15938
# Poissons Ratio (y) = 0.69226 0.22077
# Poissons Ratio (z) = 0.32559 0.11689
#
# Static dielectric constant tensor:
#      x y z
#    x 1.923350 0.000000 0.058180 
#    y 0.000000 2.091630 0.000000 
#    z 0.058180 0.000000 2.186180 
# 
# From -- ./inp_files/189341.got.cif
#   From: 2010.05.17/outbox.cif.g08.bks.cpg/sg15_95_cif.got.tgz:189341.got - 2010.06.03 18:47:42.
