data_PCOD9290091
_publ_section_title
;
Structure prediction by ZEFSAII (Michael W. Deem and Ramdas Pophale) SiO2 
 PCOD9290091
Probable space group: C 2/C
;
_chemical_formula_sum "Si O2"
_cell_formula_units_Z 48
_cell_length_a 19.061245
_cell_length_b 6.660553
_cell_length_c 24.896514
_cell_angle_alpha 90.000000
_cell_angle_beta 129.869905
_cell_angle_gamma 90.000000
_cell_volume 2425.937420
_symmetry_space_group_name_H-M "C 2/C"
_symmetry_group_IT_number 15
_symmetry_cell_setting 'monoclinic'
loop_
_space_group_symop_operation_xyz
x,y,z
-x,y,1/2-z
-x,-y,-z
x,-y,1/2+z
1/2+x,1/2+y,z
1/2-x,1/2+y,1/2-z
1/2-x,1/2-y,-z
1/2+x,1/2-y,1/2+z
loop_
_atom_site_type_symbol
_atom_site_label
_atom_site_fract_x
_atom_site_fract_y
_atom_site_fract_z
Si Si1 0.012132 0.512755 0.815942
Si Si2 0.303055 0.974474 0.343057
Si Si3 0.154283 0.252134 0.025591
Si Si4 0.790483 0.450551 0.044512
Si Si5 0.871571 0.832742 0.787833
Si Si6 0.043615 0.217033 0.615055
O O1 0.985205 0.343841 0.846135
O O2 0.000000 0.434455 0.750000
O O3 0.115984 0.578427 0.877324
O O4 0.946212 0.701950 0.793298
O O5 0.321501 0.854597 0.406484
O O6 0.201915 0.063342 0.287033
O O7 0.319146 0.821388 0.301528
O O8 0.376559 0.153965 0.373617
O O9 0.183165 0.404520 0.992210
O O10 0.046898 0.206064 0.965959
O O11 0.215073 0.056281 0.044658
O O12 0.750000 0.250000 0.000000
O O13 0.920062 0.002245 0.847868
#
# Coordination Sequence:
#
# PCOD9290091 Si02
#       6
#     8   8   8   8   8   8
#     4  10  24  39  61  92 121 163 205 249 308 364
#     4  11  23  39  63  91 122 163 206 250 310 365
#     4  10  23  39  64  90 122 165 201 256 307 358
#     4  10  22  41  61  91 127 157 209 250 298 372
#     4  11  23  39  61  89 125 159 203 258 300 367
#     4  10  22  43  60  89 128 153 209 258 301 369
#
# _framework density 19.786166000000001
#
# number of rings (size 3 to 8) (size 9 to 14) (size 15 to 20)
#    0.000    1.667    1.667    1.500    4.667    2.667 
#    0.000    0.000    0.000    0.000    0.000    0.000 
#    0.000    0.000    0.000    0.000    0.000    0.000 
#
# Total GULP energy -134196.918328 kJ/mol
# GULP energy per Si atom -5591.538264 kJ/mol
# Density = 1.974113 g / cm^3
# Si number density = 19.786166 Si / 1000 Ang^3
#
#
#
# Elastic Constant Matrix: (Units=GPa)
#
#
# Indices 1 2 3 4 5 6 
#
# 1 41.7536 28.6803 47.9091 0.0000 17.9711 0.0000
# 2 28.6803 67.6525 10.7586 0.0000 22.1830 0.0001
# 3 47.9091 10.7586 122.3704 0.0000 23.4443 0.0000
# 4 0.0000 0.0000 0.0000 30.8376 0.0000 10.0124
# 5 17.9711 22.1830 23.4443 0.0000 39.0662 0.0000
# 6 0.0000 0.0001 0.0000 10.0124 0.0000 11.4061
#
#
#
# Elastic Compliance Matrix: (Units=1/GPa)
#
#
# Indices 1 2 3 4 5 6 
#
# 1 0.071676 -0.025220 -0.025164 0.000000 -0.003550 0.000000
# 2 -0.025220 0.027057 0.009283 0.000000 -0.009333 0.000000
# 3 -0.025164 0.009283 0.018078 0.000000 -0.004544 0.000000
# 4 0.000000 0.000000 0.000000 0.045354 0.000000 -0.039812
# 5 -0.003550 -0.009333 -0.004544 0.000000 0.035257 0.000000
# 6 0.000000 0.000000 0.000000 -0.039812 0.000000 0.122620
#
#
# Mechanical properties :
#
#
# Convention : Reuss Voigt Hill
#
# Bulk Modulus (GPa) = 28.89436 45.16362 37.02899
# Shear Modulus (GPa) = 12.08367 25.89055 18.98711
#
# Velocity S-wave (km/s) = 2.47394 3.62127 3.10113
# Velocity P-wave (km/s) = 4.77447 6.35297 5.61942
#
# Compressibility (1/GPa) = 0.03460883
#
# Stress axis : x y z
#
# Youngs Moduli (GPa) = 13.95177 36.95882 55.31462
#
# Poissons Ratio (x) = 0.93210 1.39195
# Poissons Ratio (y) = 0.35186 -0.51349
# Poissons Ratio (z) = 0.35109 -0.34309
#
# Static dielectric constant tensor:
#      x y z
#    x 1.674350 0.000000 -0.004900 
#    y 0.000000 1.664250 0.000000 
#    z -0.004900 0.000000 1.646390 
# 
# From -- ./inp_files/279044.got.cif
#   From: 2010.05.17/outbox.cif.g08.bks.cpg/sg15_140_cif.got.tgz:279044.got - 2010.06.03 18:47:42.
