data_PCOD9290588
_publ_section_title
;
Structure prediction by ZEFSAII (Michael W. Deem and Ramdas Pophale) SiO2 
 PCOD9290588
Probable space group: C 2/C
;
_chemical_formula_sum "Si O2"
_cell_formula_units_Z 32
_cell_length_a 7.864621
_cell_length_b 22.367861
_cell_length_c 11.527284
_cell_angle_alpha 90.000000
_cell_angle_beta 142.675183
_cell_angle_gamma 90.000000
_cell_volume 1229.533529
_symmetry_space_group_name_H-M "C 2/C"
_symmetry_group_IT_number 15
_symmetry_cell_setting 'monoclinic'
loop_
_space_group_symop_operation_xyz
x,y,z
-x,y,1/2-z
-x,-y,-z
x,-y,1/2+z
1/2+x,1/2+y,z
1/2-x,1/2+y,1/2-z
1/2-x,1/2-y,-z
1/2+x,1/2-y,1/2+z
loop_
_atom_site_type_symbol
_atom_site_label
_atom_site_fract_x
_atom_site_fract_y
_atom_site_fract_z
Si Si1 0.155787 0.498272 0.709718
Si Si2 0.282215 0.127843 0.782259
Si Si3 0.090949 0.364605 0.669953
Si Si4 0.348292 0.314774 0.516438
O O1 0.326899 0.560272 0.798336
O O2 0.246700 0.429483 0.755853
O O3 0.000000 0.502445 0.750000
O O4 0.000000 0.500000 0.500000
O O5 0.143709 0.173943 0.618747
O O6 0.617538 0.135476 0.930532
O O7 0.320250 0.137610 0.939902
O O8 0.000000 0.351936 0.750000
O O9 0.338159 0.321351 0.768237
O O10 0.250000 0.250000 0.500000
#
# Coordination Sequence:
#
# PCOD9290588 Si02
#       4
#     8   8   8   8
#     4   9  17  37  61  96 134 176 222 284 347 413
#     4  10  22  41  67  95 134 177 238 279 332 412
#     4  10  23  41  66  99 140 175 223 289 358 402
#     4  11  24  40  69  97 128 184 239 275 329 415
#
# _framework density 26.026132
#
# number of rings (size 3 to 8) (size 9 to 14) (size 15 to 20)
#    0.000    2.000    2.500    0.750    7.000    2.000 
#    0.000    1.250    0.000    0.000    0.000    0.000 
#    0.000    0.000    0.000    0.000    0.000    0.000 
#
# Total GULP energy -89301.999080 kJ/mol
# GULP energy per Si atom -5581.374943 kJ/mol
# Density = 2.596690 g / cm^3
# Si number density = 26.026132 Si / 1000 Ang^3
#
#
#
# Elastic Constant Matrix: (Units=GPa)
#
#
# Indices 1 2 3 4 5 6 
#
# 1 86.3930 40.4156 23.9340 0.0000 -34.1854 0.0000
# 2 40.4156 134.0982 19.8209 0.0000 -4.9264 0.0000
# 3 23.9340 19.8209 138.5302 0.0000 -30.7416 0.0000
# 4 0.0000 0.0000 0.0000 31.7704 0.0000 -13.5012
# 5 -34.1854 -4.9264 -30.7416 0.0000 55.4472 0.0000
# 6 0.0000 0.0000 0.0000 -13.5012 0.0000 29.0292
#
#
#
# Elastic Compliance Matrix: (Units=1/GPa)
#
#
# Indices 1 2 3 4 5 6 
#
# 1 0.018227 -0.005093 -0.000031 0.000000 0.010768 0.000000
# 2 -0.005093 0.009042 -0.001063 0.000000 -0.002926 0.000000
# 3 -0.000031 -0.001063 0.008382 0.000000 0.004534 0.000000
# 4 0.000000 0.000000 0.000000 0.039229 0.000000 0.018245
# 5 0.010768 -0.002926 0.004534 0.000000 0.026928 0.000000
# 6 0.000000 0.000000 0.000000 0.018245 0.000000 0.042934
#
#
# Mechanical properties :
#
#
# Convention : Reuss Voigt Hill
#
# Bulk Modulus (GPa) = 42.96111 58.59581 50.77846
# Shear Modulus (GPa) = 30.32588 41.57275 35.94931
#
# Velocity S-wave (km/s) = 3.41722 4.00102 3.72059
# Velocity P-wave (km/s) = 5.66680 6.62626 6.16522
#
# Compressibility (1/GPa) = 0.02327687
#
# Stress axis : x y z
#
# Youngs Moduli (GPa) = 54.86310 110.59593 119.30039
#
# Poissons Ratio (x) = 0.56330 0.00367
# Poissons Ratio (y) = 0.27944 0.12683
# Poissons Ratio (z) = 0.00169 0.11758
#
# Static dielectric constant tensor:
#      x y z
#    x 2.161130 0.000000 -0.067480 
#    y 0.000000 1.997910 0.000000 
#    z -0.067480 0.000000 2.128660 
# 
# From -- ./inp_files/78874.got.cif
#   From: 2010.05.17/outbox.cif.g08.bks.cpg/sg15_40_cif.got.tgz:78874.got - 2010.06.03 18:47:42.
