data_PCOD9290468
_publ_section_title
;
Structure prediction by ZEFSAII (Michael W. Deem and Ramdas Pophale) SiO2 
 PCOD9290468
Probable space group: C 2/C
;
_chemical_formula_sum "Si O2"
_cell_formula_units_Z 60
_cell_length_a 21.060075
_cell_length_b 10.455302
_cell_length_c 21.814658
_cell_angle_alpha 90.000000
_cell_angle_beta 148.795633
_cell_angle_gamma 90.000000
_cell_volume 2488.582026
_symmetry_space_group_name_H-M "C 2/C"
_symmetry_group_IT_number 15
_symmetry_cell_setting 'monoclinic'
loop_
_space_group_symop_operation_xyz
x,y,z
-x,y,1/2-z
-x,-y,-z
x,-y,1/2+z
1/2+x,1/2+y,z
1/2-x,1/2+y,1/2-z
1/2-x,1/2-y,-z
1/2+x,1/2-y,1/2+z
loop_
_atom_site_type_symbol
_atom_site_label
_atom_site_fract_x
_atom_site_fract_y
_atom_site_fract_z
Si Si1 0.936529 0.179331 0.413315
Si Si2 0.783800 0.422596 0.565449
Si Si3 0.500000 0.000000 0.000000
Si Si4 0.831288 0.012408 0.918380
Si Si5 0.935647 0.408608 0.341511
Si Si6 0.227288 0.952907 0.822864
Si Si7 0.339614 0.847091 0.040471
Si Si8 0.129398 0.833296 0.323989
O O1 0.945068 0.333629 0.416729
O O2 0.863462 0.131848 0.293205
O O3 0.069821 0.116666 0.520295
O O4 0.865823 0.117366 0.411434
O O5 0.672372 0.479631 0.513250
O O6 0.862654 0.540393 0.607962
O O7 0.854311 0.320031 0.665362
O O8 0.731875 0.368595 0.459175
O O9 0.504753 0.035234 0.081816
O O10 0.650650 0.033610 0.116254
O O11 0.698264 0.068232 0.792750
O O12 0.024044 0.324123 0.372488
O O13 0.160179 0.084876 0.788896
O O14 0.265084 0.886289 0.917779
O O15 0.250000 0.750000 0.000000
O O16 0.000000 0.862687 0.250000
#
# Coordination Sequence:
#
# PCOD9290468 Si02
#       8
#     8   8   4   8   8   8   8   8
#     4  11  25  43  65  99 132 181 226 278 345 413
#     4  10  23  41  62 100 128 169 227 269 338 395
#     4  10  22  44  66  96 130 174 236 268 342 410
#     4  11  25  42  64  98 137 169 226 282 334 415
#     4  11  25  42  70  96 135 180 222 290 340 416
#     4  10  22  44  69  95 133 180 229 280 341 412
#     4  10  23  43  70  98 132 178 226 289 341 406
#     4  10  22  41  66  92 132 178 217 277 332 409
#
# _framework density 24.110116999999999
#
# number of rings (size 3 to 8) (size 9 to 14) (size 15 to 20)
#    0.000    1.600    1.333    1.600    9.333    1.067 
#    0.000    1.333    0.000    0.000    0.000    0.000 
#    0.000    0.000    0.000    0.000    0.000    0.000 
#
# Total GULP energy -167194.190684 kJ/mol
# GULP energy per Si atom -5573.139689 kJ/mol
# Density = 2.405524 g / cm^3
# Si number density = 24.110117 Si / 1000 Ang^3
#
#
#
# Elastic Constant Matrix: (Units=GPa)
#
#
# Indices 1 2 3 4 5 6 
#
# 1 118.9312 35.3858 22.6306 0.0000 19.0596 0.0000
# 2 35.3858 73.0716 20.5550 0.0000 12.8936 0.0000
# 3 22.6306 20.5550 104.6158 -0.0001 27.7560 0.0000
# 4 0.0000 0.0000 -0.0001 15.8179 0.0000 7.7662
# 5 19.0596 12.8936 27.7560 0.0000 41.9432 0.0000
# 6 0.0000 0.0000 0.0000 7.7662 0.0000 40.3597
#
#
#
# Elastic Compliance Matrix: (Units=1/GPa)
#
#
# Indices 1 2 3 4 5 6 
#
# 1 0.010270 -0.004284 -0.000596 0.000000 -0.002956 0.000000
# 2 -0.004284 0.016617 -0.001819 0.000000 -0.001958 0.000000
# 3 -0.000596 -0.001819 0.011917 0.000000 -0.007056 0.000000
# 4 0.000000 0.000000 0.000000 0.069815 0.000000 -0.013434
# 5 -0.002956 -0.001958 -0.007056 0.000000 0.030456 0.000000
# 6 0.000000 0.000000 0.000000 -0.013434 0.000000 0.027362
#
#
# Mechanical properties :
#
#
# Convention : Reuss Voigt Hill
#
# Bulk Modulus (GPa) = 39.35955 50.41793 44.88874
# Shear Modulus (GPa) = 26.55277 34.16063 30.35670
#
# Velocity S-wave (km/s) = 3.32220 3.76820 3.55221
# Velocity P-wave (km/s) = 5.57462 6.31580 5.95675
#
# Compressibility (1/GPa) = 0.02540680
#
# Stress axis : x y z
#
# Youngs Moduli (GPa) = 97.37163 60.17944 83.91265
#
# Poissons Ratio (x) = 0.25782 0.04998
# Poissons Ratio (y) = 0.41716 0.15261
# Poissons Ratio (z) = 0.05800 0.10945
#
# Static dielectric constant tensor:
#      x y z
#    x 3.740030 0.000000 -1.618890 
#    y 0.000000 3.324310 0.000000 
#    z -1.618890 0.000000 3.414890 
# 
# From -- ./inp_files/280113.got.cif
#   From: 2010.05.17/outbox.cif.g08.bks.cpg/sg15_141_cif.got.tgz:280113.got - 2010.06.03 18:47:42.
