data_PCOD9290959
_publ_section_title
;
Structure prediction by ZEFSAII (Michael W. Deem and Ramdas Pophale) SiO2 
 PCOD9290959
Probable space group: C 2/C
;
_chemical_formula_sum "Si O2"
_cell_formula_units_Z 56
_cell_length_a 9.990925
_cell_length_b 25.134869
_cell_length_c 10.676871
_cell_angle_alpha 90.000000
_cell_angle_beta 50.430057
_cell_angle_gamma 90.000000
_cell_volume 2066.782630
_symmetry_space_group_name_H-M "C 2/C"
_symmetry_group_IT_number 15
_symmetry_cell_setting 'monoclinic'
loop_
_space_group_symop_operation_xyz
x,y,z
-x,y,1/2-z
-x,-y,-z
x,-y,1/2+z
1/2+x,1/2+y,z
1/2-x,1/2+y,1/2-z
1/2-x,1/2-y,-z
1/2+x,1/2-y,1/2+z
loop_
_atom_site_type_symbol
_atom_site_label
_atom_site_fract_x
_atom_site_fract_y
_atom_site_fract_z
Si Si1 0.995234 0.884861 0.380263
Si Si2 0.163383 0.401537 0.379994
Si Si3 0.990770 0.692350 0.385101
Si Si4 0.332294 0.288603 0.624926
Si Si5 0.326215 0.097797 0.882328
Si Si6 0.675324 0.510899 0.570248
Si Si7 0.672141 0.300284 0.619173
O O1 0.140113 0.880763 0.171717
O O2 0.190579 0.894111 0.336771
O O3 0.937940 0.830723 0.477798
O O4 0.897859 0.941265 0.475616
O O5 0.043149 0.368124 0.549509
O O6 0.190686 0.462021 0.411721
O O7 0.029205 0.399619 0.333121
O O8 0.862709 0.699758 0.332633
O O9 0.876650 0.729111 0.550859
O O10 0.187653 0.705361 0.335311
O O11 0.466550 0.297027 0.672806
O O12 0.265616 0.038610 0.954675
O O13 0.240100 0.144485 0.019592
O O14 0.500000 0.495124 0.750000
O O15 0.750000 0.250000 0.500000
#
# Coordination Sequence:
#
# PCOD9290959 Si02
#       7
#     8   8   8   8   8   8   8
#     4   9  19  39  63  89 120 154 199 249 301 356
#     4  10  22  42  62  85 123 161 198 251 302 351
#     4  12  23  38  61  90 124 159 201 245 302 363
#     4  12  23  37  61  90 122 159 200 249 301 355
#     4  12  25  41  63  91 123 161 204 243 295 361
#     4   9  22  41  63  90 119 155 201 251 300 354
#     4  12  25  43  64  89 123 159 202 247 297 357
#
# _framework density 27.095255000000002
#
# number of rings (size 3 to 8) (size 9 to 14) (size 15 to 20)
#    0.000    1.429    0.000    7.714    0.000    5.714 
#    0.000    0.000    0.000    0.000    0.000    0.000 
#    0.000    0.000    0.000    0.000    0.000    0.000 
#
# Total GULP energy -156364.292875 kJ/mol
# GULP energy per Si atom -5584.439031 kJ/mol
# Density = 2.703358 g / cm^3
# Si number density = 27.095255 Si / 1000 Ang^3
#
#
#
# Elastic Constant Matrix: (Units=GPa)
#
#
# Indices 1 2 3 4 5 6 
#
# 1 307.4604 24.6770 82.4114 0.0000 17.5684 0.0000
# 2 24.6770 125.1849 89.7060 0.0000 11.2358 0.0000
# 3 82.4114 89.7060 144.2502 0.0000 -4.9510 0.0000
# 4 0.0000 0.0000 0.0000 74.5329 0.0000 -7.4334
# 5 17.5684 11.2358 -4.9510 0.0000 117.6326 0.0000
# 6 0.0000 0.0000 0.0000 -7.4334 0.0000 62.3504
#
#
#
# Elastic Compliance Matrix: (Units=1/GPa)
#
#
# Indices 1 2 3 4 5 6 
#
# 1 0.004092 0.001758 -0.003463 0.000000 -0.000925 0.000000
# 2 0.001758 0.015536 -0.010741 0.000000 -0.002199 0.000000
# 3 -0.003463 -0.010741 0.015666 0.000000 0.002202 0.000000
# 4 0.000000 0.000000 0.000000 0.013578 0.000000 0.001619
# 5 -0.000925 -0.002199 0.002202 0.000000 0.008942 0.000000
# 6 0.000000 0.000000 0.000000 0.001619 0.000000 0.016231
#
#
# Mechanical properties :
#
#
# Convention : Reuss Voigt Hill
#
# Bulk Modulus (GPa) = 96.13648 107.83157 101.98402
# Shear Modulus (GPa) = 48.82527 76.24325 62.53426
#
# Velocity S-wave (km/s) = 4.24959 5.31037 4.80932
# Velocity P-wave (km/s) = 7.72247 8.80248 8.28011
#
# Compressibility (1/GPa) = 0.01040188
#
# Stress axis : x y z
#
# Youngs Moduli (GPa) = 244.35516 64.36654 63.83224
#
# Poissons Ratio (x) = -0.11314 0.22104
# Poissons Ratio (y) = -0.42951 0.68563
# Poissons Ratio (z) = 0.84617 0.69137
#
# Static dielectric constant tensor:
#      x y z
#    x 2.325270 0.000000 -0.028950 
#    y 0.000000 1.986880 0.000000 
#    z -0.028950 0.000000 1.849580 
# 
# From -- ./inp_files/137689.got.cif
#   From: 2010.05.17/outbox.cif.g08.bks.cpg/sg15_69_cif.got.tgz:137689.got - 2010.06.03 18:47:42.
