data_PCOD9290386
_publ_section_title
;
Structure prediction by ZEFSAII (Michael W. Deem and Ramdas Pophale) SiO2 
 PCOD9290386
Probable space group: C 2/C
;
_chemical_formula_sum "Si O2"
_cell_formula_units_Z 32
_cell_length_a 14.783059
_cell_length_b 10.962751
_cell_length_c 10.674174
_cell_angle_alpha 90.000000
_cell_angle_beta 46.635893
_cell_angle_gamma 90.000000
_cell_volume 1257.637588
_symmetry_space_group_name_H-M "C 2/C"
_symmetry_group_IT_number 15
_symmetry_cell_setting 'monoclinic'
loop_
_space_group_symop_operation_xyz
x,y,z
-x,y,1/2-z
-x,-y,-z
x,-y,1/2+z
1/2+x,1/2+y,z
1/2-x,1/2+y,1/2-z
1/2-x,1/2-y,-z
1/2+x,1/2-y,1/2+z
loop_
_atom_site_type_symbol
_atom_site_label
_atom_site_fract_x
_atom_site_fract_y
_atom_site_fract_z
Si Si1 0.185763 0.647521 0.977846
Si Si2 0.667013 0.112243 0.565654
Si Si3 0.596027 0.513093 0.256797
Si Si4 0.015260 0.739892 0.929948
O O1 0.301663 0.582961 0.790944
O O2 0.074042 0.700257 0.003896
O O3 0.250000 0.750000 0.000000
O O4 0.135587 0.530896 0.100033
O O5 0.815012 0.100930 0.414338
O O6 0.606444 0.176504 0.740859
O O7 0.614056 0.177856 0.490073
O O8 0.500000 0.455309 0.250000
O O9 0.529377 0.613551 0.406667
#
# Coordination Sequence:
#
# PCOD9290386 Si02
#       4
#     8   8   8   8
#     4  10  25  42  60  99 130 163 213 267 318 371
#     4   9  22  40  66  90 127 170 216 253 319 378
#     4  10  22  41  65  95 125 169 210 265 316 379
#     4  11  20  42  69  91 122 174 218 255 315 384
#
# _framework density 25.444533
#
# number of rings (size 3 to 8) (size 9 to 14) (size 15 to 20)
#    1.500    0.500    2.500    1.500    3.500    0.000 
#    9.000    2.500    0.000    0.000    0.000    0.000 
#    0.000    0.000    0.000    0.000    0.000    0.000 
#
# Total GULP energy -89260.996428 kJ/mol
# GULP energy per Si atom -5578.812277 kJ/mol
# Density = 2.538662 g / cm^3
# Si number density = 25.444533 Si / 1000 Ang^3
#
#
#
# Elastic Constant Matrix: (Units=GPa)
#
#
# Indices 1 2 3 4 5 6 
#
# 1 92.3685 33.2823 -12.7323 0.0000 -1.5334 0.0000
# 2 33.2823 185.0268 9.5397 0.0000 19.6919 0.0000
# 3 -12.7323 9.5397 32.4039 0.0000 -17.3405 0.0000
# 4 0.0000 0.0000 0.0000 21.9553 0.0000 -5.0866
# 5 -1.5334 19.6919 -17.3405 0.0000 38.3151 0.0000
# 6 0.0000 0.0000 0.0000 -5.0866 0.0000 20.4526
#
#
#
# Elastic Compliance Matrix: (Units=1/GPa)
#
#
# Indices 1 2 3 4 5 6 
#
# 1 0.013725 -0.003764 0.010333 0.000000 0.007160 0.000000
# 2 -0.003764 0.007242 -0.007499 0.000000 -0.007266 0.000000
# 3 0.010333 -0.007499 0.052008 0.000000 0.027805 0.000000
# 4 0.000000 0.000000 0.000000 0.048332 0.000000 0.012020
# 5 0.007160 -0.007266 0.027805 0.000000 0.042704 0.000000
# 6 0.000000 0.000000 0.000000 0.012020 0.000000 0.051883
#
#
# Mechanical properties :
#
#
# Convention : Reuss Voigt Hill
#
# Bulk Modulus (GPa) = 14.06192 41.10875 27.58533
# Shear Modulus (GPa) = 20.70743 34.79191 27.74967
#
# Velocity S-wave (km/s) = 2.85586 3.70180 3.30600
# Velocity P-wave (km/s) = 4.05130 5.87047 5.04358
#
# Compressibility (1/GPa) = 0.07111404
#
# Stress axis : x y z
#
# Youngs Moduli (GPa) = 72.85741 138.09081 19.22793
#
# Poissons Ratio (x) = 0.51972 -0.19867
# Poissons Ratio (y) = 0.27421 0.14420
# Poissons Ratio (z) = -0.75280 1.03558
#
# Static dielectric constant tensor:
#      x y z
#    x 1.965370 0.000000 -0.030620 
#    y 0.000000 2.058530 0.000000 
#    z -0.030620 0.000000 2.123020 
# 
# From -- ./inp_files/93966.got.cif
#   From: 2010.05.17/outbox.cif.g08.bks.cpg/sg15_47_cif.got.tgz:93966.got - 2010.06.03 18:47:42.
