data_PCOD9290651
_publ_section_title
;
Structure prediction by ZEFSAII (Michael W. Deem and Ramdas Pophale) SiO2 
 PCOD9290651
Probable space group: C 2/C
;
_chemical_formula_sum "Si O2"
_cell_formula_units_Z 44
_cell_length_a 24.151783
_cell_length_b 8.545587
_cell_length_c 14.473678
_cell_angle_alpha 90.000000
_cell_angle_beta 144.985643
_cell_angle_gamma 90.000000
_cell_volume 1714.023142
_symmetry_space_group_name_H-M "C 2/C"
_symmetry_group_IT_number 15
_symmetry_cell_setting 'monoclinic'
loop_
_space_group_symop_operation_xyz
x,y,z
-x,y,1/2-z
-x,-y,-z
x,-y,1/2+z
1/2+x,1/2+y,z
1/2-x,1/2+y,1/2-z
1/2-x,1/2-y,-z
1/2+x,1/2-y,1/2+z
loop_
_atom_site_type_symbol
_atom_site_label
_atom_site_fract_x
_atom_site_fract_y
_atom_site_fract_z
Si Si1 0.762845 0.275048 0.154795
Si Si2 0.474904 0.050499 0.568862
Si Si3 0.817410 0.515643 0.578539
Si Si4 0.825097 0.307802 0.435917
Si Si5 0.536903 0.386458 0.630365
Si Si6 0.000000 0.095710 0.750000
O O1 0.771316 0.444052 0.115374
O O2 0.755990 0.265954 0.255853
O O3 0.865678 0.193175 0.273030
O O4 0.691665 0.173099 0.995178
O O5 0.568634 0.991498 0.753196
O O6 0.470289 0.237821 0.564388
O O7 0.500000 0.000000 0.500000
O O8 0.381955 0.957665 0.472690
O O9 0.774963 0.375043 0.459564
O O10 0.911626 0.190598 0.581661
O O11 0.500000 0.500000 0.500000
O O12 0.546870 0.489192 0.734965
#
# Coordination Sequence:
#
# PCOD9290651 Si02
#       6
#     8   8   8   8   8   4
#     4  10  23  45  62  97 140 173 215 285 346 394
#     4  11  20  40  72  95 124 180 230 274 331 411
#     4  10  22  41  68  91 133 176 219 278 334 398
#     4  12  22  43  71  97 127 182 239 271 330 425
#     4  11  23  40  63  98 138 171 216 289 344 390
#     4  12  24  38  68 102 132 170 238 288 326 400
#
# _framework density 25.670597999999998
#
# number of rings (size 3 to 8) (size 9 to 14) (size 15 to 20)
#    0.000    1.091    7.273    0.000    5.091    0.000 
#   13.091    0.909    0.000    0.000    0.000    0.000 
#    0.000    0.000    0.000    0.000    0.000    0.000 
#
# Total GULP energy -123191.846262 kJ/mol
# GULP energy per Si atom -5599.629376 kJ/mol
# Density = 2.561217 g / cm^3
# Si number density = 25.670598 Si / 1000 Ang^3
#
#
#
# Elastic Constant Matrix: (Units=GPa)
#
#
# Indices 1 2 3 4 5 6 
#
# 1 72.2898 26.4187 30.2806 0.0000 -31.4157 0.0000
# 2 26.4187 82.5036 19.1028 0.0000 -22.8765 0.0000
# 3 30.2806 19.1028 136.7993 0.0000 -37.3738 0.0000
# 4 0.0000 0.0000 0.0000 50.3798 0.0000 -14.1746
# 5 -31.4157 -22.8765 -37.3738 0.0000 53.0260 0.0000
# 6 0.0000 0.0000 0.0000 -14.1746 0.0000 37.9123
#
#
#
# Elastic Compliance Matrix: (Units=1/GPa)
#
#
# Indices 1 2 3 4 5 6 
#
# 1 0.019657 -0.003426 -0.001356 0.000000 0.009212 0.000000
# 2 -0.003426 0.014380 -0.000135 0.000000 0.004079 0.000000
# 3 -0.001356 -0.000135 0.009157 0.000000 0.005592 0.000000
# 4 0.000000 0.000000 0.000000 0.022183 0.000000 0.008294
# 5 0.009212 0.004079 0.005592 0.000000 0.030017 0.000000
# 6 0.000000 0.000000 0.000000 0.008294 0.000000 0.029478
#
#
# Mechanical properties :
#
#
# Convention : Reuss Voigt Hill
#
# Bulk Modulus (GPa) = 29.97712 49.24410 39.61061
# Shear Modulus (GPa) = 34.28760 42.64964 38.46862
#
# Velocity S-wave (km/s) = 3.65866 4.08047 3.87531
# Velocity P-wave (km/s) = 5.43605 6.43623 5.95717
#
# Compressibility (1/GPa) = 0.03335877
#
# Stress axis : x y z
#
# Youngs Moduli (GPa) = 50.87354 69.54094 109.20850
#
# Poissons Ratio (x) = 0.23825 0.14807
# Poissons Ratio (y) = 0.17430 0.01479
# Poissons Ratio (z) = 0.06898 0.00942
#
# Static dielectric constant tensor:
#      x y z
#    x 2.100060 0.000000 -0.041010 
#    y 0.000000 2.089260 0.000000 
#    z -0.041010 0.000000 2.004850 
# 
# From -- ./inp_files/176739.got.cif
#   From: 2010.05.17/outbox.cif.g08.bks.cpg/sg15_89_cif.got.tgz:176739.got - 2010.06.03 18:47:42.
