data_PCOD9290434
_publ_section_title
;
Structure prediction by ZEFSAII (Michael W. Deem and Ramdas Pophale) SiO2 
 PCOD9290434
Probable space group: C 2/C
;
_chemical_formula_sum "Si O2"
_cell_formula_units_Z 44
_cell_length_a 10.460407
_cell_length_b 11.711775
_cell_length_c 21.389065
_cell_angle_alpha 90.000000
_cell_angle_beta 45.849990
_cell_angle_gamma 90.000000
_cell_volume 1880.166323
_symmetry_space_group_name_H-M "C 2/C"
_symmetry_group_IT_number 15
_symmetry_cell_setting 'monoclinic'
loop_
_space_group_symop_operation_xyz
x,y,z
-x,y,1/2-z
-x,-y,-z
x,-y,1/2+z
1/2+x,1/2+y,z
1/2-x,1/2+y,1/2-z
1/2-x,1/2-y,-z
1/2+x,1/2-y,1/2+z
loop_
_atom_site_type_symbol
_atom_site_label
_atom_site_fract_x
_atom_site_fract_y
_atom_site_fract_z
Si Si1 0.493786 0.668859 0.879143
Si Si2 0.864111 0.939678 0.633050
Si Si3 0.103353 0.156231 0.159737
Si Si4 0.000000 0.311955 0.750000
Si Si5 0.534584 0.261107 0.498789
Si Si6 0.681807 0.058946 0.917452
O O1 0.635475 0.573373 0.851712
O O2 0.525606 0.733793 0.803207
O O3 0.481819 0.748676 0.943536
O O4 0.313584 0.597583 0.927914
O O5 0.671043 0.891491 0.683768
O O6 0.952101 0.882234 0.663823
O O7 0.994248 0.888168 0.535341
O O8 0.260240 0.223006 0.070579
O O9 0.000000 0.219707 0.250000
O O10 0.201205 0.041100 0.154238
O O11 0.399281 0.176532 0.582596
O O12 0.500000 0.000000 0.000000
#
# Coordination Sequence:
#
# PCOD9290434 Si02
#       6
#     8   8   8   4   8   8
#     4  11  24  44  68  97 139 181 226 291 348 414
#     4  11  25  42  68 100 136 183 232 287 344 424
#     4  10  22  41  66 100 138 180 233 285 349 418
#     4  12  26  48  68 104 146 182 234 288 356 410
#     4  11  21  43  68  99 136 180 229 290 350 406
#     4   9  20  36  66  97 124 177 226 269 340 417
#
# _framework density 23.402184999999999
#
# number of rings (size 3 to 8) (size 9 to 14) (size 15 to 20)
#    0.000    1.455    1.818    2.727    5.091    0.000 
#    4.909    0.000    0.000    0.000    0.000    0.000 
#    0.000    0.000    0.000    0.000    0.000    0.000 
#
# Total GULP energy -122725.152236 kJ/mol
# GULP energy per Si atom -5578.416011 kJ/mol
# Density = 2.334892 g / cm^3
# Si number density = 23.402185 Si / 1000 Ang^3
#
#
#
# Elastic Constant Matrix: (Units=GPa)
#
#
# Indices 1 2 3 4 5 6 
#
# 1 38.0284 18.4442 33.3938 0.0000 -1.9304 0.0000
# 2 18.4442 110.6411 31.8063 0.0000 -8.8931 0.0000
# 3 33.3938 31.8063 89.0934 0.0000 1.5740 0.0000
# 4 0.0000 0.0000 0.0000 7.1114 0.0000 1.1249
# 5 -1.9304 -8.8931 1.5740 0.0000 43.0715 0.0000
# 6 0.0000 0.0000 0.0000 1.1249 0.0000 42.4405
#
#
#
# Elastic Compliance Matrix: (Units=1/GPa)
#
#
# Indices 1 2 3 4 5 6 
#
# 1 0.040004 -0.002456 -0.014149 0.000000 0.001803 0.000000
# 2 -0.002456 0.010438 -0.002844 0.000000 0.002149 0.000000
# 3 -0.014149 -0.002844 0.017576 0.000000 -0.001864 0.000000
# 4 0.000000 0.000000 0.000000 0.141212 0.000000 -0.003743
# 5 0.001803 0.002149 -0.001864 0.000000 0.023810 0.000000
# 6 0.000000 0.000000 0.000000 -0.003743 0.000000 0.023662
#
#
# Mechanical properties :
#
#
# Convention : Reuss Voigt Hill
#
# Bulk Modulus (GPa) = 34.34168 45.00573 39.67370
# Shear Modulus (GPa) = 16.37706 28.79924 22.58815
#
# Velocity S-wave (km/s) = 2.64826 3.51183 3.11016
# Velocity P-wave (km/s) = 4.90484 5.97638 5.46693
#
# Compressibility (1/GPa) = 0.02911914
#
# Stress axis : x y z
#
# Youngs Moduli (GPa) = 24.99773 95.80466 56.89714
#
# Poissons Ratio (x) = 0.23533 0.80504
# Poissons Ratio (y) = 0.06140 0.16179
# Poissons Ratio (z) = 0.35369 0.27243
#
# Static dielectric constant tensor:
#      x y z
#    x 1.865840 0.000000 0.019690 
#    y 0.000000 1.994080 0.000000 
#    z 0.019690 0.000000 1.923930 
# 
# From -- ./inp_files/269143.got.cif
#   From: 2010.05.17/outbox.cif.g08.bks.cpg/sg15_135_cif.got.tgz:269143.got - 2010.06.03 18:47:42.
