data_PCOD9290130
_publ_section_title
;
Structure prediction by ZEFSAII (Michael W. Deem and Ramdas Pophale) SiO2 
 PCOD9290130
Probable space group: C 2/C
;
_chemical_formula_sum "Si O2"
_cell_formula_units_Z 48
_cell_length_a 26.617400
_cell_length_b 8.626836
_cell_length_c 17.547641
_cell_angle_alpha 90.000000
_cell_angle_beta 35.242504
_cell_angle_gamma 90.000000
_cell_volume 2325.094381
_symmetry_space_group_name_H-M "C 2/C"
_symmetry_group_IT_number 15
_symmetry_cell_setting 'monoclinic'
loop_
_space_group_symop_operation_xyz
x,y,z
-x,y,1/2-z
-x,-y,-z
x,-y,1/2+z
1/2+x,1/2+y,z
1/2-x,1/2+y,1/2-z
1/2-x,1/2-y,-z
1/2+x,1/2-y,1/2+z
loop_
_atom_site_type_symbol
_atom_site_label
_atom_site_fract_x
_atom_site_fract_y
_atom_site_fract_z
Si Si1 0.768614 0.442575 0.293010
Si Si2 0.898748 0.384671 0.884648
Si Si3 0.122032 0.688809 0.258280
Si Si4 0.361496 0.512965 0.178314
Si Si5 0.233383 0.326678 0.939490
Si Si6 0.428872 0.219782 0.511333
O O1 0.804660 0.569270 0.306694
O O2 0.714400 0.512681 0.291229
O O3 0.712935 0.310859 0.404974
O O4 0.854983 0.368210 0.149448
O O5 0.872555 0.293976 0.839980
O O6 0.000000 0.434232 0.750000
O O7 0.836485 0.534171 0.971501
O O8 0.897685 0.280316 0.962042
O O9 0.129569 0.841107 0.300567
O O10 0.022257 0.636358 0.396718
O O11 0.324815 0.606332 0.295889
O O12 0.435059 0.610986 0.042992
O O13 0.250000 0.250000 0.000000
#
# Coordination Sequence:
#
# PCOD9290130 Si02
#       6
#     8   8   8   8   8   8
#     4  11  22  39  63  91 125 170 209 259 310 369
#     4  10  22  41  66  92 127 171 210 261 323 384
#     4  11  22  40  65  92 126 168 205 260 321 374
#     4  11  24  39  62  96 125 164 213 265 312 370
#     4  11  22  41  60  92 124 161 219 260 309 376
#     4  10  22  41  62  92 129 164 211 254 314 384
#
# _framework density 20.644324000000001
#
# number of rings (size 3 to 8) (size 9 to 14) (size 15 to 20)
#    0.000    1.333    3.333    3.000    0.000    2.000 
#    0.000    1.667    0.000    0.000    0.000    0.000 
#    0.000    0.000    0.000    0.000    0.000    0.000 
#
# Total GULP energy -133909.330228 kJ/mol
# GULP energy per Si atom -5579.555426 kJ/mol
# Density = 2.059734 g / cm^3
# Si number density = 20.644324 Si / 1000 Ang^3
#
#
#
# Elastic Constant Matrix: (Units=GPa)
#
#
# Indices 1 2 3 4 5 6 
#
# 1 94.2553 27.2733 30.0068 0.0004 23.8193 -0.0003
# 2 27.2733 67.1950 27.1783 0.0008 13.1444 -0.0002
# 3 30.0068 27.1783 83.0462 0.0005 21.6373 -0.0004
# 4 0.0004 0.0008 0.0005 36.2917 -0.0004 4.8830
# 5 23.8193 13.1444 21.6373 -0.0004 33.6890 0.0001
# 6 -0.0003 -0.0002 -0.0004 4.8830 0.0001 37.8620
#
#
#
# Elastic Compliance Matrix: (Units=1/GPa)
#
#
# Indices 1 2 3 4 5 6 
#
# 1 0.014114 -0.003466 -0.002063 0.000000 -0.007302 0.000000
# 2 -0.003466 0.018398 -0.004248 0.000000 -0.002000 0.000000
# 3 -0.002063 -0.004248 0.016051 0.000000 -0.007193 0.000000
# 4 0.000000 0.000000 0.000000 0.028041 0.000001 -0.003616
# 5 -0.007302 -0.002000 -0.007193 0.000001 0.040246 0.000000
# 6 0.000000 0.000000 0.000000 -0.003616 0.000000 0.026878
#
#
# Mechanical properties :
#
#
# Convention : Reuss Voigt Hill
#
# Bulk Modulus (GPa) = 34.47071 45.93482 40.20276
# Shear Modulus (GPa) = 28.90961 32.23776 30.57368
#
# Velocity S-wave (km/s) = 3.74621 3.95597 3.85252
# Velocity P-wave (km/s) = 5.95363 6.57002 6.26941
#
# Compressibility (1/GPa) = 0.02901014
#
# Stress axis : x y z
#
# Youngs Moduli (GPa) = 70.84915 54.35355 62.30052
#
# Poissons Ratio (x) = 0.18839 0.12853
# Poissons Ratio (y) = 0.24556 0.26464
# Poissons Ratio (z) = 0.14617 0.23088
#
# Static dielectric constant tensor:
#      x y z
#    x 1.730270 0.000000 -0.004350 
#    y 0.000000 1.778380 0.000000 
#    z -0.004350 0.000000 1.767170 
# 
# From -- ./inp_files/176865.got.cif
#   From: 2010.05.17/outbox.cif.g08.bks.cpg/sg15_89_cif.got.tgz:176865.got - 2010.06.03 18:47:42.
