data_PCOD9290541
_publ_section_title
;
Structure prediction by ZEFSAII (Michael W. Deem and Ramdas Pophale) SiO2 
 PCOD9290541
Probable space group: C 2/C
;
_chemical_formula_sum "Si O2"
_cell_formula_units_Z 56
_cell_length_a 11.780117
_cell_length_b 11.726220
_cell_length_c 19.134675
_cell_angle_alpha 90.000000
_cell_angle_beta 118.521000
_cell_angle_gamma 90.000000
_cell_volume 2322.420055
_symmetry_space_group_name_H-M "C 2/C"
_symmetry_group_IT_number 15
_symmetry_cell_setting 'monoclinic'
loop_
_space_group_symop_operation_xyz
x,y,z
-x,y,1/2-z
-x,-y,-z
x,-y,1/2+z
1/2+x,1/2+y,z
1/2-x,1/2+y,1/2-z
1/2-x,1/2-y,-z
1/2+x,1/2-y,1/2+z
loop_
_atom_site_type_symbol
_atom_site_label
_atom_site_fract_x
_atom_site_fract_y
_atom_site_fract_z
Si Si1 0.724162 0.853846 0.832934
Si Si2 0.183857 0.598949 0.160768
Si Si3 0.090985 0.054263 0.608593
Si Si4 0.150373 0.069664 0.468114
Si Si5 0.414723 0.003233 0.594433
Si Si6 0.349707 0.384630 0.221808
Si Si7 0.391567 0.752147 0.160161
O O1 0.669137 0.884042 0.740145
O O2 0.731396 0.718493 0.833986
O O3 0.855728 0.924175 0.877460
O O4 0.637952 0.904195 0.869610
O O5 0.292958 0.503456 0.179760
O O6 0.252475 0.711161 0.150117
O O7 0.046043 0.545030 0.099987
O O8 0.124957 0.099226 0.542177
O O9 0.154887 0.107780 0.695400
O O10 0.938279 0.040526 0.573191
O O11 0.300661 0.037171 0.507455
O O12 0.106849 0.173971 0.408023
O O13 0.422100 0.117940 0.645101
O O14 0.500000 0.367870 0.250000
O O15 0.500000 0.722283 0.250000
#
# Coordination Sequence:
#
# PCOD9290541 Si02
#       7
#     8   8   8   8   8   8   8
#     4  10  22  41  67 102 138 180 235 296 358 435
#     4  11  24  38  67 105 135 183 239 298 363 432
#     4   9  21  41  72  97 145 194 232 287 377 442
#     4  10  22  44  67 101 144 192 235 296 372 448
#     4  11  25  45  68 105 148 187 238 305 382 446
#     4  11  22  40  68 107 139 179 244 299 349 437
#     4  12  25  43  74 104 141 190 252 311 364 447
#
# _framework density 24.112780000000001
#
# number of rings (size 3 to 8) (size 9 to 14) (size 15 to 20)
#    0.000    1.429    0.000    5.571   10.000    0.571 
#    0.000    0.000    3.143    5.143    0.000    0.000 
#    0.000    0.000    0.000    0.000    0.000    0.000 
#
# Total GULP energy -156497.861256 kJ/mol
# GULP energy per Si atom -5589.209331 kJ/mol
# Density = 2.405790 g / cm^3
# Si number density = 24.112780 Si / 1000 Ang^3
#
#
#
# Elastic Constant Matrix: (Units=GPa)
#
#
# Indices 1 2 3 4 5 6 
#
# 1 114.4150 28.7628 17.8352 0.0000 11.0289 0.0000
# 2 28.7628 114.2945 27.1955 0.0000 -4.3213 0.0000
# 3 17.8352 27.1955 78.5776 0.0000 2.4421 0.0000
# 4 0.0000 0.0000 0.0000 2.0967 0.0000 -37.7129
# 5 11.0289 -4.3213 2.4421 0.0000 39.6942 0.0000
# 6 0.0000 0.0000 0.0000 -37.7129 0.0000 -14.5838
#
#
#
# Elastic Compliance Matrix: (Units=1/GPa)
#
#
# Indices 1 2 3 4 5 6 
#
# 1 0.009795 -0.002252 -0.001354 0.000000 -0.002883 0.000000
# 2 -0.002252 0.010114 -0.003049 0.000000 0.001914 0.000000
# 3 -0.001354 -0.003049 0.014114 0.000000 -0.000824 0.000000
# 4 0.000000 0.000000 0.000000 0.010038 0.000000 -0.025958
# 5 -0.002883 0.001914 -0.000824 0.000000 0.026253 0.000000
# 6 0.000000 0.000000 0.000000 -0.025958 0.000000 -0.001443
#
#
# Mechanical properties :
#
#
# Convention : Reuss Voigt Hill
#
# Bulk Modulus (GPa) = 48.27711 50.54158 49.40934
# Shear Modulus (GPa) = 56.12578 21.00766 38.56672
#
# Velocity S-wave (km/s) = 4.82979 2.95485 4.00363
# Velocity P-wave (km/s) = 7.15314 5.71380 6.47360
#
# Compressibility (1/GPa) = 0.02071375
#
# Stress axis : x y z
#
# Youngs Moduli (GPa) = 102.09030 98.87475 70.84935
#
# Poissons Ratio (x) = 0.22264 0.09595
# Poissons Ratio (y) = 0.22989 0.21600
# Poissons Ratio (z) = 0.13826 0.30145
#
# Static dielectric constant tensor:
#      x y z
#    x 2.009550 0.000000 -0.014560 
#    y 0.000000 1.915640 0.000000 
#    z -0.014560 0.000000 1.926490 
# 
# From -- ./inp_files/237655.got.cif
#   From: 2010.05.17/outbox.cif.g08.bks.cpg/sg15_119_cif.got.tgz:237655.got - 2010.06.03 18:47:42.
