data_PCOD9290635
_publ_section_title
;
Structure prediction by ZEFSAII (Michael W. Deem and Ramdas Pophale) SiO2 
 PCOD9290635
Probable space group: C 2/C
;
_chemical_formula_sum "Si O2"
_cell_formula_units_Z 56
_cell_length_a 15.857448
_cell_length_b 18.513944
_cell_length_c 19.462215
_cell_angle_alpha 90.000000
_cell_angle_beta 28.208100
_cell_angle_gamma 90.000000
_cell_volume 2700.769145
_symmetry_space_group_name_H-M "C 2/C"
_symmetry_group_IT_number 15
_symmetry_cell_setting 'monoclinic'
loop_
_space_group_symop_operation_xyz
x,y,z
-x,y,1/2-z
-x,-y,-z
x,-y,1/2+z
1/2+x,1/2+y,z
1/2-x,1/2+y,1/2-z
1/2-x,1/2-y,-z
1/2+x,1/2-y,1/2+z
loop_
_atom_site_type_symbol
_atom_site_label
_atom_site_fract_x
_atom_site_fract_y
_atom_site_fract_z
Si Si1 0.946738 0.304397 0.509394
Si Si2 0.652688 0.115436 0.750032
Si Si3 0.500000 0.737694 0.750000
Si Si4 0.965849 0.916216 0.536815
Si Si5 0.961534 0.179413 0.160474
Si Si6 0.114602 0.327785 0.533323
Si Si7 0.918789 0.448373 0.732939
Si Si8 0.500000 0.770381 0.250000
O O1 0.736172 0.314713 0.667098
O O2 0.032350 0.367337 0.401975
O O3 0.009836 0.234346 0.422626
O O4 0.020137 0.300630 0.532863
O O5 0.608710 0.173100 0.720612
O O6 0.861396 0.122392 0.619699
O O7 0.615343 0.033456 0.753649
O O8 0.677580 0.689346 0.624716
O O9 0.534137 0.786979 0.657970
O O10 0.979321 0.896417 0.608481
O O11 0.767882 0.905645 0.648345
O O12 0.000000 0.000000 0.500000
O O13 0.080267 0.212969 0.136522
O O14 0.062987 0.411640 0.579423
O O15 0.000000 0.439135 0.750000
#
# Coordination Sequence:
#
# PCOD9290635 Si02
#       8
#     8   8   4   8   8   8   8   4
#     4  11  23  38  66  94 131 171 212 281 329 406
#     4  10  23  42  66  97 134 178 222 275 341 405
#     4  10  24  39  64  93 130 162 222 294 328 392
#     4  10  23  43  65  93 133 181 224 271 335 404
#     4  11  22  40  65  99 132 173 222 271 340 400
#     4  11  22  41  63  93 126 174 220 275 341 395
#     4  11  22  42  70  92 131 180 228 272 339 408
#     4  10  22  41  68 103 134 172 222 282 334 394
#
# _framework density 20.734833999999999
#
# number of rings (size 3 to 8) (size 9 to 14) (size 15 to 20)
#    0.000    1.429    2.857    2.571    0.000    6.857 
#    0.000    0.000    0.000    0.000    0.000    0.000 
#    0.000    0.000    0.000    0.000    0.000    0.000 
#
# Total GULP energy -156099.464458 kJ/mol
# GULP energy per Si atom -5574.980874 kJ/mol
# Density = 2.068764 g / cm^3
# Si number density = 20.734834 Si / 1000 Ang^3
#
#
#
# Elastic Constant Matrix: (Units=GPa)
#
#
# Indices 1 2 3 4 5 6 
#
# 1 117.8623 38.3264 49.5516 -0.0106 16.2396 0.0062
# 2 38.3264 92.9089 39.3183 0.0103 6.6467 -0.0051
# 3 49.5516 39.3183 154.0569 0.0081 -4.8621 -0.0014
# 4 -0.0106 0.0103 0.0081 36.3474 0.0045 10.1961
# 5 16.2396 6.6467 -4.8621 0.0045 38.1830 -0.0042
# 6 0.0062 -0.0051 -0.0014 10.1961 -0.0042 25.4784
#
#
#
# Elastic Compliance Matrix: (Units=1/GPa)
#
#
# Indices 1 2 3 4 5 6 
#
# 1 0.011410 -0.003088 -0.003030 0.000008 -0.004701 -0.000007
# 2 -0.003088 0.013145 -0.002402 -0.000005 -0.001281 0.000005
# 3 -0.003030 -0.002402 0.008166 -0.000003 0.002747 0.000002
# 4 0.000008 -0.000005 -0.000003 0.030991 -0.000008 -0.012402
# 5 -0.004701 -0.001281 0.002747 -0.000008 0.028762 0.000009
# 6 -0.000007 0.000005 0.000002 -0.012402 0.000009 0.044212
#
#
# Mechanical properties :
#
#
# Convention : Reuss Voigt Hill
#
# Bulk Modulus (GPa) = 63.77507 68.80231 66.28869
# Shear Modulus (GPa) = 31.45547 35.84385 33.64966
#
# Velocity S-wave (km/s) = 3.89914 4.16225 4.03284
# Velocity P-wave (km/s) = 7.14810 7.50687 7.32968
#
# Compressibility (1/GPa) = 0.01568011
#
# Stress axis : x y z
#
# Youngs Moduli (GPa) = 87.63858 76.07253 122.46603
#
# Poissons Ratio (x) = 0.23493 0.37111
# Poissons Ratio (y) = 0.27065 0.29417
# Poissons Ratio (z) = 0.26557 0.18273
#
# Static dielectric constant tensor:
#      x y z
#    x 1.794010 0.000000 -0.035820 
#    y 0.000000 1.803910 0.000000 
#    z -0.035820 0.000000 1.776030 
# 
# From -- ./inp_files/206957.got.cif
#   From: 2010.05.17/outbox.cif.g08.bks.cpg/sg15_104_cif.got.tgz:206957.got - 2010.06.03 18:47:42.
