data_PCOD9290162
_publ_section_title
;
Structure prediction by ZEFSAII (Michael W. Deem and Ramdas Pophale) SiO2 
 PCOD9290162
Probable space group: C 2/C
;
_chemical_formula_sum "Si O2"
_cell_formula_units_Z 44
_cell_length_a 5.193577
_cell_length_b 15.531949
_cell_length_c 26.173623
_cell_angle_alpha 90.000000
_cell_angle_beta 110.243023
_cell_angle_gamma 90.000000
_cell_volume 1980.921647
_symmetry_space_group_name_H-M "C 2/C"
_symmetry_group_IT_number 15
_symmetry_cell_setting 'monoclinic'
loop_
_space_group_symop_operation_xyz
x,y,z
-x,y,1/2-z
-x,-y,-z
x,-y,1/2+z
1/2+x,1/2+y,z
1/2-x,1/2+y,1/2-z
1/2-x,1/2-y,-z
1/2+x,1/2-y,1/2+z
loop_
_atom_site_type_symbol
_atom_site_label
_atom_site_fract_x
_atom_site_fract_y
_atom_site_fract_z
Si Si1 0.500000 0.878699 0.250000
Si Si2 0.075992 0.293012 0.146955
Si Si3 0.194128 0.901843 0.064367
Si Si4 0.480962 0.559480 0.836018
Si Si5 0.713875 0.916810 0.961307
Si Si6 0.610930 0.387204 0.891721
O O1 0.503199 0.821325 0.199622
O O2 0.767594 0.937394 0.275138
O O3 0.338226 0.353833 0.154337
O O4 0.876471 0.318339 0.085604
O O5 0.053997 0.190656 0.145526
O O6 0.183181 0.934652 0.121861
O O7 0.325863 0.978906 0.040155
O O8 0.888705 0.887906 0.022350
O O9 0.633352 0.469323 0.855020
O O10 0.425818 0.871648 0.930618
O O11 0.930051 0.904455 0.929876
#
# Coordination Sequence:
#
# PCOD9290162 Si02
#       6
#     4   8   8   8   8   8
#     4  10  24  46  64  90 122 166 224 270 346 386
#     4  11  23  43  66  93 129 173 218 285 328 403
#     4   9  21  38  68  90 138 176 218 259 333 390
#     4  10  22  45  65  92 128 175 216 278 333 399
#     4  10  22  41  63 102 134 180 214 265 323 404
#     4  11  25  41  68  99 136 166 225 267 332 398
#
# _framework density 22.211883
#
# number of rings (size 3 to 8) (size 9 to 14) (size 15 to 20)
#    0.000    1.818    1.818    0.545    7.636    3.636 
#    6.545    0.000    0.000    0.000    0.000    0.000 
#    0.000    0.000    0.000    0.000    0.000    0.000 
#
# Total GULP energy -122581.181770 kJ/mol
# GULP energy per Si atom -5571.871899 kJ/mol
# Density = 2.216133 g / cm^3
# Si number density = 22.211883 Si / 1000 Ang^3
#
#
#
# Elastic Constant Matrix: (Units=GPa)
#
#
# Indices 1 2 3 4 5 6 
#
# 1 73.8151 24.9414 19.7032 0.0000 17.1387 0.0000
# 2 24.9414 44.7130 49.5902 0.0000 24.7329 0.0000
# 3 19.7032 49.5902 112.7653 0.0000 26.8460 0.0000
# 4 0.0000 0.0000 0.0000 20.5780 0.0000 -0.7885
# 5 17.1387 24.7329 26.8460 0.0000 42.2883 0.0000
# 6 0.0000 0.0000 0.0000 -0.7885 0.0000 14.6606
#
#
#
# Elastic Compliance Matrix: (Units=1/GPa)
#
#
# Indices 1 2 3 4 5 6 
#
# 1 0.017113 -0.011060 0.002338 0.000000 -0.001952 0.000000
# 2 -0.011060 0.061942 -0.020910 0.000000 -0.018471 0.000000
# 3 0.002338 -0.020910 0.017634 0.000000 0.000087 0.000000
# 4 0.000000 0.000000 0.000000 0.048696 0.000000 0.002619
# 5 -0.001952 -0.018471 0.000087 0.000000 0.035186 0.000000
# 6 0.000000 0.000000 0.000000 0.002619 0.000000 0.068351
#
#
# Mechanical properties :
#
#
# Convention : Reuss Voigt Hill
#
# Bulk Modulus (GPa) = 26.71906 46.64033 36.67969
# Shear Modulus (GPa) = 15.59275 24.64262 20.11769
#
# Velocity S-wave (km/s) = 2.65240 3.33443 3.01278
# Velocity P-wave (km/s) = 4.62986 5.98900 5.35274
#
# Compressibility (1/GPa) = 0.03742647
#
# Stress axis : x y z
#
# Youngs Moduli (GPa) = 58.43399 16.14402 56.70773
#
# Poissons Ratio (x) = 0.17855 -0.13259
# Poissons Ratio (y) = 0.64625 1.18578
# Poissons Ratio (z) = -0.13662 0.33758
#
# Static dielectric constant tensor:
#      x y z
#    x 1.919640 0.000000 0.019380 
#    y 0.000000 1.963650 0.000000 
#    z 0.019380 0.000000 1.827620 
# 
# From -- ./inp_files/260334.got.cif
#   From: 2010.05.17/outbox.cif.g08.bks.cpg/sg15_131_cif.got.tgz:260334.got - 2010.06.03 18:47:42.
