data_PCOD9290252
_publ_section_title
;
Structure prediction by ZEFSAII (Michael W. Deem and Ramdas Pophale) SiO2 
 PCOD9290252
Probable space group: C 2/C
;
_chemical_formula_sum "Si O2"
_cell_formula_units_Z 44
_cell_length_a 13.108139
_cell_length_b 5.098323
_cell_length_c 29.556635
_cell_angle_alpha 90.000000
_cell_angle_beta 108.290200
_cell_angle_gamma 90.000000
_cell_volume 1875.464354
_symmetry_space_group_name_H-M "C 2/C"
_symmetry_group_IT_number 15
_symmetry_cell_setting 'monoclinic'
loop_
_space_group_symop_operation_xyz
x,y,z
-x,y,1/2-z
-x,-y,-z
x,-y,1/2+z
1/2+x,1/2+y,z
1/2-x,1/2+y,1/2-z
1/2-x,1/2-y,-z
1/2+x,1/2-y,1/2+z
loop_
_atom_site_type_symbol
_atom_site_label
_atom_site_fract_x
_atom_site_fract_y
_atom_site_fract_z
Si Si1 0.652822 0.112904 0.393979
Si Si2 0.689612 0.245141 0.222457
Si Si3 0.181942 0.113546 0.339903
Si Si4 0.870972 0.740775 0.955750
Si Si5 0.500000 0.460104 0.250000
Si Si6 0.474912 0.263738 0.435731
O O1 0.678446 0.318419 0.357654
O O2 0.748465 0.170921 0.442713
O O3 0.539783 0.179387 0.400751
O O4 0.660636 0.820786 0.376254
O O5 0.754312 0.511818 0.241909
O O6 0.710150 0.176837 0.173008
O O7 0.570424 0.290585 0.224571
O O8 0.084725 0.129204 0.290273
O O9 0.886728 0.450054 0.938439
O O10 0.924919 0.947963 0.928601
O O11 0.937784 0.760320 0.011198
#
# Coordination Sequence:
#
# PCOD9290252 Si02
#       6
#     8   8   8   8   4   8
#     4  12  24  41  62  95 129 160 202 258 309 358
#     4  10  22  42  64  88 115 154 207 253 305 368
#     4  11  25  40  64  93 122 162 209 254 311 365
#     4  10  22  41  64  92 128 163 207 252 294 365
#     4  10  24  46  66  84 122 168 204 256 310 366
#     4  10  22  41  66  93 123 169 205 240 309 369
#
# _framework density 23.460857000000001
#
# number of rings (size 3 to 8) (size 9 to 14) (size 15 to 20)
#    0.000    1.455    0.000    4.909    0.000   10.909 
#    0.000   12.727    0.000    0.000    0.000    0.000 
#    0.000    0.000    0.000    0.000    0.000    0.000 
#
# Total GULP energy -123183.255583 kJ/mol
# GULP energy per Si atom -5599.238890 kJ/mol
# Density = 2.340746 g / cm^3
# Si number density = 23.460857 Si / 1000 Ang^3
#
#
#
# Elastic Constant Matrix: (Units=GPa)
#
#
# Indices 1 2 3 4 5 6 
#
# 1 115.9043 17.2262 8.3984 0.0000 -15.7857 0.0000
# 2 17.2262 82.5928 4.0462 0.0000 2.0112 0.0000
# 3 8.3984 4.0462 39.7477 0.0000 0.9511 0.0000
# 4 0.0000 0.0000 0.0000 31.6774 0.0000 0.4902
# 5 -15.7857 2.0112 0.9511 0.0000 47.6374 0.0000
# 6 0.0000 0.0000 0.0000 0.4902 0.0000 28.6414
#
#
#
# Elastic Compliance Matrix: (Units=1/GPa)
#
#
# Indices 1 2 3 4 5 6 
#
# 1 0.009502 -0.001969 -0.001886 0.000000 0.003270 0.000000
# 2 -0.001969 0.012588 -0.000837 0.000000 -0.001167 0.000000
# 3 -0.001886 -0.000837 0.025669 0.000000 -0.001102 0.000000
# 4 0.000000 0.000000 0.000000 0.031577 0.000000 -0.000540
# 5 0.003270 -0.001167 -0.001102 0.000000 0.022147 0.000000
# 6 0.000000 0.000000 0.000000 -0.000540 0.000000 0.034924
#
#
# Mechanical properties :
#
#
# Convention : Reuss Voigt Hill
#
# Bulk Modulus (GPa) = 26.05887 33.06515 29.56201
# Shear Modulus (GPa) = 31.52949 35.49616 33.51282
#
# Velocity S-wave (km/s) = 3.66993 3.89394 3.78359
# Velocity P-wave (km/s) = 5.39345 5.86015 5.63164
#
# Compressibility (1/GPa) = 0.03837465
#
# Stress axis : x y z
#
# Youngs Moduli (GPa) = 105.23650 79.44239 38.95792
#
# Poissons Ratio (x) = 0.15643 0.07346
# Poissons Ratio (y) = 0.20723 0.03262
# Poissons Ratio (z) = 0.19843 0.06652
#
# Static dielectric constant tensor:
#      x y z
#    x 1.883150 0.000000 0.030550 
#    y 0.000000 1.806770 0.000000 
#    z 0.030550 0.000000 1.934180 
# 
# From -- ./inp_files/309447.got.cif
#   From: 2010.05.17/outbox.cif.g08.bks.cpg/sg15_155_cif.got.tgz:309447.got - 2010.06.03 18:47:42.
