data_PCOD9290484
_publ_section_title
;
Structure prediction by ZEFSAII (Michael W. Deem and Ramdas Pophale) SiO2 
 PCOD9290484
Probable space group: C 2/C
;
_chemical_formula_sum "Si O2"
_cell_formula_units_Z 48
_cell_length_a 26.337524
_cell_length_b 12.377422
_cell_length_c 15.380286
_cell_angle_alpha 90.000000
_cell_angle_beta 152.007969
_cell_angle_gamma 90.000000
_cell_volume 2353.234585
_symmetry_space_group_name_H-M "C 2/C"
_symmetry_group_IT_number 15
_symmetry_cell_setting 'monoclinic'
loop_
_space_group_symop_operation_xyz
x,y,z
-x,y,1/2-z
-x,-y,-z
x,-y,1/2+z
1/2+x,1/2+y,z
1/2-x,1/2+y,1/2-z
1/2-x,1/2-y,-z
1/2+x,1/2-y,1/2+z
loop_
_atom_site_type_symbol
_atom_site_label
_atom_site_fract_x
_atom_site_fract_y
_atom_site_fract_z
Si Si1 0.243063 0.257982 0.352309
Si Si2 0.006250 0.248902 0.938931
Si Si3 0.293988 0.570950 0.074097
Si Si4 0.182710 0.352568 0.935483
Si Si5 0.167648 0.834558 0.183157
Si Si6 0.022847 0.015603 0.887270
O O1 0.293130 0.348386 0.491193
O O2 0.244390 0.144083 0.403804
O O3 0.303968 0.256347 0.353225
O O4 0.118213 0.290298 0.147162
O O5 0.940161 0.327282 0.774882
O O6 0.923677 0.214978 0.891466
O O7 0.035138 0.140044 0.930350
O O8 0.415131 0.528355 0.271978
O O9 0.222298 0.464385 0.953013
O O10 0.250000 0.250000 0.000000
O O11 0.224568 0.357050 0.097724
O O12 0.120880 0.943377 0.069533
O O13 0.000000 0.005015 0.750000
#
# Coordination Sequence:
#
# PCOD9290484 Si02
#       6
#     8   8   8   8   8   8
#     4  11  25  39  70  96 137 176 223 263 341 394
#     4  11  24  42  67  97 134 172 220 281 326 389
#     4  11  22  45  63 101 134 174 213 283 327 397
#     4  10  22  41  66  94 135 165 216 276 330 380
#     4  11  22  40  64 100 127 173 224 271 321 392
#     4  12  22  39  72  98 126 173 230 271 325 395
#
# _framework density 20.397456999999999
#
# number of rings (size 3 to 8) (size 9 to 14) (size 15 to 20)
#    0.000    1.000    6.667    1.500    2.333    0.667 
#    6.000    0.000    3.667    0.000    0.000    0.000 
#    0.000    0.000    0.000    0.000    0.000    0.000 
#
# Total GULP energy -134132.041204 kJ/mol
# GULP energy per Si atom -5588.835050 kJ/mol
# Density = 2.035103 g / cm^3
# Si number density = 20.397457 Si / 1000 Ang^3
#
#
#
# Elastic Constant Matrix: (Units=GPa)
#
#
# Indices 1 2 3 4 5 6 
#
# 1 77.3825 7.4639 -2.1118 0.0000 -19.2823 0.0000
# 2 7.4639 77.0581 7.8673 0.0000 -1.1398 0.0000
# 3 -2.1118 7.8673 77.2394 0.0000 -4.0589 0.0000
# 4 0.0000 0.0000 0.0000 30.6453 0.0000 -2.2868
# 5 -19.2823 -1.1398 -4.0589 0.0000 28.6213 0.0000
# 6 0.0000 0.0000 0.0000 -2.2868 0.0000 21.7303
#
#
#
# Elastic Compliance Matrix: (Units=1/GPa)
#
#
# Indices 1 2 3 4 5 6 
#
# 1 0.015771 -0.001486 0.001146 0.000000 0.010728 0.000000
# 2 -0.001486 0.013257 -0.001426 0.000000 -0.000675 0.000000
# 3 0.001146 -0.001426 0.013260 0.000000 0.002596 0.000000
# 4 0.000000 0.000000 0.000000 0.032890 0.000000 0.003461
# 5 0.010728 -0.000675 0.002596 0.000000 0.042508 0.000000
# 6 0.000000 0.000000 0.000000 0.003461 0.000000 0.046383
#
#
# Mechanical properties :
#
#
# Convention : Reuss Voigt Hill
#
# Bulk Modulus (GPa) = 25.80296 28.67986 27.24141
# Shear Modulus (GPa) = 27.69804 30.76342 29.23073
#
# Velocity S-wave (km/s) = 3.68899 3.88777 3.78968
# Velocity P-wave (km/s) = 5.55179 5.85184 5.70379
#
# Compressibility (1/GPa) = 0.03875524
#
# Stress axis : x y z
#
# Youngs Moduli (GPa) = 63.40879 75.43309 75.41595
#
# Poissons Ratio (x) = 0.11209 -0.08645
# Poissons Ratio (y) = 0.09422 0.10757
# Poissons Ratio (z) = -0.07269 0.10760
#
# Static dielectric constant tensor:
#      x y z
#    x 1.762710 0.000000 -0.013740 
#    y 0.000000 1.699320 0.000000 
#    z -0.013740 0.000000 1.732260 
# 
# From -- ./inp_files/152433.got.cif
#   From: 2010.05.17/outbox.cif.g08.bks.cpg/sg15_77_cif.got.tgz:152433.got - 2010.06.03 18:47:42.
