data_PCOD9290428
_publ_section_title
;
Structure prediction by ZEFSAII (Michael W. Deem and Ramdas Pophale) SiO2 
 PCOD9290428
Probable space group: C 2/C
;
_chemical_formula_sum "Si O2"
_cell_formula_units_Z 48
_cell_length_a 16.644577
_cell_length_b 23.229543
_cell_length_c 10.422741
_cell_angle_alpha 90.000000
_cell_angle_beta 146.253474
_cell_angle_gamma 90.000000
_cell_volume 2238.695009
_symmetry_space_group_name_H-M "C 2/C"
_symmetry_group_IT_number 15
_symmetry_cell_setting 'monoclinic'
loop_
_space_group_symop_operation_xyz
x,y,z
-x,y,1/2-z
-x,-y,-z
x,-y,1/2+z
1/2+x,1/2+y,z
1/2-x,1/2+y,1/2-z
1/2-x,1/2-y,-z
1/2+x,1/2-y,1/2+z
loop_
_atom_site_type_symbol
_atom_site_label
_atom_site_fract_x
_atom_site_fract_y
_atom_site_fract_z
Si Si1 0.241201 0.146166 0.763631
Si Si2 0.662530 0.309994 0.909902
Si Si3 0.839018 0.536246 0.999852
Si Si4 0.848441 0.987564 0.993134
Si Si5 0.151250 0.754989 0.490156
Si Si6 0.927238 0.133195 0.468477
O O1 0.222037 0.140985 0.586844
O O2 0.351175 0.103695 0.978136
O O3 0.094074 0.137422 0.647715
O O4 0.279109 0.213641 0.814573
O O5 0.500000 0.296146 0.750000
O O6 0.652953 0.345377 0.765307
O O7 0.750000 0.250000 0.000000
O O8 0.749217 0.515258 0.752220
O O9 0.745334 0.524671 0.003591
O O10 0.000000 0.513914 0.250000
O O11 0.897178 0.928279 0.989071
O O12 0.000000 0.015267 0.250000
O O13 0.250000 0.750000 0.500000
O O14 0.122157 0.818863 0.496262
O O15 0.000000 0.728510 0.250000
#
# Coordination Sequence:
#
# PCOD9290428 Si02
#       6
#     8   8   8   8   8   8
#     4  11  23  42  69  98 142 179 236 291 349 431
#     4  10  22  41  65  99 137 186 234 284 347 423
#     4  12  28  50  74 110 147 184 242 304 373 419
#     4  12  26  49  80 106 140 191 247 299 356 440
#     4  12  22  36  63  92 134 177 221 281 354 418
#     4  11  23  43  67 101 139 179 241 288 350 426
#
# _framework density 21.441061000000001
#
# number of rings (size 3 to 8) (size 9 to 14) (size 15 to 20)
#    0.000    0.667    5.000    3.000    2.333    0.667 
#    3.000    0.000    0.000    0.000    0.000    0.000 
#    0.000    0.000    0.000    0.000    0.000    0.000 
#
# Total GULP energy -133739.675331 kJ/mol
# GULP energy per Si atom -5572.486472 kJ/mol
# Density = 2.139226 g / cm^3
# Si number density = 21.441061 Si / 1000 Ang^3
#
#
#
# Elastic Constant Matrix: (Units=GPa)
#
#
# Indices 1 2 3 4 5 6 
#
# 1 132.7351 5.9596 59.4853 0.0000 -10.4804 0.0000
# 2 5.9596 49.0664 23.7912 0.0000 1.6796 0.0000
# 3 59.4853 23.7912 125.1138 0.0000 -3.8738 0.0000
# 4 0.0000 0.0000 0.0000 37.0726 0.0000 -8.2083
# 5 -10.4804 1.6796 -3.8738 0.0000 31.1680 0.0000
# 6 0.0000 0.0000 0.0000 -8.2083 0.0000 29.4000
#
#
#
# Elastic Compliance Matrix: (Units=1/GPa)
#
#
# Indices 1 2 3 4 5 6 
#
# 1 0.009847 0.001039 -0.004797 0.000000 0.002659 0.000000
# 2 0.001039 0.022655 -0.004848 0.000000 -0.001474 0.000000
# 3 -0.004797 -0.004848 0.011196 0.000000 0.000040 0.000000
# 4 0.000000 0.000000 0.000000 0.028751 0.000000 0.008027
# 5 0.002659 -0.001474 0.000040 0.000000 0.033063 0.000000
# 6 0.000000 0.000000 0.000000 0.008027 0.000000 0.036255
#
#
# Mechanical properties :
#
#
# Convention : Reuss Voigt Hill
#
# Bulk Modulus (GPa) = 37.75390 53.93193 45.84291
# Shear Modulus (GPa) = 29.79599 34.04007 31.91803
#
# Velocity S-wave (km/s) = 3.73187 3.98881 3.86248
# Velocity P-wave (km/s) = 6.01794 6.81339 6.42798
#
# Compressibility (1/GPa) = 0.02648733
#
# Stress axis : x y z
#
# Youngs Moduli (GPa) = 101.55557 44.13973 89.31404
#
# Poissons Ratio (x) = -0.04586 0.42843
# Poissons Ratio (y) = -0.10551 0.43296
# Poissons Ratio (z) = 0.48715 0.21397
#
# Static dielectric constant tensor:
#      x y z
#    x 1.804270 0.000000 -0.136740 
#    y 0.000000 1.811030 0.000000 
#    z -0.136740 0.000000 2.014340 
# 
# From -- ./inp_files/108141.got.cif
#   From: 2010.05.17/outbox.cif.g08.bks.cpg/sg15_55_cif.got.tgz:108141.got - 2010.06.03 18:47:42.
