data_PCOD9290591
_publ_section_title
;
Structure prediction by ZEFSAII (Michael W. Deem and Ramdas Pophale) SiO2 
 PCOD9290591
Probable space group: C 2/C
;
_chemical_formula_sum "Si O2"
_cell_formula_units_Z 40
_cell_length_a 12.224665
_cell_length_b 8.976465
_cell_length_c 15.077260
_cell_angle_alpha 90.000000
_cell_angle_beta 94.014640
_cell_angle_gamma 90.000000
_cell_volume 1650.432430
_symmetry_space_group_name_H-M "C 2/C"
_symmetry_group_IT_number 15
_symmetry_cell_setting 'monoclinic'
loop_
_space_group_symop_operation_xyz
x,y,z
-x,y,1/2-z
-x,-y,-z
x,-y,1/2+z
1/2+x,1/2+y,z
1/2-x,1/2+y,1/2-z
1/2-x,1/2-y,-z
1/2+x,1/2-y,1/2+z
loop_
_atom_site_type_symbol
_atom_site_label
_atom_site_fract_x
_atom_site_fract_y
_atom_site_fract_z
Si Si1 0.741974 0.953264 0.094842
Si Si2 0.599441 0.272353 0.497333
Si Si3 0.886533 0.407244 0.688913
Si Si4 0.714155 0.632615 0.721526
Si Si5 0.863391 0.249786 0.953532
O O1 0.836807 0.922483 0.027606
O O2 0.804418 0.964642 0.191413
O O3 0.650835 0.080344 0.080963
O O4 0.669117 0.804798 0.077897
O O5 0.472720 0.280699 0.513348
O O6 0.601328 0.162549 0.409454
O O7 0.829048 0.569086 0.690088
O O8 0.805151 0.293812 0.735573
O O9 0.000000 0.406822 0.750000
O O10 0.637178 0.640965 0.631484
O O11 0.750000 0.250000 0.000000
#
# Coordination Sequence:
#
# PCOD9290591 Si02
#       5
#     8   8   8   8   8
#     4  10  22  41  67  96 128 174 223 267 341 399
#     4  10  22  42  67  92 133 176 211 280 336 381
#     4  11  21  42  68  92 133 176 217 272 333 391
#     4  11  22  40  67  99 131 170 225 268 329 403
#     4  12  24  41  66  97 133 174 227 273 326 399
#
# _framework density 24.236072
#
# number of rings (size 3 to 8) (size 9 to 14) (size 15 to 20)
#    0.000    1.200    4.000    1.800    0.000    2.400 
#    0.000    3.000    4.400    0.000    0.000    0.000 
#    0.000    0.000    0.000    0.000    0.000    0.000 
#
# Total GULP energy -111422.314293 kJ/mol
# GULP energy per Si atom -5571.115715 kJ/mol
# Density = 2.418091 g / cm^3
# Si number density = 24.236072 Si / 1000 Ang^3
#
#
#
# Elastic Constant Matrix: (Units=GPa)
#
#
# Indices 1 2 3 4 5 6 
#
# 1 141.5143 40.7125 6.3977 0.0000 11.1456 0.0000
# 2 40.7125 44.5329 -2.2187 0.0000 0.5029 0.0000
# 3 6.3977 -2.2187 55.4090 0.0000 8.1922 0.0000
# 4 0.0000 0.0000 0.0000 10.1473 0.0000 -2.5144
# 5 11.1456 0.5029 8.1922 0.0000 28.9236 0.0000
# 6 0.0000 0.0000 0.0000 -2.5144 0.0000 32.2419
#
#
#
# Elastic Compliance Matrix: (Units=1/GPa)
#
#
# Indices 1 2 3 4 5 6 
#
# 1 0.010020 -0.009173 -0.001020 0.000000 -0.003413 0.000000
# 2 -0.009173 0.030910 0.001935 0.000000 0.002449 0.000000
# 3 -0.001020 0.001935 0.018985 0.000000 -0.005018 0.000000
# 4 0.000000 0.000000 0.000000 0.100490 0.000000 0.007837
# 5 -0.003413 0.002449 -0.005018 0.000000 0.037268 0.000000
# 6 0.000000 0.000000 0.000000 0.007837 0.000000 0.031627
#
#
# Mechanical properties :
#
#
# Convention : Reuss Voigt Hill
#
# Bulk Modulus (GPa) = 23.04186 36.80436 29.92311
# Shear Modulus (GPa) = 19.20993 27.36687 23.28840
#
# Velocity S-wave (km/s) = 2.81840 3.36397 3.10320
# Velocity P-wave (km/s) = 4.48543 5.50519 5.02127
#
# Compressibility (1/GPa) = 0.04339927
#
# Stress axis : x y z
#
# Youngs Moduli (GPa) = 99.79738 32.35193 52.67396
#
# Poissons Ratio (x) = 0.29676 0.05371
# Poissons Ratio (y) = 0.91544 -0.10191
# Poissons Ratio (z) = 0.10176 -0.06259
#
# Static dielectric constant tensor:
#      x y z
#    x 1.889680 0.000000 -0.047210 
#    y 0.000000 2.153560 0.000000 
#    z -0.047210 0.000000 2.166780 
# 
# From -- ./inp_files/195155.got.cif
#   From: 2010.05.17/outbox.cif.g08.bks.cpg/sg15_98_cif.got.tgz:195155.got - 2010.06.03 18:47:42.
