data_PCOD9290875
_publ_section_title
;
Structure prediction by ZEFSAII (Michael W. Deem and Ramdas Pophale) SiO2 
 PCOD9290875
Probable space group: C 2/C
;
_chemical_formula_sum "Si O2"
_cell_formula_units_Z 40
_cell_length_a 20.944222
_cell_length_b 8.983329
_cell_length_c 8.902350
_cell_angle_alpha 90.000000
_cell_angle_beta 81.535106
_cell_angle_gamma 90.000000
_cell_volume 1656.720116
_symmetry_space_group_name_H-M "C 2/C"
_symmetry_group_IT_number 15
_symmetry_cell_setting 'monoclinic'
loop_
_space_group_symop_operation_xyz
x,y,z
-x,y,1/2-z
-x,-y,-z
x,-y,1/2+z
1/2+x,1/2+y,z
1/2-x,1/2+y,1/2-z
1/2-x,1/2-y,-z
1/2+x,1/2-y,1/2+z
loop_
_atom_site_type_symbol
_atom_site_label
_atom_site_fract_x
_atom_site_fract_y
_atom_site_fract_z
Si Si1 0.300064 0.347510 0.889805
Si Si2 0.083020 0.659273 0.537199
Si Si3 0.536792 0.346517 0.001694
Si Si4 0.389555 0.151572 0.319012
Si Si5 0.681153 0.348215 0.947899
O O1 0.369752 0.275481 0.899354
O O2 0.300276 0.514039 0.954227
O O3 0.250000 0.250000 0.000000
O O4 0.281973 0.338004 0.721177
O O5 0.086497 0.503439 0.621547
O O6 0.010419 0.722660 0.551713
O O7 0.111665 0.640801 0.358678
O O8 0.560183 0.282913 0.154666
O O9 0.607786 0.373060 0.910609
O O10 0.500000 0.500000 0.000000
O O11 0.327995 0.204615 0.441012
#
# Coordination Sequence:
#
# PCOD9290875 Si02
#       5
#     8   8   8   8   8
#     4  12  27  47  74  97 136 188 241 288 340 420
#     4  12  22  45  66 106 143 184 228 286 358 417
#     4  10  22  41  73 101 145 176 229 288 364 425
#     4  10  24  40  69 104 142 178 224 285 353 423
#     4  10  25  46  68 103 134 180 236 285 357 412
#
# _framework density 24.144091
#
# number of rings (size 3 to 8) (size 9 to 14) (size 15 to 20)
#    1.200    0.000    2.000    3.600    0.000    4.000 
#    0.000    3.000    0.000    0.000    0.000    0.000 
#    0.000    0.000    0.000    0.000    0.000    0.000 
#
# Total GULP energy -111800.805253 kJ/mol
# GULP energy per Si atom -5590.040263 kJ/mol
# Density = 2.408914 g / cm^3
# Si number density = 24.144091 Si / 1000 Ang^3
#
#
#
# Elastic Constant Matrix: (Units=GPa)
#
#
# Indices 1 2 3 4 5 6 
#
# 1 72.1783 14.4352 34.4734 0.0000 13.0873 0.0000
# 2 14.4352 121.4484 50.8122 0.0000 9.6832 0.0000
# 3 34.4734 50.8122 158.9890 0.0000 15.4296 0.0000
# 4 0.0000 0.0000 0.0000 17.4777 0.0000 4.9056
# 5 13.0873 9.6832 15.4296 0.0000 35.9320 0.0000
# 6 0.0000 0.0000 0.0000 4.9056 0.0000 43.7738
#
#
#
# Elastic Compliance Matrix: (Units=1/GPa)
#
#
# Indices 1 2 3 4 5 6 
#
# 1 0.016153 -0.000320 -0.002961 0.000000 -0.004526 0.000000
# 2 -0.000320 0.009571 -0.002870 0.000000 -0.001230 0.000000
# 3 -0.002961 -0.002870 0.008003 0.000000 -0.001585 0.000000
# 4 0.000000 0.000000 0.000000 0.059074 0.000000 -0.006620
# 5 -0.004526 -0.001230 -0.001585 0.000000 0.030491 0.000000
# 6 0.000000 0.000000 0.000000 -0.006620 0.000000 0.023587
#
#
# Mechanical properties :
#
#
# Convention : Reuss Voigt Hill
#
# Bulk Modulus (GPa) = 46.67532 61.33970 54.00751
# Shear Modulus (GPa) = 30.06208 36.29634 33.17921
#
# Velocity S-wave (km/s) = 3.53244 3.88148 3.71106
# Velocity P-wave (km/s) = 6.00096 6.74897 6.38593
#
# Compressibility (1/GPa) = 0.02142460
#
# Stress axis : x y z
#
# Youngs Moduli (GPa) = 61.90632 104.48381 124.95666
#
# Poissons Ratio (x) = 0.03347 0.36999
# Poissons Ratio (y) = 0.01983 0.35862
# Poissons Ratio (z) = 0.18330 0.29987
#
# Static dielectric constant tensor:
#      x y z
#    x 2.024010 0.000000 -0.109960 
#    y 0.000000 1.858510 0.000000 
#    z -0.109960 0.000000 1.920920 
# 
# From -- ./inp_files/64520.got.cif
#   From: 2010.05.17/outbox.cif.g08.bks.cpg/sg15_33_cif.got.tgz:64520.got - 2010.06.03 18:47:42.
