data_PCOD9290773
_publ_section_title
;
Structure prediction by ZEFSAII (Michael W. Deem and Ramdas Pophale) SiO2 
 PCOD9290773
Probable space group: C 2/C
;
_chemical_formula_sum "Si O2"
_cell_formula_units_Z 64
_cell_length_a 15.773319
_cell_length_b 17.943956
_cell_length_c 17.724827
_cell_angle_alpha 90.000000
_cell_angle_beta 143.354629
_cell_angle_gamma 90.000000
_cell_volume 2994.305209
_symmetry_space_group_name_H-M "C 2/C"
_symmetry_group_IT_number 15
_symmetry_cell_setting 'monoclinic'
loop_
_space_group_symop_operation_xyz
x,y,z
-x,y,1/2-z
-x,-y,-z
x,-y,1/2+z
1/2+x,1/2+y,z
1/2-x,1/2+y,1/2-z
1/2-x,1/2-y,-z
1/2+x,1/2-y,1/2+z
loop_
_atom_site_type_symbol
_atom_site_label
_atom_site_fract_x
_atom_site_fract_y
_atom_site_fract_z
Si Si1 0.222880 0.575042 0.402004
Si Si2 0.131275 0.697587 0.452739
Si Si3 0.087864 0.443107 0.210526
Si Si4 0.295033 0.315974 0.418549
Si Si5 0.760865 0.469361 0.958775
Si Si6 0.504287 0.665492 0.576084
Si Si7 0.772955 0.403746 0.345605
Si Si8 0.345462 0.318387 0.633291
O O1 0.127797 0.628237 0.390328
O O2 0.142158 0.522820 0.283198
O O3 0.295645 0.513730 0.509100
O O4 0.349563 0.626956 0.461589
O O5 0.250000 0.750000 0.500000
O O6 0.175889 0.664748 0.565819
O O7 0.007164 0.756123 0.385773
O O8 0.173559 0.375643 0.311231
O O9 0.127677 0.427868 0.152327
O O10 0.917853 0.440711 0.095020
O O11 0.428468 0.327669 0.459298
O O12 0.313862 0.320049 0.521622
O O13 0.249476 0.230029 0.378919
O O14 0.774699 0.528788 0.903752
O O15 0.666648 0.404412 0.857341
O O16 0.618030 0.615489 0.702418
O O17 0.500000 0.284691 0.750000
#
# Coordination Sequence:
#
# PCOD9290773 Si02
#       8
#     8   8   8   8   8   8   8   8
#     4  10  22  41  70 100 130 183 226 275 347 414
#     4   9  21  43  64 100 133 179 224 279 347 412
#     4  11  23  44  67  98 137 180 227 283 343 419
#     4  10  25  43  68  99 132 182 223 286 345 406
#     4  11  24  42  68  93 138 177 224 282 342 411
#     4  10  23  45  71  97 141 171 232 292 342 412
#     4  10  24  42  67  99 134 179 224 293 343 410
#     4  11  26  41  67 100 131 180 231 280 345 417
#
# _framework density 21.373906000000002
#
# number of rings (size 3 to 8) (size 9 to 14) (size 15 to 20)
#    0.000    1.750    1.250    0.750    7.000    8.000 
#   15.750    1.250    0.000    0.000    0.000    0.000 
#    0.000    0.000    0.000    0.000    0.000    0.000 
#
# Total GULP energy -178394.860044 kJ/mol
# GULP energy per Si atom -5574.839376 kJ/mol
# Density = 2.132526 g / cm^3
# Si number density = 21.373906 Si / 1000 Ang^3
#
#
#
# Elastic Constant Matrix: (Units=GPa)
#
#
# Indices 1 2 3 4 5 6 
#
# 1 120.2103 46.0783 35.2681 0.0002 -5.4521 0.0001
# 2 46.0783 103.3346 10.2937 0.0004 0.1525 0.0004
# 3 35.2681 10.2937 39.2846 0.0013 -0.3339 0.0007
# 4 0.0002 0.0004 0.0013 -49.0195 0.0007 29.4179
# 5 -5.4521 0.1525 -0.3339 0.0007 25.1294 0.0004
# 6 0.0001 0.0004 0.0007 29.4179 0.0004 11.8974
#
#
#
# Elastic Compliance Matrix: (Units=1/GPa)
#
#
# Indices 1 2 3 4 5 6 
#
# 1 0.013519 -0.004955 -0.010814 0.000000 0.002819 0.000000
# 2 -0.004955 0.011753 0.001359 0.000000 -0.001128 0.000000
# 3 -0.010814 0.001359 0.034792 0.000000 -0.001892 -0.000002
# 4 0.000000 0.000000 0.000000 -0.008213 0.000000 0.020308
# 5 0.002819 -0.001128 -0.001892 0.000000 0.040387 -0.000001
# 6 0.000000 0.000000 -0.000002 0.020308 -0.000001 0.033839
#
#
# Mechanical properties :
#
#
# Convention : Reuss Voigt Hill
#
# Bulk Modulus (GPa) = 32.00690 49.56774 40.78732
# Shear Modulus (GPa) = 30.24598 9.01409 19.63004
#
# Velocity S-wave (km/s) = 3.76585 2.05584 3.03382
# Velocity P-wave (km/s) = 5.82375 5.37368 5.60324
#
# Compressibility (1/GPa) = 0.03124326
#
# Stress axis : x y z
#
# Youngs Moduli (GPa) = 73.97151 85.08389 28.74261
#
# Poissons Ratio (x) = 0.42160 0.31083
# Poissons Ratio (y) = 0.36654 -0.03907
# Poissons Ratio (z) = 0.79994 -0.11565
#
# Static dielectric constant tensor:
#      x y z
#    x 1.795150 0.000000 0.020230 
#    y 0.000000 1.909610 0.000000 
#    z 0.020230 0.000000 1.835840 
# 
# From -- ./inp_files/206478.got.cif
#   From: 2010.05.17/outbox.cif.g08.bks.cpg/sg15_104_cif.got.tgz:206478.got - 2010.06.03 18:47:42.
