data_PCOD9290168
_publ_section_title
;
Structure prediction by ZEFSAII (Michael W. Deem and Ramdas Pophale) SiO2 
 PCOD9290168
Probable space group: C 2/C
;
_chemical_formula_sum "Si O2"
_cell_formula_units_Z 40
_cell_length_a 10.747622
_cell_length_b 29.855301
_cell_length_c 8.049543
_cell_angle_alpha 90.000000
_cell_angle_beta 45.553750
_cell_angle_gamma 90.000000
_cell_volume 1843.941375
_symmetry_space_group_name_H-M "C 2/C"
_symmetry_group_IT_number 15
_symmetry_cell_setting 'monoclinic'
loop_
_space_group_symop_operation_xyz
x,y,z
-x,y,1/2-z
-x,-y,-z
x,-y,1/2+z
1/2+x,1/2+y,z
1/2-x,1/2+y,1/2-z
1/2-x,1/2-y,-z
1/2+x,1/2-y,1/2+z
loop_
_atom_site_type_symbol
_atom_site_label
_atom_site_fract_x
_atom_site_fract_y
_atom_site_fract_z
Si Si1 0.789478 0.220617 0.298395
Si Si2 0.120700 0.797952 0.296716
Si Si3 0.472314 0.949133 0.077206
Si Si4 0.735895 0.379858 0.694735
Si Si5 0.659884 0.609846 0.872480
O O1 0.750000 0.250000 0.500000
O O2 0.737578 0.254372 0.200385
O O3 0.700706 0.172047 0.361413
O O4 0.988420 0.207150 0.077033
O O5 0.221986 0.844092 0.229066
O O6 0.000000 0.801144 0.250000
O O7 0.500000 0.947551 0.250000
O O8 0.280934 0.931214 0.205594
O O9 0.618199 0.914025 0.878334
O O10 0.500000 0.000000 0.000000
O O11 0.695241 0.386657 0.536854
O O12 0.549528 0.390117 0.957169
#
# Coordination Sequence:
#
# PCOD9290168 Si02
#       5
#     8   8   8   8   8
#     4  11  21  36  62  88 119 166 217 244 300 381
#     4  11  23  37  54  90 129 162 203 258 318 364
#     4  10  22  41  63  88 118 153 206 259 315 371
#     4   9  19  37  62  91 115 160 209 254 298 370
#     4   9  19  38  61  83 121 158 203 253 305 374
#
# _framework density 21.692663
#
# number of rings (size 3 to 8) (size 9 to 14) (size 15 to 20)
#    0.000    2.000    2.000    1.200    2.800    2.400 
#    7.200    0.000    0.000    0.000    0.000    0.000 
#    0.000    0.000    0.000    0.000    0.000    0.000 
#
# Total GULP energy -111516.812841 kJ/mol
# GULP energy per Si atom -5575.840642 kJ/mol
# Density = 2.164329 g / cm^3
# Si number density = 21.692663 Si / 1000 Ang^3
#
#
#
# Elastic Constant Matrix: (Units=GPa)
#
#
# Indices 1 2 3 4 5 6 
#
# 1 56.5745 47.5901 22.3199 0.0000 -6.0975 0.0000
# 2 47.5901 210.8474 52.1099 0.0000 -30.7904 0.0000
# 3 22.3199 52.1099 54.7009 0.0000 -7.5169 0.0000
# 4 0.0000 0.0000 0.0000 32.1936 0.0000 -13.5525
# 5 -6.0975 -30.7904 -7.5169 0.0000 19.8642 0.0000
# 6 0.0000 0.0000 0.0000 -13.5525 0.0000 30.3311
#
#
#
# Elastic Compliance Matrix: (Units=1/GPa)
#
#
# Indices 1 2 3 4 5 6 
#
# 1 0.023190 -0.003971 -0.005852 0.000000 -0.001251 0.000000
# 2 -0.003971 0.008281 -0.004929 0.000000 0.009752 0.000000
# 3 -0.005852 -0.004929 0.025388 0.000000 0.000171 0.000000
# 4 0.000000 0.000000 0.000000 0.038258 0.000000 0.017094
# 5 -0.001251 0.009752 0.000171 0.000000 0.065139 0.000000
# 6 0.000000 0.000000 0.000000 0.017094 0.000000 0.040608
#
#
# Mechanical properties :
#
#
# Convention : Reuss Voigt Hill
#
# Bulk Modulus (GPa) = 36.55388 62.90696 49.73042
# Shear Modulus (GPa) = 20.87824 29.81799 25.34812
#
# Velocity S-wave (km/s) = 3.10571 3.71154 3.42206
# Velocity P-wave (km/s) = 5.45417 6.88691 6.21198
#
# Compressibility (1/GPa) = 0.02735688
#
# Stress axis : x y z
#
# Youngs Moduli (GPa) = 43.12284 120.75546 39.38933
#
# Poissons Ratio (x) = 0.47946 0.23049
# Poissons Ratio (y) = 0.17122 0.19414
# Poissons Ratio (z) = 0.25233 0.59516
#
# Static dielectric constant tensor:
#      x y z
#    x 1.911130 0.000000 -0.042390 
#    y 0.000000 1.839220 0.000000 
#    z -0.042390 0.000000 1.957710 
# 
# From -- ./inp_files/33326.got.cif
#   From: 2010.05.17/outbox.cif.g08.bks.cpg/sg15_17_cif.got.tgz:33326.got - 2010.06.03 18:47:42.
