data_PCOD9290402
_publ_section_title
;
Structure prediction by ZEFSAII (Michael W. Deem and Ramdas Pophale) SiO2 
 PCOD9290402
Probable space group: C 2/C
;
_chemical_formula_sum "Si O2"
_cell_formula_units_Z 48
_cell_length_a 11.637321
_cell_length_b 28.874377
_cell_length_c 9.098494
_cell_angle_alpha 90.000000
_cell_angle_beta 53.287990
_cell_angle_gamma 90.000000
_cell_volume 2450.869229
_symmetry_space_group_name_H-M "C 2/C"
_symmetry_group_IT_number 15
_symmetry_cell_setting 'monoclinic'
loop_
_space_group_symop_operation_xyz
x,y,z
-x,y,1/2-z
-x,-y,-z
x,-y,1/2+z
1/2+x,1/2+y,z
1/2-x,1/2+y,1/2-z
1/2-x,1/2-y,-z
1/2+x,1/2-y,1/2+z
loop_
_atom_site_type_symbol
_atom_site_label
_atom_site_fract_x
_atom_site_fract_y
_atom_site_fract_z
Si Si1 0.111768 0.515161 0.292431
Si Si2 0.368086 0.318430 0.550458
Si Si3 0.694505 0.339653 0.228921
Si Si4 0.837402 0.085403 0.232163
Si Si5 0.847364 0.264712 0.289340
Si Si6 0.843277 0.067147 0.570985
O O1 0.202104 0.559569 0.269170
O O2 0.232892 0.475351 0.173180
O O3 0.000000 0.524991 0.250000
O O4 0.000000 0.500000 0.500000
O O5 0.537743 0.318875 0.386349
O O6 0.287413 0.328722 0.457975
O O7 0.344575 0.362305 0.672783
O O8 0.332737 0.272502 0.668221
O O9 0.805647 0.313258 0.247491
O O10 0.688818 0.393526 0.281932
O O11 0.825354 0.084868 0.417388
O O12 0.983417 0.059810 0.062400
O O13 0.750000 0.250000 0.500000
O O14 0.000000 0.265714 0.250000
#
# Coordination Sequence:
#
# PCOD9290402 Si02
#       6
#     8   8   8   8   8   8
#     4  12  25  43  62  93 135 165 204 263 322 374
#     4  10  22  41  66  92 127 165 213 266 306 369
#     4  10  22  41  65  96 126 163 215 261 310 368
#     4  10  22  42  67  91 120 170 219 254 311 378
#     4  12  23  41  66  94 130 169 209 255 315 378
#     4  10  22  42  68  91 123 169 216 257 307 384
#
# _framework density 19.584887999999999
#
# number of rings (size 3 to 8) (size 9 to 14) (size 15 to 20)
#    0.000    1.333    3.333    2.000    4.667    0.667 
#    3.000    0.000    0.000    0.000    0.000    0.000 
#    0.000    0.000    0.000    0.000    0.000    0.000 
#
# Total GULP energy -133890.324933 kJ/mol
# GULP energy per Si atom -5578.763539 kJ/mol
# Density = 1.954031 g / cm^3
# Si number density = 19.584888 Si / 1000 Ang^3
#
#
#
# Elastic Constant Matrix: (Units=GPa)
#
#
# Indices 1 2 3 4 5 6 
#
# 1 125.6999 12.1725 25.7112 0.0000 5.3246 0.0000
# 2 12.1725 30.6708 -0.6742 0.0000 -2.5131 0.0000
# 3 25.7112 -0.6742 53.4942 0.0000 9.8297 0.0000
# 4 0.0000 0.0000 0.0000 23.3487 0.0000 4.3603
# 5 5.3246 -2.5131 9.8297 0.0000 31.4695 0.0000
# 6 0.0000 0.0000 0.0000 4.3603 0.0000 34.7102
#
#
#
# Elastic Compliance Matrix: (Units=1/GPa)
#
#
# Indices 1 2 3 4 5 6 
#
# 1 0.009245 -0.003806 -0.004401 0.000000 -0.000494 0.000000
# 2 -0.003806 0.034386 0.001740 0.000000 0.002847 0.000000
# 3 -0.004401 0.001740 0.021927 0.000000 -0.005965 0.000000
# 4 0.000000 0.000000 0.000000 0.043858 0.000000 -0.005509
# 5 -0.000494 0.002847 -0.005965 0.000000 0.033951 0.000000
# 6 0.000000 0.000000 0.000000 -0.005509 0.000000 0.029502
#
#
# Mechanical properties :
#
#
# Convention : Reuss Voigt Hill
#
# Bulk Modulus (GPa) = 19.00285 31.58708 25.29497
# Shear Modulus (GPa) = 24.58874 29.41606 27.00240
#
# Velocity S-wave (km/s) = 3.54714 3.87974 3.71716
# Velocity P-wave (km/s) = 5.14783 6.01940 5.60059
#
# Compressibility (1/GPa) = 0.05262370
#
# Stress axis : x y z
#
# Youngs Moduli (GPa) = 108.16526 29.08123 45.60615
#
# Poissons Ratio (x) = 0.11069 0.20070
# Poissons Ratio (y) = 0.41171 -0.07934
# Poissons Ratio (z) = 0.47601 -0.05059
#
# Static dielectric constant tensor:
#      x y z
#    x 1.651480 0.000000 -0.006990 
#    y 0.000000 1.664030 0.000000 
#    z -0.006990 0.000000 1.662520 
# 
# From -- ./inp_files/33372.got.cif
#   From: 2010.05.17/outbox.cif.g08.bks.cpg/sg15_17_cif.got.tgz:33372.got - 2010.06.03 18:47:42.
