data_PCOD9290947
_publ_section_title
;
Structure prediction by ZEFSAII (Michael W. Deem and Ramdas Pophale) SiO2 
 PCOD9290947
Probable space group: C 2/C
;
_chemical_formula_sum "Si O2"
_cell_formula_units_Z 36
_cell_length_a 27.520944
_cell_length_b 13.650162
_cell_length_c 11.522380
_cell_angle_alpha 90.000000
_cell_angle_beta 158.450817
_cell_angle_gamma 90.000000
_cell_volume 1589.878656
_symmetry_space_group_name_H-M "C 2/C"
_symmetry_group_IT_number 15
_symmetry_cell_setting 'monoclinic'
loop_
_space_group_symop_operation_xyz
x,y,z
-x,y,1/2-z
-x,-y,-z
x,-y,1/2+z
1/2+x,1/2+y,z
1/2-x,1/2+y,1/2-z
1/2-x,1/2-y,-z
1/2+x,1/2-y,1/2+z
loop_
_atom_site_type_symbol
_atom_site_label
_atom_site_fract_x
_atom_site_fract_y
_atom_site_fract_z
Si Si1 0.892384 0.588005 0.742644
Si Si2 0.212310 0.926246 0.379769
Si Si3 0.075497 0.670597 0.312596
Si Si4 0.284008 0.369447 0.854657
Si Si5 0.500000 0.476071 0.750000
O O1 0.760486 0.538966 0.504409
O O2 0.847459 0.616465 0.513953
O O3 0.000000 0.500000 0.000000
O O4 0.960789 0.677759 0.960628
O O5 0.303756 0.884382 0.480092
O O6 0.238299 0.871424 0.557133
O O7 0.065467 0.919488 0.003004
O O8 0.137832 0.769920 0.499022
O O9 0.000000 0.616724 0.250000
O O10 0.383415 0.456998 0.042675
#
# Coordination Sequence:
#
# PCOD9290947 Si02
#       5
#     8   8   8   8   4
#     4   9  23  40  65  94 124 171 213 261 313 387
#     4  10  23  41  69  91 125 175 213 263 318 392
#     4  11  24  41  62  95 132 164 212 263 326 375
#     4  11  22  43  63  96 130 163 215 269 324 372
#     4  10  22  42  62 100 122 166 214 270 318 382
#
# _framework density 22.643238
#
# number of rings (size 3 to 8) (size 9 to 14) (size 15 to 20)
#    0.000    1.778    1.111    1.333    9.333    5.333 
#    0.000    0.000    0.000    0.000    0.000    0.000 
#    0.000    0.000    0.000    0.000    0.000    0.000 
#
# Total GULP energy -100371.926908 kJ/mol
# GULP energy per Si atom -5576.218162 kJ/mol
# Density = 2.259170 g / cm^3
# Si number density = 22.643238 Si / 1000 Ang^3
#
#
#
# Elastic Constant Matrix: (Units=GPa)
#
#
# Indices 1 2 3 4 5 6 
#
# 1 93.5876 15.4805 42.7335 0.0000 -7.2398 0.0000
# 2 15.4805 37.3298 30.6172 0.0000 -12.4725 0.0000
# 3 42.7335 30.6172 188.7345 0.0000 -44.0835 0.0000
# 4 0.0000 0.0000 0.0000 28.1171 0.0000 3.9584
# 5 -7.2398 -12.4725 -44.0835 0.0000 32.2105 0.0000
# 6 0.0000 0.0000 0.0000 3.9584 0.0000 20.9335
#
#
#
# Elastic Compliance Matrix: (Units=1/GPa)
#
#
# Indices 1 2 3 4 5 6 
#
# 1 0.012371 -0.003668 -0.002775 0.000000 -0.002438 0.000000
# 2 -0.003668 0.033272 -0.002573 0.000000 0.008538 0.000000
# 3 -0.002775 -0.002573 0.008769 0.000000 0.010381 0.000000
# 4 0.000000 0.000000 0.000000 0.036538 0.000000 -0.006909
# 5 -0.002438 0.008538 0.010381 0.000000 0.048012 0.000000
# 6 0.000000 0.000000 0.000000 -0.006909 0.000000 0.049077
#
#
# Mechanical properties :
#
#
# Convention : Reuss Voigt Hill
#
# Bulk Modulus (GPa) = 27.48842 55.25714 41.37278
# Shear Modulus (GPa) = 22.91495 31.64027 27.27761
#
# Velocity S-wave (km/s) = 3.18465 3.74215 3.47460
# Velocity P-wave (km/s) = 5.06841 6.56719 5.86587
#
# Compressibility (1/GPa) = 0.03637896
#
# Stress axis : x y z
#
# Youngs Moduli (GPa) = 80.83656 30.05503 114.03774
#
# Poissons Ratio (x) = 0.11025 0.31651
# Poissons Ratio (y) = 0.29654 0.29338
# Poissons Ratio (z) = 0.22436 0.07732
#
# Static dielectric constant tensor:
#      x y z
#    x 1.892240 0.000000 -0.029150 
#    y 0.000000 1.924270 0.000000 
#    z -0.029150 0.000000 1.892130 
# 
# From -- ./inp_files/85373.got.cif
#   From: 2010.05.17/outbox.cif.g08.bks.cpg/sg15_43_cif.got.tgz:85373.got - 2010.06.03 18:47:42.
