data_PCOD9290688
_publ_section_title
;
Structure prediction by ZEFSAII (Michael W. Deem and Ramdas Pophale) SiO2 
 PCOD9290688
Probable space group: C 2/C
;
_chemical_formula_sum "Si O2"
_cell_formula_units_Z 52
_cell_length_a 26.281297
_cell_length_b 10.377120
_cell_length_c 8.828171
_cell_angle_alpha 90.000000
_cell_angle_beta 121.391361
_cell_angle_gamma 90.000000
_cell_volume 2055.245500
_symmetry_space_group_name_H-M "C 2/C"
_symmetry_group_IT_number 15
_symmetry_cell_setting 'monoclinic'
loop_
_space_group_symop_operation_xyz
x,y,z
-x,y,1/2-z
-x,-y,-z
x,-y,1/2+z
1/2+x,1/2+y,z
1/2-x,1/2+y,1/2-z
1/2-x,1/2-y,-z
1/2+x,1/2-y,1/2+z
loop_
_atom_site_type_symbol
_atom_site_label
_atom_site_fract_x
_atom_site_fract_y
_atom_site_fract_z
Si Si1 0.500000 0.481528 0.250000
Si Si2 0.622065 0.116608 0.135775
Si Si3 0.817790 0.216004 0.556862
Si Si4 0.698732 0.565674 0.412361
Si Si5 0.219672 0.425297 0.211247
Si Si6 0.070759 0.154595 0.115781
Si Si7 0.057025 0.422559 0.233466
O O1 0.535831 0.571924 0.189222
O O2 0.546289 0.395881 0.417946
O O3 0.638733 0.251343 0.236543
O O4 0.679465 0.025041 0.240954
O O5 0.572754 0.048067 0.162340
O O6 0.606626 0.115516 0.935964
O O7 0.750000 0.250000 0.500000
O O8 0.822108 0.065823 0.534505
O O9 0.824011 0.321135 0.434143
O O10 0.742879 0.509126 0.352010
O O11 0.735374 0.640406 0.599381
O O12 0.640780 0.632743 0.255389
O O13 0.053372 0.302294 0.115652
O O14 0.000000 0.439692 0.250000
#
# Coordination Sequence:
#
# PCOD9290688 Si02
#       7
#     4   8   8   8   8   8   8
#     4  10  24  48  72 104 146 184 256 296 370 418
#     4  12  24  47  74  99 145 189 239 295 370 430
#     4  10  22  41  68  97 145 188 219 285 354 423
#     4  11  24  39  70 104 145 183 235 281 364 431
#     4  11  21  42  64 108 141 184 232 285 351 444
#     4  11  25  47  74 107 142 195 242 308 361 427
#     4  12  28  51  72 103 139 193 255 312 357 423
#
# _framework density 25.301112
#
# number of rings (size 3 to 8) (size 9 to 14) (size 15 to 20)
#    0.000    0.923    5.385    1.385    6.462    2.462 
#    4.154    2.308    0.000    0.000    0.000    0.000 
#    0.000    0.000    0.000    0.000    0.000    0.000 
#
# Total GULP energy -145727.382111 kJ/mol
# GULP energy per Si atom -5604.899312 kJ/mol
# Density = 2.524353 g / cm^3
# Si number density = 25.301112 Si / 1000 Ang^3
#
#
#
# Elastic Constant Matrix: (Units=GPa)
#
#
# Indices 1 2 3 4 5 6 
#
# 1 98.2989 1.3733 -5.8512 0.0000 -2.4636 0.0000
# 2 1.3733 47.6974 -1.6253 0.0000 -6.9528 0.0000
# 3 -5.8512 -1.6253 125.3802 0.0000 2.6366 0.0000
# 4 0.0000 0.0000 0.0000 32.5823 0.0000 -2.9273
# 5 -2.4636 -6.9528 2.6366 0.0000 31.2659 0.0000
# 6 0.0000 0.0000 0.0000 -2.9273 0.0000 27.1436
#
#
#
# Elastic Compliance Matrix: (Units=1/GPa)
#
#
# Indices 1 2 3 4 5 6 
#
# 1 0.010221 -0.000172 0.000459 0.000000 0.000728 0.000000
# 2 -0.000172 0.021675 0.000172 0.000000 0.004792 0.000000
# 3 0.000459 0.000172 0.008012 0.000000 -0.000601 0.000000
# 4 0.000000 0.000000 0.000000 0.030992 0.000000 0.003342
# 5 0.000728 0.004792 -0.000601 0.000000 0.033157 0.000000
# 6 0.000000 0.000000 0.000000 0.003342 0.000000 0.037202
#
#
# Mechanical properties :
#
#
# Convention : Reuss Voigt Hill
#
# Bulk Modulus (GPa) = 24.49404 28.79666 26.64535
# Shear Modulus (GPa) = 32.47824 36.69701 34.58762
#
# Velocity S-wave (km/s) = 3.58672 3.81256 3.70136
# Velocity P-wave (km/s) = 5.18216 5.54861 5.36851
#
# Compressibility (1/GPa) = 0.04082625
#
# Stress axis : x y z
#
# Youngs Moduli (GPa) = 97.83717 46.13641 124.81192
#
# Poissons Ratio (x) = 0.00796 -0.05734
# Poissons Ratio (y) = 0.01687 -0.02149
# Poissons Ratio (z) = -0.04495 -0.00794
#
# Static dielectric constant tensor:
#      x y z
#    x 2.039460 0.000000 -0.007450 
#    y 0.000000 2.044820 0.000000 
#    z -0.007450 0.000000 2.111470 
# 
# From -- ./inp_files/65600.got.cif
#   From: 2010.05.17/outbox.cif.g08.bks.cpg/sg15_33_cif.got.tgz:65600.got - 2010.06.03 18:47:42.
