data_PCOD9290553
_publ_section_title
;
Structure prediction by ZEFSAII (Michael W. Deem and Ramdas Pophale) SiO2 
 PCOD9290553
Probable space group: C 2/C
;
_chemical_formula_sum "Si O2"
_cell_formula_units_Z 28
_cell_length_a 7.039775
_cell_length_b 18.333738
_cell_length_c 10.772436
_cell_angle_alpha 90.000000
_cell_angle_beta 100.154742
_cell_angle_gamma 90.000000
_cell_volume 1368.569097
_symmetry_space_group_name_H-M "C 2/C"
_symmetry_group_IT_number 15
_symmetry_cell_setting 'monoclinic'
loop_
_space_group_symop_operation_xyz
x,y,z
-x,y,1/2-z
-x,-y,-z
x,-y,1/2+z
1/2+x,1/2+y,z
1/2-x,1/2+y,1/2-z
1/2-x,1/2-y,-z
1/2+x,1/2-y,1/2+z
loop_
_atom_site_type_symbol
_atom_site_label
_atom_site_fract_x
_atom_site_fract_y
_atom_site_fract_z
Si Si1 0.034088 0.902421 0.942907
Si Si2 0.210746 0.856589 0.217550
Si Si3 0.500000 0.274241 0.750000
Si Si4 0.793490 0.471912 0.430972
O O1 0.998910 0.827843 0.867180
O O2 0.154198 0.960881 0.875936
O O3 0.172514 0.888423 0.077139
O O4 0.834219 0.934614 0.973980
O O5 0.320882 0.780608 0.225817
O O6 0.311945 0.914227 0.321422
O O7 0.000000 0.844884 0.250000
O O8 0.000000 0.500000 0.500000
#
# Coordination Sequence:
#
# PCOD9290553 Si02
#       4
#     8   8   4   8
#     4  10  24  40  63  95 130 163 218 265 312 380
#     4  10  23  42  64  91 133 168 211 266 318 377
#     4  12  24  40  66  94 132 170 208 262 326 382
#     4  10  22  41  67  91 125 171 216 262 315 374
#
# _framework density 20.459325
#
# number of rings (size 3 to 8) (size 9 to 14) (size 15 to 20)
#    0.000    1.714    0.000    2.571   10.000    6.857 
#    0.000    0.000    0.000    0.000    0.000    0.000 
#    0.000    0.000    0.000    0.000    0.000    0.000 
#
# Total GULP energy -78273.210923 kJ/mol
# GULP energy per Si atom -5590.943637 kJ/mol
# Density = 2.041276 g / cm^3
# Si number density = 20.459325 Si / 1000 Ang^3
#
#
#
# Elastic Constant Matrix: (Units=GPa)
#
#
# Indices 1 2 3 4 5 6 
#
# 1 116.7637 68.3394 54.1575 0.0000 25.8217 0.0000
# 2 68.3394 157.1652 56.3563 0.0000 10.6803 0.0000
# 3 54.1575 56.3563 87.7559 0.0000 17.9043 0.0000
# 4 0.0000 0.0000 0.0000 195.4756 0.0000 51.2693
# 5 25.8217 10.6803 17.9043 0.0000 24.2214 0.0000
# 6 0.0000 0.0000 0.0000 51.2693 0.0000 60.9286
#
#
#
# Elastic Compliance Matrix: (Units=1/GPa)
#
#
# Indices 1 2 3 4 5 6 
#
# 1 0.015850 -0.004475 -0.004549 0.000000 -0.011562 0.000000
# 2 -0.004475 0.009532 -0.004093 0.000000 0.003593 0.000000
# 3 -0.004549 -0.004093 0.018221 0.000000 -0.006815 0.000000
# 4 0.000000 0.000000 0.000000 0.006565 0.000000 -0.005524
# 5 -0.011562 0.003593 -0.006815 0.000000 0.057064 0.000000
# 6 0.000000 0.000000 0.000000 -0.005524 0.000000 0.021061
#
#
# Mechanical properties :
#
#
# Convention : Reuss Voigt Hill
#
# Bulk Modulus (GPa) = 57.57112 79.93234 68.75173
# Shear Modulus (GPa) = 31.18821 68.31388 49.75105
#
# Velocity S-wave (km/s) = 3.90859 5.78469 4.93658
# Velocity P-wave (km/s) = 6.96921 9.15262 8.13451
#
# Compressibility (1/GPa) = 0.01736982
#
# Stress axis : x y z
#
# Youngs Moduli (GPa) = 63.09039 104.90914 54.88095
#
# Poissons Ratio (x) = 0.46949 0.24965
# Poissons Ratio (y) = 0.28235 0.22461
# Poissons Ratio (z) = 0.28700 0.42936
#
# Static dielectric constant tensor:
#      x y z
#    x 1.717040 0.000000 -0.011370 
#    y 0.000000 1.705790 0.000000 
#    z -0.011370 0.000000 1.758280 
# 
# From -- ./inp_files/75886.got.cif
#   From: 2010.05.17/outbox.cif.g08.bks.cpg/sg15_38_cif.got.tgz:75886.got - 2010.06.03 18:47:42.
