data_PCOD9290806
_publ_section_title
;
Structure prediction by ZEFSAII (Michael W. Deem and Ramdas Pophale) SiO2 
 PCOD9290806
Probable space group: C 2/C
;
_chemical_formula_sum "Si O2"
_cell_formula_units_Z 44
_cell_length_a 9.830858
_cell_length_b 9.538562
_cell_length_c 24.169994
_cell_angle_alpha 90.000000
_cell_angle_beta 111.903425
_cell_angle_gamma 90.000000
_cell_volume 2102.866843
_symmetry_space_group_name_H-M "C 2/C"
_symmetry_group_IT_number 15
_symmetry_cell_setting 'monoclinic'
loop_
_space_group_symop_operation_xyz
x,y,z
-x,y,1/2-z
-x,-y,-z
x,-y,1/2+z
1/2+x,1/2+y,z
1/2-x,1/2+y,1/2-z
1/2-x,1/2-y,-z
1/2+x,1/2-y,1/2+z
loop_
_atom_site_type_symbol
_atom_site_label
_atom_site_fract_x
_atom_site_fract_y
_atom_site_fract_z
Si Si1 0.734801 0.445210 0.772231
Si Si2 0.930402 0.589858 0.038475
Si Si3 0.000000 0.562294 0.250000
Si Si4 0.509234 0.099666 0.652850
Si Si5 0.916897 0.086765 0.534694
Si Si6 0.958529 0.912004 0.651796
O O1 0.822698 0.587934 0.800524
O O2 0.604062 0.450840 0.708695
O O3 0.667307 0.400051 0.820436
O O4 0.872862 0.362071 0.765286
O O5 0.972956 0.753095 0.043791
O O6 0.981358 0.512195 0.101366
O O7 0.754826 0.586021 0.006613
O O8 0.000000 0.500000 0.000000
O O9 0.076321 0.458942 0.306333
O O10 0.474834 0.255628 0.630318
O O11 0.932208 0.017769 0.597685
O O12 0.000000 0.000000 0.500000
#
# Coordination Sequence:
#
# PCOD9290806 Si02
#       6
#     8   8   4   8   8   8
#     4   9  22  40  66  98 133 168 213 268 325 391
#     4  11  25  48  65  95 134 174 223 273 331 389
#     4   8  20  42  60 104 124 178 208 266 332 382
#     4  10  22  41  70  93 135 173 215 271 327 388
#     4  11  27  43  68  99 130 175 224 273 326 395
#     4  11  22  43  67 101 133 173 222 271 328 391
#
# _framework density 20.923815999999999
#
# number of rings (size 3 to 8) (size 9 to 14) (size 15 to 20)
#    1.091    0.727    0.000    3.273    2.545    7.273 
#    0.000    0.000    0.000    0.000    0.000    0.000 
#    0.000    0.000    0.000    0.000    0.000    0.000 
#
# Total GULP energy -122599.363104 kJ/mol
# GULP energy per Si atom -5572.698323 kJ/mol
# Density = 2.087619 g / cm^3
# Si number density = 20.923816 Si / 1000 Ang^3
#
#
#
# Elastic Constant Matrix: (Units=GPa)
#
#
# Indices 1 2 3 4 5 6 
#
# 1 115.0005 47.6628 36.1211 0.0000 -18.6360 0.0000
# 2 47.6628 155.8666 72.1875 0.0000 -10.9387 0.0000
# 3 36.1211 72.1875 148.2011 0.0000 -19.9998 0.0000
# 4 0.0000 0.0000 0.0000 21.9382 0.0000 -2.3573
# 5 -18.6360 -10.9387 -19.9998 0.0000 29.1823 0.0000
# 6 0.0000 0.0000 0.0000 -2.3573 0.0000 4.3292
#
#
#
# Elastic Compliance Matrix: (Units=1/GPa)
#
#
# Indices 1 2 3 4 5 6 
#
# 1 0.010886 -0.002657 -0.000612 0.000000 0.005537 0.000000
# 2 -0.002657 0.008937 -0.003837 0.000000 -0.000977 0.000000
# 3 -0.000612 -0.003837 0.009387 0.000000 0.004604 0.000000
# 4 0.000000 0.000000 0.000000 0.048415 0.000000 0.026362
# 5 0.005537 -0.000977 0.004604 0.000000 0.040593 0.000000
# 6 0.000000 0.000000 0.000000 0.026362 0.000000 0.245343
#
#
# Mechanical properties :
#
#
# Convention : Reuss Voigt Hill
#
# Bulk Modulus (GPa) = 66.67594 81.22343 73.94969
# Shear Modulus (GPa) = 13.06259 28.62973 20.84616
#
# Velocity S-wave (km/s) = 2.50130 3.70305 3.15983
# Velocity P-wave (km/s) = 6.34643 7.56216 6.98081
#
# Compressibility (1/GPa) = 0.01499791
#
# Stress axis : x y z
#
# Youngs Moduli (GPa) = 91.85900 111.89614 106.52804
#
# Poissons Ratio (x) = 0.29730 0.06519
# Poissons Ratio (y) = 0.24406 0.40878
# Poissons Ratio (z) = 0.05621 0.42938
#
# Static dielectric constant tensor:
#      x y z
#    x 1.880870 0.000000 -0.124520 
#    y 0.000000 1.760710 0.000000 
#    z -0.124520 0.000000 1.915150 
# 
# From -- ./inp_files/236208.got.cif
#   From: 2010.05.17/outbox.cif.g08.bks.cpg/sg15_119_cif.got.tgz:236208.got - 2010.06.03 18:47:42.
