data_PCOD9290248
_publ_section_title
;
Structure prediction by ZEFSAII (Michael W. Deem and Ramdas Pophale) SiO2 
 PCOD9290248
Probable space group: C 2/C
;
_chemical_formula_sum "Si O2"
_cell_formula_units_Z 64
_cell_length_a 8.688879
_cell_length_b 22.490782
_cell_length_c 16.746634
_cell_angle_alpha 90.000000
_cell_angle_beta 80.487597
_cell_angle_gamma 90.000000
_cell_volume 3227.622872
_symmetry_space_group_name_H-M "C 2/C"
_symmetry_group_IT_number 15
_symmetry_cell_setting 'monoclinic'
loop_
_space_group_symop_operation_xyz
x,y,z
-x,y,1/2-z
-x,-y,-z
x,-y,1/2+z
1/2+x,1/2+y,z
1/2-x,1/2+y,1/2-z
1/2-x,1/2-y,-z
1/2+x,1/2-y,1/2+z
loop_
_atom_site_type_symbol
_atom_site_label
_atom_site_fract_x
_atom_site_fract_y
_atom_site_fract_z
Si Si1 0.042771 0.974083 0.911637
Si Si2 0.850010 0.600643 0.403362
Si Si3 0.936597 0.902044 0.165760
Si Si4 0.827336 0.693300 0.259432
Si Si5 0.323105 0.818384 0.242254
Si Si6 0.588595 0.999511 0.321391
Si Si7 0.662439 0.409112 0.691225
Si Si8 0.779271 0.389097 0.087605
O O1 0.184254 0.930364 0.910355
O O2 0.897827 0.937542 0.886288
O O3 0.101176 0.031167 0.856784
O O4 0.000000 0.000000 0.000000
O O5 0.837495 0.652581 0.338393
O O6 0.859389 0.620501 0.495094
O O7 0.978579 0.550008 0.371505
O O8 0.794701 0.855185 0.188483
O O9 0.000000 0.905420 0.250000
O O10 0.089437 0.888393 0.098514
O O11 0.714903 0.748761 0.258436
O O12 0.775170 0.647567 0.193423
O O13 0.000000 0.720827 0.250000
O O14 0.500000 0.829009 0.250000
O O15 0.307339 0.840858 0.153115
O O16 0.500000 0.975702 0.250000
O O17 0.737850 0.037371 0.280146
O O18 0.651444 0.949668 0.377339
O O19 0.500000 0.396199 0.750000
#
# Coordination Sequence:
#
# PCOD9290248 Si02
#       8
#     8   8   8   8   8   8   8   8
#     4  12  23  38  64 102 140 176 207 263 339 403
#     4  12  24  40  65 101 138 172 211 274 337 387
#     4  10  22  41  64  91 132 172 217 262 321 389
#     4  12  24  46  72  96 127 175 229 275 324 388
#     4  11  27  47  70  95 123 176 233 276 320 390
#     4  12  22  39  63  99 137 173 220 260 325 394
#     4  12  21  38  65  97 131 169 218 269 320 388
#     4  11  24  41  64  97 135 176 208 269 333 391
#
# _framework density 19.828832999999999
#
# number of rings (size 3 to 8) (size 9 to 14) (size 15 to 20)
#    0.000    0.500    6.250    2.625    7.000    0.500 
#    0.000    0.000    0.000    2.250    0.000    0.000 
#    0.000    0.000    0.000    0.000    0.000    0.000 
#
# Total GULP energy -178367.927062 kJ/mol
# GULP energy per Si atom -5573.997721 kJ/mol
# Density = 1.978370 g / cm^3
# Si number density = 19.828833 Si / 1000 Ang^3
#
#
#
# Elastic Constant Matrix: (Units=GPa)
#
#
# Indices 1 2 3 4 5 6 
#
# 1 92.5466 20.7371 22.6659 0.0000 12.0664 0.0000
# 2 20.7371 98.3414 26.5267 0.0000 9.4346 0.0000
# 3 22.6659 26.5267 69.7599 0.0000 -5.2891 0.0000
# 4 0.0000 0.0000 0.0000 8.5917 0.0000 11.5716
# 5 12.0664 9.4346 -5.2891 0.0000 23.3151 0.0000
# 6 0.0000 0.0000 0.0000 11.5716 0.0000 37.9347
#
#
#
# Elastic Compliance Matrix: (Units=1/GPa)
#
#
# Indices 1 2 3 4 5 6 
#
# 1 0.013062 -0.000828 -0.004494 0.000000 -0.007444 0.000000
# 2 -0.000828 0.012168 -0.004781 0.000000 -0.005580 0.000000
# 3 -0.004494 -0.004781 0.018250 0.000000 0.008400 0.000000
# 4 0.000000 0.000000 0.000000 0.197557 0.000000 -0.060263
# 5 -0.007444 -0.005580 0.008400 0.000000 0.050907 0.000000
# 6 0.000000 0.000000 0.000000 -0.060263 0.000000 0.044744
#
#
# Mechanical properties :
#
#
# Convention : Reuss Voigt Hill
#
# Bulk Modulus (GPa) = 42.96514 44.50084 43.73299
# Shear Modulus (GPa) = 13.71172 26.68284 20.19728
#
# Velocity S-wave (km/s) = 2.63250 3.67230 3.19498
# Velocity P-wave (km/s) = 5.56373 6.36178 5.97609
#
# Compressibility (1/GPa) = 0.02327468
#
# Stress axis : x y z
#
# Youngs Moduli (GPa) = 76.55758 82.18108 54.79504
#
# Poissons Ratio (x) = 0.06805 0.24623
# Poissons Ratio (y) = 0.06340 0.26198
# Poissons Ratio (z) = 0.34402 0.39291
#
# Static dielectric constant tensor:
#      x y z
#    x 1.730720 0.000000 0.093040 
#    y 0.000000 1.712310 0.000000 
#    z 0.093040 0.000000 1.403290 
# 
# From -- ./inp_files/137821.got.cif
#   From: 2010.05.17/outbox.cif.g08.bks.cpg/sg15_69_cif.got.tgz:137821.got - 2010.06.03 18:47:42.
