data_PCOD9290563
_publ_section_title
;
Structure prediction by ZEFSAII (Michael W. Deem and Ramdas Pophale) SiO2 
 PCOD9290563
Probable space group: C 2/C
;
_chemical_formula_sum "Si O2"
_cell_formula_units_Z 52
_cell_length_a 22.105458
_cell_length_b 8.093210
_cell_length_c 13.488392
_cell_angle_alpha 90.000000
_cell_angle_beta 75.143519
_cell_angle_gamma 90.000000
_cell_volume 2332.460588
_symmetry_space_group_name_H-M "C 2/C"
_symmetry_group_IT_number 15
_symmetry_cell_setting 'monoclinic'
loop_
_space_group_symop_operation_xyz
x,y,z
-x,y,1/2-z
-x,-y,-z
x,-y,1/2+z
1/2+x,1/2+y,z
1/2-x,1/2+y,1/2-z
1/2-x,1/2-y,-z
1/2+x,1/2-y,1/2+z
loop_
_atom_site_type_symbol
_atom_site_label
_atom_site_fract_x
_atom_site_fract_y
_atom_site_fract_z
Si Si1 0.948435 0.926167 0.594818
Si Si2 0.192906 0.416132 0.372669
Si Si3 0.452317 0.058323 0.601969
Si Si4 0.500000 0.171794 0.250000
Si Si5 0.677642 0.583995 0.481248
Si Si6 0.383982 0.364674 0.289595
Si Si7 0.222443 0.214217 0.829456
O O1 0.968158 0.745667 0.620831
O O2 0.886077 0.914926 0.555708
O O3 0.928071 0.025669 0.700296
O O4 0.000000 0.000000 0.500000
O O5 0.119057 0.449645 0.402566
O O6 0.204739 0.267914 0.445689
O O7 0.223365 0.598355 0.369301
O O8 0.216507 0.336843 0.259149
O O9 0.500000 0.000000 0.500000
O O10 0.464056 0.937820 0.686635
O O11 0.439695 0.263999 0.321814
O O12 0.658020 0.563851 0.603914
O O13 0.713418 0.427642 0.416848
O O14 0.334053 0.291156 0.230038
#
# Coordination Sequence:
#
# PCOD9290563 Si02
#       7
#     8   8   8   4   8   8   8
#     4  10  22  41  67  92 138 184 220 282 350 423
#     4  11  22  46  68  99 136 186 235 285 357 417
#     4  11  24  42  66 101 135 175 228 284 356 420
#     4  12  22  40  64  98 138 174 214 290 340 412
#     4  10  23  41  66  98 134 178 229 289 347 413
#     4  11  23  43  66 104 135 178 236 285 348 418
#     4  11  23  44  73  93 140 185 230 292 351 421
#
# _framework density 22.294051
#
# number of rings (size 3 to 8) (size 9 to 14) (size 15 to 20)
#    0.000    1.231    3.077    3.692    2.154    2.462 
#    2.769    0.769    0.000    0.000    0.000    0.000 
#    0.000    0.000    0.000    0.000    0.000    0.000 
#
# Total GULP energy -145122.790642 kJ/mol
# GULP energy per Si atom -5581.645794 kJ/mol
# Density = 2.224331 g / cm^3
# Si number density = 22.294051 Si / 1000 Ang^3
#
#
#
# Elastic Constant Matrix: (Units=GPa)
#
#
# Indices 1 2 3 4 5 6 
#
# 1 89.5639 30.2259 32.1268 0.0000 -13.5306 0.0000
# 2 30.2259 120.2969 60.9439 0.0000 -15.2592 0.0000
# 3 32.1268 60.9439 158.0000 0.0000 -23.7227 0.0000
# 4 0.0000 0.0000 0.0000 21.6457 0.0000 -18.1254
# 5 -13.5306 -15.2592 -23.7227 0.0000 41.3584 0.0000
# 6 0.0000 0.0000 0.0000 -18.1254 0.0000 16.4008
#
#
#
# Elastic Compliance Matrix: (Units=1/GPa)
#
#
# Indices 1 2 3 4 5 6 
#
# 1 0.012786 -0.002192 -0.001365 0.000000 0.002591 0.000000
# 2 -0.002192 0.010814 -0.003539 0.000000 0.001243 0.000000
# 3 -0.001365 -0.003539 0.008435 0.000000 0.003086 0.000000
# 4 0.000000 0.000000 0.000000 0.619411 0.000000 0.684542
# 5 0.002591 0.001243 0.003086 0.000000 0.027255 0.000000
# 6 0.000000 0.000000 0.000000 0.684542 0.000000 0.817494
#
#
# Mechanical properties :
#
#
# Convention : Reuss Voigt Hill
#
# Bulk Modulus (GPa) = 56.04580 68.27268 62.15924
# Shear Modulus (GPa) = 3.29742 32.18526 17.74134
#
# Velocity S-wave (km/s) = 1.21749 3.80369 2.82403
# Velocity P-wave (km/s) = 5.21251 7.06972 6.21093
#
# Compressibility (1/GPa) = 0.01784255
#
# Stress axis : x y z
#
# Youngs Moduli (GPa) = 78.20910 92.47194 118.55299
#
# Poissons Ratio (x) = 0.20273 0.16185
# Poissons Ratio (y) = 0.17146 0.41954
# Poissons Ratio (z) = 0.10677 0.32724
#
# Static dielectric constant tensor:
#      x y z
#    x 2.205370 0.000000 -2.866370 
#    y 0.000000 1.946910 0.000000 
#    z -2.866370 0.000000 26.347410 
# 
# From -- ./inp_files/171768.got.cif
#   From: 2010.05.17/outbox.cif.g08.bks.cpg/sg15_86_cif.got.tgz:171768.got - 2010.06.03 18:47:42.
