data_PCOD9290755
_publ_section_title
;
Structure prediction by ZEFSAII (Michael W. Deem and Ramdas Pophale) SiO2 
 PCOD9290755
Probable space group: C 2/C
;
_chemical_formula_sum "Si O2"
_cell_formula_units_Z 56
_cell_length_a 30.720454
_cell_length_b 11.491261
_cell_length_c 9.022214
_cell_angle_alpha 90.000000
_cell_angle_beta 135.263651
_cell_angle_gamma 90.000000
_cell_volume 2241.742783
_symmetry_space_group_name_H-M "C 2/C"
_symmetry_group_IT_number 15
_symmetry_cell_setting 'monoclinic'
loop_
_space_group_symop_operation_xyz
x,y,z
-x,y,1/2-z
-x,-y,-z
x,-y,1/2+z
1/2+x,1/2+y,z
1/2-x,1/2+y,1/2-z
1/2-x,1/2-y,-z
1/2+x,1/2-y,1/2+z
loop_
_atom_site_type_symbol
_atom_site_label
_atom_site_fract_x
_atom_site_fract_y
_atom_site_fract_z
Si Si1 0.425759 0.102479 0.332483
Si Si2 0.066423 0.810343 0.567655
Si Si3 0.500000 0.500654 0.250000
Si Si4 0.910520 0.785233 0.533233
Si Si5 0.665843 0.244214 0.605379
Si Si6 0.500000 0.100406 0.250000
Si Si7 0.684052 0.956696 0.374940
Si Si8 0.214996 0.345249 0.759839
O O1 0.446037 0.194707 0.508277
O O2 0.465633 0.038405 0.300825
O O3 0.384651 0.007397 0.314725
O O4 0.380225 0.180209 0.119222
O O5 0.013514 0.907545 0.415414
O O6 0.083583 0.780032 0.775235
O O7 0.041145 0.691592 0.439877
O O8 0.058191 0.912031 0.911672
O O9 0.874062 0.835664 0.892998
O O10 0.838391 0.749547 0.333499
O O11 0.721553 0.294058 0.645602
O O12 0.692555 0.153178 0.789857
O O13 0.724741 0.065216 0.418448
O O14 0.691140 0.922080 0.562203
#
# Coordination Sequence:
#
# PCOD9290755 Si02
#       8
#     8   8   4   8   8   4   8   8
#     4  10  23  43  70 101 137 186 230 293 354 416
#     4  10  22  41  69  97 140 186 226 291 350 425
#     4  11  24  44  67 106 146 185 236 286 367 422
#     4  11  23  41  70 101 140 180 235 293 345 419
#     4  11  23  45  66  99 146 182 236 292 356 418
#     4   9  20  42  67  98 136 177 228 284 345 410
#     4  11  22  44  68  96 141 182 232 290 346 424
#     4  11  25  44  71 102 137 188 239 293 355 422
#
# _framework density 24.980564999999999
#
# number of rings (size 3 to 8) (size 9 to 14) (size 15 to 20)
#    0.000    1.429    2.857    1.714    0.000    5.714 
#    2.571    3.571    0.000    0.000    0.000    0.000 
#    0.000    0.000    0.000    0.000    0.000    0.000 
#
# Total GULP energy -156360.515035 kJ/mol
# GULP energy per Si atom -5584.304108 kJ/mol
# Density = 2.492371 g / cm^3
# Si number density = 24.980565 Si / 1000 Ang^3
#
#
#
# Elastic Constant Matrix: (Units=GPa)
#
#
# Indices 1 2 3 4 5 6 
#
# 1 126.2171 27.5331 8.7949 0.0000 -21.2815 0.0000
# 2 27.5331 92.2482 29.5912 0.0000 -6.6069 0.0000
# 3 8.7949 29.5912 92.0607 0.0000 -26.9626 0.0000
# 4 0.0000 0.0000 0.0000 31.7010 0.0000 -2.9084
# 5 -21.2815 -6.6069 -26.9626 0.0000 31.6990 0.0000
# 6 0.0000 0.0000 0.0000 -2.9084 0.0000 41.6672
#
#
#
# Elastic Compliance Matrix: (Units=1/GPa)
#
#
# Indices 1 2 3 4 5 6 
#
# 1 0.009777 -0.003117 0.002397 0.000000 0.007953 0.000000
# 2 -0.003117 0.013107 -0.004965 0.000000 -0.003584 0.000000
# 3 0.002397 -0.004965 0.016511 0.000000 0.014618 0.000000
# 4 0.000000 0.000000 0.000000 0.031748 0.000000 0.002216
# 5 0.007953 -0.003584 0.014618 0.000000 0.048573 0.000000
# 6 0.000000 0.000000 0.000000 0.002216 0.000000 0.024154
#
#
# Mechanical properties :
#
#
# Convention : Reuss Voigt Hill
#
# Bulk Modulus (GPa) = 35.68332 49.15162 42.41747
# Shear Modulus (GPa) = 30.38014 37.32054 33.85034
#
# Velocity S-wave (km/s) = 3.49112 3.86940 3.68512
# Velocity P-wave (km/s) = 5.52865 6.29934 5.92654
#
# Compressibility (1/GPa) = 0.02802430
#
# Stress axis : x y z
#
# Youngs Moduli (GPa) = 102.28245 76.29690 60.56715
#
# Poissons Ratio (x) = 0.23785 -0.14520
# Poissons Ratio (y) = 0.31886 0.30070
# Poissons Ratio (z) = -0.24521 0.37880
#
# Static dielectric constant tensor:
#      x y z
#    x 2.135590 0.000000 0.046710 
#    y 0.000000 1.969010 0.000000 
#    z 0.046710 0.000000 1.960380 
# 
# From -- ./inp_files/69784.got.cif
#   From: 2010.05.17/outbox.cif.g08.bks.cpg/sg15_35_cif.got.tgz:69784.got - 2010.06.03 18:47:42.
