data_PCOD9290351
_publ_section_title
;
Structure prediction by ZEFSAII (Michael W. Deem and Ramdas Pophale) SiO2 
 PCOD9290351
Probable space group: C 2/C
;
_chemical_formula_sum "Si O2"
_cell_formula_units_Z 44
_cell_length_a 8.512928
_cell_length_b 19.752406
_cell_length_c 15.104185
_cell_angle_alpha 90.000000
_cell_angle_beta 55.894106
_cell_angle_gamma 90.000000
_cell_volume 2102.945371
_symmetry_space_group_name_H-M "C 2/C"
_symmetry_group_IT_number 15
_symmetry_cell_setting 'monoclinic'
loop_
_space_group_symop_operation_xyz
x,y,z
-x,y,1/2-z
-x,-y,-z
x,-y,1/2+z
1/2+x,1/2+y,z
1/2-x,1/2+y,1/2-z
1/2-x,1/2-y,-z
1/2+x,1/2-y,1/2+z
loop_
_atom_site_type_symbol
_atom_site_label
_atom_site_fract_x
_atom_site_fract_y
_atom_site_fract_z
Si Si1 0.816636 0.423603 0.599546
Si Si2 0.855322 0.059801 0.531258
Si Si3 0.082777 0.839940 0.076087
Si Si4 0.306334 0.072602 0.639325
Si Si5 0.500000 0.073455 0.750000
Si Si6 0.509835 0.188047 0.143895
O O1 0.674193 0.422206 0.561780
O O2 0.769469 0.492650 0.667475
O O3 0.019785 0.428692 0.485206
O O4 0.847600 0.356610 0.647360
O O5 0.658171 0.037073 0.640062
O O6 0.936705 0.123408 0.557830
O O7 0.000000 0.000000 0.500000
O O8 0.142507 0.888373 0.138793
O O9 0.997467 0.768515 0.133109
O O10 0.281377 0.829062 0.960978
O O11 0.378041 0.106883 0.708109
O O12 0.500000 0.172091 0.250000
#
# Coordination Sequence:
#
# PCOD9290351 Si02
#       6
#     8   8   8   8   4   8
#     4   9  19  37  59  89 127 162 204 273 318 372
#     4  11  22  41  63  97 129 167 214 277 326 385
#     4  10  22  41  65  92 129 171 217 269 325 395
#     4   9  18  36  60  90 124 161 213 262 319 381
#     4  10  24  34  62  98 126 170 208 272 324 390
#     4  10  23  40  65  91 129 176 214 263 328 401
#
# _framework density 20.923034999999999
#
# number of rings (size 3 to 8) (size 9 to 14) (size 15 to 20)
#    0.000    2.182    1.818    0.000    6.364    0.727 
#    0.000    2.727    0.000    0.000    0.000    0.000 
#    0.000    0.000    0.000    0.000    0.000    0.000 
#
# Total GULP energy -122663.079059 kJ/mol
# GULP energy per Si atom -5575.594503 kJ/mol
# Density = 2.087541 g / cm^3
# Si number density = 20.923035 Si / 1000 Ang^3
#
#
#
# Elastic Constant Matrix: (Units=GPa)
#
#
# Indices 1 2 3 4 5 6 
#
# 1 134.9668 72.0616 28.6305 0.0000 42.9380 0.0000
# 2 72.0616 125.3820 29.2840 0.0000 25.7530 0.0000
# 3 28.6305 29.2840 62.7827 0.0000 23.8071 0.0000
# 4 0.0000 0.0000 0.0000 1.1404 0.0000 9.0206
# 5 42.9380 25.7530 23.8071 0.0000 42.8385 0.0000
# 6 0.0000 0.0000 0.0000 9.0206 0.0000 36.2586
#
#
#
# Elastic Compliance Matrix: (Units=1/GPa)
#
#
# Indices 1 2 3 4 5 6 
#
# 1 0.013809 -0.005872 0.000445 0.000000 -0.010559 0.000000
# 2 -0.005872 0.011987 -0.003057 0.000000 0.000378 0.000000
# 3 0.000445 -0.003057 0.021061 0.000000 -0.010314 0.000000
# 4 0.000000 0.000000 0.000000 -0.905942 0.000000 0.225386
# 5 -0.010559 0.000378 -0.010314 0.000000 0.039431 0.000000
# 6 0.000000 0.000000 0.000000 0.225386 0.000000 -0.028493
#
#
# Mechanical properties :
#
#
# Convention : Reuss Voigt Hill
#
# Bulk Modulus (GPa) = 33.45513 64.78706 49.12109
# Shear Modulus (GPa) = -6.08852 28.92453 11.41801
#
# Velocity S-wave (km/s) = -1.70771 3.72213 2.33859
# Velocity P-wave (km/s) = 3.48367 7.03591 5.55158
#
# Compressibility (1/GPa) = 0.02989078
#
# Stress axis : x y z
#
# Youngs Moduli (GPa) = 72.41699 83.42651 47.48005
#
# Poissons Ratio (x) = 0.48987 -0.02115
# Poissons Ratio (y) = 0.42522 0.14513
# Poissons Ratio (z) = -0.03225 0.25501
#
# Static dielectric constant tensor:
#      x y z
#    x 1.787040 0.000000 -0.010120 
#    y 0.000000 1.775370 0.000000 
#    z -0.010120 0.000000 1.768120 
# 
# From -- ./inp_files/134745.got.cif
#   From: 2010.05.17/outbox.cif.g08.bks.cpg/sg15_68_cif.got.tgz:134745.got - 2010.06.03 18:47:42.
