data_PCOD9290358
_publ_section_title
;
Structure prediction by ZEFSAII (Michael W. Deem and Ramdas Pophale) SiO2 
 PCOD9290358
Probable space group: C 2/C
;
_chemical_formula_sum "Si O2"
_cell_formula_units_Z 64
_cell_length_a 17.104663
_cell_length_b 19.872782
_cell_length_c 18.990614
_cell_angle_alpha 90.000000
_cell_angle_beta 151.000909
_cell_angle_gamma 90.000000
_cell_volume 3129.471464
_symmetry_space_group_name_H-M "C 2/C"
_symmetry_group_IT_number 15
_symmetry_cell_setting 'monoclinic'
loop_
_space_group_symop_operation_xyz
x,y,z
-x,y,1/2-z
-x,-y,-z
x,-y,1/2+z
1/2+x,1/2+y,z
1/2-x,1/2+y,1/2-z
1/2-x,1/2-y,-z
1/2+x,1/2-y,1/2+z
loop_
_atom_site_type_symbol
_atom_site_label
_atom_site_fract_x
_atom_site_fract_y
_atom_site_fract_z
Si Si1 0.320359 0.554565 0.078278
Si Si2 0.509998 0.926976 0.427413
Si Si3 0.398991 0.702078 0.599535
Si Si4 0.110455 0.802946 0.905785
Si Si5 0.645778 0.783640 0.696936
Si Si6 0.465835 0.219779 0.913468
Si Si7 0.823010 0.418379 0.575134
Si Si8 0.969745 0.574417 0.388027
O O1 0.500000 0.540846 0.250000
O O2 0.324761 0.621804 0.035266
O O3 0.192174 0.568125 0.040565
O O4 0.250888 0.492382 0.979884
O O5 0.444829 0.852513 0.358685
O O6 0.503368 0.927180 0.507104
O O7 0.427286 0.996670 0.335900
O O8 0.500000 0.688422 0.750000
O O9 0.250000 0.750000 0.500000
O O10 0.513009 0.742056 0.635660
O O11 0.309954 0.634374 0.504555
O O12 0.000000 0.805639 0.750000
O O13 0.011309 0.775985 0.893277
O O14 0.250000 0.750000 0.000000
O O15 0.604456 0.785200 0.581285
O O16 0.810047 0.743392 0.833082
O O17 0.645975 0.862370 0.718935
O O18 0.000000 0.412347 0.750000
O O19 0.867834 0.408296 0.527497
#
# Coordination Sequence:
#
# PCOD9290358 Si02
#       8
#     8   8   8   8   8   8   8   8
#     4  10  22  41  65  93 122 165 212 259 315 382
#     4   9  19  40  64  89 120 164 211 253 313 377
#     4  12  24  41  65  95 128 168 213 261 318 377
#     4  11  22  39  64  92 129 168 208 260 317 373
#     4  11  24  39  65  90 128 165 209 259 314 376
#     4  11  23  41  61  95 126 168 211 259 315 376
#     4  11  24  43  65  93 126 164 210 266 321 375
#     4   9  20  38  64  84 119 162 207 250 312 368
#
# _framework density 20.450738000000001
#
# number of rings (size 3 to 8) (size 9 to 14) (size 15 to 20)
#    0.000    1.500    2.500    2.250    8.750    0.500 
#    6.750    0.000    0.000    2.250    0.000    0.000 
#    0.000    0.000    0.000    0.000    0.000    0.000 
#
# Total GULP energy -178526.015347 kJ/mol
# GULP energy per Si atom -5578.937980 kJ/mol
# Density = 2.040419 g / cm^3
# Si number density = 20.450738 Si / 1000 Ang^3
#
#
#
# Elastic Constant Matrix: (Units=GPa)
#
#
# Indices 1 2 3 4 5 6 
#
# 1 97.1276 34.0056 12.7729 -0.0020 11.0903 -0.0008
# 2 34.0056 167.4813 46.9570 -0.0013 9.5164 -0.0003
# 3 12.7729 46.9570 77.8067 -0.0061 9.3310 -0.0029
# 4 -0.0020 -0.0013 -0.0061 24.5348 -0.0027 5.8434
# 5 11.0903 9.5164 9.3310 -0.0027 32.3489 -0.0011
# 6 -0.0008 -0.0003 -0.0029 5.8434 -0.0011 32.6503
#
#
#
# Elastic Compliance Matrix: (Units=1/GPa)
#
#
# Indices 1 2 3 4 5 6 
#
# 1 0.011421 -0.002068 -0.000238 0.000000 -0.003238 0.000000
# 2 -0.002068 0.007586 -0.004202 -0.000001 -0.000311 0.000000
# 3 -0.000238 -0.004202 0.015816 0.000003 -0.003244 0.000001
# 4 0.000000 -0.000001 0.000003 0.042573 0.000003 -0.007619
# 5 -0.003238 -0.000311 -0.003244 0.000003 0.033050 0.000000
# 6 0.000000 0.000000 0.000001 -0.007619 0.000000 0.031991
#
#
# Mechanical properties :
#
#
# Convention : Reuss Voigt Hill
#
# Bulk Modulus (GPa) = 45.85619 58.87627 52.36623
# Shear Modulus (GPa) = 30.72689 34.48547 32.60618
#
# Velocity S-wave (km/s) = 3.88039 4.11088 3.99730
# Velocity P-wave (km/s) = 6.52289 7.16828 6.85318
#
# Compressibility (1/GPa) = 0.02180731
#
# Stress axis : x y z
#
# Youngs Moduli (GPa) = 87.55870 131.81461 63.22573
#
# Poissons Ratio (x) = 0.27260 0.01507
# Poissons Ratio (y) = 0.18108 0.26566
# Poissons Ratio (z) = 0.02088 0.55384
#
# Static dielectric constant tensor:
#      x y z
#    x 1.737110 0.000000 -0.024790 
#    y 0.000000 1.801050 0.000000 
#    z -0.024790 0.000000 1.732140 
# 
# From -- ./inp_files/249653.got.cif
#   From: 2010.05.17/outbox.cif.g08.bks.cpg/sg15_125_cif.got.tgz:249653.got - 2010.06.03 18:47:42.
