data_PCOD9290575
_publ_section_title
;
Structure prediction by ZEFSAII (Michael W. Deem and Ramdas Pophale) SiO2 
 PCOD9290575
Probable space group: C 2/C
;
_chemical_formula_sum "Si O2"
_cell_formula_units_Z 52
_cell_length_a 10.016412
_cell_length_b 20.694912
_cell_length_c 13.763986
_cell_angle_alpha 90.000000
_cell_angle_beta 60.221247
_cell_angle_gamma 90.000000
_cell_volume 2476.364313
_symmetry_space_group_name_H-M "C 2/C"
_symmetry_group_IT_number 15
_symmetry_cell_setting 'monoclinic'
loop_
_space_group_symop_operation_xyz
x,y,z
-x,y,1/2-z
-x,-y,-z
x,-y,1/2+z
1/2+x,1/2+y,z
1/2-x,1/2+y,1/2-z
1/2-x,1/2-y,-z
1/2+x,1/2-y,1/2+z
loop_
_atom_site_type_symbol
_atom_site_label
_atom_site_fract_x
_atom_site_fract_y
_atom_site_fract_z
Si Si1 0.524082 0.169368 0.891712
Si Si2 0.249901 0.871726 0.352468
Si Si3 0.836418 0.389804 0.820556
Si Si4 0.775990 0.000047 0.251652
Si Si5 0.507242 0.320835 0.923406
Si Si6 0.621222 0.943518 0.485294
Si Si7 0.000000 0.901641 0.750000
O O1 0.672600 0.163540 0.767642
O O2 0.380423 0.137320 0.887261
O O3 0.496184 0.243994 0.921563
O O4 0.554826 0.124900 0.972970
O O5 0.226752 0.945363 0.328254
O O6 0.090761 0.844499 0.449644
O O7 0.848673 0.445593 0.732943
O O8 0.685493 0.344951 0.862778
O O9 0.000000 0.353918 0.750000
O O10 0.822852 0.429722 0.926309
O O11 0.755392 0.964774 0.361983
O O12 0.918246 0.047614 0.208629
O O13 0.429081 0.352563 0.854820
O O14 0.500000 0.000000 0.500000
#
# Coordination Sequence:
#
# PCOD9290575 Si02
#       7
#     8   8   8   8   8   8   4
#     4  10  23  42  66  95 128 173 223 272 328 406
#     4  10  22  41  67  94 130 169 221 274 329 396
#     4  11  24  40  62  96 134 171 223 278 325 399
#     4  10  23  39  62  98 130 171 219 277 332 393
#     4  11  25  42  65  97 133 177 219 274 336 393
#     4  11  22  39  67  89 124 176 223 272 341 388
#     4  10  24  38  62  96 134 166 220 274 336 386
#
# _framework density 20.998525999999998
#
# number of rings (size 3 to 8) (size 9 to 14) (size 15 to 20)
#    0.000    1.538    1.538    2.308    8.615    3.077 
#    0.000    0.000    0.000    0.000    0.000    0.000 
#    0.000    0.000    0.000    0.000    0.000    0.000 
#
# Total GULP energy -144827.475923 kJ/mol
# GULP energy per Si atom -5570.287535 kJ/mol
# Density = 2.095073 g / cm^3
# Si number density = 20.998526 Si / 1000 Ang^3
#
#
#
# Elastic Constant Matrix: (Units=GPa)
#
#
# Indices 1 2 3 4 5 6 
#
# 1 42.2489 18.5118 13.3653 0.0000 -5.4606 0.0000
# 2 18.5118 121.8892 15.2259 0.0000 -9.1260 0.0000
# 3 13.3653 15.2259 59.9161 0.0000 -8.0018 0.0000
# 4 0.0000 0.0000 0.0000 13.4879 0.0000 5.4890
# 5 -5.4606 -9.1260 -8.0018 0.0000 28.7719 0.0000
# 6 0.0000 0.0000 0.0000 5.4890 0.0000 9.9033
#
#
#
# Elastic Compliance Matrix: (Units=1/GPa)
#
#
# Indices 1 2 3 4 5 6 
#
# 1 0.026990 -0.003292 -0.004818 0.000000 0.002738 0.000000
# 2 -0.003292 0.009007 -0.001305 0.000000 0.001869 0.000000
# 3 -0.004818 -0.001305 0.018610 0.000000 0.003847 0.000000
# 4 0.000000 0.000000 0.000000 0.095735 0.000000 -0.053062
# 5 0.002738 0.001869 0.003847 0.000000 0.036939 0.000000
# 6 0.000000 0.000000 0.000000 -0.053062 0.000000 0.130387
#
#
# Mechanical properties :
#
#
# Convention : Reuss Voigt Hill
#
# Bulk Modulus (GPa) = 27.95123 35.36224 31.65674
# Shear Modulus (GPa) = 14.35035 22.22936 18.28985
#
# Velocity S-wave (km/s) = 2.61702 3.25717 2.95448
# Velocity P-wave (km/s) = 4.74043 5.56978 5.17176
#
# Compressibility (1/GPa) = 0.03577660
#
# Stress axis : x y z
#
# Youngs Moduli (GPa) = 37.05085 111.02332 53.73389
#
# Poissons Ratio (x) = 0.36551 0.25890
# Poissons Ratio (y) = 0.12198 0.07012
# Poissons Ratio (z) = 0.17852 0.14487
#
# Static dielectric constant tensor:
#      x y z
#    x 1.874700 0.000000 0.009310 
#    y 0.000000 1.697590 0.000000 
#    z 0.009310 0.000000 1.802210 
# 
# From -- ./inp_files/145497.got.cif
#   From: 2010.05.17/outbox.cif.g08.bks.cpg/sg15_73_cif.got.tgz:145497.got - 2010.06.03 18:47:42.
