data_PCOD9290997
_publ_section_title
;
Structure prediction by ZEFSAII (Michael W. Deem and Ramdas Pophale) SiO2 
 PCOD9290997
Probable space group: C 2/C
;
_chemical_formula_sum "Si O2"
_cell_formula_units_Z 60
_cell_length_a 17.872230
_cell_length_b 5.160934
_cell_length_c 29.336923
_cell_angle_alpha 90.000000
_cell_angle_beta 70.828182
_cell_angle_gamma 90.000000
_cell_volume 2555.883491
_symmetry_space_group_name_H-M "C 2/C"
_symmetry_group_IT_number 15
_symmetry_cell_setting 'monoclinic'
loop_
_space_group_symop_operation_xyz
x,y,z
-x,y,1/2-z
-x,-y,-z
x,-y,1/2+z
1/2+x,1/2+y,z
1/2-x,1/2+y,1/2-z
1/2-x,1/2-y,-z
1/2+x,1/2-y,1/2+z
loop_
_atom_site_type_symbol
_atom_site_label
_atom_site_fract_x
_atom_site_fract_y
_atom_site_fract_z
Si Si1 0.330903 0.430841 0.283657
Si Si2 0.282499 0.966356 0.863753
Si Si3 0.501551 0.187303 0.153124
Si Si4 0.000000 0.043427 0.750000
Si Si5 0.804127 0.087380 0.032481
Si Si6 0.156720 0.414367 0.003706
Si Si7 0.175443 0.234565 0.820559
Si Si8 0.404206 0.694034 0.389474
O O1 0.337524 0.197673 0.318786
O O2 0.413656 0.592101 0.270519
O O3 0.247563 0.564607 0.310647
O O4 0.323622 0.345015 0.232696
O O5 0.252132 0.823464 0.915179
O O6 0.205593 0.015814 0.848650
O O7 0.327127 0.220903 0.875111
O O8 0.492362 0.280706 0.206859
O O9 0.413747 0.193130 0.149833
O O10 0.562432 0.402241 0.119837
O O11 0.531580 0.895746 0.142701
O O12 0.745371 0.002731 0.002723
O O13 0.868903 0.303133 0.008120
O O14 0.841052 0.805317 0.035070
O O15 0.113694 0.290697 0.055677
#
# Coordination Sequence:
#
# PCOD9290997 Si02
#       8
#     8   8   8   4   8   8   8   8
#     4  11  22  42  60  94 128 178 214 273 318 389
#     4  11  23  38  65  95 129 171 222 265 325 394
#     4  11  25  41  64  95 129 178 211 271 317 390
#     4  10  22  42  62  96 132 160 228 264 324 370
#     4   9  19  33  60  93 125 159 208 270 328 379
#     4   9  18  36  59  93 125 157 205 276 330 373
#     4  11  25  40  63  90 137 174 221 259 324 387
#     4  11  23  42  68  96 129 167 222 270 328 383
#
# _framework density 23.475248000000001
#
# number of rings (size 3 to 8) (size 9 to 14) (size 15 to 20)
#    0.000    1.600    2.667    1.600    3.733    2.667 
#    0.000    0.000    0.000    4.800    0.000    0.000 
#    0.000    0.000    0.000    0.000    0.000    0.000 
#
# Total GULP energy -167312.741579 kJ/mol
# GULP energy per Si atom -5577.091386 kJ/mol
# Density = 2.342182 g / cm^3
# Si number density = 23.475248 Si / 1000 Ang^3
#
#
#
# Elastic Constant Matrix: (Units=GPa)
#
#
# Indices 1 2 3 4 5 6 
#
# 1 120.8366 16.2830 19.2968 -0.0732 -2.5168 -0.0079
# 2 16.2830 67.8551 9.3363 -0.1535 8.0113 -0.0141
# 3 19.2968 9.3363 92.2478 0.0987 1.1239 0.0083
# 4 -0.0732 -0.1535 0.0987 -381.6277 0.0294 -41.8289
# 5 -2.5168 8.0113 1.1239 0.0294 11.1568 0.0013
# 6 -0.0079 -0.0141 0.0083 -41.8289 0.0013 28.8444
#
#
#
# Elastic Compliance Matrix: (Units=1/GPa)
#
#
# Indices 1 2 3 4 5 6 
#
# 1 0.008945 -0.002375 -0.001678 -0.000001 0.003892 0.000000
# 2 -0.002375 0.016940 -0.001064 -0.000007 -0.012593 -0.000002
# 3 -0.001678 -0.001064 0.011308 0.000004 -0.000754 0.000001
# 4 -0.000001 -0.000007 0.000004 -0.002261 0.000011 -0.003279
# 5 0.003892 -0.012593 -0.000754 0.000011 0.099628 0.000007
# 6 0.000000 -0.000002 0.000001 -0.003279 0.000007 0.029914
#
#
# Mechanical properties :
#
#
# Convention : Reuss Voigt Hill
#
# Bulk Modulus (GPa) = 37.09410 41.19688 39.14549
# Shear Modulus (GPa) = 27.21896 -52.59042 -12.68573
#
# Velocity S-wave (km/s) = 3.40880 -4.73826 -2.32715
# Velocity P-wave (km/s) = 5.59722 3.51393 3.08068
#
# Compressibility (1/GPa) = 0.02695847
#
# Stress axis : x y z
#
# Youngs Moduli (GPa) = 111.79751 59.03037 88.43065
#
# Poissons Ratio (x) = 0.14020 0.14840
# Poissons Ratio (y) = 0.26553 0.09411
# Poissons Ratio (z) = 0.18761 0.06282
#
# Static dielectric constant tensor:
#      x y z
#    x 1.928110 0.000000 -0.018850 
#    y 0.000000 2.079170 0.000000 
#    z -0.018850 0.000000 1.918280 
# 
# From -- ./inp_files/315076.got.cif
#   From: 2010.05.17/outbox.cif.g08.bks.cpg/sg15_158_cif.got.tgz:315076.got - 2010.06.03 18:47:42.
