data_PCOD9290627
_publ_section_title
;
Structure prediction by ZEFSAII (Michael W. Deem and Ramdas Pophale) SiO2 
 PCOD9290627
Probable space group: C 2/C
;
_chemical_formula_sum "Si O2"
_cell_formula_units_Z 44
_cell_length_a 17.739807
_cell_length_b 10.741860
_cell_length_c 9.759924
_cell_angle_alpha 90.000000
_cell_angle_beta 61.995101
_cell_angle_gamma 90.000000
_cell_volume 1642.063678
_symmetry_space_group_name_H-M "C 2/C"
_symmetry_group_IT_number 15
_symmetry_cell_setting 'monoclinic'
loop_
_space_group_symop_operation_xyz
x,y,z
-x,y,1/2-z
-x,-y,-z
x,-y,1/2+z
1/2+x,1/2+y,z
1/2-x,1/2+y,1/2-z
1/2-x,1/2-y,-z
1/2+x,1/2-y,1/2+z
loop_
_atom_site_type_symbol
_atom_site_label
_atom_site_fract_x
_atom_site_fract_y
_atom_site_fract_z
Si Si1 0.634401 0.855622 0.175316
Si Si2 0.500000 0.571277 0.750000
Si Si3 0.794419 0.739425 0.137474
Si Si4 0.327747 0.521120 0.320236
Si Si5 0.579071 0.691828 0.458398
Si Si6 0.175140 0.628013 0.087321
O O1 0.728151 0.854417 0.179482
O O2 0.573974 0.784557 0.334121
O O3 0.621218 0.000658 0.154650
O O4 0.630317 0.777496 0.035936
O O5 0.586209 0.495471 0.669138
O O6 0.495919 0.650499 0.613456
O O7 0.732824 0.638494 0.118235
O O8 0.812962 0.688614 0.272270
O O9 0.371201 0.567305 0.137952
O O10 0.262283 0.416897 0.435323
O O11 0.629600 0.772856 0.528384
#
# Coordination Sequence:
#
# PCOD9290627 Si02
#       6
#     8   4   8   8   8   8
#     4   9  18  36  61  94 131 166 216 276 331 391
#     4  12  26  44  64  96 146 186 224 278 338 408
#     4   9  19  35  63 102 132 166 218 278 345 398
#     4  10  22  41  68 101 136 174 221 281 344 402
#     4  11  25  44  69 103 136 183 234 277 342 410
#     4  11  22  41  73 103 136 174 225 295 346 398
#
# _framework density 26.795551
#
# number of rings (size 3 to 8) (size 9 to 14) (size 15 to 20)
#    0.000    1.818    0.000    6.000    0.000    9.455 
#    0.000   10.000    0.000    4.364    0.000    0.000 
#    0.000    0.000    0.000    0.000    0.000    0.000 
#
# Total GULP energy -122485.540025 kJ/mol
# GULP energy per Si atom -5567.524547 kJ/mol
# Density = 2.673456 g / cm^3
# Si number density = 26.795551 Si / 1000 Ang^3
#
#
#
# Elastic Constant Matrix: (Units=GPa)
#
#
# Indices 1 2 3 4 5 6 
#
# 1 70.2615 32.5193 32.3794 0.0000 5.3668 0.0000
# 2 32.5193 113.8651 61.4151 0.0000 16.1720 0.0000
# 3 32.3794 61.4151 205.1093 0.0000 33.6800 0.0000
# 4 0.0000 0.0000 0.0000 46.4669 0.0000 4.2552
# 5 5.3668 16.1720 33.6800 0.0000 39.4579 0.0000
# 6 0.0000 0.0000 0.0000 4.2552 0.0000 22.1457
#
#
#
# Elastic Compliance Matrix: (Units=1/GPa)
#
#
# Indices 1 2 3 4 5 6 
#
# 1 0.016769 -0.004053 -0.001549 0.000000 0.000703 0.000000
# 2 -0.004053 0.011575 -0.002486 0.000000 -0.002071 0.000000
# 3 -0.001549 -0.002486 0.006585 0.000000 -0.004392 0.000000
# 4 0.000000 0.000000 0.000000 0.021906 0.000000 -0.004209
# 5 0.000703 -0.002071 -0.004392 0.000000 0.029845 0.000000
# 6 0.000000 0.000000 0.000000 -0.004209 0.000000 0.045964
#
#
# Mechanical properties :
#
#
# Convention : Reuss Voigt Hill
#
# Bulk Modulus (GPa) = 53.32579 71.31817 62.32198
# Shear Modulus (GPa) = 32.24312 39.14225 35.69269
#
# Velocity S-wave (km/s) = 3.47263 3.82615 3.65367
# Velocity P-wave (km/s) = 6.00192 6.79652 6.41154
#
# Compressibility (1/GPa) = 0.01875265
#
# Stress axis : x y z
#
# Youngs Moduli (GPa) = 59.63481 86.39394 151.85074
#
# Poissons Ratio (x) = 0.35020 0.23519
# Poissons Ratio (y) = 0.24173 0.37748
# Poissons Ratio (z) = 0.09236 0.21477
#
# Static dielectric constant tensor:
#      x y z
#    x 2.121340 0.000000 -0.065840 
#    y 0.000000 2.217670 0.000000 
#    z -0.065840 0.000000 2.395680 
# 
# From -- ./inp_files/116942.got.cif
#   From: 2010.05.17/outbox.cif.g08.bks.cpg/sg15_59_cif.got.tgz:116942.got - 2010.06.03 18:47:42.
