data_PCOD9290215
_publ_section_title
;
Structure prediction by ZEFSAII (Michael W. Deem and Ramdas Pophale) SiO2 
 PCOD9290215
Probable space group: C 2/C
;
_chemical_formula_sum "Si O2"
_cell_formula_units_Z 56
_cell_length_a 21.540805
_cell_length_b 7.800158
_cell_length_c 14.755982
_cell_angle_alpha 90.000000
_cell_angle_beta 89.832130
_cell_angle_gamma 90.000000
_cell_volume 2479.314280
_symmetry_space_group_name_H-M "C 2/C"
_symmetry_group_IT_number 15
_symmetry_cell_setting 'monoclinic'
loop_
_space_group_symop_operation_xyz
x,y,z
-x,y,1/2-z
-x,-y,-z
x,-y,1/2+z
1/2+x,1/2+y,z
1/2-x,1/2+y,1/2-z
1/2-x,1/2-y,-z
1/2+x,1/2-y,1/2+z
loop_
_atom_site_type_symbol
_atom_site_label
_atom_site_fract_x
_atom_site_fract_y
_atom_site_fract_z
Si Si1 0.089371 0.982277 0.387430
Si Si2 0.156712 0.933619 0.194518
Si Si3 0.858667 0.534238 0.616234
Si Si4 0.289893 0.682304 0.580136
Si Si5 0.594039 0.246941 0.029405
Si Si6 0.224651 0.723147 0.740955
Si Si7 0.514525 0.146477 0.356701
O O1 0.111832 0.970675 0.281700
O O2 0.154445 0.945502 0.438767
O O3 0.041400 0.827430 0.393128
O O4 0.066313 0.147599 0.442677
O O5 0.117731 0.875767 0.107837
O O6 0.208704 0.784512 0.208479
O O7 0.198339 0.105746 0.193712
O O8 0.824919 0.351623 0.616856
O O9 0.854255 0.630142 0.520047
O O10 0.827371 0.650068 0.692928
O O11 0.930793 0.491003 0.632549
O O12 0.250000 0.750000 0.500000
O O13 0.244186 0.605385 0.655532
O O14 0.546146 0.122019 0.081835
O O15 0.500000 0.159785 0.250000
#
# Coordination Sequence:
#
# PCOD9290215 Si02
#       7
#     8   8   8   8   8   8   8
#     4  10  22  41  65  97 135 171 228 280 335 411
#     4  11  23  40  68 102 134 187 216 287 345 420
#     4  11  25  42  67 100 136 175 230 288 335 415
#     4  10  22  41  63  97 136 177 217 275 343 409
#     4  12  24  43  73  98 137 179 235 282 354 401
#     4  11  22  42  65  99 145 172 230 274 348 411
#     4  11  24  46  68  95 136 184 229 290 343 401
#
# _framework density 22.58689
#
# number of rings (size 3 to 8) (size 9 to 14) (size 15 to 20)
#    0.000    1.143    4.286    1.714    0.000    4.000 
#    0.000    3.571    0.000    0.000    0.000    0.000 
#    0.000    0.000    0.000    0.000    0.000    0.000 
#
# Total GULP energy -156113.481671 kJ/mol
# GULP energy per Si atom -5575.481488 kJ/mol
# Density = 2.253548 g / cm^3
# Si number density = 22.586890 Si / 1000 Ang^3
#
#
#
# Elastic Constant Matrix: (Units=GPa)
#
#
# Indices 1 2 3 4 5 6 
#
# 1 70.0273 14.5156 59.6137 0.0000 -16.2703 0.0000
# 2 14.5156 62.9993 29.0315 0.0000 -2.8536 0.0000
# 3 59.6137 29.0315 133.9742 0.0000 -18.0321 0.0000
# 4 0.0000 0.0000 0.0000 31.6201 0.0000 -4.2589
# 5 -16.2703 -2.8536 -18.0321 0.0000 39.8065 0.0000
# 6 0.0000 0.0000 0.0000 -4.2589 0.0000 26.0157
#
#
#
# Elastic Compliance Matrix: (Units=1/GPa)
#
#
# Indices 1 2 3 4 5 6 
#
# 1 0.024025 -0.000776 -0.009806 0.000000 0.005322 0.000000
# 2 -0.000776 0.017668 -0.003574 0.000000 -0.000669 0.000000
# 3 -0.009806 -0.003574 0.012809 0.000000 0.001538 0.000000
# 4 0.000000 0.000000 0.000000 0.032338 0.000000 0.005294
# 5 0.005322 -0.000669 0.001538 0.000000 0.027946 0.000000
# 6 0.000000 0.000000 0.000000 0.005294 0.000000 0.039305
#
#
# Mechanical properties :
#
#
# Convention : Reuss Voigt Hill
#
# Bulk Modulus (GPa) = 38.17961 52.59138 45.38550
# Shear Modulus (GPa) = 26.15984 30.41114 28.28549
#
# Velocity S-wave (km/s) = 3.40691 3.67332 3.54262
# Velocity P-wave (km/s) = 5.69352 6.42850 6.07214
#
# Compressibility (1/GPa) = 0.02619199
#
# Stress axis : x y z
#
# Youngs Moduli (GPa) = 41.62288 56.59825 78.07133
#
# Poissons Ratio (x) = 0.04391 0.76556
# Poissons Ratio (y) = 0.03229 0.27899
# Poissons Ratio (z) = 0.40815 0.20226
#
# Static dielectric constant tensor:
#      x y z
#    x 1.893530 0.000000 0.011930 
#    y 0.000000 1.885910 0.000000 
#    z 0.011930 0.000000 1.903660 
# 
# From -- ./inp_files/166653.got.cif
#   From: 2010.05.17/outbox.cif.g08.bks.cpg/sg15_84_cif.got.tgz:166653.got - 2010.06.03 18:47:42.
