data_PCOD9290512
_publ_section_title
;
Structure prediction by ZEFSAII (Michael W. Deem and Ramdas Pophale) SiO2 
 PCOD9290512
Probable space group: C 2/C
;
_chemical_formula_sum "Si O2"
_cell_formula_units_Z 60
_cell_length_a 6.189453
_cell_length_b 22.801590
_cell_length_c 19.171066
_cell_angle_alpha 90.000000
_cell_angle_beta 78.931850
_cell_angle_gamma 90.000000
_cell_volume 2655.275027
_symmetry_space_group_name_H-M "C 2/C"
_symmetry_group_IT_number 15
_symmetry_cell_setting 'monoclinic'
loop_
_space_group_symop_operation_xyz
x,y,z
-x,y,1/2-z
-x,-y,-z
x,-y,1/2+z
1/2+x,1/2+y,z
1/2-x,1/2+y,1/2-z
1/2-x,1/2-y,-z
1/2+x,1/2-y,1/2+z
loop_
_atom_site_type_symbol
_atom_site_label
_atom_site_fract_x
_atom_site_fract_y
_atom_site_fract_z
Si Si1 0.119021 0.855465 0.384031
Si Si2 0.000000 0.927386 0.750000
Si Si3 0.834219 0.637470 0.323592
Si Si4 0.148925 0.354416 0.984673
Si Si5 0.343771 0.050472 0.118310
Si Si6 0.600353 0.762133 0.576462
Si Si7 0.213020 0.421545 0.416747
Si Si8 0.734173 0.917996 0.258246
O O1 0.248604 0.842661 0.446873
O O2 0.243803 0.870549 0.305222
O O3 0.966069 0.798663 0.384299
O O4 0.972371 0.913030 0.411568
O O5 0.875867 0.887737 0.701779
O O6 0.816418 0.960776 0.806130
O O7 0.793168 0.692633 0.375756
O O8 0.000000 0.653753 0.250000
O O9 0.950687 0.585685 0.361519
O O10 0.260797 0.404676 0.931125
O O11 0.111052 0.297405 0.940403
O O12 0.913808 0.383630 0.018805
O O13 0.375214 0.987742 0.080870
O O14 0.750000 0.750000 0.500000
O O15 0.180514 0.398322 0.340016
O O16 0.500000 0.951110 0.250000
O O17 0.000000 0.935886 0.250000
#
# Coordination Sequence:
#
# PCOD9290512 Si02
#       8
#     8   4   8   8   8   8   8   8
#     4  11  24  41  66  97 131 178 232 279 352 418
#     4  10  22  42  68  98 124 174 224 276 342 400
#     4   9  22  45  64  94 129 168 224 277 334 414
#     4  11  23  43  64  94 132 174 227 279 348 414
#     4  10  24  39  67  94 134 174 219 280 343 420
#     4  11  23  43  70  91 132 177 221 289 347 415
#     4  11  23  41  64  97 135 176 222 282 350 419
#     4  10  22  41  66  97 139 180 228 288 348 425
#
# _framework density 22.596530000000001
#
# number of rings (size 3 to 8) (size 9 to 14) (size 15 to 20)
#    0.000    1.600    2.667    0.800    4.667    4.800 
#    2.400    0.000   11.733    0.000    0.000    0.000 
#    0.000    0.000    0.000    0.000    0.000    0.000 
#
# Total GULP energy -167233.274408 kJ/mol
# GULP energy per Si atom -5574.442480 kJ/mol
# Density = 2.254510 g / cm^3
# Si number density = 22.596530 Si / 1000 Ang^3
#
#
#
# Elastic Constant Matrix: (Units=GPa)
#
#
# Indices 1 2 3 4 5 6 
#
# 1 61.3545 20.4474 15.6580 0.0000 6.3040 0.0000
# 2 20.4474 111.7350 33.2714 0.0000 2.5243 0.0000
# 3 15.6580 33.2714 98.1853 0.0000 -4.4792 0.0000
# 4 0.0000 0.0000 0.0000 33.6957 0.0000 -3.8417
# 5 6.3040 2.5243 -4.4792 0.0000 44.2251 0.0000
# 6 0.0000 0.0000 0.0000 -3.8417 0.0000 15.4628
#
#
#
# Elastic Compliance Matrix: (Units=1/GPa)
#
#
# Indices 1 2 3 4 5 6 
#
# 1 0.017973 -0.002603 -0.002104 0.000000 -0.002626 0.000000
# 2 -0.002603 0.010368 -0.003123 0.000000 -0.000537 0.000000
# 3 -0.002104 -0.003123 0.011654 0.000000 0.001658 0.000000
# 4 0.000000 0.000000 0.000000 0.030543 0.000000 0.007588
# 5 -0.002626 -0.000537 0.001658 0.000000 0.023185 0.000000
# 6 0.000000 0.000000 0.000000 0.007588 0.000000 0.066557
#
#
# Mechanical properties :
#
#
# Convention : Reuss Voigt Hill
#
# Bulk Modulus (GPa) = 41.09200 45.55872 43.32536
# Shear Modulus (GPa) = 27.16640 32.13659 29.65149
#
# Velocity S-wave (km/s) = 3.47109 3.77529 3.62638
# Velocity P-wave (km/s) = 5.85570 6.26173 6.06212
#
# Compressibility (1/GPa) = 0.02433563
#
# Stress axis : x y z
#
# Youngs Moduli (GPa) = 55.63869 96.44949 85.80608
#
# Poissons Ratio (x) = 0.25108 0.18053
# Poissons Ratio (y) = 0.14484 0.26795
# Poissons Ratio (z) = 0.11706 0.30119
#
# Static dielectric constant tensor:
#      x y z
#    x 1.952580 0.000000 -0.003980 
#    y 0.000000 1.847080 0.000000 
#    z -0.003980 0.000000 1.815310 
# 
# From -- ./inp_files/228156.got.cif
#   From: 2010.05.17/outbox.cif.g08.bks.cpg/sg15_115_cif.got.tgz:228156.got - 2010.06.03 18:47:42.
