data_PCOD9290221
_publ_section_title
;
Structure prediction by ZEFSAII (Michael W. Deem and Ramdas Pophale) SiO2 
 PCOD9290221
Probable space group: C 2/C
;
_chemical_formula_sum "Si O2"
_cell_formula_units_Z 40
_cell_length_a 12.215134
_cell_length_b 29.191174
_cell_length_c 5.177909
_cell_angle_alpha 90.000000
_cell_angle_beta 78.287613
_cell_angle_gamma 90.000000
_cell_volume 1807.866169
_symmetry_space_group_name_H-M "C 2/C"
_symmetry_group_IT_number 15
_symmetry_cell_setting 'monoclinic'
loop_
_space_group_symop_operation_xyz
x,y,z
-x,y,1/2-z
-x,-y,-z
x,-y,1/2+z
1/2+x,1/2+y,z
1/2-x,1/2+y,1/2-z
1/2-x,1/2-y,-z
1/2+x,1/2-y,1/2+z
loop_
_atom_site_type_symbol
_atom_site_label
_atom_site_fract_x
_atom_site_fract_y
_atom_site_fract_z
Si Si1 0.075902 0.732951 0.468403
Si Si2 0.371849 0.326778 0.210086
Si Si3 0.812322 0.118892 0.228624
Si Si4 0.874590 0.979707 0.568780
Si Si5 0.925644 0.371528 0.529016
O O1 0.157656 0.774573 0.355815
O O2 0.114760 0.681332 0.505505
O O3 0.000000 0.727926 0.250000
O O4 0.000000 0.747622 0.750000
O O5 0.500000 0.326497 0.250000
O O6 0.304325 0.347400 0.484372
O O7 0.363441 0.356941 0.955987
O O8 0.879606 0.074194 0.110101
O O9 0.688976 0.102386 0.367813
O O10 0.818152 0.993704 0.330387
O O11 0.000000 0.000000 0.500000
O O12 0.000000 0.372799 0.750000
O O13 0.000000 0.385459 0.250000
#
# Coordination Sequence:
#
# PCOD9290221 Si02
#       5
#     8   8   8   8   8
#     4   9  18  36  54  83 123 169 200 248 316 336
#     4  11  23  35  57  91 133 158 200 258 295 382
#     4  12  24  38  64  93 115 168 213 242 316 370
#     4  10  23  40  60  86 123 159 185 247 314 387
#     4  10  22  41  64  85 122 163 215 264 290 353
#
# _framework density 22.125532
#
# number of rings (size 3 to 8) (size 9 to 14) (size 15 to 20)
#    0.000    1.600    0.000    5.400    8.400    1.600 
#    0.000    0.000    0.000    3.600    0.000    0.000 
#    0.000    0.000    0.000    0.000    0.000    0.000 
#
# Total GULP energy -111736.324951 kJ/mol
# GULP energy per Si atom -5586.816248 kJ/mol
# Density = 2.207517 g / cm^3
# Si number density = 22.125532 Si / 1000 Ang^3
#
#
#
# Elastic Constant Matrix: (Units=GPa)
#
#
# Indices 1 2 3 4 5 6 
#
# 1 48.2700 9.1032 10.4649 0.0000 -3.5076 0.0000
# 2 9.1032 53.3107 12.6852 0.0000 -1.6413 0.0000
# 3 10.4649 12.6852 167.5232 0.0000 15.7148 0.0000
# 4 0.0000 0.0000 0.0000 25.0688 0.0000 -3.7079
# 5 -3.5076 -1.6413 15.7148 0.0000 35.6272 0.0000
# 6 0.0000 0.0000 0.0000 -3.7079 0.0000 8.4436
#
#
#
# Elastic Compliance Matrix: (Units=1/GPa)
#
#
# Indices 1 2 3 4 5 6 
#
# 1 0.021826 -0.003325 -0.001355 0.000000 0.002593 0.000000
# 2 -0.003325 0.019695 -0.001396 0.000000 0.001196 0.000000
# 3 -0.001355 -0.001396 0.006445 0.000000 -0.003040 0.000000
# 4 0.000000 0.000000 0.000000 0.042661 0.000000 0.018734
# 5 0.002593 0.001196 -0.003040 0.000000 0.029720 0.000000
# 6 0.000000 0.000000 0.000000 0.018734 0.000000 0.126661
#
#
# Mechanical properties :
#
#
# Convention : Reuss Voigt Hill
#
# Bulk Modulus (GPa) = 27.92157 37.06783 32.49470
# Shear Modulus (GPa) = 18.44364 29.61796 24.03080
#
# Velocity S-wave (km/s) = 2.89033 3.66270 3.29920
# Velocity P-wave (km/s) = 4.87706 5.88872 5.40660
#
# Compressibility (1/GPa) = 0.03581460
#
# Stress axis : x y z
#
# Youngs Moduli (GPa) = 45.81689 50.77532 155.16214
#
# Poissons Ratio (x) = 0.16881 0.21024
# Poissons Ratio (y) = 0.15233 0.21657
# Poissons Ratio (z) = 0.06208 0.07087
#
# Static dielectric constant tensor:
#      x y z
#    x 1.819740 0.000000 -0.033540 
#    y 0.000000 1.847040 0.000000 
#    z -0.033540 0.000000 2.195420 
# 
# From -- ./inp_files/5704.got.cif
#   From: 2010.05.17/outbox.cif.g08.bks.cpg/sg15_3_cif.got.tgz:5704.got - 2010.06.03 18:47:42.
