data_PCOD9290112
_publ_section_title
;
Structure prediction by ZEFSAII (Michael W. Deem and Ramdas Pophale) SiO2 
 PCOD9290112
Probable space group: C 2/C
;
_chemical_formula_sum "Si O2"
_cell_formula_units_Z 44
_cell_length_a 11.810818
_cell_length_b 25.018984
_cell_length_c 15.671739
_cell_angle_alpha 90.000000
_cell_angle_beta 150.259584
_cell_angle_gamma 90.000000
_cell_volume 2297.264034
_symmetry_space_group_name_H-M "C 2/C"
_symmetry_group_IT_number 15
_symmetry_cell_setting 'monoclinic'
loop_
_space_group_symop_operation_xyz
x,y,z
-x,y,1/2-z
-x,-y,-z
x,-y,1/2+z
1/2+x,1/2+y,z
1/2-x,1/2+y,1/2-z
1/2-x,1/2-y,-z
1/2+x,1/2-y,1/2+z
loop_
_atom_site_type_symbol
_atom_site_label
_atom_site_fract_x
_atom_site_fract_y
_atom_site_fract_z
Si Si1 0.500000 0.589404 0.750000
Si Si2 0.628077 0.580635 0.555910
Si Si3 0.258291 0.469976 0.940868
Si Si4 0.378223 0.132677 0.873229
Si Si5 0.009955 0.269471 0.166214
Si Si6 0.867037 0.850432 0.750954
O O1 0.344631 0.552497 0.587397
O O2 0.669111 0.623909 0.801112
O O3 0.713592 0.533674 0.550136
O O4 0.422904 0.556333 0.478135
O O5 0.817780 0.597608 0.749722
O O6 0.517397 0.627652 0.427256
O O7 0.000000 0.455329 0.750000
O O8 0.408862 0.191836 0.854396
O O9 0.618671 0.122625 0.078147
O O10 0.000000 0.300386 0.250000
O O11 0.150464 0.214181 0.255055
O O12 0.750000 0.250000 0.000000
O O13 0.000000 0.861210 0.750000
#
# Coordination Sequence:
#
# PCOD9290112 Si02
#       6
#     4   8   8   8   8   8
#     4  10  24  44  64  88 126 170 210 254 302 380
#     4  10  24  38  60  94 121 163 209 256 311 369
#     4  10  22  41  62  86 125 165 208 256 309 365
#     4  11  23  41  64  89 128 167 206 251 314 368
#     4  11  20  37  59  90 121 155 198 255 308 361
#     4  11  23  36  61  93 123 157 204 260 312 362
#
# _framework density 19.153219
#
# number of rings (size 3 to 8) (size 9 to 14) (size 15 to 20)
#    0.000    1.455    3.636    2.182    3.818    0.000 
#    0.000    6.364    2.000    0.000    0.000    0.000 
#    0.000    0.000    0.000    0.000    0.000    0.000 
#
# Total GULP energy -122667.062565 kJ/mol
# GULP energy per Si atom -5575.775571 kJ/mol
# Density = 1.910963 g / cm^3
# Si number density = 19.153219 Si / 1000 Ang^3
#
#
#
# Elastic Constant Matrix: (Units=GPa)
#
#
# Indices 1 2 3 4 5 6 
#
# 1 91.1105 46.9655 43.1619 -0.0001 -7.1527 0.0002
# 2 46.9655 81.2928 38.6851 0.0001 -0.7427 0.0001
# 3 43.1619 38.6851 133.4322 -0.0001 6.0764 0.0004
# 4 -0.0001 0.0001 -0.0001 28.1588 -0.0002 -1.3294
# 5 -7.1527 -0.7427 6.0764 -0.0002 33.7531 0.0003
# 6 0.0002 0.0001 0.0004 -1.3294 0.0003 20.1335
#
#
#
# Elastic Compliance Matrix: (Units=1/GPa)
#
#
# Indices 1 2 3 4 5 6 
#
# 1 0.017139 -0.008281 -0.003327 0.000000 0.004049 0.000000
# 2 -0.008281 0.018310 -0.002589 0.000000 -0.000886 0.000000
# 3 -0.003327 -0.002589 0.009434 0.000000 -0.002460 0.000000
# 4 0.000000 0.000000 0.000000 0.035624 0.000000 0.002352
# 5 0.004049 -0.000886 -0.002460 0.000000 0.030908 0.000000
# 6 0.000000 0.000000 0.000000 0.002352 0.000000 0.049824
#
#
# Mechanical properties :
#
#
# Convention : Reuss Voigt Hill
#
# Bulk Modulus (GPa) = 60.65729 62.60672 61.63201
# Shear Modulus (GPa) = 25.62416 28.21062 26.91739
#
# Velocity S-wave (km/s) = 3.66163 3.84199 3.75290
# Velocity P-wave (km/s) = 7.04379 7.24151 7.14333
#
# Compressibility (1/GPa) = 0.01648606
#
# Stress axis : x y z
#
# Youngs Moduli (GPa) = 58.34811 54.61627 106.00514
#
# Poissons Ratio (x) = 0.45228 0.35272
# Poissons Ratio (y) = 0.48319 0.27448
# Poissons Ratio (z) = 0.19415 0.14142
#
# Static dielectric constant tensor:
#      x y z
#    x 1.497310 0.000000 0.086910 
#    y 0.000000 1.686020 0.000000 
#    z 0.086910 0.000000 1.675180 
# 
# From -- ./inp_files/92145.got.cif
#   From: 2010.05.17/outbox.cif.g08.bks.cpg/sg15_47_cif.got.tgz:92145.got - 2010.06.03 18:47:42.
