data_PCOD9290830
_publ_section_title
;
Structure prediction by ZEFSAII (Michael W. Deem and Ramdas Pophale) SiO2 
 PCOD9290830
Probable space group: C 2/C
;
_chemical_formula_sum "Si O2"
_cell_formula_units_Z 48
_cell_length_a 11.753695
_cell_length_b 24.570535
_cell_length_c 9.185360
_cell_angle_alpha 90.000000
_cell_angle_beta 115.406590
_cell_angle_gamma 90.000000
_cell_volume 2396.130505
_symmetry_space_group_name_H-M "C 2/C"
_symmetry_group_IT_number 15
_symmetry_cell_setting 'monoclinic'
loop_
_space_group_symop_operation_xyz
x,y,z
-x,y,1/2-z
-x,-y,-z
x,-y,1/2+z
1/2+x,1/2+y,z
1/2-x,1/2+y,1/2-z
1/2-x,1/2-y,-z
1/2+x,1/2-y,1/2+z
loop_
_atom_site_type_symbol
_atom_site_label
_atom_site_fract_x
_atom_site_fract_y
_atom_site_fract_z
Si Si1 0.902238 0.244473 0.555344
Si Si2 0.824627 0.133244 0.414685
Si Si3 0.464800 0.550924 0.888836
Si Si4 0.146725 0.561894 0.130711
Si Si5 0.822260 0.555464 0.698515
Si Si6 0.408710 0.133780 0.984976
O O1 0.750000 0.250000 0.500000
O O2 0.887329 0.193082 0.439116
O O3 0.943621 0.302354 0.510350
O O4 0.000000 0.235157 0.750000
O O5 0.761812 0.100741 0.246027
O O6 0.714923 0.129998 0.479194
O O7 0.942658 0.099517 0.531175
O O8 0.500000 0.531956 0.750000
O O9 0.322974 0.564817 0.844300
O O10 0.500000 0.500000 0.000000
O O11 0.145661 0.503138 0.209816
O O12 0.153785 0.552715 0.960565
O O13 0.022865 0.596327 0.102230
O O14 0.885082 0.606685 0.814663
#
# Coordination Sequence:
#
# PCOD9290830 Si02
#       6
#     8   8   8   8   8   8
#     4  10  22  41  71 103 131 174 231 281 330 398
#     4  11  23  41  69  97 130 173 221 279 328 393
#     4  12  23  41  64  90 129 166 222 272 332 401
#     4  12  25  43  65  98 137 177 221 276 340 406
#     4  12  25  42  67  98 135 179 219 277 345 403
#     4  11  23  43  67  99 132 171 227 277 331 403
#
# _framework density 20.032297
#
# number of rings (size 3 to 8) (size 9 to 14) (size 15 to 20)
#    0.000    0.667    3.333    6.000    2.333    1.333 
#    0.000    0.833    3.667    0.000    0.000    0.000 
#    0.000    0.000    0.000    0.000    0.000    0.000 
#
# Total GULP energy -133731.449987 kJ/mol
# GULP energy per Si atom -5572.143749 kJ/mol
# Density = 1.998670 g / cm^3
# Si number density = 20.032297 Si / 1000 Ang^3
#
#
#
# Elastic Constant Matrix: (Units=GPa)
#
#
# Indices 1 2 3 4 5 6 
#
# 1 338.0914 300.2385 -134.4658 0.0000 309.8514 0.0000
# 2 300.2385 466.3513 -123.8519 0.0000 347.4442 0.0000
# 3 -134.4658 -123.8519 270.2240 0.0000 -240.6551 0.0000
# 4 0.0000 0.0000 0.0000 2055.4436 0.0000 1988.1515
# 5 309.8514 347.4442 -240.6551 0.0000 433.8355 0.0000
# 6 0.0000 0.0000 0.0000 1988.1515 0.0000 1972.3182
#
#
#
# Elastic Compliance Matrix: (Units=1/GPa)
#
#
# Indices 1 2 3 4 5 6 
#
# 1 0.010065 -0.002181 -0.001655 0.000000 -0.006360 0.000000
# 2 -0.002181 0.006992 -0.002925 0.000000 -0.005664 0.000000
# 3 -0.001655 -0.002925 0.009240 0.000000 0.008651 0.000000
# 4 0.000000 0.000000 0.000000 0.019481 0.000000 -0.019638
# 5 -0.006360 -0.005664 0.008651 0.000000 0.016183 0.000000
# 6 0.000000 0.000000 0.000000 -0.019638 0.000000 0.020302
#
#
# Mechanical properties :
#
#
# Convention : Reuss Voigt Hill
#
# Bulk Modulus (GPa) = 78.28637 128.72313 103.50475
# Shear Modulus (GPa) = 49.97711 961.16919 505.57315
#
# Velocity S-wave (km/s) = 5.00024 21.92832 15.90368
# Velocity P-wave (km/s) = 8.51478 26.56186 19.72351
#
# Compressibility (1/GPa) = 0.01277362
#
# Stress axis : x y z
#
# Youngs Moduli (GPa) = 99.35022 143.02461 108.21965
#
# Poissons Ratio (x) = 0.31197 0.17914
# Poissons Ratio (y) = 0.21670 0.31659
# Poissons Ratio (z) = 0.16446 0.41841
#
# Static dielectric constant tensor:
#      x y z
#    x 1.857180 0.000000 0.178720 
#    y 0.000000 1.728880 0.000000 
#    z 0.178720 0.000000 1.883820 
# 
# From -- ./inp_files/32666.got.cif
#   From: 2010.05.17/outbox.cif.g08.bks.cpg/sg15_17_cif.got.tgz:32666.got - 2010.06.03 18:47:42.
