data_PCOD9290880
_publ_section_title
;
Structure prediction by ZEFSAII (Michael W. Deem and Ramdas Pophale) SiO2 
 PCOD9290880
Probable space group: C 2/C
;
_chemical_formula_sum "Si O2"
_cell_formula_units_Z 40
_cell_length_a 8.963992
_cell_length_b 12.514074
_cell_length_c 16.331129
_cell_angle_alpha 90.000000
_cell_angle_beta 85.501622
_cell_angle_gamma 90.000000
_cell_volume 1826.318436
_symmetry_space_group_name_H-M "C 2/C"
_symmetry_group_IT_number 15
_symmetry_cell_setting 'monoclinic'
loop_
_space_group_symop_operation_xyz
x,y,z
-x,y,1/2-z
-x,-y,-z
x,-y,1/2+z
1/2+x,1/2+y,z
1/2-x,1/2+y,1/2-z
1/2-x,1/2-y,-z
1/2+x,1/2-y,1/2+z
loop_
_atom_site_type_symbol
_atom_site_label
_atom_site_fract_x
_atom_site_fract_y
_atom_site_fract_z
Si Si1 0.752874 0.479380 0.479776
Si Si2 0.545258 0.002663 0.867698
Si Si3 0.480362 0.326308 0.505320
Si Si4 0.433258 0.222969 0.329900
Si Si5 0.097864 0.730336 0.821925
O O1 0.875417 0.471615 0.403395
O O2 0.642691 0.379434 0.490739
O O3 0.644125 0.581546 0.475804
O O4 0.848725 0.492637 0.557935
O O5 0.610310 0.101596 0.814067
O O6 0.528884 0.885879 0.830189
O O7 0.444319 0.271097 0.420501
O O8 0.472823 0.251627 0.585308
O O9 0.500000 0.288354 0.250000
O O10 0.258551 0.214280 0.317515
O O11 0.000000 0.769861 0.750000
#
# Coordination Sequence:
#
# PCOD9290880 Si02
#       5
#     8   8   8   8   8
#     4  10  22  41  73 108 131 190 231 291 343 422
#     4  11  23  44  72  99 143 178 239 285 350 417
#     4  11  23  47  73  98 148 179 236 286 354 415
#     4  12  27  47  71 105 138 186 234 290 350 425
#     4  12  27  47  71 105 138 186 234 290 350 425
#
# _framework density 21.901985
#
# number of rings (size 3 to 8) (size 9 to 14) (size 15 to 20)
#    0.000    0.800    4.000    3.600    5.600    1.600 
#    0.000    4.000    0.000    0.000    0.000    0.000 
#    0.000    0.000    0.000    0.000    0.000    0.000 
#
# Total GULP energy -111807.296239 kJ/mol
# GULP energy per Si atom -5590.364812 kJ/mol
# Density = 2.185214 g / cm^3
# Si number density = 21.901985 Si / 1000 Ang^3
#
#
#
# Elastic Constant Matrix: (Units=GPa)
#
#
# Indices 1 2 3 4 5 6 
#
# 1 100.0218 10.4409 32.2050 0.0000 14.3024 0.0000
# 2 10.4409 64.8454 3.6300 0.0000 10.1837 0.0000
# 3 32.2050 3.6300 127.9588 0.0000 13.3656 0.0000
# 4 0.0000 0.0000 0.0000 -3.1737 0.0000 1.6469
# 5 14.3024 10.1837 13.3656 0.0000 29.8438 0.0000
# 6 0.0000 0.0000 0.0000 1.6469 0.0000 21.1321
#
#
#
# Elastic Compliance Matrix: (Units=1/GPa)
#
#
# Indices 1 2 3 4 5 6 
#
# 1 0.011472 -0.001076 -0.002435 0.000000 -0.004040 0.000000
# 2 -0.001076 0.016397 0.000353 0.000000 -0.005238 0.000000
# 3 -0.002435 0.000353 0.008716 0.000000 -0.002857 0.000000
# 4 0.000000 0.000000 0.000000 -0.302841 0.000000 0.023602
# 5 -0.004040 -0.005238 -0.002857 0.000000 0.038511 0.000000
# 6 0.000000 0.000000 0.000000 0.023602 0.000000 0.045482
#
#
# Mechanical properties :
#
#
# Convention : Reuss Voigt Hill
#
# Bulk Modulus (GPa) = 33.03724 42.81976 37.92850
# Shear Modulus (GPa) = -30.14647 25.99712 -2.07467
#
# Velocity S-wave (km/s) = -3.71405 3.44899 -0.97433
# Velocity P-wave (km/s) = 1.80978 5.95431 4.01114
#
# Compressibility (1/GPa) = 0.03026888
#
# Stress axis : x y z
#
# Youngs Moduli (GPa) = 87.17026 60.98540 114.72862
#
# Poissons Ratio (x) = 0.06564 0.27933
# Poissons Ratio (y) = 0.09382 -0.04048
# Poissons Ratio (z) = 0.21224 -0.02152
#
# Static dielectric constant tensor:
#      x y z
#    x 1.759420 0.000000 -0.038430 
#    y 0.000000 1.837280 0.000000 
#    z -0.038430 0.000000 1.879620 
# 
# From -- ./inp_files/187777.got.cif
#   From: 2010.05.17/outbox.cif.g08.bks.cpg/sg15_94_cif.got.tgz:187777.got - 2010.06.03 18:47:42.
