data_PCOD9290647
_publ_section_title
;
Structure prediction by ZEFSAII (Michael W. Deem and Ramdas Pophale) SiO2 
 PCOD9290647
Probable space group: C 2/C
;
_chemical_formula_sum "Si O2"
_cell_formula_units_Z 44
_cell_length_a 14.395828
_cell_length_b 5.084241
_cell_length_c 27.274904
_cell_angle_alpha 90.000000
_cell_angle_beta 77.205221
_cell_angle_gamma 90.000000
_cell_volume 1946.731853
_symmetry_space_group_name_H-M "C 2/C"
_symmetry_group_IT_number 15
_symmetry_cell_setting 'monoclinic'
loop_
_space_group_symop_operation_xyz
x,y,z
-x,y,1/2-z
-x,-y,-z
x,-y,1/2+z
1/2+x,1/2+y,z
1/2-x,1/2+y,1/2-z
1/2-x,1/2-y,-z
1/2+x,1/2-y,1/2+z
loop_
_atom_site_type_symbol
_atom_site_label
_atom_site_fract_x
_atom_site_fract_y
_atom_site_fract_z
Si Si1 0.000000 0.618205 0.750000
Si Si2 0.122879 0.799257 0.648113
Si Si3 0.248198 0.701956 0.133112
Si Si4 0.871517 0.259395 0.022510
Si Si5 0.914739 0.755774 0.959754
Si Si6 0.306904 0.923809 0.226111
O O1 0.956193 0.775735 0.800817
O O2 0.907098 0.480589 0.737312
O O3 0.207390 0.587629 0.648184
O O4 0.087729 0.724892 0.598001
O O5 0.160995 0.094615 0.642058
O O6 0.300246 0.708925 0.075149
O O7 0.312777 0.819665 0.169547
O O8 0.976449 0.259517 0.034673
O O9 0.858656 0.531809 0.995817
O O10 0.872854 0.032285 0.981979
O O11 0.266586 0.663783 0.258433
#
# Coordination Sequence:
#
# PCOD9290647 Si02
#       6
#     4   8   8   8   8   8
#     4  12  26  48  74  98 142 192 226 304 340 420
#     4  12  26  41  69  97 138 177 236 276 355 405
#     4  12  24  44  65 103 134 177 225 295 336 418
#     4  10  22  41  68  90 140 169 228 281 340 404
#     4  10  22  42  63 100 125 184 222 276 343 417
#     4  12  25  47  70 101 139 180 235 289 345 418
#
# _framework density 22.601982
#
# number of rings (size 3 to 8) (size 9 to 14) (size 15 to 20)
#    0.000    0.727    3.636    3.273    0.000    7.273 
#    0.000    7.273    0.000    0.000    0.000    0.000 
#    0.000    0.000    0.000    0.000    0.000    0.000 
#
# Total GULP energy -123110.005979 kJ/mol
# GULP energy per Si atom -5595.909363 kJ/mol
# Density = 2.255054 g / cm^3
# Si number density = 22.601982 Si / 1000 Ang^3
#
#
#
# Elastic Constant Matrix: (Units=GPa)
#
#
# Indices 1 2 3 4 5 6 
#
# 1 82.7119 -7.0508 29.7859 0.0001 9.9474 0.0001
# 2 -7.0508 72.0783 4.7316 0.0003 3.9515 0.0003
# 3 29.7859 4.7316 172.7490 0.0000 -5.0055 0.0001
# 4 0.0001 0.0003 0.0000 29.3001 0.0000 9.6101
# 5 9.9474 3.9515 -5.0055 0.0000 48.8423 0.0000
# 6 0.0001 0.0003 0.0001 9.6101 0.0000 1.4194
#
#
#
# Elastic Compliance Matrix: (Units=1/GPa)
#
#
# Indices 1 2 3 4 5 6 
#
# 1 0.013495 0.001654 -0.002463 0.000000 -0.003135 0.000001
# 2 0.001654 0.014168 -0.000718 -0.000001 -0.001557 0.000001
# 3 -0.002463 -0.000718 0.006268 0.000000 0.001202 0.000000
# 4 0.000000 -0.000001 0.000000 -0.027961 0.000000 0.189307
# 5 -0.003135 -0.001557 0.001202 0.000000 0.021362 -0.000001
# 6 0.000001 0.000001 0.000000 0.189307 -0.000001 -0.577173
#
#
# Mechanical properties :
#
#
# Convention : Reuss Voigt Hill
#
# Bulk Modulus (GPa) = 32.38786 42.49696 37.44241
# Shear Modulus (GPa) = -9.31976 35.91720 13.29872
#
# Velocity S-wave (km/s) = -2.03283 3.99070 2.42830
# Velocity P-wave (km/s) = 2.97505 6.33067 4.94612
#
# Compressibility (1/GPa) = 0.03087577
#
# Stress axis : x y z
#
# Youngs Moduli (GPa) = 74.10115 70.58135 159.54244
#
# Poissons Ratio (x) = -0.11672 0.39295
# Poissons Ratio (y) = -0.12254 0.11460
# Poissons Ratio (z) = 0.18251 0.05070
#
# Static dielectric constant tensor:
#      x y z
#    x 1.868630 0.000000 0.046840 
#    y 0.000000 1.772180 0.000000 
#    z 0.046840 0.000000 1.810200 
# 
# From -- ./inp_files/271889.got.cif
#   From: 2010.05.17/outbox.cif.g08.bks.cpg/sg15_136_cif.got.tgz:271889.got - 2010.06.03 18:47:42.
