data_PCOD9290605
_publ_section_title
;
Structure prediction by ZEFSAII (Michael W. Deem and Ramdas Pophale) SiO2 
 PCOD9290605
Probable space group: C 2/C
;
_chemical_formula_sum "Si O2"
_cell_formula_units_Z 48
_cell_length_a 11.161208
_cell_length_b 9.574382
_cell_length_c 20.581667
_cell_angle_alpha 90.000000
_cell_angle_beta 111.437489
_cell_angle_gamma 90.000000
_cell_volume 2047.230524
_symmetry_space_group_name_H-M "C 2/C"
_symmetry_group_IT_number 15
_symmetry_cell_setting 'monoclinic'
loop_
_space_group_symop_operation_xyz
x,y,z
-x,y,1/2-z
-x,-y,-z
x,-y,1/2+z
1/2+x,1/2+y,z
1/2-x,1/2+y,1/2-z
1/2-x,1/2-y,-z
1/2+x,1/2-y,1/2+z
loop_
_atom_site_type_symbol
_atom_site_label
_atom_site_fract_x
_atom_site_fract_y
_atom_site_fract_z
Si Si1 0.868393 0.798273 0.068600
Si Si2 0.000000 0.995333 0.750000
Si Si3 0.182874 0.761023 0.287012
Si Si4 0.125132 0.886075 0.904982
Si Si5 0.048924 0.657133 0.646150
Si Si6 0.500000 0.985110 0.750000
Si Si7 0.586711 0.907357 0.565378
O O1 0.833527 0.770605 0.137493
O O2 0.995141 0.711179 0.076093
O O3 0.888980 0.963759 0.064149
O O4 0.750000 0.750000 0.000000
O O5 0.106795 0.105419 0.743879
O O6 0.067823 0.910262 0.820798
O O7 0.331667 0.761413 0.299119
O O8 0.113702 0.619184 0.252967
O O9 0.276432 0.853808 0.932717
O O10 0.036910 0.760645 0.913783
O O11 0.117023 0.529467 0.623058
O O12 0.962069 0.582889 0.682832
O O13 0.500000 0.000000 0.500000
#
# Coordination Sequence:
#
# PCOD9290605 Si02
#       7
#     8   4   8   8   8   4   8
#     4  11  21  46  73  96 135 183 226 279 352 405
#     4   9  19  42  60  94 134 174 218 262 344 394
#     4  10  22  41  67  97 137 181 222 276 341 411
#     4  11  25  42  67 104 133 182 226 283 339 409
#     4  12  25  42  67 104 135 174 236 280 342 407
#     4  11  25  40  64 100 140 184 220 282 340 418
#     4  12  24  47  72  96 142 181 226 291 339 403
#
# _framework density 23.44631
#
# number of rings (size 3 to 8) (size 9 to 14) (size 15 to 20)
#    0.000    1.000    6.667    0.500    2.333    3.333 
#    0.000    1.667    0.000    0.000    0.000    0.000 
#    0.000    0.000    0.000    0.000    0.000    0.000 
#
# Total GULP energy -134232.161917 kJ/mol
# GULP energy per Si atom -5593.006747 kJ/mol
# Density = 2.339295 g / cm^3
# Si number density = 23.446310 Si / 1000 Ang^3
#
#
#
# Elastic Constant Matrix: (Units=GPa)
#
#
# Indices 1 2 3 4 5 6 
#
# 1 126.3524 52.2788 -0.6401 0.0000 38.8363 0.0000
# 2 52.2788 112.3360 -1.7694 0.0000 14.3266 0.0000
# 3 -0.6401 -1.7694 63.7646 0.0000 19.7567 0.0000
# 4 0.0000 0.0000 0.0000 32.2333 0.0000 9.5142
# 5 38.8363 14.3266 19.7567 0.0000 36.6815 0.0000
# 6 0.0000 0.0000 0.0000 9.5142 0.0000 37.9290
#
#
#
# Elastic Compliance Matrix: (Units=1/GPa)
#
#
# Indices 1 2 3 4 5 6 
#
# 1 0.015162 -0.004801 0.005295 0.000000 -0.017030 0.000000
# 2 -0.004801 0.011040 0.000023 0.000000 0.000759 0.000000
# 3 0.005295 0.000023 0.020977 0.000000 -0.016914 0.000000
# 4 0.000000 0.000000 0.000000 0.033504 0.000000 -0.008404
# 5 -0.017030 0.000759 -0.016914 0.000000 0.054105 0.000000
# 6 0.000000 0.000000 0.000000 -0.008404 0.000000 0.028473
#
#
# Mechanical properties :
#
#
# Convention : Reuss Voigt Hill
#
# Bulk Modulus (GPa) = 20.74088 44.68796 32.71442
# Shear Modulus (GPa) = 28.04311 38.20768 33.12540
#
# Velocity S-wave (km/s) = 3.46216 4.04119 3.76283
# Velocity P-wave (km/s) = 4.98471 6.39343 5.73251
#
# Compressibility (1/GPa) = 0.04821395
#
# Stress axis : x y z
#
# Youngs Moduli (GPa) = 65.95527 90.58266 47.67131
#
# Poissons Ratio (x) = 0.43486 -0.25244
# Poissons Ratio (y) = 0.31663 -0.00110
# Poissons Ratio (z) = -0.34926 -0.00209
#
# Static dielectric constant tensor:
#      x y z
#    x 1.866970 0.000000 -0.003840 
#    y 0.000000 1.894020 0.000000 
#    z -0.003840 0.000000 1.950260 
# 
# From -- ./inp_files/267765.got.cif
#   From: 2010.05.17/outbox.cif.g08.bks.cpg/sg15_134_cif.got.tgz:267765.got - 2010.06.03 18:47:42.
