data_PCOD9290391
_publ_section_title
;
Structure prediction by ZEFSAII (Michael W. Deem and Ramdas Pophale) SiO2 
 PCOD9290391
Probable space group: C 2/C
;
_chemical_formula_sum "Si O2"
_cell_formula_units_Z 48
_cell_length_a 16.158273
_cell_length_b 26.452529
_cell_length_c 5.301021
_cell_angle_alpha 90.000000
_cell_angle_beta 80.473199
_cell_angle_gamma 90.000000
_cell_volume 2234.551221
_symmetry_space_group_name_H-M "C 2/C"
_symmetry_group_IT_number 15
_symmetry_cell_setting 'monoclinic'
loop_
_space_group_symop_operation_xyz
x,y,z
-x,y,1/2-z
-x,-y,-z
x,-y,1/2+z
1/2+x,1/2+y,z
1/2-x,1/2+y,1/2-z
1/2-x,1/2-y,-z
1/2+x,1/2-y,1/2+z
loop_
_atom_site_type_symbol
_atom_site_label
_atom_site_fract_x
_atom_site_fract_y
_atom_site_fract_z
Si Si1 0.161748 0.815813 0.648564
Si Si2 0.301385 0.783532 0.173997
Si Si3 0.097335 0.466933 0.703067
Si Si4 0.777337 0.618494 0.460121
Si Si5 0.184943 0.029671 0.761371
Si Si6 0.000000 0.877519 0.750000
Si Si7 0.000000 0.060705 0.750000
O O1 0.232362 0.802992 0.407854
O O2 0.136872 0.759227 0.753479
O O3 0.209062 0.852382 0.823984
O O4 0.078326 0.844680 0.614521
O O5 0.250000 0.750000 0.000000
O O6 0.333124 0.835725 0.043213
O O7 0.109534 0.493417 0.424363
O O8 0.160956 0.420704 0.705067
O O9 0.000000 0.450271 0.750000
O O10 0.726256 0.584120 0.686837
O O11 0.083903 0.032702 0.797047
O O12 0.209202 0.993336 0.516800
O O13 0.973431 0.908911 0.516135
#
# Coordination Sequence:
#
# PCOD9290391 Si02
#       7
#     8   8   8   8   8   4   4
#     4  10  22  41  65  95 129 169 216 268 321 392
#     4   9  21  41  63  92 122 161 214 272 324 379
#     4  10  23  43  66  95 129 166 211 269 326 384
#     4  11  22  39  66  93 126 169 215 265 323 393
#     4  12  25  39  60  92 130 174 219 263 312 373
#     4  12  24  41  70  94 130 182 216 263 328 384
#     4  12  24  43  60  90 136 178 224 267 312 368
#
# _framework density 21.480822
#
# number of rings (size 3 to 8) (size 9 to 14) (size 15 to 20)
#    0.000    1.333    1.667    3.500    7.000    0.000 
#    0.000    5.000    0.000    0.000    0.000    0.000 
#    0.000    0.000    0.000    0.000    0.000    0.000 
#
# Total GULP energy -134014.913280 kJ/mol
# GULP energy per Si atom -5583.954720 kJ/mol
# Density = 2.143193 g / cm^3
# Si number density = 21.480822 Si / 1000 Ang^3
#
#
#
# Elastic Constant Matrix: (Units=GPa)
#
#
# Indices 1 2 3 4 5 6 
#
# 1 77.0101 25.8908 -6.4574 0.0000 -3.9389 0.0000
# 2 25.8908 126.1579 26.7134 0.0000 -6.8705 0.0000
# 3 -6.4574 26.7134 73.5060 0.0000 1.3738 0.0000
# 4 0.0000 0.0000 0.0000 39.9538 0.0000 -9.6607
# 5 -3.9389 -6.8705 1.3738 0.0000 18.5353 0.0000
# 6 0.0000 0.0000 0.0000 -9.6607 0.0000 0.5605
#
#
#
# Elastic Compliance Matrix: (Units=1/GPa)
#
#
# Indices 1 2 3 4 5 6 
#
# 1 0.014416 -0.003393 0.002469 0.000000 0.001623 0.000000
# 2 -0.003393 0.009608 -0.003848 0.000000 0.003126 0.000000
# 3 0.002469 -0.003848 0.015258 0.000000 -0.002033 0.000000
# 4 0.000000 0.000000 0.000000 -0.007901 0.000000 -0.136188
# 5 0.001623 0.003126 -0.002033 0.000000 0.055605 0.000000
# 6 0.000000 0.000000 0.000000 -0.136188 0.000000 -0.563233
#
#
# Mechanical properties :
#
#
# Convention : Reuss Voigt Hill
#
# Bulk Modulus (GPa) = 33.62729 40.99641 37.31185
# Shear Modulus (GPa) = -10.94593 27.17839 8.11623
#
# Velocity S-wave (km/s) = -2.25981 3.56088 1.94591
# Velocity P-wave (km/s) = 2.97986 6.00275 4.73881
#
# Compressibility (1/GPa) = 0.02973775
#
# Stress axis : x y z
#
# Youngs Moduli (GPa) = 69.36694 104.08036 65.54052
#
# Poissons Ratio (x) = 0.35315 -0.16183
# Poissons Ratio (y) = 0.23536 0.25221
# Poissons Ratio (z) = -0.17128 0.40052
#
# Static dielectric constant tensor:
#      x y z
#    x 1.782860 0.000000 -0.016350 
#    y 0.000000 1.824130 0.000000 
#    z -0.016350 0.000000 1.874360 
# 
# From -- ./inp_files/10797.got.cif
#   From: 2010.05.17/outbox.cif.g08.bks.cpg/sg15_6_cif.got.tgz:10797.got - 2010.06.03 18:47:42.
