data_PCOD9290625
_publ_section_title
;
Structure prediction by ZEFSAII (Michael W. Deem and Ramdas Pophale) SiO2 
 PCOD9290625
Probable space group: C 2/C
;
_chemical_formula_sum "Si O2"
_cell_formula_units_Z 32
_cell_length_a 10.188460
_cell_length_b 9.560522
_cell_length_c 23.995669
_cell_angle_alpha 90.000000
_cell_angle_beta 145.744296
_cell_angle_gamma 90.000000
_cell_volume 1315.662199
_symmetry_space_group_name_H-M "C 2/C"
_symmetry_group_IT_number 15
_symmetry_cell_setting 'monoclinic'
loop_
_space_group_symop_operation_xyz
x,y,z
-x,y,1/2-z
-x,-y,-z
x,-y,1/2+z
1/2+x,1/2+y,z
1/2-x,1/2+y,1/2-z
1/2-x,1/2-y,-z
1/2+x,1/2-y,1/2+z
loop_
_atom_site_type_symbol
_atom_site_label
_atom_site_fract_x
_atom_site_fract_y
_atom_site_fract_z
Si Si1 0.781622 0.043241 0.053850
Si Si2 0.464362 0.873702 0.622382
Si Si3 0.817945 0.112320 0.759368
Si Si4 0.914288 0.222495 0.422485
O O1 0.950817 0.104418 0.065218
O O2 0.612495 0.168706 0.011827
O O3 0.946068 0.979347 0.158666
O O4 0.632090 0.924867 0.970422
O O5 0.625602 0.735766 0.677015
O O6 0.251251 0.838046 0.588454
O O7 0.611839 0.003357 0.698871
O O8 0.741321 0.194749 0.677441
#
# Coordination Sequence:
#
# PCOD9290625 Si02
#       4
#     8   8   8   8
#     4  10  22  41  68 101 134 176 227 278 334 407
#     4  11  23  42  69  97 139 178 223 281 338 398
#     4  11  22  40  69  99 137 177 224 280 331 403
#     4  10  22  43  69  99 137 176 223 282 339 397
#
# _framework density 24.322355000000002
#
# number of rings (size 3 to 8) (size 9 to 14) (size 15 to 20)
#    0.000    1.500    2.500    2.250    0.000    1.000 
#    0.000    2.500    5.500    0.000    0.000    0.000 
#    0.000    0.000    0.000    0.000    0.000    0.000 
#
# Total GULP energy -89644.837970 kJ/mol
# GULP energy per Si atom -5602.802373 kJ/mol
# Density = 2.426700 g / cm^3
# Si number density = 24.322355 Si / 1000 Ang^3
#
#
#
# Elastic Constant Matrix: (Units=GPa)
#
#
# Indices 1 2 3 4 5 6 
#
# 1 69.0191 36.4660 9.9319 0.0000 20.1191 0.0000
# 2 36.4660 112.8890 32.1617 0.0000 14.4592 0.0000
# 3 9.9319 32.1617 86.5028 0.0000 15.9591 -0.0001
# 4 0.0000 0.0000 0.0000 68.4540 0.0000 27.7165
# 5 20.1191 14.4592 15.9591 0.0000 21.1924 0.0000
# 6 0.0000 0.0000 -0.0001 27.7165 0.0000 12.2668
#
#
#
# Elastic Compliance Matrix: (Units=1/GPa)
#
#
# Indices 1 2 3 4 5 6 
#
# 1 0.022990 -0.005746 0.003252 0.000000 -0.020354 0.000000
# 2 -0.005746 0.011751 -0.003759 0.000000 0.000268 0.000000
# 3 0.003252 -0.003759 0.014727 0.000000 -0.011613 0.000000
# 4 0.000000 0.000000 0.000000 0.171547 0.000000 -0.387605
# 5 -0.020354 0.000268 -0.011613 0.000000 0.075072 -0.000001
# 6 0.000000 0.000000 0.000000 -0.387605 -0.000001 0.957302
#
#
# Mechanical properties :
#
#
# Convention : Reuss Voigt Hill
#
# Bulk Modulus (GPa) = 27.05462 47.28112 37.16787
# Shear Modulus (GPa) = 3.91171 33.03940 18.47555
#
# Velocity S-wave (km/s) = 1.26955 3.68964 2.75910
# Velocity P-wave (km/s) = 3.64644 6.13456 5.04625
#
# Compressibility (1/GPa) = 0.03696227
#
# Stress axis : x y z
#
# Youngs Moduli (GPa) = 43.49776 85.10076 67.90301
#
# Poissons Ratio (x) = 0.48896 -0.22081
# Poissons Ratio (y) = 0.24992 0.25522
# Poissons Ratio (z) = -0.14145 0.31986
#
# Static dielectric constant tensor:
#      x y z
#    x 1.914820 0.000000 0.018550 
#    y 0.000000 1.946770 0.000000 
#    z 0.018550 0.000000 1.946380 
# 
# From -- ./inp_files/140772.got.cif
#   From: 2010.05.17/outbox.cif.g08.bks.cpg/sg15_71_cif.got.tgz:140772.got - 2010.06.03 18:47:42.
