data_PCOD9290071
_publ_section_title
;
Structure prediction by ZEFSAII (Michael W. Deem and Ramdas Pophale) SiO2 
 PCOD9290071
Probable space group: C 2/C
;
_chemical_formula_sum "Si O2"
_cell_formula_units_Z 40
_cell_length_a 10.696260
_cell_length_b 11.007545
_cell_length_c 19.917228
_cell_angle_alpha 90.000000
_cell_angle_beta 44.528350
_cell_angle_gamma 90.000000
_cell_volume 1644.491680
_symmetry_space_group_name_H-M "C 2/C"
_symmetry_group_IT_number 15
_symmetry_cell_setting 'monoclinic'
loop_
_space_group_symop_operation_xyz
x,y,z
-x,y,1/2-z
-x,-y,-z
x,-y,1/2+z
1/2+x,1/2+y,z
1/2-x,1/2+y,1/2-z
1/2-x,1/2-y,-z
1/2+x,1/2-y,1/2+z
loop_
_atom_site_type_symbol
_atom_site_label
_atom_site_fract_x
_atom_site_fract_y
_atom_site_fract_z
Si Si1 0.991126 0.286064 0.110290
Si Si2 0.739428 0.602475 0.082406
Si Si3 0.580785 0.975768 0.648235
Si Si4 0.822389 0.715005 0.184956
Si Si5 0.359043 0.624524 0.958516
O O1 0.109360 0.168457 0.079202
O O2 0.044761 0.385102 0.145679
O O3 0.791353 0.248455 0.205361
O O4 0.061522 0.352345 0.016057
O O5 0.708729 0.658518 0.167380
O O6 0.698743 0.461929 0.081924
O O7 0.500000 0.945940 0.750000
O O8 0.459327 0.894102 0.646133
O O9 0.783920 0.942425 0.553586
O O10 0.935797 0.834663 0.121865
O O11 0.250000 0.750000 0.000000
#
# Coordination Sequence:
#
# PCOD9290071 Si02
#       5
#     8   8   8   8   8
#     4  10  23  42  64  96 126 173 223 277 329 410
#     4  10  22  44  67  93 138 170 226 279 332 407
#     4  10  22  41  60  92 134 167 223 281 329 405
#     4  11  23  40  70  96 130 183 218 275 349 396
#     4   9  22  41  62  98 132 169 220 278 332 401
#
# _framework density 24.323626999999998
#
# number of rings (size 3 to 8) (size 9 to 14) (size 15 to 20)
#    0.000    2.000    0.000    1.800    5.600    7.200 
#    3.600    4.000    0.000    0.000    0.000    0.000 
#    0.000    0.000    0.000    0.000    0.000    0.000 
#
# Total GULP energy -111639.541408 kJ/mol
# GULP energy per Si atom -5581.977070 kJ/mol
# Density = 2.426826 g / cm^3
# Si number density = 24.323627 Si / 1000 Ang^3
#
#
#
# Elastic Constant Matrix: (Units=GPa)
#
#
# Indices 1 2 3 4 5 6 
#
# 1 36.3411 22.7274 17.3114 0.0000 -0.2337 0.0000
# 2 22.7274 127.6143 11.0912 0.0000 -14.7743 0.0000
# 3 17.3114 11.0912 103.8975 0.0000 -22.4063 0.0000
# 4 0.0000 0.0000 0.0000 22.1949 0.0000 -17.4040
# 5 -0.2337 -14.7743 -22.4063 0.0000 31.6983 0.0000
# 6 0.0000 0.0000 0.0000 -17.4040 0.0000 2.5907
#
#
#
# Elastic Compliance Matrix: (Units=1/GPa)
#
#
# Indices 1 2 3 4 5 6 
#
# 1 0.034710 -0.006467 -0.006711 0.000000 -0.007502 0.000000
# 2 -0.006467 0.009488 0.001189 0.000000 0.005215 0.000000
# 3 -0.006711 0.001189 0.012654 0.000000 0.009449 0.000000
# 4 0.000000 0.000000 0.000000 -0.010557 0.000000 -0.070921
# 5 -0.007502 0.005215 0.009449 0.000000 0.040602 0.000000
# 6 0.000000 0.000000 0.000000 -0.070921 0.000000 -0.090443
#
#
# Mechanical properties :
#
#
# Convention : Reuss Voigt Hill
#
# Bulk Modulus (GPa) = 30.41793 41.12365 35.77079
# Shear Modulus (GPa) = 159.28849 25.74497 92.51673
#
# Velocity S-wave (km/s) = 8.10119 3.25689 6.17400
# Velocity P-wave (km/s) = 10.00192 5.57554 8.09707
#
# Compressibility (1/GPa) = 0.03287535
#
# Stress axis : x y z
#
# Youngs Moduli (GPa) = 28.81018 105.39324 79.02697
#
# Poissons Ratio (x) = 0.68157 0.53034
# Poissons Ratio (y) = 0.18631 -0.09399
# Poissons Ratio (z) = 0.19334 -0.12535
#
# Static dielectric constant tensor:
#      x y z
#    x 1.979500 0.000000 -0.007150 
#    y 0.000000 1.936640 0.000000 
#    z -0.007150 0.000000 2.027680 
# 
# From -- ./inp_files/142113.got.cif
#   From: 2010.05.17/outbox.cif.g08.bks.cpg/sg15_72_cif.got.tgz:142113.got - 2010.06.03 18:47:42.
