data_PCOD9290732
_publ_section_title
;
Structure prediction by ZEFSAII (Michael W. Deem and Ramdas Pophale) SiO2 
 PCOD9290732
Probable space group: C 2/C
;
_chemical_formula_sum "Si O2"
_cell_formula_units_Z 36
_cell_length_a 19.138391
_cell_length_b 6.801419
_cell_length_c 14.891076
_cell_angle_alpha 90.000000
_cell_angle_beta 47.559001
_cell_angle_gamma 90.000000
_cell_volume 1430.445434
_symmetry_space_group_name_H-M "C 2/C"
_symmetry_group_IT_number 15
_symmetry_cell_setting 'monoclinic'
loop_
_space_group_symop_operation_xyz
x,y,z
-x,y,1/2-z
-x,-y,-z
x,-y,1/2+z
1/2+x,1/2+y,z
1/2-x,1/2+y,1/2-z
1/2-x,1/2-y,-z
1/2+x,1/2-y,1/2+z
loop_
_atom_site_type_symbol
_atom_site_label
_atom_site_fract_x
_atom_site_fract_y
_atom_site_fract_z
Si Si1 0.351341 0.156255 0.391499
Si Si2 0.779191 0.661520 0.823339
Si Si3 0.500000 0.532549 0.750000
Si Si4 0.568332 0.385521 0.504866
Si Si5 0.854017 0.511895 0.576218
O O1 0.250000 0.250000 0.500000
O O2 0.416696 0.320590 0.290119
O O3 0.338728 0.954408 0.346715
O O4 0.391634 0.117279 0.455668
O O5 0.828964 0.636989 0.684543
O O6 0.741493 0.884293 0.870366
O O7 0.678066 0.548298 0.906867
O O8 0.534734 0.404302 0.636355
O O9 0.500000 0.500000 0.500000
O O10 0.574404 0.163301 0.464628
#
# Coordination Sequence:
#
# PCOD9290732 Si02
#       5
#     8   8   4   8   8
#     4  12  23  45  67 100 135 178 230 279 344 407
#     4  10  22  41  69  93 134 174 225 280 337 393
#     4  12  26  42  68  96 138 180 218 288 338 402
#     4  10  24  43  66  99 135 178 226 276 342 402
#     4  10  23  42  68 102 128 182 224 277 345 400
#
# _framework density 25.166985
#
# number of rings (size 3 to 8) (size 9 to 14) (size 15 to 20)
#    1.333    0.000    2.222    3.333    3.111    0.889 
#    4.000    2.222    0.000    0.000    0.000    0.000 
#    0.000    0.000    0.000    0.000    0.000    0.000 
#
# Total GULP energy -100726.464023 kJ/mol
# GULP energy per Si atom -5595.914668 kJ/mol
# Density = 2.510970 g / cm^3
# Si number density = 25.166985 Si / 1000 Ang^3
#
#
#
# Elastic Constant Matrix: (Units=GPa)
#
#
# Indices 1 2 3 4 5 6 
#
# 1 67.6606 0.3386 23.2984 -0.0003 0.6065 -0.0005
# 2 0.3386 61.4129 21.0958 -0.0014 -1.2726 -0.0009
# 3 23.2984 21.0958 125.8917 -0.0004 13.5246 0.0001
# 4 -0.0003 -0.0014 -0.0004 34.8768 -0.0001 2.6677
# 5 0.6065 -1.2726 13.5246 -0.0001 43.4597 0.0002
# 6 -0.0005 -0.0009 0.0001 2.6677 0.0002 42.6654
#
#
#
# Elastic Compliance Matrix: (Units=1/GPa)
#
#
# Indices 1 2 3 4 5 6 
#
# 1 0.015867 0.001027 -0.003195 0.000000 0.000803 0.000000
# 2 0.001027 0.017434 -0.003274 0.000001 0.001515 0.000000
# 3 -0.003195 -0.003274 0.009403 0.000000 -0.002978 0.000000
# 4 0.000000 0.000001 0.000000 0.028810 0.000000 -0.001801
# 5 0.000803 0.001515 -0.002978 0.000000 0.023970 0.000000
# 6 0.000000 0.000000 0.000000 -0.001801 0.000000 0.023551
#
#
# Mechanical properties :
#
#
# Convention : Reuss Voigt Hill
#
# Bulk Modulus (GPa) = 31.42726 38.27008 34.84867
# Shear Modulus (GPa) = 35.58062 38.21587 36.89824
#
# Velocity S-wave (km/s) = 3.76411 3.90101 3.83317
# Velocity P-wave (km/s) = 5.60410 5.96070 5.78515
#
# Compressibility (1/GPa) = 0.03181951
#
# Stress axis : x y z
#
# Youngs Moduli (GPa) = 63.02221 57.36031 106.34775
#
# Poissons Ratio (x) = -0.05889 0.33976
# Poissons Ratio (y) = -0.06470 0.34820
# Poissons Ratio (z) = 0.20134 0.18781
#
# Static dielectric constant tensor:
#      x y z
#    x 2.001850 0.000000 -0.051070 
#    y 0.000000 2.040510 0.000000 
#    z -0.051070 0.000000 1.922540 
# 
# From -- ./inp_files/159554.got.cif
#   From: 2010.05.17/outbox.cif.g08.bks.cpg/sg15_80_cif.got.tgz:159554.got - 2010.06.03 18:47:42.
