data_PCOD9290467
_publ_section_title
;
Structure prediction by ZEFSAII (Michael W. Deem and Ramdas Pophale) SiO2 
 PCOD9290467
Probable space group: C 2/C
;
_chemical_formula_sum "Si O2"
_cell_formula_units_Z 48
_cell_length_a 7.802109
_cell_length_b 20.528147
_cell_length_c 18.125782
_cell_angle_alpha 90.000000
_cell_angle_beta 47.799279
_cell_angle_gamma 90.000000
_cell_volume 2150.588046
_symmetry_space_group_name_H-M "C 2/C"
_symmetry_group_IT_number 15
_symmetry_cell_setting 'monoclinic'
loop_
_space_group_symop_operation_xyz
x,y,z
-x,y,1/2-z
-x,-y,-z
x,-y,1/2+z
1/2+x,1/2+y,z
1/2-x,1/2+y,1/2-z
1/2-x,1/2-y,-z
1/2+x,1/2-y,1/2+z
loop_
_atom_site_type_symbol
_atom_site_label
_atom_site_fract_x
_atom_site_fract_y
_atom_site_fract_z
Si Si1 0.852599 0.058808 0.074507
Si Si2 0.500000 0.116951 0.750000
Si Si3 0.000000 0.125891 0.750000
Si Si4 0.548884 0.682547 0.949965
Si Si5 0.211045 0.013992 0.757889
Si Si6 0.449724 0.942874 0.571355
Si Si7 0.369881 0.183024 0.549439
O O1 0.632348 0.064692 0.085171
O O2 0.802136 0.035762 0.171328
O O3 0.989413 0.125622 0.024839
O O4 0.000000 0.000000 0.000000
O O5 0.288929 0.161416 0.840947
O O6 0.427955 0.063973 0.707606
O O7 0.978552 0.072404 0.690190
O O8 0.773038 0.168062 0.833762
O O9 0.345016 0.685432 0.946860
O O10 0.518585 0.751474 0.999778
O O11 0.233858 0.970686 0.678544
O O12 0.464600 0.876361 0.521797
O O13 0.500000 0.000000 0.500000
#
# Coordination Sequence:
#
# PCOD9290467 Si02
#       7
#     8   4   4   8   8   8   8
#     4  11  20  39  64  95 123 165 214 265 314 387
#     4  12  20  40  68  92 126 176 214 274 324 384
#     4  12  22  40  66  92 130 180 210 270 340 384
#     4  10  22  41  66  92 130 169 216 263 327 394
#     4  12  22  37  66 100 128 169 223 268 328 383
#     4  11  21  37  65  95 127 160 213 268 314 381
#     4  10  22  42  63  94 131 172 210 265 326 401
#
# _framework density 22.319479000000001
#
# number of rings (size 3 to 8) (size 9 to 14) (size 15 to 20)
#    0.000    1.000    6.667    1.000    0.000    0.000 
#    9.000    1.667    0.000    0.000    0.000    0.000 
#    0.000    0.000    0.000    0.000    0.000    0.000 
#
# Total GULP energy -133846.399639 kJ/mol
# GULP energy per Si atom -5576.933318 kJ/mol
# Density = 2.226868 g / cm^3
# Si number density = 22.319479 Si / 1000 Ang^3
#
#
#
# Elastic Constant Matrix: (Units=GPa)
#
#
# Indices 1 2 3 4 5 6 
#
# 1 29.6632 20.7821 24.5469 0.0000 -11.0321 0.0000
# 2 20.7821 231.3151 107.8756 0.0000 -16.4813 0.0000
# 3 24.5469 107.8756 180.7545 0.0000 -7.0158 0.0000
# 4 0.0000 0.0000 0.0000 42.6836 0.0000 -4.6065
# 5 -11.0321 -16.4813 -7.0158 0.0000 38.3573 0.0000
# 6 0.0000 0.0000 0.0000 -4.6065 0.0000 23.8797
#
#
#
# Elastic Compliance Matrix: (Units=1/GPa)
#
#
# Indices 1 2 3 4 5 6 
#
# 1 0.042353 -0.000748 -0.004879 0.000000 0.010967 0.000000
# 2 -0.000748 0.006149 -0.003499 0.000000 0.001787 0.000000
# 3 -0.004879 -0.003499 0.008229 0.000000 -0.001402 0.000000
# 4 0.000000 0.000000 0.000000 0.023926 0.000000 0.004615
# 5 0.010967 0.001787 -0.001402 0.000000 0.029737 0.000000
# 6 0.000000 0.000000 0.000000 0.004615 0.000000 0.042767
#
#
# Mechanical properties :
#
#
# Convention : Reuss Voigt Hill
#
# Bulk Modulus (GPa) = 25.98908 83.12690 54.55799
# Shear Modulus (GPa) = 27.13853 40.21934 33.67894
#
# Velocity S-wave (km/s) = 3.49078 4.24958 3.88873
# Velocity P-wave (km/s) = 5.28363 7.83604 6.68283
#
# Compressibility (1/GPa) = 0.03847769
#
# Stress axis : x y z
#
# Youngs Moduli (GPa) = 23.61131 162.61527 121.52322
#
# Poissons Ratio (x) = 0.12165 0.59296
# Poissons Ratio (y) = 0.01766 0.42522
# Poissons Ratio (z) = 0.11521 0.56901
#
# Static dielectric constant tensor:
#      x y z
#    x 2.087820 0.000000 0.075490 
#    y 0.000000 1.776540 0.000000 
#    z 0.075490 0.000000 1.994870 
# 
# From -- ./inp_files/191985.got.cif
#   From: 2010.05.17/outbox.cif.g08.bks.cpg/sg15_96_cif.got.tgz:191985.got - 2010.06.03 18:47:42.
