data_PCOD9290205
_publ_section_title
;
Structure prediction by ZEFSAII (Michael W. Deem and Ramdas Pophale) SiO2 
 PCOD9290205
Probable space group: C 2/C
;
_chemical_formula_sum "Si O2"
_cell_formula_units_Z 44
_cell_length_a 18.464279
_cell_length_b 19.718768
_cell_length_c 15.785576
_cell_angle_alpha 90.000000
_cell_angle_beta 160.580560
_cell_angle_gamma 90.000000
_cell_volume 1910.907128
_symmetry_space_group_name_H-M "C 2/C"
_symmetry_group_IT_number 15
_symmetry_cell_setting 'monoclinic'
loop_
_space_group_symop_operation_xyz
x,y,z
-x,y,1/2-z
-x,-y,-z
x,-y,1/2+z
1/2+x,1/2+y,z
1/2-x,1/2+y,1/2-z
1/2-x,1/2-y,-z
1/2+x,1/2-y,1/2+z
loop_
_atom_site_type_symbol
_atom_site_label
_atom_site_fract_x
_atom_site_fract_y
_atom_site_fract_z
Si Si1 0.050007 0.693155 0.898879
Si Si2 0.375870 0.139829 0.279421
Si Si3 0.255282 0.322754 0.299854
Si Si4 0.500000 0.375871 0.250000
Si Si5 0.675658 0.965134 0.007567
Si Si6 0.353253 0.410623 0.802048
O O1 0.000000 0.716864 0.750000
O O2 0.853395 0.656505 0.730598
O O3 0.114312 0.755904 0.029826
O O4 0.245131 0.640490 0.114491
O O5 0.559540 0.190570 0.517666
O O6 0.265487 0.104886 0.240046
O O7 0.516461 0.085283 0.382633
O O8 0.178178 0.164479 0.002174
O O9 0.402307 0.382864 0.425791
O O10 0.356070 0.423369 0.153516
O O11 0.801412 0.015885 0.208742
O O12 0.500000 0.000717 0.750000
#
# Coordination Sequence:
#
# PCOD9290205 Si02
#       6
#     8   8   8   4   8   8
#     4  11  23  40  60  92 132 174 211 246 301 372
#     4  10  23  41  64  91 124 167 210 258 316 369
#     4  11  23  38  62  90 125 170 211 255 302 364
#     4  10  22  42  66  90 124 162 210 268 314 370
#     4  10  22  41  63  95 129 166 207 253 312 376
#     4  11  23  38  63  94 130 168 205 254 305 373
#
# _framework density 23.025714000000001
#
# number of rings (size 3 to 8) (size 9 to 14) (size 15 to 20)
#    0.000    1.455    1.818    2.727    0.000   10.182 
#    0.000    0.000    0.000    4.364    2.364    0.000 
#    0.000    0.000    0.000    0.000    0.000    0.000 
#
# Total GULP energy -122855.546575 kJ/mol
# GULP energy per Si atom -5584.343026 kJ/mol
# Density = 2.297331 g / cm^3
# Si number density = 23.025714 Si / 1000 Ang^3
#
#
#
# Elastic Constant Matrix: (Units=GPa)
#
#
# Indices 1 2 3 4 5 6 
#
# 1 109.1477 22.7240 70.4335 0.0000 -1.1381 0.0000
# 2 22.7240 41.6467 31.1412 0.0000 -11.3543 0.0000
# 3 70.4335 31.1412 141.4203 0.0002 -4.2868 -0.0001
# 4 0.0000 0.0000 0.0002 27.4073 0.0001 -10.1581
# 5 -1.1381 -11.3543 -4.2868 0.0001 41.0022 0.0000
# 6 0.0000 0.0000 -0.0001 -10.1581 0.0000 19.6381
#
#
#
# Elastic Compliance Matrix: (Units=1/GPa)
#
#
# Indices 1 2 3 4 5 6 
#
# 1 0.013830 -0.003214 -0.006215 0.000000 -0.001156 0.000000
# 2 -0.003214 0.031863 -0.005167 0.000000 0.008194 0.000000
# 3 -0.006215 -0.005167 0.011292 0.000000 -0.000423 0.000000
# 4 0.000000 0.000000 0.000000 0.045141 0.000000 0.023350
# 5 -0.001156 0.008194 -0.000423 0.000000 0.026582 0.000000
# 6 0.000000 0.000000 0.000000 0.023350 0.000000 0.062999
#
#
# Mechanical properties :
#
#
# Convention : Reuss Voigt Hill
#
# Bulk Modulus (GPa) = 35.98204 60.09023 48.03614
# Shear Modulus (GPa) = 21.72386 28.80394 25.26390
#
# Velocity S-wave (km/s) = 3.07491 3.54071 3.31600
# Velocity P-wave (km/s) = 5.31673 6.54745 5.96392
#
# Compressibility (1/GPa) = 0.02779164
#
# Stress axis : x y z
#
# Youngs Moduli (GPa) = 72.30898 31.38449 88.56176
#
# Poissons Ratio (x) = 0.10086 0.55042
# Poissons Ratio (y) = 0.23238 0.45763
# Poissons Ratio (z) = 0.44941 0.16218
#
# Static dielectric constant tensor:
#      x y z
#    x 1.834050 0.000000 -0.005810 
#    y 0.000000 1.837560 0.000000 
#    z -0.005810 0.000000 1.975010 
# 
# From -- ./inp_files/164292.got.cif
#   From: 2010.05.17/outbox.cif.g08.bks.cpg/sg15_83_cif.got.tgz:164292.got - 2010.06.03 18:47:42.
