data_PCOD9290892
_publ_section_title
;
Structure prediction by ZEFSAII (Michael W. Deem and Ramdas Pophale) SiO2 
 PCOD9290892
Probable space group: C 2/C
;
_chemical_formula_sum "Si O2"
_cell_formula_units_Z 40
_cell_length_a 11.768663
_cell_length_b 13.446019
_cell_length_c 11.005285
_cell_angle_alpha 90.000000
_cell_angle_beta 85.620132
_cell_angle_gamma 90.000000
_cell_volume 1736.408858
_symmetry_space_group_name_H-M "C 2/C"
_symmetry_group_IT_number 15
_symmetry_cell_setting 'monoclinic'
loop_
_space_group_symop_operation_xyz
x,y,z
-x,y,1/2-z
-x,-y,-z
x,-y,1/2+z
1/2+x,1/2+y,z
1/2-x,1/2+y,1/2-z
1/2-x,1/2-y,-z
1/2+x,1/2-y,1/2+z
loop_
_atom_site_type_symbol
_atom_site_label
_atom_site_fract_x
_atom_site_fract_y
_atom_site_fract_z
Si Si1 0.624562 0.017979 0.050544
Si Si2 0.126399 0.280011 0.692538
Si Si3 0.841401 0.092241 0.943805
Si Si4 0.018750 0.086562 0.120187
Si Si5 0.210555 0.836134 0.416985
O O1 0.632718 0.105171 0.151669
O O2 0.690930 0.920030 0.092183
O O3 0.711933 0.058977 0.941700
O O4 0.500000 0.000000 0.000000
O O5 0.195733 0.220601 0.790458
O O6 0.000000 0.268166 0.750000
O O7 0.856677 0.208280 0.922745
O O8 0.917339 0.017917 0.856133
O O9 0.894344 0.072921 0.072867
O O10 0.000000 0.141236 0.250000
O O11 0.096891 0.128518 0.002450
O O12 0.250000 0.750000 0.500000
#
# Coordination Sequence:
#
# PCOD9290892 Si02
#       5
#     8   8   8   8   8
#     4  11  27  48  72 109 156 200 253 315 393 461
#     4  12  24  46  77 106 156 197 249 324 377 459
#     4  10  23  43  72 109 143 197 261 310 384 450
#     4  10  22  41  75 107 144 191 263 323 368 450
#     4  11  26  47  74 112 147 199 257 310 383 457
#
# _framework density 23.036048999999998
#
# number of rings (size 3 to 8) (size 9 to 14) (size 15 to 20)
#    0.000    1.200    2.000    2.400    8.400    3.200 
#    0.000    1.000    0.000    0.000    0.000    0.000 
#    0.000    0.000    0.000    0.000    0.000    0.000 
#
# Total GULP energy -111375.259990 kJ/mol
# GULP energy per Si atom -5568.762999 kJ/mol
# Density = 2.298362 g / cm^3
# Si number density = 23.036049 Si / 1000 Ang^3
#
#
#
# Elastic Constant Matrix: (Units=GPa)
#
#
# Indices 1 2 3 4 5 6 
#
# 1 176.5113 70.5236 45.8077 0.0000 -1.1811 0.0000
# 2 70.5236 174.4664 46.6842 0.0000 17.3949 0.0000
# 3 45.8077 46.6842 93.9929 0.0000 7.5401 0.0000
# 4 0.0000 0.0000 0.0000 42.6667 0.0000 -4.5877
# 5 -1.1811 17.3949 7.5401 0.0000 21.6694 0.0000
# 6 0.0000 0.0000 0.0000 -4.5877 0.0000 7.7219
#
#
#
# Elastic Compliance Matrix: (Units=1/GPa)
#
#
# Indices 1 2 3 4 5 6 
#
# 1 0.007415 -0.002651 -0.002572 0.000000 0.003427 0.000000
# 2 -0.002651 0.007968 -0.002203 0.000000 -0.005775 0.000000
# 3 -0.002572 -0.002203 0.013225 0.000000 -0.002974 0.000000
# 4 0.000000 0.000000 0.000000 0.025037 0.000000 0.014875
# 5 0.003427 -0.005775 -0.002974 0.000000 0.052005 0.000000
# 6 0.000000 0.000000 0.000000 0.014875 0.000000 0.138339
#
#
# Mechanical properties :
#
#
# Convention : Reuss Voigt Hill
#
# Bulk Modulus (GPa) = 72.68689 85.66685 79.17687
# Shear Modulus (GPa) = 18.98065 33.20860 26.09463
#
# Velocity S-wave (km/s) = 2.87357 3.80095 3.36932
# Velocity P-wave (km/s) = 6.52931 7.51877 7.04144
#
# Compressibility (1/GPa) = 0.01375764
#
# Stress axis : x y z
#
# Youngs Moduli (GPa) = 134.86471 125.49593 75.61355
#
# Poissons Ratio (x) = 0.33265 0.19448
# Poissons Ratio (y) = 0.35749 0.16655
# Poissons Ratio (z) = 0.34687 0.27642
#
# Static dielectric constant tensor:
#      x y z
#    x 1.905880 0.000000 0.057610 
#    y 0.000000 1.962490 0.000000 
#    z 0.057610 0.000000 1.681350 
# 
# From -- ./inp_files/85503.got.cif
#   From: 2010.05.17/outbox.cif.g08.bks.cpg/sg15_43_cif.got.tgz:85503.got - 2010.06.03 18:47:42.
