data_PCOD9290589
_publ_section_title
;
Structure prediction by ZEFSAII (Michael W. Deem and Ramdas Pophale) SiO2 
 PCOD9290589
Probable space group: C 2/C
;
_chemical_formula_sum "Si O2"
_cell_formula_units_Z 48
_cell_length_a 19.780230
_cell_length_b 21.835146
_cell_length_c 5.396879
_cell_angle_alpha 90.000000
_cell_angle_beta 67.257588
_cell_angle_gamma 90.000000
_cell_volume 2149.709660
_symmetry_space_group_name_H-M "C 2/C"
_symmetry_group_IT_number 15
_symmetry_cell_setting 'monoclinic'
loop_
_space_group_symop_operation_xyz
x,y,z
-x,y,1/2-z
-x,-y,-z
x,-y,1/2+z
1/2+x,1/2+y,z
1/2-x,1/2+y,1/2-z
1/2-x,1/2-y,-z
1/2+x,1/2-y,1/2+z
loop_
_atom_site_type_symbol
_atom_site_label
_atom_site_fract_x
_atom_site_fract_y
_atom_site_fract_z
Si Si1 0.473648 0.767103 0.531632
Si Si2 0.325363 0.719129 0.811768
Si Si3 0.586908 0.387520 0.081029
Si Si4 0.339893 0.596220 0.527718
Si Si5 0.964832 0.403913 0.052178
Si Si6 0.183403 0.463322 0.168046
O O1 0.500000 0.739009 0.750000
O O2 0.386112 0.769644 0.653354
O O3 0.513445 0.832450 0.472916
O O4 0.500000 0.731604 0.250000
O O5 0.366679 0.676676 0.957870
O O6 0.319157 0.668274 0.604245
O O7 0.250000 0.750000 0.000000
O O8 0.500000 0.386009 0.250000
O O9 0.622657 0.423197 0.265458
O O10 0.606911 0.410834 0.780919
O O11 0.264795 0.561671 0.583608
O O12 0.878581 0.413246 0.186094
O O13 0.000000 0.431543 0.250000
O O14 0.000000 0.428643 0.750000
O O15 0.172801 0.513035 0.402630
#
# Coordination Sequence:
#
# PCOD9290589 Si02
#       6
#     8   8   8   8   8   8
#     4  10  23  38  62  93 138 179 221 268 332 398
#     4  10  25  38  65  99 135 181 227 270 342 412
#     4  10  22  41  67  95 136 174 220 275 345 400
#     4  10  25  42  67  99 133 173 230 282 346 406
#     4  10  23  41  66  96 137 179 229 281 333 400
#     4  12  26  46  74  97 135 182 233 290 350 396
#
# _framework density 22.328596000000001
#
# number of rings (size 3 to 8) (size 9 to 14) (size 15 to 20)
#    1.000    0.667    0.000    3.000    9.333    5.333 
#    0.000    0.000    0.000   10.000    0.000    0.000 
#    0.000    0.000    0.000    0.000    0.000    0.000 
#
# Total GULP energy -133839.037868 kJ/mol
# GULP energy per Si atom -5576.626578 kJ/mol
# Density = 2.227777 g / cm^3
# Si number density = 22.328596 Si / 1000 Ang^3
#
#
#
# Elastic Constant Matrix: (Units=GPa)
#
#
# Indices 1 2 3 4 5 6 
#
# 1 87.3357 -6.7681 49.0119 0.0000 -27.4863 0.0000
# 2 -6.7681 26.7982 -2.0584 0.0000 -9.6213 0.0000
# 3 49.0119 -2.0584 182.6792 0.0000 -2.1288 0.0000
# 4 0.0000 0.0000 0.0000 0.5543 0.0000 -18.2451
# 5 -27.4863 -9.6213 -2.1288 0.0000 58.9948 0.0000
# 6 0.0000 0.0000 0.0000 -18.2451 0.0000 -3.8709
#
#
#
# Elastic Compliance Matrix: (Units=1/GPa)
#
#
# Indices 1 2 3 4 5 6 
#
# 1 0.017413 0.007338 -0.004483 0.000000 0.009148 0.000000
# 2 0.007338 0.042779 -0.001366 0.000000 0.010346 0.000000
# 3 -0.004483 -0.001366 0.006637 0.000000 -0.002072 0.000000
# 4 0.000000 0.000000 0.000000 0.011554 0.000000 -0.054458
# 5 0.009148 0.010346 -0.002072 0.000000 0.022825 0.000000
# 6 0.000000 0.000000 0.000000 -0.054458 0.000000 -0.001654
#
#
# Mechanical properties :
#
#
# Convention : Reuss Voigt Hill
#
# Bulk Modulus (GPa) = 14.32501 41.90933 28.11717
# Shear Modulus (GPa) = 41.72040 28.24415 34.98227
#
# Velocity S-wave (km/s) = 4.32727 3.56045 3.96245
# Velocity P-wave (km/s) = 5.60326 5.97599 5.79263
#
# Compressibility (1/GPa) = 0.06980796
#
# Stress axis : x y z
#
# Youngs Moduli (GPa) = 57.42689 23.37601 150.66567
#
# Poissons Ratio (x) = -0.17153 0.67538
# Poissons Ratio (y) = -0.42140 0.20583
# Poissons Ratio (z) = 0.25742 0.03194
#
# Static dielectric constant tensor:
#      x y z
#    x 1.794170 0.000000 0.057480 
#    y 0.000000 1.617890 0.000000 
#    z 0.057480 0.000000 1.885220 
# 
# From -- ./inp_files/13626.got.cif
#   From: 2010.05.17/outbox.cif.g08.bks.cpg/sg15_7_cif.got.tgz:13626.got - 2010.06.03 18:47:42.
