data_PCOD9290406
_publ_section_title
;
Structure prediction by ZEFSAII (Michael W. Deem and Ramdas Pophale) SiO2 
 PCOD9290406
Probable space group: C 2/C
;
_chemical_formula_sum "Si O2"
_cell_formula_units_Z 36
_cell_length_a 15.140045
_cell_length_b 9.323859
_cell_length_c 24.171553
_cell_angle_alpha 90.000000
_cell_angle_beta 27.203019
_cell_angle_gamma 90.000000
_cell_volume 1559.844095
_symmetry_space_group_name_H-M "C 2/C"
_symmetry_group_IT_number 15
_symmetry_cell_setting 'monoclinic'
loop_
_space_group_symop_operation_xyz
x,y,z
-x,y,1/2-z
-x,-y,-z
x,-y,1/2+z
1/2+x,1/2+y,z
1/2-x,1/2+y,1/2-z
1/2-x,1/2-y,-z
1/2+x,1/2-y,1/2+z
loop_
_atom_site_type_symbol
_atom_site_label
_atom_site_fract_x
_atom_site_fract_y
_atom_site_fract_z
Si Si1 0.622277 0.610467 0.053032
Si Si2 0.778226 0.568254 0.564404
Si Si3 0.000000 0.679332 0.250000
Si Si4 0.194885 0.412982 0.164508
Si Si5 0.716317 0.135274 0.330887
O O1 0.691078 0.491142 0.057005
O O2 0.394875 0.625317 0.189874
O O3 0.750000 0.750000 0.000000
O O4 0.670323 0.570024 0.963689
O O5 0.670237 0.717065 0.636148
O O6 0.742528 0.458384 0.635919
O O7 0.006999 0.582963 0.429586
O O8 0.896343 0.564555 0.266493
O O9 0.294629 0.304494 0.149752
O O10 0.000000 0.334002 0.250000
#
# Coordination Sequence:
#
# PCOD9290406 Si02
#       5
#     8   8   4   8   8
#     4  12  20  42  71  94 133 177 231 280 350 409
#     4  11  23  42  69  97 131 182 229 284 336 424
#     4  10  22  44  62  92 144 176 218 284 352 388
#     4  10  22  41  65  96 132 182 215 285 350 395
#     4  11  22  43  69  96 131 180 235 276 351 407
#
# _framework density 23.079228000000001
#
# number of rings (size 3 to 8) (size 9 to 14) (size 15 to 20)
#    0.667    0.444    6.667    0.000    0.000    1.778 
#    8.000    0.000    0.000    0.000    0.000    0.000 
#    0.000    0.000    0.000    0.000    0.000    0.000 
#
# Total GULP energy -100575.056498 kJ/mol
# GULP energy per Si atom -5587.503139 kJ/mol
# Density = 2.302670 g / cm^3
# Si number density = 23.079228 Si / 1000 Ang^3
#
#
#
# Elastic Constant Matrix: (Units=GPa)
#
#
# Indices 1 2 3 4 5 6 
#
# 1 33.5800 6.7256 32.1820 0.0003 2.1138 -0.0002
# 2 6.7256 115.8932 27.1293 0.0004 -6.5227 -0.0003
# 3 32.1820 27.1293 198.0554 -0.0011 4.9509 0.0009
# 4 0.0003 0.0004 -0.0011 29.4259 -0.0002 -7.0131
# 5 2.1138 -6.5227 4.9509 -0.0002 23.9345 0.0001
# 6 -0.0002 -0.0003 0.0009 -7.0131 0.0001 -16.8805
#
#
#
# Elastic Compliance Matrix: (Units=1/GPa)
#
#
# Indices 1 2 3 4 5 6 
#
# 1 0.035446 -0.000874 -0.005585 -0.000001 -0.002214 -0.000001
# 2 -0.000874 0.009113 -0.001176 0.000000 0.002804 0.000000
# 3 -0.005585 -0.001176 0.006145 0.000000 -0.001098 0.000000
# 4 -0.000001 0.000000 0.000000 0.030922 0.000000 -0.012847
# 5 -0.002214 0.002804 -0.001098 0.000000 0.042968 0.000000
# 6 -0.000001 0.000000 0.000000 -0.012847 0.000000 -0.053903
#
#
# Mechanical properties :
#
#
# Convention : Reuss Voigt Hill
#
# Bulk Modulus (GPa) = 28.22187 53.28915 40.75551
# Shear Modulus (GPa) = 51.13957 26.06212 38.60084
#
# Velocity S-wave (km/s) = 4.71236 3.36407 4.09410
# Velocity P-wave (km/s) = 6.47018 6.18297 6.32821
#
# Compressibility (1/GPa) = 0.03543351
#
# Stress axis : x y z
#
# Youngs Moduli (GPa) = 28.21185 109.73912 162.73134
#
# Poissons Ratio (x) = 0.09595 0.90878
# Poissons Ratio (y) = 0.02467 0.19141
# Poissons Ratio (z) = 0.15755 0.12908
#
# Static dielectric constant tensor:
#      x y z
#    x 1.874320 0.000000 0.007850 
#    y 0.000000 1.920980 0.000000 
#    z 0.007850 0.000000 1.889430 
# 
# From -- ./inp_files/295363.got.cif
#   From: 2010.05.17/outbox.cif.g08.bks.cpg/sg15_148_cif.got.tgz:295363.got - 2010.06.03 18:47:42.
