data_PCOD9290768
_publ_section_title
;
Structure prediction by ZEFSAII (Michael W. Deem and Ramdas Pophale) SiO2 
 PCOD9290768
Probable space group: C 2/C
;
_chemical_formula_sum "Si O2"
_cell_formula_units_Z 40
_cell_length_a 12.561283
_cell_length_b 8.486336
_cell_length_c 19.466618
_cell_angle_alpha 90.000000
_cell_angle_beta 118.750665
_cell_angle_gamma 90.000000
_cell_volume 1819.307981
_symmetry_space_group_name_H-M "C 2/C"
_symmetry_group_IT_number 15
_symmetry_cell_setting 'monoclinic'
loop_
_space_group_symop_operation_xyz
x,y,z
-x,y,1/2-z
-x,-y,-z
x,-y,1/2+z
1/2+x,1/2+y,z
1/2-x,1/2+y,1/2-z
1/2-x,1/2-y,-z
1/2+x,1/2-y,1/2+z
loop_
_atom_site_type_symbol
_atom_site_label
_atom_site_fract_x
_atom_site_fract_y
_atom_site_fract_z
Si Si1 0.976802 0.839207 0.952534
Si Si2 0.477684 0.900704 0.665665
Si Si3 0.655483 0.133350 0.100405
Si Si4 0.151675 0.286936 0.410054
Si Si5 0.739184 0.300931 0.417179
O O1 0.834453 0.808472 0.906120
O O2 0.040156 0.824244 0.898108
O O3 0.044466 0.704035 0.019737
O O4 0.000000 0.000000 0.000000
O O5 0.500000 0.952027 0.750000
O O6 0.597388 0.887789 0.656800
O O7 0.398862 0.740719 0.643652
O O8 0.395915 0.036334 0.605417
O O9 0.770161 0.250850 0.133042
O O10 0.712277 0.974418 0.085649
O O11 0.250000 0.250000 0.500000
O O12 0.750000 0.250000 0.500000
#
# Coordination Sequence:
#
# PCOD9290768 Si02
#       5
#     8   8   8   8   8
#     4  11  20  37  69 106 132 168 228 289 340 392
#     4  12  27  46  66  99 144 184 223 279 348 411
#     4  11  23  42  67  99 140 173 228 284 332 407
#     4  10  22  41  69  99 132 178 226 283 339 403
#     4  12  21  39  71  99 131 178 227 281 337 398
#
# _framework density 21.986383
#
# number of rings (size 3 to 8) (size 9 to 14) (size 15 to 20)
#    0.000    0.800    4.000    6.600    0.000    1.600 
#    0.000    1.000    0.000    0.000    0.000    0.000 
#    0.000    0.000    0.000    0.000    0.000    0.000 
#
# Total GULP energy -111681.589157 kJ/mol
# GULP energy per Si atom -5584.079458 kJ/mol
# Density = 2.193634 g / cm^3
# Si number density = 21.986383 Si / 1000 Ang^3
#
#
#
# Elastic Constant Matrix: (Units=GPa)
#
#
# Indices 1 2 3 4 5 6 
#
# 1 194.5922 36.7362 16.6910 0.0000 -40.5260 0.0000
# 2 36.7362 108.6291 3.3706 0.0000 -5.4074 0.0000
# 3 16.6910 3.3706 45.8628 0.0000 -19.6802 0.0000
# 4 0.0000 0.0000 0.0000 12.8196 0.0000 0.6583
# 5 -40.5260 -5.4074 -19.6802 0.0000 23.8912 0.0000
# 6 0.0000 0.0000 0.0000 0.6583 0.0000 48.2509
#
#
#
# Elastic Compliance Matrix: (Units=1/GPa)
#
#
# Indices 1 2 3 4 5 6 
#
# 1 0.009117 -0.002289 0.005049 0.000000 0.019106 0.000000
# 2 -0.002289 0.009889 -0.000927 0.000000 -0.002408 0.000000
# 3 0.005049 -0.000927 0.036533 0.000000 0.038448 0.000000
# 4 0.000000 0.000000 0.000000 0.078060 0.000000 -0.001065
# 5 0.019106 -0.002408 0.038448 0.000000 0.105391 0.000000
# 6 0.000000 0.000000 0.000000 -0.001065 0.000000 0.020740
#
#
# Mechanical properties :
#
#
# Convention : Reuss Voigt Hill
#
# Bulk Modulus (GPa) = 16.89058 51.40886 34.14972
# Shear Modulus (GPa) = 18.12913 36.47809 27.30361
#
# Velocity S-wave (km/s) = 2.87463 4.07765 3.52780
# Velocity P-wave (km/s) = 4.32631 6.75297 5.67096
#
# Compressibility (1/GPa) = 0.05920460
#
# Stress axis : x y z
#
# Youngs Moduli (GPa) = 109.68573 101.12697 27.37222
#
# Poissons Ratio (x) = 0.23146 -0.13819
# Poissons Ratio (y) = 0.25105 0.02538
# Poissons Ratio (z) = -0.55377 0.09375
#
# Static dielectric constant tensor:
#      x y z
#    x 1.900060 0.000000 -0.051120 
#    y 0.000000 1.888200 0.000000 
#    z -0.051120 0.000000 1.849280 
# 
# From -- ./inp_files/235932.got.cif
#   From: 2010.05.17/outbox.cif.g08.bks.cpg/sg15_118_cif.got.tgz:235932.got - 2010.06.03 18:47:42.
