data_PCOD9290462
_publ_section_title
;
Structure prediction by ZEFSAII (Michael W. Deem and Ramdas Pophale) SiO2 
 PCOD9290462
Probable space group: C 2/C
;
_chemical_formula_sum "Si O2"
_cell_formula_units_Z 52
_cell_length_a 19.930242
_cell_length_b 6.442086
_cell_length_c 19.165163
_cell_angle_alpha 90.000000
_cell_angle_beta 94.870778
_cell_angle_gamma 90.000000
_cell_volume 2451.773884
_symmetry_space_group_name_H-M "C 2/C"
_symmetry_group_IT_number 15
_symmetry_cell_setting 'monoclinic'
loop_
_space_group_symop_operation_xyz
x,y,z
-x,y,1/2-z
-x,-y,-z
x,-y,1/2+z
1/2+x,1/2+y,z
1/2-x,1/2+y,1/2-z
1/2-x,1/2-y,-z
1/2+x,1/2-y,1/2+z
loop_
_atom_site_type_symbol
_atom_site_label
_atom_site_fract_x
_atom_site_fract_y
_atom_site_fract_z
Si Si1 0.500000 0.265310 0.250000
Si Si2 0.185971 0.847017 0.530613
Si Si3 0.164588 0.936140 0.891250
Si Si4 0.264088 0.608616 0.836806
Si Si5 0.652136 0.802501 0.778886
Si Si6 0.480602 0.473279 0.614928
Si Si7 0.952187 0.303597 0.489446
O O1 0.427935 0.151776 0.233135
O O2 0.490409 0.414106 0.315566
O O3 0.250000 0.750000 0.500000
O O4 0.202878 0.948576 0.605783
O O5 0.127804 0.673145 0.524028
O O6 0.165698 0.026632 0.474175
O O7 0.226955 0.797217 0.873375
O O8 0.088769 0.855821 0.870993
O O9 0.164073 0.150202 0.846571
O O10 0.319540 0.684672 0.786748
O O11 0.201714 0.496090 0.792743
O O12 0.465062 0.655592 0.557269
O O13 0.528316 0.318232 0.578794
O O14 0.000000 0.500000 0.500000
#
# Coordination Sequence:
#
# PCOD9290462 Si02
#       7
#     4   8   8   8   8   8   8
#     4  10  22  44  64  90 134 166 212 270 318 382
#     4  11  23  40  66  97 126 165 221 261 325 394
#     4  10  22  41  66  92 126 169 210 273 322 378
#     4  12  23  42  68  94 133 171 217 270 326 385
#     4  11  23  42  65  94 128 171 218 266 323 394
#     4   9  21  41  64  89 123 167 209 254 325 377
#     4  10  22  42  63  91 128 162 208 267 315 379
#
# _framework density 21.209133999999999
#
# number of rings (size 3 to 8) (size 9 to 14) (size 15 to 20)
#    0.000    1.538    3.077    1.385    2.154    0.000 
#    8.308    3.846    0.000    0.000    0.000    0.000 
#    0.000    0.000    0.000    0.000    0.000    0.000 
#
# Total GULP energy -145126.372309 kJ/mol
# GULP energy per Si atom -5581.783550 kJ/mol
# Density = 2.116086 g / cm^3
# Si number density = 21.209134 Si / 1000 Ang^3
#
#
#
# Elastic Constant Matrix: (Units=GPa)
#
#
# Indices 1 2 3 4 5 6 
#
# 1 150.1524 40.7084 14.5850 0.0000 -2.5316 0.0000
# 2 40.7084 30.8453 -3.7953 0.0000 -0.9348 0.0000
# 3 14.5850 -3.7953 66.2818 0.0000 -8.8939 0.0000
# 4 0.0000 0.0000 0.0000 20.6637 0.0000 -2.4663
# 5 -2.5316 -0.9348 -8.8939 0.0000 31.7049 0.0000
# 6 0.0000 0.0000 0.0000 -2.4663 0.0000 24.6259
#
#
#
# Elastic Compliance Matrix: (Units=1/GPa)
#
#
# Indices 1 2 3 4 5 6 
#
# 1 0.011046 -0.015006 -0.003357 0.000000 -0.000502 0.000000
# 2 -0.015006 0.053110 0.006643 0.000000 0.002231 0.000000
# 3 -0.003357 0.006643 0.016830 0.000000 0.004649 0.000000
# 4 0.000000 0.000000 0.000000 0.048979 0.000000 0.004905
# 5 -0.000502 0.002231 0.004649 0.000000 0.032871 0.000000
# 6 0.000000 0.000000 0.000000 0.004905 0.000000 0.041099
#
#
# Mechanical properties :
#
#
# Convention : Reuss Voigt Hill
#
# Bulk Modulus (GPa) = 17.37816 38.91951 28.14883
# Shear Modulus (GPa) = 20.27920 28.45100 24.36510
#
# Velocity S-wave (km/s) = 3.09553 3.66655 3.39308
# Velocity P-wave (km/s) = 4.58126 6.02619 5.35271
#
# Compressibility (1/GPa) = 0.05754349
#
# Stress axis : x y z
#
# Youngs Moduli (GPa) = 90.53069 18.82896 59.41760
#
# Poissons Ratio (x) = 0.28255 0.19948
# Poissons Ratio (y) = 1.35854 -0.39469
# Poissons Ratio (z) = 0.30394 -0.12507
#
# Static dielectric constant tensor:
#      x y z
#    x 2.065780 0.000000 0.218890 
#    y 0.000000 1.776790 0.000000 
#    z 0.218890 0.000000 1.985630 
# 
# From -- ./inp_files/251080.got.cif
#   From: 2010.05.17/outbox.cif.g08.bks.cpg/sg15_126_cif.got.tgz:251080.got - 2010.06.03 18:47:42.
