data_PCOD9290141
_publ_section_title
;
Structure prediction by ZEFSAII (Michael W. Deem and Ramdas Pophale) SiO2 
 PCOD9290141
Probable space group: C 2/C
;
_chemical_formula_sum "Si O2"
_cell_formula_units_Z 48
_cell_length_a 17.700939
_cell_length_b 16.692478
_cell_length_c 11.938951
_cell_angle_alpha 90.000000
_cell_angle_beta 147.060593
_cell_angle_gamma 90.000000
_cell_volume 1918.156301
_symmetry_space_group_name_H-M "C 2/C"
_symmetry_group_IT_number 15
_symmetry_cell_setting 'monoclinic'
loop_
_space_group_symop_operation_xyz
x,y,z
-x,y,1/2-z
-x,-y,-z
x,-y,1/2+z
1/2+x,1/2+y,z
1/2-x,1/2+y,1/2-z
1/2-x,1/2-y,-z
1/2+x,1/2-y,1/2+z
loop_
_atom_site_type_symbol
_atom_site_label
_atom_site_fract_x
_atom_site_fract_y
_atom_site_fract_z
Si Si1 0.999152 0.100807 0.883994
Si Si2 0.692715 0.081324 0.261683
Si Si3 0.686634 0.218803 0.788241
Si Si4 0.036614 0.713124 0.174977
Si Si5 0.024439 0.853453 0.904764
Si Si6 0.072348 0.563150 0.728314
O O1 0.946023 0.191826 0.802349
O O2 0.000000 0.071863 0.750000
O O3 0.160437 0.088107 0.111838
O O4 0.941028 0.089955 0.943644
O O5 0.667603 0.164800 0.293705
O O6 0.680958 0.003449 0.324585
O O7 0.559574 0.072258 0.017221
O O8 0.597360 0.196999 0.567833
O O9 0.611708 0.299670 0.736116
O O10 0.647039 0.148709 0.826423
O O11 0.847110 0.209241 0.954241
O O12 0.000000 0.681530 0.250000
O O13 0.000000 0.890140 0.750000
O O14 0.000000 0.535810 0.750000
#
# Coordination Sequence:
#
# PCOD9290141 Si02
#       6
#     8   8   8   8   8   8
#     4  10  24  39  64  97 132 168 216 271 326 380
#     4  10  22  41  62  95 126 172 217 268 320 389
#     4  10  23  38  63  98 128 169 220 265 330 387
#     4   9  20  34  63  90 129 167 211 264 319 378
#     4  11  24  40  65  97 135 173 211 276 329 390
#     4  10  22  41  68  90 124 172 221 266 317 397
#
# _framework density 25.024028999999999
#
# number of rings (size 3 to 8) (size 9 to 14) (size 15 to 20)
#    0.000    2.000    0.000    1.500   18.667    1.333 
#    0.000    1.667    0.000    0.000    0.000    0.000 
#    0.000    0.000    0.000    0.000    0.000    0.000 
#
# Total GULP energy -133736.602141 kJ/mol
# GULP energy per Si atom -5572.358423 kJ/mol
# Density = 2.496707 g / cm^3
# Si number density = 25.024029 Si / 1000 Ang^3
#
#
#
# Elastic Constant Matrix: (Units=GPa)
#
#
# Indices 1 2 3 4 5 6 
#
# 1 130.5487 20.0108 38.0939 0.0000 -10.1854 0.0000
# 2 20.0108 96.8832 11.7200 0.0000 12.4780 0.0000
# 3 38.0939 11.7200 91.4900 0.0000 -0.0130 0.0000
# 4 0.0000 0.0000 0.0000 -6.7302 0.0000 12.1369
# 5 -10.1854 12.4780 -0.0130 0.0000 47.9072 0.0000
# 6 0.0000 0.0000 0.0000 12.1369 0.0000 14.5758
#
#
#
# Elastic Compliance Matrix: (Units=1/GPa)
#
#
# Indices 1 2 3 4 5 6 
#
# 1 0.009167 -0.001769 -0.003590 0.000000 0.002409 0.000000
# 2 -0.001769 0.011196 -0.000698 0.000000 -0.003292 0.000000
# 3 -0.003590 -0.000698 0.012514 0.000000 -0.000578 0.000000
# 4 0.000000 0.000000 0.000000 -0.059395 0.000000 0.049457
# 5 0.002409 -0.003292 -0.000578 0.000000 0.022243 0.000000
# 6 0.000000 0.000000 0.000000 0.049457 0.000000 0.027425
#
#
# Mechanical properties :
#
#
# Convention : Reuss Voigt Hill
#
# Bulk Modulus (GPa) = 48.16398 50.95236 49.55817
# Shear Modulus (GPa) = 118.52849 27.75705 73.14277
#
# Velocity S-wave (km/s) = 6.88975 3.33410 5.41225
# Velocity P-wave (km/s) = 9.08738 5.93525 7.67488
#
# Compressibility (1/GPa) = 0.02076241
#
# Stress axis : x y z
#
# Youngs Moduli (GPa) = 109.09196 89.32063 79.90959
#
# Poissons Ratio (x) = 0.15803 0.28685
# Poissons Ratio (y) = 0.19302 0.05577
# Poissons Ratio (z) = 0.39161 0.06234
#
# Static dielectric constant tensor:
#      x y z
#    x 1.867060 0.000000 -0.125470 
#    y 0.000000 1.986560 0.000000 
#    z -0.125470 0.000000 1.983420 
# 
# From -- ./inp_files/100079.got.cif
#   From: 2010.05.17/outbox.cif.g08.bks.cpg/sg15_51_cif.got.tgz:100079.got - 2010.06.03 18:47:42.
