data_PCOD9290175
_publ_section_title
;
Structure prediction by ZEFSAII (Michael W. Deem and Ramdas Pophale) SiO2 
 PCOD9290175
Probable space group: C 2/C
;
_chemical_formula_sum "Si O2"
_cell_formula_units_Z 44
_cell_length_a 15.878254
_cell_length_b 6.400990
_cell_length_c 22.699000
_cell_angle_alpha 90.000000
_cell_angle_beta 75.258861
_cell_angle_gamma 90.000000
_cell_volume 2231.112152
_symmetry_space_group_name_H-M "C 2/C"
_symmetry_group_IT_number 15
_symmetry_cell_setting 'monoclinic'
loop_
_space_group_symop_operation_xyz
x,y,z
-x,y,1/2-z
-x,-y,-z
x,-y,1/2+z
1/2+x,1/2+y,z
1/2-x,1/2+y,1/2-z
1/2-x,1/2-y,-z
1/2+x,1/2-y,1/2+z
loop_
_atom_site_type_symbol
_atom_site_label
_atom_site_fract_x
_atom_site_fract_y
_atom_site_fract_z
Si Si1 0.750015 0.324848 0.086754
Si Si2 0.000000 0.260642 0.250000
Si Si3 0.120999 0.120491 0.708067
Si Si4 0.812201 0.939155 0.008614
Si Si5 0.577976 0.110185 0.452282
Si Si6 0.961462 0.642993 0.176917
O O1 0.711183 0.361300 0.158097
O O2 0.838673 0.455162 0.062686
O O3 0.769010 0.086034 0.066004
O O4 0.682079 0.415096 0.050114
O O5 0.025840 0.410736 0.299435
O O6 0.081761 0.110939 0.221609
O O7 0.113263 0.238815 0.771917
O O8 0.049978 0.239586 0.679999
O O9 0.896044 0.824702 0.019546
O O10 0.750000 0.750000 0.000000
O O11 0.554283 0.149892 0.388927
O O12 0.500000 0.000000 0.500000
#
# Coordination Sequence:
#
# PCOD9290175 Si02
#       6
#     8   4   8   8   8   8
#     4  10  22  41  63  90 117 169 204 248 316 367
#     4   8  18  38  64  88 116 164 198 250 310 366
#     4   9  20  39  65  86 117 163 209 245 301 382
#     4   9  22  40  60  89 121 158 204 246 303 369
#     4  11  25  39  59  95 128 161 202 265 308 364
#     4   9  21  38  58  92 122 154 202 255 304 363
#
# _framework density 19.721105999999999
#
# number of rings (size 3 to 8) (size 9 to 14) (size 15 to 20)
#    0.000    2.909    0.000    0.000   10.182    8.000 
#    6.545    0.000    0.000    0.000    0.000    0.000 
#    0.000    0.000    0.000    0.000    0.000    0.000 
#
# Total GULP energy -122724.853398 kJ/mol
# GULP energy per Si atom -5578.402427 kJ/mol
# Density = 1.967622 g / cm^3
# Si number density = 19.721106 Si / 1000 Ang^3
#
#
#
# Elastic Constant Matrix: (Units=GPa)
#
#
# Indices 1 2 3 4 5 6 
#
# 1 63.2001 37.9491 62.6352 0.0001 -5.2291 0.0002
# 2 37.9491 113.6222 30.1705 0.0002 -3.7728 0.0004
# 3 62.6352 30.1705 135.0019 0.0001 -4.2740 0.0001
# 4 0.0001 0.0002 0.0001 8.8846 0.0000 2.3108
# 5 -5.2291 -3.7728 -4.2740 0.0000 48.1484 0.0001
# 6 0.0002 0.0004 0.0001 2.3108 0.0001 18.9657
#
#
#
# Elastic Compliance Matrix: (Units=1/GPa)
#
#
# Indices 1 2 3 4 5 6 
#
# 1 0.034928 -0.007777 -0.014407 0.000000 0.001905 0.000000
# 2 -0.007777 0.011102 0.001131 0.000000 0.000126 0.000000
# 3 -0.014407 0.001131 0.013831 0.000000 -0.000248 0.000000
# 4 0.000000 0.000000 0.000000 0.116239 0.000000 -0.014163
# 5 0.001905 0.000126 -0.000248 0.000000 0.020964 0.000000
# 6 0.000000 0.000000 0.000000 -0.014163 0.000000 0.054452
#
#
# Mechanical properties :
#
#
# Convention : Reuss Voigt Hill
#
# Bulk Modulus (GPa) = 56.31989 63.70377 60.01183
# Shear Modulus (GPa) = 16.69219 27.27103 21.98161
#
# Velocity S-wave (km/s) = 2.91247 3.72268 3.34222
# Velocity P-wave (km/s) = 6.31903 7.13094 6.73723
#
# Compressibility (1/GPa) = 0.01775572
#
# Stress axis : x y z
#
# Youngs Moduli (GPa) = 28.62996 90.07024 72.30181
#
# Poissons Ratio (x) = 0.70048 1.04165
# Poissons Ratio (y) = 0.22266 -0.08178
# Poissons Ratio (z) = 0.41247 -0.10187
#
# Static dielectric constant tensor:
#      x y z
#    x 1.715130 0.000000 0.001430 
#    y 0.000000 1.728760 0.000000 
#    z 0.001430 0.000000 1.691390 
# 
# From -- ./inp_files/271888.got.cif
#   From: 2010.05.17/outbox.cif.g08.bks.cpg/sg15_136_cif.got.tgz:271888.got - 2010.06.03 18:47:42.
