data_PCOD9290643
_publ_section_title
;
Structure prediction by ZEFSAII (Michael W. Deem and Ramdas Pophale) SiO2 
 PCOD9290643
Probable space group: C 2/C
;
_chemical_formula_sum "Si O2"
_cell_formula_units_Z 60
_cell_length_a 18.450387
_cell_length_b 5.376140
_cell_length_c 28.393234
_cell_angle_alpha 90.000000
_cell_angle_beta 86.302557
_cell_angle_gamma 90.000000
_cell_volume 2810.515495
_symmetry_space_group_name_H-M "C 2/C"
_symmetry_group_IT_number 15
_symmetry_cell_setting 'monoclinic'
loop_
_space_group_symop_operation_xyz
x,y,z
-x,y,1/2-z
-x,-y,-z
x,-y,1/2+z
1/2+x,1/2+y,z
1/2-x,1/2+y,1/2-z
1/2-x,1/2-y,-z
1/2+x,1/2-y,1/2+z
loop_
_atom_site_type_symbol
_atom_site_label
_atom_site_fract_x
_atom_site_fract_y
_atom_site_fract_z
Si Si1 0.087479 0.325379 0.854079
Si Si2 0.657499 0.628630 0.103089
Si Si3 0.760884 0.211364 0.823420
Si Si4 0.202211 0.003542 0.501247
Si Si5 0.000000 0.781729 0.750000
Si Si6 0.645103 0.960477 0.758645
Si Si7 0.498292 0.347296 0.645487
Si Si8 0.797450 0.074019 0.600289
O O1 0.114432 0.271695 0.799424
O O2 0.047527 0.590949 0.856374
O O3 0.159062 0.313878 0.883233
O O4 0.039880 0.092527 0.873456
O O5 0.693753 0.462712 0.142897
O O6 0.657513 0.501346 0.051579
O O7 0.576804 0.698472 0.120534
O O8 0.712950 0.858867 0.096508
O O9 0.820057 0.363066 0.790675
O O10 0.706970 0.376221 0.857693
O O11 0.710111 0.088516 0.785538
O O12 0.250000 0.750000 0.500000
O O13 0.250000 0.250000 0.500000
O O14 0.167789 0.006103 0.450568
O O15 0.925240 0.625347 0.749827
O O16 0.992389 0.916636 0.799841
#
# Coordination Sequence:
#
# PCOD9290643 Si02
#       8
#     8   8   8   8   4   8   8   8
#     4  11  25  45  62  96 135 179 222 268 342 405
#     4  11  25  42  68 101 132 176 228 286 338 401
#     4  12  24  40  68  97 138 172 235 279 341 395
#     4  10  22  41  68 105 131 168 228 283 347 400
#     4  10  24  42  62  90 134 180 224 262 332 398
#     4  11  25  40  63  99 131 178 222 273 326 405
#     4  11  27  41  66  92 138 178 224 271 337 402
#     4  11  22  44  72  94 134 177 226 288 340 402
#
# _framework density 21.348396000000001
#
# number of rings (size 3 to 8) (size 9 to 14) (size 15 to 20)
#    0.000    1.067    2.667    3.200    9.333    0.533 
#    0.000    1.333    0.000    0.000    0.000    0.000 
#    0.000    0.000    0.000    0.000    0.000    0.000 
#
# Total GULP energy -167451.426026 kJ/mol
# GULP energy per Si atom -5581.714201 kJ/mol
# Density = 2.129981 g / cm^3
# Si number density = 21.348396 Si / 1000 Ang^3
#
#
#
# Elastic Constant Matrix: (Units=GPa)
#
#
# Indices 1 2 3 4 5 6 
#
# 1 109.5312 25.2025 36.0303 0.0000 -15.1791 0.0000
# 2 25.2025 76.7734 23.5512 0.0000 -1.4974 0.0000
# 3 36.0303 23.5512 130.0501 0.0000 -17.7858 0.0000
# 4 0.0000 0.0000 0.0000 26.4190 0.0000 0.0208
# 5 -15.1791 -1.4974 -17.7858 0.0000 13.1573 0.0000
# 6 0.0000 0.0000 0.0000 0.0208 0.0000 27.0694
#
#
#
# Elastic Compliance Matrix: (Units=1/GPa)
#
#
# Indices 1 2 3 4 5 6 
#
# 1 0.011900 -0.003349 -0.001061 0.000000 0.011913 0.000000
# 2 -0.003349 0.014787 -0.002513 0.000000 -0.005577 0.000000
# 3 -0.001061 -0.002513 0.010099 0.000000 0.012141 0.000000
# 4 0.000000 0.000000 0.000000 0.037852 0.000000 -0.000029
# 5 0.011913 -0.005577 0.012141 0.000000 0.105525 0.000000
# 6 0.000000 0.000000 0.000000 -0.000029 0.000000 0.036942
#
#
# Mechanical properties :
#
#
# Convention : Reuss Voigt Hill
#
# Bulk Modulus (GPa) = 43.59099 53.99140 48.79119
# Shear Modulus (GPa) = 20.95586 28.76719 24.86152
#
# Velocity S-wave (km/s) = 3.13647 3.67483 3.41627
# Velocity P-wave (km/s) = 5.79481 6.58417 6.20206
#
# Compressibility (1/GPa) = 0.02294052
#
# Stress axis : x y z
#
# Youngs Moduli (GPa) = 84.03064 67.62854 99.02118
#
# Poissons Ratio (x) = 0.22646 0.10509
# Poissons Ratio (y) = 0.28139 0.24882
# Poissons Ratio (z) = 0.08918 0.16993
#
# Static dielectric constant tensor:
#      x y z
#    x 1.778810 0.000000 0.024610 
#    y 0.000000 1.849420 0.000000 
#    z 0.024610 0.000000 1.828190 
# 
# From -- ./inp_files/314882.got.cif
#   From: 2010.05.17/outbox.cif.g08.bks.cpg/sg15_158_cif.got.tgz:314882.got - 2010.06.03 18:47:42.
