data_PCOD9290148
_publ_section_title
;
Structure prediction by ZEFSAII (Michael W. Deem and Ramdas Pophale) SiO2 
 PCOD9290148
Probable space group: C 2/C
;
_chemical_formula_sum "Si O2"
_cell_formula_units_Z 64
_cell_length_a 15.023144
_cell_length_b 11.502297
_cell_length_c 28.062544
_cell_angle_alpha 90.000000
_cell_angle_beta 42.312962
_cell_angle_gamma 90.000000
_cell_volume 3264.401261
_symmetry_space_group_name_H-M "C 2/C"
_symmetry_group_IT_number 15
_symmetry_cell_setting 'monoclinic'
loop_
_space_group_symop_operation_xyz
x,y,z
-x,y,1/2-z
-x,-y,-z
x,-y,1/2+z
1/2+x,1/2+y,z
1/2-x,1/2+y,1/2-z
1/2-x,1/2-y,-z
1/2+x,1/2-y,1/2+z
loop_
_atom_site_type_symbol
_atom_site_label
_atom_site_fract_x
_atom_site_fract_y
_atom_site_fract_z
Si Si1 0.158667 0.489999 0.938644
Si Si2 0.477123 0.748168 0.393014
Si Si3 0.460435 0.395614 0.051246
Si Si4 0.652296 0.821192 0.687952
Si Si5 0.151743 0.033687 0.322676
Si Si6 0.282302 0.730599 0.556135
Si Si7 0.226749 0.405763 0.315296
Si Si8 0.787179 0.263201 0.040338
O O1 0.204473 0.368467 0.941770
O O2 0.212851 0.503987 0.863805
O O3 0.209016 0.601170 0.947966
O O4 0.000000 0.500000 0.000000
O O5 0.561407 0.640077 0.340073
O O6 0.392373 0.703567 0.472057
O O7 0.364599 0.796544 0.402938
O O8 0.583788 0.844433 0.365627
O O9 0.440214 0.445844 0.111598
O O10 0.326066 0.338995 0.085043
O O11 0.500000 0.500000 0.000000
O O12 0.570208 0.295433 0.007313
O O13 0.500000 0.855420 0.750000
O O14 0.747464 0.910438 0.678387
O O15 0.676850 0.698068 0.705413
O O16 0.696017 0.800416 0.615906
O O17 0.225120 0.967674 0.251379
O O18 0.750000 0.250000 0.000000
#
# Coordination Sequence:
#
# PCOD9290148 Si02
#       8
#     8   8   8   8   8   8   8   8
#     4  11  21  42  64  93 129 163 213 266 315 373
#     4  10  22  41  62  96 127 164 212 260 333 371
#     4  12  22  42  64  92 127 167 212 264 325 371
#     4  10  23  43  60  90 132 164 207 269 320 369
#     4  11  24  41  64  91 132 169 205 266 321 389
#     4  11  22  39  69  95 127 165 212 276 311 384
#     4  10  23  42  63  90 130 170 206 257 323 392
#     4  11  25  40  66  99 127 165 222 268 314 392
#
# _framework density 19.605433999999999
#
# number of rings (size 3 to 8) (size 9 to 14) (size 15 to 20)
#    0.000    1.250    5.000    0.750    3.500    5.000 
#    0.000    1.250    0.000    0.000    0.000    0.000 
#    0.000    0.000    0.000    0.000    0.000    0.000 
#
# Total GULP energy -178796.043549 kJ/mol
# GULP energy per Si atom -5587.376361 kJ/mol
# Density = 1.956081 g / cm^3
# Si number density = 19.605434 Si / 1000 Ang^3
#
#
#
# Elastic Constant Matrix: (Units=GPa)
#
#
# Indices 1 2 3 4 5 6 
#
# 1 79.6740 12.6772 23.9810 0.0000 3.5628 0.0000
# 2 12.6772 53.3914 13.0405 0.0000 7.1284 0.0000
# 3 23.9810 13.0405 83.8503 0.0000 12.5623 0.0000
# 4 0.0000 0.0000 0.0000 25.1941 0.0000 8.8722
# 5 3.5628 7.1284 12.5623 0.0000 38.8784 0.0000
# 6 0.0000 0.0000 0.0000 8.8722 0.0000 13.8584
#
#
#
# Elastic Compliance Matrix: (Units=1/GPa)
#
#
# Indices 1 2 3 4 5 6 
#
# 1 0.014038 -0.002482 -0.003683 0.000000 0.000358 0.000000
# 2 -0.002482 0.020186 -0.002006 0.000000 -0.002825 0.000000
# 3 -0.003683 -0.002006 0.013856 0.000000 -0.003772 0.000000
# 4 0.000000 0.000000 0.000000 0.051245 0.000000 -0.032807
# 5 0.000358 -0.002825 -0.003772 0.000000 0.027425 0.000000
# 6 0.000000 0.000000 0.000000 -0.032807 0.000000 0.093162
#
#
# Mechanical properties :
#
#
# Convention : Reuss Voigt Hill
#
# Bulk Modulus (GPa) = 31.50644 35.14592 33.32618
# Shear Modulus (GPa) = 20.25651 26.73397 23.49524
#
# Velocity S-wave (km/s) = 3.21784 3.69670 3.46555
# Velocity P-wave (km/s) = 5.46911 6.01551 5.74881
#
# Compressibility (1/GPa) = 0.03173955
#
# Stress axis : x y z
#
# Youngs Moduli (GPa) = 71.23299 49.53901 72.16887
#
# Poissons Ratio (x) = 0.12294 0.26578
# Poissons Ratio (y) = 0.17678 0.14479
# Poissons Ratio (z) = 0.26233 0.09939
#
# Static dielectric constant tensor:
#      x y z
#    x 1.688800 0.000000 0.000650 
#    y 0.000000 1.678800 0.000000 
#    z 0.000650 0.000000 1.670490 
# 
# From -- ./inp_files/296114.got.cif
#   From: 2010.05.17/outbox.cif.g08.bks.cpg/sg15_149_cif.got.tgz:296114.got - 2010.06.03 18:47:42.
