data_PCOD9290804
_publ_section_title
;
Structure prediction by ZEFSAII (Michael W. Deem and Ramdas Pophale) SiO2 
 PCOD9290804
Probable space group: C 2/C
;
_chemical_formula_sum "Si O2"
_cell_formula_units_Z 44
_cell_length_a 13.991603
_cell_length_b 7.427685
_cell_length_c 17.215040
_cell_angle_alpha 90.000000
_cell_angle_beta 98.570355
_cell_angle_gamma 90.000000
_cell_volume 1769.099301
_symmetry_space_group_name_H-M "C 2/C"
_symmetry_group_IT_number 15
_symmetry_cell_setting 'monoclinic'
loop_
_space_group_symop_operation_xyz
x,y,z
-x,y,1/2-z
-x,-y,-z
x,-y,1/2+z
1/2+x,1/2+y,z
1/2-x,1/2+y,1/2-z
1/2-x,1/2-y,-z
1/2+x,1/2-y,1/2+z
loop_
_atom_site_type_symbol
_atom_site_label
_atom_site_fract_x
_atom_site_fract_y
_atom_site_fract_z
Si Si1 0.116130 0.817370 0.413002
Si Si2 0.000000 0.669057 0.750000
Si Si3 0.356928 0.317506 0.848809
Si Si4 0.303513 0.978315 0.469317
Si Si5 0.354440 0.154123 0.239673
Si Si6 0.100146 0.806017 0.084474
O O1 0.189220 0.976731 0.440978
O O2 0.168259 0.635919 0.451458
O O3 0.107844 0.795253 0.319834
O O4 0.013766 0.822100 0.440933
O O5 0.956177 0.790483 0.813367
O O6 0.909303 0.532523 0.725255
O O7 0.342302 0.144988 0.902171
O O8 0.261743 0.344058 0.783599
O O9 0.360293 0.495078 0.900916
O O10 0.351431 0.171394 0.470109
O O11 0.382547 0.212921 0.329129
#
# Coordination Sequence:
#
# PCOD9290804 Si02
#       6
#     8   4   8   8   8   8
#     4  10  22  41  70  93 133 177 221 265 344 399
#     4  12  22  42  64  98 136 170 220 288 332 394
#     4  11  26  39  66  98 131 171 224 276 339 397
#     4  10  23  46  63  96 136 173 217 282 323 407
#     4  11  22  43  65  98 131 175 221 280 336 395
#     4  12  23  40  68  94 130 176 220 272 337 395
#
# _framework density 24.871414999999999
#
# number of rings (size 3 to 8) (size 9 to 14) (size 15 to 20)
#    0.000    1.091    3.636    1.636    5.091    2.182 
#    0.000    8.182    0.000    0.000    0.000    0.000 
#    0.000    0.000    0.000    0.000    0.000    0.000 
#
# Total GULP energy -123246.760541 kJ/mol
# GULP energy per Si atom -5602.125479 kJ/mol
# Density = 2.481481 g / cm^3
# Si number density = 24.871415 Si / 1000 Ang^3
#
#
#
# Elastic Constant Matrix: (Units=GPa)
#
#
# Indices 1 2 3 4 5 6 
#
# 1 126.7608 51.6334 13.6273 0.0000 -10.5003 0.0000
# 2 51.6334 122.4608 -4.6895 0.0000 -15.3482 0.0000
# 3 13.6273 -4.6895 49.0485 0.0000 -10.9831 0.0000
# 4 0.0000 0.0000 0.0000 6.7233 0.0000 3.8835
# 5 -10.5003 -15.3482 -10.9831 0.0000 36.3075 0.0000
# 6 0.0000 0.0000 0.0000 3.8835 0.0000 1.1570
#
#
#
# Elastic Compliance Matrix: (Units=1/GPa)
#
#
# Indices 1 2 3 4 5 6 
#
# 1 0.010000 -0.004324 -0.003168 0.000000 0.000106 0.000000
# 2 -0.004324 0.010637 0.003159 0.000000 0.004202 0.000000
# 3 -0.003168 0.003159 0.023238 0.000000 0.007449 0.000000
# 4 0.000000 0.000000 0.000000 -0.158438 0.000000 0.531801
# 5 0.000106 0.004202 0.007449 0.000000 0.031602 0.000000
# 6 0.000000 0.000000 0.000000 0.531801 0.000000 -0.920690
#
#
# Mechanical properties :
#
#
# Convention : Reuss Voigt Hill
#
# Bulk Modulus (GPa) = 28.40232 46.60137 37.50184
# Shear Modulus (GPa) = -5.08518 24.68416 9.79949
#
# Velocity S-wave (km/s) = -1.43144 3.15377 1.98711
# Velocity P-wave (km/s) = 2.95168 5.66032 4.51396
#
# Compressibility (1/GPa) = 0.03520840
#
# Stress axis : x y z
#
# Youngs Moduli (GPa) = 100.00424 94.01436 43.03261
#
# Poissons Ratio (x) = 0.40654 0.13633
# Poissons Ratio (y) = 0.43244 -0.13595
# Poissons Ratio (z) = 0.31681 -0.29701
#
# Static dielectric constant tensor:
#      x y z
#    x 1.985470 0.000000 -0.022760 
#    y 0.000000 1.951680 0.000000 
#    z -0.022760 0.000000 1.975480 
# 
# From -- ./inp_files/202758.got.cif
#   From: 2010.05.17/outbox.cif.g08.bks.cpg/sg15_102_cif.got.tgz:202758.got - 2010.06.03 18:47:42.
