data_PCOD9290852
_publ_section_title
;
Structure prediction by ZEFSAII (Michael W. Deem and Ramdas Pophale) SiO2 
 PCOD9290852
Probable space group: C 2/C
;
_chemical_formula_sum "Si O2"
_cell_formula_units_Z 48
_cell_length_a 12.767919
_cell_length_b 19.009741
_cell_length_c 9.554404
_cell_angle_alpha 90.000000
_cell_angle_beta 78.566437
_cell_angle_gamma 90.000000
_cell_volume 2272.975621
_symmetry_space_group_name_H-M "C 2/C"
_symmetry_group_IT_number 15
_symmetry_cell_setting 'monoclinic'
loop_
_space_group_symop_operation_xyz
x,y,z
-x,y,1/2-z
-x,-y,-z
x,-y,1/2+z
1/2+x,1/2+y,z
1/2-x,1/2+y,1/2-z
1/2-x,1/2-y,-z
1/2+x,1/2-y,1/2+z
loop_
_atom_site_type_symbol
_atom_site_label
_atom_site_fract_x
_atom_site_fract_y
_atom_site_fract_z
Si Si1 0.282727 0.928302 0.771719
Si Si2 0.722226 0.212569 0.861901
Si Si3 0.000000 0.098684 0.750000
Si Si4 0.229342 0.053598 0.598542
Si Si5 0.579650 0.723187 0.903461
Si Si6 0.000000 0.344420 0.750000
Si Si7 0.615773 0.315027 0.705328
O O1 0.395185 0.892130 0.777562
O O2 0.207011 0.869892 0.720932
O O3 0.291002 0.992195 0.661634
O O4 0.231327 0.954438 0.930937
O O5 0.718138 0.129432 0.883891
O O6 0.820270 0.225473 0.729013
O O7 0.623945 0.251731 0.814942
O O8 0.750000 0.250000 0.000000
O O9 0.892061 0.056523 0.810010
O O10 0.983124 0.152317 0.624029
O O11 0.510471 0.791346 0.879728
O O12 0.621959 0.715976 0.048319
O O13 0.500000 0.349878 0.750000
#
# Coordination Sequence:
#
# PCOD9290852 Si02
#       7
#     8   8   4   8   8   4   8
#     4  12  28  46  68 100 144 185 234 281 356 414
#     4  11  22  46  70  98 139 181 235 287 343 409
#     4   9  22  42  72  96 139 178 230 286 355 406
#     4  11  26  44  68 101 139 187 227 283 348 420
#     4  10  22  41  72 102 131 179 233 290 346 405
#     4  11  24  46  74  94 143 186 232 288 335 414
#     4  12  26  40  71 108 138 174 235 295 348 418
#
# _framework density 21.117692999999999
#
# number of rings (size 3 to 8) (size 9 to 14) (size 15 to 20)
#    0.000    1.000    3.333    1.500   12.833    1.333 
#    1.500    0.000    0.000    0.000    0.000    0.000 
#    0.000    0.000    0.000    0.000    0.000    0.000 
#
# Total GULP energy -134286.000094 kJ/mol
# GULP energy per Si atom -5595.250004 kJ/mol
# Density = 2.106963 g / cm^3
# Si number density = 21.117693 Si / 1000 Ang^3
#
#
#
# Elastic Constant Matrix: (Units=GPa)
#
#
# Indices 1 2 3 4 5 6 
#
# 1 120.5359 40.6465 43.4414 0.0000 7.1585 0.0000
# 2 40.6465 104.0404 59.3241 0.0000 16.0377 0.0000
# 3 43.4414 59.3241 156.3984 0.0000 36.0716 0.0000
# 4 0.0000 0.0000 0.0000 26.4527 0.0000 6.7878
# 5 7.1585 16.0377 36.0716 0.0000 36.5679 0.0000
# 6 0.0000 0.0000 0.0000 6.7878 0.0000 31.3820
#
#
#
# Elastic Compliance Matrix: (Units=1/GPa)
#
#
# Indices 1 2 3 4 5 6 
#
# 1 0.009915 -0.002975 -0.001914 0.000000 0.001252 0.000000
# 2 -0.002975 0.013187 -0.003852 0.000000 -0.001401 0.000000
# 3 -0.001914 -0.003852 0.010241 0.000000 -0.008037 0.000000
# 4 0.000000 0.000000 0.000000 0.040025 0.000000 -0.008657
# 5 0.001252 -0.001401 -0.008037 0.000000 0.035644 0.000000
# 6 0.000000 0.000000 0.000000 -0.008657 0.000000 0.033738
#
#
# Mechanical properties :
#
#
# Convention : Reuss Voigt Hill
#
# Bulk Modulus (GPa) = 63.05720 74.19985 68.62852
# Shear Modulus (GPa) = 30.20806 34.71803 32.46304
#
# Velocity S-wave (km/s) = 3.78625 4.05906 3.92502
# Velocity P-wave (km/s) = 7.00278 7.56178 7.28764
#
# Compressibility (1/GPa) = 0.01585862
#
# Stress axis : x y z
#
# Youngs Moduli (GPa) = 100.85631 75.83491 97.65002
#
# Poissons Ratio (x) = 0.22562 0.18694
# Poissons Ratio (y) = 0.30006 0.37619
# Poissons Ratio (z) = 0.19307 0.29215
#
# Static dielectric constant tensor:
#      x y z
#    x 1.806940 0.000000 -0.030090 
#    y 0.000000 1.748700 0.000000 
#    z -0.030090 0.000000 1.773440 
# 
# From -- ./inp_files/40708.got.cif
#   From: 2010.05.17/outbox.cif.g08.bks.cpg/sg15_21_cif.got.tgz:40708.got - 2010.06.03 18:47:42.
