data_PCOD9290360
_publ_section_title
;
Structure prediction by ZEFSAII (Michael W. Deem and Ramdas Pophale) SiO2 
 PCOD9290360
Probable space group: C 2/C
;
_chemical_formula_sum "Si O2"
_cell_formula_units_Z 52
_cell_length_a 22.651927
_cell_length_b 12.768772
_cell_length_c 8.755940
_cell_angle_alpha 90.000000
_cell_angle_beta 87.228020
_cell_angle_gamma 90.000000
_cell_volume 2529.581056
_symmetry_space_group_name_H-M "C 2/C"
_symmetry_group_IT_number 15
_symmetry_cell_setting 'monoclinic'
loop_
_space_group_symop_operation_xyz
x,y,z
-x,y,1/2-z
-x,-y,-z
x,-y,1/2+z
1/2+x,1/2+y,z
1/2-x,1/2+y,1/2-z
1/2-x,1/2-y,-z
1/2+x,1/2-y,1/2+z
loop_
_atom_site_type_symbol
_atom_site_label
_atom_site_fract_x
_atom_site_fract_y
_atom_site_fract_z
Si Si1 0.000000 0.073289 0.250000
Si Si2 0.240758 0.741949 0.746971
Si Si3 0.500000 0.748709 0.750000
Si Si4 0.567633 0.409596 0.029256
Si Si5 0.500000 0.070819 0.750000
Si Si6 0.795400 0.407448 0.502749
Si Si7 0.296535 0.602204 0.985631
Si Si8 0.068896 0.593740 0.451076
O O1 0.047166 0.121602 0.360420
O O2 0.037019 0.006762 0.121020
O O3 0.203075 0.658972 0.654354
O O4 0.269337 0.825724 0.628948
O O5 0.209717 0.813390 0.877755
O O6 0.286314 0.668048 0.832253
O O7 0.456550 0.683309 0.862986
O O8 0.454604 0.813412 0.651971
O O9 0.636555 0.435982 0.019826
O O10 0.544738 0.121339 0.623696
O O11 0.460881 0.003382 0.635294
O O12 0.752321 0.509072 0.496228
O O13 0.862033 0.430874 0.544417
#
# Coordination Sequence:
#
# PCOD9290360 Si02
#       8
#     4   8   4   8   4   8   8   8
#     4   9  22  40  62  93 118 166 216 257 324 406
#     4  10  25  42  58 106 122 171 234 260 342 388
#     4  10  22  42  64  98 132 170 204 300 320 390
#     4  10  22  41  65  93 128 164 221 266 339 393
#     4   9  22  40  62  93 118 166 216 257 324 406
#     4  11  24  42  68  94 135 178 218 280 335 398
#     4  11  24  42  68  94 135 178 218 280 335 398
#     4  10  22  41  65  93 128 164 221 266 339 393
#
# _framework density 20.556764000000001
#
# number of rings (size 3 to 8) (size 9 to 14) (size 15 to 20)
#    0.000    1.846    0.000    1.846    8.615    3.077 
#   11.077    0.000    0.000    0.000    0.000    0.000 
#    0.000    0.000    0.000    0.000    0.000    0.000 
#
# Total GULP energy -144813.001051 kJ/mol
# GULP energy per Si atom -5569.730810 kJ/mol
# Density = 2.050998 g / cm^3
# Si number density = 20.556764 Si / 1000 Ang^3
#
#
#
# Elastic Constant Matrix: (Units=GPa)
#
#
# Indices 1 2 3 4 5 6 
#
# 1 147.1194 27.9642 26.2698 0.0000 12.9783 0.0000
# 2 27.9642 60.1474 16.9714 0.0000 9.3191 0.0000
# 3 26.2698 16.9714 112.3337 0.0000 28.7509 0.0000
# 4 0.0000 0.0000 0.0000 280.6230 0.0000 59.6437
# 5 12.9783 9.3191 28.7509 0.0000 16.4770 0.0000
# 6 0.0000 0.0000 0.0000 59.6437 0.0000 19.0266
#
#
#
# Elastic Compliance Matrix: (Units=1/GPa)
#
#
# Indices 1 2 3 4 5 6 
#
# 1 0.007754 -0.002909 -0.000419 0.000000 -0.003732 0.000000
# 2 -0.002909 0.019317 -0.000051 0.000000 -0.008545 0.000000
# 3 -0.000419 -0.000051 0.016111 0.000000 -0.027753 0.000000
# 4 0.000000 0.000000 0.000000 0.010678 0.000000 -0.033471
# 5 -0.003732 -0.008545 -0.027753 0.000000 0.116890 0.000000
# 6 0.000000 0.000000 0.000000 -0.033471 0.000000 0.157483
#
#
# Mechanical properties :
#
#
# Convention : Reuss Voigt Hill
#
# Bulk Modulus (GPa) = 27.45428 51.33456 39.39442
# Shear Modulus (GPa) = 14.40381 79.78501 47.09441
#
# Velocity S-wave (km/s) = 2.64992 6.23669 4.79157
# Velocity P-wave (km/s) = 4.76939 8.76858 7.05816
#
# Compressibility (1/GPa) = 0.03642420
#
# Stress axis : x y z
#
# Youngs Moduli (GPa) = 128.96461 51.76920 62.06946
#
# Poissons Ratio (x) = 0.15058 0.02599
# Poissons Ratio (y) = 0.37512 0.00318
# Poissons Ratio (z) = 0.05401 0.00265
#
# Static dielectric constant tensor:
#      x y z
#    x -0.025520 0.000000 0.220940 
#    y 0.000000 1.769500 0.000000 
#    z 0.220940 0.000000 1.763780 
# 
# From -- ./inp_files/40857.got.cif
#   From: 2010.05.17/outbox.cif.g08.bks.cpg/sg15_21_cif.got.tgz:40857.got - 2010.06.03 18:47:42.
