data_PCOD9290306
_publ_section_title
;
Structure prediction by ZEFSAII (Michael W. Deem and Ramdas Pophale) SiO2 
 PCOD9290306
Probable space group: C 2/C
;
_chemical_formula_sum "Si O2"
_cell_formula_units_Z 40
_cell_length_a 15.756231
_cell_length_b 11.306845
_cell_length_c 13.128373
_cell_angle_alpha 90.000000
_cell_angle_beta 140.670839
_cell_angle_gamma 90.000000
_cell_volume 1482.311722
_symmetry_space_group_name_H-M "C 2/C"
_symmetry_group_IT_number 15
_symmetry_cell_setting 'monoclinic'
loop_
_space_group_symop_operation_xyz
x,y,z
-x,y,1/2-z
-x,-y,-z
x,-y,1/2+z
1/2+x,1/2+y,z
1/2-x,1/2+y,1/2-z
1/2-x,1/2-y,-z
1/2+x,1/2-y,1/2+z
loop_
_atom_site_type_symbol
_atom_site_label
_atom_site_fract_x
_atom_site_fract_y
_atom_site_fract_z
Si Si1 0.067720 0.727758 0.681708
Si Si2 0.173411 0.891380 0.018016
Si Si3 0.127764 0.706134 0.313459
Si Si4 0.266642 0.560530 0.259082
Si Si5 0.500000 0.423282 0.250000
Si Si6 0.500000 0.000000 0.500000
O O1 0.175005 0.652981 0.847590
O O2 0.146517 0.841655 0.713251
O O3 0.037072 0.635392 0.565179
O O4 0.928967 0.784002 0.588646
O O5 0.159873 0.953503 0.116269
O O6 0.120615 0.993059 0.894537
O O7 0.250000 0.750000 0.500000
O O8 0.182582 0.622971 0.275138
O O9 0.000000 0.643498 0.250000
O O10 0.053997 0.830416 0.215828
O O11 0.147424 0.513324 0.079413
#
# Coordination Sequence:
#
# PCOD9290306 Si02
#       6
#     8   8   8   8   4   4
#     4  11  24  43  67 100 133 179 216 284 331 402
#     4  11  24  44  67  98 137 175 226 269 342 395
#     4  10  22  41  65 100 131 170 223 274 322 395
#     4  11  22  43  70  99 133 168 228 278 336 387
#     4  10  24  42  68 100 136 178 222 270 330 406
#     4  10  24  38  62 100 130 168 214 272 334 392
#
# _framework density 26.984876
#
# number of rings (size 3 to 8) (size 9 to 14) (size 15 to 20)
#    0.600    0.800    4.000    0.600    5.600    4.000 
#    0.000    0.000    8.800    0.000    0.000    0.000 
#    0.000    0.000    0.000    0.000    0.000    0.000 
#
# Total GULP energy -111349.310849 kJ/mol
# GULP energy per Si atom -5567.465542 kJ/mol
# Density = 2.692346 g / cm^3
# Si number density = 26.984876 Si / 1000 Ang^3
#
#
#
# Elastic Constant Matrix: (Units=GPa)
#
#
# Indices 1 2 3 4 5 6 
#
# 1 57.0654 17.3852 -4.4772 0.0000 2.3064 0.0000
# 2 17.3852 151.5736 33.7742 0.0000 0.0211 0.0000
# 3 -4.4772 33.7742 130.4876 0.0000 3.9483 0.0000
# 4 0.0000 0.0000 0.0000 19.4514 0.0000 36.5514
# 5 2.3064 0.0211 3.9483 0.0000 10.3359 0.0000
# 6 0.0000 0.0000 0.0000 36.5514 0.0000 3.4112
#
#
#
# Elastic Compliance Matrix: (Units=1/GPa)
#
#
# Indices 1 2 3 4 5 6 
#
# 1 0.018568 -0.002443 0.001411 0.000000 -0.004677 0.000000
# 2 -0.002443 0.007328 -0.002020 0.000000 0.001302 0.000000
# 3 0.001411 -0.002020 0.008341 0.000000 -0.003497 0.000000
# 4 0.000000 0.000000 0.000000 -0.002687 0.000000 0.028788
# 5 -0.004677 0.001302 -0.003497 0.000000 0.099127 0.000000
# 6 0.000000 0.000000 0.000000 0.028788 0.000000 -0.015320
#
#
# Mechanical properties :
#
#
# Convention : Reuss Voigt Hill
#
# Bulk Modulus (GPa) = 35.54719 48.05456 41.80088
# Shear Modulus (GPa) = 38.21508 26.13597 32.17553
#
# Velocity S-wave (km/s) = 3.76728 3.11552 3.45679
# Velocity P-wave (km/s) = 5.66788 5.54874 5.60863
#
# Compressibility (1/GPa) = 0.02813162
#
# Stress axis : x y z
#
# Youngs Moduli (GPa) = 53.85630 136.47027 119.89570
#
# Poissons Ratio (x) = 0.33346 -0.16918
# Poissons Ratio (y) = 0.13160 0.24217
# Poissons Ratio (z) = -0.07599 0.27565
#
# Static dielectric constant tensor:
#      x y z
#    x 1.964940 0.000000 0.332550 
#    y 0.000000 1.984870 0.000000 
#    z 0.332550 0.000000 1.711400 
# 
# From -- ./inp_files/46160.got.cif
#   From: 2010.05.17/outbox.cif.g08.bks.cpg/sg15_24_cif.got.tgz:46160.got - 2010.06.03 18:47:42.
