data_PCOD9290995
_publ_section_title
;
Structure prediction by ZEFSAII (Michael W. Deem and Ramdas Pophale) SiO2 
 PCOD9290995
Probable space group: C 2/C
;
_chemical_formula_sum "Si O2"
_cell_formula_units_Z 56
_cell_length_a 26.095112
_cell_length_b 9.398756
_cell_length_c 11.252906
_cell_angle_alpha 90.000000
_cell_angle_beta 113.940565
_cell_angle_gamma 90.000000
_cell_volume 2522.462356
_symmetry_space_group_name_H-M "C 2/C"
_symmetry_group_IT_number 15
_symmetry_cell_setting 'monoclinic'
loop_
_space_group_symop_operation_xyz
x,y,z
-x,y,1/2-z
-x,-y,-z
x,-y,1/2+z
1/2+x,1/2+y,z
1/2-x,1/2+y,1/2-z
1/2-x,1/2-y,-z
1/2+x,1/2-y,1/2+z
loop_
_atom_site_type_symbol
_atom_site_label
_atom_site_fract_x
_atom_site_fract_y
_atom_site_fract_z
Si Si1 0.799723 0.581357 0.726403
Si Si2 0.623314 0.107240 0.909151
Si Si3 0.117278 0.927852 0.852962
Si Si4 0.391519 0.171458 0.007822
Si Si5 0.306848 0.331551 0.095649
Si Si6 0.936694 0.049383 0.454039
Si Si7 0.285406 0.199961 0.319367
O O1 0.836662 0.534443 0.650609
O O2 0.762299 0.715310 0.658223
O O3 0.765107 0.446858 0.740972
O O4 0.841829 0.633149 0.868766
O O5 0.606321 0.257824 0.837950
O O6 0.584942 0.979247 0.921878
O O7 0.662623 0.158067 0.052729
O O8 0.092893 0.978844 0.701774
O O9 0.179690 0.001260 0.916008
O O10 0.089547 0.974396 0.952887
O O11 0.359523 0.255860 0.082170
O O12 0.432108 0.282590 0.982192
O O13 0.305407 0.302533 0.233550
O O14 0.250000 0.250000 0.000000
O O15 0.000000 0.000000 0.500000
#
# Coordination Sequence:
#
# PCOD9290995 Si02
#       7
#     8   8   8   8   8   8   8
#     4  11  22  36  55  86 135 186 234 282 329 398
#     4  11  23  39  61  95 136 182 230 286 352 423
#     4  11  25  42  73 105 141 181 242 295 363 438
#     4  10  22  42  62  95 136 180 223 295 347 419
#     4  11  22  38  60  91 139 186 230 282 344 403
#     4  11  24  48  77 104 135 179 235 311 375 437
#     4  11  24  34  56  88 134 190 245 265 334 406
#
# _framework density 22.200527999999998
#
# number of rings (size 3 to 8) (size 9 to 14) (size 15 to 20)
#    0.000    1.143    4.286    1.714    4.000    0.000 
#    0.000    0.714    0.000    3.429    0.000    0.000 
#    0.000    0.000    0.000    0.000    0.000    0.000 
#
# Total GULP energy -156158.820011 kJ/mol
# GULP energy per Si atom -5577.100715 kJ/mol
# Density = 2.215000 g / cm^3
# Si number density = 22.200528 Si / 1000 Ang^3
#
#
#
# Elastic Constant Matrix: (Units=GPa)
#
#
# Indices 1 2 3 4 5 6 
#
# 1 59.1784 45.9253 25.2651 0.0000 -10.0642 0.0000
# 2 45.9253 150.3603 18.7547 0.0000 2.5373 0.0000
# 3 25.2651 18.7547 89.0189 0.0000 -23.2443 0.0000
# 4 0.0000 0.0000 0.0000 36.5572 0.0000 -15.3079
# 5 -10.0642 2.5373 -23.2443 0.0000 29.6651 0.0000
# 6 0.0000 0.0000 0.0000 -15.3079 0.0000 37.0496
#
#
#
# Elastic Compliance Matrix: (Units=1/GPa)
#
#
# Indices 1 2 3 4 5 6 
#
# 1 0.025361 -0.007340 -0.004075 0.000000 0.006039 0.000000
# 2 -0.007340 0.009065 -0.000854 0.000000 -0.003935 0.000000
# 3 -0.004075 -0.000854 0.015373 0.000000 0.010737 0.000000
# 4 0.000000 0.000000 0.000000 0.033077 0.000000 0.013667
# 5 0.006039 -0.003935 0.010737 0.000000 0.044508 0.000000
# 6 0.000000 0.000000 0.000000 0.013667 0.000000 0.032637
#
#
# Mechanical properties :
#
#
# Convention : Reuss Voigt Hill
#
# Bulk Modulus (GPa) = 39.58427 53.16089 46.37258
# Shear Modulus (GPa) = 25.90946 34.56188 30.23567
#
# Velocity S-wave (km/s) = 3.41994 3.94992 3.69444
# Velocity P-wave (km/s) = 5.78478 6.69330 6.25555
#
# Compressibility (1/GPa) = 0.02526256
#
# Stress axis : x y z
#
# Youngs Moduli (GPa) = 39.43123 110.30899 65.04701
#
# Poissons Ratio (x) = 0.80964 0.26504
# Poissons Ratio (y) = 0.28941 0.05557
# Poissons Ratio (z) = 0.16066 0.09423
#
# Static dielectric constant tensor:
#      x y z
#    x 1.808390 0.000000 -0.010130 
#    y 0.000000 1.954000 0.000000 
#    z -0.010130 0.000000 1.849030 
# 
# From -- ./inp_files/125980.got.cif
#   From: 2010.05.17/outbox.cif.g08.bks.cpg/sg15_63_cif.got.tgz:125980.got - 2010.06.03 18:47:42.
