data_PCOD9290333
_publ_section_title
;
Structure prediction by ZEFSAII (Michael W. Deem and Ramdas Pophale) SiO2 
 PCOD9290333
Probable space group: C 2/C
;
_chemical_formula_sum "Si O2"
_cell_formula_units_Z 48
_cell_length_a 7.544118
_cell_length_b 25.338693
_cell_length_c 11.659537
_cell_angle_alpha 90.000000
_cell_angle_beta 125.862754
_cell_angle_gamma 90.000000
_cell_volume 1806.282014
_symmetry_space_group_name_H-M "C 2/C"
_symmetry_group_IT_number 15
_symmetry_cell_setting 'monoclinic'
loop_
_space_group_symop_operation_xyz
x,y,z
-x,y,1/2-z
-x,-y,-z
x,-y,1/2+z
1/2+x,1/2+y,z
1/2-x,1/2+y,1/2-z
1/2-x,1/2-y,-z
1/2+x,1/2-y,1/2+z
loop_
_atom_site_type_symbol
_atom_site_label
_atom_site_fract_x
_atom_site_fract_y
_atom_site_fract_z
Si Si1 0.178427 0.682956 0.731313
Si Si2 0.172819 0.643802 0.209207
Si Si3 0.778498 0.483039 0.214395
Si Si4 0.166983 0.410990 0.054866
Si Si5 0.014499 0.252821 0.971966
Si Si6 0.515091 0.420645 0.542691
O O1 0.229003 0.640804 0.652443
O O2 0.067785 0.732698 0.622819
O O3 0.000000 0.661353 0.750000
O O4 0.384514 0.701408 0.883226
O O5 0.408921 0.627747 0.348175
O O6 0.000000 0.645706 0.250000
O O7 0.074959 0.599651 0.086424
O O8 0.131887 0.698694 0.130113
O O9 0.812009 0.459366 0.351672
O O10 0.593014 0.527018 0.138908
O O11 0.000000 0.507798 0.250000
O O12 0.715098 0.435941 0.100808
O O13 0.331629 0.416149 0.011978
O O14 0.250000 0.250000 0.000000
#
# Coordination Sequence:
#
# PCOD9290333 Si02
#       6
#     8   8   8   8   8   8
#     4  11  24  43  66  97 136 177 225 283 343 404
#     4   9  19  38  62  92 127 169 222 272 323 392
#     4  11  23  40  63  94 128 168 221 279 339 403
#     4  10  22  41  65  90 124 174 225 273 334 407
#     4  11  23  40  67 101 137 181 228 276 339 416
#     4  10  23  42  65  92 130 175 220 279 339 406
#
# _framework density 26.573924000000002
#
# number of rings (size 3 to 8) (size 9 to 14) (size 15 to 20)
#    0.000    1.667    0.000    4.500    0.000   10.667 
#    0.000    5.833    0.000    4.000    0.000    0.000 
#    0.000    0.000    0.000    0.000    0.000    0.000 
#
# Total GULP energy -134554.881626 kJ/mol
# GULP energy per Si atom -5606.453401 kJ/mol
# Density = 2.651344 g / cm^3
# Si number density = 26.573924 Si / 1000 Ang^3
#
#
#
# Elastic Constant Matrix: (Units=GPa)
#
#
# Indices 1 2 3 4 5 6 
#
# 1 54.8656 18.7768 20.5586 0.0000 0.5902 0.0000
# 2 18.7768 80.9279 53.2525 0.0000 4.3670 0.0000
# 3 20.5586 53.2525 154.2841 0.0000 6.1942 0.0000
# 4 0.0000 0.0000 0.0000 78.1752 0.0000 3.9847
# 5 0.5902 4.3670 6.1942 0.0000 38.9149 0.0000
# 6 0.0000 0.0000 0.0000 3.9847 0.0000 31.9615
#
#
#
# Elastic Compliance Matrix: (Units=1/GPa)
#
#
# Indices 1 2 3 4 5 6 
#
# 1 0.020027 -0.003752 -0.001387 0.000000 0.000338 0.000000
# 2 -0.003752 0.016724 -0.005233 0.000000 -0.000987 0.000000
# 3 -0.001387 -0.005233 0.008502 0.000000 -0.000745 0.000000
# 4 0.000000 0.000000 0.000000 0.012874 0.000000 -0.001605
# 5 0.000338 -0.000987 -0.000745 0.000000 0.025921 0.000000
# 6 0.000000 0.000000 0.000000 -0.001605 0.000000 0.031488
#
#
# Mechanical properties :
#
#
# Convention : Reuss Voigt Hill
#
# Bulk Modulus (GPa) = 40.80144 52.80593 46.80368
# Shear Modulus (GPa) = 34.61435 42.97632 38.79533
#
# Velocity S-wave (km/s) = 3.61303 4.02585 3.82501
# Velocity P-wave (km/s) = 5.72648 6.44395 6.09578
#
# Compressibility (1/GPa) = 0.02450894
#
# Stress axis : x y z
#
# Youngs Moduli (GPa) = 49.93372 59.79518 117.61345
#
# Poissons Ratio (x) = 0.22435 0.16314
# Poissons Ratio (y) = 0.18735 0.61544
# Poissons Ratio (z) = 0.06926 0.31289
#
# Static dielectric constant tensor:
#      x y z
#    x 2.046810 0.000000 0.036740 
#    y 0.000000 2.133840 0.000000 
#    z 0.036740 0.000000 2.060550 
# 
# From -- ./inp_files/80906.got.cif
#   From: 2010.05.17/outbox.cif.g08.bks.cpg/sg15_41_cif.got.tgz:80906.got - 2010.06.03 18:47:42.
