data_PCOD9290872
_publ_section_title
;
Structure prediction by ZEFSAII (Michael W. Deem and Ramdas Pophale) SiO2 
 PCOD9290872
Probable space group: C 2/C
;
_chemical_formula_sum "Si O2"
_cell_formula_units_Z 36
_cell_length_a 10.764074
_cell_length_b 14.393843
_cell_length_c 17.412420
_cell_angle_alpha 90.000000
_cell_angle_beta 146.931053
_cell_angle_gamma 90.000000
_cell_volume 1472.058345
_symmetry_space_group_name_H-M "C 2/C"
_symmetry_group_IT_number 15
_symmetry_cell_setting 'monoclinic'
loop_
_space_group_symop_operation_xyz
x,y,z
-x,y,1/2-z
-x,-y,-z
x,-y,1/2+z
1/2+x,1/2+y,z
1/2-x,1/2+y,1/2-z
1/2-x,1/2-y,-z
1/2+x,1/2-y,1/2+z
loop_
_atom_site_type_symbol
_atom_site_label
_atom_site_fract_x
_atom_site_fract_y
_atom_site_fract_z
Si Si1 0.354719 0.647726 0.041656
Si Si2 0.300742 0.536027 0.583524
Si Si3 0.364582 0.863960 0.837741
Si Si4 0.523825 0.667988 0.958561
Si Si5 0.000000 0.654771 0.250000
O O1 0.217407 0.564209 0.008935
O O2 0.597080 0.630000 0.210062
O O3 0.250000 0.750000 0.000000
O O4 0.401506 0.639155 0.974367
O O5 0.500000 0.535881 0.750000
O O6 0.417408 0.587016 0.570319
O O7 0.072066 0.590767 0.491496
O O8 0.397343 0.753001 0.853954
O O9 0.416673 0.902819 0.779537
O O10 0.774387 0.708705 0.109869
#
# Coordination Sequence:
#
# PCOD9290872 Si02
#       5
#     8   8   8   8   4
#     4  11  27  47  67  99 149 192 236 293 358 423
#     4  11  25  43  74 108 141 182 243 297 357 427
#     4  10  23  40  72 105 139 183 239 290 359 415
#     4  10  22  41  73 100 142 186 235 294 355 420
#     4   8  16  36  62 100 132 168 234 282 336 406
#
# _framework density 24.455552000000001
#
# number of rings (size 3 to 8) (size 9 to 14) (size 15 to 20)
#    0.000    1.778    0.000    3.333   12.444    2.667 
#    0.000    6.667    0.000    0.000    0.000    0.000 
#    0.000    0.000    0.000    0.000    0.000    0.000 
#
# Total GULP energy -100411.518319 kJ/mol
# GULP energy per Si atom -5578.417684 kJ/mol
# Density = 2.439989 g / cm^3
# Si number density = 24.455552 Si / 1000 Ang^3
#
#
#
# Elastic Constant Matrix: (Units=GPa)
#
#
# Indices 1 2 3 4 5 6 
#
# 1 148.2401 51.0959 37.6790 -0.0001 -9.5514 0.0000
# 2 51.0959 140.3217 31.5244 0.0001 -2.9129 0.0000
# 3 37.6790 31.5244 83.6539 0.0005 -6.1987 -0.0002
# 4 -0.0001 0.0001 0.0005 23.9399 0.0000 0.1772
# 5 -9.5514 -2.9129 -6.1987 0.0000 29.3126 -0.0001
# 6 0.0000 0.0000 -0.0002 0.1772 -0.0001 30.9944
#
#
#
# Elastic Compliance Matrix: (Units=1/GPa)
#
#
# Indices 1 2 3 4 5 6 
#
# 1 0.008392 -0.002402 -0.002733 0.000000 0.001918 0.000000
# 2 -0.002402 0.008474 -0.002141 0.000000 -0.000393 0.000000
# 3 -0.002733 -0.002141 0.014131 0.000000 0.001885 0.000000
# 4 0.000000 0.000000 0.000000 0.041773 0.000000 -0.000239
# 5 0.001918 -0.000393 0.001885 0.000000 0.035100 0.000000
# 6 0.000000 0.000000 0.000000 -0.000239 0.000000 0.032265
#
#
# Mechanical properties :
#
#
# Convention : Reuss Voigt Hill
#
# Bulk Modulus (GPa) = 60.80266 68.09048 64.44657
# Shear Modulus (GPa) = 31.21738 33.64380 32.43059
#
# Velocity S-wave (km/s) = 3.57668 3.71308 3.64552
# Velocity P-wave (km/s) = 6.47869 6.80335 6.64300
#
# Compressibility (1/GPa) = 0.01644665
#
# Stress axis : x y z
#
# Youngs Moduli (GPa) = 119.16275 118.00959 70.76575
#
# Poissons Ratio (x) = 0.28347 0.19337
# Poissons Ratio (y) = 0.28624 0.15148
# Poissons Ratio (z) = 0.32561 0.25260
#
# Static dielectric constant tensor:
#      x y z
#    x 2.086790 0.000000 -0.039440 
#    y 0.000000 1.911940 0.000000 
#    z -0.039440 0.000000 1.995540 
# 
# From -- ./inp_files/85857.got.cif
#   From: 2010.05.17/outbox.cif.g08.bks.cpg/sg15_43_cif.got.tgz:85857.got - 2010.06.03 18:47:42.
