data_PCOD9290331
_publ_section_title
;
Structure prediction by ZEFSAII (Michael W. Deem and Ramdas Pophale) SiO2 
 PCOD9290331
Probable space group: C 2/C
;
_chemical_formula_sum "Si O2"
_cell_formula_units_Z 56
_cell_length_a 22.333536
_cell_length_b 6.167299
_cell_length_c 18.945024
_cell_angle_alpha 90.000000
_cell_angle_beta 73.661874
_cell_angle_gamma 90.000000
_cell_volume 2504.068368
_symmetry_space_group_name_H-M "C 2/C"
_symmetry_group_IT_number 15
_symmetry_cell_setting 'monoclinic'
loop_
_space_group_symop_operation_xyz
x,y,z
-x,y,1/2-z
-x,-y,-z
x,-y,1/2+z
1/2+x,1/2+y,z
1/2-x,1/2+y,1/2-z
1/2-x,1/2-y,-z
1/2+x,1/2-y,1/2+z
loop_
_atom_site_type_symbol
_atom_site_label
_atom_site_fract_x
_atom_site_fract_y
_atom_site_fract_z
Si Si1 0.837145 0.127144 0.702490
Si Si2 0.642619 0.838636 0.946066
Si Si3 0.740737 0.378714 0.074836
Si Si4 0.129595 0.128892 0.174680
Si Si5 0.450984 0.804664 0.026286
Si Si6 0.551346 0.419997 0.578170
Si Si7 0.791703 0.520865 0.307908
O O1 0.861814 0.167251 0.616098
O O2 0.840092 0.354760 0.742140
O O3 0.866647 0.953190 0.745668
O O4 0.762590 0.090925 0.719196
O O5 0.713089 0.914860 0.937120
O O6 0.611571 0.068203 0.935400
O O7 0.603824 0.732356 0.022567
O O8 0.671905 0.467131 0.113364
O O9 0.746195 0.194988 0.132921
O O10 0.750000 0.250000 0.000000
O O11 0.064065 0.112804 0.156544
O O12 0.166806 0.354897 0.161182
O O13 0.483489 0.659322 0.075053
O O14 0.442639 0.657974 0.959098
O O15 0.500000 0.000000 0.000000
#
# Coordination Sequence:
#
# PCOD9290331 Si02
#       7
#     8   8   8   8   8   8   8
#     4  11  22  36  56  86 121 169 202 238 299 384
#     4  11  22  36  62  91 121 158 206 256 311 373
#     4  11  23  33  55  94 124 151 200 253 301 371
#     4  11  23  37  60  87 127 162 200 248 307 371
#     4   9  21  41  65  87 116 150 203 258 319 365
#     4  10  22  41  65  90 115 160 204 260 318 365
#     4  11  21  38  54  82 129 166 198 237 307 370
#
# _framework density 22.363607999999999
#
# number of rings (size 3 to 8) (size 9 to 14) (size 15 to 20)
#    0.000    1.429    2.857    2.571    4.000    4.571 
#    0.000    0.000    0.000   20.571    0.000    0.000 
#    0.000    0.000    0.000    0.000    0.000    0.000 
#
# Total GULP energy -156307.374739 kJ/mol
# GULP energy per Si atom -5582.406241 kJ/mol
# Density = 2.231271 g / cm^3
# Si number density = 22.363608 Si / 1000 Ang^3
#
#
#
# Elastic Constant Matrix: (Units=GPa)
#
#
# Indices 1 2 3 4 5 6 
#
# 1 55.3565 13.4703 6.4149 0.0000 28.1995 0.0000
# 2 13.4703 76.3191 3.3538 0.0000 8.3983 0.0000
# 3 6.4149 3.3538 62.6277 0.0000 17.6361 0.0000
# 4 0.0000 0.0000 0.0000 32.4494 0.0000 -1.1093
# 5 28.1995 8.3983 17.6361 0.0000 28.9919 0.0000
# 6 0.0000 0.0000 0.0000 -1.1093 0.0000 31.2837
#
#
#
# Elastic Compliance Matrix: (Units=1/GPa)
#
#
# Indices 1 2 3 4 5 6 
#
# 1 0.039408 -0.002636 0.008065 0.000000 -0.042474 0.000000
# 2 -0.002636 0.013722 -0.000081 0.000000 -0.001361 0.000000
# 3 0.008065 -0.000081 0.020934 0.000000 -0.020556 0.000000
# 4 0.000000 0.000000 0.000000 0.030855 0.000000 0.001094
# 5 -0.042474 -0.001361 -0.020556 0.000000 0.088704 0.000000
# 6 0.000000 0.000000 0.000000 0.001094 0.000000 0.032004
#
#
# Mechanical properties :
#
#
# Convention : Reuss Voigt Hill
#
# Bulk Modulus (GPa) = 11.79807 26.75348 19.27577
# Shear Modulus (GPa) = 20.56051 29.94929 25.25490
#
# Velocity S-wave (km/s) = 3.03541 3.66348 3.36413
# Velocity P-wave (km/s) = 4.19189 5.46659 4.87112
#
# Compressibility (1/GPa) = 0.08475963
#
# Stress axis : x y z
#
# Youngs Moduli (GPa) = 25.37529 72.87825 47.76888
#
# Poissons Ratio (x) = 0.19211 -0.38527
# Poissons Ratio (y) = 0.06689 0.00389
# Poissons Ratio (z) = -0.20466 0.00594
#
# Static dielectric constant tensor:
#      x y z
#    x 1.871370 0.000000 0.034670 
#    y 0.000000 1.883370 0.000000 
#    z 0.034670 0.000000 1.886330 
# 
# From -- ./inp_files/254008.got.cif
#   From: 2010.05.17/outbox.cif.g08.bks.cpg/sg15_128_cif.got.tgz:254008.got - 2010.06.03 18:47:42.
