data_PCOD9290281
_publ_section_title
;
Structure prediction by ZEFSAII (Michael W. Deem and Ramdas Pophale) SiO2 
 PCOD9290281
Probable space group: C 2/C
;
_chemical_formula_sum "Si O2"
_cell_formula_units_Z 48
_cell_length_a 25.460024
_cell_length_b 11.369403
_cell_length_c 7.666874
_cell_angle_alpha 90.000000
_cell_angle_beta 83.742716
_cell_angle_gamma 90.000000
_cell_volume 2206.072312
_symmetry_space_group_name_H-M "C 2/C"
_symmetry_group_IT_number 15
_symmetry_cell_setting 'monoclinic'
loop_
_space_group_symop_operation_xyz
x,y,z
-x,y,1/2-z
-x,-y,-z
x,-y,1/2+z
1/2+x,1/2+y,z
1/2-x,1/2+y,1/2-z
1/2-x,1/2-y,-z
1/2+x,1/2-y,1/2+z
loop_
_atom_site_type_symbol
_atom_site_label
_atom_site_fract_x
_atom_site_fract_y
_atom_site_fract_z
Si Si1 0.043360 0.946059 0.848008
Si Si2 0.181906 0.423576 0.274711
Si Si3 0.659806 0.169899 0.158109
Si Si4 0.940559 0.208563 0.707329
Si Si5 0.284641 0.658937 0.599656
Si Si6 0.617824 0.290229 0.636806
O O1 0.091800 0.856157 0.812112
O O2 0.000000 0.878655 0.750000
O O3 0.065977 0.068010 0.761225
O O4 0.000000 0.000000 0.000000
O O5 0.158751 0.553702 0.278397
O O6 0.183088 0.369533 0.466357
O O7 0.241354 0.433681 0.177460
O O8 0.145596 0.331793 0.179917
O O9 0.600591 0.217967 0.165488
O O10 0.692785 0.270636 0.242828
O O11 0.922528 0.228096 0.512144
O O12 0.000000 0.235081 0.750000
O O13 0.250000 0.750000 0.500000
O O14 0.335451 0.628602 0.463895
#
# Coordination Sequence:
#
# PCOD9290281 Si02
#       6
#     8   8   8   8   8   8
#     4  11  22  39  63  91 129 167 211 274 323 379
#     4  11  23  42  68  92 134 172 215 270 324 390
#     4  11  23  43  65  96 130 172 215 269 324 384
#     4  10  23  41  64  92 132 165 221 268 325 387
#     4   9  20  43  63  94 127 165 212 264 318 390
#     4  10  22  41  64  96 129 170 217 268 330 384
#
# _framework density 21.758126000000001
#
# number of rings (size 3 to 8) (size 9 to 14) (size 15 to 20)
#    0.000    1.667    1.667    3.500    4.667    0.000 
#   21.000    4.167    0.000    0.000    0.000    0.000 
#    0.000    0.000    0.000    0.000    0.000    0.000 
#
# Total GULP energy -133601.868538 kJ/mol
# GULP energy per Si atom -5566.744522 kJ/mol
# Density = 2.170860 g / cm^3
# Si number density = 21.758126 Si / 1000 Ang^3
#
#
#
# Elastic Constant Matrix: (Units=GPa)
#
#
# Indices 1 2 3 4 5 6 
#
# 1 138.2647 41.7744 41.3433 0.0000 -8.0424 0.0000
# 2 41.7744 75.5711 9.1409 0.0000 -16.6594 0.0000
# 3 41.3433 9.1409 90.8846 0.0000 -14.5911 0.0000
# 4 0.0000 0.0000 0.0000 23.6174 0.0000 -7.0597
# 5 -8.0424 -16.6594 -14.5911 0.0000 45.6830 0.0000
# 6 0.0000 0.0000 0.0000 -7.0597 0.0000 35.0350
#
#
#
# Elastic Compliance Matrix: (Units=1/GPa)
#
#
# Indices 1 2 3 4 5 6 
#
# 1 0.010047 -0.005380 -0.004280 0.000000 -0.001560 0.000000
# 2 -0.005380 0.017305 0.001653 0.000000 0.005892 0.000000
# 3 -0.004280 0.001653 0.013449 0.000000 0.004145 0.000000
# 4 0.000000 0.000000 0.000000 0.045055 0.000000 0.009079
# 5 -0.001560 0.005892 0.004145 0.000000 0.025088 0.000000
# 6 0.000000 0.000000 0.000000 0.009079 0.000000 0.030372
#
#
# Mechanical properties :
#
#
# Convention : Reuss Voigt Hill
#
# Bulk Modulus (GPa) = 40.34322 54.35973 47.35148
# Shear Modulus (GPa) = 30.19443 35.03119 32.61281
#
# Velocity S-wave (km/s) = 3.72927 4.01687 3.87574
# Velocity P-wave (km/s) = 6.09304 6.82287 6.46826
#
# Compressibility (1/GPa) = 0.02478731
#
# Stress axis : x y z
#
# Youngs Moduli (GPa) = 99.53272 57.78529 74.35485
#
# Poissons Ratio (x) = 0.31089 0.31822
# Poissons Ratio (y) = 0.53549 -0.12289
# Poissons Ratio (z) = 0.42597 -0.09550
#
# Static dielectric constant tensor:
#      x y z
#    x 1.770500 0.000000 -0.076220 
#    y 0.000000 1.776030 0.000000 
#    z -0.076220 0.000000 1.818410 
# 
# From -- ./inp_files/60539.got.cif
#   From: 2010.05.17/outbox.cif.g08.bks.cpg/sg15_31_cif.got.tgz:60539.got - 2010.06.03 18:47:42.
