data_PCOD9290748
_publ_section_title
;
Structure prediction by ZEFSAII (Michael W. Deem and Ramdas Pophale) SiO2 
 PCOD9290748
Probable space group: C 2/C
;
_chemical_formula_sum "Si O2"
_cell_formula_units_Z 40
_cell_length_a 13.759641
_cell_length_b 4.861698
_cell_length_c 22.184754
_cell_angle_alpha 90.000000
_cell_angle_beta 95.416422
_cell_angle_gamma 90.000000
_cell_volume 1477.427606
_symmetry_space_group_name_H-M "C 2/C"
_symmetry_group_IT_number 15
_symmetry_cell_setting 'monoclinic'
loop_
_space_group_symop_operation_xyz
x,y,z
-x,y,1/2-z
-x,-y,-z
x,-y,1/2+z
1/2+x,1/2+y,z
1/2-x,1/2+y,1/2-z
1/2-x,1/2-y,-z
1/2+x,1/2-y,1/2+z
loop_
_atom_site_type_symbol
_atom_site_label
_atom_site_fract_x
_atom_site_fract_y
_atom_site_fract_z
Si Si1 0.375253 0.080485 0.780210
Si Si2 0.046622 0.459011 0.588404
Si Si3 0.648214 0.277946 0.920545
Si Si4 0.841415 0.965190 0.951414
Si Si5 0.853362 0.080339 0.702846
O O1 0.263882 0.062858 0.796921
O O2 0.382499 0.885994 0.722499
O O3 0.438630 0.983060 0.839464
O O4 0.393692 0.386417 0.758527
O O5 0.069701 0.155163 0.567211
O O6 0.941500 0.580871 0.567298
O O7 0.128952 0.658986 0.564209
O O8 0.743424 0.086562 0.915175
O O9 0.622602 0.459225 0.860707
O O10 0.669271 0.476079 0.978460
#
# Coordination Sequence:
#
# PCOD9290748 Si02
#       5
#     8   8   8   8   8
#     4  10  22  41  69  96 136 183 229 289 350 406
#     4  12  25  47  73 105 146 186 235 300 352 424
#     4  11  26  46  76 106 143 192 238 289 361 427
#     4  11  27  46  72 109 146 185 237 296 354 426
#     4  10  22  41  69  96 136 185 228 286 352 411
#
# _framework density 27.074082000000001
#
# number of rings (size 3 to 8) (size 9 to 14) (size 15 to 20)
#    0.000    1.200    2.000    2.400    5.600    8.800 
#    0.000    2.000    0.000    0.000    0.000    0.000 
#    0.000    0.000    0.000    0.000    0.000    0.000 
#
# Total GULP energy -112483.968319 kJ/mol
# GULP energy per Si atom -5624.198416 kJ/mol
# Density = 2.701246 g / cm^3
# Si number density = 27.074082 Si / 1000 Ang^3
#
#
#
# Elastic Constant Matrix: (Units=GPa)
#
#
# Indices 1 2 3 4 5 6 
#
# 1 130.3694 14.8350 15.5967 0.0000 -20.6331 0.0000
# 2 14.8350 88.8548 5.7245 0.0000 -0.9993 0.0000
# 3 15.5967 5.7245 122.0988 0.0000 2.7568 0.0000
# 4 0.0000 0.0000 0.0000 42.3414 0.0000 -9.1791
# 5 -20.6331 -0.9993 2.7568 0.0000 34.9652 0.0000
# 6 0.0000 0.0000 0.0000 -9.1791 0.0000 14.5043
#
#
#
# Elastic Compliance Matrix: (Units=1/GPa)
#
#
# Indices 1 2 3 4 5 6 
#
# 1 0.008793 -0.001333 -0.001179 0.000000 0.005244 0.000000
# 2 -0.001333 0.011495 -0.000359 0.000000 -0.000430 0.000000
# 3 -0.001179 -0.000359 0.008388 0.000000 -0.001367 0.000000
# 4 0.000000 0.000000 0.000000 0.027373 0.000000 0.017323
# 5 0.005244 -0.000430 -0.001367 0.000000 0.031790 0.000000
# 6 0.000000 0.000000 0.000000 0.017323 0.000000 0.079908
#
#
# Mechanical properties :
#
#
# Convention : Reuss Voigt Hill
#
# Bulk Modulus (GPa) = 43.60270 45.95948 44.78109
# Shear Modulus (GPa) = 27.60372 38.70662 33.15517
#
# Velocity S-wave (km/s) = 3.19652 3.78518 3.50324
# Velocity P-wave (km/s) = 5.45560 6.00964 5.73931
#
# Compressibility (1/GPa) = 0.02293436
#
# Stress axis : x y z
#
# Youngs Moduli (GPa) = 113.72441 86.99294 119.21206
#
# Poissons Ratio (x) = 0.11597 0.14057
# Poissons Ratio (y) = 0.15161 0.04279
# Poissons Ratio (z) = 0.13409 0.03123
#
# Static dielectric constant tensor:
#      x y z
#    x 2.106810 0.000000 0.001320 
#    y 0.000000 2.007650 0.000000 
#    z 0.001320 0.000000 2.039090 
# 
# From -- ./inp_files/271740.got.cif
#   From: 2010.05.17/outbox.cif.g08.bks.cpg/sg15_136_cif.got.tgz:271740.got - 2010.06.03 18:47:42.
