data_PCOD9290645
_publ_section_title
;
Structure prediction by ZEFSAII (Michael W. Deem and Ramdas Pophale) SiO2 
 PCOD9290645
Probable space group: C 2/C
;
_chemical_formula_sum "Si O2"
_cell_formula_units_Z 32
_cell_length_a 10.847485
_cell_length_b 7.746242
_cell_length_c 27.428677
_cell_angle_alpha 90.000000
_cell_angle_beta 146.728762
_cell_angle_gamma 90.000000
_cell_volume 1264.396545
_symmetry_space_group_name_H-M "C 2/C"
_symmetry_group_IT_number 15
_symmetry_cell_setting 'monoclinic'
loop_
_space_group_symop_operation_xyz
x,y,z
-x,y,1/2-z
-x,-y,-z
x,-y,1/2+z
1/2+x,1/2+y,z
1/2-x,1/2+y,1/2-z
1/2-x,1/2-y,-z
1/2+x,1/2-y,1/2+z
loop_
_atom_site_type_symbol
_atom_site_label
_atom_site_fract_x
_atom_site_fract_y
_atom_site_fract_z
Si Si1 0.549693 0.046501 0.824552
Si Si2 0.198545 0.901891 0.926752
Si Si3 0.890593 0.784229 0.906534
Si Si4 0.121004 0.046016 0.745901
O O1 0.500000 0.059565 0.750000
O O2 0.752222 0.910744 0.895016
O O3 0.332483 0.983642 0.783915
O O4 0.620454 0.229428 0.871353
O O5 0.074878 0.895394 0.937853
O O6 0.082969 0.059417 0.859837
O O7 0.460619 0.871121 0.022509
O O8 0.724711 0.703906 0.810888
O O9 0.000000 0.942911 0.750000
#
# Coordination Sequence:
#
# PCOD9290645 Si02
#       4
#     8   8   8   8
#     4  11  21  41  71  96 139 188 222 282 343 403
#     4  10  22  41  68 106 135 179 234 279 339 412
#     4  10  22  42  70 100 141 178 228 288 338 404
#     4  11  24  41  67 100 141 178 225 287 343 399
#
# _framework density 25.308516000000001
#
# number of rings (size 3 to 8) (size 9 to 14) (size 15 to 20)
#    0.000    1.500    2.500    2.250    3.500    1.000 
#    0.000    1.250    0.000    0.000    0.000    0.000 
#    0.000    0.000    0.000    0.000    0.000    0.000 
#
# Total GULP energy -89306.387345 kJ/mol
# GULP energy per Si atom -5581.649209 kJ/mol
# Density = 2.525091 g / cm^3
# Si number density = 25.308516 Si / 1000 Ang^3
#
#
#
# Elastic Constant Matrix: (Units=GPa)
#
#
# Indices 1 2 3 4 5 6 
#
# 1 200.3739 27.6055 39.1248 0.0000 27.9160 0.0000
# 2 27.6055 84.3193 16.7000 0.0000 2.7693 0.0000
# 3 39.1248 16.7000 121.4120 0.0000 26.6874 0.0000
# 4 0.0000 0.0000 0.0000 39.6686 0.0000 -5.5384
# 5 27.9160 2.7693 26.6874 0.0000 57.6486 0.0000
# 6 0.0000 0.0000 0.0000 -5.5384 0.0000 28.7873
#
#
#
# Elastic Compliance Matrix: (Units=1/GPa)
#
#
# Indices 1 2 3 4 5 6 
#
# 1 0.005735 -0.001578 -0.001155 0.000000 -0.002167 0.000000
# 2 -0.001578 0.012628 -0.001406 0.000000 0.000808 0.000000
# 3 -0.001155 -0.001406 0.009646 0.000000 -0.003839 0.000000
# 4 0.000000 0.000000 0.000000 0.025905 0.000000 0.004984
# 5 -0.002167 0.000808 -0.003839 0.000000 0.020134 0.000000
# 6 0.000000 0.000000 0.000000 0.004984 0.000000 0.035696
#
#
# Mechanical properties :
#
#
# Convention : Reuss Voigt Hill
#
# Bulk Modulus (GPa) = 50.68049 63.66288 57.17168
# Shear Modulus (GPa) = 40.12856 46.73256 43.43056
#
# Velocity S-wave (km/s) = 3.98625 4.30177 4.14701
# Velocity P-wave (km/s) = 6.42304 7.06279 6.75050
#
# Compressibility (1/GPa) = 0.01973146
#
# Stress axis : x y z
#
# Youngs Moduli (GPa) = 174.35427 79.18774 103.67268
#
# Poissons Ratio (x) = 0.12495 0.11973
# Poissons Ratio (y) = 0.27510 0.14579
# Poissons Ratio (z) = 0.20136 0.11136
#
# Static dielectric constant tensor:
#      x y z
#    x 2.023440 0.000000 -0.002390 
#    y 0.000000 2.004630 0.000000 
#    z -0.002390 0.000000 2.019950 
# 
# From -- ./inp_files/140554.got.cif
#   From: 2010.05.17/outbox.cif.g08.bks.cpg/sg15_71_cif.got.tgz:140554.got - 2010.06.03 18:47:42.
