data_PCOD9290891
_publ_section_title
;
Structure prediction by ZEFSAII (Michael W. Deem and Ramdas Pophale) SiO2 
 PCOD9290891
Probable space group: C 2/C
;
_chemical_formula_sum "Si O2"
_cell_formula_units_Z 56
_cell_length_a 13.647841
_cell_length_b 11.823175
_cell_length_c 19.444471
_cell_angle_alpha 90.000000
_cell_angle_beta 52.014387
_cell_angle_gamma 90.000000
_cell_volume 2472.928313
_symmetry_space_group_name_H-M "C 2/C"
_symmetry_group_IT_number 15
_symmetry_cell_setting 'monoclinic'
loop_
_space_group_symop_operation_xyz
x,y,z
-x,y,1/2-z
-x,-y,-z
x,-y,1/2+z
1/2+x,1/2+y,z
1/2-x,1/2+y,1/2-z
1/2-x,1/2-y,-z
1/2+x,1/2-y,1/2+z
loop_
_atom_site_type_symbol
_atom_site_label
_atom_site_fract_x
_atom_site_fract_y
_atom_site_fract_z
Si Si1 0.879672 0.529988 0.508130
Si Si2 0.133535 0.046514 0.918817
Si Si3 0.310542 0.627686 0.459773
Si Si4 0.467403 0.863011 0.833425
Si Si5 0.209166 0.262143 0.802417
Si Si6 0.311950 0.660190 0.825680
Si Si7 0.405830 0.439134 0.706229
O O1 0.787036 0.425675 0.549908
O O2 0.905384 0.565438 0.419330
O O3 0.797960 0.627710 0.576412
O O4 0.000000 0.500000 0.500000
O O5 0.152636 0.172494 0.880003
O O6 0.158249 0.969387 0.840574
O O7 0.198139 0.057559 0.964639
O O8 0.000000 0.000000 0.000000
O O9 0.250000 0.750000 0.500000
O O10 0.452972 0.604897 0.370782
O O11 0.500000 0.931012 0.750000
O O12 0.590827 0.823557 0.819719
O O13 0.391060 0.754960 0.834298
O O14 0.258025 0.200335 0.712851
O O15 0.321314 0.341979 0.775989
O O16 0.390099 0.553224 0.759683
#
# Coordination Sequence:
#
# PCOD9290891 Si02
#       7
#     8   8   8   8   8   8   8
#     4  12  28  46  73 104 152 195 255 316 376 442
#     4   9  22  43  70 101 145 192 242 297 374 453
#     4  11  28  46  68 106 149 197 248 306 379 452
#     4  10  24  44  74 108 143 188 254 310 374 439
#     4  10  22  41  75 105 142 192 245 304 379 443
#     4  10  24  43  74 106 142 194 251 309 375 445
#     4  10  23  46  76 103 148 195 249 307 376 455
#
# _framework density 22.645219000000001
#
# number of rings (size 3 to 8) (size 9 to 14) (size 15 to 20)
#    0.000    1.714    0.000    1.286   20.000    1.143 
#    0.000    0.000    0.000    0.000    0.000    0.000 
#    0.000    0.000    0.000    0.000    0.000    0.000 
#
# Total GULP energy -155893.937711 kJ/mol
# GULP energy per Si atom -5567.640633 kJ/mol
# Density = 2.259368 g / cm^3
# Si number density = 22.645219 Si / 1000 Ang^3
#
#
#
# Elastic Constant Matrix: (Units=GPa)
#
#
# Indices 1 2 3 4 5 6 
#
# 1 151.1772 53.4343 59.0729 0.0000 -4.2764 0.0000
# 2 53.4343 78.5519 53.5040 0.0000 -7.1272 0.0000
# 3 59.0729 53.5040 175.6395 0.0000 1.8610 0.0000
# 4 0.0000 0.0000 0.0000 33.4765 0.0000 4.5169
# 5 -4.2764 -7.1272 1.8610 0.0000 14.1057 0.0000
# 6 0.0000 0.0000 0.0000 4.5169 0.0000 14.4352
#
#
#
# Elastic Compliance Matrix: (Units=1/GPa)
#
#
# Indices 1 2 3 4 5 6 
#
# 1 0.009000 -0.005079 -0.001483 0.000000 0.000358 0.000000
# 2 -0.005079 0.020093 -0.004510 0.000000 0.009208 0.000000
# 3 -0.001483 -0.004510 0.007606 0.000000 -0.003732 0.000000
# 4 0.000000 0.000000 0.000000 0.031188 0.000000 -0.009759
# 5 0.000358 0.009208 -0.003732 0.000000 0.076147 0.000000
# 6 0.000000 0.000000 0.000000 -0.009759 0.000000 0.072329
#
#
# Mechanical properties :
#
#
# Convention : Reuss Voigt Hill
#
# Bulk Modulus (GPa) = 68.71366 81.93233 75.32299
# Shear Modulus (GPa) = 20.54580 28.36063 24.45322
#
# Velocity S-wave (km/s) = 3.01539 3.54275 3.28966
# Velocity P-wave (km/s) = 6.52173 7.27971 6.91112
#
# Compressibility (1/GPa) = 0.01455315
#
# Stress axis : x y z
#
# Youngs Moduli (GPa) = 111.11372 49.76896 131.47799
#
# Poissons Ratio (x) = 0.25278 0.19504
# Poissons Ratio (y) = 0.56436 0.59297
# Poissons Ratio (z) = 0.16483 0.22446
#
# Static dielectric constant tensor:
#      x y z
#    x 1.745500 0.000000 -0.253810 
#    y 0.000000 -10.144600 0.000000 
#    z -0.253810 0.000000 1.104010 
# 
# From -- ./inp_files/204333.got.cif
#   From: 2010.05.17/outbox.cif.g08.bks.cpg/sg15_103_cif.got.tgz:204333.got - 2010.06.03 18:47:42.
