data_PCOD9290834
_publ_section_title
;
Structure prediction by ZEFSAII (Michael W. Deem and Ramdas Pophale) SiO2 
 PCOD9290834
Probable space group: C 2/C
;
_chemical_formula_sum "Si O2"
_cell_formula_units_Z 60
_cell_length_a 17.866994
_cell_length_b 8.132647
_cell_length_c 17.383022
_cell_angle_alpha 90.000000
_cell_angle_beta 114.509280
_cell_angle_gamma 90.000000
_cell_volume 2298.262013
_symmetry_space_group_name_H-M "C 2/C"
_symmetry_group_IT_number 15
_symmetry_cell_setting 'monoclinic'
loop_
_space_group_symop_operation_xyz
x,y,z
-x,y,1/2-z
-x,-y,-z
x,-y,1/2+z
1/2+x,1/2+y,z
1/2-x,1/2+y,1/2-z
1/2-x,1/2-y,-z
1/2+x,1/2-y,1/2+z
loop_
_atom_site_type_symbol
_atom_site_label
_atom_site_fract_x
_atom_site_fract_y
_atom_site_fract_z
Si Si1 0.462715 0.842703 0.581985
Si Si2 0.419041 0.397132 0.439049
Si Si3 0.292816 0.350825 0.259151
Si Si4 0.337414 0.246203 0.677677
Si Si5 0.907254 0.893800 0.181092
Si Si6 0.000000 0.446045 0.250000
Si Si7 0.725813 0.506298 0.535572
Si Si8 0.690635 0.138517 0.576374
O O1 0.544263 0.770908 0.578421
O O2 0.477854 0.954611 0.662701
O O3 0.402419 0.897573 0.488234
O O4 0.210649 0.833573 0.574341
O O5 0.500000 0.500000 0.500000
O O6 0.357478 0.450730 0.341768
O O7 0.357597 0.391542 0.484699
O O8 0.237369 0.246158 0.293357
O O9 0.354982 0.285139 0.219672
O O10 0.219461 0.415181 0.172457
O O11 0.369691 0.425299 0.668921
O O12 0.297690 0.123585 0.598220
O O13 0.420661 0.158653 0.740108
O O14 0.912979 0.809251 0.101059
O O15 0.000000 0.902926 0.250000
O O16 0.755483 0.452202 0.464945
#
# Coordination Sequence:
#
# PCOD9290834 Si02
#       8
#     8   8   8   8   8   4   8   8
#     4  12  24  43  78 108 147 200 263 308 382 472
#     4  11  23  41  69 113 138 186 254 320 360 441
#     4  11  27  43  74 107 154 198 260 308 394 463
#     4  11  27  44  74 111 157 201 249 337 390 451
#     4  12  24  45  72 115 150 201 258 318 382 456
#     4  12  24  48  78 112 152 204 264 314 398 468
#     4  10  22  41  71 104 149 197 251 312 385 451
#     4  11  23  44  73 106 147 204 253 317 380 472
#
# _framework density 26.106686
#
# number of rings (size 3 to 8) (size 9 to 14) (size 15 to 20)
#    0.000    0.800    5.333    1.600    5.600    1.067 
#    0.000    3.333    2.933    0.000    0.000    0.000 
#    0.000    0.000    0.000    0.000    0.000    0.000 
#
# Total GULP energy -167664.517574 kJ/mol
# GULP energy per Si atom -5588.817252 kJ/mol
# Density = 2.604727 g / cm^3
# Si number density = 26.106686 Si / 1000 Ang^3
#
#
#
# Elastic Constant Matrix: (Units=GPa)
#
#
# Indices 1 2 3 4 5 6 
#
# 1 151.9034 46.1914 30.3476 0.0000 18.0589 0.0000
# 2 46.1914 98.2428 52.9700 0.0000 8.0854 0.0000
# 3 30.3476 52.9700 179.0847 0.0000 33.2059 0.0000
# 4 0.0000 0.0000 0.0000 19.0651 0.0000 17.2140
# 5 18.0589 8.0854 33.2059 0.0000 57.4657 0.0000
# 6 0.0000 0.0000 0.0000 17.2140 0.0000 35.3328
#
#
#
# Elastic Compliance Matrix: (Units=1/GPa)
#
#
# Indices 1 2 3 4 5 6 
#
# 1 0.007900 -0.003603 0.000105 0.000000 -0.002036 0.000000
# 2 -0.003603 0.013762 -0.003708 0.000000 0.001339 0.000000
# 3 0.000105 -0.003708 0.007361 0.000000 -0.003765 0.000000
# 4 0.000000 0.000000 0.000000 0.093646 0.000000 -0.045624
# 5 -0.002036 0.001339 -0.003765 0.000000 0.020029 0.000000
# 6 0.000000 0.000000 0.000000 -0.045624 0.000000 0.050530
#
#
# Mechanical properties :
#
#
# Convention : Reuss Voigt Hill
#
# Bulk Modulus (GPa) = 68.44846 76.47210 72.46028
# Shear Modulus (GPa) = 23.52816 42.35418 32.94117
#
# Velocity S-wave (km/s) = 3.00531 4.03221 3.55602
# Velocity P-wave (km/s) = 6.19017 7.14381 6.68402
#
# Compressibility (1/GPa) = 0.01460953
#
# Stress axis : x y z
#
# Youngs Moduli (GPa) = 126.58283 72.66276 135.84924
#
# Poissons Ratio (x) = 0.26182 -0.01420
# Poissons Ratio (y) = 0.45610 0.50376
# Poissons Ratio (z) = -0.01323 0.26945
#
# Static dielectric constant tensor:
#      x y z
#    x 2.002670 0.000000 0.061250 
#    y 0.000000 2.092920 0.000000 
#    z 0.061250 0.000000 2.184230 
# 
# From -- ./inp_files/210636.got.cif
#   From: 2010.05.17/outbox.cif.g08.bks.cpg/sg15_106_cif.got.tgz:210636.got - 2010.06.03 18:47:42.
