data_PCOD9290587
_publ_section_title
;
Structure prediction by ZEFSAII (Michael W. Deem and Ramdas Pophale) SiO2 
 PCOD9290587
Probable space group: C 2/C
;
_chemical_formula_sum "Si O2"
_cell_formula_units_Z 40
_cell_length_a 22.257177
_cell_length_b 11.397605
_cell_length_c 12.682434
_cell_angle_alpha 90.000000
_cell_angle_beta 32.341949
_cell_angle_gamma 90.000000
_cell_volume 1721.141529
_symmetry_space_group_name_H-M "C 2/C"
_symmetry_group_IT_number 15
_symmetry_cell_setting 'monoclinic'
loop_
_space_group_symop_operation_xyz
x,y,z
-x,y,1/2-z
-x,-y,-z
x,-y,1/2+z
1/2+x,1/2+y,z
1/2-x,1/2+y,1/2-z
1/2-x,1/2-y,-z
1/2+x,1/2-y,1/2+z
loop_
_atom_site_type_symbol
_atom_site_label
_atom_site_fract_x
_atom_site_fract_y
_atom_site_fract_z
Si Si1 0.898092 0.015733 0.569950
Si Si2 0.136298 0.323143 0.655246
Si Si3 0.175972 0.796636 0.477567
Si Si4 0.783505 0.561051 0.998424
Si Si5 0.403834 0.258405 0.516982
O O1 0.894804 0.131390 0.503209
O O2 0.786126 0.003517 0.806456
O O3 0.898358 0.897012 0.500198
O O4 0.000000 0.000000 0.500000
O O5 0.250000 0.250000 0.500000
O O6 0.152468 0.459046 0.658000
O O7 0.111493 0.311094 0.568033
O O8 0.028445 0.269800 0.874146
O O9 0.142040 0.666209 0.564009
O O10 0.194755 0.877158 0.551925
O O11 0.301525 0.775209 0.244162
#
# Coordination Sequence:
#
# PCOD9290587 Si02
#       5
#     8   8   8   8   8
#     4  11  22  41  67  94 132 178 231 280 345 410
#     4  11  21  40  66  96 132 173 231 277 338 411
#     4  10  22  43  64  94 140 171 230 286 341 420
#     4  10  22  41  67  95 133 180 220 285 348 405
#     4  10  23  38  63  98 127 174 225 276 339 405
#
# _framework density 23.240387999999999
#
# number of rings (size 3 to 8) (size 9 to 14) (size 15 to 20)
#    0.000    1.600    2.000    2.400    0.000    3.200 
#    0.000   12.000    0.000    0.000    0.000    0.000 
#    0.000    0.000    0.000    0.000    0.000    0.000 
#
# Total GULP energy -111780.767244 kJ/mol
# GULP energy per Si atom -5589.038362 kJ/mol
# Density = 2.318749 g / cm^3
# Si number density = 23.240388 Si / 1000 Ang^3
#
#
#
# Elastic Constant Matrix: (Units=GPa)
#
#
# Indices 1 2 3 4 5 6 
#
# 1 98.0084 50.3131 8.9633 0.0000 -11.4701 0.0000
# 2 50.3131 153.7997 22.8289 0.0000 -18.1617 0.0000
# 3 8.9633 22.8289 55.5373 0.0000 -19.5182 0.0000
# 4 0.0000 0.0000 0.0000 25.2731 0.0000 4.3581
# 5 -11.4701 -18.1617 -19.5182 0.0000 35.3450 0.0000
# 6 0.0000 0.0000 0.0000 4.3581 0.0000 39.3021
#
#
#
# Elastic Compliance Matrix: (Units=1/GPa)
#
#
# Indices 1 2 3 4 5 6 
#
# 1 0.012409 -0.003848 0.000372 0.000000 0.002255 0.000000
# 2 -0.003848 0.008295 -0.002146 0.000000 0.001829 0.000000
# 3 0.000372 -0.002146 0.022934 0.000000 0.011682 0.000000
# 4 0.000000 0.000000 0.000000 0.040339 0.000000 -0.004473
# 5 0.002255 0.001829 0.011682 0.000000 0.036415 0.000000
# 6 0.000000 0.000000 0.000000 -0.004473 0.000000 0.025940
#
#
# Mechanical properties :
#
#
# Convention : Reuss Voigt Hill
#
# Bulk Modulus (GPa) = 30.87171 52.39510 41.63341
# Shear Modulus (GPa) = 29.69569 35.00005 32.34787
#
# Velocity S-wave (km/s) = 3.57846 3.88493 3.73484
# Velocity P-wave (km/s) = 5.51238 6.53585 6.04581
#
# Compressibility (1/GPa) = 0.03239211
#
# Stress axis : x y z
#
# Youngs Moduli (GPa) = 80.58945 120.54993 43.60382
#
# Poissons Ratio (x) = 0.46390 -0.01620
# Poissons Ratio (y) = 0.31012 0.09358
# Poissons Ratio (z) = -0.02994 0.25872
#
# Static dielectric constant tensor:
#      x y z
#    x 1.823200 0.000000 -0.013910 
#    y 0.000000 1.913070 0.000000 
#    z -0.013910 0.000000 1.929490 
# 
# From -- ./inp_files/95120.got.cif
#   From: 2010.05.17/outbox.cif.g08.bks.cpg/sg15_48_cif.got.tgz:95120.got - 2010.06.03 18:47:42.
