data_PCOD9290459
_publ_section_title
;
Structure prediction by ZEFSAII (Michael W. Deem and Ramdas Pophale) SiO2 
 PCOD9290459
Probable space group: C 2/C
;
_chemical_formula_sum "Si O2"
_cell_formula_units_Z 48
_cell_length_a 14.994726
_cell_length_b 9.989117
_cell_length_c 15.284925
_cell_angle_alpha 90.000000
_cell_angle_beta 95.097056
_cell_angle_gamma 90.000000
_cell_volume 2280.385031
_symmetry_space_group_name_H-M "C 2/C"
_symmetry_group_IT_number 15
_symmetry_cell_setting 'monoclinic'
loop_
_space_group_symop_operation_xyz
x,y,z
-x,y,1/2-z
-x,-y,-z
x,-y,1/2+z
1/2+x,1/2+y,z
1/2-x,1/2+y,1/2-z
1/2-x,1/2-y,-z
1/2+x,1/2-y,1/2+z
loop_
_atom_site_type_symbol
_atom_site_label
_atom_site_fract_x
_atom_site_fract_y
_atom_site_fract_z
Si Si1 0.644180 0.977981 0.166913
Si Si2 0.024763 0.139215 0.958256
Si Si3 0.789869 0.477699 0.127777
Si Si4 0.863817 0.788593 0.333056
Si Si5 0.474025 0.110770 0.568384
Si Si6 0.701048 0.709312 0.875127
O O1 0.677990 0.974769 0.268785
O O2 0.647959 0.133653 0.140334
O O3 0.543666 0.922231 0.151711
O O4 0.710846 0.883154 0.117980
O O5 0.126263 0.156454 0.935189
O O6 0.963420 0.168330 0.867735
O O7 0.997650 0.248995 0.027666
O O8 0.000000 0.000000 0.000000
O O9 0.701550 0.387324 0.119140
O O10 0.778362 0.634426 0.104394
O O11 0.871254 0.410860 0.082893
O O12 0.839725 0.797298 0.227849
O O13 0.500000 0.000000 0.500000
#
# Coordination Sequence:
#
# PCOD9290459 Si02
#       6
#     8   8   8   8   8   8
#     4  10  22  41  66  91 119 161 206 250 299 360
#     4  12  27  41  59  93 126 164 200 251 309 359
#     4  10  22  41  66  91 119 161 206 250 299 360
#     4  10  22  43  66  89 120 161 206 249 300 360
#     4  12  23  41  61  89 124 161 200 243 308 365
#     4  10  22  43  66  89 120 161 206 249 300 360
#
# _framework density 21.049075999999999
#
# number of rings (size 3 to 8) (size 9 to 14) (size 15 to 20)
#    0.000    1.333    3.333    1.000    4.667    5.333 
#    0.000    1.667    0.000    0.000    0.000    0.000 
#    0.000    0.000    0.000    0.000    0.000    0.000 
#
# Total GULP energy -134215.094314 kJ/mol
# GULP energy per Si atom -5592.295596 kJ/mol
# Density = 2.100117 g / cm^3
# Si number density = 21.049076 Si / 1000 Ang^3
#
#
#
# Elastic Constant Matrix: (Units=GPa)
#
#
# Indices 1 2 3 4 5 6 
#
# 1 80.3104 19.9616 26.9880 0.0000 -25.0963 0.0000
# 2 19.9616 153.0631 37.5248 0.0000 -27.9574 0.0000
# 3 26.9880 37.5248 48.5549 0.0000 -7.7198 0.0000
# 4 0.0000 0.0000 0.0000 32.5499 0.0000 -1.2859
# 5 -25.0963 -27.9574 -7.7198 0.0000 50.4517 0.0000
# 6 0.0000 0.0000 0.0000 -1.2859 0.0000 32.1063
#
#
#
# Elastic Compliance Matrix: (Units=1/GPa)
#
#
# Indices 1 2 3 4 5 6 
#
# 1 0.017983 0.001604 -0.009913 0.000000 0.008318 0.000000
# 2 0.001604 0.008897 -0.007028 0.000000 0.004653 0.000000
# 3 -0.009913 -0.007028 0.030884 0.000000 -0.004100 0.000000
# 4 0.000000 0.000000 0.000000 0.030771 0.000000 0.001232
# 5 0.008318 0.004653 -0.004100 0.000000 0.025909 0.000000
# 6 0.000000 0.000000 0.000000 0.001232 0.000000 0.031196
#
#
# Mechanical properties :
#
#
# Convention : Reuss Voigt Hill
#
# Bulk Modulus (GPa) = 36.91143 50.09745 43.50444
# Shear Modulus (GPa) = 26.97690 36.18519 31.58105
#
# Velocity S-wave (km/s) = 3.58385 4.15069 3.87764
# Velocity P-wave (km/s) = 5.89061 6.84273 6.38444
#
# Compressibility (1/GPa) = 0.02709188
#
# Stress axis : x y z
#
# Youngs Moduli (GPa) = 55.60702 112.40044 32.37878
#
# Poissons Ratio (x) = -0.18031 0.32097
# Poissons Ratio (y) = -0.08920 0.22755
# Poissons Ratio (z) = 0.55123 0.78991
#
# Static dielectric constant tensor:
#      x y z
#    x 1.755190 0.000000 0.052540 
#    y 0.000000 1.697630 0.000000 
#    z 0.052540 0.000000 1.801520 
# 
# From -- ./inp_files/203029.got.cif
#   From: 2010.05.17/outbox.cif.g08.bks.cpg/sg15_102_cif.got.tgz:203029.got - 2010.06.03 18:47:42.
