data_PCOD9290050
_publ_section_title
;
Structure prediction by ZEFSAII (Michael W. Deem and Ramdas Pophale) SiO2 
 PCOD9290050
Probable space group: C 2/C
;
_chemical_formula_sum "Si O2"
_cell_formula_units_Z 44
_cell_length_a 30.974022
_cell_length_b 7.363071
_cell_length_c 24.783626
_cell_angle_alpha 90.000000
_cell_angle_beta 161.405484
_cell_angle_gamma 90.000000
_cell_volume 1802.325317
_symmetry_space_group_name_H-M "C 2/C"
_symmetry_group_IT_number 15
_symmetry_cell_setting 'monoclinic'
loop_
_space_group_symop_operation_xyz
x,y,z
-x,y,1/2-z
-x,-y,-z
x,-y,1/2+z
1/2+x,1/2+y,z
1/2-x,1/2+y,1/2-z
1/2-x,1/2-y,-z
1/2+x,1/2-y,1/2+z
loop_
_atom_site_type_symbol
_atom_site_label
_atom_site_fract_x
_atom_site_fract_y
_atom_site_fract_z
Si Si1 0.294045 0.557842 0.468236
Si Si2 0.754982 0.634233 0.392381
Si Si3 0.908544 0.983252 0.708842
Si Si4 0.349990 0.230730 0.838781
Si Si5 0.342486 0.189167 0.292215
Si Si6 0.500000 0.142277 0.750000
O O1 0.259363 0.347569 0.414141
O O2 0.300450 0.572734 0.540238
O O3 0.448065 0.578572 0.629625
O O4 0.201642 0.683790 0.322515
O O5 0.631154 0.546276 0.277260
O O6 0.731991 0.645339 0.301512
O O7 0.888986 0.549968 0.579852
O O8 0.926449 0.780757 0.704374
O O9 0.272728 0.237567 0.804087
O O10 0.349008 0.023012 0.817113
O O11 0.509450 0.277372 0.027539
#
# Coordination Sequence:
#
# PCOD9290050 Si02
#       6
#     8   8   8   8   8   4
#     4   8  16  30  51  76 114 143 195 241 301 349
#     4   9  16  27  48  80 110 146 185 250 292 349
#     4   8  14  27  49  77 105 148 188 239 297 344
#     4  10  23  38  61  84 126 155 211 242 310 354
#     4  10  22  41  57  90 116 170 197 260 292 364
#     4   8  14  22  40  72 102 138 172 238 298 340
#
# _framework density 24.412907000000001
#
# number of rings (size 3 to 8) (size 9 to 14) (size 15 to 20)
#    0.000    3.636    0.000    2.182    7.636    0.727 
#    3.273    0.000    0.000    4.364    0.000    0.000 
#    0.000    0.000    0.000    0.000    0.000    0.000 
#
# Total GULP energy -122775.308003 kJ/mol
# GULP energy per Si atom -5580.695818 kJ/mol
# Density = 2.435734 g / cm^3
# Si number density = 24.412907 Si / 1000 Ang^3
#
#
#
# Elastic Constant Matrix: (Units=GPa)
#
#
# Indices 1 2 3 4 5 6 
#
# 1 7.1872 82.8960 24.5765 0.0000 16.8764 0.0000
# 2 82.8960 31.0464 27.4063 0.0001 -12.0518 0.0000
# 3 24.5765 27.4063 98.9391 0.0000 -7.3838 0.0000
# 4 0.0000 0.0001 0.0000 7.5437 0.0000 5.3850
# 5 16.8764 -12.0518 -7.3838 0.0000 26.3706 0.0000
# 6 0.0000 0.0000 0.0000 5.3850 0.0000 25.0541
#
#
#
# Elastic Compliance Matrix: (Units=1/GPa)
#
#
# Indices 1 2 3 4 5 6 
#
# 1 -0.002723 0.011591 -0.002052 0.000000 0.006465 0.000000
# 2 0.011591 0.001735 -0.003937 0.000000 -0.007727 0.000000
# 3 -0.002052 -0.003937 0.011920 0.000000 0.002852 0.000000
# 4 0.000000 0.000000 0.000000 0.156586 0.000000 -0.033656
# 5 0.006465 -0.007727 0.002852 0.000000 0.031050 0.000000
# 6 0.000000 0.000000 0.000000 -0.033656 0.000000 0.047148
#
#
# Mechanical properties :
#
#
# Convention : Reuss Voigt Hill
#
# Bulk Modulus (GPa) = 45.17069 45.21449 45.19259
# Shear Modulus (GPa) = 20.67055 11.94661 16.30858
#
# Velocity S-wave (km/s) = 2.91298 2.21454 2.58743
# Velocity P-wave (km/s) = 5.46414 5.00998 5.24198
#
# Compressibility (1/GPa) = 0.02213825
#
# Stress axis : x y z
#
# Youngs Moduli (GPa) = -367.25821 576.26282 83.89092
#
# Poissons Ratio (x) = -6.67973 0.17214
# Poissons Ratio (y) = 4.25706 0.33025
# Poissons Ratio (z) = -0.75361 2.26858
#
# Static dielectric constant tensor:
#      x y z
#    x 1.879280 0.000000 -0.017840 
#    y 0.000000 1.976530 0.000000 
#    z -0.017840 0.000000 2.009020 
# 
# From -- ./inp_files/284485.got.cif
#   From: 2010.05.17/outbox.cif.g08.bks.cpg/sg15_143_cif.got.tgz:284485.got - 2010.06.03 18:47:42.
