data_PCOD9290623
_publ_section_title
;
Structure prediction by ZEFSAII (Michael W. Deem and Ramdas Pophale) SiO2 
 PCOD9290623
Probable space group: C 2/C
;
_chemical_formula_sum "Si O2"
_cell_formula_units_Z 48
_cell_length_a 21.456641
_cell_length_b 8.779153
_cell_length_c 22.365866
_cell_angle_alpha 90.000000
_cell_angle_beta 154.354847
_cell_angle_gamma 90.000000
_cell_volume 1823.407056
_symmetry_space_group_name_H-M "C 2/C"
_symmetry_group_IT_number 15
_symmetry_cell_setting 'monoclinic'
loop_
_space_group_symop_operation_xyz
x,y,z
-x,y,1/2-z
-x,-y,-z
x,-y,1/2+z
1/2+x,1/2+y,z
1/2-x,1/2+y,1/2-z
1/2-x,1/2-y,-z
1/2+x,1/2-y,1/2+z
loop_
_atom_site_type_symbol
_atom_site_label
_atom_site_fract_x
_atom_site_fract_y
_atom_site_fract_z
Si Si1 0.506638 0.710749 0.087890
Si Si2 0.854291 0.767546 0.920357
Si Si3 0.958427 0.797839 0.135771
Si Si4 0.689846 0.998608 0.943258
Si Si5 0.800408 0.997364 0.659989
Si Si6 0.690042 0.932151 0.313603
O O1 0.577377 0.697673 0.084000
O O2 0.587869 0.601517 0.205720
O O3 0.561438 0.872330 0.160735
O O4 0.338421 0.667622 0.935932
O O5 0.801007 0.593203 0.882985
O O6 0.735582 0.897989 0.832499
O O7 0.967220 0.788541 0.071773
O O8 0.832791 0.917245 0.040865
O O9 0.106551 0.863312 0.287829
O O10 0.911618 0.636391 0.120607
O O11 0.733673 0.080857 0.043164
O O12 0.859454 0.419268 0.159888
#
# Coordination Sequence:
#
# PCOD9290623 Si02
#       6
#     8   8   8   8   8   8
#     4  12  25  43  69 101 148 191 230 280 365 426
#     4  10  22  41  68 100 134 181 243 289 343 412
#     4   9  18  35  68  99 124 167 229 298 344 386
#     4   9  19  38  64  98 133 166 234 286 349 408
#     4  11  21  39  73 101 130 187 231 300 346 414
#     4  11  25  46  66 101 145 194 224 294 352 425
#
# _framework density 26.324348000000001
#
# number of rings (size 3 to 8) (size 9 to 14) (size 15 to 20)
#    0.000    1.667    3.333    3.000    2.333    0.667 
#    6.000    1.667    0.000    0.000    0.000    0.000 
#    0.000    0.000    0.000    0.000    0.000    0.000 
#
# Total GULP energy -134325.450345 kJ/mol
# GULP energy per Si atom -5596.893764 kJ/mol
# Density = 2.626443 g / cm^3
# Si number density = 26.324348 Si / 1000 Ang^3
#
#
#
# Elastic Constant Matrix: (Units=GPa)
#
#
# Indices 1 2 3 4 5 6 
#
# 1 181.8722 24.5817 44.9951 0.0000 -24.0125 0.0000
# 2 24.5817 64.5783 9.7779 0.0000 4.1698 0.0000
# 3 44.9951 9.7779 88.9746 0.0000 -6.9162 0.0000
# 4 0.0000 0.0000 0.0000 57.0225 0.0000 1.7572
# 5 -24.0125 4.1698 -6.9162 0.0000 40.5943 0.0000
# 6 0.0000 0.0000 0.0000 1.7572 0.0000 33.5603
#
#
#
# Elastic Compliance Matrix: (Units=1/GPa)
#
#
# Indices 1 2 3 4 5 6 
#
# 1 0.007102 -0.002502 -0.003010 0.000000 0.003945 0.000000
# 2 -0.002502 0.016781 -0.000839 0.000000 -0.003347 0.000000
# 3 -0.003010 -0.000839 0.012893 0.000000 0.000502 0.000000
# 4 0.000000 0.000000 0.000000 0.017565 0.000000 -0.000920
# 5 0.003945 -0.003347 0.000502 0.000000 0.027397 0.000000
# 6 0.000000 0.000000 0.000000 -0.000920 0.000000 0.029845
#
#
# Mechanical properties :
#
#
# Convention : Reuss Voigt Hill
#
# Bulk Modulus (GPa) = 41.54012 54.90385 48.22199
# Shear Modulus (GPa) = 37.79011 43.30677 40.54844
#
# Velocity S-wave (km/s) = 3.79299 4.06041 3.92897
# Velocity P-wave (km/s) = 5.91580 6.54863 6.24024
#
# Compressibility (1/GPa) = 0.02407311
#
# Stress axis : x y z
#
# Youngs Moduli (GPa) = 140.80244 59.59211 77.56433
#
# Poissons Ratio (x) = 0.14913 0.23346
# Poissons Ratio (y) = 0.35235 0.06506
# Poissons Ratio (z) = 0.42380 0.04999
#
# Static dielectric constant tensor:
#      x y z
#    x 2.019170 0.000000 0.020800 
#    y 0.000000 2.152850 0.000000 
#    z 0.020800 0.000000 2.097050 
# 
# From -- ./inp_files/281718.got.cif
#   From: 2010.05.17/outbox.cif.g08.bks.cpg/sg15_141_cif.got.tgz:281718.got - 2010.06.03 18:47:42.
