data_PCOD9290734
_publ_section_title
;
Structure prediction by ZEFSAII (Michael W. Deem and Ramdas Pophale) SiO2 
 PCOD9290734
Probable space group: C 2/C
;
_chemical_formula_sum "Si O2"
_cell_formula_units_Z 36
_cell_length_a 11.117359
_cell_length_b 24.299880
_cell_length_c 7.132960
_cell_angle_alpha 90.000000
_cell_angle_beta 54.617547
_cell_angle_gamma 90.000000
_cell_volume 1571.070741
_symmetry_space_group_name_H-M "C 2/C"
_symmetry_group_IT_number 15
_symmetry_cell_setting 'monoclinic'
loop_
_space_group_symop_operation_xyz
x,y,z
-x,y,1/2-z
-x,-y,-z
x,-y,1/2+z
1/2+x,1/2+y,z
1/2-x,1/2+y,1/2-z
1/2-x,1/2-y,-z
1/2+x,1/2-y,1/2+z
loop_
_atom_site_type_symbol
_atom_site_label
_atom_site_fract_x
_atom_site_fract_y
_atom_site_fract_z
Si Si1 0.093553 0.289337 0.479637
Si Si2 0.150436 0.464290 0.326540
Si Si3 0.000000 0.627812 0.750000
Si Si4 0.340393 0.442414 0.493524
Si Si5 0.145202 0.826337 0.997286
O O1 0.133177 0.227355 0.376015
O O2 0.238113 0.314652 0.442770
O O3 0.000000 0.279542 0.750000
O O4 0.007664 0.329846 0.417948
O O5 0.207258 0.436108 0.463580
O O6 0.000000 0.500000 0.500000
O O7 0.124780 0.417084 0.194769
O O8 0.284227 0.504800 0.154958
O O9 0.500000 0.449716 0.250000
O O10 0.333846 0.385601 0.616401
O O11 0.000000 0.834430 0.250000
#
# Coordination Sequence:
#
# PCOD9290734 Si02
#       5
#     8   8   4   8   8
#     4  10  22  41  69  94 128 178 222 281 337 392
#     4  12  24  41  65 103 135 178 230 279 337 408
#     4  12  24  40  70 104 136 162 242 278 328 414
#     4  11  23  41  68  93 140 181 220 281 349 408
#     4   9  20  40  64  91 128 178 219 269 346 398
#
# _framework density 22.91431
#
# number of rings (size 3 to 8) (size 9 to 14) (size 15 to 20)
#    0.000    1.333    4.444    0.667    3.111    0.000 
#    0.000   10.000   17.111    0.000    0.000    0.000 
#    0.000    0.000    0.000    0.000    0.000    0.000 
#
# Total GULP energy -100244.053925 kJ/mol
# GULP energy per Si atom -5569.114107 kJ/mol
# Density = 2.286216 g / cm^3
# Si number density = 22.914310 Si / 1000 Ang^3
#
#
#
# Elastic Constant Matrix: (Units=GPa)
#
#
# Indices 1 2 3 4 5 6 
#
# 1 74.8955 21.3466 16.1008 0.0000 -9.3923 0.0000
# 2 21.3466 217.4797 38.7266 0.0000 5.1831 0.0000
# 3 16.1008 38.7266 45.5436 0.0000 -13.5095 0.0000
# 4 0.0000 0.0000 0.0000 34.0800 0.0000 42.7911
# 5 -9.3923 5.1831 -13.5095 0.0000 31.7253 0.0000
# 6 0.0000 0.0000 0.0000 42.7911 0.0000 186.3796
#
#
#
# Elastic Compliance Matrix: (Units=1/GPa)
#
#
# Indices 1 2 3 4 5 6 
#
# 1 0.014747 -0.000882 -0.003578 0.000000 0.002986 0.000000
# 2 -0.000882 0.005783 -0.005681 0.000000 -0.003625 0.000000
# 3 -0.003578 -0.005681 0.032063 0.000000 0.013522 0.000000
# 4 0.000000 0.000000 0.000000 0.041228 0.000000 -0.009466
# 5 0.002986 -0.003625 0.013522 0.000000 0.038755 0.000000
# 6 0.000000 0.000000 0.000000 -0.009466 0.000000 0.007539
#
#
# Mechanical properties :
#
#
# Convention : Reuss Voigt Hill
#
# Bulk Modulus (GPa) = 30.94782 54.47409 42.71095
# Shear Modulus (GPa) = 29.21162 67.88664 48.54913
#
# Velocity S-wave (km/s) = 3.57434 5.44891 4.60796
# Velocity P-wave (km/s) = 5.52899 7.96317 6.85499
#
# Compressibility (1/GPa) = 0.03231246
#
# Stress axis : x y z
#
# Youngs Moduli (GPa) = 67.81105 172.93336 31.18843
#
# Poissons Ratio (x) = 0.15244 0.11159
# Poissons Ratio (y) = 0.05978 0.17717
# Poissons Ratio (z) = 0.24263 0.98236
#
# Static dielectric constant tensor:
#      x y z
#    x 1.864060 0.000000 -0.037680 
#    y 0.000000 1.999700 0.000000 
#    z -0.037680 0.000000 1.884550 
# 
# From -- ./inp_files/31699.got.cif
#   From: 2010.05.17/outbox.cif.g08.bks.cpg/sg15_16_cif.got.tgz:31699.got - 2010.06.03 18:47:42.
