data_PCOD9290133
_publ_section_title
;
Structure prediction by ZEFSAII (Michael W. Deem and Ramdas Pophale) SiO2 
 PCOD9290133
Probable space group: C 2/C
;
_chemical_formula_sum "Si O2"
_cell_formula_units_Z 40
_cell_length_a 13.011067
_cell_length_b 17.476895
_cell_length_c 7.789038
_cell_angle_alpha 90.000000
_cell_angle_beta 81.398834
_cell_angle_gamma 90.000000
_cell_volume 1751.253335
_symmetry_space_group_name_H-M "C 2/C"
_symmetry_group_IT_number 15
_symmetry_cell_setting 'monoclinic'
loop_
_space_group_symop_operation_xyz
x,y,z
-x,y,1/2-z
-x,-y,-z
x,-y,1/2+z
1/2+x,1/2+y,z
1/2-x,1/2+y,1/2-z
1/2-x,1/2-y,-z
1/2+x,1/2-y,1/2+z
loop_
_atom_site_type_symbol
_atom_site_label
_atom_site_fract_x
_atom_site_fract_y
_atom_site_fract_z
Si Si1 0.266660 0.966806 0.692936
Si Si2 0.133664 0.070314 0.516959
Si Si3 0.000000 0.807517 0.250000
Si Si4 0.000000 0.889291 0.750000
Si Si5 0.374375 0.743909 0.451454
Si Si6 0.608337 0.088967 0.652248
O O1 0.234145 0.917129 0.866371
O O2 0.354091 0.931082 0.549824
O O3 0.167409 0.993495 0.606202
O O4 0.306121 0.048624 0.752036
O O5 0.042926 0.064863 0.399928
O O6 0.090679 0.137295 0.649406
O O7 0.057711 0.761021 0.388715
O O8 0.910289 0.830956 0.839163
O O9 0.250000 0.750000 0.500000
O O10 0.397711 0.820449 0.340555
O O11 0.500000 0.056772 0.750000
#
# Coordination Sequence:
#
# PCOD9290133 Si02
#       6
#     8   8   4   4   8   8
#     4  10  23  41  65  94 126 172 215 263 332 375
#     4  10  22  41  62  95 127 164 214 266 320 388
#     4  10  24  43  66  99 128 170 224 262 330 390
#     4  10  22  41  62  93 126 168 218 264 322 384
#     4  11  22  43  66  94 131 171 215 272 322 382
#     4  11  22  43  63  94 128 169 216 267 315 389
#
# _framework density 22.840786000000001
#
# number of rings (size 3 to 8) (size 9 to 14) (size 15 to 20)
#    0.000    1.600    1.000    3.000    0.000    7.200 
#   12.600    6.000    0.000    0.000    0.000    0.000 
#    0.000    0.000    0.000    0.000    0.000    0.000 
#
# Total GULP energy -111573.132189 kJ/mol
# GULP energy per Si atom -5578.656609 kJ/mol
# Density = 2.278880 g / cm^3
# Si number density = 22.840786 Si / 1000 Ang^3
#
#
#
# Elastic Constant Matrix: (Units=GPa)
#
#
# Indices 1 2 3 4 5 6 
#
# 1 115.7082 37.0215 32.3834 0.0000 -21.3516 0.0000
# 2 37.0215 86.2256 27.6507 0.0000 -5.4123 0.0000
# 3 32.3834 27.6507 64.5980 0.0000 -27.0913 0.0000
# 4 0.0000 0.0000 0.0000 34.4925 0.0000 0.3671
# 5 -21.3516 -5.4123 -27.0913 0.0000 47.5743 0.0000
# 6 0.0000 0.0000 0.0000 0.3671 0.0000 41.7283
#
#
#
# Elastic Compliance Matrix: (Units=1/GPa)
#
#
# Indices 1 2 3 4 5 6 
#
# 1 0.011157 -0.003725 -0.002728 0.000000 0.003030 0.000000
# 2 -0.003725 0.014880 -0.005903 0.000000 -0.003340 0.000000
# 3 -0.002728 -0.005903 0.024408 0.000000 0.012004 0.000000
# 4 0.000000 0.000000 0.000000 0.028995 0.000000 -0.000255
# 5 0.003030 -0.003340 0.012004 0.000000 0.028835 0.000000
# 6 0.000000 0.000000 0.000000 -0.000255 0.000000 0.023967
#
#
# Mechanical properties :
#
#
# Convention : Reuss Voigt Hill
#
# Bulk Modulus (GPa) = 38.85874 51.18256 45.02065
# Shear Modulus (GPa) = 30.20567 36.05742 33.13155
#
# Velocity S-wave (km/s) = 3.64049 3.97752 3.81273
# Velocity P-wave (km/s) = 5.89243 6.59934 6.25588
#
# Compressibility (1/GPa) = 0.02573423
#
# Stress axis : x y z
#
# Youngs Moduli (GPa) = 89.63030 67.20327 40.96935
#
# Poissons Ratio (x) = 0.25036 0.11175
# Poissons Ratio (y) = 0.33391 0.24183
# Poissons Ratio (z) = 0.24447 0.39668
#
# Static dielectric constant tensor:
#      x y z
#    x 2.303830 0.000000 -0.177540 
#    y 0.000000 1.821910 0.000000 
#    z -0.177540 0.000000 1.940470 
# 
# From -- ./inp_files/29169.got.cif
#   From: 2010.05.17/outbox.cif.g08.bks.cpg/sg15_15_cif.got.tgz:29169.got - 2010.06.03 18:47:42.
