data_PCOD9290610
_publ_section_title
;
Structure prediction by ZEFSAII (Michael W. Deem and Ramdas Pophale) SiO2 
 PCOD9290610
Probable space group: C 2/C
;
_chemical_formula_sum "Si O2"
_cell_formula_units_Z 40
_cell_length_a 7.695950
_cell_length_b 14.763987
_cell_length_c 15.150642
_cell_angle_alpha 90.000000
_cell_angle_beta 62.605005
_cell_angle_gamma 90.000000
_cell_volume 1528.407842
_symmetry_space_group_name_H-M "C 2/C"
_symmetry_group_IT_number 15
_symmetry_cell_setting 'monoclinic'
loop_
_space_group_symop_operation_xyz
x,y,z
-x,y,1/2-z
-x,-y,-z
x,-y,1/2+z
1/2+x,1/2+y,z
1/2-x,1/2+y,1/2-z
1/2-x,1/2-y,-z
1/2+x,1/2-y,1/2+z
loop_
_atom_site_type_symbol
_atom_site_label
_atom_site_fract_x
_atom_site_fract_y
_atom_site_fract_z
Si Si1 0.000000 0.177857 0.750000
Si Si2 0.294379 0.547902 0.536753
Si Si3 0.387442 0.204434 0.867674
Si Si4 0.127327 0.330411 0.849210
Si Si5 0.332920 0.104386 0.554194
Si Si6 0.000000 0.526388 0.250000
O O1 0.878959 0.245696 0.715831
O O2 0.870409 0.121881 0.848502
O O3 0.500000 0.500000 0.500000
O O4 0.313755 0.654120 0.554508
O O5 0.193658 0.500723 0.473981
O O6 0.148270 0.522626 0.650755
O O7 0.500000 0.186102 0.750000
O O8 0.308198 0.307116 0.871121
O O9 0.524790 0.156131 0.908757
O O10 0.139450 0.415527 0.781995
O O11 0.917414 0.345630 0.946662
#
# Coordination Sequence:
#
# PCOD9290610 Si02
#       6
#     4   8   8   8   8   4
#     4  11  20  38  64  96 130 177 228 285 342 412
#     4  11  24  44  70 100 136 188 231 286 358 426
#     4  12  23  43  69  97 141 177 233 293 350 409
#     4  10  22  41  67  98 133 186 226 287 349 413
#     4  11  24  41  66  98 139 181 231 286 350 417
#     4   9  22  46  72  98 148 181 238 295 346 420
#
# _framework density 26.171025
#
# number of rings (size 3 to 8) (size 9 to 14) (size 15 to 20)
#    0.000    1.200    3.000    3.000    0.000    3.200 
#    3.600    0.000    0.000    0.000    0.000    0.000 
#    0.000    0.000    0.000    0.000    0.000    0.000 
#
# Total GULP energy -111352.699435 kJ/mol
# GULP energy per Si atom -5567.634972 kJ/mol
# Density = 2.611146 g / cm^3
# Si number density = 26.171025 Si / 1000 Ang^3
#
#
#
# Elastic Constant Matrix: (Units=GPa)
#
#
# Indices 1 2 3 4 5 6 
#
# 1 85.9506 5.1992 -5.6798 0.0000 11.6352 0.0000
# 2 5.1992 52.7373 24.9754 0.0000 4.8248 0.0000
# 3 -5.6798 24.9754 158.6866 0.0000 9.3266 0.0000
# 4 0.0000 0.0000 0.0000 44.7370 0.0000 8.1296
# 5 11.6352 4.8248 9.3266 0.0000 43.0381 0.0000
# 6 0.0000 0.0000 0.0000 8.1296 0.0000 32.0803
#
#
#
# Elastic Compliance Matrix: (Units=1/GPa)
#
#
# Indices 1 2 3 4 5 6 
#
# 1 0.012220 -0.001296 0.000838 0.000000 -0.003340 0.000000
# 2 -0.001296 0.020738 -0.003236 0.000000 -0.001273 0.000000
# 3 0.000838 -0.003236 0.006921 0.000000 -0.001364 0.000000
# 4 0.000000 0.000000 0.000000 0.023432 0.000000 -0.005938
# 5 -0.003340 -0.001273 -0.001364 0.000000 0.024576 0.000000
# 6 0.000000 0.000000 0.000000 -0.005938 0.000000 0.032677
#
#
# Mechanical properties :
#
#
# Convention : Reuss Voigt Hill
#
# Bulk Modulus (GPa) = 30.77635 38.48490 34.63063
# Shear Modulus (GPa) = 36.02741 42.16308 39.09525
#
# Velocity S-wave (km/s) = 3.71430 4.01816 3.86921
# Velocity P-wave (km/s) = 5.49363 6.02200 5.76387
#
# Compressibility (1/GPa) = 0.03249248
#
# Stress axis : x y z
#
# Youngs Moduli (GPa) = 81.82983 48.21959 144.48598
#
# Poissons Ratio (x) = 0.06249 -0.12103
# Poissons Ratio (y) = 0.10604 0.46749
# Poissons Ratio (z) = -0.06855 0.15602
#
# Static dielectric constant tensor:
#      x y z
#    x 2.469300 0.000000 0.171770 
#    y 0.000000 2.197040 0.000000 
#    z 0.171770 0.000000 2.021310 
# 
# From -- ./inp_files/134251.got.cif
#   From: 2010.05.17/outbox.cif.g08.bks.cpg/sg15_68_cif.got.tgz:134251.got - 2010.06.03 18:47:42.
