data_PCOD9290913
_publ_section_title
;
Structure prediction by ZEFSAII (Michael W. Deem and Ramdas Pophale) SiO2 
 PCOD9290913
Probable space group: C 2/C
;
_chemical_formula_sum "Si O2"
_cell_formula_units_Z 48
_cell_length_a 17.869841
_cell_length_b 12.746721
_cell_length_c 11.736070
_cell_angle_alpha 90.000000
_cell_angle_beta 125.875092
_cell_angle_gamma 90.000000
_cell_volume 2166.136446
_symmetry_space_group_name_H-M "C 2/C"
_symmetry_group_IT_number 15
_symmetry_cell_setting 'monoclinic'
loop_
_space_group_symop_operation_xyz
x,y,z
-x,y,1/2-z
-x,-y,-z
x,-y,1/2+z
1/2+x,1/2+y,z
1/2-x,1/2+y,1/2-z
1/2-x,1/2-y,-z
1/2+x,1/2-y,1/2+z
loop_
_atom_site_type_symbol
_atom_site_label
_atom_site_fract_x
_atom_site_fract_y
_atom_site_fract_z
Si Si1 0.270546 0.064743 0.378260
Si Si2 0.654782 0.132918 0.826999
Si Si3 0.393778 0.317767 0.862856
Si Si4 0.753285 0.338016 0.323096
Si Si5 0.434136 0.059802 0.352905
Si Si6 0.959554 0.794438 0.331947
O O1 0.299596 0.136842 0.509655
O O2 0.167555 0.089920 0.244197
O O3 0.341785 0.087762 0.340924
O O4 0.280345 0.942012 0.416280
O O5 0.595148 0.231276 0.728168
O O6 0.733262 0.128601 0.798128
O O7 0.595220 0.026775 0.765255
O O8 0.326272 0.257020 0.893894
O O9 0.486714 0.342359 0.011918
O O10 0.649570 0.309963 0.258770
O O11 0.477128 0.168872 0.353585
O O12 0.500000 0.000000 0.500000
O O13 0.000000 0.836307 0.250000
#
# Coordination Sequence:
#
# PCOD9290913 Si02
#       6
#     8   8   8   8   8   8
#     4  11  21  41  68  84 128 174 201 263 315 366
#     4   9  21  38  64  89 122 163 209 253 321 352
#     4  10  22  42  59  93 126 158 216 257 302 383
#     4   9  23  42  58  96 126 160 217 250 307 386
#     4  11  21  38  60  98 128 152 218 269 301 379
#     4  12  25  40  64  93 131 166 203 258 325 375
#
# _framework density 22.159268999999998
#
# number of rings (size 3 to 8) (size 9 to 14) (size 15 to 20)
#    1.000    0.667    3.333    0.500    4.667    4.000 
#    0.000    2.500    0.000    0.000    0.000    0.000 
#    0.000    0.000    0.000    0.000    0.000    0.000 
#
# Total GULP energy -133947.279221 kJ/mol
# GULP energy per Si atom -5581.136634 kJ/mol
# Density = 2.210883 g / cm^3
# Si number density = 22.159269 Si / 1000 Ang^3
#
#
#
# Elastic Constant Matrix: (Units=GPa)
#
#
# Indices 1 2 3 4 5 6 
#
# 1 52.2267 -9.0670 1.3035 0.0000 6.6775 0.0000
# 2 -9.0670 27.1185 -1.6005 0.0000 -6.8923 0.0000
# 3 1.3035 -1.6005 45.0223 0.0000 4.3021 0.0000
# 4 0.0000 0.0000 0.0000 27.5011 0.0000 15.1657
# 5 6.6775 -6.8923 4.3021 0.0000 21.3266 0.0000
# 6 0.0000 0.0000 0.0000 15.1657 0.0000 16.6099
#
#
#
# Elastic Compliance Matrix: (Units=1/GPa)
#
#
# Indices 1 2 3 4 5 6 
#
# 1 0.020739 0.005757 0.000048 0.000000 -0.004643 0.000000
# 2 0.005757 0.041775 0.000205 0.000000 0.011657 0.000000
# 3 0.000048 0.000205 0.022649 0.000000 -0.004518 0.000000
# 4 0.000000 0.000000 0.000000 0.073239 0.000000 -0.066871
# 5 -0.004643 0.011657 -0.004518 0.000000 0.053022 0.000000
# 6 0.000000 0.000000 0.000000 -0.066871 0.000000 0.121262
#
#
# Mechanical properties :
#
#
# Convention : Reuss Voigt Hill
#
# Bulk Modulus (GPa) = 10.29005 11.73772 11.01388
# Shear Modulus (GPa) = 14.16188 22.00293 18.08241
#
# Velocity S-wave (km/s) = 2.53078 3.15452 2.85971
# Velocity P-wave (km/s) = 3.63229 4.31004 3.98560
#
# Compressibility (1/GPa) = 0.09718127
#
# Stress axis : x y z
#
# Youngs Moduli (GPa) = 48.21796 23.93790 44.15251
#
# Poissons Ratio (x) = -0.13781 -0.00211
# Poissons Ratio (y) = -0.27759 -0.00903
# Poissons Ratio (z) = -0.00231 -0.00490
#
# Static dielectric constant tensor:
#      x y z
#    x 1.806250 0.000000 -0.008400 
#    y 0.000000 1.864610 0.000000 
#    z -0.008400 0.000000 1.806570 
# 
# From -- ./inp_files/112999.got.cif
#   From: 2010.05.17/outbox.cif.g08.bks.cpg/sg15_57_cif.got.tgz:112999.got - 2010.06.03 18:47:42.
