data_PCOD9290323
_publ_section_title
;
Structure prediction by ZEFSAII (Michael W. Deem and Ramdas Pophale) SiO2 
 PCOD9290323
Probable space group: C 2/C
;
_chemical_formula_sum "Si O2"
_cell_formula_units_Z 60
_cell_length_a 16.423426
_cell_length_b 15.312657
_cell_length_c 22.951971
_cell_angle_alpha 90.000000
_cell_angle_beta 146.001610
_cell_angle_gamma 90.000000
_cell_volume 3227.586254
_symmetry_space_group_name_H-M "C 2/C"
_symmetry_group_IT_number 15
_symmetry_cell_setting 'monoclinic'
loop_
_space_group_symop_operation_xyz
x,y,z
-x,y,1/2-z
-x,-y,-z
x,-y,1/2+z
1/2+x,1/2+y,z
1/2-x,1/2+y,1/2-z
1/2-x,1/2-y,-z
1/2+x,1/2-y,1/2+z
loop_
_atom_site_type_symbol
_atom_site_label
_atom_site_fract_x
_atom_site_fract_y
_atom_site_fract_z
Si Si1 0.826697 0.192630 0.870090
Si Si2 0.241804 0.764932 0.304776
Si Si3 0.867785 0.895980 0.943657
Si Si4 0.280148 0.646512 0.522216
Si Si5 0.472214 0.975186 0.579375
Si Si6 0.135936 0.542289 0.786420
Si Si7 0.459908 0.133461 0.493397
Si Si8 0.500000 0.327689 0.250000
O O1 0.809763 0.219099 0.791853
O O2 0.684786 0.142408 0.808412
O O3 0.865433 0.279670 0.928917
O O4 0.960531 0.124541 0.957166
O O5 0.302278 0.669390 0.356095
O O6 0.374044 0.832793 0.396556
O O7 0.111314 0.776729 0.273840
O O8 0.777990 0.985274 0.885890
O O9 0.833978 0.871158 0.989868
O O10 0.250000 0.750000 0.500000
O O11 0.141651 0.588322 0.456468
O O12 0.397145 0.625162 0.642112
O O13 0.539651 0.919403 0.566840
O O14 0.585483 0.007069 0.694106
O O15 0.411740 0.064208 0.513813
O O16 0.000000 0.531338 0.750000
#
# Coordination Sequence:
#
# PCOD9290323 Si02
#       8
#     8   8   8   8   8   8   8   4
#     4  11  23  43  62  89 127 166 215 259 311 374
#     4  11  21  35  61  93 122 167 202 257 317 378
#     4  11  23  36  62  93 125 160 204 260 320 370
#     4  12  22  35  60  96 133 162 196 255 319 378
#     4  11  22  40  65  95 125 165 211 258 320 384
#     4  12  25  40  65  91 126 167 215 265 314 375
#     4  10  22  41  65  86 124 170 212 256 312 379
#     4  12  22  32  56  92 134 162 204 242 322 386
#
# _framework density 18.589744
#
# number of rings (size 3 to 8) (size 9 to 14) (size 15 to 20)
#    0.000    0.800    6.667    2.000    2.800    0.000 
#    0.000    0.667    1.467    0.000    0.000    0.000 
#    0.000    0.000    0.000    0.000    0.000    0.000 
#
# Total GULP energy -167233.219357 kJ/mol
# GULP energy per Si atom -5574.440645 kJ/mol
# Density = 1.854743 g / cm^3
# Si number density = 18.589744 Si / 1000 Ang^3
#
#
#
# Elastic Constant Matrix: (Units=GPa)
#
#
# Indices 1 2 3 4 5 6 
#
# 1 43.7358 49.4943 16.3832 -0.0003 0.0526 0.0002
# 2 49.4943 107.9400 42.1727 -0.0004 3.0564 0.0001
# 3 16.3832 42.1727 92.6813 -0.0006 -12.6398 0.0003
# 4 -0.0003 -0.0004 -0.0006 60.1942 0.0000 -24.4752
# 5 0.0526 3.0564 -12.6398 0.0000 14.0240 0.0001
# 6 0.0002 0.0001 0.0003 -24.4752 0.0001 57.0144
#
#
#
# Elastic Compliance Matrix: (Units=1/GPa)
#
#
# Indices 1 2 3 4 5 6 
#
# 1 0.048507 -0.023771 0.003334 0.000000 0.008003 0.000000
# 2 -0.023771 0.023779 -0.008337 0.000000 -0.012608 0.000000
# 3 0.003334 -0.008337 0.016236 0.000000 0.016438 0.000000
# 4 0.000000 0.000000 0.000000 0.020126 0.000000 0.008640
# 5 0.008003 -0.012608 0.016438 0.000000 0.088840 0.000000
# 6 0.000000 0.000000 0.000000 0.008640 0.000000 0.021248
#
#
# Mechanical properties :
#
#
# Convention : Reuss Voigt Hill
#
# Bulk Modulus (GPa) = 32.28758 51.16193 41.72476
# Shear Modulus (GPa) = 17.44528 35.33366 26.38947
#
# Velocity S-wave (km/s) = 3.06671 4.36444 3.77181
# Velocity P-wave (km/s) = 5.47228 7.27868 6.43914
#
# Compressibility (1/GPa) = 0.03097166
#
# Stress axis : x y z
#
# Youngs Moduli (GPa) = 20.61541 42.05410 61.59149
#
# Poissons Ratio (x) = 0.99968 -0.20532
# Poissons Ratio (y) = 0.49006 0.51352
# Poissons Ratio (z) = -0.06872 0.35063
#
# Static dielectric constant tensor:
#      x y z
#    x 1.614840 -0.000010 0.018430 
#    y -0.000010 4.465150 0.000020 
#    z 0.018430 0.000020 1.659010 
# 
# From -- ./inp_files/105390.got.cif
#   From: 2010.05.17/outbox.cif.g08.bks.cpg/sg15_53_cif.got.tgz:105390.got - 2010.06.03 18:47:42.
