data_PCOD9290502
_publ_section_title
;
Structure prediction by ZEFSAII (Michael W. Deem and Ramdas Pophale) SiO2 
 PCOD9290502
Probable space group: C 2/C
;
_chemical_formula_sum "Si O2"
_cell_formula_units_Z 52
_cell_length_a 9.168064
_cell_length_b 16.117767
_cell_length_c 18.384521
_cell_angle_alpha 90.000000
_cell_angle_beta 68.612339
_cell_angle_gamma 90.000000
_cell_volume 2529.572828
_symmetry_space_group_name_H-M "C 2/C"
_symmetry_group_IT_number 15
_symmetry_cell_setting 'monoclinic'
loop_
_space_group_symop_operation_xyz
x,y,z
-x,y,1/2-z
-x,-y,-z
x,-y,1/2+z
1/2+x,1/2+y,z
1/2-x,1/2+y,1/2-z
1/2-x,1/2-y,-z
1/2+x,1/2-y,1/2+z
loop_
_atom_site_type_symbol
_atom_site_label
_atom_site_fract_x
_atom_site_fract_y
_atom_site_fract_z
Si Si1 0.441693 0.441064 0.572998
Si Si2 0.596952 0.549026 0.664875
Si Si3 0.763447 0.706965 0.575810
Si Si4 0.417398 0.258001 0.928238
Si Si5 0.000000 0.215513 0.250000
Si Si6 0.370580 0.128790 0.354139
Si Si7 0.791610 0.408377 0.707084
O O1 0.500000 0.500000 0.500000
O O2 0.477036 0.493187 0.639726
O O3 0.530673 0.353895 0.568607
O O4 0.267480 0.416993 0.579063
O O5 0.500000 0.585807 0.750000
O O6 0.676112 0.620952 0.603791
O O7 0.726218 0.487317 0.676166
O O8 0.750000 0.750000 0.500000
O O9 0.680632 0.775349 0.643430
O O10 0.947423 0.702576 0.559789
O O11 0.444112 0.241135 0.836121
O O12 0.250000 0.250000 0.000000
O O13 0.849132 0.157482 0.263895
O O14 0.542944 0.122523 0.355871
O O15 0.344150 0.084161 0.281195
#
# Coordination Sequence:
#
# PCOD9290502 Si02
#       7
#     8   8   8   8   4   8   8
#     4  11  22  44  65  95 139 175 216 286 344 405
#     4  12  22  41  70 100 131 175 232 278 340 416
#     4  11  26  44  62 100 138 175 229 279 342 416
#     4  11  25  46  69  97 135 183 230 276 351 416
#     4  12  20  46  72  96 138 180 228 290 358 406
#     4  10  22  41  66  96 133 173 227 274 348 408
#     4  11  20  40  71  96 126 177 230 279 343 410
#
# _framework density 20.556830999999999
#
# number of rings (size 3 to 8) (size 9 to 14) (size 15 to 20)
#    0.000    0.923    6.923    1.846    4.308    1.231 
#    2.769    3.846    0.000    0.000    0.000    0.000 
#    0.000    0.000    0.000    0.000    0.000    0.000 
#
# Total GULP energy -144804.248757 kJ/mol
# GULP energy per Si atom -5569.394183 kJ/mol
# Density = 2.051004 g / cm^3
# Si number density = 20.556831 Si / 1000 Ang^3
#
#
#
# Elastic Constant Matrix: (Units=GPa)
#
#
# Indices 1 2 3 4 5 6 
#
# 1 149.6448 27.6915 46.3685 0.0000 -31.3350 0.0000
# 2 27.6915 61.4448 24.2532 0.0000 -11.4948 0.0000
# 3 46.3685 24.2532 110.0282 0.0000 -4.5961 0.0000
# 4 0.0000 0.0000 0.0000 34.5447 0.0000 -1.5358
# 5 -31.3350 -11.4948 -4.5961 0.0000 40.4788 0.0000
# 6 0.0000 0.0000 0.0000 -1.5358 0.0000 20.6020
#
#
#
# Elastic Compliance Matrix: (Units=1/GPa)
#
#
# Indices 1 2 3 4 5 6 
#
# 1 0.009359 -0.001722 -0.003298 0.000000 0.006382 0.000000
# 2 -0.001722 0.019054 -0.003319 0.000000 0.003700 0.000000
# 3 -0.003298 -0.003319 0.011117 0.000000 -0.002233 0.000000
# 4 0.000000 0.000000 0.000000 0.029044 0.000000 0.002165
# 5 0.006382 0.003700 -0.002233 0.000000 0.030442 0.000000
# 6 0.000000 0.000000 0.000000 0.002165 0.000000 0.048700
#
#
# Mechanical properties :
#
#
# Convention : Reuss Voigt Hill
#
# Bulk Modulus (GPa) = 43.76375 57.52712 50.64543
# Shear Modulus (GPa) = 29.06765 33.97875 31.52320
#
# Velocity S-wave (km/s) = 3.76442 4.07002 3.92020
# Velocity P-wave (km/s) = 6.34270 7.08039 6.72167
#
# Compressibility (1/GPa) = 0.02284996
#
# Stress axis : x y z
#
# Youngs Moduli (GPa) = 106.84421 52.48374 89.95344
#
# Poissons Ratio (x) = 0.09040 0.29667
# Poissons Ratio (y) = 0.18403 0.29860
# Poissons Ratio (z) = 0.35238 0.17422
#
# Static dielectric constant tensor:
#      x y z
#    x 1.789840 0.000000 -0.068150 
#    y 0.000000 1.716460 0.000000 
#    z -0.068150 0.000000 1.915840 
# 
# From -- ./inp_files/190308.got.cif
#   From: 2010.05.17/outbox.cif.g08.bks.cpg/sg15_96_cif.got.tgz:190308.got - 2010.06.03 18:47:42.
