data_PCOD9290051
_publ_section_title
;
Structure prediction by ZEFSAII (Michael W. Deem and Ramdas Pophale) SiO2 
 PCOD9290051
Probable space group: C 2/C
;
_chemical_formula_sum "Si O2"
_cell_formula_units_Z 48
_cell_length_a 19.625849
_cell_length_b 7.529851
_cell_length_c 18.218193
_cell_angle_alpha 90.000000
_cell_angle_beta 116.021510
_cell_angle_gamma 90.000000
_cell_volume 2419.361481
_symmetry_space_group_name_H-M "C 2/C"
_symmetry_group_IT_number 15
_symmetry_cell_setting 'monoclinic'
loop_
_space_group_symop_operation_xyz
x,y,z
-x,y,1/2-z
-x,-y,-z
x,-y,1/2+z
1/2+x,1/2+y,z
1/2-x,1/2+y,1/2-z
1/2-x,1/2-y,-z
1/2+x,1/2-y,1/2+z
loop_
_atom_site_type_symbol
_atom_site_label
_atom_site_fract_x
_atom_site_fract_y
_atom_site_fract_z
Si Si1 0.614914 0.992990 0.778822
Si Si2 0.582457 0.402444 0.252381
Si Si3 0.545628 0.387011 0.080386
Si Si4 0.810318 0.176974 0.119570
Si Si5 0.981042 0.523175 0.115109
Si Si6 0.854713 0.304305 0.979364
O O1 0.627459 0.784929 0.766268
O O2 0.569513 0.975854 0.834760
O O3 0.559987 0.053304 0.685607
O O4 0.678197 0.138618 0.829179
O O5 0.500000 0.370779 0.250000
O O6 0.567034 0.484698 0.165282
O O7 0.630611 0.536889 0.322164
O O8 0.499854 0.214940 0.089472
O O9 0.620228 0.323840 0.073532
O O10 0.500000 0.500000 0.000000
O O11 0.724293 0.106648 0.081368
O O12 0.833274 0.210715 0.045846
O O13 0.929653 0.418670 0.032734
#
# Coordination Sequence:
#
# PCOD9290051 Si02
#       6
#     8   8   8   8   8   8
#     4   9  18  37  64  87 111 152 207 245 283 357
#     4  11  21  39  64  87 113 156 209 243 290 367
#     4  11  22  37  59  94 118 152 206 248 295 356
#     4  10  23  40  63  87 120 164 196 243 314 361
#     4   9  18  37  61  85 116 153 196 247 295 342
#     4  10  22  41  57  91 125 151 198 252 308 358
#
# _framework density 19.839946000000001
#
# number of rings (size 3 to 8) (size 9 to 14) (size 15 to 20)
#    0.000    2.000    3.333    1.500    7.000    0.000 
#    9.000    2.500    0.000    0.000    0.000    0.000 
#    0.000    0.000    0.000    0.000    0.000    0.000 
#
# Total GULP energy -133642.624464 kJ/mol
# GULP energy per Si atom -5568.442686 kJ/mol
# Density = 1.979479 g / cm^3
# Si number density = 19.839946 Si / 1000 Ang^3
#
#
#
# Elastic Constant Matrix: (Units=GPa)
#
#
# Indices 1 2 3 4 5 6 
#
# 1 50.8562 14.5016 27.5947 0.0000 11.1139 0.0000
# 2 14.5016 47.9864 26.1364 0.0000 4.1500 0.0000
# 3 27.5947 26.1364 107.4297 0.0000 6.2687 0.0000
# 4 0.0000 0.0000 0.0000 24.9006 0.0000 1.3867
# 5 11.1139 4.1500 6.2687 0.0000 12.9583 0.0000
# 6 0.0000 0.0000 0.0000 1.3867 0.0000 4.8891
#
#
#
# Elastic Compliance Matrix: (Units=1/GPa)
#
#
# Indices 1 2 3 4 5 6 
#
# 1 0.027953 -0.003951 -0.005036 0.000000 -0.020273 0.000000
# 2 -0.003951 0.024901 -0.004914 0.000000 -0.002208 0.000000
# 3 -0.005036 -0.004914 0.011786 0.000000 0.000191 0.000000
# 4 0.000000 0.000000 0.000000 0.040804 0.000000 -0.011573
# 5 -0.020273 -0.002208 0.000191 0.000000 0.095173 0.000000
# 6 0.000000 0.000000 0.000000 -0.011573 0.000000 0.207820
#
#
# Mechanical properties :
#
#
# Convention : Reuss Voigt Hill
#
# Bulk Modulus (GPa) = 27.14647 38.08198 32.61423
# Shear Modulus (GPa) = 11.14780 17.75222 14.45001
#
# Velocity S-wave (km/s) = 2.37299 2.99452 2.70169
# Velocity P-wave (km/s) = 4.60657 5.58502 5.11923
#
# Compressibility (1/GPa) = 0.03683720
#
# Stress axis : x y z
#
# Youngs Moduli (GPa) = 35.77467 40.15905 84.84380
#
# Poissons Ratio (x) = 0.15868 0.42725
# Poissons Ratio (y) = 0.14136 0.41695
# Poissons Ratio (z) = 0.18015 0.19735
#
# Static dielectric constant tensor:
#      x y z
#    x 1.710440 0.000000 0.017140 
#    y 0.000000 1.742980 0.000000 
#    z 0.017140 0.000000 1.734590 
# 
# From -- ./inp_files/213561.got.cif
#   From: 2010.05.17/outbox.cif.g08.bks.cpg/sg15_107_cif.got.tgz:213561.got - 2010.06.03 18:47:42.
