data_PCOD9290661
_publ_section_title
;
Structure prediction by ZEFSAII (Michael W. Deem and Ramdas Pophale) SiO2 
 PCOD9290661
Probable space group: C 2/C
;
_chemical_formula_sum "Si O2"
_cell_formula_units_Z 48
_cell_length_a 10.713246
_cell_length_b 16.838447
_cell_length_c 11.191034
_cell_angle_alpha 90.000000
_cell_angle_beta 75.645304
_cell_angle_gamma 90.000000
_cell_volume 1955.772190
_symmetry_space_group_name_H-M "C 2/C"
_symmetry_group_IT_number 15
_symmetry_cell_setting 'monoclinic'
loop_
_space_group_symop_operation_xyz
x,y,z
-x,y,1/2-z
-x,-y,-z
x,-y,1/2+z
1/2+x,1/2+y,z
1/2-x,1/2+y,1/2-z
1/2-x,1/2-y,-z
1/2+x,1/2-y,1/2+z
loop_
_atom_site_type_symbol
_atom_site_label
_atom_site_fract_x
_atom_site_fract_y
_atom_site_fract_z
Si Si1 0.793138 0.045098 0.601287
Si Si2 0.193798 0.784148 0.829050
Si Si3 0.932004 0.889802 0.465268
Si Si4 0.211104 0.672186 0.435467
Si Si5 0.202328 0.603357 0.852607
Si Si6 0.444803 0.137758 0.385695
O O1 0.723812 0.092555 0.511034
O O2 0.706752 0.043875 0.740683
O O3 0.920097 0.097550 0.595403
O O4 0.859795 0.962417 0.551509
O O5 0.198448 0.829786 0.702898
O O6 0.169985 0.691485 0.813495
O O7 0.328143 0.805007 0.867838
O O8 0.086425 0.816906 0.942252
O O9 0.846515 0.886002 0.368308
O O10 0.250000 0.750000 0.500000
O O11 0.068157 0.679115 0.415300
O O12 0.115930 0.586916 0.990751
O O13 0.500000 0.099608 0.250000
#
# Coordination Sequence:
#
# PCOD9290661 Si02
#       6
#     8   8   8   8   8   8
#     4  11  25  41  63 102 137 175 212 278 340 394
#     4  10  22  41  68  94 127 177 226 271 323 396
#     4  10  24  43  67  94 136 176 222 267 332 403
#     4  11  23  39  62 100 137 168 215 277 329 387
#     4  11  22  41  69  94 128 178 228 264 326 403
#     4   9  21  40  65  91 127 169 222 269 328 379
#
# _framework density 24.542736000000001
#
# number of rings (size 3 to 8) (size 9 to 14) (size 15 to 20)
#    0.000    1.667    1.667    2.500    7.000    2.667 
#    0.000    3.333    7.333    0.000    0.000    0.000 
#    0.000    0.000    0.000    0.000    0.000    0.000 
#
# Total GULP energy -134176.980874 kJ/mol
# GULP energy per Si atom -5590.707536 kJ/mol
# Density = 2.448688 g / cm^3
# Si number density = 24.542736 Si / 1000 Ang^3
#
#
#
# Elastic Constant Matrix: (Units=GPa)
#
#
# Indices 1 2 3 4 5 6 
#
# 1 51.7524 15.0114 31.5772 0.0000 -4.3034 0.0000
# 2 15.0114 60.8080 35.8910 0.0000 -3.4707 0.0000
# 3 31.5772 35.8910 202.4480 0.0000 -3.2748 0.0000
# 4 0.0000 0.0000 0.0000 -2.6912 0.0000 -6.3184
# 5 -4.3034 -3.4707 -3.2748 0.0000 31.3790 0.0000
# 6 0.0000 0.0000 0.0000 -6.3184 0.0000 34.2990
#
#
#
# Elastic Compliance Matrix: (Units=1/GPa)
#
#
# Indices 1 2 3 4 5 6 
#
# 1 0.022296 -0.003730 -0.002778 0.000000 0.002355 0.000000
# 2 -0.003730 0.019081 -0.002780 0.000000 0.001309 0.000000
# 3 -0.002778 -0.002780 0.005864 0.000000 -0.000076 0.000000
# 4 0.000000 0.000000 0.000000 -0.259394 0.000000 -0.047784
# 5 0.002355 0.001309 -0.000076 0.000000 0.032328 0.000000
# 6 0.000000 0.000000 0.000000 -0.047784 0.000000 0.020353
#
#
# Mechanical properties :
#
#
# Convention : Reuss Voigt Hill
#
# Bulk Modulus (GPa) = 34.88493 53.32974 44.10734
# Shear Modulus (GPa) = -38.06900 28.09928 -4.98486
#
# Velocity S-wave (km/s) = -3.94271 3.38733 -1.42671
# Velocity P-wave (km/s) = 2.54594 6.08894 3.91109
#
# Compressibility (1/GPa) = 0.02866567
#
# Stress axis : x y z
#
# Youngs Moduli (GPa) = 44.85173 52.40689 170.51773
#
# Poissons Ratio (x) = 0.19547 0.47375
# Poissons Ratio (y) = 0.16729 0.47403
# Poissons Ratio (z) = 0.12461 0.14569
#
# Static dielectric constant tensor:
#      x y z
#    x 1.937830 0.000000 -0.003510 
#    y 0.000000 1.966720 0.000000 
#    z -0.003510 0.000000 1.960020 
# 
# From -- ./inp_files/87806.got.cif
#   From: 2010.05.17/outbox.cif.g08.bks.cpg/sg15_44_cif.got.tgz:87806.got - 2010.06.03 18:47:42.
