data_PCOD9290760
_publ_section_title
;
Structure prediction by ZEFSAII (Michael W. Deem and Ramdas Pophale) SiO2 
 PCOD9290760
Probable space group: C 2/C
;
_chemical_formula_sum "Si O2"
_cell_formula_units_Z 44
_cell_length_a 6.609141
_cell_length_b 26.596008
_cell_length_c 11.863900
_cell_angle_alpha 90.000000
_cell_angle_beta 108.004430
_cell_angle_gamma 90.000000
_cell_volume 1983.281511
_symmetry_space_group_name_H-M "C 2/C"
_symmetry_group_IT_number 15
_symmetry_cell_setting 'monoclinic'
loop_
_space_group_symop_operation_xyz
x,y,z
-x,y,1/2-z
-x,-y,-z
x,-y,1/2+z
1/2+x,1/2+y,z
1/2-x,1/2+y,1/2-z
1/2-x,1/2-y,-z
1/2+x,1/2-y,1/2+z
loop_
_atom_site_type_symbol
_atom_site_label
_atom_site_fract_x
_atom_site_fract_y
_atom_site_fract_z
Si Si1 0.394825 0.439937 0.570984
Si Si2 0.560727 0.377354 0.143708
Si Si3 0.828743 0.514600 0.126901
Si Si4 0.184861 0.299073 0.056179
Si Si5 0.050706 0.619154 0.131252
Si Si6 0.000000 0.678849 0.750000
O O1 0.468056 0.408817 0.473571
O O2 0.222727 0.477627 0.484736
O O3 0.599983 0.471953 0.643629
O O4 0.284462 0.400951 0.637445
O O5 0.500000 0.405201 0.250000
O O6 0.398824 0.330781 0.113612
O O7 0.800667 0.356949 0.187595
O O8 0.000000 0.496126 0.250000
O O9 0.917265 0.567685 0.098889
O O10 0.072147 0.288627 0.155767
O O11 0.250000 0.250000 0.000000
O O12 0.028376 0.336813 0.962930
O O13 0.000000 0.635823 0.250000
#
# Coordination Sequence:
#
# PCOD9290760 Si02
#       6
#     8   8   8   8   8   4
#     4  11  22  45  68  96 140 185 226 281 346 407
#     4  10  22  41  69  98 131 175 228 281 336 403
#     4  10  24  42  67 102 135 180 234 283 339 412
#     4  11  24  45  69 102 135 173 232 285 341 415
#     4  11  24  44  66  97 142 180 221 281 343 410
#     4  10  22  44  70  98 134 174 224 280 346 402
#
# _framework density 22.185455000000001
#
# number of rings (size 3 to 8) (size 9 to 14) (size 15 to 20)
#    0.000    1.455    3.636    0.545    1.273    5.818 
#   16.364    0.000    0.000    0.000    0.000    0.000 
#    0.000    0.000    0.000    0.000    0.000    0.000 
#
# Total GULP energy -122925.053535 kJ/mol
# GULP energy per Si atom -5587.502433 kJ/mol
# Density = 2.213496 g / cm^3
# Si number density = 22.185455 Si / 1000 Ang^3
#
#
#
# Elastic Constant Matrix: (Units=GPa)
#
#
# Indices 1 2 3 4 5 6 
#
# 1 132.2766 10.3528 61.5592 0.0000 2.9314 0.0000
# 2 10.3528 49.5048 27.5630 0.0000 -7.2666 0.0000
# 3 61.5592 27.5630 111.1931 0.0000 -12.3780 0.0000
# 4 0.0000 0.0000 0.0000 23.8791 0.0000 -14.5008
# 5 2.9314 -7.2666 -12.3780 0.0000 51.0572 0.0000
# 6 0.0000 0.0000 0.0000 -14.5008 0.0000 19.0635
#
#
#
# Elastic Compliance Matrix: (Units=1/GPa)
#
#
# Indices 1 2 3 4 5 6 
#
# 1 0.010430 0.001006 -0.006243 0.000000 -0.001969 0.000000
# 2 0.001006 0.023728 -0.006237 0.000000 0.001807 0.000000
# 3 -0.006243 -0.006237 0.014323 0.000000 0.002943 0.000000
# 4 0.000000 0.000000 0.000000 0.077827 0.000000 0.059200
# 5 -0.001969 0.001807 0.002943 0.000000 0.020670 0.000000
# 6 0.000000 0.000000 0.000000 0.059200 0.000000 0.097487
#
#
# Mechanical properties :
#
#
# Convention : Reuss Voigt Hill
#
# Bulk Modulus (GPa) = 39.16632 54.65827 46.91230
# Shear Modulus (GPa) = 18.12087 31.69993 24.91040
#
# Velocity S-wave (km/s) = 2.86106 3.78413 3.35449
# Velocity P-wave (km/s) = 5.34851 6.61690 6.01622
#
# Compressibility (1/GPa) = 0.02553214
#
# Stress axis : x y z
#
# Youngs Moduli (GPa) = 95.87559 42.14469 69.81612
#
# Poissons Ratio (x) = -0.04238 0.43585
# Poissons Ratio (y) = -0.09641 0.43546
# Poissons Ratio (z) = 0.59854 0.26287
#
# Static dielectric constant tensor:
#      x y z
#    x 1.879450 0.000000 0.001570 
#    y 0.000000 1.762690 0.000000 
#    z 0.001570 0.000000 1.923850 
# 
# From -- ./inp_files/73862.got.cif
#   From: 2010.05.17/outbox.cif.g08.bks.cpg/sg15_37_cif.got.tgz:73862.got - 2010.06.03 18:47:42.
