data_PCOD9290259
_publ_section_title
;
Structure prediction by ZEFSAII (Michael W. Deem and Ramdas Pophale) SiO2 
 PCOD9290259
Probable space group: C 2/C
;
_chemical_formula_sum "Si O2"
_cell_formula_units_Z 64
_cell_length_a 5.166901
_cell_length_b 18.017935
_cell_length_c 31.593512
_cell_angle_alpha 90.000000
_cell_angle_beta 78.631530
_cell_angle_gamma 90.000000
_cell_volume 2883.549527
_symmetry_space_group_name_H-M "C 2/C"
_symmetry_group_IT_number 15
_symmetry_cell_setting 'monoclinic'
loop_
_space_group_symop_operation_xyz
x,y,z
-x,y,1/2-z
-x,-y,-z
x,-y,1/2+z
1/2+x,1/2+y,z
1/2-x,1/2+y,1/2-z
1/2-x,1/2-y,-z
1/2+x,1/2-y,1/2+z
loop_
_atom_site_type_symbol
_atom_site_label
_atom_site_fract_x
_atom_site_fract_y
_atom_site_fract_z
Si Si1 0.127728 0.963554 0.437444
Si Si2 0.089411 0.187083 0.661559
Si Si3 0.308505 0.825622 0.473153
Si Si4 0.203378 0.534461 0.880279
Si Si5 0.664384 0.274837 0.913872
Si Si6 0.872034 0.387838 0.961584
Si Si7 0.070820 0.246363 0.199894
Si Si8 0.798826 0.875183 0.870764
O O1 0.101798 0.884706 0.461821
O O2 0.390031 0.958282 0.398957
O O3 0.861100 0.973941 0.419782
O O4 0.206203 0.036583 0.462112
O O5 0.182801 0.105486 0.646829
O O6 0.096186 0.235451 0.617752
O O7 0.310643 0.225129 0.683970
O O8 0.800836 0.191983 0.690624
O O9 0.250000 0.750000 0.500000
O O10 0.462882 0.792524 0.427768
O O11 0.475801 0.877115 0.499821
O O12 0.290707 0.458980 0.854549
O O13 0.543737 0.341542 0.889761
O O14 0.714274 0.312330 0.957330
O O15 0.071713 0.380241 0.914518
O O16 0.197714 0.177970 0.169875
O O17 0.000000 0.227349 0.250000
#
# Coordination Sequence:
#
# PCOD9290259 Si02
#       8
#     8   8   8   8   8   8   8   8
#     4  11  25  42  60  91 132 175 220 272 323 370
#     4  11  23  41  71  96 134 165 214 258 320 386
#     4  12  25  38  61  92 130 176 228 277 323 368
#     4  11  23  42  68  94 127 173 217 260 322 385
#     4  11  21  40  60  94 122 175 215 273 308 386
#     4  11  22  41  59  89 130 174 217 272 323 383
#     4  11  24  44  71 103 132 162 204 263 325 389
#     4  10  22  41  64  93 126 168 213 259 321 390
#
# _framework density 22.194869000000001
#
# number of rings (size 3 to 8) (size 9 to 14) (size 15 to 20)
#    0.000    1.000    5.000    1.875    3.500    1.000 
#    0.000    3.750    0.000    0.000    0.000    0.000 
#    0.000    0.000    0.000    0.000    0.000    0.000 
#
# Total GULP energy -178761.334600 kJ/mol
# GULP energy per Si atom -5586.291706 kJ/mol
# Density = 2.214435 g / cm^3
# Si number density = 22.194869 Si / 1000 Ang^3
#
#
#
# Elastic Constant Matrix: (Units=GPa)
#
#
# Indices 1 2 3 4 5 6 
#
# 1 53.6191 -10.6243 21.1837 0.0000 -7.1299 0.0000
# 2 -10.6243 87.7158 30.8885 0.0000 1.7612 0.0000
# 3 21.1837 30.8885 55.6811 0.0000 -6.2442 0.0000
# 4 0.0000 0.0000 0.0000 18.7681 0.0000 1.7744
# 5 -7.1299 1.7612 -6.2442 0.0000 27.5690 0.0000
# 6 0.0000 0.0000 0.0000 1.7744 0.0000 28.8808
#
#
#
# Elastic Compliance Matrix: (Units=1/GPa)
#
#
# Indices 1 2 3 4 5 6 
#
# 1 0.026244 0.008093 -0.014130 0.000000 0.003070 0.000000
# 2 0.008093 0.016871 -0.012645 0.000000 -0.001849 0.000000
# 3 -0.014130 -0.012645 0.030813 0.000000 0.004133 0.000000
# 4 0.000000 0.000000 0.000000 0.053593 0.000000 -0.003293
# 5 0.003070 -0.001849 0.004133 0.000000 0.038121 0.000000
# 6 0.000000 0.000000 0.000000 -0.003293 0.000000 0.034827
#
#
# Mechanical properties :
#
#
# Convention : Reuss Voigt Hill
#
# Bulk Modulus (GPa) = 27.34918 31.10130 29.22524
# Shear Modulus (GPa) = 19.99834 25.41480 22.70657
#
# Velocity S-wave (km/s) = 3.00498 3.38757 3.20199
# Velocity P-wave (km/s) = 4.93851 5.41702 5.18329
#
# Compressibility (1/GPa) = 0.03656417
#
# Stress axis : x y z
#
# Youngs Moduli (GPa) = 38.10381 59.27458 32.45376
#
# Poissons Ratio (x) = -0.47969 0.45856
# Poissons Ratio (y) = -0.30836 0.41038
# Poissons Ratio (z) = 0.53839 0.74953
#
# Static dielectric constant tensor:
#      x y z
#    x 1.971750 0.000000 -0.039320 
#    y 0.000000 1.851320 0.000000 
#    z -0.039320 0.000000 1.813900 
# 
# From -- ./inp_files/305806.got.cif
#   From: 2010.05.17/outbox.cif.g08.bks.cpg/sg15_153_cif.got.tgz:305806.got - 2010.06.03 18:47:42.
