data_PCOD9290868
_publ_section_title
;
Structure prediction by ZEFSAII (Michael W. Deem and Ramdas Pophale) SiO2 
 PCOD9290868
Probable space group: C 2/C
;
_chemical_formula_sum "Si O2"
_cell_formula_units_Z 56
_cell_length_a 8.210604
_cell_length_b 13.493945
_cell_length_c 24.998471
_cell_angle_alpha 90.000000
_cell_angle_beta 121.496385
_cell_angle_gamma 90.000000
_cell_volume 2361.620258
_symmetry_space_group_name_H-M "C 2/C"
_symmetry_group_IT_number 15
_symmetry_cell_setting 'monoclinic'
loop_
_space_group_symop_operation_xyz
x,y,z
-x,y,1/2-z
-x,-y,-z
x,-y,1/2+z
1/2+x,1/2+y,z
1/2-x,1/2+y,1/2-z
1/2-x,1/2-y,-z
1/2+x,1/2-y,1/2+z
loop_
_atom_site_type_symbol
_atom_site_label
_atom_site_fract_x
_atom_site_fract_y
_atom_site_fract_z
Si Si1 0.637480 0.376794 0.733016
Si Si2 0.713850 0.476809 0.639934
Si Si3 0.559425 0.829254 0.321019
Si Si4 0.892280 0.081085 0.016898
Si Si5 0.439210 0.120699 0.368703
Si Si6 0.951355 0.582667 0.913206
Si Si7 0.555514 0.222248 0.493799
O O1 0.500000 0.436557 0.750000
O O2 0.736047 0.440815 0.704279
O O3 0.500374 0.287450 0.689899
O O4 0.811563 0.336034 0.799400
O O5 0.498407 0.441685 0.590183
O O6 0.757169 0.594568 0.640942
O O7 0.860706 0.416246 0.625413
O O8 0.500000 0.858342 0.250000
O O9 0.453202 0.859264 0.357732
O O10 0.668926 0.064633 0.971828
O O11 0.944815 0.190876 0.005605
O O12 0.000000 0.000000 0.000000
O O13 0.441409 0.188192 0.421686
O O14 0.359414 0.019940 0.380959
O O15 0.877192 0.642939 0.950522
O O16 0.750000 0.250000 0.500000
#
# Coordination Sequence:
#
# PCOD9290868 Si02
#       7
#     8   8   8   8   8   8   8
#     4  11  26  43  71 105 136 191 258 300 365 449
#     4  11  22  46  72 100 151 190 240 309 377 451
#     4  10  22  41  72  98 135 191 240 294 358 440
#     4  12  23  42  72 106 139 191 246 294 383 451
#     4  11  24  45  70 101 146 191 241 310 375 438
#     4  11  24  45  73 104 145 196 240 305 381 452
#     4  12  25  43  68 109 147 189 242 314 372 445
#
# _framework density 23.712534000000002
#
# number of rings (size 3 to 8) (size 9 to 14) (size 15 to 20)
#    0.000    0.857    4.286    3.857    6.000    0.000 
#    0.000    0.000    0.000    0.000    0.000    0.000 
#    0.000    0.000    0.000    0.000    0.000    0.000 
#
# Total GULP energy -155999.043570 kJ/mol
# GULP energy per Si atom -5571.394413 kJ/mol
# Density = 2.365856 g / cm^3
# Si number density = 23.712534 Si / 1000 Ang^3
#
#
#
# Elastic Constant Matrix: (Units=GPa)
#
#
# Indices 1 2 3 4 5 6 
#
# 1 76.7005 33.7323 22.7167 0.0000 -16.2900 0.0000
# 2 33.7323 108.7977 26.8639 0.0000 -11.1874 0.0000
# 3 22.7167 26.8639 106.4142 0.0000 -18.7157 0.0000
# 4 0.0000 0.0000 0.0000 49.2887 0.0000 -5.0256
# 5 -16.2900 -11.1874 -18.7157 0.0000 38.6311 0.0000
# 6 0.0000 0.0000 0.0000 -5.0256 0.0000 17.0886
#
#
#
# Elastic Compliance Matrix: (Units=1/GPa)
#
#
# Indices 1 2 3 4 5 6 
#
# 1 0.016394 -0.004186 -0.001574 0.000000 0.004938 0.000000
# 2 -0.004186 0.010986 -0.001783 0.000000 0.000553 0.000000
# 3 -0.001574 -0.001783 0.010905 0.000000 0.004103 0.000000
# 4 0.000000 0.000000 0.000000 0.020916 0.000000 0.006151
# 5 0.004938 0.000553 0.004103 0.000000 0.030116 0.000000
# 6 0.000000 0.000000 0.000000 0.006151 0.000000 0.060328
#
#
# Mechanical properties :
#
#
# Convention : Reuss Voigt Hill
#
# Bulk Modulus (GPa) = 43.10624 50.94869 47.02747
# Shear Modulus (GPa) = 28.99156 34.90831 31.94993
#
# Velocity S-wave (km/s) = 3.50040 3.84102 3.67466
# Velocity P-wave (km/s) = 5.87837 6.41902 6.15463
#
# Compressibility (1/GPa) = 0.02319850
#
# Stress axis : x y z
#
# Youngs Moduli (GPa) = 60.99834 91.02234 91.70134
#
# Poissons Ratio (x) = 0.38105 0.14437
# Poissons Ratio (y) = 0.25536 0.16346
# Poissons Ratio (z) = 0.09604 0.16225
#
# Static dielectric constant tensor:
#      x y z
#    x 1.929370 0.000000 0.194310 
#    y 0.000000 2.201020 0.000000 
#    z 0.194310 0.000000 0.524310 
# 
# From -- ./inp_files/264825.got.cif
#   From: 2010.05.17/outbox.cif.g08.bks.cpg/sg15_133_cif.got.tgz:264825.got - 2010.06.03 18:47:42.
