data_PCOD9290878
_publ_section_title
;
Structure prediction by ZEFSAII (Michael W. Deem and Ramdas Pophale) SiO2 
 PCOD9290878
Probable space group: C 2/C
;
_chemical_formula_sum "Si O2"
_cell_formula_units_Z 48
_cell_length_a 24.503834
_cell_length_b 7.742992
_cell_length_c 14.009878
_cell_angle_alpha 90.000000
_cell_angle_beta 132.739775
_cell_angle_gamma 90.000000
_cell_volume 1952.251108
_symmetry_space_group_name_H-M "C 2/C"
_symmetry_group_IT_number 15
_symmetry_cell_setting 'monoclinic'
loop_
_space_group_symop_operation_xyz
x,y,z
-x,y,1/2-z
-x,-y,-z
x,-y,1/2+z
1/2+x,1/2+y,z
1/2-x,1/2+y,1/2-z
1/2-x,1/2-y,-z
1/2+x,1/2-y,1/2+z
loop_
_atom_site_type_symbol
_atom_site_label
_atom_site_fract_x
_atom_site_fract_y
_atom_site_fract_z
Si Si1 0.396365 0.554683 0.954536
Si Si2 0.061872 0.961855 0.205268
Si Si3 0.185998 0.313938 0.131210
Si Si4 0.702578 0.915355 0.821901
Si Si5 0.183326 0.866871 0.957248
Si Si6 0.917216 0.387073 0.664812
O O1 0.415275 0.615920 0.870435
O O2 0.354091 0.369697 0.892969
O O3 0.477878 0.523326 0.096025
O O4 0.352409 0.667869 0.980924
O O5 0.071552 0.813847 0.294979
O O6 0.117985 0.111408 0.304176
O O7 0.267774 0.262507 0.189210
O O8 0.196025 0.442785 0.230849
O O9 0.133443 0.399977 0.988901
O O10 0.630794 0.944298 0.801629
O O11 0.773037 0.953892 0.974514
O O12 0.250000 0.750000 0.000000
O O13 0.000000 0.462653 0.750000
#
# Coordination Sequence:
#
# PCOD9290878 Si02
#       6
#     8   8   8   8   8   8
#     4  10  22  41  73 104 139 182 242 293 349 430
#     4  11  21  43  71 102 135 191 241 287 353 429
#     4  11  24  47  71 105 141 186 238 300 364 420
#     4  11  27  42  70 107 139 187 233 300 357 429
#     4  11  23  42  67 103 143 181 230 294 353 420
#     4  12  24  47  72  97 141 191 234 287 369 431
#
# _framework density 24.587001000000001
#
# number of rings (size 3 to 8) (size 9 to 14) (size 15 to 20)
#    0.000    1.000    5.000    2.000    4.667    2.000 
#    0.000    3.333    0.000    0.000    0.000    0.000 
#    0.000    0.000    0.000    0.000    0.000    0.000 
#
# Total GULP energy -134209.792017 kJ/mol
# GULP energy per Si atom -5592.074667 kJ/mol
# Density = 2.453104 g / cm^3
# Si number density = 24.587001 Si / 1000 Ang^3
#
#
#
# Elastic Constant Matrix: (Units=GPa)
#
#
# Indices 1 2 3 4 5 6 
#
# 1 212.4096 24.7494 73.3448 0.0000 10.8507 0.0000
# 2 24.7494 32.6404 22.8865 0.0000 1.5460 0.0000
# 3 73.3448 22.8865 152.7594 0.0000 11.7850 0.0000
# 4 0.0000 0.0000 0.0000 28.2121 0.0000 -0.5380
# 5 10.8507 1.5460 11.7850 0.0000 52.3163 0.0000
# 6 0.0000 0.0000 0.0000 -0.5380 0.0000 48.5140
#
#
#
# Elastic Compliance Matrix: (Units=1/GPa)
#
#
# Indices 1 2 3 4 5 6 
#
# 1 0.005877 -0.002773 -0.002359 0.000000 -0.000605 0.000000
# 2 -0.002773 0.035542 -0.004027 0.000000 0.000432 0.000000
# 3 -0.002359 -0.004027 0.008381 0.000000 -0.001280 0.000000
# 4 0.000000 0.000000 0.000000 0.035453 0.000000 0.000393
# 5 -0.000605 0.000432 -0.001280 0.000000 0.019516 0.000000
# 6 0.000000 0.000000 0.000000 0.000393 0.000000 0.020617
#
#
# Mechanical properties :
#
#
# Convention : Reuss Voigt Hill
#
# Bulk Modulus (GPa) = 31.76448 71.08563 51.42506
# Shear Modulus (GPa) = 32.42576 44.26373 38.34474
#
# Velocity S-wave (km/s) = 3.63549 4.24759 3.95340
# Velocity P-wave (km/s) = 5.52898 7.28221 6.46530
#
# Compressibility (1/GPa) = 0.03148170
#
# Stress axis : x y z
#
# Youngs Moduli (GPa) = 170.16639 28.13534 119.31581
#
# Poissons Ratio (x) = 0.07802 0.28152
# Poissons Ratio (y) = 0.47185 0.48048
# Poissons Ratio (z) = 0.40149 0.11330
#
# Static dielectric constant tensor:
#      x y z
#    x 2.007210 0.000000 0.003440 
#    y 0.000000 2.032000 0.000000 
#    z 0.003440 0.000000 1.930040 
# 
# From -- ./inp_files/177016.got.cif
#   From: 2010.05.17/outbox.cif.g08.bks.cpg/sg15_89_cif.got.tgz:177016.got - 2010.06.03 18:47:42.
