data_PCOD9290726
_publ_section_title
;
Structure prediction by ZEFSAII (Michael W. Deem and Ramdas Pophale) SiO2 
 PCOD9290726
Probable space group: C 2/C
;
_chemical_formula_sum "Si O2"
_cell_formula_units_Z 64
_cell_length_a 11.610620
_cell_length_b 19.268284
_cell_length_c 17.527764
_cell_angle_alpha 90.000000
_cell_angle_beta 54.853830
_cell_angle_gamma 90.000000
_cell_volume 3206.354844
_symmetry_space_group_name_H-M "C 2/C"
_symmetry_group_IT_number 15
_symmetry_cell_setting 'monoclinic'
loop_
_space_group_symop_operation_xyz
x,y,z
-x,y,1/2-z
-x,-y,-z
x,-y,1/2+z
1/2+x,1/2+y,z
1/2-x,1/2+y,1/2-z
1/2-x,1/2-y,-z
1/2+x,1/2-y,1/2+z
loop_
_atom_site_type_symbol
_atom_site_label
_atom_site_fract_x
_atom_site_fract_y
_atom_site_fract_z
Si Si1 0.330458 0.671773 0.575688
Si Si2 0.795423 0.369802 0.532753
Si Si3 0.639556 0.918328 0.664084
Si Si4 0.655874 0.063695 0.726824
Si Si5 0.131856 0.359550 0.399325
Si Si6 0.642570 0.699125 0.399457
Si Si7 0.865643 0.478624 0.998615
Si Si8 0.653574 0.289372 0.717056
O O1 0.255562 0.672258 0.521533
O O2 0.280423 0.599764 0.631690
O O3 0.492628 0.685944 0.496489
O O4 0.264823 0.728793 0.657268
O O5 0.776225 0.451665 0.527213
O O6 0.707376 0.348929 0.640174
O O7 0.962243 0.355487 0.477738
O O8 0.500000 0.883294 0.750000
O O9 0.752983 0.858989 0.608785
O O10 0.600150 0.956058 0.599976
O O11 0.678163 0.980859 0.708158
O O12 0.500000 0.077622 0.750000
O O13 0.652114 0.101142 0.810601
O O14 0.183407 0.280679 0.388658
O O15 0.197398 0.411799 0.435853
O O16 0.639186 0.687737 0.309350
O O17 0.000000 0.500000 0.000000
O O18 0.500000 0.263464 0.750000
#
# Coordination Sequence:
#
# PCOD9290726 Si02
#       8
#     8   8   8   8   8   8   8   8
#     4  12  21  39  62  94 136 166 204 271 327 388
#     4  11  20  37  63  98 130 159 218 277 318 370
#     4  11  25  44  66  93 125 168 225 273 322 386
#     4  11  20  39  68  94 124 168 217 268 313 378
#     4  11  22  39  64  95 126 172 217 256 323 392
#     4  12  27  39  61  99 131 171 204 266 342 388
#     4  10  22  41  69  91 117 170 221 273 316 380
#     4  12  23  35  61  98 137 169 212 264 330 395
#
# _framework density 19.960360999999999
#
# number of rings (size 3 to 8) (size 9 to 14) (size 15 to 20)
#    0.000    0.750    6.250    3.750    5.250    1.000 
#    0.000    0.000    0.000    0.000    0.000    0.000 
#    0.000    0.000    0.000    0.000    0.000    0.000 
#
# Total GULP energy -178575.763604 kJ/mol
# GULP energy per Si atom -5580.492613 kJ/mol
# Density = 1.991493 g / cm^3
# Si number density = 19.960361 Si / 1000 Ang^3
#
#
#
# Elastic Constant Matrix: (Units=GPa)
#
#
# Indices 1 2 3 4 5 6 
#
# 1 30.0312 28.5826 21.8918 0.0000 -8.1393 0.0000
# 2 28.5826 118.4130 39.3602 0.0000 -7.8058 0.0000
# 3 21.8918 39.3602 123.2598 0.0000 -7.0941 0.0000
# 4 0.0000 0.0000 0.0000 13.3284 0.0000 11.2657
# 5 -8.1393 -7.8058 -7.0941 0.0000 14.7291 0.0000
# 6 0.0000 0.0000 0.0000 11.2657 0.0000 13.3237
#
#
#
# Elastic Compliance Matrix: (Units=1/GPa)
#
#
# Indices 1 2 3 4 5 6 
#
# 1 0.051592 -0.009418 -0.004939 0.000000 0.021140 0.000000
# 2 -0.009418 0.011362 -0.001963 0.000000 -0.000128 0.000000
# 3 -0.004939 -0.001963 0.009668 0.000000 0.000887 0.000000
# 4 0.000000 0.000000 0.000000 0.262964 0.000000 -0.222346
# 5 0.021140 -0.000128 0.000887 0.000000 0.079934 0.000000
# 6 0.000000 0.000000 0.000000 -0.222346 0.000000 0.263057
#
#
# Mechanical properties :
#
#
# Convention : Reuss Voigt Hill
#
# Bulk Modulus (GPa) = 25.01090 50.15257 37.58174
# Shear Modulus (GPa) = 6.90088 20.40086 13.65087
#
# Velocity S-wave (km/s) = 1.86140 3.20045 2.61798
# Velocity P-wave (km/s) = 4.14454 6.23200 5.29221
#
# Compressibility (1/GPa) = 0.03998257
#
# Stress axis : x y z
#
# Youngs Moduli (GPa) = 19.38271 88.00965 103.43374
#
# Poissons Ratio (x) = 0.82888 0.51086
# Poissons Ratio (y) = 0.18255 0.20304
# Poissons Ratio (z) = 0.09573 0.17276
#
# Static dielectric constant tensor:
#      x y z
#    x 1.709840 0.000000 0.026650 
#    y 0.000000 1.763460 0.000000 
#    z 0.026650 0.000000 1.720440 
# 
# From -- ./inp_files/200370.got.cif
#   From: 2010.05.17/outbox.cif.g08.bks.cpg/sg15_101_cif.got.tgz:200370.got - 2010.06.03 18:47:42.
