data_PCOD9290394
_publ_section_title
;
Structure prediction by ZEFSAII (Michael W. Deem and Ramdas Pophale) SiO2 
 PCOD9290394
Probable space group: C 2/C
;
_chemical_formula_sum "Si O2"
_cell_formula_units_Z 36
_cell_length_a 14.573739
_cell_length_b 11.711357
_cell_length_c 10.849386
_cell_angle_alpha 90.000000
_cell_angle_beta 55.393207
_cell_angle_gamma 90.000000
_cell_volume 1524.121655
_symmetry_space_group_name_H-M "C 2/C"
_symmetry_group_IT_number 15
_symmetry_cell_setting 'monoclinic'
loop_
_space_group_symop_operation_xyz
x,y,z
-x,y,1/2-z
-x,-y,-z
x,-y,1/2+z
1/2+x,1/2+y,z
1/2-x,1/2+y,1/2-z
1/2-x,1/2-y,-z
1/2+x,1/2-y,1/2+z
loop_
_atom_site_type_symbol
_atom_site_label
_atom_site_fract_x
_atom_site_fract_y
_atom_site_fract_z
Si Si1 0.862793 0.347697 0.500371
Si Si2 0.924249 0.730131 0.543835
Si Si3 0.500000 0.640665 0.750000
Si Si4 0.353727 0.543964 0.215722
Si Si5 0.262750 0.877209 0.338286
O O1 0.757764 0.418977 0.629021
O O2 0.821917 0.217131 0.546419
O O3 0.865411 0.379555 0.354816
O O4 0.973287 0.351547 0.496978
O O5 0.923855 0.843125 0.631985
O O6 0.811318 0.666258 0.670510
O O7 0.937706 0.777758 0.396095
O O8 0.578984 0.555202 0.767378
O O9 0.305621 0.492116 0.125564
#
# Coordination Sequence:
#
# PCOD9290394 Si02
#       5
#     8   8   4   8   8
#     4  10  22  41  65  96 129 166 214 265 314 380
#     4  11  24  42  67  94 132 168 213 261 324 376
#     4  12  24  40  66  98 130 170 210 266 314 384
#     4  11  24  41  67  98 126 167 220 260 318 378
#     4  10  22  41  65  95 130 169 212 261 318 381
#
# _framework density 23.620163000000002
#
# number of rings (size 3 to 8) (size 9 to 14) (size 15 to 20)
#    0.000    1.333    2.222    2.667    9.333    1.778 
#    4.000    0.000    0.000    0.000    0.000    0.000 
#    0.000    0.000    0.000    0.000    0.000    0.000 
#
# Total GULP energy -100591.351400 kJ/mol
# GULP energy per Si atom -5588.408411 kJ/mol
# Density = 2.356640 g / cm^3
# Si number density = 23.620163 Si / 1000 Ang^3
#
#
#
# Elastic Constant Matrix: (Units=GPa)
#
#
# Indices 1 2 3 4 5 6 
#
# 1 75.6493 20.4544 12.2400 0.0000 -7.6961 0.0000
# 2 20.4544 56.6986 14.0041 0.0000 0.9863 0.0000
# 3 12.2400 14.0041 95.0532 0.0000 3.7560 0.0000
# 4 0.0000 0.0000 0.0000 9.8929 0.0000 -7.7657
# 5 -7.6961 0.9863 3.7560 0.0000 27.2033 0.0000
# 6 0.0000 0.0000 0.0000 -7.7657 0.0000 22.9409
#
#
#
# Elastic Compliance Matrix: (Units=1/GPa)
#
#
# Indices 1 2 3 4 5 6 
#
# 1 0.015351 -0.005278 -0.001386 0.000000 0.004726 0.000000
# 2 -0.005278 0.020120 -0.002209 0.000000 -0.001918 0.000000
# 3 -0.001386 -0.002209 0.011097 0.000000 -0.001844 0.000000
# 4 0.000000 0.000000 0.000000 0.137662 0.000000 0.046600
# 5 0.004726 -0.001918 -0.001844 0.000000 0.038421 0.000000
# 6 0.000000 0.000000 0.000000 0.046600 0.000000 0.059365
#
#
# Mechanical properties :
#
#
# Convention : Reuss Voigt Hill
#
# Bulk Modulus (GPa) = 34.69454 35.64423 35.16938
# Shear Modulus (GPa) = 16.16193 24.05426 20.10810
#
# Velocity S-wave (km/s) = 2.61864 3.19467 2.92089
# Velocity P-wave (km/s) = 4.88502 5.36015 5.12809
#
# Compressibility (1/GPa) = 0.02882298
#
# Stress axis : x y z
#
# Youngs Moduli (GPa) = 65.14259 49.70159 90.11299
#
# Poissons Ratio (x) = 0.26232 0.12489
# Poissons Ratio (y) = 0.34381 0.19905
# Poissons Ratio (z) = 0.09028 0.10978
#
# Static dielectric constant tensor:
#      x y z
#    x 1.930700 0.000000 0.039320 
#    y 0.000000 1.855700 0.000000 
#    z 0.039320 0.000000 1.974010 
# 
# From -- ./inp_files/94347.got.cif
#   From: 2010.05.17/outbox.cif.g08.bks.cpg/sg15_48_cif.got.tgz:94347.got - 2010.06.03 18:47:42.
