data_PCOD9290451
_publ_section_title
;
Structure prediction by ZEFSAII (Michael W. Deem and Ramdas Pophale) SiO2 
 PCOD9290451
Probable space group: C 2/C
;
_chemical_formula_sum "Si O2"
_cell_formula_units_Z 64
_cell_length_a 19.559775
_cell_length_b 13.619656
_cell_length_c 15.086068
_cell_angle_alpha 90.000000
_cell_angle_beta 41.931361
_cell_angle_gamma 90.000000
_cell_volume 2685.582073
_symmetry_space_group_name_H-M "C 2/C"
_symmetry_group_IT_number 15
_symmetry_cell_setting 'monoclinic'
loop_
_space_group_symop_operation_xyz
x,y,z
-x,y,1/2-z
-x,-y,-z
x,-y,1/2+z
1/2+x,1/2+y,z
1/2-x,1/2+y,1/2-z
1/2-x,1/2-y,-z
1/2+x,1/2-y,1/2+z
loop_
_atom_site_type_symbol
_atom_site_label
_atom_site_fract_x
_atom_site_fract_y
_atom_site_fract_z
Si Si1 0.208833 0.293333 0.400999
Si Si2 0.777287 0.570820 0.298712
Si Si3 0.878904 0.429971 0.884041
Si Si4 0.376969 0.442511 0.171156
Si Si5 0.099110 0.409143 0.990996
Si Si6 0.808199 0.791708 0.028020
Si Si7 0.110717 0.681294 0.816938
Si Si8 0.505965 0.382713 0.882724
O O1 0.239527 0.182015 0.352174
O O2 0.163324 0.326249 0.538621
O O3 0.305351 0.363408 0.286918
O O4 0.122311 0.317688 0.411057
O O5 0.817010 0.539543 0.356604
O O6 0.688523 0.513143 0.331516
O O7 0.870702 0.567315 0.138410
O O8 0.000000 0.423609 0.750000
O O9 0.861759 0.509807 0.978303
O O10 0.434249 0.515493 0.183857
O O11 0.457535 0.389112 0.028845
O O12 0.150184 0.304019 0.961501
O O13 0.979736 0.390610 0.122325
O O14 0.721958 0.841321 0.171361
O O15 0.750000 0.750000 0.000000
O O16 0.907081 0.860025 0.917320
O O17 0.079793 0.788965 0.810953
#
# Coordination Sequence:
#
# PCOD9290451 Si02
#       8
#     8   8   8   8   8   8   8   8
#     4  12  23  47  78 104 145 202 253 313 385 452
#     4  12  25  51  76 107 151 200 259 322 381 462
#     4  12  30  44  71 111 154 199 255 307 382 465
#     4  11  22  42  77 106 141 197 255 311 383 456
#     4  11  25  45  73 109 146 197 252 309 385 462
#     4  11  24  41  69 110 150 192 243 323 391 445
#     4  11  22  43  72 101 144 193 242 318 391 452
#     4  10  22  41  66 110 138 193 248 309 384 459
#
# _framework density 23.830960999999999
#
# number of rings (size 3 to 8) (size 9 to 14) (size 15 to 20)
#    0.000    0.750    5.000    1.875    5.250    2.500 
#    0.000    1.250    0.000    0.000    0.000    0.000 
#    0.000    0.000    0.000    0.000    0.000    0.000 
#
# Total GULP energy -179264.064361 kJ/mol
# GULP energy per Si atom -5602.002011 kJ/mol
# Density = 2.377672 g / cm^3
# Si number density = 23.830961 Si / 1000 Ang^3
#
#
#
# Elastic Constant Matrix: (Units=GPa)
#
#
# Indices 1 2 3 4 5 6 
#
# 1 116.2265 37.7231 20.4133 0.0000 -1.5957 0.0000
# 2 37.7231 119.2022 30.5435 0.0000 -7.3742 0.0000
# 3 20.4133 30.5435 81.7953 0.0000 -4.7755 0.0000
# 4 0.0000 0.0000 0.0000 36.5067 0.0000 0.5492
# 5 -1.5957 -7.3742 -4.7755 0.0000 42.8197 0.0000
# 6 0.0000 0.0000 0.0000 0.5492 0.0000 41.2107
#
#
#
# Elastic Compliance Matrix: (Units=1/GPa)
#
#
# Indices 1 2 3 4 5 6 
#
# 1 0.009738 -0.002733 -0.001425 0.000000 -0.000267 0.000000
# 2 -0.002733 0.010107 -0.003016 0.000000 0.001302 0.000000
# 3 -0.001425 -0.003016 0.013764 0.000000 0.000962 0.000000
# 4 0.000000 0.000000 0.000000 0.027398 0.000000 -0.000365
# 5 -0.000267 0.001302 0.000962 0.000000 0.023675 0.000000
# 6 0.000000 0.000000 0.000000 -0.000365 0.000000 0.024270
#
#
# Mechanical properties :
#
#
# Convention : Reuss Voigt Hill
#
# Bulk Modulus (GPa) = 51.92064 54.95377 53.43721
# Shear Modulus (GPa) = 38.54427 39.34367 38.94397
#
# Velocity S-wave (km/s) = 4.02606 4.06759 4.04688
# Velocity P-wave (km/s) = 6.59140 6.72089 6.65646
#
# Compressibility (1/GPa) = 0.01926016
#
# Stress axis : x y z
#
# Youngs Moduli (GPa) = 102.69529 98.93761 72.65437
#
# Poissons Ratio (x) = 0.27039 0.10355
# Poissons Ratio (y) = 0.28065 0.21914
# Poissons Ratio (z) = 0.14636 0.29841
#
# Static dielectric constant tensor:
#      x y z
#    x 1.910480 0.000000 0.017440 
#    y 0.000000 1.951620 0.000000 
#    z 0.017440 0.000000 1.946310 
# 
# From -- ./inp_files/162524.got.cif
#   From: 2010.05.17/outbox.cif.g08.bks.cpg/sg15_82_cif.got.tgz:162524.got - 2010.06.03 18:47:42.
