data_PCOD9290295
_publ_section_title
;
Structure prediction by ZEFSAII (Michael W. Deem and Ramdas Pophale) SiO2 
 PCOD9290295
Probable space group: C 2/C
;
_chemical_formula_sum "Si O2"
_cell_formula_units_Z 56
_cell_length_a 17.970814
_cell_length_b 9.302976
_cell_length_c 21.845934
_cell_angle_alpha 90.000000
_cell_angle_beta 137.900831
_cell_angle_gamma 90.000000
_cell_volume 2448.525015
_symmetry_space_group_name_H-M "C 2/C"
_symmetry_group_IT_number 15
_symmetry_cell_setting 'monoclinic'
loop_
_space_group_symop_operation_xyz
x,y,z
-x,y,1/2-z
-x,-y,-z
x,-y,1/2+z
1/2+x,1/2+y,z
1/2-x,1/2+y,1/2-z
1/2-x,1/2-y,-z
1/2+x,1/2-y,1/2+z
loop_
_atom_site_type_symbol
_atom_site_label
_atom_site_fract_x
_atom_site_fract_y
_atom_site_fract_z
Si Si1 0.732916 0.568180 0.055192
Si Si2 0.307404 0.883674 0.000438
Si Si3 0.451604 0.282576 0.996112
Si Si4 0.976061 0.461244 0.872463
Si Si5 0.899191 0.770424 0.225954
Si Si6 0.797722 0.204708 0.882141
Si Si7 0.787756 0.658107 0.801718
O O1 0.607783 0.616082 0.991232
O O2 0.816131 0.691457 0.128021
O O3 0.753620 0.429446 0.111663
O O4 0.753110 0.522762 0.997959
O O5 0.290382 0.845841 0.919540
O O6 0.250000 0.750000 0.000000
O O7 0.438776 0.910115 0.091726
O O8 0.465848 0.130065 0.038534
O O9 0.367051 0.264451 0.888454
O O10 0.572188 0.329316 0.048244
O O11 0.951014 0.355683 0.800787
O O12 0.862477 0.522005 0.830399
O O13 0.821994 0.862987 0.224207
O O14 0.000000 0.839966 0.250000
O O15 0.746259 0.220643 0.784431
#
# Coordination Sequence:
#
# PCOD9290295 Si02
#       7
#     8   8   8   8   8   8   8
#     4  10  22  41  64  97 139 180 231 283 345 413
#     4  10  23  41  66 101 138 182 228 279 346 408
#     4  11  24  40  67 101 134 184 228 286 348 404
#     4  12  22  43  70  96 137 182 233 285 343 414
#     4  11  22  41  69 100 136 184 224 282 351 414
#     4  11  21  41  68  98 137 182 235 281 339 412
#     4  11  24  40  66 103 136 175 238 282 339 419
#
# _framework density 22.870912000000001
#
# number of rings (size 3 to 8) (size 9 to 14) (size 15 to 20)
#    0.000    1.143    5.714    0.857    0.000    0.571 
#    0.000    0.000    0.000    0.000    0.000    0.000 
#    0.000    0.000    0.000    0.000    0.000    0.000 
#
# Total GULP energy -156592.773722 kJ/mol
# GULP energy per Si atom -5592.599062 kJ/mol
# Density = 2.281886 g / cm^3
# Si number density = 22.870912 Si / 1000 Ang^3
#
#
#
# Elastic Constant Matrix: (Units=GPa)
#
#
# Indices 1 2 3 4 5 6 
#
# 1 166.9596 41.9697 63.2998 0.0000 -9.2331 0.0000
# 2 41.9697 45.9803 29.1007 0.0000 -3.2036 0.0000
# 3 63.2998 29.1007 107.4606 0.0000 -0.5272 0.0000
# 4 0.0000 0.0000 0.0000 8.9002 0.0000 -1.8437
# 5 -9.2331 -3.2036 -0.5272 0.0000 17.1372 0.0000
# 6 0.0000 0.0000 0.0000 -1.8437 0.0000 46.2560
#
#
#
# Elastic Compliance Matrix: (Units=1/GPa)
#
#
# Indices 1 2 3 4 5 6 
#
# 1 0.009037 -0.005591 -0.003791 0.000000 0.003707 0.000000
# 2 -0.005591 0.030088 -0.004842 0.000000 0.002463 0.000000
# 3 -0.003791 -0.004842 0.012838 0.000000 -0.002553 0.000000
# 4 0.000000 0.000000 0.000000 0.113293 0.000000 0.004516
# 5 0.003707 0.002463 -0.002553 0.000000 0.060732 0.000000
# 6 0.000000 0.000000 0.000000 0.004516 0.000000 0.021799
#
#
# Mechanical properties :
#
#
# Convention : Reuss Voigt Hill
#
# Bulk Modulus (GPa) = 42.52827 65.46010 53.99419
# Shear Modulus (GPa) = 17.60104 26.86072 22.23088
#
# Velocity S-wave (km/s) = 2.77714 3.43074 3.12110
# Velocity P-wave (km/s) = 5.37761 6.66161 6.05374
#
# Compressibility (1/GPa) = 0.02351377
#
# Stress axis : x y z
#
# Youngs Moduli (GPa) = 110.65165 33.23538 77.89561
#
# Poissons Ratio (x) = 0.18583 0.29531
# Poissons Ratio (y) = 0.61870 0.37720
# Poissons Ratio (z) = 0.41949 0.16094
#
# Static dielectric constant tensor:
#      x y z
#    x 1.884460 0.000000 -0.008980 
#    y 0.000000 1.889420 0.000000 
#    z -0.008980 0.000000 1.832910 
# 
# From -- ./inp_files/248416.got.cif
#   From: 2010.05.17/outbox.cif.g08.bks.cpg/sg15_125_cif.got.tgz:248416.got - 2010.06.03 18:47:42.
