data_PCOD9290479
_publ_section_title
;
Structure prediction by ZEFSAII (Michael W. Deem and Ramdas Pophale) SiO2 
 PCOD9290479
Probable space group: C 2/C
;
_chemical_formula_sum "Si O2"
_cell_formula_units_Z 56
_cell_length_a 9.156168
_cell_length_b 16.066682
_cell_length_c 21.308001
_cell_angle_alpha 90.000000
_cell_angle_beta 52.755574
_cell_angle_gamma 90.000000
_cell_volume 2495.335493
_symmetry_space_group_name_H-M "C 2/C"
_symmetry_group_IT_number 15
_symmetry_cell_setting 'monoclinic'
loop_
_space_group_symop_operation_xyz
x,y,z
-x,y,1/2-z
-x,-y,-z
x,-y,1/2+z
1/2+x,1/2+y,z
1/2-x,1/2+y,1/2-z
1/2-x,1/2-y,-z
1/2+x,1/2-y,1/2+z
loop_
_atom_site_type_symbol
_atom_site_label
_atom_site_fract_x
_atom_site_fract_y
_atom_site_fract_z
Si Si1 0.095742 0.587271 0.485193
Si Si2 0.694397 0.934976 0.095916
Si Si3 0.542456 0.280886 0.310715
Si Si4 0.935625 0.877158 0.458530
Si Si5 0.456070 0.773705 0.196637
Si Si6 0.032073 0.755761 0.546352
Si Si7 0.477103 0.898041 0.886089
O O1 0.228588 0.574218 0.510871
O O2 0.972686 0.662158 0.544355
O O3 0.000000 0.500000 0.500000
O O4 0.127960 0.609887 0.403545
O O5 0.594503 0.850711 0.146906
O O6 0.893483 0.942035 0.077573
O O7 0.549527 0.011753 0.140337
O O8 0.500000 0.297230 0.250000
O O9 0.442115 0.335104 0.389132
O O10 0.753901 0.305430 0.261401
O O11 0.506405 0.183299 0.336030
O O12 0.725481 0.895497 0.529474
O O13 0.988012 0.810695 0.498675
O O14 0.500000 0.728119 0.250000
O O15 0.452628 0.719492 0.134191
O O16 0.250000 0.750000 0.500000
#
# Coordination Sequence:
#
# PCOD9290479 Si02
#       7
#     8   8   8   8   8   8   8
#     4   9  19  35  59  91 119 156 206 265 314 366
#     4  10  22  41  66  94 125 173 218 265 323 391
#     4  12  26  41  61  96 134 172 215 274 341 387
#     4  12  22  41  66  96 125 174 221 273 313 394
#     4  11  22  40  64  92 128 174 217 260 327 396
#     4  11  19  36  65  89 120 159 223 266 305 381
#     4  11  24  40  65  97 134 164 217 274 328 381
#
# _framework density 22.441872
#
# number of rings (size 3 to 8) (size 9 to 14) (size 15 to 20)
#    0.000    1.143    5.714    1.714    4.000    0.571 
#    0.000    0.000    0.000    0.857    0.000    0.000 
#    0.000    0.000    0.000    0.000    0.000    0.000 
#
# Total GULP energy -155935.343493 kJ/mol
# GULP energy per Si atom -5569.119410 kJ/mol
# Density = 2.239079 g / cm^3
# Si number density = 22.441872 Si / 1000 Ang^3
#
#
#
# Elastic Constant Matrix: (Units=GPa)
#
#
# Indices 1 2 3 4 5 6 
#
# 1 101.0583 22.4835 34.0156 0.0002 22.0381 0.0000
# 2 22.4835 51.0320 23.8428 0.0002 14.0168 0.0000
# 3 34.0156 23.8428 96.5833 0.0005 15.7937 -0.0002
# 4 0.0002 0.0002 0.0005 21.1140 -0.0003 0.6057
# 5 22.0381 14.0168 15.7937 -0.0003 53.9052 -0.0001
# 6 0.0000 0.0000 -0.0002 0.6057 -0.0001 70.3088
#
#
#
# Elastic Compliance Matrix: (Units=1/GPa)
#
#
# Indices 1 2 3 4 5 6 
#
# 1 0.012335 -0.003098 -0.003032 0.000000 -0.003349 0.000000
# 2 -0.003098 0.023952 -0.004212 0.000000 -0.003727 0.000000
# 3 -0.003032 -0.004212 0.012687 0.000000 -0.001382 0.000000
# 4 0.000000 0.000000 0.000000 0.047374 0.000000 -0.000408
# 5 -0.003349 -0.003727 -0.001382 0.000000 0.021295 0.000000
# 6 0.000000 0.000000 0.000000 -0.000408 0.000000 0.014226
#
#
# Mechanical properties :
#
#
# Convention : Reuss Voigt Hill
#
# Bulk Modulus (GPa) = 35.34753 45.48414 40.41583
# Shear Modulus (GPa) = 30.86705 40.28773 35.57739
#
# Velocity S-wave (km/s) = 3.71269 4.24158 3.98592
# Velocity P-wave (km/s) = 5.84497 6.65579 6.26351
#
# Compressibility (1/GPa) = 0.02829052
#
# Stress axis : x y z
#
# Youngs Moduli (GPa) = 81.06711 41.74951 78.81790
#
# Poissons Ratio (x) = 0.12935 0.23897
# Poissons Ratio (y) = 0.25117 0.33200
# Poissons Ratio (z) = 0.24579 0.17586
#
# Static dielectric constant tensor:
#      x y z
#    x 2.022010 -0.000010 0.061260 
#    y -0.000010 3.324270 0.000010 
#    z 0.061260 0.000010 1.886140 
# 
# From -- ./inp_files/232583.got.cif
#   From: 2010.05.17/outbox.cif.g08.bks.cpg/sg15_117_cif.got.tgz:232583.got - 2010.06.03 18:47:42.
