data_PCOD9290930
_publ_section_title
;
Structure prediction by ZEFSAII (Michael W. Deem and Ramdas Pophale) SiO2 
 PCOD9290930
Probable space group: C 2/C
;
_chemical_formula_sum "Si O2"
_cell_formula_units_Z 40
_cell_length_a 12.946517
_cell_length_b 27.698088
_cell_length_c 5.287872
_cell_angle_alpha 90.000000
_cell_angle_beta 105.853088
_cell_angle_gamma 90.000000
_cell_volume 1824.076614
_symmetry_space_group_name_H-M "C 2/C"
_symmetry_group_IT_number 15
_symmetry_cell_setting 'monoclinic'
loop_
_space_group_symop_operation_xyz
x,y,z
-x,y,1/2-z
-x,-y,-z
x,-y,1/2+z
1/2+x,1/2+y,z
1/2-x,1/2+y,1/2-z
1/2-x,1/2-y,-z
1/2+x,1/2-y,1/2+z
loop_
_atom_site_type_symbol
_atom_site_label
_atom_site_fract_x
_atom_site_fract_y
_atom_site_fract_z
Si Si1 0.122378 0.019363 0.537848
Si Si2 0.381556 0.289362 0.272737
Si Si3 0.278352 0.381278 0.455989
Si Si4 0.190993 0.691619 0.285588
Si Si5 0.931793 0.374579 0.463751
O O1 0.142614 0.073631 0.456962
O O2 0.170971 0.986854 0.348545
O O3 0.000000 0.000000 0.500000
O O4 0.500000 0.292034 0.250000
O O5 0.348293 0.336146 0.407316
O O6 0.357454 0.237889 0.388652
O O7 0.302850 0.292406 0.979621
O O8 0.214989 0.357043 0.647087
O O9 0.183127 0.396632 0.198469
O O10 0.108783 0.677077 0.454093
O O11 0.000000 0.371857 0.250000
O O12 0.000000 0.395209 0.750000
#
# Coordination Sequence:
#
# PCOD9290930 Si02
#       5
#     8   8   8   8   8
#     4  10  25  44  71 100 138 176 231 290 358 418
#     4  10  23  37  62 101 149 190 233 289 347 422
#     4  11  24  41  72  98 145 182 245 287 360 426
#     4  10  22  42  61 104 143 189 238 287 344 429
#     4  11  22  40  70 101 135 187 236 284 350 412
#
# _framework density 21.928902000000001
#
# number of rings (size 3 to 8) (size 9 to 14) (size 15 to 20)
#    0.000    1.600    2.000    1.200    8.400    2.400 
#    0.000    0.000    0.000    3.600    0.000    0.000 
#    0.000    0.000    0.000    0.000    0.000    0.000 
#
# Total GULP energy -111375.707464 kJ/mol
# GULP energy per Si atom -5568.785373 kJ/mol
# Density = 2.187899 g / cm^3
# Si number density = 21.928902 Si / 1000 Ang^3
#
#
#
# Elastic Constant Matrix: (Units=GPa)
#
#
# Indices 1 2 3 4 5 6 
#
# 1 108.6573 50.8941 34.9939 0.0000 -8.6485 0.0000
# 2 50.8941 122.9133 19.8228 0.0000 -21.2972 0.0000
# 3 34.9939 19.8228 95.9261 0.0000 -21.7901 0.0000
# 4 0.0000 0.0000 0.0000 28.5229 0.0000 -8.1619
# 5 -8.6485 -21.2972 -21.7901 0.0000 41.8701 0.0000
# 6 0.0000 0.0000 0.0000 -8.1619 0.0000 41.6110
#
#
#
# Elastic Compliance Matrix: (Units=1/GPa)
#
#
# Indices 1 2 3 4 5 6 
#
# 1 0.012662 -0.004936 -0.004054 0.000000 -0.002006 0.000000
# 2 -0.004936 0.010919 0.000651 0.000000 0.004873 0.000000
# 3 -0.004054 0.000651 0.013217 0.000000 0.006372 0.000000
# 4 0.000000 0.000000 0.000000 0.037144 0.000000 0.007286
# 5 -0.002006 0.004873 0.006372 0.000000 0.029264 0.000000
# 6 0.000000 0.000000 0.000000 0.007286 0.000000 0.025461
#
#
# Mechanical properties :
#
#
# Convention : Reuss Voigt Hill
#
# Bulk Modulus (GPa) = 49.70546 59.87980 54.79263
# Shear Modulus (GPa) = 32.88354 37.18653 35.03504
#
# Velocity S-wave (km/s) = 3.87661 4.12245 4.00142
# Velocity P-wave (km/s) = 6.53860 7.07284 6.81096
#
# Compressibility (1/GPa) = 0.02011852
#
# Stress axis : x y z
#
# Youngs Moduli (GPa) = 78.97958 91.58233 75.66251
#
# Poissons Ratio (x) = 0.45208 0.30677
# Poissons Ratio (y) = 0.38987 -0.04929
# Poissons Ratio (z) = 0.32022 -0.05966
#
# Static dielectric constant tensor:
#      x y z
#    x 1.903020 0.000000 0.137560 
#    y 0.000000 1.822110 0.000000 
#    z 0.137560 0.000000 2.101940 
# 
# From -- ./inp_files/4924.got.cif
#   From: 2010.05.17/outbox.cif.g08.bks.cpg/sg15_3_cif.got.tgz:4924.got - 2010.06.03 18:47:42.
