data_PCOD9290607
_publ_section_title
;
Structure prediction by ZEFSAII (Michael W. Deem and Ramdas Pophale) SiO2 
 PCOD9290607
Probable space group: C 2/C
;
_chemical_formula_sum "Si O2"
_cell_formula_units_Z 44
_cell_length_a 16.276561
_cell_length_b 14.294545
_cell_length_c 25.931413
_cell_angle_alpha 90.000000
_cell_angle_beta 160.402785
_cell_angle_gamma 90.000000
_cell_volume 2023.623475
_symmetry_space_group_name_H-M "C 2/C"
_symmetry_group_IT_number 15
_symmetry_cell_setting 'monoclinic'
loop_
_space_group_symop_operation_xyz
x,y,z
-x,y,1/2-z
-x,-y,-z
x,-y,1/2+z
1/2+x,1/2+y,z
1/2-x,1/2+y,1/2-z
1/2-x,1/2-y,-z
1/2+x,1/2-y,1/2+z
loop_
_atom_site_type_symbol
_atom_site_label
_atom_site_fract_x
_atom_site_fract_y
_atom_site_fract_z
Si Si1 0.263758 0.601308 0.890097
Si Si2 0.369416 0.477840 0.340341
Si Si3 0.315621 0.298173 0.250681
Si Si4 0.776346 0.323661 0.900041
Si Si5 0.500000 0.330174 0.250000
Si Si6 0.980219 0.616529 0.412798
O O1 0.340816 0.565586 0.879840
O O2 0.252318 0.712309 0.877682
O O3 0.000000 0.563942 0.750000
O O4 0.444406 0.563714 0.041094
O O5 0.442561 0.393546 0.345807
O O6 0.121164 0.526270 0.175395
O O7 0.388421 0.277296 0.234120
O O8 0.403216 0.210613 0.336347
O O9 0.023931 0.322438 0.081865
O O10 0.500000 0.356391 0.750000
O O11 0.855884 0.375968 0.895248
O O12 0.730639 0.386657 0.407548
#
# Coordination Sequence:
#
# PCOD9290607 Si02
#       6
#     8   8   8   8   4   8
#     4  10  22  41  67  98 121 160 217 268 313 379
#     4  11  24  41  66  94 128 165 210 263 320 374
#     4  11  23  45  64  93 128 169 211 261 319 373
#     4  10  22  42  68  93 127 162 212 268 318 378
#     4  10  26  40  66  90 132 174 216 244 316 390
#     4  11  23  45  64  93 128 169 211 261 319 373
#
# _framework density 21.743175000000001
#
# number of rings (size 3 to 8) (size 9 to 14) (size 15 to 20)
#    0.000    1.455    3.636    0.545    2.545    5.091 
#    6.545    0.000    0.000    0.000    0.000    0.000 
#    0.000    0.000    0.000    0.000    0.000    0.000 
#
# Total GULP energy -122752.490821 kJ/mol
# GULP energy per Si atom -5579.658674 kJ/mol
# Density = 2.169369 g / cm^3
# Si number density = 21.743175 Si / 1000 Ang^3
#
#
#
# Elastic Constant Matrix: (Units=GPa)
#
#
# Indices 1 2 3 4 5 6 
#
# 1 61.9317 5.5161 30.5820 0.0187 6.3588 -0.0230
# 2 5.5161 54.0772 15.3639 0.0384 -13.3118 -0.0081
# 3 30.5820 15.3639 132.1448 0.0626 7.6689 -0.0258
# 4 0.0187 0.0384 0.0626 13.4780 -0.0092 16.4964
# 5 6.3588 -13.3118 7.6689 -0.0092 35.1474 0.0065
# 6 -0.0230 -0.0081 -0.0258 16.4964 0.0065 -40.8526
#
#
#
# Elastic Compliance Matrix: (Units=1/GPa)
#
#
# Indices 1 2 3 4 5 6 
#
# 1 0.018542 -0.001531 -0.003935 0.000003 -0.003076 -0.000007
# 2 -0.001531 0.021642 -0.002688 -0.000027 0.009060 -0.000011
# 3 -0.003935 -0.002688 0.008921 -0.000017 -0.002253 -0.000010
# 4 0.000003 -0.000027 -0.000017 0.049654 0.000002 0.020051
# 5 -0.003076 0.009060 -0.002253 0.000002 0.032931 0.000008
# 6 -0.000007 -0.000011 -0.000010 0.020051 0.000008 -0.016382
#
#
# Mechanical properties :
#
#
# Convention : Reuss Voigt Hill
#
# Bulk Modulus (GPa) = 30.48855 39.00862 34.74859
# Shear Modulus (GPa) = 35.07585 14.66733 24.87159
#
# Velocity S-wave (km/s) = 4.02081 2.60007 3.38580
# Velocity P-wave (km/s) = 5.96728 5.19552 5.59472
#
# Compressibility (1/GPa) = 0.03279920
#
# Stress axis : x y z
#
# Youngs Moduli (GPa) = 53.93192 46.20613 112.09148
#
# Poissons Ratio (x) = 0.07072 0.44104
# Poissons Ratio (y) = 0.08255 0.30128
# Poissons Ratio (z) = 0.21220 0.12419
#
# Static dielectric constant tensor:
#      x y z
#    x 1.790780 0.000010 0.015020 
#    y 0.000010 1.780200 -0.000020 
#    z 0.015020 -0.000020 1.862090 
# 
# From -- ./inp_files/274877.got.cif
#   From: 2010.05.17/outbox.cif.g08.bks.cpg/sg15_138_cif.got.tgz:274877.got - 2010.06.03 18:47:42.
