data_PCOD9290356
_publ_section_title
;
Structure prediction by ZEFSAII (Michael W. Deem and Ramdas Pophale) SiO2 
 PCOD9290356
Probable space group: C 2/C
;
_chemical_formula_sum "Si O2"
_cell_formula_units_Z 56
_cell_length_a 26.005239
_cell_length_b 15.227701
_cell_length_c 14.145391
_cell_angle_alpha 90.000000
_cell_angle_beta 29.998625
_cell_angle_gamma 90.000000
_cell_volume 2800.671027
_symmetry_space_group_name_H-M "C 2/C"
_symmetry_group_IT_number 15
_symmetry_cell_setting 'monoclinic'
loop_
_space_group_symop_operation_xyz
x,y,z
-x,y,1/2-z
-x,-y,-z
x,-y,1/2+z
1/2+x,1/2+y,z
1/2-x,1/2+y,1/2-z
1/2-x,1/2-y,-z
1/2+x,1/2-y,1/2+z
loop_
_atom_site_type_symbol
_atom_site_label
_atom_site_fract_x
_atom_site_fract_y
_atom_site_fract_z
Si Si1 0.937450 0.079432 0.053847
Si Si2 0.049338 0.744954 0.436132
Si Si3 0.239228 0.813451 0.252553
Si Si4 0.607219 0.529424 0.047950
Si Si5 0.768625 0.979322 0.963282
Si Si6 0.677361 0.171248 0.075293
Si Si7 0.328593 0.808243 0.315393
O O1 0.831089 0.072409 0.281917
O O2 0.009778 0.162829 0.955238
O O3 0.916183 0.054039 0.979960
O O4 0.000000 0.000000 0.000000
O O5 0.144730 0.757761 0.356570
O O6 0.081035 0.682306 0.298366
O O7 0.946044 0.712951 0.650283
O O8 0.181136 0.904925 0.372250
O O9 0.295934 0.787866 0.259006
O O10 0.324563 0.815295 0.034179
O O11 0.500000 0.574893 0.250000
O O12 0.656776 0.503269 0.067401
O O13 0.688323 0.909778 0.132520
O O14 0.724375 0.073677 0.007167
O O15 0.750000 0.250000 0.000000
O O16 0.250000 0.750000 0.500000
#
# Coordination Sequence:
#
# PCOD9290356 Si02
#       7
#     8   8   8   8   8   8   8
#     4  12  19  36  60  94 123 162 211 272 322 376
#     4  11  23  41  66  93 134 170 218 267 324 388
#     4  10  22  41  65  92 133 170 206 272 332 368
#     4  11  21  32  64  97 121 165 215 268 332 377
#     4  11  22  41  62  91 133 166 217 266 321 386
#     4  10  22  42  64  91 128 168 205 265 329 387
#     4  11  25  42  64  97 127 173 221 268 310 390
#
# _framework density 19.995208000000002
#
# number of rings (size 3 to 8) (size 9 to 14) (size 15 to 20)
#    0.000    1.143    5.714    0.857    2.000    3.429 
#    0.000    0.000    0.000    1.714    0.000    0.000 
#    0.000    0.000    0.000    0.000    0.000    0.000 
#
# Total GULP energy -156106.914900 kJ/mol
# GULP energy per Si atom -5575.246961 kJ/mol
# Density = 1.994970 g / cm^3
# Si number density = 19.995208 Si / 1000 Ang^3
#
#
#
# Elastic Constant Matrix: (Units=GPa)
#
#
# Indices 1 2 3 4 5 6 
#
# 1 61.4818 5.0186 3.4936 0.0000 17.4486 0.0000
# 2 5.0186 50.9890 -2.1124 0.0000 4.0128 0.0000
# 3 3.4936 -2.1124 74.8760 0.0000 10.4730 0.0000
# 4 0.0000 0.0000 0.0000 26.0361 0.0000 2.7240
# 5 17.4486 4.0128 10.4730 0.0000 37.1272 0.0000
# 6 0.0000 0.0000 0.0000 2.7240 0.0000 20.7453
#
#
#
# Elastic Compliance Matrix: (Units=1/GPa)
#
#
# Indices 1 2 3 4 5 6 
#
# 1 0.018844 -0.001147 0.000323 0.000000 -0.008823 0.000000
# 2 -0.001147 0.019908 0.000875 0.000000 -0.001860 0.000000
# 3 0.000323 0.000875 0.013950 0.000000 -0.004181 0.000000
# 4 0.000000 0.000000 0.000000 0.038943 0.000000 -0.005114
# 5 -0.008823 -0.001860 -0.004181 0.000000 0.032462 0.000000
# 6 0.000000 0.000000 0.000000 -0.005114 0.000000 0.048875
#
#
# Mechanical properties :
#
#
# Convention : Reuss Voigt Hill
#
# Bulk Modulus (GPa) = 18.93823 22.23850 20.58836
# Shear Modulus (GPa) = 26.24932 28.84486 27.54709
#
# Velocity S-wave (km/s) = 3.62716 3.80226 3.71574
# Velocity P-wave (km/s) = 5.19939 5.51564 5.35985
#
# Compressibility (1/GPa) = 0.05280324
#
# Stress axis : x y z
#
# Youngs Moduli (GPa) = 53.06639 50.23219 71.68515
#
# Poissons Ratio (x) = 0.05762 -0.02312
# Poissons Ratio (y) = 0.06087 -0.06274
# Poissons Ratio (z) = -0.01711 -0.04396
#
# Static dielectric constant tensor:
#      x y z
#    x 1.780210 0.000000 -0.017400 
#    y 0.000000 1.735670 0.000000 
#    z -0.017400 0.000000 1.786990 
# 
# From -- ./inp_files/182110.got.cif
#   From: 2010.05.17/outbox.cif.g08.bks.cpg/sg15_92_cif.got.tgz:182110.got - 2010.06.03 18:47:42.
