data_PCOD9290265
_publ_section_title
;
Structure prediction by ZEFSAII (Michael W. Deem and Ramdas Pophale) SiO2 
 PCOD9290265
Probable space group: C 2/C
;
_chemical_formula_sum "Si O2"
_cell_formula_units_Z 48
_cell_length_a 15.718012
_cell_length_b 29.088979
_cell_length_c 9.110174
_cell_angle_alpha 90.000000
_cell_angle_beta 144.960559
_cell_angle_gamma 90.000000
_cell_volume 2391.501791
_symmetry_space_group_name_H-M "C 2/C"
_symmetry_group_IT_number 15
_symmetry_cell_setting 'monoclinic'
loop_
_space_group_symop_operation_xyz
x,y,z
-x,y,1/2-z
-x,-y,-z
x,-y,1/2+z
1/2+x,1/2+y,z
1/2-x,1/2+y,1/2-z
1/2-x,1/2-y,-z
1/2+x,1/2-y,1/2+z
loop_
_atom_site_type_symbol
_atom_site_label
_atom_site_fract_x
_atom_site_fract_y
_atom_site_fract_z
Si Si1 0.845556 0.884069 0.089453
Si Si2 0.176642 0.451438 0.342646
Si Si3 0.076769 0.772737 0.996664
Si Si4 0.322134 0.042206 0.322285
Si Si5 0.353991 0.374726 0.451510
Si Si6 0.866059 0.783318 0.971268
O O1 0.853133 0.883229 0.275606
O O2 0.000000 0.904190 0.250000
O O3 0.720844 0.916035 0.844450
O O4 0.838706 0.832613 0.010589
O O5 0.232860 0.494755 0.327497
O O6 0.234054 0.452719 0.590669
O O7 0.221887 0.403541 0.334424
O O8 0.999728 0.457410 0.088960
O O9 0.000000 0.748262 0.750000
O O10 0.945961 0.786694 0.925303
O O11 0.150463 0.819720 0.041528
O O12 0.211761 0.743319 0.250985
O O13 0.500000 0.389298 0.750000
O O14 0.000000 0.759335 0.250000
#
# Coordination Sequence:
#
# PCOD9290265 Si02
#       6
#     8   8   8   8   8   8
#     4  11  22  40  63  90 128 166 208 263 316 374
#     4  10  22  41  64  94 128 164 209 259 315 380
#     4  11  24  43  66  94 132 172 218 270 322 385
#     4  10  22  41  65  93 129 164 207 261 315 379
#     4  11  23  40  64  91 126 166 211 261 317 378
#     4  11  23  43  66  95 130 172 218 270 323 383
#
# _framework density 20.071071
#
# number of rings (size 3 to 8) (size 9 to 14) (size 15 to 20)
#    0.000    1.333    3.333    3.000    2.333    4.000 
#    3.000    3.333    0.000    0.000    0.000    0.000 
#    0.000    0.000    0.000    0.000    0.000    0.000 
#
# Total GULP energy -133884.629308 kJ/mol
# GULP energy per Si atom -5578.526221 kJ/mol
# Density = 2.002539 g / cm^3
# Si number density = 20.071071 Si / 1000 Ang^3
#
#
#
# Elastic Constant Matrix: (Units=GPa)
#
#
# Indices 1 2 3 4 5 6 
#
# 1 91.2458 28.6168 24.2394 0.0000 -29.2413 0.0000
# 2 28.6168 63.9108 25.7701 0.0000 -7.0312 0.0000
# 3 24.2394 25.7701 102.0369 0.0000 -34.7714 0.0000
# 4 0.0000 0.0000 0.0000 13.2838 0.0000 4.7868
# 5 -29.2413 -7.0312 -34.7714 0.0000 32.4644 0.0000
# 6 0.0000 0.0000 0.0000 4.7868 0.0000 24.1216
#
#
#
# Elastic Compliance Matrix: (Units=1/GPa)
#
#
# Indices 1 2 3 4 5 6 
#
# 1 0.018573 -0.007875 0.004246 0.000000 0.019572 0.000000
# 2 -0.007875 0.020805 -0.006717 0.000000 -0.009782 0.000000
# 3 0.004246 -0.006717 0.017788 0.000000 0.021422 0.000000
# 4 0.000000 0.000000 0.000000 0.081077 0.000000 -0.016089
# 5 0.019572 -0.009782 0.021422 0.000000 0.069257 0.000000
# 6 0.000000 0.000000 0.000000 -0.016089 0.000000 0.044650
#
#
# Mechanical properties :
#
#
# Convention : Reuss Voigt Hill
#
# Bulk Modulus (GPa) = 27.41640 46.04956 36.73298
# Shear Modulus (GPa) = 17.54373 25.87844 21.71108
#
# Velocity S-wave (km/s) = 2.95969 3.59463 3.29250
# Velocity P-wave (km/s) = 5.03677 6.34205 5.72672
#
# Compressibility (1/GPa) = 0.03647452
#
# Stress axis : x y z
#
# Youngs Moduli (GPa) = 53.84035 48.06431 56.21719
#
# Poissons Ratio (x) = 0.37853 -0.23872
# Poissons Ratio (y) = 0.42402 0.37762
# Poissons Ratio (z) = -0.22862 0.32285
#
# Static dielectric constant tensor:
#      x y z
#    x 1.750910 0.000000 -0.025740 
#    y 0.000000 1.688340 0.000000 
#    z -0.025740 0.000000 1.752920 
# 
# From -- ./inp_files/43905.got.cif
#   From: 2010.05.17/outbox.cif.g08.bks.cpg/sg15_22_cif.got.tgz:43905.got - 2010.06.03 18:47:42.
