data_PCOD9290061
_publ_section_title
;
Structure prediction by ZEFSAII (Michael W. Deem and Ramdas Pophale) SiO2 
 PCOD9290061
Probable space group: C 2/C
;
_chemical_formula_sum "Si O2"
_cell_formula_units_Z 64
_cell_length_a 31.928102
_cell_length_b 6.170950
_cell_length_c 27.348449
_cell_angle_alpha 90.000000
_cell_angle_beta 143.412307
_cell_angle_gamma 90.000000
_cell_volume 3211.754085
_symmetry_space_group_name_H-M "C 2/C"
_symmetry_group_IT_number 15
_symmetry_cell_setting 'monoclinic'
loop_
_space_group_symop_operation_xyz
x,y,z
-x,y,1/2-z
-x,-y,-z
x,-y,1/2+z
1/2+x,1/2+y,z
1/2-x,1/2+y,1/2-z
1/2-x,1/2-y,-z
1/2+x,1/2-y,1/2+z
loop_
_atom_site_type_symbol
_atom_site_label
_atom_site_fract_x
_atom_site_fract_y
_atom_site_fract_z
Si Si1 0.674826 0.984950 0.141756
Si Si2 0.565757 0.525061 0.948694
Si Si3 0.036819 0.585200 0.165506
Si Si4 0.973134 0.197360 0.279394
Si Si5 0.201581 0.289838 0.266052
Si Si6 0.526220 0.850760 0.478257
Si Si7 0.775114 0.156423 0.391368
Si Si8 0.349709 0.433229 0.210302
O O1 0.662733 0.906404 0.185321
O O2 0.707301 0.788576 0.141478
O O3 0.728898 0.182957 0.192401
O O4 0.605351 0.059766 0.048829
O O5 0.527922 0.754809 0.905540
O O6 0.532480 0.385924 0.873210
O O7 0.542186 0.405908 0.978146
O O8 0.649085 0.565361 0.021011
O O9 0.037258 0.448587 0.215712
O O10 0.104210 0.734771 0.227106
O O11 0.028842 0.413577 0.115036
O O12 0.000000 0.170110 0.250000
O O13 0.901033 0.061954 0.221235
O O14 0.227841 0.453043 0.332189
O O15 0.161889 0.097347 0.255879
O O16 0.500000 0.000000 0.500000
O O17 0.725838 0.327415 0.375235
#
# Coordination Sequence:
#
# PCOD9290061 Si02
#       8
#     8   8   8   8   8   8   8   8
#     4  11  22  34  54  86 124 177 220 252 299 355
#     4  10  22  41  63  93 126 169 209 260 327 381
#     4  10  22  41  59  90 123 165 210 261 325 379
#     4  10  23  45  69  93 121 157 212 272 337 399
#     4  11  22  36  56  88 131 173 221 257 298 369
#     4  11  24  34  56  88 132 173 220 258 303 369
#     4  11  21  39  60  88 131 170 214 260 316 382
#     4  10  24  38  64  91 125 166 214 264 326 380
#
# _framework density 19.926805999999999
#
# number of rings (size 3 to 8) (size 9 to 14) (size 15 to 20)
#    0.000    1.500    3.750    0.750    7.000    3.500 
#    0.000    0.625    0.000    3.750    0.000    0.000 
#    0.000    0.000    0.000    0.000    0.000    0.000 
#
# Total GULP energy -178144.785345 kJ/mol
# GULP energy per Si atom -5567.024542 kJ/mol
# Density = 1.988145 g / cm^3
# Si number density = 19.926806 Si / 1000 Ang^3
#
#
#
# Elastic Constant Matrix: (Units=GPa)
#
#
# Indices 1 2 3 4 5 6 
#
# 1 115.8487 43.7336 40.8742 -0.0012 10.7865 -0.0028
# 2 43.7336 103.8633 37.7355 0.0021 17.4994 -0.0056
# 3 40.8742 37.7355 63.6804 0.0000 15.2845 -0.0011
# 4 -0.0012 0.0021 0.0000 27.0394 0.0008 8.8895
# 5 10.7865 17.4994 15.2845 0.0008 25.4546 0.0002
# 6 -0.0028 -0.0056 -0.0011 8.8895 0.0002 23.2140
#
#
#
# Elastic Compliance Matrix: (Units=1/GPa)
#
#
# Indices 1 2 3 4 5 6 
#
# 1 0.011780 -0.002881 -0.005995 0.000001 0.000589 0.000000
# 2 -0.002881 0.013487 -0.004919 -0.000002 -0.005097 0.000004
# 3 -0.005995 -0.004919 0.024589 0.000001 -0.008842 -0.000001
# 4 0.000001 -0.000002 0.000001 0.042310 0.000000 -0.016202
# 5 0.000589 -0.005097 -0.008842 0.000000 0.047850 -0.000002
# 6 0.000000 0.000004 -0.000001 -0.016202 -0.000002 0.049282
#
#
# Mechanical properties :
#
#
# Convention : Reuss Voigt Hill
#
# Bulk Modulus (GPa) = 44.91429 58.67544 51.79486
# Shear Modulus (GPa) = 22.29048 25.87821 24.08434
#
# Velocity S-wave (km/s) = 3.34820 3.60761 3.48032
# Velocity P-wave (km/s) = 6.12665 6.84562 6.49609
#
# Compressibility (1/GPa) = 0.02226463
#
# Stress axis : x y z
#
# Youngs Moduli (GPa) = 84.88925 74.14314 40.66870
#
# Poissons Ratio (x) = 0.21363 0.24381
# Poissons Ratio (y) = 0.24459 0.20007
# Poissons Ratio (z) = 0.50892 0.36475
#
# Static dielectric constant tensor:
#      x y z
#    x 1.730120 0.000000 0.046050 
#    y 0.000000 1.796100 0.000000 
#    z 0.046050 0.000000 1.705970 
# 
# From -- ./inp_files/304089.got.cif
#   From: 2010.05.17/outbox.cif.g08.bks.cpg/sg15_153_cif.got.tgz:304089.got - 2010.06.03 18:47:42.
