data_PCOD9290565
_publ_section_title
;
Structure prediction by ZEFSAII (Michael W. Deem and Ramdas Pophale) SiO2 
 PCOD9290565
Probable space group: C 2/C
;
_chemical_formula_sum "Si O2"
_cell_formula_units_Z 44
_cell_length_a 27.900758
_cell_length_b 15.246751
_cell_length_c 13.632887
_cell_angle_alpha 90.000000
_cell_angle_beta 23.122035
_cell_angle_gamma 90.000000
_cell_volume 2277.361167
_symmetry_space_group_name_H-M "C 2/C"
_symmetry_group_IT_number 15
_symmetry_cell_setting 'monoclinic'
loop_
_space_group_symop_operation_xyz
x,y,z
-x,y,1/2-z
-x,-y,-z
x,-y,1/2+z
1/2+x,1/2+y,z
1/2-x,1/2+y,1/2-z
1/2-x,1/2-y,-z
1/2+x,1/2-y,1/2+z
loop_
_atom_site_type_symbol
_atom_site_label
_atom_site_fract_x
_atom_site_fract_y
_atom_site_fract_z
Si Si1 0.780523 0.674190 0.020997
Si Si2 0.043385 0.597784 0.946285
Si Si3 0.744010 0.668811 0.810491
Si Si4 0.000000 0.071738 0.250000
Si Si5 0.212579 0.334236 0.504714
Si Si6 0.623409 0.500791 0.826444
O O1 0.762603 0.728249 0.152598
O O2 0.694889 0.589819 0.181358
O O3 0.750000 0.750000 0.000000
O O4 0.911942 0.640480 0.739873
O O5 0.155219 0.615001 0.813876
O O6 0.000000 0.500000 0.000000
O O7 0.927463 0.646787 0.207911
O O8 0.771753 0.668488 0.642689
O O9 0.609130 0.630789 0.089493
O O10 0.922995 0.018035 0.475242
O O11 0.250000 0.250000 0.500000
O O12 0.294325 0.420506 0.372096
O O13 0.500000 0.500000 0.000000
#
# Coordination Sequence:
#
# PCOD9290565 Si02
#       6
#     8   8   8   4   8   8
#     4  10  22  41  67  93 130 176 218 276 339 400
#     4  11  22  44  70  98 133 175 225 287 343 398
#     4  10  24  45  66  96 139 178 225 284 336 411
#     4  10  24  42  66  94 130 176 224 278 334 410
#     4  11  26  43  66  99 135 176 226 278 338 409
#     4  11  23  42  65  94 131 175 220 271 334 404
#
# _framework density 19.320608
#
# number of rings (size 3 to 8) (size 9 to 14) (size 15 to 20)
#    0.000    1.455    1.818    2.727   10.182    1.455 
#    3.273    0.000    0.000    0.000    0.000    0.000 
#    0.000    0.000    0.000    0.000    0.000    0.000 
#
# Total GULP energy -122544.658697 kJ/mol
# GULP energy per Si atom -5570.211759 kJ/mol
# Density = 1.927663 g / cm^3
# Si number density = 19.320608 Si / 1000 Ang^3
#
#
#
# Elastic Constant Matrix: (Units=GPa)
#
#
# Indices 1 2 3 4 5 6 
#
# 1 68.1801 45.7562 35.1974 0.0000 -9.1819 0.0000
# 2 45.7562 157.9247 69.2141 0.0000 -2.1426 0.0000
# 3 35.1974 69.2141 155.6970 0.0000 -10.8796 0.0000
# 4 0.0000 0.0000 0.0000 37.3088 0.0000 0.5014
# 5 -9.1819 -2.1426 -10.8796 0.0000 32.2169 0.0000
# 6 0.0000 0.0000 0.0000 0.5014 0.0000 27.8139
#
#
#
# Elastic Compliance Matrix: (Units=1/GPa)
#
#
# Indices 1 2 3 4 5 6 
#
# 1 0.019467 -0.004706 -0.001990 0.000000 0.004563 0.000000
# 2 -0.004706 0.009016 -0.003069 0.000000 -0.001778 0.000000
# 3 -0.001990 -0.003069 0.008381 0.000000 0.002059 0.000000
# 4 0.000000 0.000000 0.000000 0.026810 0.000000 -0.000483
# 5 0.004563 -0.001778 0.002059 0.000000 0.032917 0.000000
# 6 0.000000 0.000000 0.000000 -0.000483 0.000000 0.035962
#
#
# Mechanical properties :
#
#
# Convention : Reuss Voigt Hill
#
# Bulk Modulus (GPa) = 57.68703 75.79301 66.74002
# Shear Modulus (GPa) = 31.67349 34.91019 33.29184
#
# Velocity S-wave (km/s) = 4.05330 4.25536 4.15556
# Velocity P-wave (km/s) = 7.19918 7.96608 7.59232
#
# Compressibility (1/GPa) = 0.01733492
#
# Stress axis : x y z
#
# Youngs Moduli (GPa) = 51.36831 110.90852 119.32453
#
# Poissons Ratio (x) = 0.52197 0.23743
# Poissons Ratio (y) = 0.24176 0.36615
# Poissons Ratio (z) = 0.10221 0.34032
#
# Static dielectric constant tensor:
#      x y z
#    x 1.699500 0.000000 0.007010 
#    y 0.000000 1.674260 0.000000 
#    z 0.007010 0.000000 1.641970 
# 
# From -- ./inp_files/182239.got.cif
#   From: 2010.05.17/outbox.cif.g08.bks.cpg/sg15_92_cif.got.tgz:182239.got - 2010.06.03 18:47:42.
