data_PCOD9290273
_publ_section_title
;
Structure prediction by ZEFSAII (Michael W. Deem and Ramdas Pophale) SiO2 
 PCOD9290273
Probable space group: C 2/C
;
_chemical_formula_sum "Si O2"
_cell_formula_units_Z 28
_cell_length_a 12.004885
_cell_length_b 17.402941
_cell_length_c 9.774130
_cell_angle_alpha 90.000000
_cell_angle_beta 144.893800
_cell_angle_gamma 90.000000
_cell_volume 1174.349681
_symmetry_space_group_name_H-M "C 2/C"
_symmetry_group_IT_number 15
_symmetry_cell_setting 'monoclinic'
loop_
_space_group_symop_operation_xyz
x,y,z
-x,y,1/2-z
-x,-y,-z
x,-y,1/2+z
1/2+x,1/2+y,z
1/2-x,1/2+y,1/2-z
1/2-x,1/2-y,-z
1/2+x,1/2-y,1/2+z
loop_
_atom_site_type_symbol
_atom_site_label
_atom_site_fract_x
_atom_site_fract_y
_atom_site_fract_z
Si Si1 0.322751 0.604954 0.763093
Si Si2 0.248735 0.570855 0.244643
Si Si3 0.725848 0.659439 0.490032
Si Si4 0.500000 0.103530 0.250000
O O1 0.300637 0.512500 0.736632
O O2 0.187807 0.641921 0.510510
O O3 0.555956 0.613003 0.001453
O O4 0.235147 0.633495 0.817638
O O5 0.176527 0.619106 0.041547
O O6 0.101146 0.561672 0.222283
O O7 0.500000 0.638042 0.250000
O O8 0.750000 0.750000 0.500000
#
# Coordination Sequence:
#
# PCOD9290273 Si02
#       4
#     8   8   8   4
#     4  10  22  41  64  95 130 170 217 266 315 378
#     4  10  22  41  64  95 130 170 217 266 315 378
#     4  10  23  42  69  91 126 173 217 263 320 386
#     4  12  22  34  64  96 128 160 206 270 326 368
#
# _framework density 23.842983
#
# number of rings (size 3 to 8) (size 9 to 14) (size 15 to 20)
#    0.000    1.714    0.000    3.429    4.000    4.571 
#    0.000    1.429    0.000    0.000    0.000    0.000 
#    0.000    0.000    0.000    0.000    0.000    0.000 
#
# Total GULP energy -78110.755548 kJ/mol
# GULP energy per Si atom -5579.339682 kJ/mol
# Density = 2.378872 g / cm^3
# Si number density = 23.842983 Si / 1000 Ang^3
#
#
#
# Elastic Constant Matrix: (Units=GPa)
#
#
# Indices 1 2 3 4 5 6 
#
# 1 148.9366 15.4312 33.5602 0.0000 0.5513 0.0000
# 2 15.4312 80.7596 -6.1728 0.0000 -32.6203 0.0000
# 3 33.5602 -6.1728 154.0233 0.0000 -9.8808 0.0000
# 4 0.0000 0.0000 0.0000 12.4046 0.0000 -2.1315
# 5 0.5513 -32.6203 -9.8808 0.0000 57.8514 0.0000
# 6 0.0000 0.0000 0.0000 -2.1315 0.0000 22.1644
#
#
#
# Elastic Compliance Matrix: (Units=1/GPa)
#
#
# Indices 1 2 3 4 5 6 
#
# 1 0.007352 -0.002193 -0.001793 0.000000 -0.001613 0.000000
# 2 -0.002193 0.016925 0.001789 0.000000 0.009870 0.000000
# 3 -0.001793 0.001789 0.007099 0.000000 0.002238 0.000000
# 4 0.000000 0.000000 0.000000 0.081970 0.000000 0.007883
# 5 -0.001613 0.009870 0.002238 0.000000 0.023249 0.000000
# 6 0.000000 0.000000 0.000000 0.007883 0.000000 0.045876
#
#
# Mechanical properties :
#
#
# Convention : Reuss Voigt Hill
#
# Bulk Modulus (GPa) = 37.06349 52.15073 44.60711
# Shear Modulus (GPa) = 25.52885 41.21079 33.36982
#
# Velocity S-wave (km/s) = 3.27572 4.16194 3.74514
# Velocity P-wave (km/s) = 5.46678 6.70938 6.11970
#
# Compressibility (1/GPa) = 0.02698073
#
# Stress axis : x y z
#
# Youngs Moduli (GPa) = 136.02565 59.08448 140.87354
#
# Poissons Ratio (x) = 0.12959 0.25262
# Poissons Ratio (y) = 0.29835 -0.25208
# Poissons Ratio (z) = 0.24392 -0.10572
#
# Static dielectric constant tensor:
#      x y z
#    x 1.967920 0.000000 0.180540 
#    y 0.000000 1.841240 0.000000 
#    z 0.180540 0.000000 2.363390 
# 
# From -- ./inp_files/29996.got.cif
#   From: 2010.05.17/outbox.cif.g08.bks.cpg/sg15_15_cif.got.tgz:29996.got - 2010.06.03 18:47:42.
