data_PCOD9290796
_publ_section_title
;
Structure prediction by ZEFSAII (Michael W. Deem and Ramdas Pophale) SiO2 
 PCOD9290796
Probable space group: C 2/C
;
_chemical_formula_sum "Si O2"
_cell_formula_units_Z 64
_cell_length_a 18.434111
_cell_length_b 13.692946
_cell_length_c 12.921908
_cell_angle_alpha 90.000000
_cell_angle_beta 49.647319
_cell_angle_gamma 90.000000
_cell_volume 2485.664394
_symmetry_space_group_name_H-M "C 2/C"
_symmetry_group_IT_number 15
_symmetry_cell_setting 'monoclinic'
loop_
_space_group_symop_operation_xyz
x,y,z
-x,y,1/2-z
-x,-y,-z
x,-y,1/2+z
1/2+x,1/2+y,z
1/2-x,1/2+y,1/2-z
1/2-x,1/2-y,-z
1/2+x,1/2-y,1/2+z
loop_
_atom_site_type_symbol
_atom_site_label
_atom_site_fract_x
_atom_site_fract_y
_atom_site_fract_z
Si Si1 0.767597 0.869531 0.103627
Si Si2 0.389396 0.671689 0.008936
Si Si3 0.093260 0.762194 0.376105
Si Si4 0.418450 0.953872 0.267811
Si Si5 0.281761 0.459146 0.754498
Si Si6 0.884705 0.669605 0.353571
Si Si7 0.389809 0.507797 0.350275
Si Si8 0.562668 0.057811 0.493105
O O1 0.828490 0.793345 0.113117
O O2 0.655798 0.864878 0.179871
O O3 0.772521 0.964293 0.171522
O O4 0.827819 0.901422 0.948581
O O5 0.500974 0.671223 0.937921
O O6 0.360206 0.774647 0.981989
O O7 0.378355 0.589635 0.929740
O O8 0.327243 0.637999 0.163358
O O9 0.140766 0.733024 0.222843
O O10 0.043590 0.664782 0.464992
O O11 0.363267 0.056708 0.350122
O O12 0.444520 0.987877 0.112237
O O13 0.459514 0.938568 0.357026
O O14 0.352560 0.507931 0.770193
O O15 0.177870 0.447420 0.896845
O O16 0.000000 0.667740 0.250000
O O17 0.500000 0.534114 0.250000
#
# Coordination Sequence:
#
# PCOD9290796 Si02
#       8
#     8   8   8   8   8   8   8   8
#     4  11  23  40  66 103 140 186 244 294 365 441
#     4  10  22  41  70 111 145 185 247 307 372 436
#     4  11  22  41  70 106 141 187 240 305 363 449
#     4  11  23  45  71 100 141 196 247 310 378 434
#     4  11  23  43  70 105 147 196 241 298 372 447
#     4   9  18  37  68 104 142 180 240 306 369 427
#     4  11  22  41  66 101 149 195 229 290 380 450
#     4  12  24  46  70  96 141 195 248 303 378 432
#
# _framework density 25.747644000000001
#
# number of rings (size 3 to 8) (size 9 to 14) (size 15 to 20)
#    0.000    1.250    2.500    4.125    0.000    3.000 
#    0.000   11.250    0.000    0.000    0.000    0.000 
#    0.000    0.000    0.000    0.000    0.000    0.000 
#
# Total GULP energy -178904.259982 kJ/mol
# GULP energy per Si atom -5590.758124 kJ/mol
# Density = 2.568904 g / cm^3
# Si number density = 25.747644 Si / 1000 Ang^3
#
#
#
# Elastic Constant Matrix: (Units=GPa)
#
#
# Indices 1 2 3 4 5 6 
#
# 1 214.7685 48.7655 62.7474 0.0000 11.8619 0.0000
# 2 48.7655 86.4403 29.0887 0.0000 -1.2838 0.0000
# 3 62.7474 29.0887 133.1786 0.0000 -9.1898 0.0000
# 4 0.0000 0.0000 0.0000 36.1408 0.0000 8.7847
# 5 11.8619 -1.2838 -9.1898 0.0000 37.9718 0.0000
# 6 0.0000 0.0000 0.0000 8.7847 0.0000 43.5606
#
#
#
# Elastic Compliance Matrix: (Units=1/GPa)
#
#
# Indices 1 2 3 4 5 6 
#
# 1 0.006131 -0.002660 -0.002487 0.000000 -0.002607 0.000000
# 2 -0.002660 0.013643 -0.001665 0.000000 0.000889 0.000000
# 3 -0.002487 -0.001665 0.009249 0.000000 0.002959 0.000000
# 4 0.000000 0.000000 0.000000 0.029096 0.000000 -0.005868
# 5 -0.002607 0.000889 0.002959 0.000000 0.027896 0.000000
# 6 0.000000 0.000000 0.000000 -0.005868 0.000000 0.024140
#
#
# Mechanical properties :
#
#
# Convention : Reuss Voigt Hill
#
# Bulk Modulus (GPa) = 64.94888 79.51006 72.22947
# Shear Modulus (GPa) = 38.78603 43.12038 40.95320
#
# Velocity S-wave (km/s) = 3.88544 4.09679 3.99251
# Velocity P-wave (km/s) = 6.73860 7.30245 7.02618
#
# Compressibility (1/GPa) = 0.01539672
#
# Stress axis : x y z
#
# Youngs Moduli (GPa) = 163.10552 73.29701 108.12512
#
# Poissons Ratio (x) = 0.19500 0.26896
# Poissons Ratio (y) = 0.43394 0.18003
# Poissons Ratio (z) = 0.40572 0.12204
#
# Static dielectric constant tensor:
#      x y z
#    x 2.051280 0.000000 0.060360 
#    y 0.000000 2.035180 0.000000 
#    z 0.060360 0.000000 2.155800 
# 
# From -- ./inp_files/112727.got.cif
#   From: 2010.05.17/outbox.cif.g08.bks.cpg/sg15_57_cif.got.tgz:112727.got - 2010.06.03 18:47:42.
