data_PCOD9290901
_publ_section_title
;
Structure prediction by ZEFSAII (Michael W. Deem and Ramdas Pophale) SiO2 
 PCOD9290901
Probable space group: C 2/C
;
_chemical_formula_sum "Si O2"
_cell_formula_units_Z 36
_cell_length_a 13.586093
_cell_length_b 5.609482
_cell_length_c 22.547452
_cell_angle_alpha 90.000000
_cell_angle_beta 50.875467
_cell_angle_gamma 90.000000
_cell_volume 1333.064970
_symmetry_space_group_name_H-M "C 2/C"
_symmetry_group_IT_number 15
_symmetry_cell_setting 'monoclinic'
loop_
_space_group_symop_operation_xyz
x,y,z
-x,y,1/2-z
-x,-y,-z
x,-y,1/2+z
1/2+x,1/2+y,z
1/2-x,1/2+y,1/2-z
1/2-x,1/2-y,-z
1/2+x,1/2-y,1/2+z
loop_
_atom_site_type_symbol
_atom_site_label
_atom_site_fract_x
_atom_site_fract_y
_atom_site_fract_z
Si Si1 0.069670 0.250459 0.025628
Si Si2 0.085398 0.941342 0.121335
Si Si3 0.594561 0.055771 0.324039
Si Si4 0.194005 0.635518 0.895446
Si Si5 0.500000 0.188406 0.750000
O O1 0.131759 0.046818 0.041532
O O2 0.023692 0.443148 0.093265
O O3 0.927698 0.190136 0.055498
O O4 0.148203 0.396575 0.947996
O O5 0.185121 0.769613 0.115721
O O6 0.071430 0.142029 0.176768
O O7 0.947912 0.828528 0.161772
O O8 0.706590 0.952154 0.322387
O O9 0.591184 0.962797 0.258424
#
# Coordination Sequence:
#
# PCOD9290901 Si02
#       5
#     8   8   8   8   4
#     4   8  19  39  55  92 123 125 192 240 261 361
#     4  11  20  38  62  78 113 159 180 229 294 320
#     4   9  20  39  55  82 112 146 191 230 272 339
#     4   9  19  40  57  88 117 144 178 236 288 331
#     4  10  22  42  50  80 120 138 204 250 242 338
#
# _framework density 27.005434000000001
#
# number of rings (size 3 to 8) (size 9 to 14) (size 15 to 20)
#    1.333    1.333    0.000    1.333    0.000    1.778 
#   16.000    0.000    0.000    0.000    0.000    0.000 
#    0.000    0.000    0.000    0.000    0.000    0.000 
#
# Total GULP energy -100451.887410 kJ/mol
# GULP energy per Si atom -5580.660412 kJ/mol
# Density = 2.694397 g / cm^3
# Si number density = 27.005434 Si / 1000 Ang^3
#
#
#
# Elastic Constant Matrix: (Units=GPa)
#
#
# Indices 1 2 3 4 5 6 
#
# 1 138.4281 17.1974 32.4707 0.0034 33.6088 0.0070
# 2 17.1974 32.9535 24.4573 0.0445 14.5375 0.0268
# 3 32.4707 24.4573 117.8389 -0.0026 31.5821 0.0003
# 4 0.0034 0.0445 -0.0026 47.5437 0.0035 17.4583
# 5 33.6088 14.5375 31.5821 0.0035 50.6879 0.0031
# 6 0.0070 0.0268 0.0003 17.4583 0.0031 23.0483
#
#
#
# Elastic Compliance Matrix: (Units=1/GPa)
#
#
# Indices 1 2 3 4 5 6 
#
# 1 0.008808 -0.001920 -0.000733 0.000002 -0.004832 -0.000001
# 2 -0.001920 0.038343 -0.005790 -0.000027 -0.006116 -0.000022
# 3 -0.000733 -0.005790 0.011182 0.000005 -0.004820 0.000004
# 4 0.000002 -0.000027 0.000005 0.029138 0.000003 -0.022071
# 5 -0.004832 -0.006116 -0.004820 0.000003 0.027690 0.000003
# 6 -0.000001 -0.000022 0.000004 -0.022071 0.000003 0.060105
#
#
# Mechanical properties :
#
#
# Convention : Reuss Voigt Hill
#
# Bulk Modulus (GPa) = 24.12788 48.60795 36.36792
# Shear Modulus (GPa) = 24.27556 38.59565 31.43560
#
# Velocity S-wave (km/s) = 3.00144 3.78455 3.41552
# Velocity P-wave (km/s) = 4.57880 6.09389 5.38985
#
# Compressibility (1/GPa) = 0.04144583
#
# Stress axis : x y z
#
# Youngs Moduli (GPa) = 113.53566 26.08025 89.43140
#
# Poissons Ratio (x) = 0.05009 0.06558
# Poissons Ratio (y) = 0.21804 0.51778
# Poissons Ratio (z) = 0.08325 0.15100
#
# Static dielectric constant tensor:
#      x y z
#    x 2.235210 -0.000010 -0.019770 
#    y -0.000010 2.144070 0.000000 
#    z -0.019770 0.000000 2.043740 
# 
# From -- ./inp_files/246095.got.cif
#   From: 2010.05.17/outbox.cif.g08.bks.cpg/sg15_124_cif.got.tgz:246095.got - 2010.06.03 18:47:42.
