data_PCOD9290511
_publ_section_title
;
Structure prediction by ZEFSAII (Michael W. Deem and Ramdas Pophale) SiO2 
 PCOD9290511
Probable space group: C 2/C
;
_chemical_formula_sum "Si O2"
_cell_formula_units_Z 52
_cell_length_a 23.416365
_cell_length_b 22.758222
_cell_length_c 5.862120
_cell_angle_alpha 90.000000
_cell_angle_beta 132.919817
_cell_angle_gamma 90.000000
_cell_volume 2287.736194
_symmetry_space_group_name_H-M "C 2/C"
_symmetry_group_IT_number 15
_symmetry_cell_setting 'monoclinic'
loop_
_space_group_symop_operation_xyz
x,y,z
-x,y,1/2-z
-x,-y,-z
x,-y,1/2+z
1/2+x,1/2+y,z
1/2-x,1/2+y,1/2-z
1/2-x,1/2-y,-z
1/2+x,1/2-y,1/2+z
loop_
_atom_site_type_symbol
_atom_site_label
_atom_site_fract_x
_atom_site_fract_y
_atom_site_fract_z
Si Si1 0.000000 0.319403 0.750000
Si Si2 0.341089 0.357454 0.849558
Si Si3 0.832171 0.643486 0.827169
Si Si4 0.947816 0.780676 0.798563
Si Si5 0.105585 0.989781 0.429425
Si Si6 0.335278 0.252984 0.142418
Si Si7 0.718854 0.970872 0.089735
O O1 0.923221 0.359508 0.498000
O O2 0.002921 0.269092 0.560512
O O3 0.248255 0.359554 0.536918
O O4 0.398221 0.325038 0.820831
O O5 0.369404 0.422258 0.976048
O O6 0.351025 0.318044 0.098715
O O7 0.835666 0.708746 0.935387
O O8 0.816385 0.593984 0.976192
O O9 0.886423 0.740361 0.500057
O O10 0.000000 0.812772 0.750000
O O11 0.069670 0.996245 0.079457
O O12 0.186667 0.027830 0.647409
O O13 0.250000 0.250000 0.000000
O O14 0.697303 0.997600 0.778885
#
# Coordination Sequence:
#
# PCOD9290511 Si02
#       7
#     4   8   8   8   8   8   8
#     4  12  26  46  60 102 144 186 226 284 356 420
#     4  12  24  42  71 101 140 179 237 294 348 429
#     4  12  23  43  67 100 139 183 230 293 345 422
#     4  12  24  44  65  98 142 183 226 286 360 432
#     4  10  22  41  68 103 137 179 234 291 351 411
#     4  12  25  37  69 104 133 177 238 286 362 422
#     4  10  22  41  66  97 137 183 240 288 339 407
#
# _framework density 22.729890999999999
#
# number of rings (size 3 to 8) (size 9 to 14) (size 15 to 20)
#    0.000    0.615    7.692    1.385    6.462    1.231 
#    0.000    0.769    0.000    0.923    0.000    0.000 
#    0.000    0.000    0.000    0.000    0.000    0.000 
#
# Total GULP energy -144833.875546 kJ/mol
# GULP energy per Si atom -5570.533675 kJ/mol
# Density = 2.267816 g / cm^3
# Si number density = 22.729891 Si / 1000 Ang^3
#
#
#
# Elastic Constant Matrix: (Units=GPa)
#
#
# Indices 1 2 3 4 5 6 
#
# 1 129.2760 36.4711 45.9774 0.0000 2.0705 0.0000
# 2 36.4711 72.3161 28.6759 0.0000 -1.2896 0.0000
# 3 45.9774 28.6759 126.8741 0.0000 -12.2091 0.0000
# 4 0.0000 0.0000 0.0000 -59.9490 0.0000 -2.7257
# 5 2.0705 -1.2896 -12.2091 0.0000 30.3056 0.0000
# 6 0.0000 0.0000 0.0000 -2.7257 0.0000 13.1681
#
#
#
# Elastic Compliance Matrix: (Units=1/GPa)
#
#
# Indices 1 2 3 4 5 6 
#
# 1 0.009893 -0.003874 -0.002903 0.000000 -0.002010 0.000000
# 2 -0.003874 0.016724 -0.002374 0.000000 0.000020 0.000000
# 3 -0.002903 -0.002374 0.009862 0.000000 0.004070 0.000000
# 4 0.000000 0.000000 0.000000 -0.016525 0.000000 -0.003421
# 5 -0.002010 0.000020 0.004070 0.000000 0.034775 0.000000
# 6 0.000000 0.000000 0.000000 -0.003421 0.000000 0.075233
#
#
# Mechanical properties :
#
#
# Convention : Reuss Voigt Hill
#
# Bulk Modulus (GPa) = 55.01538 61.19057 58.10298
# Shear Modulus (GPa) = 32.39967 11.19440 21.79703
#
# Velocity S-wave (km/s) = 3.77957 2.22163 3.10007
# Velocity P-wave (km/s) = 6.58053 5.79311 6.19933
#
# Compressibility (1/GPa) = 0.01817674
#
# Stress axis : x y z
#
# Youngs Moduli (GPa) = 101.08212 59.79535 101.39851
#
# Poissons Ratio (x) = 0.23165 0.29435
# Poissons Ratio (y) = 0.39160 0.24073
# Poissons Ratio (z) = 0.29343 0.14196
#
# Static dielectric constant tensor:
#      x y z
#    x 1.925310 0.000000 -0.004930 
#    y 0.000000 1.816490 0.000000 
#    z -0.004930 0.000000 1.897610 
# 
# From -- ./inp_files/16245.got.cif
#   From: 2010.05.17/outbox.cif.g08.bks.cpg/sg15_9_cif.got.tgz:16245.got - 2010.06.03 18:47:42.
