data_PCOD9290858
_publ_section_title
;
Structure prediction by ZEFSAII (Michael W. Deem and Ramdas Pophale) SiO2 
 PCOD9290858
Probable space group: C 2/C
;
_chemical_formula_sum "Si O2"
_cell_formula_units_Z 52
_cell_length_a 19.524780
_cell_length_b 13.305118
_cell_length_c 13.116111
_cell_angle_alpha 90.000000
_cell_angle_beta 44.751846
_cell_angle_gamma 90.000000
_cell_volume 2398.865067
_symmetry_space_group_name_H-M "C 2/C"
_symmetry_group_IT_number 15
_symmetry_cell_setting 'monoclinic'
loop_
_space_group_symop_operation_xyz
x,y,z
-x,y,1/2-z
-x,-y,-z
x,-y,1/2+z
1/2+x,1/2+y,z
1/2-x,1/2+y,1/2-z
1/2-x,1/2-y,-z
1/2+x,1/2-y,1/2+z
loop_
_atom_site_type_symbol
_atom_site_label
_atom_site_fract_x
_atom_site_fract_y
_atom_site_fract_z
Si Si1 0.355657 0.344056 0.304646
Si Si2 0.693698 0.063827 0.699163
Si Si3 0.004281 0.690720 0.856109
Si Si4 0.858322 0.371052 0.886923
Si Si5 0.093472 0.118909 0.976658
Si Si6 0.000000 0.987993 0.250000
Si Si7 0.582973 0.007300 0.998534
O O1 0.241100 0.345173 0.447647
O O2 0.385472 0.227308 0.292898
O O3 0.382689 0.394302 0.167924
O O4 0.408762 0.414492 0.330118
O O5 0.610579 0.148750 0.770686
O O6 0.801245 0.109859 0.578539
O O7 0.667291 0.969593 0.654073
O O8 0.678262 0.022132 0.830399
O O9 0.929943 0.597166 0.930374
O O10 0.000000 0.739024 0.750000
O O11 0.959224 0.773451 0.975075
O O12 0.928152 0.406705 0.905649
O O13 0.024019 0.050670 0.121541
O O14 0.500000 0.000000 0.000000
#
# Coordination Sequence:
#
# PCOD9290858 Si02
#       7
#     8   8   8   8   8   4   8
#     4  11  26  45  70 105 136 187 234 292 354 431
#     4  11  23  43  73  97 138 187 226 300 353 411
#     4  11  23  41  65 102 132 175 234 283 348 413
#     4  11  22  45  73 103 141 179 239 291 359 420
#     4  12  25  48  66 102 142 186 239 282 358 436
#     4  12  26  46  70  96 144 188 234 294 352 424
#     4  10  22  41  72 106 136 177 230 295 350 418
#
# _framework density 21.676918000000001
#
# number of rings (size 3 to 8) (size 9 to 14) (size 15 to 20)
#    0.000    0.923    5.385    1.385    0.000    5.538 
#    2.769    0.000    0.000    0.000    0.000    0.000 
#    0.000    0.000    0.000    0.000    0.000    0.000 
#
# Total GULP energy -144922.374410 kJ/mol
# GULP energy per Si atom -5573.937477 kJ/mol
# Density = 2.162758 g / cm^3
# Si number density = 21.676918 Si / 1000 Ang^3
#
#
#
# Elastic Constant Matrix: (Units=GPa)
#
#
# Indices 1 2 3 4 5 6 
#
# 1 78.1552 55.7499 22.4358 0.0000 7.3091 0.0000
# 2 55.7499 113.9624 27.9995 0.0000 -9.1370 0.0000
# 3 22.4358 27.9995 83.1892 0.0000 5.1266 0.0000
# 4 0.0000 0.0000 0.0000 31.8114 0.0000 -8.2874
# 5 7.3091 -9.1370 5.1266 0.0000 40.3632 0.0000
# 6 0.0000 0.0000 0.0000 -8.2874 0.0000 23.4176
#
#
#
# Elastic Compliance Matrix: (Units=1/GPa)
#
#
# Indices 1 2 3 4 5 6 
#
# 1 0.021363 -0.010473 -0.001867 0.000000 -0.006002 0.000000
# 2 -0.010473 0.014978 -0.002562 0.000000 0.005613 0.000000
# 3 -0.001867 -0.002562 0.013507 0.000000 -0.001958 0.000000
# 4 0.000000 0.000000 0.000000 0.034628 0.000000 0.012255
# 5 -0.006002 0.005613 -0.001958 0.000000 0.027381 0.000000
# 6 0.000000 0.000000 0.000000 0.012255 0.000000 0.047040
#
#
# Mechanical properties :
#
#
# Convention : Reuss Voigt Hill
#
# Bulk Modulus (GPa) = 49.89137 54.18634 52.03885
# Shear Modulus (GPa) = 25.59073 30.39321 27.99197
#
# Velocity S-wave (km/s) = 3.43964 3.74852 3.59740
# Velocity P-wave (km/s) = 6.23223 6.61716 6.42758
#
# Compressibility (1/GPa) = 0.02004355
#
# Stress axis : x y z
#
# Youngs Moduli (GPa) = 46.80954 66.76483 74.03404
#
# Poissons Ratio (x) = 0.69926 0.13819
# Poissons Ratio (y) = 0.49026 0.18971
# Poissons Ratio (z) = 0.08737 0.17108
#
# Static dielectric constant tensor:
#      x y z
#    x 1.820950 0.000000 -0.003710 
#    y 0.000000 1.811340 0.000000 
#    z -0.003710 0.000000 1.877890 
# 
# From -- ./inp_files/173126.got.cif
#   From: 2010.05.17/outbox.cif.g08.bks.cpg/sg15_87_cif.got.tgz:173126.got - 2010.06.03 18:47:42.
