data_PCOD9290781
_publ_section_title
;
Structure prediction by ZEFSAII (Michael W. Deem and Ramdas Pophale) SiO2 
 PCOD9290781
Probable space group: C 2/C
;
_chemical_formula_sum "Si O2"
_cell_formula_units_Z 48
_cell_length_a 9.299809
_cell_length_b 23.994204
_cell_length_c 10.998046
_cell_angle_alpha 90.000000
_cell_angle_beta 107.331200
_cell_angle_gamma 90.000000
_cell_volume 2342.700432
_symmetry_space_group_name_H-M "C 2/C"
_symmetry_group_IT_number 15
_symmetry_cell_setting 'monoclinic'
loop_
_space_group_symop_operation_xyz
x,y,z
-x,y,1/2-z
-x,-y,-z
x,-y,1/2+z
1/2+x,1/2+y,z
1/2-x,1/2+y,1/2-z
1/2-x,1/2-y,-z
1/2+x,1/2-y,1/2+z
loop_
_atom_site_type_symbol
_atom_site_label
_atom_site_fract_x
_atom_site_fract_y
_atom_site_fract_z
Si Si1 0.310027 0.311616 0.471927
Si Si2 0.864950 0.720870 0.795090
Si Si3 0.662383 0.328018 0.594140
Si Si4 0.905644 0.511669 0.852934
Si Si5 0.396932 0.125781 0.971489
Si Si6 0.711522 0.103233 0.152981
O O1 0.250000 0.250000 0.500000
O O2 0.243053 0.313594 0.320022
O O3 0.490136 0.315534 0.519051
O O4 0.260782 0.363991 0.543450
O O5 0.776353 0.768081 0.845349
O O6 0.946476 0.678609 0.905359
O O7 0.000000 0.748167 0.750000
O O8 0.750228 0.354940 0.505606
O O9 0.695776 0.368044 0.716512
O O10 0.863151 0.575361 0.870595
O O11 0.778823 0.463574 0.827689
O O12 0.000000 0.507833 0.750000
O O13 0.000000 0.500000 0.000000
O O14 0.529510 0.112614 0.101820
#
# Coordination Sequence:
#
# PCOD9290781 Si02
#       6
#     8   8   8   8   8   8
#     4  12  23  41  66  95 133 178 223 276 347 415
#     4  12  22  40  66  91 127 177 225 274 339 414
#     4  12  24  41  64 100 136 174 224 282 348 417
#     4  10  22  41  70 103 134 177 236 288 340 409
#     4  11  24  41  66  99 131 172 227 286 339 399
#     4  11  21  41  70  97 131 176 229 279 340 413
#
# _framework density 20.489176
#
# number of rings (size 3 to 8) (size 9 to 14) (size 15 to 20)
#    0.000    0.667    5.000    4.000    2.333    0.667 
#    3.000    0.833    3.667    0.000    0.000    0.000 
#    0.000    0.000    0.000    0.000    0.000    0.000 
#
# Total GULP energy -133799.683917 kJ/mol
# GULP energy per Si atom -5574.986830 kJ/mol
# Density = 2.044254 g / cm^3
# Si number density = 20.489176 Si / 1000 Ang^3
#
#
#
# Elastic Constant Matrix: (Units=GPa)
#
#
# Indices 1 2 3 4 5 6 
#
# 1 91.5381 23.8066 30.0179 0.0000 0.6380 0.0000
# 2 23.8066 112.1096 16.8995 0.0000 -19.7822 0.0000
# 3 30.0179 16.8995 94.8900 0.0000 -5.0759 0.0000
# 4 0.0000 0.0000 0.0000 29.6062 0.0000 -3.0535
# 5 0.6380 -19.7822 -5.0759 0.0000 35.5883 0.0000
# 6 0.0000 0.0000 0.0000 -3.0535 0.0000 22.6218
#
#
#
# Elastic Compliance Matrix: (Units=1/GPa)
#
#
# Indices 1 2 3 4 5 6 
#
# 1 0.012821 -0.002546 -0.003719 0.000000 -0.002175 0.000000
# 2 -0.002546 0.010606 -0.000772 0.000000 0.005831 0.000000
# 3 -0.003719 -0.000772 0.011924 0.000000 0.001338 0.000000
# 4 0.000000 0.000000 0.000000 0.034254 0.000000 0.004624
# 5 -0.002175 0.005831 0.001338 0.000000 0.031570 0.000000
# 6 0.000000 0.000000 0.000000 0.004624 0.000000 0.044829
#
#
# Mechanical properties :
#
#
# Convention : Reuss Voigt Hill
#
# Bulk Modulus (GPa) = 46.99637 48.88732 47.94184
# Shear Modulus (GPa) = 29.90982 32.75084 31.33033
#
# Velocity S-wave (km/s) = 3.82486 4.00239 3.91463
# Velocity P-wave (km/s) = 6.51867 6.72835 6.62434
#
# Compressibility (1/GPa) = 0.02127824
#
# Stress axis : x y z
#
# Youngs Moduli (GPa) = 77.99581 94.28944 83.86472
#
# Poissons Ratio (x) = 0.24005 0.31188
# Poissons Ratio (y) = 0.19857 0.06471
# Poissons Ratio (z) = 0.29006 0.07275
#
# Static dielectric constant tensor:
#      x y z
#    x 1.759080 0.000000 -0.019340 
#    y 0.000000 1.812020 0.000000 
#    z -0.019340 0.000000 1.811560 
# 
# From -- ./inp_files/79903.got.cif
#   From: 2010.05.17/outbox.cif.g08.bks.cpg/sg15_40_cif.got.tgz:79903.got - 2010.06.03 18:47:42.
