data_PCOD9290644
_publ_section_title
;
Structure prediction by ZEFSAII (Michael W. Deem and Ramdas Pophale) SiO2 
 PCOD9290644
Probable space group: C 2/C
;
_chemical_formula_sum "Si O2"
_cell_formula_units_Z 52
_cell_length_a 11.286719
_cell_length_b 18.716105
_cell_length_c 20.839968
_cell_angle_alpha 90.000000
_cell_angle_beta 152.929485
_cell_angle_gamma 90.000000
_cell_volume 2003.431092
_symmetry_space_group_name_H-M "C 2/C"
_symmetry_group_IT_number 15
_symmetry_cell_setting 'monoclinic'
loop_
_space_group_symop_operation_xyz
x,y,z
-x,y,1/2-z
-x,-y,-z
x,-y,1/2+z
1/2+x,1/2+y,z
1/2-x,1/2+y,1/2-z
1/2-x,1/2-y,-z
1/2+x,1/2-y,1/2+z
loop_
_atom_site_type_symbol
_atom_site_label
_atom_site_fract_x
_atom_site_fract_y
_atom_site_fract_z
Si Si1 0.000000 0.091225 0.750000
Si Si2 0.984221 0.655246 0.057825
Si Si3 0.833126 0.063835 0.889241
Si Si4 0.004749 0.732391 0.552510
Si Si5 0.766169 0.628423 0.525748
Si Si6 0.678190 0.523244 0.236624
Si Si7 0.690381 0.833713 0.889108
O O1 0.785778 0.135092 0.607235
O O2 0.138617 0.037364 0.768936
O O3 0.934793 0.689075 0.103920
O O4 0.124663 0.581963 0.142969
O O5 0.146292 0.700934 0.083524
O O6 0.713897 0.020512 0.772276
O O7 0.693508 0.101115 0.882533
O O8 0.048075 0.121881 0.969368
O O9 0.000000 0.000000 0.000000
O O10 0.232621 0.770363 0.621976
O O11 0.001924 0.663936 0.598782
O O12 0.907930 0.800198 0.546660
O O13 0.590445 0.567311 0.407424
O O14 0.500000 0.878786 0.750000
#
# Coordination Sequence:
#
# PCOD9290644 Si02
#       7
#     4   8   8   8   8   8   8
#     4  12  26  44  68 100 152 184 244 298 364 438
#     4  12  25  43  71 106 144 193 237 301 362 427
#     4   9  18  38  68 103 142 179 234 294 355 433
#     4  10  22  41  68 105 146 189 241 286 361 425
#     4   9  20  42  73 104 143 186 240 300 357 431
#     4  11  22  44  72 103 143 193 245 297 369 433
#     4  11  22  42  72 108 142 189 238 298 364 429
#
# _framework density 25.955472
#
# number of rings (size 3 to 8) (size 9 to 14) (size 15 to 20)
#    0.000    1.538    1.538    4.615    1.077    0.000 
#    2.769    0.000    0.000    7.385    4.000    0.000 
#    0.000    0.000    0.000    0.000    0.000    0.000 
#
# Total GULP energy -145130.826415 kJ/mol
# GULP energy per Si atom -5581.954862 kJ/mol
# Density = 2.589640 g / cm^3
# Si number density = 25.955472 Si / 1000 Ang^3
#
#
#
# Elastic Constant Matrix: (Units=GPa)
#
#
# Indices 1 2 3 4 5 6 
#
# 1 91.5468 32.0458 -13.4328 -0.0021 -18.5300 -0.0005
# 2 32.0458 106.6295 10.0678 -0.0019 4.4511 0.0056
# 3 -13.4328 10.0678 90.4854 0.0083 -15.4651 -0.0026
# 4 -0.0021 -0.0019 0.0083 -10.0179 0.0134 -13.4967
# 5 -18.5300 4.4511 -15.4651 0.0134 33.9348 0.0017
# 6 -0.0005 0.0056 -0.0026 -13.4967 0.0017 43.5601
#
#
#
# Elastic Compliance Matrix: (Units=1/GPa)
#
#
# Indices 1 2 3 4 5 6 
#
# 1 0.016103 -0.005813 0.005065 0.000012 0.011863 0.000004
# 2 -0.005813 0.011687 -0.003218 -0.000007 -0.006174 -0.000004
# 3 0.005065 -0.003218 0.013780 0.000016 0.009468 0.000006
# 4 0.000012 -0.000007 0.000016 -0.070424 0.000043 -0.021820
# 5 0.011863 -0.006174 0.009468 0.000043 0.041071 0.000013
# 6 0.000004 -0.000004 0.000006 -0.021820 0.000013 0.016196
#
#
# Mechanical properties :
#
#
# Convention : Reuss Voigt Hill
#
# Bulk Modulus (GPa) = 29.72984 38.44701 34.08842
# Shear Modulus (GPa) = 105.13759 30.82747 67.98253
#
# Velocity S-wave (km/s) = 6.37141 3.45005 5.12336
# Velocity P-wave (km/s) = 8.09972 5.54214 6.93977
#
# Compressibility (1/GPa) = 0.03363624
#
# Stress axis : x y z
#
# Youngs Moduli (GPa) = 62.10174 85.56648 72.57093
#
# Poissons Ratio (x) = 0.49738 -0.36756
# Poissons Ratio (y) = 0.36099 0.23356
# Poissons Ratio (z) = -0.31454 0.27539
#
# Static dielectric constant tensor:
#      x y z
#    x 2.175790 -0.000010 0.089640 
#    y -0.000010 2.063360 -0.000010 
#    z 0.089640 -0.000010 2.212340 
# 
# From -- ./inp_files/240561.got.cif
#   From: 2010.05.17/outbox.cif.g08.bks.cpg/sg15_121_cif.got.tgz:240561.got - 2010.06.03 18:47:42.
