data_PCOD9290657
_publ_section_title
;
Structure prediction by ZEFSAII (Michael W. Deem and Ramdas Pophale) SiO2 
 PCOD9290657
Probable space group: C 2/C
;
_chemical_formula_sum "Si O2"
_cell_formula_units_Z 48
_cell_length_a 21.125456
_cell_length_b 21.714303
_cell_length_c 5.204404
_cell_angle_alpha 90.000000
_cell_angle_beta 53.211810
_cell_angle_gamma 90.000000
_cell_volume 1911.951120
_symmetry_space_group_name_H-M "C 2/C"
_symmetry_group_IT_number 15
_symmetry_cell_setting 'monoclinic'
loop_
_space_group_symop_operation_xyz
x,y,z
-x,y,1/2-z
-x,-y,-z
x,-y,1/2+z
1/2+x,1/2+y,z
1/2-x,1/2+y,1/2-z
1/2-x,1/2-y,-z
1/2+x,1/2-y,1/2+z
loop_
_atom_site_type_symbol
_atom_site_label
_atom_site_fract_x
_atom_site_fract_y
_atom_site_fract_z
Si Si1 0.143803 0.134968 0.499201
Si Si2 0.500000 0.456915 0.250000
Si Si3 0.000000 0.331594 0.750000
Si Si4 0.353182 0.181544 0.313702
Si Si5 0.758689 0.532481 0.071932
Si Si6 0.920208 0.573395 0.837236
Si Si7 0.682143 0.703083 0.917930
O O1 0.223472 0.096026 0.257620
O O2 0.143075 0.162060 0.786216
O O3 0.074881 0.087570 0.600106
O O4 0.146794 0.187461 0.277364
O O5 0.500000 0.500000 0.500000
O O6 0.933879 0.295830 0.751151
O O7 0.047476 0.375043 0.437496
O O8 0.331388 0.226647 0.132238
O O9 0.275222 0.186051 0.677434
O O10 0.375832 0.112772 0.167640
O O11 0.731755 0.482849 0.350529
O O12 0.853541 0.534455 0.857690
O O13 0.000000 0.542117 0.750000
#
# Coordination Sequence:
#
# PCOD9290657 Si02
#       7
#     8   4   4   8   8   8   8
#     4  12  25  47  69 105 136 178 230 295 341 421
#     4  12  26  49  74  98 140 186 233 294 368 410
#     4  10  22  41  68  92 146 180 227 268 342 406
#     4  10  23  42  67 103 136 192 221 279 342 419
#     4  12  26  43  70  97 130 175 231 282 336 398
#     4  10  23  42  65  96 140 179 226 274 336 406
#     4  11  25  42  75 100 142 176 235 278 345 412
#
# _framework density 25.105246000000001
#
# number of rings (size 3 to 8) (size 9 to 14) (size 15 to 20)
#    0.000    1.000    1.667    4.000    7.000    2.667 
#    6.000    0.000    0.000    0.000    0.000    0.000 
#    0.000    0.000    0.000    0.000    0.000    0.000 
#
# Total GULP energy -134566.098204 kJ/mol
# GULP energy per Si atom -5606.920759 kJ/mol
# Density = 2.504811 g / cm^3
# Si number density = 25.105246 Si / 1000 Ang^3
#
#
#
# Elastic Constant Matrix: (Units=GPa)
#
#
# Indices 1 2 3 4 5 6 
#
# 1 123.5851 16.3194 43.6520 0.0000 -6.9917 0.0000
# 2 16.3194 65.0412 22.5751 0.0000 3.6279 0.0000
# 3 43.6520 22.5751 70.8305 0.0000 10.2055 0.0000
# 4 0.0000 0.0000 0.0000 42.6040 0.0000 1.4284
# 5 -6.9917 3.6279 10.2055 0.0000 30.2811 0.0000
# 6 0.0000 0.0000 0.0000 1.4284 0.0000 47.8610
#
#
#
# Elastic Compliance Matrix: (Units=1/GPa)
#
#
# Indices 1 2 3 4 5 6 
#
# 1 0.011056 -0.000493 -0.007392 0.000000 0.005103 0.000000
# 2 -0.000493 0.017311 -0.005148 0.000000 -0.000453 0.000000
# 3 -0.007392 -0.005148 0.021517 0.000000 -0.008342 0.000000
# 4 0.000000 0.000000 0.000000 0.023496 0.000000 -0.000701
# 5 0.005103 -0.000453 -0.008342 0.000000 0.037068 0.000000
# 6 0.000000 0.000000 0.000000 -0.000701 0.000000 0.020915
#
#
# Mechanical properties :
#
#
# Convention : Reuss Voigt Hill
#
# Bulk Modulus (GPa) = 41.98673 47.17221 44.57947
# Shear Modulus (GPa) = 30.23569 35.94321 33.08945
#
# Velocity S-wave (km/s) = 3.47415 3.78789 3.63441
# Velocity P-wave (km/s) = 5.73180 6.16128 5.95042
#
# Compressibility (1/GPa) = 0.02381705
#
# Stress axis : x y z
#
# Youngs Moduli (GPa) = 90.44537 57.76768 46.47576
#
# Poissons Ratio (x) = 0.02848 0.34355
# Poissons Ratio (y) = 0.04460 0.23927
# Poissons Ratio (z) = 0.66858 0.29740
#
# Static dielectric constant tensor:
#      x y z
#    x 2.014910 0.000000 0.002670 
#    y 0.000000 1.945440 0.000000 
#    z 0.002670 0.000000 1.958100 
# 
# From -- ./inp_files/13830.got.cif
#   From: 2010.05.17/outbox.cif.g08.bks.cpg/sg15_7_cif.got.tgz:13830.got - 2010.06.03 18:47:42.
