data_PCOD9290532
_publ_section_title
;
Structure prediction by ZEFSAII (Michael W. Deem and Ramdas Pophale) SiO2 
 PCOD9290532
Probable space group: C 2/C
;
_chemical_formula_sum "Si O2"
_cell_formula_units_Z 44
_cell_length_a 10.215283
_cell_length_b 12.579638
_cell_length_c 20.115292
_cell_angle_alpha 90.000000
_cell_angle_beta 44.685664
_cell_angle_gamma 90.000000
_cell_volume 1817.749964
_symmetry_space_group_name_H-M "C 2/C"
_symmetry_group_IT_number 15
_symmetry_cell_setting 'monoclinic'
loop_
_space_group_symop_operation_xyz
x,y,z
-x,y,1/2-z
-x,-y,-z
x,-y,1/2+z
1/2+x,1/2+y,z
1/2-x,1/2+y,1/2-z
1/2-x,1/2-y,-z
1/2+x,1/2-y,1/2+z
loop_
_atom_site_type_symbol
_atom_site_label
_atom_site_fract_x
_atom_site_fract_y
_atom_site_fract_z
Si Si1 0.329378 0.707751 0.040364
Si Si2 0.792434 0.026666 0.840684
Si Si3 0.000000 0.324992 0.750000
Si Si4 0.328445 0.374777 0.720037
Si Si5 0.663640 0.485636 0.529129
Si Si6 0.481215 0.179723 0.913731
O O1 0.497691 0.763403 0.020302
O O2 0.160588 0.731604 0.151320
O O3 0.250000 0.750000 0.000000
O O4 0.349714 0.580577 0.019616
O O5 0.803185 0.909046 0.804990
O O6 0.744682 0.028536 0.935341
O O7 0.000000 0.068405 0.750000
O O8 0.633795 0.087045 0.859130
O O9 0.125771 0.381302 0.759929
O O10 0.460594 0.454773 0.630647
O O11 0.438512 0.265136 0.667764
O O12 0.786803 0.380342 0.469352
#
# Coordination Sequence:
#
# PCOD9290532 Si02
#       6
#     8   8   4   8   8   8
#     4  11  24  41  71 103 141 185 237 300 354 435
#     4  10  22  41  67 100 132 180 236 289 349 436
#     4  10  24  40  64  98 138 180 238 282 356 420
#     4  10  24  42  67  98 143 180 232 299 351 432
#     4  11  23  44  69 100 140 182 239 291 364 436
#     4  11  23  40  69 101 135 186 235 293 363 421
#
# _framework density 24.205749999999998
#
# number of rings (size 3 to 8) (size 9 to 14) (size 15 to 20)
#    0.000    1.455    1.818    2.182    7.636    2.909 
#    0.000    1.818   28.000    0.000    0.000    0.000 
#    0.000    0.000    0.000    0.000    0.000    0.000 
#
# Total GULP energy -122712.063270 kJ/mol
# GULP energy per Si atom -5577.821058 kJ/mol
# Density = 2.415066 g / cm^3
# Si number density = 24.205750 Si / 1000 Ang^3
#
#
#
# Elastic Constant Matrix: (Units=GPa)
#
#
# Indices 1 2 3 4 5 6 
#
# 1 37.4480 19.2323 -4.3027 0.0000 -14.3073 0.0000
# 2 19.2323 109.0864 17.4521 0.0000 8.1766 0.0000
# 3 -4.3027 17.4521 58.0860 0.0000 -3.3991 0.0000
# 4 0.0000 0.0000 0.0000 33.0920 0.0000 6.4467
# 5 -14.3073 8.1766 -3.3991 0.0000 55.8025 0.0000
# 6 0.0000 0.0000 0.0000 6.4467 0.0000 55.4974
#
#
#
# Elastic Compliance Matrix: (Units=1/GPa)
#
#
# Indices 1 2 3 4 5 6 
#
# 1 0.035490 -0.007954 0.005640 0.000000 0.010608 0.000000
# 2 -0.007954 0.011556 -0.004295 0.000000 -0.003994 0.000000
# 3 0.005640 -0.004295 0.019114 0.000000 0.003240 0.000000
# 4 0.000000 0.000000 0.000000 0.030918 0.000000 -0.003592
# 5 0.010608 -0.003994 0.003240 0.000000 0.021423 0.000000
# 6 0.000000 0.000000 0.000000 -0.003592 0.000000 0.018436
#
#
# Mechanical properties :
#
#
# Convention : Reuss Voigt Hill
#
# Bulk Modulus (GPa) = 18.88934 29.93151 24.41043
# Shear Modulus (GPa) = 29.79686 40.36096 35.07891
#
# Velocity S-wave (km/s) = 3.51234 4.08783 3.81096
# Velocity P-wave (km/s) = 4.92639 5.88836 5.42872
#
# Compressibility (1/GPa) = 0.05293990
#
# Stress axis : x y z
#
# Youngs Moduli (GPa) = 28.17708 86.53552 52.31879
#
# Poissons Ratio (x) = 0.68834 -0.29506
# Poissons Ratio (y) = 0.22413 0.22471
# Poissons Ratio (z) = -0.15891 0.37167
#
# Static dielectric constant tensor:
#      x y z
#    x 2.153180 0.000000 -0.032670 
#    y 0.000000 2.069960 0.000000 
#    z -0.032670 0.000000 1.880750 
# 
# From -- ./inp_files/269130.got.cif
#   From: 2010.05.17/outbox.cif.g08.bks.cpg/sg15_135_cif.got.tgz:269130.got - 2010.06.03 18:47:42.
