data_PCOD9290564
_publ_section_title
;
Structure prediction by ZEFSAII (Michael W. Deem and Ramdas Pophale) SiO2 
 PCOD9290564
Probable space group: C 2/C
;
_chemical_formula_sum "Si O2"
_cell_formula_units_Z 40
_cell_length_a 5.108943
_cell_length_b 23.320414
_cell_length_c 15.070684
_cell_angle_alpha 90.000000
_cell_angle_beta 70.450553
_cell_angle_gamma 90.000000
_cell_volume 1692.052845
_symmetry_space_group_name_H-M "C 2/C"
_symmetry_group_IT_number 15
_symmetry_cell_setting 'monoclinic'
loop_
_space_group_symop_operation_xyz
x,y,z
-x,y,1/2-z
-x,-y,-z
x,-y,1/2+z
1/2+x,1/2+y,z
1/2-x,1/2+y,1/2-z
1/2-x,1/2-y,-z
1/2+x,1/2-y,1/2+z
loop_
_atom_site_type_symbol
_atom_site_label
_atom_site_fract_x
_atom_site_fract_y
_atom_site_fract_z
Si Si1 0.254213 0.831996 0.417073
Si Si2 0.023288 0.718967 0.429221
Si Si3 0.681605 0.400449 0.139905
Si Si4 0.872063 0.966680 0.864648
Si Si5 0.620197 0.897704 0.637576
O O1 0.297755 0.811766 0.513691
O O2 0.523557 0.871395 0.370962
O O3 0.215172 0.770719 0.370862
O O4 0.981793 0.866416 0.418247
O O5 0.750000 0.750000 0.500000
O O6 0.908608 0.669435 0.379131
O O7 0.500000 0.396221 0.250000
O O8 0.687567 0.466893 0.112041
O O9 0.590535 0.931378 0.901162
O O10 0.000000 0.965230 0.750000
O O11 0.092347 0.931689 0.897371
O O12 0.500000 0.905329 0.750000
#
# Coordination Sequence:
#
# PCOD9290564 Si02
#       5
#     8   8   8   8   8
#     4  11  24  41  65  91 128 177 207 257 335 374
#     4  11  25  45  65  87 137 174 212 267 322 370
#     4  11  22  42  67  98 129 163 214 267 322 385
#     4   9  20  39  65  94 128 160 203 273 326 370
#     4  10  22  41  67  93 119 166 220 259 316 386
#
# _framework density 23.639923
#
# number of rings (size 3 to 8) (size 9 to 14) (size 15 to 20)
#    0.000    1.600    2.000    1.800    5.600    4.000 
#    3.600    6.000    0.000    0.000    0.000    0.000 
#    0.000    0.000    0.000    0.000    0.000    0.000 
#
# Total GULP energy -111820.804824 kJ/mol
# GULP energy per Si atom -5591.040241 kJ/mol
# Density = 2.358612 g / cm^3
# Si number density = 23.639923 Si / 1000 Ang^3
#
#
#
# Elastic Constant Matrix: (Units=GPa)
#
#
# Indices 1 2 3 4 5 6 
#
# 1 196.3392 101.1947 7.5039 0.0000 11.5669 0.0000
# 2 101.1947 228.7587 18.2760 0.0000 5.2093 0.0000
# 3 7.5039 18.2760 36.6898 0.0000 0.0197 0.0000
# 4 0.0000 0.0000 0.0000 -3.6467 0.0000 48.3424
# 5 11.5669 5.2093 0.0197 0.0000 13.7198 0.0000
# 6 0.0000 0.0000 0.0000 48.3424 0.0000 -39.7843
#
#
#
# Elastic Compliance Matrix: (Units=1/GPa)
#
#
# Indices 1 2 3 4 5 6 
#
# 1 0.006884 -0.002943 0.000061 0.000000 -0.004686 0.000000
# 2 -0.002943 0.005852 -0.002313 0.000000 0.000263 0.000000
# 3 0.000061 -0.002313 0.028395 0.000000 0.000786 0.000000
# 4 0.000000 0.000000 0.000000 0.018151 0.000000 0.022055
# 5 -0.004686 0.000263 0.000786 0.000000 0.076737 0.000000
# 6 0.000000 0.000000 0.000000 0.022055 0.000000 0.001664
#
#
# Mechanical properties :
#
#
# Convention : Reuss Voigt Hill
#
# Bulk Modulus (GPa) = 32.53152 79.52632 56.02892
# Shear Modulus (GPa) = 31.58129 16.37862 23.97996
#
# Velocity S-wave (km/s) = 3.65900 2.63504 3.18839
# Velocity P-wave (km/s) = 5.62514 6.55527 6.10794
#
# Compressibility (1/GPa) = 0.03073942
#
# Stress axis : x y z
#
# Youngs Moduli (GPa) = 145.26365 170.87295 35.21745
#
# Poissons Ratio (x) = 0.50295 -0.00214
# Poissons Ratio (y) = 0.42757 0.08147
# Poissons Ratio (z) = -0.00882 0.39528
#
# Static dielectric constant tensor:
#      x y z
#    x 2.029300 0.000000 0.102750 
#    y 0.000000 1.901120 0.000000 
#    z 0.102750 0.000000 2.067760 
# 
# From -- ./inp_files/184236.got.cif
#   From: 2010.05.17/outbox.cif.g08.bks.cpg/sg15_93_cif.got.tgz:184236.got - 2010.06.03 18:47:42.
