data_PCOD9290682
_publ_section_title
;
Structure prediction by ZEFSAII (Michael W. Deem and Ramdas Pophale) SiO2 
 PCOD9290682
Probable space group: C 2/C
;
_chemical_formula_sum "Si O2"
_cell_formula_units_Z 32
_cell_length_a 15.419680
_cell_length_b 10.632234
_cell_length_c 9.315015
_cell_angle_alpha 90.000000
_cell_angle_beta 66.237878
_cell_angle_gamma 90.000000
_cell_volume 1397.693398
_symmetry_space_group_name_H-M "C 2/C"
_symmetry_group_IT_number 15
_symmetry_cell_setting 'monoclinic'
loop_
_space_group_symop_operation_xyz
x,y,z
-x,y,1/2-z
-x,-y,-z
x,-y,1/2+z
1/2+x,1/2+y,z
1/2-x,1/2+y,1/2-z
1/2-x,1/2-y,-z
1/2+x,1/2-y,1/2+z
loop_
_atom_site_type_symbol
_atom_site_label
_atom_site_fract_x
_atom_site_fract_y
_atom_site_fract_z
Si Si1 0.358941 0.493297 0.097302
Si Si2 0.107899 0.248375 0.124634
Si Si3 0.400874 0.329628 0.320538
Si Si4 0.719364 0.159201 0.301910
O O1 0.411662 0.451166 0.206882
O O2 0.253136 0.524693 0.220882
O O3 0.378567 0.377626 0.980146
O O4 0.383465 0.616610 0.989437
O O5 0.186865 0.227244 0.194830
O O6 0.000000 0.263178 0.250000
O O7 0.145804 0.350287 0.983569
O O8 0.500000 0.258575 0.250000
O O9 0.323073 0.243306 0.297388
#
# Coordination Sequence:
#
# PCOD9290682 Si02
#       4
#     8   8   8   8
#     4  11  21  39  64  99 129 168 220 277 322 383
#     4  10  22  41  68  97 131 174 221 276 329 386
#     4  11  23  37  65  98 133 171 222 273 326 393
#     4  10  23  38  63 101 133 169 219 280 328 386
#
# _framework density 22.894863000000001
#
# number of rings (size 3 to 8) (size 9 to 14) (size 15 to 20)
#    0.000    1.500    2.500    2.250    7.000    0.000 
#    0.000    0.000    0.000   28.500    0.000    0.000 
#    0.000    0.000    0.000    0.000    0.000    0.000 
#
# Total GULP energy -89251.022678 kJ/mol
# GULP energy per Si atom -5578.188917 kJ/mol
# Density = 2.284275 g / cm^3
# Si number density = 22.894863 Si / 1000 Ang^3
#
#
#
# Elastic Constant Matrix: (Units=GPa)
#
#
# Indices 1 2 3 4 5 6 
#
# 1 101.7896 24.2595 53.5800 0.0000 -32.6430 0.0000
# 2 24.2595 27.2755 33.3171 0.0000 -10.0405 0.0000
# 3 53.5800 33.3171 147.2002 0.0000 -26.1964 0.0000
# 4 0.0000 0.0000 0.0000 43.1023 0.0000 1.0734
# 5 -32.6430 -10.0405 -26.1964 0.0000 43.0270 0.0000
# 6 0.0000 0.0000 0.0000 1.0734 0.0000 22.9116
#
#
#
# Elastic Compliance Matrix: (Units=1/GPa)
#
#
# Indices 1 2 3 4 5 6 
#
# 1 0.015739 -0.007877 -0.002409 0.000000 0.008636 0.000000
# 2 -0.007877 0.055772 -0.009537 0.000000 0.001232 0.000000
# 3 -0.002409 -0.009537 0.010214 0.000000 0.002166 0.000000
# 4 0.000000 0.000000 0.000000 0.023228 0.000000 -0.001088
# 5 0.008636 0.001232 0.002166 0.000000 0.031399 0.000000
# 6 0.000000 0.000000 0.000000 -0.001088 0.000000 0.043697
#
#
# Mechanical properties :
#
#
# Convention : Reuss Voigt Hill
#
# Bulk Modulus (GPa) = 23.76467 55.39759 39.58113
# Shear Modulus (GPa) = 21.39302 32.81544 27.10423
#
# Velocity S-wave (km/s) = 3.06012 3.79002 3.44445
# Velocity P-wave (km/s) = 4.78416 6.58797 5.75715
#
# Compressibility (1/GPa) = 0.04207927
#
# Stress axis : x y z
#
# Youngs Moduli (GPa) = 63.53626 17.93021 97.90119
#
# Poissons Ratio (x) = 0.14123 0.23587
# Poissons Ratio (y) = 0.50047 0.93367
# Poissons Ratio (z) = 0.15307 0.17100
#
# Static dielectric constant tensor:
#      x y z
#    x 1.869200 0.000000 -0.049560 
#    y 0.000000 1.912580 0.000000 
#    z -0.049560 0.000000 1.951240 
# 
# From -- ./inp_files/37368.got.cif
#   From: 2010.05.17/outbox.cif.g08.bks.cpg/sg15_19_cif.got.tgz:37368.got - 2010.06.03 18:47:42.
