data_PCOD9290034
_publ_section_title
;
Structure prediction by ZEFSAII (Michael W. Deem and Ramdas Pophale) SiO2 
 PCOD9290034
Probable space group: C 2/C
;
_chemical_formula_sum "Si O2"
_cell_formula_units_Z 28
_cell_length_a 21.728518
_cell_length_b 7.712921
_cell_length_c 6.571713
_cell_angle_alpha 90.000000
_cell_angle_beta 50.647617
_cell_angle_gamma 90.000000
_cell_volume 851.635155
_symmetry_space_group_name_H-M "C 2/C"
_symmetry_group_IT_number 15
_symmetry_cell_setting 'monoclinic'
loop_
_space_group_symop_operation_xyz
x,y,z
-x,y,1/2-z
-x,-y,-z
x,-y,1/2+z
1/2+x,1/2+y,z
1/2-x,1/2+y,1/2-z
1/2-x,1/2-y,-z
1/2+x,1/2-y,1/2+z
loop_
_atom_site_type_symbol
_atom_site_label
_atom_site_fract_x
_atom_site_fract_y
_atom_site_fract_z
Si Si1 0.278581 0.447656 0.407237
Si Si2 0.115674 0.635222 0.815043
Si Si3 0.500000 0.144635 0.750000
Si Si4 0.595929 0.530674 0.594253
O O1 0.250000 0.250000 0.500000
O O2 0.197558 0.566820 0.560005
O O3 0.379608 0.734103 0.013038
O O4 0.384736 0.450489 0.189836
O O5 0.301282 0.532281 0.602897
O O6 0.063773 0.742971 0.754745
O O7 0.060134 0.476878 0.998645
O O8 0.500000 0.538729 0.750000
#
# Coordination Sequence:
#
# PCOD9290034 Si02
#       4
#     8   8   4   8
#     4  12  27  47  72 106 147 188 238 294 363 427
#     4  11  23  46  74 107 141 191 239 295 354 426
#     4  10  22  40  76 110 140 184 242 294 354 420
#     4  12  26  49  70 107 144 188 241 297 357 426
#
# _framework density 32.877932000000001
#
# number of rings (size 3 to 8) (size 9 to 14) (size 15 to 20)
#    0.000    0.571    1.429    6.857    4.000    2.286 
#    5.143    0.000    0.000    0.000    0.000    0.000 
#    0.000    0.000    0.000    0.000    0.000    0.000 
#
# Total GULP energy -78472.651086 kJ/mol
# GULP energy per Si atom -5605.189363 kJ/mol
# Density = 3.280310 g / cm^3
# Si number density = 32.877932 Si / 1000 Ang^3
#
#
#
# Elastic Constant Matrix: (Units=GPa)
#
#
# Indices 1 2 3 4 5 6 
#
# 1 318.8129 57.7005 81.1573 0.0000 -35.8639 0.0000
# 2 57.7005 104.8202 47.1832 0.0000 -12.3322 0.0000
# 3 81.1573 47.1832 383.9371 0.0000 -14.6997 0.0000
# 4 0.0000 0.0000 0.0000 24.4136 0.0000 -20.8728
# 5 -35.8639 -12.3322 -14.6997 0.0000 87.0769 0.0000
# 6 0.0000 0.0000 0.0000 -20.8728 0.0000 84.0838
#
#
#
# Elastic Compliance Matrix: (Units=1/GPa)
#
#
# Indices 1 2 3 4 5 6 
#
# 1 0.003708 -0.001659 -0.000534 0.000000 0.001202 0.000000
# 2 -0.001659 0.010974 -0.000971 0.000000 0.000707 0.000000
# 3 -0.000534 -0.000971 0.002841 0.000000 0.000122 0.000000
# 4 0.000000 0.000000 0.000000 0.051996 0.000000 0.012907
# 5 0.001202 0.000707 0.000122 0.000000 0.012100 0.000000
# 6 0.000000 0.000000 0.000000 0.012907 0.000000 0.015097
#
#
# Mechanical properties :
#
#
# Convention : Reuss Voigt Hill
#
# Bulk Modulus (GPa) = 89.32469 131.07248 110.19858
# Shear Modulus (GPa) = 46.82686 80.55015 63.68850
#
# Velocity S-wave (km/s) = 3.77804 4.95509 4.40605
# Velocity P-wave (km/s) = 6.80140 8.52586 7.71198
#
# Compressibility (1/GPa) = 0.01119511
#
# Stress axis : x y z
#
# Youngs Moduli (GPa) = 269.67980 91.12650 351.93620
#
# Poissons Ratio (x) = 0.15122 0.18789
# Poissons Ratio (y) = 0.44752 0.34164
# Poissons Ratio (z) = 0.14397 0.08846
#
# Static dielectric constant tensor:
#      x y z
#    x 2.749930 0.000000 0.095610 
#    y 0.000000 2.526350 0.000000 
#    z 0.095610 0.000000 2.504190 
# 
# From -- ./inp_files/27341.got.cif
#   From: 2010.05.17/outbox.cif.g08.bks.cpg/sg15_14_cif.got.tgz:27341.got - 2010.06.03 18:47:42.
