data_PCOD9290743
_publ_section_title
;
Structure prediction by ZEFSAII (Michael W. Deem and Ramdas Pophale) SiO2 
 PCOD9290743
Probable space group: C 2/C
;
_chemical_formula_sum "Si O2"
_cell_formula_units_Z 60
_cell_length_a 23.895119
_cell_length_b 23.475368
_cell_length_c 9.233976
_cell_angle_alpha 90.000000
_cell_angle_beta 146.014781
_cell_angle_gamma 90.000000
_cell_volume 2895.381865
_symmetry_space_group_name_H-M "C 2/C"
_symmetry_group_IT_number 15
_symmetry_cell_setting 'monoclinic'
loop_
_space_group_symop_operation_xyz
x,y,z
-x,y,1/2-z
-x,-y,-z
x,-y,1/2+z
1/2+x,1/2+y,z
1/2-x,1/2+y,1/2-z
1/2-x,1/2-y,-z
1/2+x,1/2-y,1/2+z
loop_
_atom_site_type_symbol
_atom_site_label
_atom_site_fract_x
_atom_site_fract_y
_atom_site_fract_z
Si Si1 0.513599 0.939608 0.109230
Si Si2 0.801367 0.596002 0.657084
Si Si3 0.660338 0.897866 0.944434
Si Si4 0.808802 0.819879 0.761938
Si Si5 0.106025 0.072369 0.915623
Si Si6 0.204476 0.726800 0.551416
Si Si7 0.681535 0.489815 0.317634
Si Si8 0.500000 0.738707 0.750000
O O1 0.500000 0.946214 0.250000
O O2 0.623828 0.917363 0.312525
O O3 0.433690 0.897302 0.863948
O O4 0.500000 0.000000 0.000000
O O5 0.745787 0.654513 0.495047
O O6 0.723020 0.544155 0.496092
O O7 0.864834 0.594730 0.940229
O O8 0.724310 0.840139 0.087275
O O9 0.726734 0.950243 0.032257
O O10 0.756292 0.768010 0.735028
O O11 0.821091 0.874241 0.896915
O O12 0.922309 0.796962 0.983401
O O13 0.110172 0.049359 0.762126
O O14 0.000000 0.090773 0.750000
O O15 0.134888 0.019037 0.078017
O O16 0.250000 0.750000 0.500000
O O17 0.082878 0.730603 0.324652
#
# Coordination Sequence:
#
# PCOD9290743 Si02
#       8
#     8   8   8   8   8   8   8   4
#     4  12  27  40  65  99 136 174 221 276 343 411
#     4  11  24  42  63  97 133 178 218 268 342 402
#     4  12  25  42  68  95 132 173 219 279 332 408
#     4   9  21  39  67  91 131 172 219 272 333 393
#     4  11  20  38  60  89 124 166 209 265 324 392
#     4  10  22  41  69  96 130 175 227 279 339 393
#     4  11  23  36  59  91 130 164 214 259 328 397
#     4   8  20  42  62 100 122 176 226 276 330 392
#
# _framework density 20.722653999999999
#
# number of rings (size 3 to 8) (size 9 to 14) (size 15 to 20)
#    0.800    0.533    3.333    2.400    7.467    0.533 
#    0.000    0.000    0.000    0.000    0.000    0.000 
#    0.000    0.000    0.000    0.000    0.000    0.000 
#
# Total GULP energy -167140.070872 kJ/mol
# GULP energy per Si atom -5571.335696 kJ/mol
# Density = 2.067549 g / cm^3
# Si number density = 20.722654 Si / 1000 Ang^3
#
#
#
# Elastic Constant Matrix: (Units=GPa)
#
#
# Indices 1 2 3 4 5 6 
#
# 1 87.4016 9.3293 16.0720 0.0000 -12.7087 0.0000
# 2 9.3293 88.5031 13.8591 0.0000 -14.8128 0.0000
# 3 16.0720 13.8591 59.1233 0.0000 -8.7451 0.0000
# 4 0.0000 0.0000 0.0000 24.5019 0.0000 0.4026
# 5 -12.7087 -14.8128 -8.7451 0.0000 26.7782 0.0000
# 6 0.0000 0.0000 0.0000 0.4026 0.0000 17.2311
#
#
#
# Elastic Compliance Matrix: (Units=1/GPa)
#
#
# Indices 1 2 3 4 5 6 
#
# 1 0.012684 -0.000062 -0.002677 0.000000 0.005111 0.000000
# 2 -0.000062 0.012681 -0.002020 0.000000 0.006325 0.000000
# 3 -0.002677 -0.002020 0.018663 0.000000 0.003707 0.000000
# 4 0.000000 0.000000 0.000000 0.040829 0.000000 -0.000954
# 5 0.005111 0.006325 0.003707 0.000000 0.044479 0.000000
# 6 0.000000 0.000000 0.000000 -0.000954 0.000000 0.058057
#
#
# Mechanical properties :
#
#
# Convention : Reuss Voigt Hill
#
# Bulk Modulus (GPa) = 28.97855 34.83877 31.90866
# Shear Modulus (GPa) = 23.99071 26.75342 25.37206
#
# Velocity S-wave (km/s) = 3.40620 3.59698 3.50289
# Velocity P-wave (km/s) = 5.42991 5.83947 5.63841
#
# Compressibility (1/GPa) = 0.03450829
#
# Stress axis : x y z
#
# Youngs Moduli (GPa) = 78.84229 78.86072 53.58077
#
# Poissons Ratio (x) = 0.00492 0.14345
# Poissons Ratio (y) = 0.00492 0.10823
# Poissons Ratio (z) = 0.21109 0.15929
#
# Static dielectric constant tensor:
#      x y z
#    x 1.753110 0.000000 -0.000330 
#    y 0.000000 1.797860 0.000000 
#    z -0.000330 0.000000 1.790080 
# 
# From -- ./inp_files/58775.got.cif
#   From: 2010.05.17/outbox.cif.g08.bks.cpg/sg15_30_cif.got.tgz:58775.got - 2010.06.03 18:47:42.
