data_PCOD9290172
_publ_section_title
;
Structure prediction by ZEFSAII (Michael W. Deem and Ramdas Pophale) SiO2 
 PCOD9290172
Probable space group: C 2/C
;
_chemical_formula_sum "Si O2"
_cell_formula_units_Z 56
_cell_length_a 29.800261
_cell_length_b 8.597218
_cell_length_c 11.916430
_cell_angle_alpha 90.000000
_cell_angle_beta 62.889690
_cell_angle_gamma 90.000000
_cell_volume 2717.552923
_symmetry_space_group_name_H-M "C 2/C"
_symmetry_group_IT_number 15
_symmetry_cell_setting 'monoclinic'
loop_
_space_group_symop_operation_xyz
x,y,z
-x,y,1/2-z
-x,-y,-z
x,-y,1/2+z
1/2+x,1/2+y,z
1/2-x,1/2+y,1/2-z
1/2-x,1/2-y,-z
1/2+x,1/2-y,1/2+z
loop_
_atom_site_type_symbol
_atom_site_label
_atom_site_fract_x
_atom_site_fract_y
_atom_site_fract_z
Si Si1 0.621610 0.885949 0.746005
Si Si2 0.800449 0.148719 0.768053
Si Si3 0.305446 0.889488 0.053860
Si Si4 0.369896 0.581706 0.324712
Si Si5 0.395322 0.201333 0.604221
Si Si6 0.707834 0.242875 0.451995
Si Si7 0.057285 0.822016 0.169078
O O1 0.653826 0.772022 0.788119
O O2 0.661346 0.904219 0.597117
O O3 0.574260 0.797707 0.746519
O O4 0.603815 0.038715 0.830481
O O5 0.748198 0.195646 0.886372
O O6 0.784940 0.131646 0.655521
O O7 0.824932 0.012158 0.813849
O O8 0.340810 0.805831 0.104579
O O9 0.291973 0.068589 0.096976
O O10 0.399714 0.663183 0.190319
O O11 0.344640 0.713457 0.429388
O O12 0.403739 0.464715 0.358724
O O13 0.433542 0.236256 0.459781
O O14 0.750000 0.250000 0.500000
O O15 0.000000 0.871573 0.250000
#
# Coordination Sequence:
#
# PCOD9290172 Si02
#       7
#     8   8   8   8   8   8   8
#     4  10  22  41  63  89 126 169 215 263 320 382
#     4  11  23  36  58  91 131 177 208 256 309 376
#     4  11  22  36  60  91 132 169 215 256 303 378
#     4  11  23  42  65  92 130 171 217 263 323 387
#     4  11  22  41  67  93 125 173 209 268 333 380
#     4  12  22  37  58  93 130 173 217 255 300 379
#     4  10  25  46  66  97 127 159 219 280 332 394
#
# _framework density 20.606773
#
# number of rings (size 3 to 8) (size 9 to 14) (size 15 to 20)
#    0.000    1.143    4.286    2.143    0.000    1.143 
#    0.000    0.714    0.000    0.000    0.000    0.000 
#    0.000    0.000    0.000    0.000    0.000    0.000 
#
# Total GULP energy -156251.220517 kJ/mol
# GULP energy per Si atom -5580.400733 kJ/mol
# Density = 2.055987 g / cm^3
# Si number density = 20.606773 Si / 1000 Ang^3
#
#
#
# Elastic Constant Matrix: (Units=GPa)
#
#
# Indices 1 2 3 4 5 6 
#
# 1 64.0254 12.5878 37.7596 0.0000 -6.1953 0.0000
# 2 12.5878 40.7992 7.5913 0.0000 2.5889 0.0000
# 3 37.7596 7.5913 66.2248 0.0000 12.1304 0.0000
# 4 0.0000 0.0000 0.0000 30.8932 0.0000 6.7209
# 5 -6.1953 2.5889 12.1304 0.0000 26.6909 0.0000
# 6 0.0000 0.0000 0.0000 6.7209 0.0000 17.0651
#
#
#
# Elastic Compliance Matrix: (Units=1/GPa)
#
#
# Indices 1 2 3 4 5 6 
#
# 1 0.029866 -0.006668 -0.019256 0.000000 0.016331 0.000000
# 2 -0.006668 0.026570 0.001649 0.000000 -0.004874 0.000000
# 3 -0.019256 0.001649 0.029166 0.000000 -0.017885 0.000000
# 4 0.000000 0.000000 0.000000 0.035403 0.000000 -0.013943
# 5 0.016331 -0.004874 -0.017885 0.000000 0.049858 0.000000
# 6 0.000000 0.000000 0.000000 -0.013943 0.000000 0.064090
#
#
# Mechanical properties :
#
#
# Convention : Reuss Voigt Hill
#
# Bulk Modulus (GPa) = 26.98844 31.88074 29.43459
# Shear Modulus (GPa) = 16.90022 22.47056 19.68539
#
# Velocity S-wave (km/s) = 2.86690 3.30577 3.09413
# Velocity P-wave (km/s) = 4.90756 5.48411 5.20382
#
# Compressibility (1/GPa) = 0.03705290
#
# Stress axis : x y z
#
# Youngs Moduli (GPa) = 33.48251 37.63631 34.28623
#
# Poissons Ratio (x) = 0.25096 0.66021
# Poissons Ratio (y) = 0.22326 -0.05654
# Poissons Ratio (z) = 0.64474 -0.06207
#
# Static dielectric constant tensor:
#      x y z
#    x 1.721800 0.000000 0.037120 
#    y 0.000000 1.773610 0.000000 
#    z 0.037120 0.000000 1.772400 
# 
# From -- ./inp_files/125827.got.cif
#   From: 2010.05.17/outbox.cif.g08.bks.cpg/sg15_63_cif.got.tgz:125827.got - 2010.06.03 18:47:42.
