data_PCOD9290493
_publ_section_title
;
Structure prediction by ZEFSAII (Michael W. Deem and Ramdas Pophale) SiO2 
 PCOD9290493
Probable space group: C 2/C
;
_chemical_formula_sum "Si O2"
_cell_formula_units_Z 36
_cell_length_a 19.591973
_cell_length_b 7.787309
_cell_length_c 15.283117
_cell_angle_alpha 90.000000
_cell_angle_beta 138.411935
_cell_angle_gamma 90.000000
_cell_volume 1547.730779
_symmetry_space_group_name_H-M "C 2/C"
_symmetry_group_IT_number 15
_symmetry_cell_setting 'monoclinic'
loop_
_space_group_symop_operation_xyz
x,y,z
-x,y,1/2-z
-x,-y,-z
x,-y,1/2+z
1/2+x,1/2+y,z
1/2-x,1/2+y,1/2-z
1/2-x,1/2-y,-z
1/2+x,1/2-y,1/2+z
loop_
_atom_site_type_symbol
_atom_site_label
_atom_site_fract_x
_atom_site_fract_y
_atom_site_fract_z
Si Si1 0.249598 0.985721 0.345647
Si Si2 0.938614 0.388746 0.276519
Si Si3 0.750000 0.250000 0.000000
Si Si4 0.600475 0.288993 0.590651
Si Si5 0.453537 0.296751 0.298293
O O1 0.284959 0.110176 0.457040
O O2 0.189278 0.085589 0.210937
O O3 0.341215 0.873156 0.395878
O O4 0.161253 0.865106 0.302436
O O5 0.962610 0.281432 0.386415
O O6 0.954655 0.590417 0.303821
O O7 0.000000 0.324797 0.250000
O O8 0.820766 0.348615 0.140863
O O9 0.525092 0.364186 0.445254
O O10 0.500000 0.351710 0.250000
#
# Coordination Sequence:
#
# PCOD9290493 Si02
#       5
#     8   8   4   8   8
#     4  11  24  42  66  95 130 170 216 266 321 384
#     4  10  22  41  66  95 132 172 212 266 325 381
#     4  10  24  42  62  94 128 170 216 262 320 380
#     4  11  24  42  67  97 129 170 216 265 321 385
#     4  11  24  41  65  95 130 173 216 266 322 381
#
# _framework density 23.259858999999999
#
# number of rings (size 3 to 8) (size 9 to 14) (size 15 to 20)
#    0.000    1.333    0.000    5.333    0.000   14.222 
#    0.000    0.000    0.000    0.000    0.000    0.000 
#    0.000    0.000    0.000    0.000    0.000    0.000 
#
# Total GULP energy -100303.557274 kJ/mol
# GULP energy per Si atom -5572.419849 kJ/mol
# Density = 2.320692 g / cm^3
# Si number density = 23.259859 Si / 1000 Ang^3
#
#
#
# Elastic Constant Matrix: (Units=GPa)
#
#
# Indices 1 2 3 4 5 6 
#
# 1 130.5469 38.7724 29.1496 0.0000 -23.6748 0.0000
# 2 38.7724 53.1130 4.0732 0.0000 -5.6684 0.0000
# 3 29.1496 4.0732 104.3334 0.0000 -27.5409 0.0000
# 4 0.0000 0.0000 0.0000 13.6804 0.0000 2.3228
# 5 -23.6748 -5.6684 -27.5409 0.0000 32.2291 0.0000
# 6 0.0000 0.0000 0.0000 2.3228 0.0000 -6.1839
#
#
#
# Elastic Compliance Matrix: (Units=1/GPa)
#
#
# Indices 1 2 3 4 5 6 
#
# 1 0.011227 -0.007475 -0.001311 0.000000 0.005812 0.000000
# 2 -0.007475 0.024167 0.001056 0.000000 -0.000338 0.000000
# 3 -0.001311 0.001056 0.012531 0.000000 0.009931 0.000000
# 4 0.000000 0.000000 0.000000 0.068715 0.000000 0.025810
# 5 0.005812 -0.000338 0.009931 0.000000 0.043725 0.000000
# 6 0.000000 0.000000 0.000000 0.025810 0.000000 -0.152015
#
#
# Mechanical properties :
#
#
# Convention : Reuss Voigt Hill
#
# Bulk Modulus (GPa) = 30.80159 47.99818 39.39988
# Shear Modulus (GPa) = 144.38034 22.34500 83.36267
#
# Velocity S-wave (km/s) = 7.88717 3.10283 5.99312
# Velocity P-wave (km/s) = 9.80890 5.78940 8.05393
#
# Compressibility (1/GPa) = 0.03246586
#
# Stress axis : x y z
#
# Youngs Moduli (GPa) = 89.07281 41.37829 79.80109
#
# Poissons Ratio (x) = 0.30929 0.10458
# Poissons Ratio (y) = 0.66579 -0.08423
# Poissons Ratio (z) = 0.11673 -0.04368
#
# Static dielectric constant tensor:
#      x y z
#    x 1.866240 0.000000 0.007280 
#    y 0.000000 1.843560 0.000000 
#    z 0.007280 0.000000 1.865360 
# 
# From -- ./inp_files/165589.got.cif
#   From: 2010.05.17/outbox.cif.g08.bks.cpg/sg15_83_cif.got.tgz:165589.got - 2010.06.03 18:47:42.
