data_PCOD9290322
_publ_section_title
;
Structure prediction by ZEFSAII (Michael W. Deem and Ramdas Pophale) SiO2 
 PCOD9290322
Probable space group: C 2/C
;
_chemical_formula_sum "Si O2"
_cell_formula_units_Z 64
_cell_length_a 13.323885
_cell_length_b 8.893442
_cell_length_c 27.603644
_cell_angle_alpha 90.000000
_cell_angle_beta 121.689696
_cell_angle_gamma 90.000000
_cell_volume 2783.226496
_symmetry_space_group_name_H-M "C 2/C"
_symmetry_group_IT_number 15
_symmetry_cell_setting 'monoclinic'
loop_
_space_group_symop_operation_xyz
x,y,z
-x,y,1/2-z
-x,-y,-z
x,-y,1/2+z
1/2+x,1/2+y,z
1/2-x,1/2+y,1/2-z
1/2-x,1/2-y,-z
1/2+x,1/2-y,1/2+z
loop_
_atom_site_type_symbol
_atom_site_label
_atom_site_fract_x
_atom_site_fract_y
_atom_site_fract_z
Si Si1 0.418857 0.866363 0.117040
Si Si2 0.233708 0.787560 0.348876
Si Si3 0.967877 0.373772 0.453552
Si Si4 0.933095 0.137053 0.527647
Si Si5 0.185893 0.982603 0.080533
Si Si6 0.585278 0.681004 0.226716
Si Si7 0.466387 0.218884 0.134778
Si Si8 0.700171 0.634542 0.729083
O O1 0.436507 0.852234 0.064035
O O2 0.286114 0.856555 0.103255
O O3 0.502968 0.746672 0.163619
O O4 0.458853 0.039022 0.138721
O O5 0.341386 0.892016 0.394615
O O6 0.269381 0.619925 0.375147
O O7 0.213624 0.805274 0.287395
O O8 0.111578 0.809388 0.346031
O O9 0.955349 0.232718 0.485156
O O10 0.000000 0.500000 0.500000
O O11 0.058626 0.060265 0.568366
O O12 0.910153 0.236981 0.568621
O O13 0.832312 0.029489 0.480972
O O14 0.500000 0.641562 0.250000
O O15 0.659668 0.537788 0.226373
O O16 0.675436 0.817282 0.263054
O O17 0.598557 0.275701 0.175196
#
# Coordination Sequence:
#
# PCOD9290322 Si02
#       8
#     8   8   8   8   8   8   8   8
#     4  11  24  45  68 107 142 195 243 302 379 442
#     4  10  23  44  69 101 138 185 242 302 368 443
#     4  11  22  40  67  98 144 182 237 304 361 443
#     4  10  22  41  65 105 138 190 237 297 371 436
#     4   9  23  41  69  99 144 182 241 296 374 442
#     4  12  29  50  76 111 150 197 253 309 377 453
#     4  11  24  41  74 102 137 191 246 299 371 442
#     4  12  27  49  76 108 148 192 246 314 375 446
#
# _framework density 22.994895
#
# number of rings (size 3 to 8) (size 9 to 14) (size 15 to 20)
#    0.000    1.250    2.500    1.875    5.250    6.000 
#    2.250    0.625    0.000    0.000    0.000    0.000 
#    0.000    0.000    0.000    0.000    0.000    0.000 
#
# Total GULP energy -178842.725397 kJ/mol
# GULP energy per Si atom -5588.835169 kJ/mol
# Density = 2.294256 g / cm^3
# Si number density = 22.994895 Si / 1000 Ang^3
#
#
#
# Elastic Constant Matrix: (Units=GPa)
#
#
# Indices 1 2 3 4 5 6 
#
# 1 62.5611 11.8276 12.1147 0.0000 1.9459 0.0000
# 2 11.8276 42.1857 12.8434 0.0000 6.0808 0.0000
# 3 12.1147 12.8434 101.5543 0.0000 -11.1800 0.0000
# 4 0.0000 0.0000 0.0000 33.2804 0.0000 5.7452
# 5 1.9459 6.0808 -11.1800 0.0000 31.1930 0.0000
# 6 0.0000 0.0000 0.0000 5.7452 0.0000 28.9624
#
#
#
# Elastic Compliance Matrix: (Units=1/GPa)
#
#
# Indices 1 2 3 4 5 6 
#
# 1 0.017113 -0.004191 -0.001602 0.000000 -0.000825 0.000000
# 2 -0.004191 0.026875 -0.003588 0.000000 -0.006264 0.000000
# 3 -0.001602 -0.003588 0.011015 0.000000 0.004747 0.000000
# 4 0.000000 0.000000 0.000000 0.031113 0.000000 -0.006172
# 5 -0.000825 -0.006264 0.004747 0.000000 0.035033 0.000000
# 6 0.000000 0.000000 0.000000 -0.006172 0.000000 0.035752
#
#
# Mechanical properties :
#
#
# Convention : Reuss Voigt Hill
#
# Bulk Modulus (GPa) = 27.59477 31.09692 29.34585
# Shear Modulus (GPa) = 26.63213 29.98817 28.31015
#
# Velocity S-wave (km/s) = 3.40689 3.61518 3.51258
# Velocity P-wave (km/s) = 5.24426 5.56586 5.40745
#
# Compressibility (1/GPa) = 0.03623875
#
# Stress axis : x y z
#
# Youngs Moduli (GPa) = 58.43635 37.20901 90.78923
#
# Poissons Ratio (x) = 0.15595 0.14546
# Poissons Ratio (y) = 0.24492 0.32579
# Poissons Ratio (z) = 0.09362 0.13352
#
# Static dielectric constant tensor:
#      x y z
#    x 1.918960 0.000000 0.037590 
#    y 0.000000 2.155690 0.000000 
#    z 0.037590 0.000000 1.867180 
# 
# From -- ./inp_files/313165.got.cif
#   From: 2010.05.17/outbox.cif.g08.bks.cpg/sg15_157_cif.got.tgz:313165.got - 2010.06.03 18:47:42.
