data_PCOD9290962
_publ_section_title
;
Structure prediction by ZEFSAII (Michael W. Deem and Ramdas Pophale) SiO2 
 PCOD9290962
Probable space group: C 2/C
;
_chemical_formula_sum "Si O2"
_cell_formula_units_Z 40
_cell_length_a 15.865401
_cell_length_b 13.402199
_cell_length_c 9.037023
_cell_angle_alpha 90.000000
_cell_angle_beta 89.929442
_cell_angle_gamma 90.000000
_cell_volume 1921.552143
_symmetry_space_group_name_H-M "C 2/C"
_symmetry_group_IT_number 15
_symmetry_cell_setting 'monoclinic'
loop_
_space_group_symop_operation_xyz
x,y,z
-x,y,1/2-z
-x,-y,-z
x,-y,1/2+z
1/2+x,1/2+y,z
1/2-x,1/2+y,1/2-z
1/2-x,1/2-y,-z
1/2+x,1/2-y,1/2+z
loop_
_atom_site_type_symbol
_atom_site_label
_atom_site_fract_x
_atom_site_fract_y
_atom_site_fract_z
Si Si1 0.372568 0.602738 0.447930
Si Si2 0.324385 0.211024 0.780612
Si Si3 0.039113 0.407707 0.086323
Si Si4 0.457551 0.707786 0.034524
Si Si5 0.844185 0.105916 0.795469
O O1 0.316637 0.695552 0.390892
O O2 0.470714 0.629707 0.413656
O O3 0.367623 0.593852 0.624177
O O4 0.341055 0.502868 0.369657
O O5 0.364206 0.118113 0.873793
O O6 0.389893 0.256719 0.658450
O O7 0.242136 0.168913 0.702535
O O8 0.000000 0.411935 0.250000
O O9 0.008667 0.308606 0.002502
O O10 0.000000 0.500000 0.000000
O O11 0.411702 0.665542 0.892194
#
# Coordination Sequence:
#
# PCOD9290962 Si02
#       5
#     8   8   8   8   8
#     4  11  24  41  62  94 129 167 211 260 320 389
#     4  10  23  42  62  91 127 165 214 269 315 372
#     4   9  20  36  58  84 117 161 207 253 309 374
#     4  10  22  42  62  87 126 171 213 260 317 382
#     4  12  24  39  65  96 127 168 212 266 322 377
#
# _framework density 20.816503000000001
#
# number of rings (size 3 to 8) (size 9 to 14) (size 15 to 20)
#    0.000    1.600    0.000    5.400    0.000    9.600 
#    0.000    0.000    0.000    0.000    0.000    0.000 
#    0.000    0.000    0.000    0.000    0.000    0.000 
#
# Total GULP energy -111603.500883 kJ/mol
# GULP energy per Si atom -5580.175044 kJ/mol
# Density = 2.076912 g / cm^3
# Si number density = 20.816503 Si / 1000 Ang^3
#
#
#
# Elastic Constant Matrix: (Units=GPa)
#
#
# Indices 1 2 3 4 5 6 
#
# 1 104.5524 38.7614 35.5197 0.0000 24.1883 0.0000
# 2 38.7614 95.7624 58.2114 0.0000 29.8117 0.0000
# 3 35.5197 58.2114 105.6203 0.0000 7.8705 0.0000
# 4 0.0000 0.0000 0.0000 45.7466 0.0000 27.5235
# 5 24.1883 29.8117 7.8705 0.0000 40.0970 0.0000
# 6 0.0000 0.0000 0.0000 27.5235 0.0000 20.2023
#
#
#
# Elastic Compliance Matrix: (Units=1/GPa)
#
#
# Indices 1 2 3 4 5 6 
#
# 1 0.012458 -0.001396 -0.002981 0.000000 -0.005892 0.000000
# 2 -0.001396 0.021318 -0.010312 0.000000 -0.012983 0.000000
# 3 -0.002981 -0.010312 0.015678 0.000000 0.006388 0.000000
# 4 0.000000 0.000000 0.000000 0.121229 0.000000 -0.165162
# 5 -0.005892 -0.012983 0.006388 0.000000 0.036893 0.000000
# 6 0.000000 0.000000 0.000000 -0.165162 0.000000 0.274514
#
#
# Mechanical properties :
#
#
# Convention : Reuss Voigt Hill
#
# Bulk Modulus (GPa) = 49.81323 63.43557 56.62440
# Shear Modulus (GPa) = 9.64952 32.77202 21.21077
#
# Velocity S-wave (km/s) = 2.15536 3.97209 3.19555
# Velocity P-wave (km/s) = 5.49324 7.18168 6.39344
#
# Compressibility (1/GPa) = 0.02007499
#
# Stress axis : x y z
#
# Youngs Moduli (GPa) = 80.26908 46.90892 63.78464
#
# Poissons Ratio (x) = 0.06550 0.19014
# Poissons Ratio (y) = 0.11208 0.65775
# Poissons Ratio (z) = 0.23928 0.48373
#
# Static dielectric constant tensor:
#      x y z
#    x 1.827650 0.000000 -0.041660 
#    y 0.000000 1.752520 0.000000 
#    z -0.041660 0.000000 1.733950 
# 
# From -- ./inp_files/46173.got.cif
#   From: 2010.05.17/outbox.cif.g08.bks.cpg/sg15_24_cif.got.tgz:46173.got - 2010.06.03 18:47:42.
