data_PCOD9290497
_publ_section_title
;
Structure prediction by ZEFSAII (Michael W. Deem and Ramdas Pophale) SiO2 
 PCOD9290497
Probable space group: C 2/C
;
_chemical_formula_sum "Si O2"
_cell_formula_units_Z 48
_cell_length_a 14.347640
_cell_length_b 27.600356
_cell_length_c 5.480224
_cell_angle_alpha 90.000000
_cell_angle_beta 82.687387
_cell_angle_gamma 90.000000
_cell_volume 2152.517368
_symmetry_space_group_name_H-M "C 2/C"
_symmetry_group_IT_number 15
_symmetry_cell_setting 'monoclinic'
loop_
_space_group_symop_operation_xyz
x,y,z
-x,y,1/2-z
-x,-y,-z
x,-y,1/2+z
1/2+x,1/2+y,z
1/2-x,1/2+y,1/2-z
1/2-x,1/2-y,-z
1/2+x,1/2-y,1/2+z
loop_
_atom_site_type_symbol
_atom_site_label
_atom_site_fract_x
_atom_site_fract_y
_atom_site_fract_z
Si Si1 0.332503 0.280587 0.102818
Si Si2 0.896014 0.299353 0.899207
Si Si3 0.208312 0.893933 0.368442
Si Si4 0.000000 0.468611 0.750000
Si Si5 0.000000 0.259059 0.250000
Si Si6 0.815165 0.402327 0.834285
Si Si7 0.108027 0.019300 0.751889
O O1 0.349551 0.251596 0.347391
O O2 0.307225 0.336501 0.136065
O O3 0.250000 0.250000 0.000000
O O4 0.434158 0.274709 0.937622
O O5 0.840716 0.345172 0.827201
O O6 0.000000 0.301473 0.750000
O O7 0.921298 0.295782 0.172159
O O8 0.248933 0.908263 0.619528
O O9 0.116139 0.925340 0.337124
O O10 0.274677 0.909609 0.120424
O O11 0.907764 0.434705 0.775459
O O12 0.000000 0.500000 0.500000
O O13 0.000000 0.004542 0.750000
O O14 0.150818 0.009602 0.469014
#
# Coordination Sequence:
#
# PCOD9290497 Si02
#       7
#     8   8   8   4   4   8   8
#     4  11  23  43  65 104 144 187 239 294 354 423
#     4  10  22  41  66  95 136 188 238 277 339 427
#     4  12  27  42  73 107 141 182 231 294 350 431
#     4  12  28  49  74 106 142 184 243 312 358 422
#     4  10  24  39  66  96 142 194 239 296 346 416
#     4  12  26  45  70 103 138 189 231 287 364 421
#     4  10  23  47  71  96 131 177 225 283 349 418
#
# _framework density 22.299468999999998
#
# number of rings (size 3 to 8) (size 9 to 14) (size 15 to 20)
#    0.000    1.000    2.500    3.000    4.667    8.000 
#    4.500    0.000    0.000    0.000    0.000    0.000 
#    0.000    0.000    0.000    0.000    0.000    0.000 
#
# Total GULP energy -133899.515485 kJ/mol
# GULP energy per Si atom -5579.146479 kJ/mol
# Density = 2.224871 g / cm^3
# Si number density = 22.299469 Si / 1000 Ang^3
#
#
#
# Elastic Constant Matrix: (Units=GPa)
#
#
# Indices 1 2 3 4 5 6 
#
# 1 48.3007 16.7427 39.0939 0.0000 -0.8324 0.0000
# 2 16.7427 121.7203 47.3543 0.0000 16.0950 0.0000
# 3 39.0939 47.3543 146.9399 0.0000 15.7253 0.0000
# 4 0.0000 0.0000 0.0000 21.4982 0.0000 18.5378
# 5 -0.8324 16.0950 15.7253 0.0000 48.1326 0.0000
# 6 0.0000 0.0000 0.0000 18.5378 0.0000 26.9561
#
#
#
# Elastic Compliance Matrix: (Units=1/GPa)
#
#
# Indices 1 2 3 4 5 6 
#
# 1 0.026966 -0.001385 -0.007075 0.000000 0.003241 0.000000
# 2 -0.001385 0.009701 -0.002495 0.000000 -0.002453 0.000000
# 3 -0.007075 -0.002495 0.009757 0.000000 -0.002476 0.000000
# 4 0.000000 0.000000 0.000000 0.114290 0.000000 -0.078597
# 5 0.003241 -0.002453 -0.002476 0.000000 0.022461 0.000000
# 6 0.000000 0.000000 0.000000 -0.078597 0.000000 0.091149
#
#
# Mechanical properties :
#
#
# Convention : Reuss Voigt Hill
#
# Bulk Modulus (GPa) = 40.79455 58.14918 49.47186
# Shear Modulus (GPa) = 16.42546 33.56872 24.99709
#
# Velocity S-wave (km/s) = 2.71695 3.88411 3.35172
# Velocity P-wave (km/s) = 5.30812 6.80060 6.10017
#
# Compressibility (1/GPa) = 0.02451308
#
# Stress axis : x y z
#
# Youngs Moduli (GPa) = 37.08391 103.07979 102.49185
#
# Poissons Ratio (x) = 0.14280 0.72510
# Poissons Ratio (y) = 0.05137 0.25575
# Poissons Ratio (z) = 0.26236 0.25722
#
# Static dielectric constant tensor:
#      x y z
#    x 1.836910 0.000000 -0.008880 
#    y 0.000000 1.800600 0.000000 
#    z -0.008880 0.000000 2.034190 
# 
# From -- ./inp_files/8283.got.cif
#   From: 2010.05.17/outbox.cif.g08.bks.cpg/sg15_5_cif.got.tgz:8283.got - 2010.06.03 18:47:42.
