data_PCOD9290741
_publ_section_title
;
Structure prediction by ZEFSAII (Michael W. Deem and Ramdas Pophale) SiO2 
 PCOD9290741
Probable space group: C 2/C
;
_chemical_formula_sum "Si O2"
_cell_formula_units_Z 44
_cell_length_a 21.419589
_cell_length_b 8.708959
_cell_length_c 26.377550
_cell_angle_alpha 90.000000
_cell_angle_beta 21.360391
_cell_angle_gamma 90.000000
_cell_volume 1792.219451
_symmetry_space_group_name_H-M "C 2/C"
_symmetry_group_IT_number 15
_symmetry_cell_setting 'monoclinic'
loop_
_space_group_symop_operation_xyz
x,y,z
-x,y,1/2-z
-x,-y,-z
x,-y,1/2+z
1/2+x,1/2+y,z
1/2-x,1/2+y,1/2-z
1/2-x,1/2-y,-z
1/2+x,1/2-y,1/2+z
loop_
_atom_site_type_symbol
_atom_site_label
_atom_site_fract_x
_atom_site_fract_y
_atom_site_fract_z
Si Si1 0.407779 0.139229 0.686953
Si Si2 0.532901 0.531485 0.324294
Si Si3 0.304973 0.405409 0.584980
Si Si4 0.722524 0.076469 0.501735
Si Si5 0.131031 0.360671 0.399183
Si Si6 0.000000 0.612222 0.250000
O O1 0.400924 0.293751 0.725636
O O2 0.608279 0.083376 0.537570
O O3 0.355062 0.181197 0.670289
O O4 0.289681 0.009512 0.801447
O O5 0.410816 0.509763 0.466003
O O6 0.408203 0.501891 0.370627
O O7 0.687748 0.418490 0.216941
O O8 0.419749 0.282582 0.527580
O O9 0.159971 0.319605 0.660048
O O10 0.750000 0.250000 0.500000
O O11 0.594695 0.992548 0.636943
O O12 0.000000 0.500000 0.500000
#
# Coordination Sequence:
#
# PCOD9290741 Si02
#       6
#     8   8   8   8   8   4
#     4  10  22  41  69  96 126 169 217 271 326 386
#     4  10  23  43  69  95 128 171 218 268 327 384
#     4  10  23  44  70  93 135 172 215 275 328 383
#     4   8  16  37  63  94 120 158 211 265 318 382
#     4  12  28  42  58  96 135 174 225 261 322 394
#     4   8  16  38  66  94 120 168 214 264 328 380
#
# _framework density 24.550564000000001
#
# number of rings (size 3 to 8) (size 9 to 14) (size 15 to 20)
#    0.000    2.182    0.000    1.091    7.636    1.455 
#    6.545    2.727    0.000    0.000    0.000    0.000 
#    0.000    0.000    0.000    0.000    0.000    0.000 
#
# Total GULP energy -122965.267350 kJ/mol
# GULP energy per Si atom -5589.330334 kJ/mol
# Density = 2.449469 g / cm^3
# Si number density = 24.550564 Si / 1000 Ang^3
#
#
#
# Elastic Constant Matrix: (Units=GPa)
#
#
# Indices 1 2 3 4 5 6 
#
# 1 106.8659 40.4630 35.8315 0.0014 -9.3187 0.0057
# 2 40.4630 50.5902 9.6840 0.0006 -9.1884 -0.0013
# 3 35.8315 9.6840 60.3922 0.0014 -14.8881 -0.0012
# 4 0.0014 0.0006 0.0014 28.3555 -0.0006 -17.4113
# 5 -9.3187 -9.1884 -14.8881 -0.0006 31.7664 -0.0046
# 6 0.0057 -0.0013 -0.0012 -17.4113 -0.0046 69.0725
#
#
#
# Elastic Compliance Matrix: (Units=1/GPa)
#
#
# Indices 1 2 3 4 5 6 
#
# 1 0.016574 -0.012100 -0.008544 -0.000002 -0.002643 -0.000002
# 2 -0.012100 0.029935 0.004114 0.000001 0.007037 0.000002
# 3 -0.008544 0.004114 0.023340 0.000001 0.009622 0.000002
# 4 -0.000002 0.000001 0.000001 0.041725 0.000003 0.010518
# 5 -0.002643 0.007037 0.009622 0.000003 0.037250 0.000004
# 6 -0.000002 0.000002 0.000002 0.010518 0.000004 0.017129
#
#
# Mechanical properties :
#
#
# Convention : Reuss Voigt Hill
#
# Bulk Modulus (GPa) = 27.18304 43.31170 35.24737
# Shear Modulus (GPa) = 23.66562 34.63019 29.14791
#
# Velocity S-wave (km/s) = 3.10813 3.75982 3.44940
# Velocity P-wave (km/s) = 4.89662 6.04388 5.50025
#
# Compressibility (1/GPa) = 0.03678764
#
# Stress axis : x y z
#
# Youngs Moduli (GPa) = 60.33712 33.40536 42.84406
#
# Poissons Ratio (x) = 0.40421 0.36608
# Poissons Ratio (y) = 0.73009 -0.17625
# Poissons Ratio (z) = 0.51555 -0.13742
#
# Static dielectric constant tensor:
#      x y z
#    x 1.979700 0.000000 -0.042450 
#    y 0.000000 1.843010 0.000000 
#    z -0.042450 0.000000 1.948420 
# 
# From -- ./inp_files/110180.got.cif
#   From: 2010.05.17/outbox.cif.g08.bks.cpg/sg15_56_cif.got.tgz:110180.got - 2010.06.03 18:47:42.
