data_PCOD9290090
_publ_section_title
;
Structure prediction by ZEFSAII (Michael W. Deem and Ramdas Pophale) SiO2 
 PCOD9290090
Probable space group: C 2/C
;
_chemical_formula_sum "Si O2"
_cell_formula_units_Z 40
_cell_length_a 24.657538
_cell_length_b 11.665703
_cell_length_c 15.291444
_cell_angle_alpha 90.000000
_cell_angle_beta 157.458534
_cell_angle_gamma 90.000000
_cell_volume 1686.191182
_symmetry_space_group_name_H-M "C 2/C"
_symmetry_group_IT_number 15
_symmetry_cell_setting 'monoclinic'
loop_
_space_group_symop_operation_xyz
x,y,z
-x,y,1/2-z
-x,-y,-z
x,-y,1/2+z
1/2+x,1/2+y,z
1/2-x,1/2+y,1/2-z
1/2-x,1/2-y,-z
1/2+x,1/2-y,1/2+z
loop_
_atom_site_type_symbol
_atom_site_label
_atom_site_fract_x
_atom_site_fract_y
_atom_site_fract_z
Si Si1 0.469189 0.098430 0.042955
Si Si2 0.728870 0.536289 0.963994
Si Si3 0.031912 0.839242 0.395251
Si Si4 0.309924 0.092985 0.406763
Si Si5 0.772524 0.818434 0.443827
O O1 0.375081 0.139314 0.820381
O O2 0.416015 0.979295 0.005029
O O3 0.637954 0.089181 0.285958
O O4 0.440390 0.203865 0.064705
O O5 0.660009 0.435882 0.921110
O O6 0.610708 0.629193 0.765321
O O7 0.786446 0.477423 0.961379
O O8 0.000000 0.873931 0.250000
O O9 0.162897 0.900435 0.635600
O O10 0.342505 0.225453 0.482350
O O11 0.750000 0.750000 0.500000
#
# Coordination Sequence:
#
# PCOD9290090 Si02
#       5
#     8   8   8   8   8
#     4  11  22  40  66  95 128 172 221 275 332 399
#     4  11  21  40  65  94 128 167 219 279 332 397
#     4  11  23  39  61  93 128 170 219 275 337 397
#     4  10  22  41  61  90 131 172 217 269 333 405
#     4   9  21  40  62  92 129 171 218 266 327 394
#
# _framework density 23.722102
#
# number of rings (size 3 to 8) (size 9 to 14) (size 15 to 20)
#    0.000    1.600    0.000    4.800    0.000    0.000 
#    0.000   30.000    0.000    0.000    0.000    0.000 
#    0.000    0.000    0.000    0.000    0.000    0.000 
#
# Total GULP energy -111689.252138 kJ/mol
# GULP energy per Si atom -5584.462607 kJ/mol
# Density = 2.366811 g / cm^3
# Si number density = 23.722102 Si / 1000 Ang^3
#
#
#
# Elastic Constant Matrix: (Units=GPa)
#
#
# Indices 1 2 3 4 5 6 
#
# 1 50.1081 33.0410 33.3597 0.0000 -19.8914 0.0000
# 2 33.0410 108.9225 42.2381 0.0000 -1.6451 0.0000
# 3 33.3597 42.2381 127.2323 0.0000 -12.9267 0.0000
# 4 0.0000 0.0000 0.0000 21.9337 0.0000 4.6102
# 5 -19.8914 -1.6451 -12.9267 0.0000 41.4682 0.0000
# 6 0.0000 0.0000 0.0000 4.6102 0.0000 26.2200
#
#
#
# Elastic Compliance Matrix: (Units=1/GPa)
#
#
# Indices 1 2 3 4 5 6 
#
# 1 0.034520 -0.008401 -0.004764 0.000000 0.014740 0.000000
# 2 -0.008401 0.012601 -0.002416 0.000000 -0.004283 0.000000
# 3 -0.004764 -0.002416 0.009985 0.000000 0.000731 0.000000
# 4 0.000000 0.000000 0.000000 0.047342 0.000000 -0.008324
# 5 0.014740 -0.004283 0.000731 0.000000 0.031243 0.000000
# 6 0.000000 0.000000 0.000000 -0.008324 0.000000 0.039602
#
#
# Mechanical properties :
#
#
# Convention : Reuss Voigt Hill
#
# Bulk Modulus (GPa) = 38.54511 55.94895 47.24703
# Shear Modulus (GPa) = 23.24457 29.76600 26.50529
#
# Velocity S-wave (km/s) = 3.13368 3.54613 3.34627
# Velocity P-wave (km/s) = 5.42007 6.35634 5.90679
#
# Compressibility (1/GPa) = 0.02594363
#
# Stress axis : x y z
#
# Youngs Moduli (GPa) = 28.96894 79.35633 100.14906
#
# Poissons Ratio (x) = 0.66669 0.47714
# Poissons Ratio (y) = 0.24337 0.24194
# Poissons Ratio (z) = 0.13802 0.19171
#
# Static dielectric constant tensor:
#      x y z
#    x 1.986730 0.000000 0.039560 
#    y 0.000000 1.905020 0.000000 
#    z 0.039560 0.000000 1.897060 
# 
# From -- ./inp_files/122776.got.cif
#   From: 2010.05.17/outbox.cif.g08.bks.cpg/sg15_62_cif.got.tgz:122776.got - 2010.06.03 18:47:42.
