data_PCOD9290620
_publ_section_title
;
Structure prediction by ZEFSAII (Michael W. Deem and Ramdas Pophale) SiO2 
 PCOD9290620
Probable space group: C 2/C
;
_chemical_formula_sum "Si O2"
_cell_formula_units_Z 56
_cell_length_a 14.648626
_cell_length_b 27.024281
_cell_length_c 9.031203
_cell_angle_alpha 90.000000
_cell_angle_beta 136.610488
_cell_angle_gamma 90.000000
_cell_volume 2455.978813
_symmetry_space_group_name_H-M "C 2/C"
_symmetry_group_IT_number 15
_symmetry_cell_setting 'monoclinic'
loop_
_space_group_symop_operation_xyz
x,y,z
-x,y,1/2-z
-x,-y,-z
x,-y,1/2+z
1/2+x,1/2+y,z
1/2-x,1/2+y,1/2-z
1/2-x,1/2-y,-z
1/2+x,1/2-y,1/2+z
loop_
_atom_site_type_symbol
_atom_site_label
_atom_site_fract_x
_atom_site_fract_y
_atom_site_fract_z
Si Si1 0.461669 0.448952 0.376689
Si Si2 0.546574 0.219292 0.165056
Si Si3 0.235057 0.597044 0.767254
Si Si4 0.363939 0.271885 0.684216
Si Si5 0.045270 0.620302 0.970208
Si Si6 0.826190 0.887961 0.700093
Si Si7 0.218184 0.286324 0.181802
O O1 0.500000 0.449826 0.250000
O O2 0.500000 0.500000 0.500000
O O3 0.308860 0.435724 0.232695
O O4 0.549195 0.407688 0.563671
O O5 0.422924 0.246739 0.916380
O O6 0.562425 0.168595 0.091042
O O7 0.396986 0.209475 0.094234
O O8 0.662603 0.258016 0.258464
O O9 0.242499 0.654654 0.731247
O O10 0.077874 0.588824 0.611759
O O11 0.311106 0.592089 0.014617
O O12 0.500000 0.266947 0.750000
O O13 0.334400 0.328537 0.700055
O O14 0.259694 0.269964 0.409643
O O15 0.000000 0.636243 0.750000
O O16 0.189512 0.596854 0.121019
#
# Coordination Sequence:
#
# PCOD9290620 Si02
#       7
#     8   8   8   8   8   8   8
#     4  12  28  51  77 104 136 175 236 304 367 425
#     4  11  23  37  52  79 128 182 231 285 332 393
#     4  10  22  41  67  99 138 176 226 287 351 417
#     4  12  23  34  61  98 143 189 244 283 333 412
#     4   9  21  40  64  96 131 174 225 274 337 419
#     4  11  22  41  70 104 138 185 236 292 351 416
#     4  11  23  35  55  89 133 184 234 278 336 407
#
# _framework density 22.801500000000001
#
# number of rings (size 3 to 8) (size 9 to 14) (size 15 to 20)
#    0.000    1.143    2.857    3.429    4.000    2.857 
#    0.000    0.714    0.000    0.000    0.000    0.000 
#    0.000    0.000    0.000    0.000    0.000    0.000 
#
# Total GULP energy -156421.019280 kJ/mol
# GULP energy per Si atom -5586.464974 kJ/mol
# Density = 2.274960 g / cm^3
# Si number density = 22.801500 Si / 1000 Ang^3
#
#
#
# Elastic Constant Matrix: (Units=GPa)
#
#
# Indices 1 2 3 4 5 6 
#
# 1 186.2235 47.7226 49.5704 0.0000 3.9844 0.0000
# 2 47.7226 55.0575 18.3114 0.0000 2.3396 0.0000
# 3 49.5704 18.3114 159.4867 0.0000 14.2476 0.0000
# 4 0.0000 0.0000 0.0000 30.3897 0.0000 -8.4912
# 5 3.9844 2.3396 14.2476 0.0000 55.8663 0.0000
# 6 0.0000 0.0000 0.0000 -8.4912 0.0000 27.8677
#
#
#
# Elastic Compliance Matrix: (Units=1/GPa)
#
#
# Indices 1 2 3 4 5 6 
#
# 1 0.007276 -0.005777 -0.001610 0.000000 0.000134 0.000000
# 2 -0.005777 0.023474 -0.000868 0.000000 -0.000350 0.000000
# 3 -0.001610 -0.000868 0.007017 0.000000 -0.001638 0.000000
# 4 0.000000 0.000000 0.000000 0.035968 0.000000 0.010959
# 5 0.000134 -0.000350 -0.001638 0.000000 0.018323 0.000000
# 6 0.000000 0.000000 0.000000 0.010959 0.000000 0.039223
#
#
# Mechanical properties :
#
#
# Convention : Reuss Voigt Hill
#
# Bulk Modulus (GPa) = 47.04638 70.21961 58.63299
# Shear Modulus (GPa) = 32.28379 41.83562 37.05970
#
# Velocity S-wave (km/s) = 3.76688 4.28807 4.03590
# Velocity P-wave (km/s) = 6.29261 7.44175 6.89118
#
# Compressibility (1/GPa) = 0.02125562
#
# Stress axis : x y z
#
# Youngs Moduli (GPa) = 137.43716 42.60075 142.51862
#
# Poissons Ratio (x) = 0.24610 0.22948
# Poissons Ratio (y) = 0.79396 0.12376
# Poissons Ratio (z) = 0.22130 0.03699
#
# Static dielectric constant tensor:
#      x y z
#    x 1.903270 0.000000 0.082930 
#    y 0.000000 1.769350 0.000000 
#    z 0.082930 0.000000 2.059190 
# 
# From -- ./inp_files/44611.got.cif
#   From: 2010.05.17/outbox.cif.g08.bks.cpg/sg15_23_cif.got.tgz:44611.got - 2010.06.03 18:47:42.
