data_PCOD9290224
_publ_section_title
;
Structure prediction by ZEFSAII (Michael W. Deem and Ramdas Pophale) SiO2 
 PCOD9290224
Probable space group: C 2/C
;
_chemical_formula_sum "Si O2"
_cell_formula_units_Z 56
_cell_length_a 21.794467
_cell_length_b 14.283877
_cell_length_c 8.784179
_cell_angle_alpha 90.000000
_cell_angle_beta 78.206294
_cell_angle_gamma 90.000000
_cell_volume 2676.870461
_symmetry_space_group_name_H-M "C 2/C"
_symmetry_group_IT_number 15
_symmetry_cell_setting 'monoclinic'
loop_
_space_group_symop_operation_xyz
x,y,z
-x,y,1/2-z
-x,-y,-z
x,-y,1/2+z
1/2+x,1/2+y,z
1/2-x,1/2+y,1/2-z
1/2-x,1/2-y,-z
1/2+x,1/2-y,1/2+z
loop_
_atom_site_type_symbol
_atom_site_label
_atom_site_fract_x
_atom_site_fract_y
_atom_site_fract_z
Si Si1 0.589675 0.656392 0.458029
Si Si2 0.186810 0.699357 0.582745
Si Si3 0.000000 0.842852 0.250000
Si Si4 0.730444 0.003847 0.023637
Si Si5 0.309881 0.797490 0.051405
Si Si6 0.906380 0.166073 0.544222
Si Si7 0.000000 0.842741 0.750000
Si Si8 0.677108 0.497809 0.276626
O O1 0.546978 0.606739 0.608168
O O2 0.630674 0.734506 0.520331
O O3 0.545655 0.703682 0.351451
O O4 0.633729 0.583953 0.346830
O O5 0.250000 0.750000 0.500000
O O6 0.193229 0.592235 0.526543
O O7 0.188640 0.705328 0.765344
O O8 0.130772 0.754288 0.528356
O O9 0.952968 0.795605 0.152261
O O10 0.799846 0.003958 0.908499
O O11 0.692449 0.095271 0.997623
O O12 0.754025 0.009140 0.184670
O O13 0.250000 0.750000 0.000000
O O14 0.949999 0.113369 0.395166
O O15 0.857782 0.095714 0.650285
#
# Coordination Sequence:
#
# PCOD9290224 Si02
#       8
#     8   8   4   8   8   8   4   8
#     4  11  23  41  64  92 133 175 221 273 323 389
#     4  12  24  42  68  97 132 177 216 272 339 389
#     4  10  26  41  62  97 130 180 226 271 320 393
#     4  12  24  39  63 103 138 170 210 264 340 399
#     4  12  25  42  68  99 131 175 215 276 332 390
#     4  11  23  42  65  95 134 177 226 271 328 391
#     4  10  22  41  64  87 126 186 224 267 324 389
#     4  12  23  37  63  99 138 175 214 266 321 411
#
# _framework density 20.919951000000001
#
# number of rings (size 3 to 8) (size 9 to 14) (size 15 to 20)
#    0.000    0.571    5.714    2.571    2.000    3.429 
#    0.000    0.000    0.000    5.143    0.000    0.000 
#    0.000    0.000    0.000    0.000    0.000    0.000 
#
# Total GULP energy -156078.875422 kJ/mol
# GULP energy per Si atom -5574.245551 kJ/mol
# Density = 2.087234 g / cm^3
# Si number density = 20.919951 Si / 1000 Ang^3
#
#
#
# Elastic Constant Matrix: (Units=GPa)
#
#
# Indices 1 2 3 4 5 6 
#
# 1 111.5086 55.5797 43.2958 0.0000 33.6173 0.0000
# 2 55.5797 139.0091 34.6301 0.0000 14.9512 0.0000
# 3 43.2958 34.6301 93.4236 0.0000 13.5369 0.0000
# 4 0.0000 0.0000 0.0000 22.7526 0.0000 7.1607
# 5 33.6173 14.9512 13.5369 0.0000 57.8958 0.0000
# 6 0.0000 0.0000 0.0000 7.1607 0.0000 -12.8834
#
#
#
# Elastic Compliance Matrix: (Units=1/GPa)
#
#
# Indices 1 2 3 4 5 6 
#
# 1 0.014617 -0.004074 -0.004333 0.000000 -0.006422 0.000000
# 2 -0.004074 0.009174 -0.001565 0.000000 0.000363 0.000000
# 3 -0.004333 -0.001565 0.013320 0.000000 -0.000194 0.000000
# 4 0.000000 0.000000 0.000000 0.037408 0.000000 0.020791
# 5 -0.006422 0.000363 -0.000194 0.000000 0.020953 0.000000
# 6 0.000000 0.000000 0.000000 0.020791 0.000000 -0.066063
#
#
# Mechanical properties :
#
#
# Convention : Reuss Voigt Hill
#
# Bulk Modulus (GPa) = 58.25321 67.88360 63.06841
# Shear Modulus (GPa) = 90.78406 27.58206 59.18306
#
# Velocity S-wave (km/s) = 6.59470 3.63500 5.32463
# Velocity P-wave (km/s) = 9.26785 7.08077 8.24713
#
# Compressibility (1/GPa) = 0.01716644
#
# Stress axis : x y z
#
# Youngs Moduli (GPa) = 68.41216 109.00883 75.07281
#
# Poissons Ratio (x) = 0.44411 0.32532
# Poissons Ratio (y) = 0.27872 0.11748
# Poissons Ratio (z) = 0.29646 0.17059
#
# Static dielectric constant tensor:
#      x y z
#    x 1.752490 0.000000 0.044230 
#    y 0.000000 1.738810 0.000000 
#    z 0.044230 0.000000 1.706710 
# 
# From -- ./inp_files/55675.got.cif
#   From: 2010.05.17/outbox.cif.g08.bks.cpg/sg15_28_cif.got.tgz:55675.got - 2010.06.03 18:47:42.
