data_PCOD9290378
_publ_section_title
;
Structure prediction by ZEFSAII (Michael W. Deem and Ramdas Pophale) SiO2 
 PCOD9290378
Probable space group: C 2/C
;
_chemical_formula_sum "Si O2"
_cell_formula_units_Z 32
_cell_length_a 18.743358
_cell_length_b 4.748542
_cell_length_c 16.284120
_cell_angle_alpha 90.000000
_cell_angle_beta 64.174977
_cell_angle_gamma 90.000000
_cell_volume 1304.597499
_symmetry_space_group_name_H-M "C 2/C"
_symmetry_group_IT_number 15
_symmetry_cell_setting 'monoclinic'
loop_
_space_group_symop_operation_xyz
x,y,z
-x,y,1/2-z
-x,-y,-z
x,-y,1/2+z
1/2+x,1/2+y,z
1/2-x,1/2+y,1/2-z
1/2-x,1/2-y,-z
1/2+x,1/2-y,1/2+z
loop_
_atom_site_type_symbol
_atom_site_label
_atom_site_fract_x
_atom_site_fract_y
_atom_site_fract_z
Si Si1 0.688225 0.479375 0.370321
Si Si2 0.947728 0.307215 0.964929
Si Si3 0.057431 0.821729 0.646070
Si Si4 0.206365 0.026901 0.669479
O O1 0.616990 0.623644 0.453954
O O2 0.713461 0.161314 0.377831
O O3 0.677932 0.513093 0.277706
O O4 0.766988 0.653551 0.353299
O O5 0.920289 0.544275 0.915136
O O6 0.985035 0.059764 0.889413
O O7 0.000000 0.500000 0.000000
O O8 0.138204 0.949339 0.641235
O O9 0.000000 0.747851 0.750000
#
# Coordination Sequence:
#
# PCOD9290378 Si02
#       4
#     8   8   8   8
#     4  10  22  41  66  94 129 171 216 270 329 392
#     4  12  26  43  66  95 131 172 219 271 326 391
#     4  12  26  43  66  95 132 173 218 272 326 390
#     4  10  22  41  65  94 129 170 216 268 330 391
#
# _framework density 24.528638000000001
#
# number of rings (size 3 to 8) (size 9 to 14) (size 15 to 20)
#    0.000    1.000    0.000    6.000    0.000   12.000 
#    0.000    0.000    0.000    0.000    0.000    0.000 
#    0.000    0.000    0.000    0.000    0.000    0.000 
#
# Total GULP energy -89586.923690 kJ/mol
# GULP energy per Si atom -5599.182731 kJ/mol
# Density = 2.447281 g / cm^3
# Si number density = 24.528638 Si / 1000 Ang^3
#
#
#
# Elastic Constant Matrix: (Units=GPa)
#
#
# Indices 1 2 3 4 5 6 
#
# 1 82.4076 4.9371 28.8435 0.0038 15.5072 -0.0001
# 2 4.9371 101.9891 21.0833 0.0145 15.4620 0.0041
# 3 28.8435 21.0833 114.6633 -0.0016 -6.1349 0.0025
# 4 0.0038 0.0145 -0.0016 13.5110 0.0010 -5.3881
# 5 15.5072 15.4620 -6.1349 0.0010 26.6566 0.0012
# 6 -0.0001 0.0041 0.0025 -5.3881 0.0012 34.5804
#
#
#
# Elastic Compliance Matrix: (Units=1/GPa)
#
#
# Indices 1 2 3 4 5 6 
#
# 1 0.015948 0.002021 -0.005004 -0.000007 -0.011602 0.000000
# 2 0.002021 0.011664 -0.003116 -0.000014 -0.008659 -0.000003
# 3 -0.005004 -0.003116 0.010940 0.000006 0.007237 0.000000
# 4 -0.000007 -0.000014 0.000006 0.078917 0.000010 0.012296
# 5 -0.011602 -0.008659 0.007237 0.000010 0.050952 0.000000
# 6 0.000000 -0.000003 0.000000 0.012296 0.000000 0.030834
#
#
# Mechanical properties :
#
#
# Convention : Reuss Voigt Hill
#
# Bulk Modulus (GPa) = 37.94476 45.42086 41.68281
# Shear Modulus (GPa) = 22.70262 31.22935 26.96598
#
# Velocity S-wave (km/s) = 3.04560 3.57203 3.31927
# Velocity P-wave (km/s) = 5.27927 5.96408 5.63209
#
# Compressibility (1/GPa) = 0.02635410
#
# Stress axis : x y z
#
# Youngs Moduli (GPa) = 62.70197 85.73339 91.40582
#
# Poissons Ratio (x) = -0.17330 0.45742
# Poissons Ratio (y) = -0.12674 0.28486
# Poissons Ratio (z) = 0.31378 0.26718
#
# Static dielectric constant tensor:
#      x y z
#    x 1.956010 -0.000010 -0.005010 
#    y -0.000010 1.871470 -0.000010 
#    z -0.005010 -0.000010 1.961960 
# 
# From -- ./inp_files/158189.got.cif
#   From: 2010.05.17/outbox.cif.g08.bks.cpg/sg15_80_cif.got.tgz:158189.got - 2010.06.03 18:47:42.
