data_PCOD9290457
_publ_section_title
;
Structure prediction by ZEFSAII (Michael W. Deem and Ramdas Pophale) SiO2 
 PCOD9290457
Probable space group: C 2/C
;
_chemical_formula_sum "Si O2"
_cell_formula_units_Z 56
_cell_length_a 12.387177
_cell_length_b 7.882692
_cell_length_c 21.717719
_cell_angle_alpha 90.000000
_cell_angle_beta 95.477032
_cell_angle_gamma 90.000000
_cell_volume 2110.929925
_symmetry_space_group_name_H-M "C 2/C"
_symmetry_group_IT_number 15
_symmetry_cell_setting 'monoclinic'
loop_
_space_group_symop_operation_xyz
x,y,z
-x,y,1/2-z
-x,-y,-z
x,-y,1/2+z
1/2+x,1/2+y,z
1/2-x,1/2+y,1/2-z
1/2-x,1/2-y,-z
1/2+x,1/2-y,1/2+z
loop_
_atom_site_type_symbol
_atom_site_label
_atom_site_fract_x
_atom_site_fract_y
_atom_site_fract_z
Si Si1 0.032084 0.201542 0.682361
Si Si2 0.752347 0.068772 0.920191
Si Si3 0.639750 0.794848 0.070483
Si Si4 0.416081 0.300254 0.800306
Si Si5 0.140795 0.958183 0.397559
Si Si6 0.079027 0.761126 0.989257
Si Si7 0.763350 0.785602 0.690387
O O1 0.136166 0.316973 0.676551
O O2 0.000000 0.240442 0.750000
O O3 0.931841 0.197994 0.629694
O O4 0.069245 0.001428 0.685186
O O5 0.654473 0.127173 0.957964
O O6 0.717387 0.118585 0.849615
O O7 0.796024 0.881982 0.929302
O O8 0.855569 0.184861 0.946722
O O9 0.581732 0.794855 0.134480
O O10 0.738898 0.923168 0.071429
O O11 0.544273 0.799625 0.015523
O O12 0.500000 0.251810 0.750000
O O13 0.299872 0.268051 0.762253
O O14 0.080679 0.071140 0.445278
O O15 0.164236 0.070995 0.338035
#
# Coordination Sequence:
#
# PCOD9290457 Si02
#       7
#     8   8   8   8   8   8   8
#     4  11  20  39  59  88 126 163 200 261 310 371
#     4  10  22  41  66  90 127 168 208 254 313 368
#     4  12  23  39  67  95 122 169 210 254 316 371
#     4  11  20  37  63  88 124 160 205 253 306 369
#     4  11  23  39  63  93 123 159 210 260 311 366
#     4  10  22  44  63  91 126 165 209 261 307 365
#     4  11  21  39  64  89 123 168 201 251 318 368
#
# _framework density 26.528593000000001
#
# number of rings (size 3 to 8) (size 9 to 14) (size 15 to 20)
#    0.000    1.143    5.714    2.143    0.000    1.714 
#    0.000    7.143    0.000    0.000    0.000    0.000 
#    0.000    0.000    0.000    0.000    0.000    0.000 
#
# Total GULP energy -156914.496600 kJ/mol
# GULP energy per Si atom -5604.089164 kJ/mol
# Density = 2.646821 g / cm^3
# Si number density = 26.528593 Si / 1000 Ang^3
#
#
#
# Elastic Constant Matrix: (Units=GPa)
#
#
# Indices 1 2 3 4 5 6 
#
# 1 114.3853 17.6268 26.8776 0.0000 32.4482 0.0000
# 2 17.6268 42.4812 13.8669 0.0000 7.4036 0.0000
# 3 26.8776 13.8669 115.7479 0.0000 20.4000 0.0000
# 4 0.0000 0.0000 0.0000 20.2541 0.0000 10.5335
# 5 32.4482 7.4036 20.4000 0.0000 54.5049 0.0000
# 6 0.0000 0.0000 0.0000 10.5335 0.0000 46.7121
#
#
#
# Elastic Compliance Matrix: (Units=1/GPa)
#
#
# Indices 1 2 3 4 5 6 
#
# 1 0.011153 -0.003237 -0.001188 0.000000 -0.005755 0.000000
# 2 -0.003237 0.025731 -0.002200 0.000000 -0.000745 0.000000
# 3 -0.001188 -0.002200 0.009637 0.000000 -0.002601 0.000000
# 4 0.000000 0.000000 0.000000 0.055932 0.000000 -0.012613
# 5 -0.005755 -0.000745 -0.002601 0.000000 0.022848 0.000000
# 6 0.000000 0.000000 0.000000 -0.012613 0.000000 0.024252
#
#
# Mechanical properties :
#
#
# Convention : Reuss Voigt Hill
#
# Bulk Modulus (GPa) = 30.05500 43.26186 36.65843
# Shear Modulus (GPa) = 28.75341 38.57708 33.66525
#
# Velocity S-wave (km/s) = 3.29578 3.81750 3.56619
# Velocity P-wave (km/s) = 5.08299 5.98114 5.55026
#
# Compressibility (1/GPa) = 0.03327234
#
# Stress axis : x y z
#
# Youngs Moduli (GPa) = 89.66251 38.86392 103.76435
#
# Poissons Ratio (x) = 0.12580 0.12323
# Poissons Ratio (y) = 0.29023 0.22825
# Poissons Ratio (z) = 0.10649 0.08549
#
# Static dielectric constant tensor:
#      x y z
#    x 2.089100 0.000000 -0.006400 
#    y 0.000000 2.054480 0.000000 
#    z -0.006400 0.000000 2.044420 
# 
# From -- ./inp_files/291493.got.cif
#   From: 2010.05.17/outbox.cif.g08.bks.cpg/sg15_146_cif.got.tgz:291493.got - 2010.06.03 18:47:42.
