data_PCOD9290202
_publ_section_title
;
Structure prediction by ZEFSAII (Michael W. Deem and Ramdas Pophale) SiO2 
 PCOD9290202
Probable space group: C 2/C
;
_chemical_formula_sum "Si O2"
_cell_formula_units_Z 28
_cell_length_a 10.664207
_cell_length_b 8.475588
_cell_length_c 13.538326
_cell_angle_alpha 90.000000
_cell_angle_beta 62.173354
_cell_angle_gamma 90.000000
_cell_volume 1082.167328
_symmetry_space_group_name_H-M "C 2/C"
_symmetry_group_IT_number 15
_symmetry_cell_setting 'monoclinic'
loop_
_space_group_symop_operation_xyz
x,y,z
-x,y,1/2-z
-x,-y,-z
x,-y,1/2+z
1/2+x,1/2+y,z
1/2-x,1/2+y,1/2-z
1/2-x,1/2-y,-z
1/2+x,1/2-y,1/2+z
loop_
_atom_site_type_symbol
_atom_site_label
_atom_site_fract_x
_atom_site_fract_y
_atom_site_fract_z
Si Si1 0.204672 0.800856 0.906650
Si Si2 0.403996 0.195847 0.984527
Si Si3 0.258007 0.022409 0.208328
Si Si4 0.500000 0.756086 0.250000
O O1 0.263911 0.951202 0.824366
O O2 0.262674 0.656994 0.816908
O O3 0.250000 0.750000 0.000000
O O4 0.032281 0.811257 0.970891
O O5 0.375393 0.086622 0.088329
O O6 0.250000 0.250000 0.000000
O O7 0.473509 0.140033 0.855974
O O8 0.126029 0.134405 0.227268
#
# Coordination Sequence:
#
# PCOD9290202 Si02
#       4
#     8   8   8   4
#     4  11  25  42  67 101 131 172 224 273 329 393
#     4   9  19  40  66  94 132 175 218 270 329 390
#     4  10  22  41  63  94 135 173 217 274 328 389
#     4   8  18  36  62  94 130 176 216 264 334 390
#
# _framework density 25.874005
#
# number of rings (size 3 to 8) (size 9 to 14) (size 15 to 20)
#    0.000    2.286    0.000    0.857    0.000   12.571 
#    0.000   12.857    0.000    0.000    0.000    0.000 
#    0.000    0.000    0.000    0.000    0.000    0.000 
#
# Total GULP energy -78033.396836 kJ/mol
# GULP energy per Si atom -5573.814060 kJ/mol
# Density = 2.581511 g / cm^3
# Si number density = 25.874005 Si / 1000 Ang^3
#
#
#
# Elastic Constant Matrix: (Units=GPa)
#
#
# Indices 1 2 3 4 5 6 
#
# 1 159.8518 40.8655 68.1136 0.0000 21.0601 0.0000
# 2 40.8655 84.8314 34.4937 0.0000 17.6131 0.0000
# 3 68.1136 34.4937 137.7758 0.0000 7.6080 0.0000
# 4 0.0000 0.0000 0.0000 51.7892 0.0000 13.3625
# 5 21.0601 17.6131 7.6080 0.0000 43.8429 0.0000
# 6 0.0000 0.0000 0.0000 13.3625 0.0000 40.5920
#
#
#
# Elastic Compliance Matrix: (Units=1/GPa)
#
#
# Indices 1 2 3 4 5 6 
#
# 1 0.008702 -0.002166 -0.003612 0.000000 -0.002683 0.000000
# 2 -0.002166 0.014721 -0.002368 0.000000 -0.004462 0.000000
# 3 -0.003612 -0.002368 0.009580 0.000000 0.001024 0.000000
# 4 0.000000 0.000000 0.000000 0.021101 0.000000 -0.006946
# 5 -0.002683 -0.004462 0.001024 0.000000 0.025713 0.000000
# 6 0.000000 0.000000 0.000000 -0.006946 0.000000 0.026922
#
#
# Mechanical properties :
#
#
# Convention : Reuss Voigt Hill
#
# Bulk Modulus (GPa) = 59.84118 74.37828 67.10973
# Shear Modulus (GPa) = 38.87974 43.17722 41.02848
#
# Velocity S-wave (km/s) = 3.88062 4.08946 3.98641
# Velocity P-wave (km/s) = 6.57701 7.14892 6.86892
#
# Compressibility (1/GPa) = 0.01671090
#
# Stress axis : x y z
#
# Youngs Moduli (GPa) = 114.91586 67.92958 104.38401
#
# Poissons Ratio (x) = 0.14716 0.37699
# Poissons Ratio (y) = 0.24896 0.24720
# Poissons Ratio (z) = 0.41503 0.16087
#
# Static dielectric constant tensor:
#      x y z
#    x 2.166260 0.000000 0.005290 
#    y 0.000000 2.130390 0.000000 
#    z 0.005290 0.000000 2.070550 
# 
# From -- ./inp_files/140262.got.cif
#   From: 2010.05.17/outbox.cif.g08.bks.cpg/sg15_71_cif.got.tgz:140262.got - 2010.06.03 18:47:42.
