data_PCOD9290677
_publ_section_title
;
Structure prediction by ZEFSAII (Michael W. Deem and Ramdas Pophale) SiO2 
 PCOD9290677
Probable space group: C 2/C
;
_chemical_formula_sum "Si O2"
_cell_formula_units_Z 32
_cell_length_a 5.051336
_cell_length_b 14.193298
_cell_length_c 19.684302
_cell_angle_alpha 90.000000
_cell_angle_beta 104.996161
_cell_angle_gamma 90.000000
_cell_volume 1363.205006
_symmetry_space_group_name_H-M "C 2/C"
_symmetry_group_IT_number 15
_symmetry_cell_setting 'monoclinic'
loop_
_space_group_symop_operation_xyz
x,y,z
-x,y,1/2-z
-x,-y,-z
x,-y,1/2+z
1/2+x,1/2+y,z
1/2-x,1/2+y,1/2-z
1/2-x,1/2-y,-z
1/2+x,1/2-y,1/2+z
loop_
_atom_site_type_symbol
_atom_site_label
_atom_site_fract_x
_atom_site_fract_y
_atom_site_fract_z
Si Si1 0.964613 0.763891 0.172353
Si Si2 0.460389 0.368649 0.671100
Si Si3 0.639681 0.649012 0.969169
Si Si4 0.264852 0.051638 0.480548
O O1 0.740677 0.679153 0.162720
O O2 0.890586 0.842398 0.113470
O O3 0.000000 0.802760 0.250000
O O4 0.245943 0.715645 0.168218
O O5 0.500000 0.410246 0.750000
O O6 0.331011 0.433881 0.604338
O O7 0.895274 0.570619 0.994785
O O8 0.750000 0.750000 0.000000
O O9 0.339830 0.644908 0.984207
O O10 0.000000 0.000000 0.500000
#
# Coordination Sequence:
#
# PCOD9290677 Si02
#       4
#     8   8   8   8
#     4  10  22  41  68  96 130 181 227 280 348 411
#     4  10  22  42  67  95 136 177 224 282 348 414
#     4  11  23  41  66  94 136 175 233 285 344 420
#     4  11  25  39  66 102 132 182 229 286 353 412
#
# _framework density 23.47409
#
# number of rings (size 3 to 8) (size 9 to 14) (size 15 to 20)
#    0.000    1.500    2.500    1.500    7.000    3.000 
#    0.000    0.000    0.000    0.000    0.000    0.000 
#    0.000    0.000    0.000    0.000    0.000    0.000 
#
# Total GULP energy -89132.314440 kJ/mol
# GULP energy per Si atom -5570.769652 kJ/mol
# Density = 2.342066 g / cm^3
# Si number density = 23.474090 Si / 1000 Ang^3
#
#
#
# Elastic Constant Matrix: (Units=GPa)
#
#
# Indices 1 2 3 4 5 6 
#
# 1 192.9516 63.0198 56.3218 0.0000 -5.1772 0.0000
# 2 63.0198 84.5945 51.4098 0.0000 -2.7120 0.0000
# 3 56.3218 51.4098 217.0977 0.0000 18.1006 0.0000
# 4 0.0000 0.0000 0.0000 33.4396 0.0000 5.1714
# 5 -5.1772 -2.7120 18.1006 0.0000 36.3891 0.0000
# 6 0.0000 0.0000 0.0000 5.1714 0.0000 49.7857
#
#
#
# Elastic Compliance Matrix: (Units=1/GPa)
#
#
# Indices 1 2 3 4 5 6 
#
# 1 0.006968 -0.004681 -0.000786 0.000000 0.001033 0.000000
# 2 -0.004681 0.017225 -0.003042 0.000000 0.002131 0.000000
# 3 -0.000786 -0.003042 0.005799 0.000000 -0.003223 0.000000
# 4 0.000000 0.000000 0.000000 0.030393 0.000000 -0.003157
# 5 0.001033 0.002131 -0.003223 0.000000 0.029390 0.000000
# 6 0.000000 0.000000 0.000000 -0.003157 0.000000 0.020414
#
#
# Mechanical properties :
#
#
# Convention : Reuss Voigt Hill
#
# Bulk Modulus (GPa) = 77.06769 92.90518 84.98644
# Shear Modulus (GPa) = 38.01348 45.51570 41.76459
#
# Velocity S-wave (km/s) = 4.02852 4.40816 4.22261
# Velocity P-wave (km/s) = 7.38518 8.09770 7.74963
#
# Compressibility (1/GPa) = 0.01297561
#
# Stress axis : x y z
#
# Youngs Moduli (GPa) = 143.50417 58.05409 172.43728
#
# Poissons Ratio (x) = 0.27173 0.13546
# Poissons Ratio (y) = 0.67170 0.52462
# Poissons Ratio (z) = 0.11273 0.17662
#
# Static dielectric constant tensor:
#      x y z
#    x 1.799620 0.000000 0.090240 
#    y 0.000000 2.852340 0.000000 
#    z 0.090240 0.000000 1.896740 
# 
# From -- ./inp_files/226225.got.cif
#   From: 2010.05.17/outbox.cif.g08.bks.cpg/sg15_114_cif.got.tgz:226225.got - 2010.06.03 18:47:42.
