data_PCOD9290961
_publ_section_title
;
Structure prediction by ZEFSAII (Michael W. Deem and Ramdas Pophale) SiO2 
 PCOD9290961
Probable space group: C 2/C
;
_chemical_formula_sum "Si O2"
_cell_formula_units_Z 56
_cell_length_a 27.285983
_cell_length_b 8.633501
_cell_length_c 19.790968
_cell_angle_alpha 90.000000
_cell_angle_beta 143.363097
_cell_angle_gamma 90.000000
_cell_volume 2782.146952
_symmetry_space_group_name_H-M "C 2/C"
_symmetry_group_IT_number 15
_symmetry_cell_setting 'monoclinic'
loop_
_space_group_symop_operation_xyz
x,y,z
-x,y,1/2-z
-x,-y,-z
x,-y,1/2+z
1/2+x,1/2+y,z
1/2-x,1/2+y,1/2-z
1/2-x,1/2-y,-z
1/2+x,1/2-y,1/2+z
loop_
_atom_site_type_symbol
_atom_site_label
_atom_site_fract_x
_atom_site_fract_y
_atom_site_fract_z
Si Si1 0.500000 0.320933 0.250000
Si Si2 0.990610 0.357010 0.540301
Si Si3 0.415600 0.931593 0.733849
Si Si4 0.182636 0.795760 0.689629
Si Si5 0.912621 0.081296 0.904711
Si Si6 0.763636 0.504005 0.163239
Si Si7 0.090612 0.064597 0.439319
Si Si8 0.000000 0.688238 0.750000
O O1 0.574149 0.215471 0.303642
O O2 0.533943 0.423916 0.349787
O O3 0.003774 0.418547 0.629542
O O4 0.066431 0.239788 0.609325
O O5 0.000000 0.500000 0.500000
O O6 0.903011 0.274061 0.434107
O O7 0.338784 0.950080 0.698208
O O8 0.430548 0.083658 0.707112
O O9 0.217066 0.656933 0.774228
O O10 0.154335 0.956858 0.695254
O O11 0.240183 0.861550 0.692629
O O12 0.900874 0.099554 0.971740
O O13 0.000000 0.000000 0.000000
O O14 0.684829 0.475499 0.028104
O O15 0.047199 0.207745 0.356182
#
# Coordination Sequence:
#
# PCOD9290961 Si02
#       8
#     4   8   8   8   8   8   8   4
#     4  10  22  44  64  86 120 174 224 258 292 384
#     4  11  20  38  67  95 124 164 211 260 319 392
#     4  11  23  39  65  92 122 165 216 259 312 371
#     4  10  23  38  57  96 133 162 197 257 336 394
#     4   9  19  35  63  91 118 155 206 255 313 376
#     4  11  24  40  60  94 133 160 202 267 333 381
#     4  10  22  42  62  87 125 163 213 261 313 376
#     4  10  24  42  64  84 120 174 224 252 286 380
#
# _framework density 20.128340999999999
#
# number of rings (size 3 to 8) (size 9 to 14) (size 15 to 20)
#    0.000    1.714    1.429    3.429    6.000    2.286 
#    0.000    0.000    0.000    0.000    0.000    0.000 
#    0.000    0.000    0.000    0.000    0.000    0.000 
#
# Total GULP energy -156004.462693 kJ/mol
# GULP energy per Si atom -5571.587953 kJ/mol
# Density = 2.008253 g / cm^3
# Si number density = 20.128341 Si / 1000 Ang^3
#
#
#
# Elastic Constant Matrix: (Units=GPa)
#
#
# Indices 1 2 3 4 5 6 
#
# 1 117.4195 51.0093 4.5162 0.0000 23.9053 0.0000
# 2 51.0093 115.5328 12.5933 0.0000 7.0801 0.0000
# 3 4.5162 12.5933 49.1267 0.0000 13.8635 0.0000
# 4 0.0000 0.0000 0.0000 10.2018 0.0000 4.7123
# 5 23.9053 7.0801 13.8635 0.0000 31.3850 0.0000
# 6 0.0000 0.0000 0.0000 4.7123 0.0000 19.6171
#
#
#
# Elastic Compliance Matrix: (Units=1/GPa)
#
#
# Indices 1 2 3 4 5 6 
#
# 1 0.012713 -0.005336 0.002961 0.000000 -0.009788 0.000000
# 2 -0.005336 0.011180 -0.003211 0.000000 0.002961 0.000000
# 3 0.002961 -0.003211 0.024377 0.000000 -0.012299 0.000000
# 4 0.000000 0.000000 0.000000 0.110255 0.000000 -0.026485
# 5 -0.009788 0.002961 -0.012299 0.000000 0.044082 0.000000
# 6 0.000000 0.000000 0.000000 -0.026485 0.000000 0.057338
#
#
# Mechanical properties :
#
#
# Convention : Reuss Voigt Hill
#
# Bulk Modulus (GPa) = 26.95478 46.47961 36.71719
# Shear Modulus (GPa) = 17.63770 26.50480 22.07125
#
# Velocity S-wave (km/s) = 2.96338 3.63270 3.31498
# Velocity P-wave (km/s) = 5.01292 6.38256 5.73875
#
# Compressibility (1/GPa) = 0.03709918
#
# Stress axis : x y z
#
# Youngs Moduli (GPa) = 78.65748 89.44494 41.02193
#
# Poissons Ratio (x) = 0.47729 -0.12147
# Poissons Ratio (y) = 0.41972 0.13172
# Poissons Ratio (z) = -0.23292 0.28719
#
# Static dielectric constant tensor:
#      x y z
#    x 1.747080 0.000000 -0.002940 
#    y 0.000000 1.795550 0.000000 
#    z -0.002940 0.000000 1.694660 
# 
# From -- ./inp_files/222114.got.cif
#   From: 2010.05.17/outbox.cif.g08.bks.cpg/sg15_112_cif.got.tgz:222114.got - 2010.06.03 18:47:42.
