data_PCOD9290163
_publ_section_title
;
Structure prediction by ZEFSAII (Michael W. Deem and Ramdas Pophale) SiO2 
 PCOD9290163
Probable space group: C 2/C
;
_chemical_formula_sum "Si O2"
_cell_formula_units_Z 36
_cell_length_a 11.606538
_cell_length_b 24.956936
_cell_length_c 5.306766
_cell_angle_alpha 90.000000
_cell_angle_beta 79.580654
_cell_angle_gamma 90.000000
_cell_volume 1511.829743
_symmetry_space_group_name_H-M "C 2/C"
_symmetry_group_IT_number 15
_symmetry_cell_setting 'monoclinic'
loop_
_space_group_symop_operation_xyz
x,y,z
-x,y,1/2-z
-x,-y,-z
x,-y,1/2+z
1/2+x,1/2+y,z
1/2-x,1/2+y,1/2-z
1/2-x,1/2-y,-z
1/2+x,1/2-y,1/2+z
loop_
_atom_site_type_symbol
_atom_site_label
_atom_site_fract_x
_atom_site_fract_y
_atom_site_fract_z
Si Si1 0.872129 0.872889 0.312260
Si Si2 0.694118 0.964699 0.478485
Si Si3 0.128114 0.227092 0.333956
Si Si4 0.306568 0.829212 0.443639
Si Si5 0.500000 0.090822 0.750000
O O1 0.779614 0.913535 0.467671
O O2 0.883725 0.814388 0.433578
O O3 0.813213 0.860477 0.069288
O O4 0.000000 0.897495 0.250000
O O5 0.567565 0.941905 0.440292
O O6 0.714588 0.998110 0.723866
O O7 0.146268 0.291246 0.302883
O O8 0.000000 0.220352 0.250000
O O9 0.257992 0.209252 0.177790
O O10 0.406274 0.872611 0.434383
#
# Coordination Sequence:
#
# PCOD9290163 Si02
#       5
#     8   8   8   8   4
#     4  11  24  41  67  97 137 182 235 290 352 416
#     4  11  27  48  73 103 139 184 244 303 358 413
#     4  11  21  39  68  95 144 180 228 281 344 425
#     4  10  22  41  63 103 137 181 229 277 350 425
#     4  10  22  44  72 102 138 184 232 292 356 420
#
# _framework density 23.812206
#
# number of rings (size 3 to 8) (size 9 to 14) (size 15 to 20)
#    0.000    1.333    3.333    1.333    6.222    0.889 
#    4.000    0.000    0.000    0.000    0.000    0.000 
#    0.000    0.000    0.000    0.000    0.000    0.000 
#
# Total GULP energy -100237.342539 kJ/mol
# GULP energy per Si atom -5568.741252 kJ/mol
# Density = 2.375801 g / cm^3
# Si number density = 23.812206 Si / 1000 Ang^3
#
#
#
# Elastic Constant Matrix: (Units=GPa)
#
#
# Indices 1 2 3 4 5 6 
#
# 1 141.0918 20.3477 18.5062 0.0000 8.4393 0.0000
# 2 20.3477 75.9005 19.7923 0.0000 2.7863 0.0000
# 3 18.5062 19.7923 46.9392 0.0000 -4.0864 0.0000
# 4 0.0000 0.0000 0.0000 13.0036 0.0000 10.9163
# 5 8.4393 2.7863 -4.0864 0.0000 17.7510 0.0000
# 6 0.0000 0.0000 0.0000 10.9163 0.0000 -60.2207
#
#
#
# Elastic Compliance Matrix: (Units=1/GPa)
#
#
# Indices 1 2 3 4 5 6 
#
# 1 0.007905 -0.001184 -0.002989 0.000000 -0.004261 0.000000
# 2 -0.001184 0.015241 -0.006244 0.000000 -0.003267 0.000000
# 3 -0.002989 -0.006244 0.025842 0.000000 0.008350 0.000000
# 4 0.000000 0.000000 0.000000 0.066745 0.000000 0.012099
# 5 -0.004261 -0.003267 0.008350 0.000000 0.060796 0.000000
# 6 0.000000 0.000000 0.000000 0.012099 0.000000 -0.014412
#
#
# Mechanical properties :
#
#
# Convention : Reuss Voigt Hill
#
# Bulk Modulus (GPa) = 35.51691 42.35820 38.93756
# Shear Modulus (GPa) = 25.99651 7.79246 16.89449
#
# Velocity S-wave (km/s) = 3.30772 1.81096 2.66651
# Velocity P-wave (km/s) = 5.43469 4.71167 5.08604
#
# Compressibility (1/GPa) = 0.02815560
#
# Stress axis : x y z
#
# Youngs Moduli (GPa) = 126.50067 65.61411 38.69630
#
# Poissons Ratio (x) = 0.07766 0.11565
# Poissons Ratio (y) = 0.14972 0.24163
# Poissons Ratio (z) = 0.37805 0.40970
#
# Static dielectric constant tensor:
#      x y z
#    x 1.856140 0.000000 -0.166710 
#    y 0.000000 1.970150 0.000000 
#    z -0.166710 0.000000 1.826300 
# 
# From -- ./inp_files/4264.got.cif
#   From: 2010.05.17/outbox.cif.g08.bks.cpg/sg15_3_cif.got.tgz:4264.got - 2010.06.03 18:47:42.
