data_PCOD9290664
_publ_section_title
;
Structure prediction by ZEFSAII (Michael W. Deem and Ramdas Pophale) SiO2 
 PCOD9290664
Probable space group: C 2/C
;
_chemical_formula_sum "Si O2"
_cell_formula_units_Z 52
_cell_length_a 8.770368
_cell_length_b 21.282370
_cell_length_c 18.654760
_cell_angle_alpha 90.000000
_cell_angle_beta 47.837836
_cell_angle_gamma 90.000000
_cell_volume 2581.017889
_symmetry_space_group_name_H-M "C 2/C"
_symmetry_group_IT_number 15
_symmetry_cell_setting 'monoclinic'
loop_
_space_group_symop_operation_xyz
x,y,z
-x,y,1/2-z
-x,-y,-z
x,-y,1/2+z
1/2+x,1/2+y,z
1/2-x,1/2+y,1/2-z
1/2-x,1/2-y,-z
1/2+x,1/2-y,1/2+z
loop_
_atom_site_type_symbol
_atom_site_label
_atom_site_fract_x
_atom_site_fract_y
_atom_site_fract_z
Si Si1 0.500000 0.850979 0.750000
Si Si2 0.229581 0.321459 0.083596
Si Si3 0.266420 0.468196 0.303332
Si Si4 0.500000 0.719972 0.250000
Si Si5 0.470336 0.137275 0.540066
Si Si6 0.682272 0.889701 0.829873
Si Si7 0.000000 0.424721 0.250000
Si Si8 0.812376 0.234319 0.061590
O O1 0.602693 0.895245 0.775370
O O2 0.344452 0.808095 0.844624
O O3 0.156488 0.379925 0.155623
O O4 0.090641 0.264314 0.158913
O O5 0.171717 0.342188 0.021394
O O6 0.464451 0.299200 0.012266
O O7 0.500000 0.446683 0.250000
O O8 0.122795 0.425623 0.398774
O O9 0.265888 0.541900 0.323086
O O10 0.154401 0.457813 0.260124
O O11 0.673653 0.671460 0.219678
O O12 0.518117 0.127581 0.442158
O O13 0.326592 0.197765 0.594921
O O14 0.750000 0.250000 0.000000
#
# Coordination Sequence:
#
# PCOD9290664 Si02
#       8
#     4   8   8   4   8   8   4   8
#     4  12  27  40  66  98 133 172 218 278 340 396
#     4  10  22  41  68  94 132 169 214 276 335 391
#     4  11  25  43  69  94 132 180 223 273 328 387
#     4  11  20  40  66  94 124 173 216 266 332 401
#     4  11  24  42  65  94 131 171 221 270 332 399
#     4  12  24  43  62  91 132 169 223 270 323 398
#     4   9  23  44  68 100 129 173 228 268 326 403
#     4  12  24  41  64 102 135 168 213 277 337 399
#
# _framework density 20.147091
#
# number of rings (size 3 to 8) (size 9 to 14) (size 15 to 20)
#    0.000    0.923    3.846    2.308    5.385    1.231 
#    0.000    0.000    0.000    6.462    0.000    0.000 
#    0.000    0.000    0.000    0.000    0.000    0.000 
#
# Total GULP energy -144962.464233 kJ/mol
# GULP energy per Si atom -5575.479394 kJ/mol
# Density = 2.010124 g / cm^3
# Si number density = 20.147091 Si / 1000 Ang^3
#
#
#
# Elastic Constant Matrix: (Units=GPa)
#
#
# Indices 1 2 3 4 5 6 
#
# 1 80.9018 24.7490 26.6016 0.0000 6.9448 0.0000
# 2 24.7490 101.9358 30.5220 0.0000 -12.9853 0.0000
# 3 26.6016 30.5220 92.0999 0.0000 -3.6181 0.0000
# 4 0.0000 0.0000 0.0000 -409.5678 0.0000 301.7034
# 5 6.9448 -12.9853 -3.6181 0.0000 30.4455 0.0000
# 6 0.0000 0.0000 0.0000 301.7034 0.0000 -197.5411
#
#
#
# Elastic Compliance Matrix: (Units=1/GPa)
#
#
# Indices 1 2 3 4 5 6 
#
# 1 0.014935 -0.003260 -0.003438 0.000000 -0.005206 0.000000
# 2 -0.003260 0.012175 -0.002873 0.000000 0.005595 0.000000
# 3 -0.003438 -0.002873 0.012846 0.000000 0.001085 0.000000
# 4 0.000000 0.000000 0.000000 0.019523 0.000000 0.029817
# 5 -0.005206 0.005595 0.001085 0.000000 0.036548 0.000000
# 6 0.000000 0.000000 0.000000 0.029817 0.000000 0.040477
#
#
# Mechanical properties :
#
#
# Convention : Reuss Voigt Hill
#
# Bulk Modulus (GPa) = 48.04662 48.74252 48.39457
# Shear Modulus (GPa) = 30.75342 -102.46168 -35.85413
#
# Velocity S-wave (km/s) = 3.91121 -7.13913 -4.22313
# Velocity P-wave (km/s) = 6.65556 6.61139 0.54131
#
# Compressibility (1/GPa) = 0.02081312
#
# Stress axis : x y z
#
# Youngs Moduli (GPa) = 66.95586 82.13834 77.84746
#
# Poissons Ratio (x) = 0.26776 0.26764
# Poissons Ratio (y) = 0.21827 0.22368
# Poissons Ratio (z) = 0.23019 0.23601
#
# Static dielectric constant tensor:
#      x y z
#    x 1.619740 0.000000 0.008570 
#    y 0.000000 1.684800 0.000000 
#    z 0.008570 0.000000 1.692660 
# 
# From -- ./inp_files/136031.got.cif
#   From: 2010.05.17/outbox.cif.g08.bks.cpg/sg15_69_cif.got.tgz:136031.got - 2010.06.03 18:47:42.
