data_PCOD9290367
_publ_section_title
;
Structure prediction by ZEFSAII (Michael W. Deem and Ramdas Pophale) SiO2 
 PCOD9290367
Probable space group: C 2/C
;
_chemical_formula_sum "Si O2"
_cell_formula_units_Z 32
_cell_length_a 9.426660
_cell_length_b 10.724381
_cell_length_c 14.213249
_cell_angle_alpha 90.000000
_cell_angle_beta 71.508401
_cell_angle_gamma 90.000000
_cell_volume 1362.703362
_symmetry_space_group_name_H-M "C 2/C"
_symmetry_group_IT_number 15
_symmetry_cell_setting 'monoclinic'
loop_
_space_group_symop_operation_xyz
x,y,z
-x,y,1/2-z
-x,-y,-z
x,-y,1/2+z
1/2+x,1/2+y,z
1/2-x,1/2+y,1/2-z
1/2-x,1/2-y,-z
1/2+x,1/2-y,1/2+z
loop_
_atom_site_type_symbol
_atom_site_label
_atom_site_fract_x
_atom_site_fract_y
_atom_site_fract_z
Si Si1 0.662028 0.642239 0.431974
Si Si2 0.345024 0.357064 0.056358
Si Si3 0.324648 0.995699 0.054564
Si Si4 0.678965 0.334396 0.232176
O O1 0.623486 0.499560 0.410372
O O2 0.502138 0.698889 0.491502
O O3 0.757486 0.615750 0.504890
O O4 0.755443 0.716418 0.337259
O O5 0.286713 0.303355 0.166085
O O6 0.246708 0.384243 0.984074
O O7 0.265893 0.955226 0.169691
O O8 0.500000 0.000000 0.000000
O O9 0.500000 0.346148 0.250000
#
# Coordination Sequence:
#
# PCOD9290367 Si02
#       4
#     8   8   8   8
#     4   9  20  42  66  91 128 170 220 269 322 388
#     4   9  21  41  66  93 132 166 217 271 323 387
#     4  10  22  41  65  93 134 168 215 275 322 386
#     4  12  21  37  73  95 126 180 225 257 336 398
#
# _framework density 23.482733
#
# number of rings (size 3 to 8) (size 9 to 14) (size 15 to 20)
#    1.500    0.500    2.500    0.750    0.000    3.000 
#    0.000    1.250   16.500    0.000    0.000    0.000 
#    0.000    0.000    0.000    0.000    0.000    0.000 
#
# Total GULP energy -89216.410142 kJ/mol
# GULP energy per Si atom -5576.025634 kJ/mol
# Density = 2.342929 g / cm^3
# Si number density = 23.482733 Si / 1000 Ang^3
#
#
#
# Elastic Constant Matrix: (Units=GPa)
#
#
# Indices 1 2 3 4 5 6 
#
# 1 146.6754 8.6292 58.6512 0.0000 -25.0172 0.0000
# 2 8.6292 36.2401 3.5814 0.0000 -6.4830 0.0000
# 3 58.6512 3.5814 154.5077 0.0000 -7.2232 0.0000
# 4 0.0000 0.0000 0.0000 53.6800 0.0000 -3.3378
# 5 -25.0172 -6.4830 -7.2232 0.0000 50.7104 0.0000
# 6 0.0000 0.0000 0.0000 -3.3378 0.0000 33.0037
#
#
#
# Elastic Compliance Matrix: (Units=1/GPa)
#
#
# Indices 1 2 3 4 5 6 
#
# 1 0.008772 -0.001110 -0.003129 0.000000 0.003740 0.000000
# 2 -0.001110 0.028417 -0.000094 0.000000 0.003072 0.000000
# 3 -0.003129 -0.000094 0.007640 0.000000 -0.000468 0.000000
# 4 0.000000 0.000000 0.000000 0.018747 0.000000 0.001896
# 5 0.003740 0.003072 -0.000468 0.000000 0.021891 0.000000
# 6 0.000000 0.000000 0.000000 0.001896 0.000000 0.030491
#
#
# Mechanical properties :
#
#
# Convention : Reuss Voigt Hill
#
# Bulk Modulus (GPa) = 27.65272 53.23853 40.44562
# Shear Modulus (GPa) = 36.58177 45.24956 40.91567
#
# Velocity S-wave (km/s) = 3.95120 4.39444 4.17870
# Velocity P-wave (km/s) = 5.71116 6.96195 6.36734
#
# Compressibility (1/GPa) = 0.03616281
#
# Stress axis : x y z
#
# Youngs Moduli (GPa) = 113.99433 35.19028 130.88304
#
# Poissons Ratio (x) = 0.03908 0.40959
# Poissons Ratio (y) = 0.12659 0.01224
# Poissons Ratio (z) = 0.35674 0.00329
#
# Static dielectric constant tensor:
#      x y z
#    x 1.882260 0.000000 0.092540 
#    y 0.000000 2.175860 0.000000 
#    z 0.092540 0.000000 2.022550 
# 
# From -- ./inp_files/142059.got.cif
#   From: 2010.05.17/outbox.cif.g08.bks.cpg/sg15_72_cif.got.tgz:142059.got - 2010.06.03 18:47:42.
