data_PCOD9290772
_publ_section_title
;
Structure prediction by ZEFSAII (Michael W. Deem and Ramdas Pophale) SiO2 
 PCOD9290772
Probable space group: C 2/C
;
_chemical_formula_sum "Si O2"
_cell_formula_units_Z 56
_cell_length_a 23.984010
_cell_length_b 10.351262
_cell_length_c 9.407307
_cell_angle_alpha 90.000000
_cell_angle_beta 104.253917
_cell_angle_gamma 90.000000
_cell_volume 2263.602313
_symmetry_space_group_name_H-M "C 2/C"
_symmetry_group_IT_number 15
_symmetry_cell_setting 'monoclinic'
loop_
_space_group_symop_operation_xyz
x,y,z
-x,y,1/2-z
-x,-y,-z
x,-y,1/2+z
1/2+x,1/2+y,z
1/2-x,1/2+y,1/2-z
1/2-x,1/2-y,-z
1/2+x,1/2-y,1/2+z
loop_
_atom_site_type_symbol
_atom_site_label
_atom_site_fract_x
_atom_site_fract_y
_atom_site_fract_z
Si Si1 0.731589 0.115067 0.816357
Si Si2 0.437119 0.448600 0.420425
Si Si3 0.630718 0.387057 0.390630
Si Si4 0.460305 0.971154 0.609316
Si Si5 0.439946 0.741642 0.152766
Si Si6 0.181868 0.870889 0.892633
Si Si7 0.668949 0.898581 0.979311
O O1 0.719052 0.267966 0.834118
O O2 0.707463 0.092750 0.644114
O O3 0.694706 0.009243 0.889153
O O4 0.794415 0.116756 0.930855
O O5 0.500000 0.500000 0.500000
O O6 0.422090 0.414037 0.249778
O O7 0.393868 0.548710 0.477649
O O8 0.434736 0.306359 0.489613
O O9 0.678090 0.481259 0.350104
O O10 0.661809 0.248949 0.418606
O O11 0.500000 0.898069 0.750000
O O12 0.442681 0.106500 0.671041
O O13 0.500000 0.000000 0.500000
O O14 0.398723 0.918460 0.526011
O O15 0.500000 0.689169 0.250000
O O16 0.381789 0.684355 0.176235
#
# Coordination Sequence:
#
# PCOD9290772 Si02
#       7
#     8   8   8   8   8   8   8
#     4  11  26  46  77  98 149 192 251 307 371 439
#     4  11  23  41  66 101 140 186 232 291 356 438
#     4  11  26  42  71 100 144 178 243 303 360 434
#     4  11  25  41  68 101 145 187 234 295 361 435
#     4  10  22  41  69  99 140 187 233 291 368 436
#     4  10  23  49  70 102 138 200 240 302 369 441
#     4  12  27  46  70 112 140 194 246 310 367 442
#
# _framework density 24.739326999999999
#
# number of rings (size 3 to 8) (size 9 to 14) (size 15 to 20)
#    0.000    1.143    1.429    3.857    8.000    5.143 
#    0.000    0.000    0.000    0.000    0.000    0.000 
#    0.000    0.000    0.000    0.000    0.000    0.000 
#
# Total GULP energy -156010.364732 kJ/mol
# GULP energy per Si atom -5571.798740 kJ/mol
# Density = 2.468302 g / cm^3
# Si number density = 24.739327 Si / 1000 Ang^3
#
#
#
# Elastic Constant Matrix: (Units=GPa)
#
#
# Indices 1 2 3 4 5 6 
#
# 1 99.6382 15.5061 31.0263 0.0000 37.9580 0.0000
# 2 15.5061 105.4433 11.8207 0.0000 -3.2239 0.0000
# 3 31.0263 11.8207 152.6089 0.0000 14.5428 0.0000
# 4 0.0000 0.0000 0.0000 26.2260 0.0000 1.2215
# 5 37.9580 -3.2239 14.5428 0.0000 31.9182 0.0000
# 6 0.0000 0.0000 0.0000 1.2215 0.0000 19.7155
#
#
#
# Elastic Compliance Matrix: (Units=1/GPa)
#
#
# Indices 1 2 3 4 5 6 
#
# 1 0.019977 -0.003478 -0.001563 0.000000 -0.023397 0.000000
# 2 -0.003478 0.010229 -0.000604 0.000000 0.005445 0.000000
# 3 -0.001563 -0.000604 0.007052 0.000000 -0.001416 0.000000
# 4 0.000000 0.000000 0.000000 0.038240 0.000000 -0.002369
# 5 -0.023397 0.005445 -0.001416 0.000000 0.060350 0.000000
# 6 0.000000 0.000000 0.000000 -0.002369 0.000000 0.050868
#
#
# Mechanical properties :
#
#
# Convention : Reuss Voigt Hill
#
# Bulk Modulus (GPa) = 38.50640 52.71072 45.60856
# Shear Modulus (GPa) = 24.19397 35.52775 29.86086
#
# Velocity S-wave (km/s) = 3.13062 3.79368 3.47799
# Velocity P-wave (km/s) = 5.35410 6.36726 5.88253
#
# Compressibility (1/GPa) = 0.02596971
#
# Stress axis : x y z
#
# Youngs Moduli (GPa) = 50.05656 97.75725 141.80196
#
# Poissons Ratio (x) = 0.34000 0.22157
# Poissons Ratio (y) = 0.17410 0.08566
# Poissons Ratio (z) = 0.07821 0.05905
#
# Static dielectric constant tensor:
#      x y z
#    x 2.052870 0.000000 -0.040860 
#    y 0.000000 2.029080 0.000000 
#    z -0.040860 0.000000 2.030750 
# 
# From -- ./inp_files/65526.got.cif
#   From: 2010.05.17/outbox.cif.g08.bks.cpg/sg15_33_cif.got.tgz:65526.got - 2010.06.03 18:47:42.
