data_PCOD9290170
_publ_section_title
;
Structure prediction by ZEFSAII (Michael W. Deem and Ramdas Pophale) SiO2 
 PCOD9290170
Probable space group: C 2/C
;
_chemical_formula_sum "Si O2"
_cell_formula_units_Z 48
_cell_length_a 31.330135
_cell_length_b 7.996040
_cell_length_c 18.267871
_cell_angle_alpha 90.000000
_cell_angle_beta 155.012895
_cell_angle_gamma 90.000000
_cell_volume 1933.141966
_symmetry_space_group_name_H-M "C 2/C"
_symmetry_group_IT_number 15
_symmetry_cell_setting 'monoclinic'
loop_
_space_group_symop_operation_xyz
x,y,z
-x,y,1/2-z
-x,-y,-z
x,-y,1/2+z
1/2+x,1/2+y,z
1/2-x,1/2+y,1/2-z
1/2-x,1/2-y,-z
1/2+x,1/2-y,1/2+z
loop_
_atom_site_type_symbol
_atom_site_label
_atom_site_fract_x
_atom_site_fract_y
_atom_site_fract_z
Si Si1 0.640272 0.221378 0.915147
Si Si2 0.085395 0.235620 0.638107
Si Si3 0.376679 0.352541 0.764465
Si Si4 0.131237 0.270130 0.020158
Si Si5 0.904536 0.339312 0.689875
Si Si6 0.671402 0.845757 0.617123
O O1 0.605018 0.339684 0.794848
O O2 0.594113 0.037073 0.826681
O O3 0.762335 0.206271 0.098984
O O4 0.624815 0.258914 0.976835
O O5 0.127192 0.324946 0.775603
O O6 0.128781 0.293907 0.628712
O O7 0.963633 0.253049 0.440270
O O8 0.111250 0.041572 0.690441
O O9 0.207820 0.168533 0.188259
O O10 0.149709 0.463190 0.067316
O O11 0.154565 0.254870 0.969516
O O12 0.013535 0.250435 0.853221
#
# Coordination Sequence:
#
# PCOD9290170 Si02
#       6
#     8   8   8   8   8   8
#     4  10  22  42  64  88 122 165 207 252 306 368
#     4  11  23  40  63  93 125 160 204 257 309 363
#     4  10  23  41  62  90 124 160 207 255 306 366
#     4  10  23  41  62  90 123 163 207 252 304 365
#     4  10  22  41  63  89 123 162 206 252 306 367
#     4  11  23  39  64  92 123 159 205 255 307 363
#
# _framework density 24.830044999999998
#
# number of rings (size 3 to 8) (size 9 to 14) (size 15 to 20)
#    0.000    1.667    0.000    4.000    0.000   12.667 
#    0.000    3.333    0.000    2.000    0.000    0.000 
#    0.000    0.000    0.000    0.000    0.000    0.000 
#
# Total GULP energy -134357.324902 kJ/mol
# GULP energy per Si atom -5598.221871 kJ/mol
# Density = 2.477353 g / cm^3
# Si number density = 24.830045 Si / 1000 Ang^3
#
#
#
# Elastic Constant Matrix: (Units=GPa)
#
#
# Indices 1 2 3 4 5 6 
#
# 1 160.3171 16.0036 37.9518 0.0000 -54.8548 0.0000
# 2 16.0036 12.5840 9.5681 0.0000 -15.7428 0.0000
# 3 37.9518 9.5681 96.2768 0.0000 -28.2566 0.0000
# 4 0.0000 0.0000 0.0000 33.8601 0.0000 -8.5861
# 5 -54.8548 -15.7428 -28.2566 0.0000 63.2337 0.0000
# 6 0.0000 0.0000 0.0000 -8.5861 0.0000 30.2278
#
#
#
# Elastic Compliance Matrix: (Units=1/GPa)
#
#
# Indices 1 2 3 4 5 6 
#
# 1 0.009080 -0.002051 -0.001397 0.000000 0.006742 0.000000
# 2 -0.002051 0.116905 -0.003211 0.000000 0.025891 0.000000
# 3 -0.001397 -0.003211 0.012276 0.000000 0.003475 0.000000
# 4 0.000000 0.000000 0.000000 0.031826 0.000000 0.009040
# 5 0.006742 0.025891 0.003475 0.000000 0.029662 0.000000
# 6 0.000000 0.000000 0.000000 0.009040 0.000000 0.035650
#
#
# Mechanical properties :
#
#
# Convention : Reuss Voigt Hill
#
# Bulk Modulus (GPa) = 8.00356 44.02501 26.01428
# Shear Modulus (GPa) = 17.21979 39.17463 28.19721
#
# Velocity S-wave (km/s) = 2.63631 3.97635 3.37353
# Velocity P-wave (km/s) = 3.53513 6.23304 5.06695
#
# Compressibility (1/GPa) = 0.12494437
#
# Stress axis : x y z
#
# Youngs Moduli (GPa) = 110.13356 8.55393 81.45844
#
# Poissons Ratio (x) = 0.01754 0.11377
# Poissons Ratio (y) = 0.22588 0.26155
# Poissons Ratio (z) = 0.15382 0.02747
#
# Static dielectric constant tensor:
#      x y z
#    x 2.050270 0.000000 0.032350 
#    y 0.000000 1.898790 0.000000 
#    z 0.032350 0.000000 1.978890 
# 
# From -- ./inp_files/177904.got.cif
#   From: 2010.05.17/outbox.cif.g08.bks.cpg/sg15_89_cif.got.tgz:177904.got - 2010.06.03 18:47:42.
