data_PCOD9290463
_publ_section_title
;
Structure prediction by ZEFSAII (Michael W. Deem and Ramdas Pophale) SiO2 
 PCOD9290463
Probable space group: C 2/C
;
_chemical_formula_sum "Si O2"
_cell_formula_units_Z 64
_cell_length_a 17.289496
_cell_length_b 11.909457
_cell_length_c 15.310212
_cell_angle_alpha 90.000000
_cell_angle_beta 100.786025
_cell_angle_gamma 90.000000
_cell_volume 3096.807424
_symmetry_space_group_name_H-M "C 2/C"
_symmetry_group_IT_number 15
_symmetry_cell_setting 'monoclinic'
loop_
_space_group_symop_operation_xyz
x,y,z
-x,y,1/2-z
-x,-y,-z
x,-y,1/2+z
1/2+x,1/2+y,z
1/2-x,1/2+y,1/2-z
1/2-x,1/2-y,-z
1/2+x,1/2-y,1/2+z
loop_
_atom_site_type_symbol
_atom_site_label
_atom_site_fract_x
_atom_site_fract_y
_atom_site_fract_z
Si Si1 0.649626 0.513432 0.755431
Si Si2 0.181151 0.559364 0.789718
Si Si3 0.179004 0.791101 0.864246
Si Si4 0.958518 0.942342 0.410753
Si Si5 0.069277 0.220118 0.828483
Si Si6 0.105391 0.554495 0.430838
Si Si7 0.360304 0.757391 0.953781
Si Si8 0.575459 0.019806 0.110375
O O1 0.733399 0.523569 0.725908
O O2 0.655645 0.414524 0.827544
O O3 0.579708 0.482652 0.673156
O O4 0.627401 0.636963 0.788359
O O5 0.170548 0.693752 0.790344
O O6 0.166029 0.516013 0.885156
O O7 0.119347 0.504500 0.709638
O O8 0.271172 0.788633 0.910226
O O9 0.132343 0.752805 0.940669
O O10 0.886585 0.862830 0.424305
O O11 0.023857 0.863026 0.382797
O O12 0.000000 0.000000 0.500000
O O13 0.106526 0.321814 0.889383
O O14 0.000000 0.265407 0.750000
O O15 0.113831 0.549921 0.537568
O O16 0.017723 0.502444 0.399540
O O17 0.413218 0.852279 0.919971
#
# Coordination Sequence:
#
# PCOD9290463 Si02
#       8
#     8   8   8   8   8   8   8   8
#     4  11  25  42  65  99 132 175 228 278 340 408
#     4  12  24  41  67 100 130 178 222 279 339 400
#     4  11  24  42  66  97 139 173 227 278 344 413
#     4  11  23  42  69  96 131 176 229 282 338 401
#     4  10  22  41  66  92 126 176 223 272 333 400
#     4  11  24  42  68  99 133 174 226 277 334 404
#     4  11  21  43  69  92 131 188 221 274 344 418
#     4  11  23  43  68 101 133 173 229 282 338 409
#
# _framework density 20.666443999999998
#
# number of rings (size 3 to 8) (size 9 to 14) (size 15 to 20)
#    0.000    1.000    5.000    1.875    3.500    1.000 
#    2.250    3.125    0.000    0.000    0.000    0.000 
#    0.000    0.000    0.000    0.000    0.000    0.000 
#
# Total GULP energy -178798.045281 kJ/mol
# GULP energy per Si atom -5587.438915 kJ/mol
# Density = 2.061941 g / cm^3
# Si number density = 20.666444 Si / 1000 Ang^3
#
#
#
# Elastic Constant Matrix: (Units=GPa)
#
#
# Indices 1 2 3 4 5 6 
#
# 1 35.7288 15.6314 7.6273 0.0000 -7.4006 0.0000
# 2 15.6314 65.3237 29.0691 0.0000 4.3714 0.0000
# 3 7.6273 29.0691 85.7085 0.0000 -4.9100 0.0000
# 4 0.0000 0.0000 0.0000 38.7185 0.0000 1.5520
# 5 -7.4006 4.3714 -4.9100 0.0000 29.2755 0.0000
# 6 0.0000 0.0000 0.0000 1.5520 0.0000 22.9813
#
#
#
# Elastic Compliance Matrix: (Units=1/GPa)
#
#
# Indices 1 2 3 4 5 6 
#
# 1 0.033896 -0.009063 0.000632 0.000000 0.010028 0.000000
# 2 -0.009063 0.020871 -0.006646 0.000000 -0.006522 0.000000
# 3 0.000632 -0.006646 0.014066 0.000000 0.003511 0.000000
# 4 0.000000 0.000000 0.000000 0.025898 0.000000 -0.001749
# 5 0.010028 -0.006522 0.003511 0.000000 0.038256 0.000000
# 6 0.000000 0.000000 0.000000 -0.001749 0.000000 0.043632
#
#
# Mechanical properties :
#
#
# Convention : Reuss Voigt Hill
#
# Bulk Modulus (GPa) = 25.85372 32.37963 29.11668
# Shear Modulus (GPa) = 22.76184 27.15726 24.95955
#
# Velocity S-wave (km/s) = 3.32232 3.62895 3.47902
# Velocity P-wave (km/s) = 5.22056 5.76722 5.50068
#
# Compressibility (1/GPa) = 0.03867915
#
# Stress axis : x y z
#
# Youngs Moduli (GPa) = 29.50200 47.91339 71.09161
#
# Poissons Ratio (x) = 0.43425 -0.04493
# Poissons Ratio (y) = 0.26739 0.47246
# Poissons Ratio (z) = -0.01864 0.31842
#
# Static dielectric constant tensor:
#      x y z
#    x 1.737980 0.000000 -0.024030 
#    y 0.000000 1.759680 0.000000 
#    z -0.024030 0.000000 1.790140 
# 
# From -- ./inp_files/161332.got.cif
#   From: 2010.05.17/outbox.cif.g08.bks.cpg/sg15_81_cif.got.tgz:161332.got - 2010.06.03 18:47:42.
