data_PCOD9290300
_publ_section_title
;
Structure prediction by ZEFSAII (Michael W. Deem and Ramdas Pophale) SiO2 
 PCOD9290300
Probable space group: C 2/C
;
_chemical_formula_sum "Si O2"
_cell_formula_units_Z 48
_cell_length_a 24.030138
_cell_length_b 11.873544
_cell_length_c 14.160067
_cell_angle_alpha 90.000000
_cell_angle_beta 29.389517
_cell_angle_gamma 90.000000
_cell_volume 1982.701081
_symmetry_space_group_name_H-M "C 2/C"
_symmetry_group_IT_number 15
_symmetry_cell_setting 'monoclinic'
loop_
_space_group_symop_operation_xyz
x,y,z
-x,y,1/2-z
-x,-y,-z
x,-y,1/2+z
1/2+x,1/2+y,z
1/2-x,1/2+y,1/2-z
1/2-x,1/2-y,-z
1/2+x,1/2-y,1/2+z
loop_
_atom_site_type_symbol
_atom_site_label
_atom_site_fract_x
_atom_site_fract_y
_atom_site_fract_z
Si Si1 0.976772 0.022239 0.397477
Si Si2 0.120077 0.767870 0.665787
Si Si3 0.792064 0.195409 0.666634
Si Si4 0.099532 0.410926 0.339725
Si Si5 0.443292 0.289655 0.234029
Si Si6 0.297416 0.863678 0.833176
O O1 0.070514 0.116777 0.280423
O O2 0.000000 0.006470 0.250000
O O3 0.857988 0.081201 0.601144
O O4 0.992014 0.894720 0.409741
O O5 0.250000 0.750000 0.500000
O O6 0.127920 0.770095 0.540763
O O7 0.064372 0.664204 0.802520
O O8 0.663729 0.166757 0.822600
O O9 0.790253 0.293651 0.746363
O O10 0.199774 0.501902 0.173425
O O11 0.000000 0.500000 0.500000
O O12 0.500000 0.257263 0.250000
O O13 0.410366 0.184944 0.217364
O O14 0.317884 0.336289 0.442142
#
# Coordination Sequence:
#
# PCOD9290300 Si02
#       6
#     8   8   8   8   8   8
#     4   9  17  37  66  89 121 166 221 263 318 388
#     4   9  18  37  65  92 128 175 213 270 333 385
#     4  10  22  41  64  99 128 174 229 277 321 406
#     4  11  23  41  63  98 138 169 221 280 336 396
#     4  10  22  42  67  89 130 179 214 274 332 397
#     4  11  24  42  63  99 134 167 225 268 345 400
#
# _framework density 24.209398
#
# number of rings (size 3 to 8) (size 9 to 14) (size 15 to 20)
#    0.000    2.000    0.000    5.000    2.333    0.667 
#   12.000    2.500    0.000    0.000    0.000    0.000 
#    0.000    0.000    0.000    0.000    0.000    0.000 
#
# Total GULP energy -133990.510591 kJ/mol
# GULP energy per Si atom -5582.937941 kJ/mol
# Density = 2.415430 g / cm^3
# Si number density = 24.209398 Si / 1000 Ang^3
#
#
#
# Elastic Constant Matrix: (Units=GPa)
#
#
# Indices 1 2 3 4 5 6 
#
# 1 110.7790 60.9951 10.3382 0.0000 -10.7115 0.0000
# 2 60.9951 148.1366 6.8518 0.0000 12.3005 0.0000
# 3 10.3382 6.8518 56.4288 0.0000 -8.1653 0.0000
# 4 0.0000 0.0000 0.0000 33.4463 0.0000 -1.5152
# 5 -10.7115 12.3005 -8.1653 0.0000 40.6583 0.0000
# 6 0.0000 0.0000 0.0000 -1.5152 0.0000 38.4711
#
#
#
# Elastic Compliance Matrix: (Units=1/GPa)
#
#
# Indices 1 2 3 4 5 6 
#
# 1 0.012645 -0.005564 -0.000943 0.000000 0.004825 0.000000
# 2 -0.005564 0.009449 -0.000776 0.000000 -0.004480 0.000000
# 3 -0.000943 -0.000776 0.018525 0.000000 0.003707 0.000000
# 4 0.000000 0.000000 0.000000 0.029952 0.000000 0.001180
# 5 0.004825 -0.004480 0.003707 0.000000 0.027966 0.000000
# 6 0.000000 0.000000 0.000000 0.001180 0.000000 0.026040
#
#
# Mechanical properties :
#
#
# Convention : Reuss Voigt Hill
#
# Bulk Modulus (GPa) = 38.38291 52.41274 45.39783
# Shear Modulus (GPa) = 33.82327 38.32578 36.07452
#
# Velocity S-wave (km/s) = 3.74185 3.98313 3.86437
# Velocity P-wave (km/s) = 5.87857 6.54603 6.22126
#
# Compressibility (1/GPa) = 0.02605326
#
# Stress axis : x y z
#
# Youngs Moduli (GPa) = 79.08385 105.82862 53.98162
#
# Poissons Ratio (x) = 0.58878 0.05090
# Poissons Ratio (y) = 0.43999 0.04191
# Poissons Ratio (z) = 0.07457 0.08216
#
# Static dielectric constant tensor:
#      x y z
#    x 2.103540 0.000000 -0.007640 
#    y 0.000000 2.018410 0.000000 
#    z -0.007640 0.000000 2.023080 
# 
# From -- ./inp_files/177750.got.cif
#   From: 2010.05.17/outbox.cif.g08.bks.cpg/sg15_89_cif.got.tgz:177750.got - 2010.06.03 18:47:42.
