data_PCOD9290349
_publ_section_title
;
Structure prediction by ZEFSAII (Michael W. Deem and Ramdas Pophale) SiO2 
 PCOD9290349
Probable space group: C 2/C
;
_chemical_formula_sum "Si O2"
_cell_formula_units_Z 32
_cell_length_a 7.026342
_cell_length_b 19.614897
_cell_length_c 13.287304
_cell_angle_alpha 90.000000
_cell_angle_beta 123.376192
_cell_angle_gamma 90.000000
_cell_volume 1529.249921
_symmetry_space_group_name_H-M "C 2/C"
_symmetry_group_IT_number 15
_symmetry_cell_setting 'monoclinic'
loop_
_space_group_symop_operation_xyz
x,y,z
-x,y,1/2-z
-x,-y,-z
x,-y,1/2+z
1/2+x,1/2+y,z
1/2-x,1/2+y,1/2-z
1/2-x,1/2-y,-z
1/2+x,1/2-y,1/2+z
loop_
_atom_site_type_symbol
_atom_site_label
_atom_site_fract_x
_atom_site_fract_y
_atom_site_fract_z
Si Si1 0.500000 0.544168 0.250000
Si Si2 0.727187 0.358999 0.971846
Si Si3 0.879972 0.552002 0.885404
Si Si4 0.020268 0.757550 0.068907
Si Si5 0.500000 0.658395 0.750000
O O1 0.425023 0.589501 0.135142
O O2 0.284981 0.498494 0.223069
O O3 0.863507 0.313148 0.929784
O O4 0.582319 0.309583 0.998491
O O5 0.909227 0.402522 0.089943
O O6 0.689520 0.609831 0.857956
O O7 0.000000 0.500000 0.000000
O O8 0.107555 0.792273 0.197240
O O9 0.750000 0.750000 0.000000
#
# Coordination Sequence:
#
# PCOD9290349 Si02
#       5
#     4   8   8   8   4
#     4   9  20  38  70  88 126 167 210 264 312 377
#     4  10  22  41  65  92 128 163 212 262 322 374
#     4   9  19  41  63  90 126 164 210 262 303 383
#     4  11  24  40  63  96 127 163 210 267 313 384
#     4  11  22  40  66  88 130 165 208 264 322 363
#
# _framework density 20.925291000000001
#
# number of rings (size 3 to 8) (size 9 to 14) (size 15 to 20)
#    0.000    2.000    2.500    0.000    3.500    1.000 
#    0.000   13.750    0.000    0.000    0.000    0.000 
#    0.000    0.000    0.000    0.000    0.000    0.000 
#
# Total GULP energy -89097.181227 kJ/mol
# GULP energy per Si atom -5568.573827 kJ/mol
# Density = 2.087766 g / cm^3
# Si number density = 20.925291 Si / 1000 Ang^3
#
#
#
# Elastic Constant Matrix: (Units=GPa)
#
#
# Indices 1 2 3 4 5 6 
#
# 1 89.9538 48.6288 37.7502 0.0000 19.1516 0.0000
# 2 48.6288 126.7161 55.3606 0.0000 18.0839 0.0000
# 3 37.7502 55.3606 82.2879 0.0000 23.4126 0.0000
# 4 0.0000 0.0000 0.0000 27.7737 0.0000 7.8078
# 5 19.1516 18.0839 23.4126 0.0000 33.4002 0.0000
# 6 0.0000 0.0000 0.0000 7.8078 0.0000 15.1617
#
#
#
# Elastic Compliance Matrix: (Units=1/GPa)
#
#
# Indices 1 2 3 4 5 6 
#
# 1 0.015547 -0.003918 -0.003202 0.000000 -0.004549 0.000000
# 2 -0.003918 0.012190 -0.006451 0.000000 0.000169 0.000000
# 3 -0.003202 -0.006451 0.020543 0.000000 -0.009071 0.000000
# 4 0.000000 0.000000 0.000000 0.042100 0.000000 -0.021680
# 5 -0.004549 0.000169 -0.009071 0.000000 0.038815 0.000000
# 6 0.000000 0.000000 0.000000 -0.021680 0.000000 0.077120
#
#
# Mechanical properties :
#
#
# Convention : Reuss Voigt Hill
#
# Bulk Modulus (GPa) = 47.31300 64.71523 56.01411
# Shear Modulus (GPa) = 20.78971 25.74833 23.26902
#
# Velocity S-wave (km/s) = 3.15544 3.51164 3.33829
# Velocity P-wave (km/s) = 5.99460 6.88738 6.45644
#
# Compressibility (1/GPa) = 0.02113584
#
# Stress axis : x y z
#
# Youngs Moduli (GPa) = 64.31972 82.03593 48.67951
#
# Poissons Ratio (x) = 0.32145 0.15588
# Poissons Ratio (y) = 0.25203 0.31405
# Poissons Ratio (z) = 0.20596 0.52925
#
# Static dielectric constant tensor:
#      x y z
#    x 1.743060 0.000000 0.010980 
#    y 0.000000 1.781230 0.000000 
#    z 0.010980 0.000000 1.786350 
# 
# From -- ./inp_files/71939.got.cif
#   From: 2010.05.17/outbox.cif.g08.bks.cpg/sg15_36_cif.got.tgz:71939.got - 2010.06.03 18:47:42.
