data_PCOD9290430
_publ_section_title
;
Structure prediction by ZEFSAII (Michael W. Deem and Ramdas Pophale) SiO2 
 PCOD9290430
Probable space group: C 2/C
;
_chemical_formula_sum "Si O2"
_cell_formula_units_Z 56
_cell_length_a 25.817537
_cell_length_b 10.777854
_cell_length_c 28.260146
_cell_angle_alpha 90.000000
_cell_angle_beta 20.426415
_cell_angle_gamma 90.000000
_cell_volume 2744.429409
_symmetry_space_group_name_H-M "C 2/C"
_symmetry_group_IT_number 15
_symmetry_cell_setting 'monoclinic'
loop_
_space_group_symop_operation_xyz
x,y,z
-x,y,1/2-z
-x,-y,-z
x,-y,1/2+z
1/2+x,1/2+y,z
1/2-x,1/2+y,1/2-z
1/2-x,1/2-y,-z
1/2+x,1/2-y,1/2+z
loop_
_atom_site_type_symbol
_atom_site_label
_atom_site_fract_x
_atom_site_fract_y
_atom_site_fract_z
Si Si1 0.132942 0.466955 0.994093
Si Si2 0.323044 0.634088 0.656344
Si Si3 0.669768 0.358039 0.238547
Si Si4 0.896982 0.002049 0.447857
Si Si5 0.971027 0.783188 0.600200
Si Si6 0.665579 0.632309 0.093698
Si Si7 0.679481 0.928649 0.715030
O O1 0.211454 0.551139 0.887362
O O2 0.249037 0.425222 0.934801
O O3 0.063229 0.341618 0.032344
O O4 0.995052 0.542112 0.134229
O O5 0.346938 0.618249 0.691289
O O6 0.200096 0.742721 0.754197
O O7 0.468767 0.666203 0.501359
O O8 0.252458 0.510940 0.694079
O O9 0.511032 0.388784 0.351571
O O10 0.710064 0.215594 0.196036
O O11 0.850326 0.035467 0.435290
O O12 0.986232 0.116953 0.396136
O O13 0.756696 0.975903 0.601128
O O14 0.500000 0.670569 0.250000
O O15 0.750000 0.750000 0.000000
#
# Coordination Sequence:
#
# PCOD9290430 Si02
#       7
#     8   8   8   8   8   8   8
#     4  11  24  44  69  99 137 168 228 282 336 400
#     4  10  25  38  66  94 135 177 230 266 340 391
#     4  12  25  43  65  95 142 182 220 274 325 414
#     4  11  24  44  69  99 137 168 228 282 336 400
#     4  10  22  41  66 100 128 169 220 284 336 392
#     4  12  26  44  75 105 132 174 219 286 348 388
#     4  10  26  43  63  99 135 185 220 276 329 407
#
# _framework density 20.404969999999999
#
# number of rings (size 3 to 8) (size 9 to 14) (size 15 to 20)
#    0.000    1.143    2.857    1.714   10.000    2.286 
#    0.000    4.286    0.000    0.000    0.000    0.000 
#    0.000    0.000    0.000    0.000    0.000    0.000 
#
# Total GULP energy -156739.049900 kJ/mol
# GULP energy per Si atom -5597.823211 kJ/mol
# Density = 2.035853 g / cm^3
# Si number density = 20.404970 Si / 1000 Ang^3
#
#
#
# Elastic Constant Matrix: (Units=GPa)
#
#
# Indices 1 2 3 4 5 6 
#
# 1 64.9381 10.0723 6.1158 -0.0251 8.5163 0.0165
# 2 10.0723 86.6553 10.6639 -0.0288 8.0085 0.0125
# 3 6.1158 10.6639 79.0780 -0.0650 4.3307 0.0272
# 4 -0.0251 -0.0288 -0.0650 26.0412 0.0101 12.8596
# 5 8.5163 8.0085 4.3307 0.0101 22.8269 -0.0080
# 6 0.0165 0.0125 0.0272 12.8596 -0.0080 12.1411
#
#
#
# Elastic Compliance Matrix: (Units=1/GPa)
#
#
# Indices 1 2 3 4 5 6 
#
# 1 0.016398 -0.001299 -0.000791 0.000054 -0.005512 -0.000080
# 2 -0.001299 0.012184 -0.001349 0.000032 -0.003534 -0.000044
# 3 -0.000791 -0.001349 0.012982 0.000093 -0.001695 -0.000127
# 4 0.000054 0.000032 0.000093 0.080512 -0.000114 -0.085277
# 5 -0.005512 -0.003534 -0.001695 -0.000114 0.047426 0.000167
# 6 -0.000080 -0.000044 -0.000127 -0.085277 0.000167 0.172689
#
#
# Mechanical properties :
#
#
# Convention : Reuss Voigt Hill
#
# Bulk Modulus (GPa) = 28.83089 31.59728 30.21409
# Shear Modulus (GPa) = 13.86461 25.78980 19.82720
#
# Velocity S-wave (km/s) = 2.60950 3.55899 3.12057
# Velocity P-wave (km/s) = 4.82072 5.69274 5.27478
#
# Compressibility (1/GPa) = 0.03468502
#
# Stress axis : x y z
#
# Youngs Moduli (GPa) = 60.98225 82.07757 77.03114
#
# Poissons Ratio (x) = 0.10664 0.06094
# Poissons Ratio (y) = 0.07923 0.10391
# Poissons Ratio (z) = 0.04824 0.11072
#
# Static dielectric constant tensor:
#      x y z
#    x 1.687810 0.000000 -0.003290 
#    y 0.000000 1.725110 0.000000 
#    z -0.003290 0.000000 1.726220 
# 
# From -- ./inp_files/319518.got.cif
#   From: 2010.05.17/outbox.cif.g08.bks.cpg/sg15_160_cif.got.tgz:319518.got - 2010.06.03 18:47:42.
