data_PCOD9290335
_publ_section_title
;
Structure prediction by ZEFSAII (Michael W. Deem and Ramdas Pophale) SiO2 
 PCOD9290335
Probable space group: C 2/C
;
_chemical_formula_sum "Si O2"
_cell_formula_units_Z 48
_cell_length_a 17.716823
_cell_length_b 16.597289
_cell_length_c 11.059074
_cell_angle_alpha 90.000000
_cell_angle_beta 148.003231
_cell_angle_gamma 90.000000
_cell_volume 1723.107128
_symmetry_space_group_name_H-M "C 2/C"
_symmetry_group_IT_number 15
_symmetry_cell_setting 'monoclinic'
loop_
_space_group_symop_operation_xyz
x,y,z
-x,y,1/2-z
-x,-y,-z
x,-y,1/2+z
1/2+x,1/2+y,z
1/2-x,1/2+y,1/2-z
1/2-x,1/2-y,-z
1/2+x,1/2-y,1/2+z
loop_
_atom_site_type_symbol
_atom_site_label
_atom_site_fract_x
_atom_site_fract_y
_atom_site_fract_z
Si Si1 0.500000 0.493740 0.750000
Si Si2 0.998214 0.391847 0.063202
Si Si3 0.292164 0.211112 0.756669
Si Si4 0.500000 0.962992 0.750000
Si Si5 0.000000 0.000000 0.000000
Si Si6 0.000000 0.250215 0.250000
Si Si7 0.288054 0.633961 0.635894
Si Si8 0.832178 0.137469 0.426454
O O1 0.587693 0.457618 0.759146
O O2 0.410246 0.548940 0.524418
O O3 0.113117 0.369803 0.117860
O O4 0.007895 0.474469 0.147883
O O5 0.040317 0.313041 0.199518
O O6 0.833353 0.381065 0.813078
O O7 0.232153 0.212687 0.813031
O O8 0.371159 0.297890 0.875874
O O9 0.148782 0.207830 0.483463
O O10 0.362857 0.908328 0.588316
O O11 0.114254 0.926618 0.156660
O O12 0.359243 0.653823 0.604566
#
# Coordination Sequence:
#
# PCOD9290335 Si02
#       8
#     4   8   8   4   4   4   8   8
#     4  10  22  42  68  94 132 172 216 274 326 400
#     4  10  22  41  65  90 126 165 209 268 319 389
#     4  11  23  40  65  92 121 163 212 264 323 383
#     4  11  24  41  62  95 128 167 212 256 328 393
#     4  10  24  42  60  92 128 172 216 260 328 390
#     4   9  22  41  62  91 122 161 212 264 324 383
#     4  11  24  40  63  92 128 167 210 266 320 395
#     4  10  23  42  63  92 125 163 213 266 325 381
#
# _framework density 27.856655
#
# number of rings (size 3 to 8) (size 9 to 14) (size 15 to 20)
#    0.000    1.667    0.000    3.000    0.000   14.667 
#    0.000    0.000    0.000    0.000    0.000    0.000 
#    0.000    0.000    0.000    0.000    0.000    0.000 
#
# Total GULP energy -133643.284302 kJ/mol
# GULP energy per Si atom -5568.470179 kJ/mol
# Density = 2.779325 g / cm^3
# Si number density = 27.856655 Si / 1000 Ang^3
#
#
#
# Elastic Constant Matrix: (Units=GPa)
#
#
# Indices 1 2 3 4 5 6 
#
# 1 77.3617 20.6123 9.7650 0.0000 -3.6274 0.0000
# 2 20.6123 98.8302 64.2852 0.0000 0.3980 0.0000
# 3 9.7650 64.2852 129.1615 0.0000 15.8057 0.0000
# 4 0.0000 0.0000 0.0000 67.3021 0.0000 -10.9878
# 5 -3.6274 0.3980 15.8057 0.0000 52.7360 0.0000
# 6 0.0000 0.0000 0.0000 -10.9878 0.0000 42.3678
#
#
#
# Elastic Compliance Matrix: (Units=1/GPa)
#
#
# Indices 1 2 3 4 5 6 
#
# 1 0.013751 -0.003147 0.000423 0.000000 0.000843 0.000000
# 2 -0.003147 0.015932 -0.007942 0.000000 0.002044 0.000000
# 3 0.000423 -0.007942 0.012096 0.000000 -0.003536 0.000000
# 4 0.000000 0.000000 0.000000 0.015515 0.000000 0.004024
# 5 0.000843 0.002044 -0.003536 0.000000 0.020065 0.000000
# 6 0.000000 0.000000 0.000000 0.004024 0.000000 0.024646
#
#
# Mechanical properties :
#
#
# Convention : Reuss Voigt Hill
#
# Bulk Modulus (GPa) = 48.90337 54.96427 51.93382
# Shear Modulus (GPa) = 38.41672 46.52725 42.47198
#
# Velocity S-wave (km/s) = 3.71763 4.09129 3.90893
# Velocity P-wave (km/s) = 6.00177 6.48785 6.24953
#
# Compressibility (1/GPa) = 0.02044849
#
# Stress axis : x y z
#
# Youngs Moduli (GPa) = 72.72321 62.76557 82.67385
#
# Poissons Ratio (x) = 0.19751 -0.03501
# Poissons Ratio (y) = 0.22884 0.65659
# Poissons Ratio (z) = -0.03079 0.49848
#
# Static dielectric constant tensor:
#      x y z
#    x 3.973790 0.000000 -0.842190 
#    y 0.000000 3.721860 0.000000 
#    z -0.842190 0.000000 2.777220 
# 
# From -- ./inp_files/114330.got.cif
#   From: 2010.05.17/outbox.cif.g08.bks.cpg/sg15_58_cif.got.tgz:114330.got - 2010.06.03 18:47:42.
