data_PCOD9290489
_publ_section_title
;
Structure prediction by ZEFSAII (Michael W. Deem and Ramdas Pophale) SiO2 
 PCOD9290489
Probable space group: C 2/C
;
_chemical_formula_sum "Si O2"
_cell_formula_units_Z 40
_cell_length_a 13.902558
_cell_length_b 11.834613
_cell_length_c 10.720322
_cell_angle_alpha 90.000000
_cell_angle_beta 99.081958
_cell_angle_gamma 90.000000
_cell_volume 1741.717377
_symmetry_space_group_name_H-M "C 2/C"
_symmetry_group_IT_number 15
_symmetry_cell_setting 'monoclinic'
loop_
_space_group_symop_operation_xyz
x,y,z
-x,y,1/2-z
-x,-y,-z
x,-y,1/2+z
1/2+x,1/2+y,z
1/2-x,1/2+y,1/2-z
1/2-x,1/2-y,-z
1/2+x,1/2-y,1/2+z
loop_
_atom_site_type_symbol
_atom_site_label
_atom_site_fract_x
_atom_site_fract_y
_atom_site_fract_z
Si Si1 0.211792 0.765820 0.151504
Si Si2 0.523075 0.403391 0.104187
Si Si3 0.664570 0.693590 0.908108
Si Si4 0.886881 0.574099 0.722528
Si Si5 0.295424 0.019970 0.449047
O O1 0.132711 0.862021 0.098844
O O2 0.165054 0.742229 0.277323
O O3 0.317326 0.816420 0.202607
O O4 0.221230 0.654026 0.072155
O O5 0.500000 0.427901 0.250000
O O6 0.443486 0.306029 0.060077
O O7 0.500000 0.500000 0.000000
O O8 0.701659 0.561916 0.911566
O O9 0.750000 0.750000 0.000000
O O10 0.850034 0.506047 0.592278
O O11 0.862314 0.512935 0.846316
O O12 0.000000 0.600848 0.750000
#
# Coordination Sequence:
#
# PCOD9290489 Si02
#       5
#     8   8   8   8   8
#     4  10  23  41  62  93 128 164 211 262 316 379
#     4  10  22  42  67  94 127 168 212 264 320 377
#     4  10  22  41  66  95 126 167 211 259 319 384
#     4  11  24  41  63  92 125 165 209 258 314 374
#     4  11  23  43  65  92 127 164 208 263 317 376
#
# _framework density 22.965838999999999
#
# number of rings (size 3 to 8) (size 9 to 14) (size 15 to 20)
#    0.000    1.600    0.000    3.600    0.000   10.400 
#    0.000    8.000    0.000    0.000    0.000    0.000 
#    0.000    0.000    0.000    0.000    0.000    0.000 
#
# Total GULP energy -111578.106510 kJ/mol
# GULP energy per Si atom -5578.905325 kJ/mol
# Density = 2.291357 g / cm^3
# Si number density = 22.965839 Si / 1000 Ang^3
#
#
#
# Elastic Constant Matrix: (Units=GPa)
#
#
# Indices 1 2 3 4 5 6 
#
# 1 140.9656 16.4401 11.2599 0.0000 9.3042 0.0000
# 2 16.4401 77.2906 5.2448 0.0000 -4.6423 0.0000
# 3 11.2599 5.2448 64.2817 0.0000 -13.9215 0.0000
# 4 0.0000 0.0000 0.0000 38.7875 0.0000 3.9926
# 5 9.3042 -4.6423 -13.9215 0.0000 38.1634 0.0000
# 6 0.0000 0.0000 0.0000 3.9926 0.0000 28.0066
#
#
#
# Elastic Compliance Matrix: (Units=1/GPa)
#
#
# Indices 1 2 3 4 5 6 
#
# 1 0.007609 -0.001660 -0.001784 0.000000 -0.002708 0.000000
# 2 -0.001660 0.013432 -0.000395 0.000000 0.001895 0.000000
# 3 -0.001784 -0.000395 0.017356 0.000000 0.006718 0.000000
# 4 0.000000 0.000000 0.000000 0.026165 0.000000 -0.003730
# 5 -0.002708 0.001895 0.006718 0.000000 0.029544 0.000000
# 6 0.000000 0.000000 0.000000 -0.003730 0.000000 0.036238
#
#
# Mechanical properties :
#
#
# Convention : Reuss Voigt Hill
#
# Bulk Modulus (GPa) = 32.55250 38.71414 35.63332
# Shear Modulus (GPa) = 33.72426 37.63103 35.67764
#
# Velocity S-wave (km/s) = 3.83620 4.05231 3.94573
# Velocity P-wave (km/s) = 5.81610 6.22807 6.02560
#
# Compressibility (1/GPa) = 0.03071961
#
# Stress axis : x y z
#
# Youngs Moduli (GPa) = 131.42827 74.44982 57.61652
#
# Poissons Ratio (x) = 0.12359 0.10277
# Poissons Ratio (y) = 0.21817 0.02275
# Poissons Ratio (z) = 0.23443 0.02940
#
# Static dielectric constant tensor:
#      x y z
#    x 1.863940 0.000000 -0.031870 
#    y 0.000000 1.977550 0.000000 
#    z -0.031870 0.000000 2.065770 
# 
# From -- ./inp_files/95144.got.cif
#   From: 2010.05.17/outbox.cif.g08.bks.cpg/sg15_48_cif.got.tgz:95144.got - 2010.06.03 18:47:42.
