data_PCOD9290916
_publ_section_title
;
Structure prediction by ZEFSAII (Michael W. Deem and Ramdas Pophale) SiO2 
 PCOD9290916
Probable space group: C 2/C
;
_chemical_formula_sum "Si O2"
_cell_formula_units_Z 52
_cell_length_a 11.086985
_cell_length_b 18.217001
_cell_length_c 14.832916
_cell_angle_alpha 90.000000
_cell_angle_beta 66.551472
_cell_angle_gamma 90.000000
_cell_volume 2748.426326
_symmetry_space_group_name_H-M "C 2/C"
_symmetry_group_IT_number 15
_symmetry_cell_setting 'monoclinic'
loop_
_space_group_symop_operation_xyz
x,y,z
-x,y,1/2-z
-x,-y,-z
x,-y,1/2+z
1/2+x,1/2+y,z
1/2-x,1/2+y,1/2-z
1/2-x,1/2-y,-z
1/2+x,1/2-y,1/2+z
loop_
_atom_site_type_symbol
_atom_site_label
_atom_site_fract_x
_atom_site_fract_y
_atom_site_fract_z
Si Si1 0.656893 0.636630 0.997568
Si Si2 0.104444 0.307471 0.970429
Si Si3 0.906843 0.663645 0.690899
Si Si4 0.577686 0.584257 0.316922
Si Si5 0.500000 0.300040 0.250000
Si Si6 0.838622 0.918118 0.196954
Si Si7 0.790297 0.296488 0.751984
O O1 0.773902 0.641619 0.034508
O O2 0.525941 0.600258 0.074013
O O3 0.631333 0.721671 0.981855
O O4 0.696852 0.593567 0.896623
O O5 0.109318 0.311265 0.860669
O O6 0.986842 0.326725 0.074147
O O7 0.795121 0.602147 0.711607
O O8 0.823621 0.737415 0.739396
O O9 0.000000 0.649820 0.750000
O O10 0.500000 0.609286 0.250000
O O11 0.610615 0.498792 0.299017
O O12 0.709528 0.630431 0.295806
O O13 0.447896 0.356374 0.189381
O O14 0.623911 0.245932 0.198400
#
# Coordination Sequence:
#
# PCOD9290916 Si02
#       7
#     8   8   8   8   4   8   8
#     4  11  20  35  63  95 119 150 207 263 303 360
#     4  11  19  34  64  97 116 143 210 268 298 357
#     4  11  19  36  63  89 118 157 201 256 307 357
#     4  12  23  39  64  91 122 165 209 255 309 365
#     4  10  22  42  60  82 126 172 192 246 320 366
#     4  11  23  41  60  87 128 167 204 249 315 375
#     4  11  22  39  62  91 124 158 207 257 304 369
#
# _framework density 18.919916000000001
#
# number of rings (size 3 to 8) (size 9 to 14) (size 15 to 20)
#    0.000    0.923    8.462    1.846    0.000    0.000 
#    1.385    7.692    0.000    0.000    0.000    0.000 
#    0.000    0.000    0.000    0.000    0.000    0.000 
#
# Total GULP energy -144885.241687 kJ/mol
# GULP energy per Si atom -5572.509296 kJ/mol
# Density = 1.887685 g / cm^3
# Si number density = 18.919916 Si / 1000 Ang^3
#
#
#
# Elastic Constant Matrix: (Units=GPa)
#
#
# Indices 1 2 3 4 5 6 
#
# 1 84.6842 43.1780 10.9401 0.0000 -8.4381 0.0000
# 2 43.1780 88.7419 12.8657 0.0000 -15.9264 0.0000
# 3 10.9401 12.8657 83.9063 0.0000 -34.8990 0.0000
# 4 0.0000 0.0000 0.0000 14.0388 0.0000 -7.7751
# 5 -8.4381 -15.9264 -34.8990 0.0000 25.9182 0.0000
# 6 0.0000 0.0000 0.0000 -7.7751 0.0000 29.1668
#
#
#
# Elastic Compliance Matrix: (Units=1/GPa)
#
#
# Indices 1 2 3 4 5 6 
#
# 1 0.015804 -0.007782 -0.001628 0.000000 -0.001829 0.000000
# 2 -0.007782 0.016825 0.003821 0.000000 0.012951 0.000000
# 3 -0.001628 0.003821 0.027959 0.000000 0.039465 0.000000
# 4 0.000000 0.000000 0.000000 0.083569 0.000000 0.022278
# 5 -0.001829 0.012951 0.039465 0.000000 0.099085 0.000000
# 6 0.000000 0.000000 0.000000 0.022278 0.000000 0.040224
#
#
# Mechanical properties :
#
#
# Convention : Reuss Voigt Hill
#
# Bulk Modulus (GPa) = 20.23815 43.47775 31.85795
# Shear Modulus (GPa) = 16.07123 26.51467 21.29295
#
# Velocity S-wave (km/s) = 2.91767 3.74761 3.35838
# Velocity P-wave (km/s) = 4.69791 6.46188 5.64917
#
# Compressibility (1/GPa) = 0.04941163
#
# Stress axis : x y z
#
# Youngs Moduli (GPa) = 63.27329 59.43458 35.76672
#
# Poissons Ratio (x) = 0.46251 0.05823
# Poissons Ratio (y) = 0.49239 -0.13668
# Poissons Ratio (z) = 0.10301 -0.22712
#
# Static dielectric constant tensor:
#      x y z
#    x 1.686710 0.000000 0.001900 
#    y 0.000000 1.651060 0.000000 
#    z 0.001900 0.000000 1.675340 
# 
# From -- ./inp_files/145041.got.cif
#   From: 2010.05.17/outbox.cif.g08.bks.cpg/sg15_73_cif.got.tgz:145041.got - 2010.06.03 18:47:42.
