data_PCOD9290999
_publ_section_title
;
Structure prediction by ZEFSAII (Michael W. Deem and Ramdas Pophale) SiO2 
 PCOD9290999
Probable space group: C 2/C
;
_chemical_formula_sum "Si O2"
_cell_formula_units_Z 40
_cell_length_a 11.913524
_cell_length_b 6.861714
_cell_length_c 19.135723
_cell_angle_alpha 90.000000
_cell_angle_beta 91.504247
_cell_angle_gamma 90.000000
_cell_volume 1563.752585
_symmetry_space_group_name_H-M "C 2/C"
_symmetry_group_IT_number 15
_symmetry_cell_setting 'monoclinic'
loop_
_space_group_symop_operation_xyz
x,y,z
-x,y,1/2-z
-x,-y,-z
x,-y,1/2+z
1/2+x,1/2+y,z
1/2-x,1/2+y,1/2-z
1/2-x,1/2-y,-z
1/2+x,1/2-y,1/2+z
loop_
_atom_site_type_symbol
_atom_site_label
_atom_site_fract_x
_atom_site_fract_y
_atom_site_fract_z
Si Si1 0.178448 0.443731 0.972187
Si Si2 0.250913 0.556153 0.183732
Si Si3 0.487238 0.438662 0.669285
Si Si4 0.277522 0.636224 0.340375
Si Si5 0.063337 0.301095 0.585000
O O1 0.252406 0.496494 0.906010
O O2 0.055047 0.394717 0.940077
O O3 0.250000 0.250000 0.000000
O O4 0.150822 0.613758 0.027395
O O5 0.366847 0.662317 0.164508
O O6 0.246324 0.539600 0.267074
O O7 0.282982 0.342260 0.155392
O O8 0.134672 0.636017 0.154058
O O9 0.500000 0.519000 0.750000
O O10 0.593069 0.297309 0.663113
O O11 0.517443 0.588351 0.607752
#
# Coordination Sequence:
#
# PCOD9290999 Si02
#       5
#     8   8   8   8   8
#     4  11  23  44  66  99 135 177 225 273 334 397
#     4  11  22  44  64  98 134 166 224 279 323 393
#     4  10  22  42  62  97 132 168 220 279 329 386
#     4  11  23  43  70  94 137 175 215 280 332 388
#     4  11  22  41  72  91 135 183 212 277 336 387
#
# _framework density 25.579491999999998
#
# number of rings (size 3 to 8) (size 9 to 14) (size 15 to 20)
#    0.000    1.200    4.000    2.400    0.000    0.800 
#   14.400    4.000    0.000    0.000    0.000    0.000 
#    0.000    0.000    0.000    0.000    0.000    0.000 
#
# Total GULP energy -111414.969743 kJ/mol
# GULP energy per Si atom -5570.748487 kJ/mol
# Density = 2.552127 g / cm^3
# Si number density = 25.579492 Si / 1000 Ang^3
#
#
#
# Elastic Constant Matrix: (Units=GPa)
#
#
# Indices 1 2 3 4 5 6 
#
# 1 162.8423 27.0033 65.1558 0.0000 -3.0981 0.0000
# 2 27.0033 47.3988 13.9473 0.0000 2.5096 0.0000
# 3 65.1558 13.9473 109.3016 0.0000 -4.0358 0.0000
# 4 0.0000 0.0000 0.0000 29.3509 0.0000 -1.9153
# 5 -3.0981 2.5096 -4.0358 0.0000 44.2502 0.0000
# 6 0.0000 0.0000 0.0000 -1.9153 0.0000 27.2223
#
#
#
# Elastic Compliance Matrix: (Units=1/GPa)
#
#
# Indices 1 2 3 4 5 6 
#
# 1 0.008601 -0.003549 -0.004661 0.000000 0.000378 0.000000
# 2 -0.003549 0.023485 -0.000943 0.000000 -0.001666 0.000000
# 3 -0.004661 -0.000943 0.012078 0.000000 0.000829 0.000000
# 4 0.000000 0.000000 0.000000 0.034228 0.000000 0.002408
# 5 0.000378 -0.001666 0.000829 0.000000 0.022795 0.000000
# 6 0.000000 0.000000 0.000000 0.002408 0.000000 0.036904
#
#
# Mechanical properties :
#
#
# Convention : Reuss Voigt Hill
#
# Bulk Modulus (GPa) = 38.66962 59.08392 48.87677
# Shear Modulus (GPa) = 30.30010 34.39376 32.34693
#
# Velocity S-wave (km/s) = 3.44546 3.67083 3.55993
# Velocity P-wave (km/s) = 5.56583 6.41210 6.00389
#
# Compressibility (1/GPa) = 0.02586010
#
# Stress axis : x y z
#
# Youngs Moduli (GPa) = 116.26073 42.58033 82.79455
#
# Poissons Ratio (x) = 0.15111 0.38587
# Poissons Ratio (y) = 0.41260 0.07806
# Poissons Ratio (z) = 0.54184 0.04014
#
# Static dielectric constant tensor:
#      x y z
#    x 2.014710 0.000000 0.004370 
#    y 0.000000 2.017290 0.000000 
#    z 0.004370 0.000000 2.062360 
# 
# From -- ./inp_files/195147.got.cif
#   From: 2010.05.17/outbox.cif.g08.bks.cpg/sg15_98_cif.got.tgz:195147.got - 2010.06.03 18:47:42.
