data_PCOD9290275
_publ_section_title
;
Structure prediction by ZEFSAII (Michael W. Deem and Ramdas Pophale) SiO2 
 PCOD9290275
Probable space group: C 2/C
;
_chemical_formula_sum "Si O2"
_cell_formula_units_Z 48
_cell_length_a 14.518267
_cell_length_b 20.198467
_cell_length_c 13.088325
_cell_angle_alpha 90.000000
_cell_angle_beta 36.990698
_cell_angle_gamma 90.000000
_cell_volume 2309.333739
_symmetry_space_group_name_H-M "C 2/C"
_symmetry_group_IT_number 15
_symmetry_cell_setting 'monoclinic'
loop_
_space_group_symop_operation_xyz
x,y,z
-x,y,1/2-z
-x,-y,-z
x,-y,1/2+z
1/2+x,1/2+y,z
1/2-x,1/2+y,1/2-z
1/2-x,1/2-y,-z
1/2+x,1/2-y,1/2+z
loop_
_atom_site_type_symbol
_atom_site_label
_atom_site_fract_x
_atom_site_fract_y
_atom_site_fract_z
Si Si1 0.000000 0.105493 0.750000
Si Si2 0.000000 0.530525 0.750000
Si Si3 0.713504 0.671387 0.307346
Si Si4 0.222354 0.036969 0.408746
Si Si5 0.795468 0.599439 0.804170
Si Si6 0.131443 0.192289 0.797809
Si Si7 0.181659 0.180256 0.095995
O O1 0.881783 0.154329 0.797982
O O2 0.073340 0.058739 0.600737
O O3 0.148002 0.483916 0.623803
O O4 0.031967 0.576267 0.821324
O O5 0.765843 0.601122 0.305707
O O6 0.816643 0.732090 0.255227
O O7 0.536377 0.684648 0.499930
O O8 0.722107 0.668989 0.177643
O O9 0.208342 0.969298 0.356800
O O10 0.756446 0.654463 0.756921
O O11 0.737240 0.626113 0.965305
O O12 0.000000 0.183850 0.250000
O O13 0.250000 0.250000 0.000000
#
# Coordination Sequence:
#
# PCOD9290275 Si02
#       7
#     4   4   8   8   8   8   8
#     4  10  24  41  66  95 128 178 216 278 320 393
#     4   8  22  43  62  93 130 180 202 286 306 397
#     4  11  23  42  65 100 127 178 214 274 326 395
#     4   9  23  42  65  91 133 169 222 262 330 384
#     4  10  22  41  64  95 134 163 220 265 330 386
#     4  11  24  42  66  96 131 172 222 269 327 388
#     4  12  23  38  66  96 129 170 215 268 325 383
#
# _framework density 20.785215999999998
#
# number of rings (size 3 to 8) (size 9 to 14) (size 15 to 20)
#    1.000    0.667    3.333    0.000    2.333   10.000 
#    0.000    1.667    0.000    0.000    0.000    0.000 
#    0.000    0.000    0.000    0.000    0.000    0.000 
#
# Total GULP energy -133802.038326 kJ/mol
# GULP energy per Si atom -5575.084930 kJ/mol
# Density = 2.073791 g / cm^3
# Si number density = 20.785216 Si / 1000 Ang^3
#
#
#
# Elastic Constant Matrix: (Units=GPa)
#
#
# Indices 1 2 3 4 5 6 
#
# 1 55.1152 15.2901 5.3532 -0.0031 -9.9871 0.0028
# 2 15.2901 144.3018 24.6698 -0.0021 -3.9181 0.0016
# 3 5.3532 24.6698 18.0570 -0.0024 -1.7968 0.0030
# 4 -0.0031 -0.0021 -0.0024 19.3942 0.0011 -5.1107
# 5 -9.9871 -3.9181 -1.7968 0.0011 20.3275 -0.0010
# 6 0.0028 0.0016 0.0030 -5.1107 -0.0010 46.6693
#
#
#
# Elastic Compliance Matrix: (Units=1/GPa)
#
#
# Indices 1 2 3 4 5 6 
#
# 1 0.020572 -0.001357 -0.003294 0.000002 0.009554 -0.000001
# 2 -0.001357 0.009140 -0.012082 -0.000001 0.000027 0.000000
# 3 -0.003294 -0.012082 0.073114 0.000006 0.002516 -0.000003
# 4 0.000002 -0.000001 0.000006 0.053094 -0.000001 0.005814
# 5 0.009554 0.000027 0.002516 -0.000001 0.054116 0.000000
# 6 -0.000001 0.000000 -0.000003 0.005814 0.000000 0.022064
#
#
# Mechanical properties :
#
#
# Convention : Reuss Voigt Hill
#
# Bulk Modulus (GPa) = 14.41768 34.23335 24.32552
# Shear Modulus (GPa) = 17.31986 28.75559 23.03772
#
# Velocity S-wave (km/s) = 2.88979 3.72353 3.33283
# Velocity P-wave (km/s) = 4.25277 5.91541 5.15161
#
# Compressibility (1/GPa) = 0.06935928
#
# Stress axis : x y z
#
# Youngs Moduli (GPa) = 48.61094 109.40878 13.67726
#
# Poissons Ratio (x) = 0.14849 0.04505
# Poissons Ratio (y) = 0.06598 0.16525
# Poissons Ratio (z) = 0.16011 1.32190
#
# Static dielectric constant tensor:
#      x y z
#    x 1.770430 -0.000010 -0.017950 
#    y -0.000010 1.732940 0.000010 
#    z -0.017950 0.000010 1.763230 
# 
# From -- ./inp_files/155965.got.cif
#   From: 2010.05.17/outbox.cif.g08.bks.cpg/sg15_78_cif.got.tgz:155965.got - 2010.06.03 18:47:42.
