data_PCOD9290131
_publ_section_title
;
Structure prediction by ZEFSAII (Michael W. Deem and Ramdas Pophale) SiO2 
 PCOD9290131
Probable space group: C 2/C
;
_chemical_formula_sum "Si O2"
_cell_formula_units_Z 48
_cell_length_a 17.008919
_cell_length_b 21.566045
_cell_length_c 8.267580
_cell_angle_alpha 90.000000
_cell_angle_beta 55.343422
_cell_angle_gamma 90.000000
_cell_volume 2494.601950
_symmetry_space_group_name_H-M "C 2/C"
_symmetry_group_IT_number 15
_symmetry_cell_setting 'monoclinic'
loop_
_space_group_symop_operation_xyz
x,y,z
-x,y,1/2-z
-x,-y,-z
x,-y,1/2+z
1/2+x,1/2+y,z
1/2-x,1/2+y,1/2-z
1/2-x,1/2-y,-z
1/2+x,1/2-y,1/2+z
loop_
_atom_site_type_symbol
_atom_site_label
_atom_site_fract_x
_atom_site_fract_y
_atom_site_fract_z
Si Si1 0.434200 0.893147 0.969334
Si Si2 0.869373 0.593394 0.117934
Si Si3 0.096606 0.096760 0.691294
Si Si4 0.190480 0.468260 0.145285
Si Si5 0.719198 0.820752 0.547236
Si Si6 0.405274 0.470476 0.962113
O O1 0.500000 0.921601 0.750000
O O2 0.520108 0.885373 0.997014
O O3 0.372701 0.838193 0.958413
O O4 0.357609 0.935827 0.144684
O O5 0.832747 0.540656 0.291310
O O6 0.810181 0.654036 0.240412
O O7 0.851999 0.561169 0.967174
O O8 0.187660 0.139365 0.606856
O O9 0.000000 0.131787 0.750000
O O10 0.104756 0.045089 0.540241
O O11 0.087418 0.056708 0.866929
O O12 0.302628 0.452032 0.010566
O O13 0.750000 0.750000 0.500000
O O14 0.500000 0.452946 0.750000
#
# Coordination Sequence:
#
# PCOD9290131 Si02
#       6
#     8   8   8   8   8   8
#     4  10  22  41  62  92 130 159 206 258 311 381
#     4  11  23  37  65  96 130 166 202 259 318 386
#     4  11  22  38  62  90 122 159 201 255 320 376
#     4  12  21  39  67  99 133 161 199 257 338 384
#     4  11  24  43  63  87 120 171 217 258 301 363
#     4  11  22  36  62  96 129 154 199 257 318 383
#
# _framework density 19.241547000000001
#
# number of rings (size 3 to 8) (size 9 to 14) (size 15 to 20)
#    0.000    1.000    3.333    6.000    2.333    3.333 
#    0.000    0.833    0.000    0.000    0.000    0.000 
#    0.000    0.000    0.000    0.000    0.000    0.000 
#
# Total GULP energy -133639.248986 kJ/mol
# GULP energy per Si atom -5568.302041 kJ/mol
# Density = 1.919775 g / cm^3
# Si number density = 19.241547 Si / 1000 Ang^3
#
#
#
# Elastic Constant Matrix: (Units=GPa)
#
#
# Indices 1 2 3 4 5 6 
#
# 1 146.8076 32.0610 45.2065 0.0000 -18.6461 0.0000
# 2 32.0610 92.0506 54.2948 0.0000 -2.2478 0.0000
# 3 45.2065 54.2948 96.6394 0.0000 -21.2702 0.0000
# 4 0.0000 0.0000 0.0000 11.1751 0.0000 -2.1995
# 5 -18.6461 -2.2478 -21.2702 0.0000 39.7563 0.0000
# 6 0.0000 0.0000 0.0000 -2.1995 0.0000 22.2341
#
#
#
# Elastic Compliance Matrix: (Units=1/GPa)
#
#
# Indices 1 2 3 4 5 6 
#
# 1 0.008190 -0.001262 -0.002598 0.000000 0.002379 0.000000
# 2 -0.001262 0.017183 -0.010179 0.000000 -0.005066 0.000000
# 3 -0.002598 -0.010179 0.019141 0.000000 0.008447 0.000000
# 4 0.000000 0.000000 0.000000 0.091262 0.000000 0.009028
# 5 0.002379 -0.005066 0.008447 0.000000 0.030502 0.000000
# 6 0.000000 0.000000 0.000000 0.009028 0.000000 0.045869
#
#
# Mechanical properties :
#
#
# Convention : Reuss Voigt Hill
#
# Bulk Modulus (GPa) = 60.84211 66.51358 63.67785
# Shear Modulus (GPa) = 20.34983 28.22881 24.28932
#
# Velocity S-wave (km/s) = 3.25560 3.83440 3.55679
# Velocity P-wave (km/s) = 6.76910 7.36520 7.07343
#
# Compressibility (1/GPa) = 0.01643598
#
# Stress axis : x y z
#
# Youngs Moduli (GPa) = 122.10756 58.19658 52.24378
#
# Poissons Ratio (x) = 0.07342 0.13575
# Poissons Ratio (y) = 0.15406 0.53178
# Poissons Ratio (z) = 0.31728 0.59237
#
# Static dielectric constant tensor:
#      x y z
#    x 1.790530 0.000000 -0.008210 
#    y 0.000000 1.656450 0.000000 
#    z -0.008210 0.000000 1.716280 
# 
# From -- ./inp_files/50022.got.cif
#   From: 2010.05.17/outbox.cif.g08.bks.cpg/sg15_26_cif.got.tgz:50022.got - 2010.06.03 18:47:42.
