data_PCOD9290111
_publ_section_title
;
Structure prediction by ZEFSAII (Michael W. Deem and Ramdas Pophale) SiO2 
 PCOD9290111
Probable space group: C 2/C
;
_chemical_formula_sum "Si O2"
_cell_formula_units_Z 48
_cell_length_a 11.604935
_cell_length_b 26.738705
_cell_length_c 15.475409
_cell_angle_alpha 90.000000
_cell_angle_beta 28.959703
_cell_angle_gamma 90.000000
_cell_volume 2325.117744
_symmetry_space_group_name_H-M "C 2/C"
_symmetry_group_IT_number 15
_symmetry_cell_setting 'monoclinic'
loop_
_space_group_symop_operation_xyz
x,y,z
-x,y,1/2-z
-x,-y,-z
x,-y,1/2+z
1/2+x,1/2+y,z
1/2-x,1/2+y,1/2-z
1/2-x,1/2-y,-z
1/2+x,1/2-y,1/2+z
loop_
_atom_site_type_symbol
_atom_site_label
_atom_site_fract_x
_atom_site_fract_y
_atom_site_fract_z
Si Si1 0.231021 0.012082 0.457893
Si Si2 0.863089 0.862767 0.256695
Si Si3 0.581767 0.577278 0.392508
Si Si4 0.918865 0.448607 0.010891
Si Si5 0.573221 0.222714 0.045751
Si Si6 0.098147 0.819359 0.942224
O O1 0.500000 0.001989 0.250000
O O2 0.081905 0.960993 0.552853
O O3 0.115230 0.050427 0.464494
O O4 0.259111 0.035310 0.533875
O O5 0.696195 0.909862 0.345787
O O6 0.712444 0.815809 0.392529
O O7 0.000000 0.880190 0.250000
O O8 0.060398 0.845950 0.059392
O O9 0.499053 0.635145 0.449051
O O10 0.847103 0.577845 0.180406
O O11 0.000000 0.500000 0.000000
O O12 0.360904 0.195614 0.236934
O O13 0.750000 0.250000 0.000000
O O14 0.478222 0.266077 0.043096
#
# Coordination Sequence:
#
# PCOD9290111 Si02
#       6
#     8   8   8   8   8   8
#     4   9  21  39  62  91 124 168 219 260 312 384
#     4  12  24  35  58  87 128 168 206 256 319 386
#     4  10  22  41  62  85 129 176 212 255 318 385
#     4  11  25  39  60  95 131 165 215 264 319 377
#     4  12  23  37  55  90 126 163 209 263 319 392
#     4  12  23  37  58  84 124 168 209 255 319 383
#
# _framework density 20.644114999999999
#
# number of rings (size 3 to 8) (size 9 to 14) (size 15 to 20)
#    0.000    1.000    5.000    1.500    9.333    1.333 
#    0.000    0.000    0.000    0.000    0.000    4.667 
#    0.000    0.000    0.000    0.000    0.000    0.000 
#
# Total GULP energy -133771.543427 kJ/mol
# GULP energy per Si atom -5573.814309 kJ/mol
# Density = 2.059713 g / cm^3
# Si number density = 20.644115 Si / 1000 Ang^3
#
#
#
# Elastic Constant Matrix: (Units=GPa)
#
#
# Indices 1 2 3 4 5 6 
#
# 1 26.5611 19.3361 13.0285 -0.0012 -2.5790 0.0007
# 2 19.3361 162.8921 48.2495 0.0006 -9.1632 -0.0002
# 3 13.0285 48.2495 119.8934 -0.0035 7.1609 0.0000
# 4 -0.0012 0.0006 -0.0035 44.6198 0.0027 -2.8025
# 5 -2.5790 -9.1632 7.1609 0.0027 15.8802 -0.0005
# 6 0.0007 -0.0002 0.0000 -2.8025 -0.0005 17.9217
#
#
#
# Elastic Compliance Matrix: (Units=1/GPa)
#
#
# Indices 1 2 3 4 5 6 
#
# 1 0.042673 -0.003652 -0.003551 0.000000 0.006424 -0.000001
# 2 -0.003652 0.007771 -0.003045 -0.000001 0.005264 0.000000
# 3 -0.003551 -0.003045 0.010371 0.000001 -0.007010 0.000000
# 4 0.000000 -0.000001 0.000001 0.022634 -0.000005 0.003539
# 5 0.006424 0.005264 -0.007010 -0.000005 0.070213 0.000001
# 6 -0.000001 0.000000 0.000000 0.003539 0.000001 0.056352
#
#
# Mechanical properties :
#
#
# Convention : Reuss Voigt Hill
#
# Bulk Modulus (GPa) = 24.80250 52.28610 38.54430
# Shear Modulus (GPa) = 20.49610 30.93317 25.71464
#
# Velocity S-wave (km/s) = 3.15434 3.87512 3.53316
# Velocity P-wave (km/s) = 5.03059 6.73828 5.94606
#
# Compressibility (1/GPa) = 0.04031851
#
# Stress axis : x y z
#
# Youngs Moduli (GPa) = 23.43375 128.69177 96.42662
#
# Poissons Ratio (x) = 0.47002 0.34242
# Poissons Ratio (y) = 0.08559 0.29358
# Poissons Ratio (z) = 0.08322 0.39182
#
# Static dielectric constant tensor:
#      x y z
#    x 1.773640 0.000000 -0.059130 
#    y 0.000000 1.845030 0.000000 
#    z -0.059130 0.000000 1.952470 
# 
# From -- ./inp_files/148661.got.cif
#   From: 2010.05.17/outbox.cif.g08.bks.cpg/sg15_75_cif.got.tgz:148661.got - 2010.06.03 18:47:42.
