data_PCOD9290969
_publ_section_title
;
Structure prediction by ZEFSAII (Michael W. Deem and Ramdas Pophale) SiO2 
 PCOD9290969
Probable space group: C 2/C
;
_chemical_formula_sum "Si O2"
_cell_formula_units_Z 44
_cell_length_a 20.658133
_cell_length_b 18.841630
_cell_length_c 5.524260
_cell_angle_alpha 90.000000
_cell_angle_beta 107.676374
_cell_angle_gamma 90.000000
_cell_volume 2048.704721
_symmetry_space_group_name_H-M "C 2/C"
_symmetry_group_IT_number 15
_symmetry_cell_setting 'monoclinic'
loop_
_space_group_symop_operation_xyz
x,y,z
-x,y,1/2-z
-x,-y,-z
x,-y,1/2+z
1/2+x,1/2+y,z
1/2-x,1/2+y,1/2-z
1/2-x,1/2-y,-z
1/2+x,1/2-y,1/2+z
loop_
_atom_site_type_symbol
_atom_site_label
_atom_site_fract_x
_atom_site_fract_y
_atom_site_fract_z
Si Si1 0.404239 0.686901 0.782831
Si Si2 0.500000 0.773188 0.250000
Si Si3 0.889088 0.326890 0.460425
Si Si4 0.578205 0.472498 0.337397
Si Si5 0.920295 0.469724 0.687759
Si Si6 0.243661 0.205775 0.739627
O O1 0.392571 0.747535 0.569799
O O2 0.423152 0.611995 0.690727
O O3 0.332486 0.675704 0.838689
O O4 0.461045 0.721284 0.019702
O O5 0.442803 0.823268 0.304693
O O6 0.913038 0.384923 0.679783
O O7 0.810821 0.342723 0.310856
O O8 0.500000 0.500172 0.250000
O O9 0.609871 0.495709 0.628123
O O10 0.890844 0.497073 0.398367
O O11 0.000000 0.487965 0.750000
O O12 0.250000 0.250000 0.500000
O O13 0.250000 0.250000 0.000000
#
# Coordination Sequence:
#
# PCOD9290969 Si02
#       6
#     8   4   8   8   8   8
#     4  11  24  40  64  96 125 168 217 268 320 388
#     4  12  22  34  68  94 128 146 228 268 318 370
#     4  11  24  40  64  96 125 168 217 268 320 388
#     4  10  23  39  60  90 130 165 205 261 324 380
#     4  10  23  39  60  90 130 165 205 261 324 380
#     4  10  22  42  62  90 130 166 207 263 328 378
#
# _framework density 21.476984999999999
#
# number of rings (size 3 to 8) (size 9 to 14) (size 15 to 20)
#    0.000    1.455    1.818    2.727   12.727    0.000 
#    0.000    1.818    0.000    0.000    0.000    0.000 
#    0.000    0.000    0.000    0.000    0.000    0.000 
#
# Total GULP energy -122772.705474 kJ/mol
# GULP energy per Si atom -5580.577522 kJ/mol
# Density = 2.142810 g / cm^3
# Si number density = 21.476985 Si / 1000 Ang^3
#
#
#
# Elastic Constant Matrix: (Units=GPa)
#
#
# Indices 1 2 3 4 5 6 
#
# 1 114.4968 6.4340 23.6433 0.0000 -8.7967 0.0000
# 2 6.4340 67.1322 19.7320 0.0000 -12.9517 0.0000
# 3 23.6433 19.7320 102.1052 0.0000 -23.6446 0.0000
# 4 0.0000 0.0000 0.0000 32.6693 0.0000 -9.9840
# 5 -8.7967 -12.9517 -23.6446 0.0000 23.2655 0.0000
# 6 0.0000 0.0000 0.0000 -9.9840 0.0000 12.6240
#
#
#
# Elastic Compliance Matrix: (Units=1/GPa)
#
#
# Indices 1 2 3 4 5 6 
#
# 1 0.009225 -0.000047 -0.001733 0.000000 0.001700 0.000000
# 2 -0.000047 0.016844 -0.001408 0.000000 0.007928 0.000000
# 3 -0.001733 -0.001408 0.013253 0.000000 0.012030 0.000000
# 4 0.000000 0.000000 0.000000 0.040366 0.000000 0.031925
# 5 0.001700 0.007928 0.012030 0.000000 0.060264 0.000000
# 6 0.000000 0.000000 0.000000 0.031925 0.000000 0.104463
#
#
# Mechanical properties :
#
#
# Convention : Reuss Voigt Hill
#
# Bulk Modulus (GPa) = 30.35338 42.59474 36.47406
# Shear Modulus (GPa) = 19.10046 29.30675 24.20360
#
# Velocity S-wave (km/s) = 2.98542 3.69801 3.36066
# Velocity P-wave (km/s) = 5.10366 6.17329 5.66378
#
# Compressibility (1/GPa) = 0.03294526
#
# Stress axis : x y z
#
# Youngs Moduli (GPa) = 108.40031 59.36854 75.45414
#
# Poissons Ratio (x) = 0.00277 0.13079
# Poissons Ratio (y) = 0.00505 0.10628
# Poissons Ratio (z) = 0.18790 0.08362
#
# Static dielectric constant tensor:
#      x y z
#    x 1.823920 0.000000 -0.000380 
#    y 0.000000 1.755140 0.000000 
#    z -0.000380 0.000000 1.884110 
# 
# From -- ./inp_files/12888.got.cif
#   From: 2010.05.17/outbox.cif.g08.bks.cpg/sg15_7_cif.got.tgz:12888.got - 2010.06.03 18:47:42.
