data_PCOD9290348
_publ_section_title
;
Structure prediction by ZEFSAII (Michael W. Deem and Ramdas Pophale) SiO2 
 PCOD9290348
Probable space group: C 2/C
;
_chemical_formula_sum "Si O2"
_cell_formula_units_Z 48
_cell_length_a 15.879698
_cell_length_b 15.182552
_cell_length_c 8.372174
_cell_angle_alpha 90.000000
_cell_angle_beta 84.256226
_cell_angle_gamma 90.000000
_cell_volume 2008.349769
_symmetry_space_group_name_H-M "C 2/C"
_symmetry_group_IT_number 15
_symmetry_cell_setting 'monoclinic'
loop_
_space_group_symop_operation_xyz
x,y,z
-x,y,1/2-z
-x,-y,-z
x,-y,1/2+z
1/2+x,1/2+y,z
1/2-x,1/2+y,1/2-z
1/2-x,1/2-y,-z
1/2+x,1/2-y,1/2+z
loop_
_atom_site_type_symbol
_atom_site_label
_atom_site_fract_x
_atom_site_fract_y
_atom_site_fract_z
Si Si1 0.920529 0.946882 0.148836
Si Si2 0.320067 0.115072 0.089534
Si Si3 0.120851 0.117451 0.177789
Si Si4 0.370582 0.778342 0.114381
Si Si5 0.330508 0.282421 0.285393
Si Si6 0.403042 0.042112 0.752238
O O1 0.851163 0.879894 0.228631
O O2 0.000000 0.933925 0.250000
O O3 0.887028 0.045422 0.180195
O O4 0.932541 0.918251 0.962868
O O5 0.218383 0.119125 0.101877
O O6 0.349700 0.210484 0.145613
O O7 0.346758 0.040097 0.210239
O O8 0.363794 0.085766 0.917915
O O9 0.096556 0.211072 0.257177
O O10 0.269162 0.777904 0.160365
O O11 0.402432 0.877499 0.126157
O O12 0.382357 0.742251 0.934233
O O13 0.500000 0.013035 0.750000
#
# Coordination Sequence:
#
# PCOD9290348 Si02
#       6
#     8   8   8   8   8   8
#     4  12  25  40  62  94 129 164 206 266 329 380
#     4  11  23  42  67  91 124 170 218 262 310 379
#     4  11  23  42  67  91 124 170 218 262 310 379
#     4  10  22  41  65  92 123 165 216 264 312 375
#     4  10  22  41  65  92 123 165 216 264 312 375
#     4  12  25  40  62  94 129 164 206 266 329 380
#
# _framework density 23.900217999999999
#
# number of rings (size 3 to 8) (size 9 to 14) (size 15 to 20)
#    0.000    1.000    0.000    7.000    0.000    9.333 
#    0.000    0.000    0.000    0.000    0.000    0.000 
#    0.000    0.000    0.000    0.000    0.000    0.000 
#
# Total GULP energy -134500.488660 kJ/mol
# GULP energy per Si atom -5604.187027 kJ/mol
# Density = 2.384582 g / cm^3
# Si number density = 23.900218 Si / 1000 Ang^3
#
#
#
# Elastic Constant Matrix: (Units=GPa)
#
#
# Indices 1 2 3 4 5 6 
#
# 1 80.8679 2.4661 25.1526 0.0000 4.5910 0.0000
# 2 2.4661 62.5915 -16.8895 0.0000 3.6698 0.0000
# 3 25.1526 -16.8895 63.9360 0.0000 11.6202 0.0000
# 4 0.0000 0.0000 0.0000 9.4587 0.0000 41.2347
# 5 4.5910 3.6698 11.6202 0.0000 30.8377 0.0000
# 6 0.0000 0.0000 0.0000 41.2347 0.0000 -33.3672
#
#
#
# Elastic Compliance Matrix: (Units=1/GPa)
#
#
# Indices 1 2 3 4 5 6 
#
# 1 0.014387 -0.002317 -0.006369 0.000000 0.000534 0.000000
# 2 -0.002317 0.018057 0.006451 0.000000 -0.004235 0.000000
# 3 -0.006369 0.006451 0.021275 0.000000 -0.007836 0.000000
# 4 0.000000 0.000000 0.000000 0.016552 0.000000 0.020455
# 5 0.000534 -0.004235 -0.007836 0.000000 0.035805 0.000000
# 6 0.000000 0.000000 0.000000 0.020455 0.000000 -0.004692
#
#
# Mechanical properties :
#
#
# Convention : Reuss Voigt Hill
#
# Bulk Modulus (GPa) = 20.30486 25.42820 22.86653
# Shear Modulus (GPa) = 40.89335 14.49694 27.69515
#
# Velocity S-wave (km/s) = 4.14092 2.46552 3.40778
# Velocity P-wave (km/s) = 5.60152 4.33214 5.00722
#
# Compressibility (1/GPa) = 0.04924930
#
# Stress axis : x y z
#
# Youngs Moduli (GPa) = 69.50645 55.38049 47.00455
#
# Poissons Ratio (x) = 0.12830 0.29937
# Poissons Ratio (y) = 0.16103 -0.30323
# Poissons Ratio (z) = 0.44268 -0.35726
#
# Static dielectric constant tensor:
#      x y z
#    x 1.905210 0.000000 0.006300 
#    y 0.000000 1.863180 0.000000 
#    z 0.006300 0.000000 1.952620 
# 
# From -- ./inp_files/47486.got.cif
#   From: 2010.05.17/outbox.cif.g08.bks.cpg/sg15_24_cif.got.tgz:47486.got - 2010.06.03 18:47:42.
