data_PCOD9290190
_publ_section_title
;
Structure prediction by ZEFSAII (Michael W. Deem and Ramdas Pophale) SiO2 
 PCOD9290190
Probable space group: C 2/C
;
_chemical_formula_sum "Si O2"
_cell_formula_units_Z 48
_cell_length_a 14.680991
_cell_length_b 15.068146
_cell_length_c 12.109743
_cell_angle_alpha 90.000000
_cell_angle_beta 121.588268
_cell_angle_gamma 90.000000
_cell_volume 2281.945118
_symmetry_space_group_name_H-M "C 2/C"
_symmetry_group_IT_number 15
_symmetry_cell_setting 'monoclinic'
loop_
_space_group_symop_operation_xyz
x,y,z
-x,y,1/2-z
-x,-y,-z
x,-y,1/2+z
1/2+x,1/2+y,z
1/2-x,1/2+y,1/2-z
1/2-x,1/2-y,-z
1/2+x,1/2-y,1/2+z
loop_
_atom_site_type_symbol
_atom_site_label
_atom_site_fract_x
_atom_site_fract_y
_atom_site_fract_z
Si Si1 0.673731 0.816309 0.632504
Si Si2 0.115515 0.074633 0.789918
Si Si3 0.651817 0.224770 0.360240
Si Si4 0.259420 0.879004 0.198079
Si Si5 0.061903 0.379240 0.000898
Si Si6 0.697448 0.029274 0.997667
O O1 0.685003 0.827909 0.771668
O O2 0.710439 0.715971 0.630255
O O3 0.550618 0.841679 0.528219
O O4 0.733810 0.890022 0.599763
O O5 0.108673 0.181115 0.791719
O O6 0.167155 0.063035 0.700839
O O7 0.000000 0.037586 0.750000
O O8 0.206164 0.041082 0.931835
O O9 0.750000 0.250000 0.500000
O O10 0.576225 0.172994 0.395057
O O11 0.348333 0.860673 0.349039
O O12 0.311425 0.931913 0.130120
O O13 0.092621 0.479492 0.980450
#
# Coordination Sequence:
#
# PCOD9290190 Si02
#       6
#     8   8   8   8   8   8
#     4  11  23  42  64  92 130 170 213 258 329 382
#     4  10  22  41  63  93 122 159 215 266 317 376
#     4  11  19  40  67  89 120 162 211 270 307 371
#     4  10  23  44  63  92 133 165 212 265 319 393
#     4  11  23  41  68  95 122 170 217 269 312 378
#     4  11  24  40  62  95 135 165 208 266 324 385
#
# _framework density 21.034686000000001
#
# number of rings (size 3 to 8) (size 9 to 14) (size 15 to 20)
#    0.000    1.333    5.000    3.500    4.667    1.333 
#    6.000    0.000    0.000    0.000    0.000    0.000 
#    0.000    0.000    0.000    0.000    0.000    0.000 
#
# Total GULP energy -133784.835898 kJ/mol
# GULP energy per Si atom -5574.368162 kJ/mol
# Density = 2.098681 g / cm^3
# Si number density = 21.034686 Si / 1000 Ang^3
#
#
#
# Elastic Constant Matrix: (Units=GPa)
#
#
# Indices 1 2 3 4 5 6 
#
# 1 64.4165 27.0409 37.5248 0.0000 2.2353 0.0000
# 2 27.0409 86.1191 31.4035 0.0000 -12.6349 0.0000
# 3 37.5248 31.4035 84.7902 0.0000 -7.4314 0.0000
# 4 0.0000 0.0000 0.0000 26.5820 0.0000 -14.0612
# 5 2.2353 -12.6349 -7.4314 0.0000 27.2767 0.0000
# 6 0.0000 0.0000 0.0000 -14.0612 0.0000 23.7654
#
#
#
# Elastic Compliance Matrix: (Units=1/GPa)
#
#
# Indices 1 2 3 4 5 6 
#
# 1 0.023039 -0.004943 -0.008945 0.000000 -0.006615 0.000000
# 2 -0.004943 0.015181 -0.002851 0.000000 0.006660 0.000000
# 3 -0.008945 -0.002851 0.017167 0.000000 0.004089 0.000000
# 4 0.000000 0.000000 0.000000 0.054757 0.000000 0.032398
# 5 -0.006615 0.006660 0.004089 0.000000 0.041403 0.000000
# 6 0.000000 0.000000 0.000000 0.032398 0.000000 0.061247
#
#
# Mechanical properties :
#
#
# Convention : Reuss Voigt Hill
#
# Bulk Modulus (GPa) = 45.64468 47.47381 46.55924
# Shear Modulus (GPa) = 19.71798 24.81527 22.26663
#
# Velocity S-wave (km/s) = 3.06503 3.43845 3.25709
# Velocity P-wave (km/s) = 5.85429 6.19534 6.02722
#
# Compressibility (1/GPa) = 0.02190836
#
# Stress axis : x y z
#
# Youngs Moduli (GPa) = 43.40382 65.87322 58.25078
#
# Poissons Ratio (x) = 0.32560 0.52108
# Poissons Ratio (y) = 0.21453 0.16609
# Poissons Ratio (z) = 0.38827 0.18782
#
# Static dielectric constant tensor:
#      x y z
#    x 1.841720 0.000000 0.003660 
#    y 0.000000 1.780290 0.000000 
#    z 0.003660 0.000000 1.728580 
# 
# From -- ./inp_files/97206.got.cif
#   From: 2010.05.17/outbox.cif.g08.bks.cpg/sg15_49_cif.got.tgz:97206.got - 2010.06.03 18:47:42.
