data_PCOD9290341
_publ_section_title
;
Structure prediction by ZEFSAII (Michael W. Deem and Ramdas Pophale) SiO2 
 PCOD9290341
Probable space group: C 2/C
;
_chemical_formula_sum "Si O2"
_cell_formula_units_Z 56
_cell_length_a 28.380080
_cell_length_b 11.509224
_cell_length_c 8.568013
_cell_angle_alpha 90.000000
_cell_angle_beta 73.481707
_cell_angle_gamma 90.000000
_cell_volume 2683.092483
_symmetry_space_group_name_H-M "C 2/C"
_symmetry_group_IT_number 15
_symmetry_cell_setting 'monoclinic'
loop_
_space_group_symop_operation_xyz
x,y,z
-x,y,1/2-z
-x,-y,-z
x,-y,1/2+z
1/2+x,1/2+y,z
1/2-x,1/2+y,1/2-z
1/2-x,1/2-y,-z
1/2+x,1/2-y,1/2+z
loop_
_atom_site_type_symbol
_atom_site_label
_atom_site_fract_x
_atom_site_fract_y
_atom_site_fract_z
Si Si1 0.701733 0.488299 0.890091
Si Si2 0.756566 0.372679 0.083767
Si Si3 0.049276 0.353084 0.493328
Si Si4 0.345186 0.237190 0.661810
Si Si5 0.500000 0.954048 0.250000
Si Si6 0.055468 0.964451 0.402861
Si Si7 0.615485 0.624031 0.132283
Si Si8 0.000000 0.820113 0.250000
O O1 0.715081 0.580972 0.743321
O O2 0.679652 0.363254 0.856350
O O3 0.750436 0.463320 0.947405
O O4 0.660350 0.543277 0.038310
O O5 0.805089 0.355352 0.141317
O O6 0.750000 0.250000 0.000000
O O7 0.103924 0.304863 0.464193
O O8 0.034671 0.380578 0.330520
O O9 0.011797 0.257085 0.591157
O O10 0.035264 0.465364 0.610097
O O11 0.360932 0.256008 0.828403
O O12 0.079662 0.888120 0.516700
O O13 0.047587 0.893028 0.250597
O O14 0.087173 0.072557 0.311136
O O15 0.000000 0.000000 0.500000
#
# Coordination Sequence:
#
# PCOD9290341 Si02
#       8
#     8   8   8   8   4   8   8   4
#     4  11  21  45  66  94 135 172 221 283 351 407
#     4  10  24  43  69  96 132 175 219 290 351 417
#     4  10  22  41  65  91 125 169 225 270 334 399
#     4  11  23  39  66  97 125 170 229 273 337 412
#     4   9  22  44  65  86 132 176 213 288 329 388
#     4  12  22  36  57  95 140 181 212 264 336 396
#     4  12  22  38  63  91 134 179 216 274 327 410
#     4  11  22  36  59  96 130 172 219 264 323 414
#
# _framework density 20.87144
#
# number of rings (size 3 to 8) (size 9 to 14) (size 15 to 20)
#    0.000    1.143    4.286    1.714    2.000    2.857 
#    0.000    0.000    0.000    0.000    0.000    0.000 
#    0.000    0.000    0.000    0.000    0.000    0.000 
#
# Total GULP energy -155924.921763 kJ/mol
# GULP energy per Si atom -5568.747206 kJ/mol
# Density = 2.082394 g / cm^3
# Si number density = 20.871440 Si / 1000 Ang^3
#
#
#
# Elastic Constant Matrix: (Units=GPa)
#
#
# Indices 1 2 3 4 5 6 
#
# 1 136.0383 41.2149 42.5178 0.0000 18.1395 0.0000
# 2 41.2149 51.5521 28.5219 0.0000 -0.0061 0.0000
# 3 42.5178 28.5219 86.9655 0.0000 10.4012 0.0000
# 4 0.0000 0.0000 0.0000 31.8301 0.0000 7.6217
# 5 18.1395 -0.0061 10.4012 0.0000 44.7288 0.0000
# 6 0.0000 0.0000 0.0000 7.6217 0.0000 35.1002
#
#
#
# Elastic Compliance Matrix: (Units=1/GPa)
#
#
# Indices 1 2 3 4 5 6 
#
# 1 0.010842 -0.007317 -0.002443 0.000000 -0.003830 0.000000
# 2 -0.007317 0.028787 -0.006398 0.000000 0.004459 0.000000
# 3 -0.002443 -0.006398 0.015093 0.000000 -0.002520 0.000000
# 4 0.000000 0.000000 0.000000 0.033140 0.000000 -0.007196
# 5 -0.003830 0.004459 -0.002520 0.000000 0.024497 0.000000
# 6 0.000000 0.000000 0.000000 -0.007196 0.000000 0.030052
#
#
# Mechanical properties :
#
#
# Convention : Reuss Voigt Hill
#
# Bulk Modulus (GPa) = 44.62737 55.45167 50.03952
# Shear Modulus (GPa) = 27.44323 33.15189 30.29756
#
# Velocity S-wave (km/s) = 3.63005 3.98978 3.81416
# Velocity P-wave (km/s) = 6.24485 6.91739 6.58971
#
# Compressibility (1/GPa) = 0.02240777
#
# Stress axis : x y z
#
# Youngs Moduli (GPa) = 92.23622 34.73739 66.25711
#
# Poissons Ratio (x) = 0.25416 0.16186
# Poissons Ratio (y) = 0.67486 0.42388
# Poissons Ratio (z) = 0.22532 0.22223
#
# Static dielectric constant tensor:
#      x y z
#    x 1.787780 0.000000 0.051210 
#    y 0.000000 1.814350 0.000000 
#    z 0.051210 0.000000 1.782510 
# 
# From -- ./inp_files/69069.got.cif
#   From: 2010.05.17/outbox.cif.g08.bks.cpg/sg15_35_cif.got.tgz:69069.got - 2010.06.03 18:47:42.
