data_PCOD9290586
_publ_section_title
;
Structure prediction by ZEFSAII (Michael W. Deem and Ramdas Pophale) SiO2 
 PCOD9290586
Probable space group: C 2/C
;
_chemical_formula_sum "Si O2"
_cell_formula_units_Z 40
_cell_length_a 8.179393
_cell_length_b 14.749582
_cell_length_c 15.262555
_cell_angle_alpha 90.000000
_cell_angle_beta 105.885113
_cell_angle_gamma 90.000000
_cell_volume 1770.999460
_symmetry_space_group_name_H-M "C 2/C"
_symmetry_group_IT_number 15
_symmetry_cell_setting 'monoclinic'
loop_
_space_group_symop_operation_xyz
x,y,z
-x,y,1/2-z
-x,-y,-z
x,-y,1/2+z
1/2+x,1/2+y,z
1/2-x,1/2+y,1/2-z
1/2-x,1/2-y,-z
1/2+x,1/2-y,1/2+z
loop_
_atom_site_type_symbol
_atom_site_label
_atom_site_fract_x
_atom_site_fract_y
_atom_site_fract_z
Si Si1 0.871409 0.667703 0.996091
Si Si2 0.804136 0.004706 0.942862
Si Si3 0.299019 0.084624 0.241221
Si Si4 0.759299 0.641046 0.422747
Si Si5 0.066643 0.259198 0.168663
O O1 0.877214 0.666203 0.891960
O O2 0.750000 0.750000 0.000000
O O3 0.800100 0.577949 0.029400
O O4 0.059073 0.688731 0.059889
O O5 0.781261 0.989853 0.835990
O O6 0.736556 0.092784 0.982662
O O7 0.000000 0.000000 0.000000
O O8 0.500000 0.087319 0.250000
O O9 0.256998 0.073636 0.338207
O O10 0.210398 0.182034 0.205546
O O11 0.594607 0.703422 0.392907
O O12 0.000000 0.297920 0.250000
#
# Coordination Sequence:
#
# PCOD9290586 Si02
#       5
#     8   8   8   8   8
#     4  12  22  41  67  95 129 172 224 272 329 389
#     4  12  24  42  67  98 130 173 228 272 326 392
#     4  11  21  41  69  90 133 175 221 255 340 395
#     4  11  23  42  68  94 130 178 215 269 330 397
#     4  10  22  41  67  95 132 174 218 267 337 396
#
# _framework density 22.586114999999999
#
# number of rings (size 3 to 8) (size 9 to 14) (size 15 to 20)
#    0.000    0.800    6.000    1.200    0.000    0.000 
#    3.600    0.000    8.800    0.000    0.000    0.000 
#    0.000    0.000    0.000    0.000    0.000    0.000 
#
# Total GULP energy -111832.016954 kJ/mol
# GULP energy per Si atom -5591.600848 kJ/mol
# Density = 2.253471 g / cm^3
# Si number density = 22.586115 Si / 1000 Ang^3
#
#
#
# Elastic Constant Matrix: (Units=GPa)
#
#
# Indices 1 2 3 4 5 6 
#
# 1 107.4818 5.6583 12.6680 0.0000 27.2283 0.0000
# 2 5.6583 18.9220 6.2727 0.0000 -0.1874 0.0000
# 3 12.6680 6.2727 127.6145 0.0000 -20.9441 0.0000
# 4 0.0000 0.0000 0.0000 35.9496 0.0000 -10.5031
# 5 27.2283 -0.1874 -20.9441 0.0000 54.3779 0.0000
# 6 0.0000 0.0000 0.0000 -10.5031 0.0000 28.6887
#
#
#
# Elastic Compliance Matrix: (Units=1/GPa)
#
#
# Indices 1 2 3 4 5 6 
#
# 1 0.011332 -0.002773 -0.002051 0.000000 -0.006473 0.000000
# 2 -0.002773 0.054442 -0.002287 0.000000 0.000695 0.000000
# 3 -0.002051 -0.002287 0.008881 0.000000 0.004440 0.000000
# 4 0.000000 0.000000 0.000000 0.031148 0.000000 0.011404
# 5 -0.006473 0.000695 0.004440 0.000000 0.023344 0.000000
# 6 0.000000 0.000000 0.000000 0.011404 0.000000 0.039032
#
#
# Mechanical properties :
#
#
# Convention : Reuss Voigt Hill
#
# Bulk Modulus (GPa) = 16.54698 33.69070 25.11884
# Shear Modulus (GPa) = 24.68600 39.09786 31.89193
#
# Velocity S-wave (km/s) = 3.30960 4.16511 3.76176
# Velocity P-wave (km/s) = 4.68473 6.17088 5.47843
#
# Compressibility (1/GPa) = 0.06043397
#
# Stress axis : x y z
#
# Youngs Moduli (GPa) = 88.24945 18.36802 112.60347
#
# Poissons Ratio (x) = 0.05093 0.23095
# Poissons Ratio (y) = 0.24468 0.25749
# Poissons Ratio (z) = 0.18100 0.04200
#
# Static dielectric constant tensor:
#      x y z
#    x 1.805200 0.000000 -0.062750 
#    y 0.000000 1.836090 0.000000 
#    z -0.062750 0.000000 1.914460 
# 
# From -- ./inp_files/133265.got.cif
#   From: 2010.05.17/outbox.cif.g08.bks.cpg/sg15_67_cif.got.tgz:133265.got - 2010.06.03 18:47:42.
