data_PCOD9290847
_publ_section_title
;
Structure prediction by ZEFSAII (Michael W. Deem and Ramdas Pophale) SiO2 
 PCOD9290847
Probable space group: C 2/C
;
_chemical_formula_sum "Si O2"
_cell_formula_units_Z 60
_cell_length_a 26.823517
_cell_length_b 9.948145
_cell_length_c 11.935127
_cell_angle_alpha 90.000000
_cell_angle_beta 66.669671
_cell_angle_gamma 90.000000
_cell_volume 2924.419026
_symmetry_space_group_name_H-M "C 2/C"
_symmetry_group_IT_number 15
_symmetry_cell_setting 'monoclinic'
loop_
_space_group_symop_operation_xyz
x,y,z
-x,y,1/2-z
-x,-y,-z
x,-y,1/2+z
1/2+x,1/2+y,z
1/2-x,1/2+y,1/2-z
1/2-x,1/2-y,-z
1/2+x,1/2-y,1/2+z
loop_
_atom_site_type_symbol
_atom_site_label
_atom_site_fract_x
_atom_site_fract_y
_atom_site_fract_z
Si Si1 0.170525 0.660316 0.635766
Si Si2 0.000000 0.770398 0.750000
Si Si3 0.610143 0.176625 0.926452
Si Si4 0.417673 0.102894 0.970845
Si Si5 0.687200 0.284895 0.041839
Si Si6 0.364989 0.681358 0.674796
Si Si7 0.706207 0.412286 0.465831
Si Si8 0.947100 0.065570 0.103700
O O1 0.138646 0.658090 0.780631
O O2 0.131831 0.601399 0.574329
O O3 0.228531 0.587558 0.592802
O O4 0.185458 0.811597 0.581622
O O5 0.966743 0.675103 0.863280
O O6 0.961968 0.866409 0.709256
O O7 0.575164 0.312237 0.951555
O O8 0.657271 0.197042 0.975521
O O9 0.574830 0.046923 0.990405
O O10 0.399596 0.200861 0.086862
O O11 0.658240 0.271937 0.186776
O O12 0.750000 0.250000 0.000000
O O13 0.684017 0.439926 0.006542
O O14 0.317043 0.644559 0.630190
O O15 0.402097 0.549559 0.655325
O O16 0.000000 0.000000 0.000000
#
# Coordination Sequence:
#
# PCOD9290847 Si02
#       8
#     8   4   8   8   8   8   8   8
#     4  10  22  45  69  99 138 189 234 277 358 423
#     4  12  26  50  74 100 144 180 238 296 368 412
#     4  12  26  45  73 102 143 183 236 291 350 423
#     4  11  26  46  73 100 144 186 225 297 358 423
#     4  12  26  41  68 108 145 182 236 290 344 424
#     4  11  25  46  70 104 141 184 240 290 353 422
#     4  10  22  41  71  98 139 190 230 288 353 413
#     4  12  26  48  75 103 132 188 241 297 351 417
#
# _framework density 20.516895000000002
#
# number of rings (size 3 to 8) (size 9 to 14) (size 15 to 20)
#    0.000    0.800    4.000    2.400    7.467    0.533 
#    2.400    0.000    0.000    0.000    0.000    0.000 
#    0.000    0.000    0.000    0.000    0.000    0.000 
#
# Total GULP energy -167918.672471 kJ/mol
# GULP energy per Si atom -5597.289082 kJ/mol
# Density = 2.047020 g / cm^3
# Si number density = 20.516895 Si / 1000 Ang^3
#
#
#
# Elastic Constant Matrix: (Units=GPa)
#
#
# Indices 1 2 3 4 5 6 
#
# 1 74.8274 29.4355 23.7886 0.0000 3.6194 0.0000
# 2 29.4355 113.9291 52.6821 0.0000 -0.5913 0.0000
# 3 23.7886 52.6821 123.5318 0.0000 -6.2886 0.0000
# 4 0.0000 0.0000 0.0000 23.1944 0.0000 -2.4083
# 5 3.6194 -0.5913 -6.2886 0.0000 32.3325 0.0000
# 6 0.0000 0.0000 0.0000 -2.4083 0.0000 35.8889
#
#
#
# Elastic Compliance Matrix: (Units=1/GPa)
#
#
# Indices 1 2 3 4 5 6 
#
# 1 0.015250 -0.003168 -0.001692 0.000000 -0.002094 0.000000
# 2 -0.003168 0.011608 -0.004355 0.000000 -0.000280 0.000000
# 3 -0.001692 -0.004355 0.010386 0.000000 0.002130 0.000000
# 4 0.000000 0.000000 0.000000 0.043416 0.000000 0.002913
# 5 -0.002094 -0.000280 0.002130 0.000000 0.031572 0.000000
# 6 0.000000 0.000000 0.000000 0.002913 0.000000 0.028059
#
#
# Mechanical properties :
#
#
# Convention : Reuss Voigt Hill
#
# Bulk Modulus (GPa) = 53.15145 58.23341 55.69243
# Shear Modulus (GPa) = 30.30419 32.04196 31.17308
#
# Velocity S-wave (km/s) = 3.84739 3.95617 3.90216
# Velocity P-wave (km/s) = 6.76010 7.02233 6.89246
#
# Compressibility (1/GPa) = 0.01881416
#
# Stress axis : x y z
#
# Youngs Moduli (GPa) = 65.57503 86.14618 96.27960
#
# Poissons Ratio (x) = 0.27295 0.16290
# Poissons Ratio (y) = 0.20777 0.41926
# Poissons Ratio (z) = 0.11095 0.37513
#
# Static dielectric constant tensor:
#      x y z
#    x 1.732620 0.000000 0.011330 
#    y 0.000000 1.725300 0.000000 
#    z 0.011330 0.000000 1.683830 
# 
# From -- ./inp_files/125867.got.cif
#   From: 2010.05.17/outbox.cif.g08.bks.cpg/sg15_63_cif.got.tgz:125867.got - 2010.06.03 18:47:42.
