data_PCOD9290352
_publ_section_title
;
Structure prediction by ZEFSAII (Michael W. Deem and Ramdas Pophale) SiO2 
 PCOD9290352
Probable space group: C 2/C
;
_chemical_formula_sum "Si O2"
_cell_formula_units_Z 48
_cell_length_a 8.845488
_cell_length_b 26.228210
_cell_length_c 15.164284
_cell_angle_alpha 90.000000
_cell_angle_beta 33.953524
_cell_angle_gamma 90.000000
_cell_volume 1964.948959
_symmetry_space_group_name_H-M "C 2/C"
_symmetry_group_IT_number 15
_symmetry_cell_setting 'monoclinic'
loop_
_space_group_symop_operation_xyz
x,y,z
-x,y,1/2-z
-x,-y,-z
x,-y,1/2+z
1/2+x,1/2+y,z
1/2-x,1/2+y,1/2-z
1/2-x,1/2-y,-z
1/2+x,1/2-y,1/2+z
loop_
_atom_site_type_symbol
_atom_site_label
_atom_site_fract_x
_atom_site_fract_y
_atom_site_fract_z
Si Si1 0.110321 0.717557 0.492436
Si Si2 0.956024 0.564898 0.371519
Si Si3 0.550626 0.275341 0.353501
Si Si4 0.785378 0.035081 0.548948
Si Si5 0.855762 0.400454 0.535126
Si Si6 0.876736 0.893856 0.162141
O O1 0.250000 0.750000 0.500000
O O2 0.779557 0.722497 0.665522
O O3 0.187814 0.742169 0.362914
O O4 0.203998 0.659128 0.449057
O O5 0.959823 0.503779 0.356376
O O6 0.125707 0.585861 0.370884
O O7 0.652515 0.577105 0.548224
O O8 0.000000 0.586095 0.250000
O O9 0.250000 0.250000 0.500000
O O10 0.540608 0.334726 0.384822
O O11 0.828944 0.061381 0.432957
O O12 0.772239 0.083551 0.620221
O O13 0.000000 0.000000 0.500000
O O14 0.151967 0.403463 0.344793
#
# Coordination Sequence:
#
# PCOD9290352 Si02
#       6
#     8   8   8   8   8   8
#     4  11  24  42  67  99 132 177 227 275 338 412
#     4  11  23  39  63  99 132 167 220 283 337 389
#     4  11  23  41  66  97 133 173 222 278 336 402
#     4  10  22  41  65  96 131 172 226 279 331 401
#     4  11  22  42  69  93 130 181 226 271 338 411
#     4  10  22  41  65  92 129 178 223 270 333 413
#
# _framework density 24.428114000000001
#
# number of rings (size 3 to 8) (size 9 to 14) (size 15 to 20)
#    0.000    1.333    0.000    5.500    0.000    8.000 
#    0.000   11.667    0.000    0.000    0.000    0.000 
#    0.000    0.000    0.000    0.000    0.000    0.000 
#
# Total GULP energy -133876.303210 kJ/mol
# GULP energy per Si atom -5578.179300 kJ/mol
# Density = 2.437251 g / cm^3
# Si number density = 24.428114 Si / 1000 Ang^3
#
#
#
# Elastic Constant Matrix: (Units=GPa)
#
#
# Indices 1 2 3 4 5 6 
#
# 1 147.9722 64.1324 37.0632 0.0000 30.6418 0.0000
# 2 64.1324 169.9314 35.3822 0.0000 15.8619 0.0000
# 3 37.0632 35.3822 104.9595 0.0000 -5.3665 0.0000
# 4 0.0000 0.0000 0.0000 88.7124 0.0000 44.7955
# 5 30.6418 15.8619 -5.3665 0.0000 57.8997 0.0000
# 6 0.0000 0.0000 0.0000 44.7955 0.0000 78.3172
#
#
#
# Elastic Compliance Matrix: (Units=1/GPa)
#
#
# Indices 1 2 3 4 5 6 
#
# 1 0.009511 -0.002597 -0.002717 0.000000 -0.004574 0.000000
# 2 -0.002597 0.007263 -0.001570 0.000000 -0.000761 0.000000
# 3 -0.002717 -0.001570 0.011165 0.000000 0.002903 0.000000
# 4 0.000000 0.000000 0.000000 0.015850 0.000000 -0.009066
# 5 -0.004574 -0.000761 0.002903 0.000000 0.020169 0.000000
# 6 0.000000 0.000000 0.000000 -0.009066 0.000000 0.017954
#
#
# Mechanical properties :
#
#
# Convention : Reuss Voigt Hill
#
# Bulk Modulus (GPa) = 70.56953 77.33542 73.95248
# Shear Modulus (GPa) = 49.79872 64.07152 56.93512
#
# Velocity S-wave (km/s) = 4.51996 5.12694 4.83299
# Velocity P-wave (km/s) = 7.49610 8.17157 7.84111
#
# Compressibility (1/GPa) = 0.01417042
#
# Stress axis : x y z
#
# Youngs Moduli (GPa) = 105.13853 137.68868 89.56825
#
# Poissons Ratio (x) = 0.35756 0.24336
# Poissons Ratio (y) = 0.27303 0.14064
# Poissons Ratio (z) = 0.28567 0.21620
#
# Static dielectric constant tensor:
#      x y z
#    x 1.999050 0.000000 -0.070290 
#    y 0.000000 1.721340 0.000000 
#    z -0.070290 0.000000 2.035100 
# 
# From -- ./inp_files/138930.got.cif
#   From: 2010.05.17/outbox.cif.g08.bks.cpg/sg15_70_cif.got.tgz:138930.got - 2010.06.03 18:47:42.
