data_PCOD9290183
_publ_section_title
;
Structure prediction by ZEFSAII (Michael W. Deem and Ramdas Pophale) SiO2 
 PCOD9290183
Probable space group: C 2/C
;
_chemical_formula_sum "Si O2"
_cell_formula_units_Z 44
_cell_length_a 24.007224
_cell_length_b 12.353493
_cell_length_c 8.519162
_cell_angle_alpha 90.000000
_cell_angle_beta 119.507819
_cell_angle_gamma 90.000000
_cell_volume 2198.830912
_symmetry_space_group_name_H-M "C 2/C"
_symmetry_group_IT_number 15
_symmetry_cell_setting 'monoclinic'
loop_
_space_group_symop_operation_xyz
x,y,z
-x,y,1/2-z
-x,-y,-z
x,-y,1/2+z
1/2+x,1/2+y,z
1/2-x,1/2+y,1/2-z
1/2-x,1/2-y,-z
1/2+x,1/2-y,1/2+z
loop_
_atom_site_type_symbol
_atom_site_label
_atom_site_fract_x
_atom_site_fract_y
_atom_site_fract_z
Si Si1 0.871318 0.883110 0.118038
Si Si2 0.219543 0.137723 0.511423
Si Si3 0.000000 0.744242 0.750000
Si Si4 0.744189 0.933431 0.775735
Si Si5 0.060539 0.923597 0.612929
Si Si6 0.625634 0.227101 0.091656
O O1 0.886425 0.787666 0.260318
O O2 0.892539 0.996285 0.226928
O O3 0.796522 0.883182 0.967894
O O4 0.909468 0.882138 0.007388
O O5 0.250000 0.250000 0.500000
O O6 0.223798 0.077104 0.350332
O O7 0.158137 0.179897 0.524888
O O8 0.259426 0.059397 0.681806
O O9 0.965182 0.822726 0.825507
O O10 0.940781 0.687636 0.578549
O O11 0.678038 0.867647 0.684408
O O12 0.000000 0.000000 0.500000
#
# Coordination Sequence:
#
# PCOD9290183 Si02
#       6
#     8   8   4   8   8   8
#     4  12  21  35  56  88 130 165 213 267 331 390
#     4  10  22  41  63  91 126 166 216 275 328 374
#     4  12  22  38  56  84 134 168 220 264 332 390
#     4  11  22  39  63  92 126 165 217 269 329 389
#     4  12  21  34  57  90 128 175 213 271 341 397
#     4  11  24  38  60  93 129 175 215 267 329 397
#
# _framework density 20.010635000000001
#
# number of rings (size 3 to 8) (size 9 to 14) (size 15 to 20)
#    0.000    0.727    3.636    6.000    0.000    1.455 
#    0.000    0.000    0.000    4.364    0.000    0.000 
#    0.000    0.000    0.000    0.000    0.000    0.000 
#
# Total GULP energy -122729.425717 kJ/mol
# GULP energy per Si atom -5578.610260 kJ/mol
# Density = 1.996509 g / cm^3
# Si number density = 20.010635 Si / 1000 Ang^3
#
#
#
# Elastic Constant Matrix: (Units=GPa)
#
#
# Indices 1 2 3 4 5 6 
#
# 1 112.9098 37.5767 70.5890 0.0000 5.2584 0.0000
# 2 37.5767 77.5109 41.5273 0.0000 9.0350 0.0000
# 3 70.5890 41.5273 127.9063 0.0000 17.1458 0.0000
# 4 0.0000 0.0000 0.0000 36.6801 0.0000 7.7013
# 5 5.2584 9.0350 17.1458 0.0000 57.6501 0.0000
# 6 0.0000 0.0000 0.0000 7.7013 0.0000 34.1965
#
#
#
# Elastic Compliance Matrix: (Units=1/GPa)
#
#
# Indices 1 2 3 4 5 6 
#
# 1 0.014256 -0.003334 -0.006959 0.000000 0.001292 0.000000
# 2 -0.003334 0.016451 -0.003329 0.000000 -0.001284 0.000000
# 3 -0.006959 -0.003329 0.013107 0.000000 -0.002742 0.000000
# 4 0.000000 0.000000 0.000000 0.028616 0.000000 -0.006444
# 5 0.001292 -0.001284 -0.002742 0.000000 0.018245 0.000000
# 6 0.000000 0.000000 0.000000 -0.006444 0.000000 0.030694
#
#
# Mechanical properties :
#
#
# Convention : Reuss Voigt Hill
#
# Bulk Modulus (GPa) = 60.34579 68.63476 64.49027
# Shear Modulus (GPa) = 32.43898 36.94759 34.69328
#
# Velocity S-wave (km/s) = 4.03064 4.30163 4.16834
# Velocity P-wave (km/s) = 7.20304 7.68412 7.44746
#
# Compressibility (1/GPa) = 0.01657116
#
# Stress axis : x y z
#
# Youngs Moduli (GPa) = 70.14438 60.78696 76.29573
#
# Poissons Ratio (x) = 0.20265 0.53091
# Poissons Ratio (y) = 0.23385 0.25400
# Poissons Ratio (z) = 0.48810 0.20237
#
# Static dielectric constant tensor:
#      x y z
#    x 1.722420 0.000000 0.033680 
#    y 0.000000 1.715510 0.000000 
#    z 0.033680 0.000000 1.889080 
# 
# From -- ./inp_files/60931.got.cif
#   From: 2010.05.17/outbox.cif.g08.bks.cpg/sg15_31_cif.got.tgz:60931.got - 2010.06.03 18:47:42.
