data_PCOD9290933
_publ_section_title
;
Structure prediction by ZEFSAII (Michael W. Deem and Ramdas Pophale) SiO2 
 PCOD9290933
Probable space group: C 2/C
;
_chemical_formula_sum "Si O2"
_cell_formula_units_Z 56
_cell_length_a 19.818970
_cell_length_b 19.480994
_cell_length_c 13.866112
_cell_angle_alpha 90.000000
_cell_angle_beta 27.626063
_cell_angle_gamma 90.000000
_cell_volume 2482.465131
_symmetry_space_group_name_H-M "C 2/C"
_symmetry_group_IT_number 15
_symmetry_cell_setting 'monoclinic'
loop_
_space_group_symop_operation_xyz
x,y,z
-x,y,1/2-z
-x,-y,-z
x,-y,1/2+z
1/2+x,1/2+y,z
1/2-x,1/2+y,1/2-z
1/2-x,1/2-y,-z
1/2+x,1/2-y,1/2+z
loop_
_atom_site_type_symbol
_atom_site_label
_atom_site_fract_x
_atom_site_fract_y
_atom_site_fract_z
Si Si1 0.403785 0.789623 0.581923
Si Si2 0.758348 0.937070 0.222768
Si Si3 0.801777 0.913391 0.596970
Si Si4 0.969793 0.843941 0.076388
Si Si5 0.954216 0.539833 0.201256
Si Si6 0.243008 0.202368 0.102816
Si Si7 0.135362 0.613284 0.701588
O O1 0.302973 0.853424 0.734099
O O2 0.406527 0.733357 0.662671
O O3 0.331732 0.760719 0.575568
O O4 0.553099 0.824457 0.359370
O O5 0.586464 0.933512 0.467251
O O6 0.770508 0.905404 0.100030
O O7 0.800643 0.017059 0.161804
O O8 0.853929 0.895338 0.177030
O O9 0.958154 0.878093 0.420173
O O10 0.709599 0.936065 0.618825
O O11 0.094473 0.826137 0.837691
O O12 0.952868 0.457576 0.192027
O O13 0.000000 0.559758 0.250000
O O14 0.250000 0.250000 0.000000
O O15 0.324556 0.135652 0.956808
#
# Coordination Sequence:
#
# PCOD9290933 Si02
#       7
#     8   8   8   8   8   8   8
#     4  11  20  36  60  91 125 171 206 245 302 380
#     4  11  22  41  62  90 127 171 213 260 316 374
#     4  10  22  42  61  89 127 163 216 264 310 382
#     4  11  25  36  62  94 138 171 197 256 327 375
#     4  11  22  40  69  88 111 167 226 270 307 369
#     4  11  22  33  55  95 141 169 198 237 297 400
#     4  11  20  36  61  92 128 164 211 243 294 381
#
# _framework density 22.558223000000002
#
# number of rings (size 3 to 8) (size 9 to 14) (size 15 to 20)
#    0.000    1.143    4.286    3.429    4.000    1.714 
#    0.000    0.714    0.000    3.429    0.000    0.000 
#    0.000    0.000    0.000    0.000    0.000    0.000 
#
# Total GULP energy -156080.712834 kJ/mol
# GULP energy per Si atom -5574.311173 kJ/mol
# Density = 2.250688 g / cm^3
# Si number density = 22.558223 Si / 1000 Ang^3
#
#
#
# Elastic Constant Matrix: (Units=GPa)
#
#
# Indices 1 2 3 4 5 6 
#
# 1 103.4677 25.8250 9.8529 0.0001 -17.9700 -0.0007
# 2 25.8250 96.1705 11.8157 -0.0002 -18.6026 -0.0002
# 3 9.8529 11.8157 26.9013 -0.0005 -13.9315 0.0000
# 4 0.0001 -0.0002 -0.0005 24.5708 0.0000 -9.0389
# 5 -17.9700 -18.6026 -13.9315 0.0000 26.9311 0.0005
# 6 -0.0007 -0.0002 0.0000 -9.0389 0.0005 38.9640
#
#
#
# Elastic Compliance Matrix: (Units=1/GPa)
#
#
# Indices 1 2 3 4 5 6 
#
# 1 0.011196 -0.001799 -0.000116 0.000000 0.006168 0.000000
# 2 -0.001799 0.012326 -0.001321 0.000000 0.006630 0.000000
# 3 -0.000116 -0.001321 0.050926 0.000001 0.025354 0.000000
# 4 0.000000 0.000000 0.000001 0.044496 0.000000 0.010322
# 5 0.006168 0.006630 0.025354 0.000000 0.058943 0.000000
# 6 0.000000 0.000000 0.000000 0.010322 0.000000 0.028059
#
#
# Mechanical properties :
#
#
# Convention : Reuss Voigt Hill
#
# Bulk Modulus (GPa) = 14.71136 35.72519 25.21827
# Shear Modulus (GPa) = 21.26949 30.02956 25.64953
#
# Velocity S-wave (km/s) = 3.07395 3.65252 3.37566
# Velocity P-wave (km/s) = 4.37431 5.80165 5.13779
#
# Compressibility (1/GPa) = 0.06797469
#
# Stress axis : x y z
#
# Youngs Moduli (GPa) = 89.31593 81.12794 19.63633
#
# Poissons Ratio (x) = 0.14597 0.00228
# Poissons Ratio (y) = 0.16070 0.02595
# Poissons Ratio (z) = 0.01039 0.10720
#
# Static dielectric constant tensor:
#      x y z
#    x 1.932170 0.000000 -0.044570 
#    y 0.000000 1.912050 0.000000 
#    z -0.044570 0.000000 1.900050 
# 
# From -- ./inp_files/169099.got.cif
#   From: 2010.05.17/outbox.cif.g08.bks.cpg/sg15_85_cif.got.tgz:169099.got - 2010.06.03 18:47:42.
