data_PCOD9290931
_publ_section_title
;
Structure prediction by ZEFSAII (Michael W. Deem and Ramdas Pophale) SiO2 
 PCOD9290931
Probable space group: C 2/C
;
_chemical_formula_sum "Si O2"
_cell_formula_units_Z 64
_cell_length_a 18.066341
_cell_length_b 14.181770
_cell_length_c 15.886571
_cell_angle_alpha 90.000000
_cell_angle_beta 52.882821
_cell_angle_gamma 90.000000
_cell_volume 3245.702367
_symmetry_space_group_name_H-M "C 2/C"
_symmetry_group_IT_number 15
_symmetry_cell_setting 'monoclinic'
loop_
_space_group_symop_operation_xyz
x,y,z
-x,y,1/2-z
-x,-y,-z
x,-y,1/2+z
1/2+x,1/2+y,z
1/2-x,1/2+y,1/2-z
1/2-x,1/2-y,-z
1/2+x,1/2-y,1/2+z
loop_
_atom_site_type_symbol
_atom_site_label
_atom_site_fract_x
_atom_site_fract_y
_atom_site_fract_z
Si Si1 0.707640 0.992039 0.499074
Si Si2 0.650042 0.353463 0.265475
Si Si3 0.854627 0.553994 0.777135
Si Si4 0.008583 0.449378 0.584589
Si Si5 0.271158 0.551140 0.279215
Si Si6 0.338466 0.318168 0.424602
Si Si7 0.839510 0.260723 0.191986
Si Si8 0.493357 0.256391 0.450021
O O1 0.683143 0.039767 0.603771
O O2 0.725094 0.054564 0.403806
O O3 0.615568 0.934846 0.535556
O O4 0.793084 0.922090 0.457123
O O5 0.654643 0.466405 0.261847
O O6 0.617850 0.311067 0.198508
O O7 0.753841 0.310826 0.201801
O O8 0.583369 0.321837 0.386225
O O9 0.794635 0.492383 0.749481
O O10 0.852348 0.664705 0.758038
O O11 0.956270 0.512511 0.688637
O O12 0.968682 0.344947 0.605390
O O13 0.000000 0.500000 0.500000
O O14 0.309613 0.653794 0.231056
O O15 0.250000 0.250000 0.500000
O O16 0.416817 0.298696 0.439063
O O17 0.935038 0.259011 0.074536
#
# Coordination Sequence:
#
# PCOD9290931 Si02
#       8
#     8   8   8   8   8   8   8   8
#     4  11  23  39  62  88 129 164 202 264 310 374
#     4  10  23  37  58  95 121 162 215 256 316 381
#     4  11  23  38  61  94 120 164 215 251 319 382
#     4  12  21  37  59  93 130 157 201 263 323 370
#     4  10  22  42  61  84 127 166 207 263 308 366
#     4  11  20  37  57  91 126 157 199 256 328 371
#     4  11  22  40  61  86 126 166 210 257 307 374
#     4  12  22  36  65  91 125 165 203 264 317 379
#
# _framework density 19.718381000000001
#
# number of rings (size 3 to 8) (size 9 to 14) (size 15 to 20)
#    0.000    1.000    5.000    3.000    1.750    2.000 
#    0.000    0.000    0.000    6.000    0.000    0.000 
#    0.000    0.000    0.000    0.000    0.000    0.000 
#
# Total GULP energy -178527.675830 kJ/mol
# GULP energy per Si atom -5578.989870 kJ/mol
# Density = 1.967350 g / cm^3
# Si number density = 19.718381 Si / 1000 Ang^3
#
#
#
# Elastic Constant Matrix: (Units=GPa)
#
#
# Indices 1 2 3 4 5 6 
#
# 1 32.8247 7.1574 18.2167 0.0000 9.0366 0.0000
# 2 7.1574 124.7526 32.4904 0.0000 2.4340 0.0000
# 3 18.2167 32.4904 99.2955 0.0000 10.2065 0.0000
# 4 0.0000 0.0000 0.0000 27.0414 0.0000 3.3349
# 5 9.0366 2.4340 10.2065 0.0000 32.1287 0.0000
# 6 0.0000 0.0000 0.0000 3.3349 0.0000 20.4987
#
#
#
# Elastic Compliance Matrix: (Units=1/GPa)
#
#
# Indices 1 2 3 4 5 6 
#
# 1 0.035953 -0.000443 -0.005598 0.000000 -0.008300 0.000000
# 2 -0.000443 0.008770 -0.002825 0.000000 0.000358 0.000000
# 3 -0.005598 -0.002825 0.012238 0.000000 -0.002099 0.000000
# 4 0.000000 0.000000 0.000000 0.037738 0.000000 -0.006139
# 5 -0.008300 0.000358 -0.002099 0.000000 0.034099 0.000000
# 6 0.000000 0.000000 0.000000 -0.006139 0.000000 0.049782
#
#
# Mechanical properties :
#
#
# Convention : Reuss Voigt Hill
#
# Bulk Modulus (GPa) = 25.49094 41.40019 33.44556
# Shear Modulus (GPa) = 23.87902 29.20098 26.54000
#
# Velocity S-wave (km/s) = 3.48372 3.85242 3.67270
# Velocity P-wave (km/s) = 5.39790 6.38980 5.91468
#
# Compressibility (1/GPa) = 0.03922963
#
# Stress axis : x y z
#
# Youngs Moduli (GPa) = 27.81391 114.02413 81.71187
#
# Poissons Ratio (x) = 0.05050 0.45741
# Poissons Ratio (y) = 0.01232 0.23085
# Poissons Ratio (z) = 0.15570 0.32214
#
# Static dielectric constant tensor:
#      x y z
#    x 1.736930 0.000000 -0.000420 
#    y 0.000000 1.685270 0.000000 
#    z -0.000420 0.000000 1.724860 
# 
# From -- ./inp_files/162543.got.cif
#   From: 2010.05.17/outbox.cif.g08.bks.cpg/sg15_82_cif.got.tgz:162543.got - 2010.06.03 18:47:42.
