data_PCOD9290503
_publ_section_title
;
Structure prediction by ZEFSAII (Michael W. Deem and Ramdas Pophale) SiO2 
 PCOD9290503
Probable space group: C 2/C
;
_chemical_formula_sum "Si O2"
_cell_formula_units_Z 56
_cell_length_a 13.524648
_cell_length_b 7.918066
_cell_length_c 24.584230
_cell_angle_alpha 90.000000
_cell_angle_beta 51.287637
_cell_angle_gamma 90.000000
_cell_volume 2054.285441
_symmetry_space_group_name_H-M "C 2/C"
_symmetry_group_IT_number 15
_symmetry_cell_setting 'monoclinic'
loop_
_space_group_symop_operation_xyz
x,y,z
-x,y,1/2-z
-x,-y,-z
x,-y,1/2+z
1/2+x,1/2+y,z
1/2-x,1/2+y,1/2-z
1/2-x,1/2-y,-z
1/2+x,1/2-y,1/2+z
loop_
_atom_site_type_symbol
_atom_site_label
_atom_site_fract_x
_atom_site_fract_y
_atom_site_fract_z
Si Si1 0.435873 0.332122 0.579071
Si Si2 0.463063 0.055226 0.090848
Si Si3 0.272048 0.915287 0.027110
Si Si4 0.854193 0.829336 0.717002
Si Si5 0.692896 0.617677 0.151490
Si Si6 0.712267 0.411847 0.440434
Si Si7 0.078624 0.558746 0.277905
O O1 0.418336 0.137948 0.601859
O O2 0.439044 0.407798 0.639489
O O3 0.568682 0.347253 0.502368
O O4 0.323562 0.423825 0.584022
O O5 0.500053 0.098455 0.140063
O O6 0.579209 0.089712 0.011717
O O7 0.338447 0.156363 0.119276
O O8 0.258616 0.056781 0.985675
O O9 0.250000 0.750000 0.000000
O O10 0.195708 0.969669 0.106270
O O11 0.869655 0.923859 0.769550
O O12 0.882701 0.638806 0.727532
O O13 0.712337 0.844111 0.740827
O O14 0.678595 0.795155 0.124480
O O15 0.000000 0.587406 0.250000
#
# Coordination Sequence:
#
# PCOD9290503 Si02
#       7
#     8   8   8   8   8   8   8
#     4  10  22  41  66  96 133 174 223 278 354 411
#     4  10  23  42  65  93 131 176 223 280 342 420
#     4  12  26  41  64  97 136 175 231 282 343 410
#     4  10  23  43  70 100 140 182 229 290 357 415
#     4  11  23  42  67  96 134 174 227 285 343 414
#     4  11  24  39  69  99 128 174 228 284 340 416
#     4  10  23  44  70 100 136 186 232 285 355 425
#
# _framework density 27.260086999999999
#
# number of rings (size 3 to 8) (size 9 to 14) (size 15 to 20)
#    0.000    1.429    1.429    2.571    8.000    1.143 
#    0.000    0.714    0.000    0.000    0.000    0.000 
#    0.000    0.000    0.000    0.000    0.000    0.000 
#
# Total GULP energy -156551.632135 kJ/mol
# GULP energy per Si atom -5591.129719 kJ/mol
# Density = 2.719804 g / cm^3
# Si number density = 27.260087 Si / 1000 Ang^3
#
#
#
# Elastic Constant Matrix: (Units=GPa)
#
#
# Indices 1 2 3 4 5 6 
#
# 1 142.4491 14.5306 21.2807 0.0000 21.3865 0.0000
# 2 14.5306 57.5274 13.4859 0.0000 10.9030 0.0000
# 3 21.2807 13.4859 162.1176 0.0000 53.9658 0.0000
# 4 0.0000 0.0000 0.0000 17.1772 0.0000 8.8109
# 5 21.3865 10.9030 53.9658 0.0000 54.7026 0.0000
# 6 0.0000 0.0000 0.0000 8.8109 0.0000 42.4607
#
#
#
# Elastic Compliance Matrix: (Units=1/GPa)
#
#
# Indices 1 2 3 4 5 6 
#
# 1 0.007565 -0.001404 0.000023 0.000000 -0.002700 0.000000
# 2 -0.001404 0.018349 -0.000458 0.000000 -0.002657 0.000000
# 3 0.000023 -0.000458 0.009196 0.000000 -0.008990 0.000000
# 4 0.000000 0.000000 0.000000 0.065151 0.000000 -0.013519
# 5 -0.002700 -0.002657 -0.008990 0.000000 0.028734 0.000000
# 6 0.000000 0.000000 0.000000 -0.013519 0.000000 0.026357
#
#
# Mechanical properties :
#
#
# Convention : Reuss Voigt Hill
#
# Bulk Modulus (GPa) = 31.81605 51.18762 41.50183
# Shear Modulus (GPa) = 29.49712 43.72124 36.60918
#
# Velocity S-wave (km/s) = 3.29304 4.00916 3.66862
# Velocity P-wave (km/s) = 5.11424 6.34424 5.76216
#
# Compressibility (1/GPa) = 0.03143068
#
# Stress axis : x y z
#
# Youngs Moduli (GPa) = 132.18229 54.50029 108.74336
#
# Poissons Ratio (x) = 0.07654 -0.00245
# Poissons Ratio (y) = 0.18564 0.04977
# Poissons Ratio (z) = -0.00298 0.02494
#
# Static dielectric constant tensor:
#      x y z
#    x 2.175080 0.000000 0.050230 
#    y 0.000000 2.232730 0.000000 
#    z 0.050230 0.000000 2.229680 
# 
# From -- ./inp_files/273072.got.cif
#   From: 2010.05.17/outbox.cif.g08.bks.cpg/sg15_137_cif.got.tgz:273072.got - 2010.06.03 18:47:42.
