data_PCOD9290551
_publ_section_title
;
Structure prediction by ZEFSAII (Michael W. Deem and Ramdas Pophale) SiO2 
 PCOD9290551
Probable space group: C 2/C
;
_chemical_formula_sum "Si O2"
_cell_formula_units_Z 44
_cell_length_a 21.501823
_cell_length_b 9.787261
_cell_length_c 11.490520
_cell_angle_alpha 90.000000
_cell_angle_beta 111.656198
_cell_angle_gamma 90.000000
_cell_volume 2247.428053
_symmetry_space_group_name_H-M "C 2/C"
_symmetry_group_IT_number 15
_symmetry_cell_setting 'monoclinic'
loop_
_space_group_symop_operation_xyz
x,y,z
-x,y,1/2-z
-x,-y,-z
x,-y,1/2+z
1/2+x,1/2+y,z
1/2-x,1/2+y,1/2-z
1/2-x,1/2-y,-z
1/2+x,1/2-y,1/2+z
loop_
_atom_site_type_symbol
_atom_site_label
_atom_site_fract_x
_atom_site_fract_y
_atom_site_fract_z
Si Si1 0.616714 0.584938 0.927825
Si Si2 0.208217 0.743433 0.349412
Si Si3 0.500000 0.600822 0.250000
Si Si4 0.387970 0.275449 0.826695
Si Si5 0.298116 0.033758 0.797045
Si Si6 0.723969 0.614041 0.424870
O O1 0.637712 0.690134 0.839472
O O2 0.551792 0.496940 0.853121
O O3 0.679531 0.480517 0.977365
O O4 0.609533 0.663672 0.042940
O O5 0.250000 0.750000 0.500000
O O6 0.241851 0.846188 0.277354
O O7 0.206807 0.590942 0.297274
O O8 0.544153 0.692721 0.194198
O O9 0.364881 0.118822 0.819416
O O10 0.328929 0.352234 0.714343
O O11 0.288010 0.960984 0.914569
O O12 0.750000 0.750000 0.500000
#
# Coordination Sequence:
#
# PCOD9290551 Si02
#       6
#     8   8   4   8   8   8
#     4  10  22  41  67  90 131 175 227 272 323 400
#     4  11  22  39  65 100 138 168 210 278 349 405
#     4  10  24  44  66  94 124 190 234 266 320 400
#     4  11  22  40  63  92 129 174 222 277 318 400
#     4  11  22  36  62  98 135 165 213 263 341 395
#     4  10  23  33  62  98 131 164 207 269 346 396
#
# _framework density 19.577935
#
# number of rings (size 3 to 8) (size 9 to 14) (size 15 to 20)
#    0.000    1.455    3.636    0.545    7.636    1.455 
#    0.000    0.909    0.000    6.545    0.000    0.000 
#    0.000    0.000    0.000    0.000    0.000    0.000 
#
# Total GULP energy -122739.350477 kJ/mol
# GULP energy per Si atom -5579.061385 kJ/mol
# Density = 1.953337 g / cm^3
# Si number density = 19.577935 Si / 1000 Ang^3
#
#
#
# Elastic Constant Matrix: (Units=GPa)
#
#
# Indices 1 2 3 4 5 6 
#
# 1 150.1455 89.7947 57.0798 0.0000 -24.9823 0.0000
# 2 89.7947 186.1822 72.6209 0.0000 -14.9503 0.0000
# 3 57.0798 72.6209 71.0161 0.0000 -15.1124 0.0000
# 4 0.0000 0.0000 0.0000 40.8083 0.0000 -16.0175
# 5 -24.9823 -14.9503 -15.1124 0.0000 27.5418 0.0000
# 6 0.0000 0.0000 0.0000 -16.0175 0.0000 43.5088
#
#
#
# Elastic Compliance Matrix: (Units=1/GPa)
#
#
# Indices 1 2 3 4 5 6 
#
# 1 0.011297 -0.003199 -0.004526 0.000000 0.006027 0.000000
# 2 -0.003199 0.009842 -0.007895 0.000000 -0.001892 0.000000
# 3 -0.004526 -0.007895 0.027181 0.000000 0.006523 0.000000
# 4 0.000000 0.000000 0.000000 0.028644 0.000000 0.010545
# 5 0.006027 -0.001892 0.006523 0.000000 0.044328 0.000000
# 6 0.000000 0.000000 0.000000 0.010545 0.000000 0.026866
#
#
# Mechanical properties :
#
#
# Convention : Reuss Voigt Hill
#
# Bulk Modulus (GPa) = 58.55234 94.03718 76.29476
# Shear Modulus (GPa) = 27.01373 34.89503 30.95438
#
# Velocity S-wave (km/s) = 3.71860 4.22639 3.98060
# Velocity P-wave (km/s) = 6.95770 8.48251 7.75766
#
# Compressibility (1/GPa) = 0.01707874
#
# Stress axis : x y z
#
# Youngs Moduli (GPa) = 88.52019 101.60868 36.79028
#
# Poissons Ratio (x) = 0.32505 0.16651
# Poissons Ratio (y) = 0.28318 0.29047
# Poissons Ratio (z) = 0.40064 0.80224
#
# Static dielectric constant tensor:
#      x y z
#    x 1.699780 0.000000 -0.016440 
#    y 0.000000 1.740690 0.000000 
#    z -0.016440 0.000000 1.725650 
# 
# From -- ./inp_files/109968.got.cif
#   From: 2010.05.17/outbox.cif.g08.bks.cpg/sg15_55_cif.got.tgz:109968.got - 2010.06.03 18:47:42.
