data_PCOD9290849
_publ_section_title
;
Structure prediction by ZEFSAII (Michael W. Deem and Ramdas Pophale) SiO2 
 PCOD9290849
Probable space group: C 2/C
;
_chemical_formula_sum "Si O2"
_cell_formula_units_Z 52
_cell_length_a 15.120683
_cell_length_b 9.077871
_cell_length_c 18.311920
_cell_angle_alpha 90.000000
_cell_angle_beta 102.256725
_cell_angle_gamma 90.000000
_cell_volume 2456.266640
_symmetry_space_group_name_H-M "C 2/C"
_symmetry_group_IT_number 15
_symmetry_cell_setting 'monoclinic'
loop_
_space_group_symop_operation_xyz
x,y,z
-x,y,1/2-z
-x,-y,-z
x,-y,1/2+z
1/2+x,1/2+y,z
1/2-x,1/2+y,1/2-z
1/2-x,1/2-y,-z
1/2+x,1/2-y,1/2+z
loop_
_atom_site_type_symbol
_atom_site_label
_atom_site_fract_x
_atom_site_fract_y
_atom_site_fract_z
Si Si1 0.239356 0.526385 0.823529
Si Si2 0.163993 0.331168 0.691395
Si Si3 0.059129 0.693092 0.829356
Si Si4 0.627386 0.626411 0.051920
Si Si5 0.449239 0.492349 0.606527
Si Si6 0.000000 0.798011 0.250000
Si Si7 0.069824 0.447342 0.073363
O O1 0.235746 0.425033 0.750886
O O2 0.298754 0.671635 0.821961
O O3 0.139660 0.587051 0.821027
O O4 0.280924 0.434566 0.897298
O O5 0.132381 0.423050 0.615426
O O6 0.078585 0.301082 0.729115
O O7 0.000000 0.742911 0.750000
O O8 0.991025 0.608199 0.870135
O O9 0.095225 0.839872 0.874999
O O10 0.545718 0.558774 0.088026
O O11 0.622751 0.802744 0.055802
O O12 0.606650 0.570959 0.967071
O O13 0.464461 0.599429 0.677648
O O14 0.000000 0.500000 0.000000
#
# Coordination Sequence:
#
# PCOD9290849 Si02
#       7
#     8   8   8   8   8   4   8
#     4  12  26  43  66 102 141 178 227 289 337 403
#     4  12  26  41  68 101 137 177 228 282 342 403
#     4  11  23  44  70  98 141 182 227 276 350 404
#     4  10  23  46  67 100 139 175 225 279 338 407
#     4  10  22  41  72 100 129 180 224 276 340 408
#     4  12  22  42  70 102 130 174 238 270 340 408
#     4  11  24  47  73  98 135 187 226 276 348 409
#
# _framework density 21.170338999999998
#
# number of rings (size 3 to 8) (size 9 to 14) (size 15 to 20)
#    0.000    0.923    3.846    2.769    8.615    0.615 
#    0.000    1.538    0.000    0.000    0.000    0.000 
#    0.000    0.000    0.000    0.000    0.000    0.000 
#
# Total GULP energy -145523.120314 kJ/mol
# GULP energy per Si atom -5597.043089 kJ/mol
# Density = 2.112215 g / cm^3
# Si number density = 21.170339 Si / 1000 Ang^3
#
#
#
# Elastic Constant Matrix: (Units=GPa)
#
#
# Indices 1 2 3 4 5 6 
#
# 1 15.1053 13.9483 -0.1933 0.0000 10.7786 0.0000
# 2 13.9483 148.4649 64.6787 0.0000 16.9890 0.0000
# 3 -0.1933 64.6787 150.8246 0.0000 16.6876 0.0000
# 4 0.0000 0.0000 0.0000 -1.4389 0.0000 29.2165
# 5 10.7786 16.9890 16.6876 0.0000 26.6059 0.0000
# 6 0.0000 0.0000 0.0000 29.2165 0.0000 17.3656
#
#
#
# Elastic Compliance Matrix: (Units=1/GPa)
#
#
# Indices 1 2 3 4 5 6 
#
# 1 0.104366 -0.008703 0.008520 0.000000 -0.042068 0.000000
# 2 -0.008703 0.009286 -0.004005 0.000000 0.000109 0.000000
# 3 0.008520 -0.004005 0.009088 0.000000 -0.006595 0.000000
# 4 0.000000 0.000000 0.000000 -0.019765 0.000000 0.033254
# 5 -0.042068 0.000109 -0.006595 0.000000 0.058695 0.000000
# 6 0.000000 0.000000 0.000000 0.033254 0.000000 0.001638
#
#
# Mechanical properties :
#
#
# Convention : Reuss Voigt Hill
#
# Bulk Modulus (GPa) = 8.74401 52.36248 30.55324
# Shear Modulus (GPa) = 23.83165 24.23725 24.03445
#
# Velocity S-wave (km/s) = 3.35880 3.38726 3.37306
# Velocity P-wave (km/s) = 4.37965 6.33132 5.44366
#
# Compressibility (1/GPa) = 0.11436395
#
# Stress axis : x y z
#
# Youngs Moduli (GPa) = 9.58167 107.69237 110.03085
#
# Poissons Ratio (x) = 0.93728 -0.93752
# Poissons Ratio (y) = 0.08339 0.44070
# Poissons Ratio (z) = -0.08164 0.43133
#
# Static dielectric constant tensor:
#      x y z
#    x 1.751770 0.000000 -0.028670 
#    y 0.000000 1.749210 0.000000 
#    z -0.028670 0.000000 1.686400 
# 
# From -- ./inp_files/209698.got.cif
#   From: 2010.05.17/outbox.cif.g08.bks.cpg/sg15_105_cif.got.tgz:209698.got - 2010.06.03 18:47:42.
