data_PCOD9290972
_publ_section_title
;
Structure prediction by ZEFSAII (Michael W. Deem and Ramdas Pophale) SiO2 
 PCOD9290972
Probable space group: C 2/C
;
_chemical_formula_sum "Si O2"
_cell_formula_units_Z 40
_cell_length_a 12.051771
_cell_length_b 7.654855
_cell_length_c 28.868518
_cell_angle_alpha 90.000000
_cell_angle_beta 130.580119
_cell_angle_gamma 90.000000
_cell_volume 2022.732411
_symmetry_space_group_name_H-M "C 2/C"
_symmetry_group_IT_number 15
_symmetry_cell_setting 'monoclinic'
loop_
_space_group_symop_operation_xyz
x,y,z
-x,y,1/2-z
-x,-y,-z
x,-y,1/2+z
1/2+x,1/2+y,z
1/2-x,1/2+y,1/2-z
1/2-x,1/2-y,-z
1/2+x,1/2-y,1/2+z
loop_
_atom_site_type_symbol
_atom_site_label
_atom_site_fract_x
_atom_site_fract_y
_atom_site_fract_z
Si Si1 0.175764 0.889268 0.512268
Si Si2 0.086254 0.875812 0.587574
Si Si3 0.893667 0.235647 0.309643
Si Si4 0.121077 0.515100 0.359655
Si Si5 0.058708 0.846778 0.213144
O O1 0.250000 0.750000 0.500000
O O2 0.298913 0.012301 0.569184
O O3 0.051517 0.997136 0.452539
O O4 0.105389 0.805763 0.540189
O O5 0.999716 0.625585 0.685294
O O6 0.239729 0.979444 0.636806
O O7 0.921095 0.255189 0.372225
O O8 0.723973 0.274501 0.255102
O O9 0.937918 0.040082 0.307300
O O10 0.046537 0.705758 0.339817
O O11 0.000000 0.856104 0.250000
#
# Coordination Sequence:
#
# PCOD9290972 Si02
#       5
#     8   8   8   8   8
#     4   9  18  41  66  89 127 167 198 261 318 360
#     4   9  21  39  63  90 127 158 205 262 304 366
#     4  12  24  40  65  91 124 171 208 256 317 367
#     4  10  22  42  62  91 128 158 207 263 302 373
#     4  12  24  41  61  90 125 166 212 256 315 373
#
# _framework density 19.775231000000002
#
# number of rings (size 3 to 8) (size 9 to 14) (size 15 to 20)
#    1.200    0.400    4.000    1.200    0.000    3.200 
#    3.600    1.000    0.000    0.000    0.000    0.000 
#    0.000    0.000    0.000    0.000    0.000    0.000 
#
# Total GULP energy -111402.660374 kJ/mol
# GULP energy per Si atom -5570.133019 kJ/mol
# Density = 1.973022 g / cm^3
# Si number density = 19.775231 Si / 1000 Ang^3
#
#
#
# Elastic Constant Matrix: (Units=GPa)
#
#
# Indices 1 2 3 4 5 6 
#
# 1 95.3463 33.0180 22.3621 0.0000 30.7751 0.0000
# 2 33.0180 78.8855 8.3148 0.0000 21.5881 0.0000
# 3 22.3621 8.3148 34.5113 0.0000 19.4138 0.0000
# 4 0.0000 0.0000 0.0000 19.1447 0.0000 2.5206
# 5 30.7751 21.5881 19.4138 0.0000 39.6289 0.0000
# 6 0.0000 0.0000 0.0000 2.5206 0.0000 31.5004
#
#
#
# Elastic Compliance Matrix: (Units=1/GPa)
#
#
# Indices 1 2 3 4 5 6 
#
# 1 0.015373 -0.003885 -0.004831 0.000000 -0.007455 0.000000
# 2 -0.003885 0.015925 0.002572 0.000000 -0.006918 0.000000
# 3 -0.004831 0.002572 0.041639 0.000000 -0.018048 0.000000
# 4 0.000000 0.000000 0.000000 0.052790 0.000000 -0.004224
# 5 -0.007455 -0.006918 -0.018048 0.000000 0.043634 0.000000
# 6 0.000000 0.000000 0.000000 -0.004224 0.000000 0.032084
#
#
# Mechanical properties :
#
#
# Convention : Reuss Voigt Hill
#
# Bulk Modulus (GPa) = 16.48825 37.34809 26.91817
# Shear Modulus (GPa) = 21.37219 27.72469 24.54844
#
# Velocity S-wave (km/s) = 3.29105 3.74838 3.52713
# Velocity P-wave (km/s) = 4.77465 6.13686 5.49811
#
# Compressibility (1/GPa) = 0.06064927
#
# Stress axis : x y z
#
# Youngs Moduli (GPa) = 65.04974 62.79494 24.01571
#
# Poissons Ratio (x) = 0.24396 0.11603
# Poissons Ratio (y) = 0.25272 -0.06178
# Poissons Ratio (z) = 0.31428 -0.16153
#
# Static dielectric constant tensor:
#      x y z
#    x 1.713890 0.000000 -0.005990 
#    y 0.000000 1.661290 0.000000 
#    z -0.005990 0.000000 1.722730 
# 
# From -- ./inp_files/290898.got.cif
#   From: 2010.05.17/outbox.cif.g08.bks.cpg/sg15_146_cif.got.tgz:290898.got - 2010.06.03 18:47:42.
