data_PCOD9290979
_publ_section_title
;
Structure prediction by ZEFSAII (Michael W. Deem and Ramdas Pophale) SiO2 
 PCOD9290979
Probable space group: C 2/C
;
_chemical_formula_sum "Si O2"
_cell_formula_units_Z 44
_cell_length_a 20.184396
_cell_length_b 5.283400
_cell_length_c 18.894879
_cell_angle_alpha 90.000000
_cell_angle_beta 101.202600
_cell_angle_gamma 90.000000
_cell_volume 1976.599205
_symmetry_space_group_name_H-M "C 2/C"
_symmetry_group_IT_number 15
_symmetry_cell_setting 'monoclinic'
loop_
_space_group_symop_operation_xyz
x,y,z
-x,y,1/2-z
-x,-y,-z
x,-y,1/2+z
1/2+x,1/2+y,z
1/2-x,1/2+y,1/2-z
1/2-x,1/2-y,-z
1/2+x,1/2-y,1/2+z
loop_
_atom_site_type_symbol
_atom_site_label
_atom_site_fract_x
_atom_site_fract_y
_atom_site_fract_z
Si Si1 0.900196 0.467579 0.795512
Si Si2 0.087904 0.735590 0.991720
Si Si3 0.374839 0.292358 0.660228
Si Si4 0.927463 0.230070 0.430608
Si Si5 0.500000 0.608854 0.750000
Si Si6 0.243092 0.559621 0.207792
O O1 0.880744 0.544310 0.711388
O O2 0.918028 0.712634 0.845775
O O3 0.963864 0.285041 0.801494
O O4 0.834122 0.352957 0.818962
O O5 0.121042 0.744701 0.921726
O O6 0.007528 0.760686 0.961048
O O7 0.101157 0.471041 0.032799
O O8 0.103436 0.975316 0.044557
O O9 0.439719 0.453900 0.700192
O O10 0.302804 0.417140 0.663994
O O11 0.264268 0.766379 0.271591
#
# Coordination Sequence:
#
# PCOD9290979 Si02
#       6
#     8   8   8   8   4   8
#     4  11  24  40  65  97 127 168 216 272 315 384
#     4  10  23  39  60  91 129 168 206 263 325 378
#     4  11  24  40  65  97 127 168 216 272 315 384
#     4  10  23  39  60  91 129 168 206 263 325 378
#     4  12  22  36  68 102 120 154 236 272 306 372
#     4  10  22  42  62  92 132 170 206 262 334 378
#
# _framework density 22.260456999999999
#
# number of rings (size 3 to 8) (size 9 to 14) (size 15 to 20)
#    0.000    1.455    1.818    2.727   12.727    0.000 
#    0.000    1.818    0.000    0.000    0.000    0.000 
#    0.000    0.000    0.000    0.000    0.000    0.000 
#
# Total GULP energy -122875.842633 kJ/mol
# GULP energy per Si atom -5585.265574 kJ/mol
# Density = 2.220979 g / cm^3
# Si number density = 22.260457 Si / 1000 Ang^3
#
#
#
# Elastic Constant Matrix: (Units=GPa)
#
#
# Indices 1 2 3 4 5 6 
#
# 1 143.4805 38.8571 33.3350 0.0000 -25.8209 0.0000
# 2 38.8571 91.4198 29.3526 0.0000 -13.7047 0.0000
# 3 33.3350 29.3526 89.8127 0.0000 -26.4385 0.0000
# 4 0.0000 0.0000 0.0000 32.0479 0.0000 1.2028
# 5 -25.8209 -13.7047 -26.4385 0.0000 26.4061 0.0000
# 6 0.0000 0.0000 0.0000 1.2028 0.0000 25.7799
#
#
#
# Elastic Compliance Matrix: (Units=1/GPa)
#
#
# Indices 1 2 3 4 5 6 
#
# 1 0.009056 -0.002658 -0.000414 0.000000 0.007062 0.000000
# 2 -0.002658 0.013210 -0.002946 0.000000 0.001308 0.000000
# 3 -0.000414 -0.002946 0.016563 0.000000 0.014650 0.000000
# 4 0.000000 0.000000 0.000000 0.031258 0.000000 -0.001458
# 5 0.007062 0.001308 0.014650 0.000000 0.060122 0.000000
# 6 0.000000 0.000000 0.000000 -0.001458 0.000000 0.038858
#
#
# Mechanical properties :
#
#
# Convention : Reuss Voigt Hill
#
# Bulk Modulus (GPa) = 37.32114 58.64469 47.98291
# Shear Modulus (GPa) = 26.31100 31.72467 29.01784
#
# Velocity S-wave (km/s) = 3.44170 3.77922 3.61440
# Velocity P-wave (km/s) = 5.70927 6.74132 6.24664
#
# Compressibility (1/GPa) = 0.02679447
#
# Stress axis : x y z
#
# Youngs Moduli (GPa) = 110.41928 75.69965 60.37450
#
# Poissons Ratio (x) = 0.20119 0.02499
# Poissons Ratio (y) = 0.29347 0.17786
# Poissons Ratio (z) = 0.04571 0.22301
#
# Static dielectric constant tensor:
#      x y z
#    x 1.868070 0.000000 0.025490 
#    y 0.000000 1.870880 0.000000 
#    z 0.025490 0.000000 1.823360 
# 
# From -- ./inp_files/212931.got.cif
#   From: 2010.05.17/outbox.cif.g08.bks.cpg/sg15_107_cif.got.tgz:212931.got - 2010.06.03 18:47:42.
