data_PCOD9290703
_publ_section_title
;
Structure prediction by ZEFSAII (Michael W. Deem and Ramdas Pophale) SiO2 
 PCOD9290703
Probable space group: C 2/C
;
_chemical_formula_sum "Si O2"
_cell_formula_units_Z 52
_cell_length_a 26.610984
_cell_length_b 14.119975
_cell_length_c 8.053502
_cell_angle_alpha 90.000000
_cell_angle_beta 137.030792
_cell_angle_gamma 90.000000
_cell_volume 2062.588243
_symmetry_space_group_name_H-M "C 2/C"
_symmetry_group_IT_number 15
_symmetry_cell_setting 'monoclinic'
loop_
_space_group_symop_operation_xyz
x,y,z
-x,y,1/2-z
-x,-y,-z
x,-y,1/2+z
1/2+x,1/2+y,z
1/2-x,1/2+y,1/2-z
1/2-x,1/2-y,-z
1/2+x,1/2-y,1/2+z
loop_
_atom_site_type_symbol
_atom_site_label
_atom_site_fract_x
_atom_site_fract_y
_atom_site_fract_z
Si Si1 0.779788 0.634280 0.916066
Si Si2 0.000000 0.300116 0.250000
Si Si3 0.574778 0.122770 0.642485
Si Si4 0.349660 0.980656 0.880079
Si Si5 0.109354 0.865781 0.067248
Si Si6 0.920526 0.933610 0.133435
Si Si7 0.673895 0.276414 0.720929
O O1 0.789462 0.558372 0.789226
O O2 0.695843 0.647559 0.757960
O O3 0.814927 0.730286 0.933263
O O4 0.821967 0.588096 0.170955
O O5 0.995714 0.357911 0.412515
O O6 0.068987 0.230219 0.420828
O O7 0.607348 0.218583 0.645247
O O8 0.580913 0.044107 0.513571
O O9 0.631378 0.081045 0.914906
O O10 0.085843 0.897975 0.194156
O O11 0.086931 0.953485 0.895390
O O12 0.000000 0.906917 0.250000
O O13 0.853922 0.883211 0.869926
O O14 0.750000 0.250000 0.000000
#
# Coordination Sequence:
#
# PCOD9290703 Si02
#       7
#     8   4   8   8   8   8   8
#     4  10  22  41  69 100 132 172 235 287 356 410
#     4  12  26  44  68 104 140 192 236 290 340 444
#     4  10  23  43  71  99 144 175 237 287 360 417
#     4   9  21  43  70 102 130 178 223 298 355 416
#     4  12  27  44  72 100 144 191 238 292 357 429
#     4  12  28  47  70 102 147 195 243 290 363 430
#     4  11  26  43  69 103 143 187 237 307 350 421
#
# _framework density 25.211041999999999
#
# number of rings (size 3 to 8) (size 9 to 14) (size 15 to 20)
#    0.000    1.231    0.769    3.231   15.077    1.231 
#    0.000    0.000    3.385    0.000    0.000    0.000 
#    0.000    0.000    0.000    0.000    0.000    0.000 
#
# Total GULP energy -145745.824821 kJ/mol
# GULP energy per Si atom -5605.608647 kJ/mol
# Density = 2.515366 g / cm^3
# Si number density = 25.211042 Si / 1000 Ang^3
#
#
#
# Elastic Constant Matrix: (Units=GPa)
#
#
# Indices 1 2 3 4 5 6 
#
# 1 169.5805 35.9496 15.5327 0.0000 4.0039 0.0000
# 2 35.9496 53.4650 -0.6930 0.0000 14.2579 0.0000
# 3 15.5327 -0.6930 52.0563 0.0000 6.9756 0.0000
# 4 0.0000 0.0000 0.0000 -20.3343 0.0000 16.0794
# 5 4.0039 14.2579 6.9756 0.0000 39.3390 0.0000
# 6 0.0000 0.0000 0.0000 16.0794 0.0000 33.4727
#
#
#
# Elastic Compliance Matrix: (Units=1/GPa)
#
#
# Indices 1 2 3 4 5 6 
#
# 1 0.007208 -0.005311 -0.002439 0.000000 0.001624 0.000000
# 2 -0.005311 0.024707 0.003115 0.000000 -0.008966 0.000000
# 3 -0.002439 0.003115 0.020586 0.000000 -0.004531 0.000000
# 4 0.000000 0.000000 0.000000 -0.035640 0.000000 0.017120
# 5 0.001624 -0.008966 -0.004531 0.000000 0.029308 0.000000
# 6 0.000000 0.000000 0.000000 0.017120 0.000000 0.021651
#
#
# Mechanical properties :
#
#
# Convention : Reuss Voigt Hill
#
# Bulk Modulus (GPa) = 23.13166 41.85337 32.49251
# Shear Modulus (GPa) = 54.64473 25.44965 40.04719
#
# Velocity S-wave (km/s) = 4.66068 3.18065 3.98990
# Velocity P-wave (km/s) = 6.17720 5.48871 5.84310
#
# Compressibility (1/GPa) = 0.04323079
#
# Stress axis : x y z
#
# Youngs Moduli (GPa) = 138.73672 40.47511 48.57576
#
# Poissons Ratio (x) = 0.21497 0.11848
# Poissons Ratio (y) = 0.73686 -0.15132
# Poissons Ratio (z) = 0.33838 -0.12609
#
# Static dielectric constant tensor:
#      x y z
#    x 1.976100 0.000000 -0.011430 
#    y 0.000000 1.965400 0.000000 
#    z -0.011430 0.000000 1.979850 
# 
# From -- ./inp_files/70199.got.cif
#   From: 2010.05.17/outbox.cif.g08.bks.cpg/sg15_36_cif.got.tgz:70199.got - 2010.06.03 18:47:42.
