data_PCOD9290230
_publ_section_title
;
Structure prediction by ZEFSAII (Michael W. Deem and Ramdas Pophale) SiO2 
 PCOD9290230
Probable space group: C 2/C
;
_chemical_formula_sum "Si O2"
_cell_formula_units_Z 44
_cell_length_a 17.333978
_cell_length_b 8.824870
_cell_length_c 14.336319
_cell_angle_alpha 90.000000
_cell_angle_beta 114.919995
_cell_angle_gamma 90.000000
_cell_volume 1988.850741
_symmetry_space_group_name_H-M "C 2/C"
_symmetry_group_IT_number 15
_symmetry_cell_setting 'monoclinic'
loop_
_space_group_symop_operation_xyz
x,y,z
-x,y,1/2-z
-x,-y,-z
x,-y,1/2+z
1/2+x,1/2+y,z
1/2-x,1/2+y,1/2-z
1/2-x,1/2-y,-z
1/2+x,1/2-y,1/2+z
loop_
_atom_site_type_symbol
_atom_site_label
_atom_site_fract_x
_atom_site_fract_y
_atom_site_fract_z
Si Si1 0.114472 0.601028 0.464453
Si Si2 0.591619 0.550135 0.009454
Si Si3 0.281113 0.411050 0.554732
Si Si4 0.366557 0.932265 0.320925
Si Si5 0.274996 0.631470 0.271624
Si Si6 0.000000 0.446482 0.250000
O O1 0.098638 0.778923 0.472883
O O2 0.210685 0.540711 0.493774
O O3 0.096603 0.531909 0.558762
O O4 0.053495 0.541975 0.352482
O O5 0.658133 0.545351 0.129187
O O6 0.500000 0.500000 0.000000
O O7 0.629640 0.445163 0.948349
O O8 0.250000 0.250000 0.500000
O O9 0.287310 0.401409 0.668896
O O10 0.293286 0.807583 0.297782
O O11 0.433133 0.862414 0.282355
O O12 0.320688 0.078797 0.255573
#
# Coordination Sequence:
#
# PCOD9290230 Si02
#       6
#     8   8   8   8   8   4
#     4  10  24  41  62  92 128 164 206 252 307 375
#     4  11  25  42  62  94 128 161 207 258 308 367
#     4  11  23  42  68  93 120 164 212 252 308 376
#     4  10  23  41  64  91 121 161 206 251 306 368
#     4  10  22  41  64  88 125 163 200 253 310 365
#     4  12  22  38  66  94 124 160 204 258 308 352
#
# _framework density 22.123328999999998
#
# number of rings (size 3 to 8) (size 9 to 14) (size 15 to 20)
#    0.000    1.455    0.000    4.364    0.000   15.273 
#    0.000    0.000    0.000    1.091    0.000    0.000 
#    0.000    0.000    0.000    0.000    0.000    0.000 
#
# Total GULP energy -122903.620024 kJ/mol
# GULP energy per Si atom -5586.528183 kJ/mol
# Density = 2.207298 g / cm^3
# Si number density = 22.123329 Si / 1000 Ang^3
#
#
#
# Elastic Constant Matrix: (Units=GPa)
#
#
# Indices 1 2 3 4 5 6 
#
# 1 112.0108 30.5597 2.8129 0.0000 -4.4170 0.0000
# 2 30.5597 51.8139 0.9741 0.0000 5.2935 0.0000
# 3 2.8129 0.9741 131.0779 0.0000 -1.6569 0.0000
# 4 0.0000 0.0000 0.0000 19.2123 0.0000 -4.7914
# 5 -4.4170 5.2935 -1.6569 0.0000 30.7076 0.0000
# 6 0.0000 0.0000 0.0000 -4.7914 0.0000 21.6533
#
#
#
# Elastic Compliance Matrix: (Units=1/GPa)
#
#
# Indices 1 2 3 4 5 6 
#
# 1 0.010860 -0.006679 -0.000149 0.000000 0.002705 0.000000
# 2 -0.006679 0.023758 -0.000097 0.000000 -0.005061 0.000000
# 3 -0.000149 -0.000097 0.007638 0.000000 0.000407 0.000000
# 4 0.000000 0.000000 0.000000 0.055090 0.000000 0.012190
# 5 0.002705 -0.005061 0.000407 0.000000 0.033849 0.000000
# 6 0.000000 0.000000 0.000000 0.012190 0.000000 0.048880
#
#
# Mechanical properties :
#
#
# Convention : Reuss Voigt Hill
#
# Bulk Modulus (GPa) = 35.20427 40.39955 37.80191
# Shear Modulus (GPa) = 24.58271 31.68502 28.13387
#
# Velocity S-wave (km/s) = 3.33703 3.78855 3.56994
# Velocity P-wave (km/s) = 5.54932 6.11867 5.84094
#
# Compressibility (1/GPa) = 0.02840565
#
# Stress axis : x y z
#
# Youngs Moduli (GPa) = 92.07789 42.09099 130.92214
#
# Poissons Ratio (x) = 0.28113 0.01954
# Poissons Ratio (y) = 0.61499 0.01273
# Poissons Ratio (z) = 0.01374 0.00409
#
# Static dielectric constant tensor:
#      x y z
#    x 1.856390 0.000000 0.002230 
#    y 0.000000 1.817110 0.000000 
#    z 0.002230 0.000000 1.804830 
# 
# From -- ./inp_files/159668.got.cif
#   From: 2010.05.17/outbox.cif.g08.bks.cpg/sg15_80_cif.got.tgz:159668.got - 2010.06.03 18:47:42.
