data_PCOD9290508
_publ_section_title
;
Structure prediction by ZEFSAII (Michael W. Deem and Ramdas Pophale) SiO2 
 PCOD9290508
Probable space group: C 2/C
;
_chemical_formula_sum "Si O2"
_cell_formula_units_Z 36
_cell_length_a 18.983310
_cell_length_b 7.385390
_cell_length_c 18.714269
_cell_angle_alpha 90.000000
_cell_angle_beta 147.295939
_cell_angle_gamma 90.000000
_cell_volume 1417.598288
_symmetry_space_group_name_H-M "C 2/C"
_symmetry_group_IT_number 15
_symmetry_cell_setting 'monoclinic'
loop_
_space_group_symop_operation_xyz
x,y,z
-x,y,1/2-z
-x,-y,-z
x,-y,1/2+z
1/2+x,1/2+y,z
1/2-x,1/2+y,1/2-z
1/2-x,1/2-y,-z
1/2+x,1/2-y,1/2+z
loop_
_atom_site_type_symbol
_atom_site_label
_atom_site_fract_x
_atom_site_fract_y
_atom_site_fract_z
Si Si1 0.000000 0.978502 0.250000
Si Si2 0.128812 0.292835 0.097559
Si Si3 0.771831 0.424529 0.926113
Si Si4 0.995898 0.651678 0.348493
Si Si5 0.761722 0.439755 0.168286
O O1 0.025755 0.841847 0.337878
O O2 0.131917 0.082264 0.343914
O O3 0.227763 0.430152 0.139543
O O4 0.144652 0.345226 0.192797
O O5 0.164797 0.084044 0.119507
O O6 0.000401 0.324614 0.939367
O O7 0.805972 0.224181 0.929541
O O8 0.888440 0.512395 0.070306
O O9 0.860137 0.567737 0.208715
#
# Coordination Sequence:
#
# PCOD9290508 Si02
#       5
#     4   8   8   8   8
#     4  12  22  48  64  90 140 168 218 272 302 384
#     4  10  22  41  66  97 131 160 216 265 324 378
#     4  10  25  40  66  97 125 175 215 255 327 377
#     4  10  23  42  68  96 128 175 212 268 318 380
#     4  12  21  45  68  98 132 165 210 274 325 385
#
# _framework density 25.395064999999999
#
# number of rings (size 3 to 8) (size 9 to 14) (size 15 to 20)
#    1.333    0.000    4.444    1.333    0.000    2.667 
#    0.000    6.667    0.000    0.000    0.000    0.000 
#    0.000    0.000    0.000    0.000    0.000    0.000 
#
# Total GULP energy -100589.969309 kJ/mol
# GULP energy per Si atom -5588.331628 kJ/mol
# Density = 2.533726 g / cm^3
# Si number density = 25.395065 Si / 1000 Ang^3
#
#
#
# Elastic Constant Matrix: (Units=GPa)
#
#
# Indices 1 2 3 4 5 6 
#
# 1 36.2038 -0.0850 -12.5187 0.0000 0.8175 0.0000
# 2 -0.0850 150.0944 -0.5727 0.0000 9.1302 0.0000
# 3 -12.5187 -0.5727 31.0804 0.0000 -6.7510 0.0000
# 4 0.0000 0.0000 0.0000 7.4072 0.0000 8.2271
# 5 0.8175 9.1302 -6.7510 0.0000 40.7557 0.0000
# 6 0.0000 0.0000 0.0000 8.2271 0.0000 19.6196
#
#
#
# Elastic Compliance Matrix: (Units=1/GPa)
#
#
# Indices 1 2 3 4 5 6 
#
# 1 0.032186 -0.000026 0.013303 0.000000 0.001564 0.000000
# 2 -0.000026 0.006756 -0.000223 0.000000 -0.001550 0.000000
# 3 0.013303 -0.000223 0.038881 0.000000 0.006223 0.000000
# 4 0.000000 0.000000 0.000000 0.252696 0.000000 -0.105963
# 5 0.001564 -0.001550 0.006223 0.000000 0.025883 0.000000
# 6 0.000000 0.000000 0.000000 -0.105963 0.000000 0.095403
#
#
# Mechanical properties :
#
#
# Convention : Reuss Voigt Hill
#
# Bulk Modulus (GPa) = 9.62169 21.22507 15.42338
# Shear Modulus (GPa) = 10.86155 28.92682 19.89418
#
# Velocity S-wave (km/s) = 2.07034 3.37868 2.80194
# Velocity P-wave (km/s) = 3.08417 4.85764 4.06871
#
# Compressibility (1/GPa) = 0.10393190
#
# Stress axis : x y z
#
# Youngs Moduli (GPa) = 31.06924 148.01907 25.71965
#
# Poissons Ratio (x) = 0.00387 -0.34216
# Poissons Ratio (y) = 0.00081 0.00573
# Poissons Ratio (z) = -0.41333 0.03296
#
# Static dielectric constant tensor:
#      x y z
#    x 2.053330 0.000000 -0.063100 
#    y 0.000000 1.923280 0.000000 
#    z -0.063100 0.000000 2.018410 
# 
# From -- ./inp_files/175273.got.cif
#   From: 2010.05.17/outbox.cif.g08.bks.cpg/sg15_88_cif.got.tgz:175273.got - 2010.06.03 18:47:42.
