data_PCOD9290236
_publ_section_title
;
Structure prediction by ZEFSAII (Michael W. Deem and Ramdas Pophale) SiO2 
 PCOD9290236
Probable space group: C 2/C
;
_chemical_formula_sum "Si O2"
_cell_formula_units_Z 64
_cell_length_a 24.210162
_cell_length_b 21.908023
_cell_length_c 18.661078
_cell_angle_alpha 90.000000
_cell_angle_beta 160.469906
_cell_angle_gamma 90.000000
_cell_volume 3308.845507
_symmetry_space_group_name_H-M "C 2/C"
_symmetry_group_IT_number 15
_symmetry_cell_setting 'monoclinic'
loop_
_space_group_symop_operation_xyz
x,y,z
-x,y,1/2-z
-x,-y,-z
x,-y,1/2+z
1/2+x,1/2+y,z
1/2-x,1/2+y,1/2-z
1/2-x,1/2-y,-z
1/2+x,1/2-y,1/2+z
loop_
_atom_site_type_symbol
_atom_site_label
_atom_site_fract_x
_atom_site_fract_y
_atom_site_fract_z
Si Si1 0.359915 0.753344 0.290020
Si Si2 0.849102 0.040240 0.344027
Si Si3 0.515438 0.188893 0.853160
Si Si4 0.490552 0.955627 0.153753
Si Si5 0.629397 0.964514 0.709163
Si Si6 0.432051 0.730861 0.743018
Si Si7 0.582077 0.154677 0.513251
Si Si8 0.567801 0.345020 0.114942
O O1 0.381546 0.775108 0.235618
O O2 0.369903 0.811794 0.354106
O O3 0.517898 0.712881 0.505742
O O4 0.194088 0.714248 0.095806
O O5 0.791087 0.035363 0.356402
O O6 0.921777 0.107653 0.425092
O O7 0.688802 0.028535 0.098790
O O8 0.000000 0.000000 0.500000
O O9 0.500000 0.198884 0.750000
O O10 0.493303 0.116818 0.839840
O O11 0.500000 0.966782 0.250000
O O12 0.626810 0.995154 0.277954
O O13 0.552917 0.897915 0.635516
O O14 0.500000 0.000000 0.500000
O O15 0.500000 0.709359 0.750000
O O16 0.250000 0.750000 0.500000
O O17 0.521089 0.790998 0.885482
O O18 0.432695 0.679637 0.804699
O O19 0.752930 0.129901 0.688400
#
# Coordination Sequence:
#
# PCOD9290236 Si02
#       8
#     8   8   8   8   8   8   8   8
#     4  11  21  37  59  89 124 158 206 246 305 376
#     4  11  23  42  67  92 123 163 222 266 309 380
#     4  11  22  38  61  90 124 162 201 255 312 363
#     4  10  22  43  66  91 127 167 209 265 320 371
#     4  10  22  41  64  90 121 166 215 257 315 383
#     4  11  24  41  60  94 135 167 209 259 319 382
#     4  11  23  38  66  90 123 172 205 254 315 379
#     4  11  22  38  62  90 123 165 205 258 313 369
#
# _framework density 19.342095
#
# number of rings (size 3 to 8) (size 9 to 14) (size 15 to 20)
#    0.000    1.250    3.750    3.375    1.750    0.500 
#    2.250    0.625    0.000    0.000    0.000    0.000 
#    0.000    0.000    0.000    0.000    0.000    0.000 
#
# Total GULP energy -178510.552483 kJ/mol
# GULP energy per Si atom -5578.454765 kJ/mol
# Density = 1.929807 g / cm^3
# Si number density = 19.342095 Si / 1000 Ang^3
#
#
#
# Elastic Constant Matrix: (Units=GPa)
#
#
# Indices 1 2 3 4 5 6 
#
# 1 146.3634 69.1953 32.2911 0.0000 11.3994 0.0000
# 2 69.1953 81.1891 10.8830 0.0000 0.9648 0.0000
# 3 32.2911 10.8830 57.9481 0.0000 5.7229 0.0001
# 4 0.0000 0.0000 0.0000 20.8533 0.0000 -1.1630
# 5 11.3994 0.9648 5.7229 0.0000 36.1754 0.0000
# 6 0.0000 0.0000 0.0001 -1.1630 0.0000 25.4281
#
#
#
# Elastic Compliance Matrix: (Units=1/GPa)
#
#
# Indices 1 2 3 4 5 6 
#
# 1 0.013144 -0.010489 -0.005052 0.000000 -0.003063 0.000000
# 2 -0.010489 0.021005 0.001655 0.000000 0.002483 0.000000
# 3 -0.005052 0.001655 0.019920 0.000000 -0.001603 0.000000
# 4 0.000000 0.000000 0.000000 0.048077 0.000000 0.002199
# 5 -0.003063 0.002483 -0.001603 0.000000 0.028796 0.000000
# 6 0.000000 0.000000 0.000000 0.002199 0.000000 0.039427
#
#
# Mechanical properties :
#
#
# Convention : Reuss Voigt Hill
#
# Bulk Modulus (GPa) = 38.02813 56.69328 47.36070
# Shear Modulus (GPa) = 24.16551 28.03343 26.09947
#
# Velocity S-wave (km/s) = 3.53848 3.81116 3.67735
# Velocity P-wave (km/s) = 6.03307 6.98148 6.52453
#
# Compressibility (1/GPa) = 0.02629632
#
# Stress axis : x y z
#
# Youngs Moduli (GPa) = 76.07884 47.60772 50.20163
#
# Poissons Ratio (x) = 0.49935 0.25363
# Poissons Ratio (y) = 0.79798 -0.08307
# Poissons Ratio (z) = 0.38436 -0.07878
#
# Static dielectric constant tensor:
#      x y z
#    x 1.670360 0.000000 0.006940 
#    y 0.000000 1.679760 0.000000 
#    z 0.006940 0.000000 1.657270 
# 
# From -- ./inp_files/220318.got.cif
#   From: 2010.05.17/outbox.cif.g08.bks.cpg/sg15_111_cif.got.tgz:220318.got - 2010.06.03 18:47:42.
