data_PCOD9290621
_publ_section_title
;
Structure prediction by ZEFSAII (Michael W. Deem and Ramdas Pophale) SiO2 
 PCOD9290621
Probable space group: C 2/C
;
_chemical_formula_sum "Si O2"
_cell_formula_units_Z 56
_cell_length_a 10.634071
_cell_length_b 32.147391
_cell_length_c 14.140115
_cell_angle_alpha 90.000000
_cell_angle_beta 28.831308
_cell_angle_gamma 90.000000
_cell_volume 2331.066441
_symmetry_space_group_name_H-M "C 2/C"
_symmetry_group_IT_number 15
_symmetry_cell_setting 'monoclinic'
loop_
_space_group_symop_operation_xyz
x,y,z
-x,y,1/2-z
-x,-y,-z
x,-y,1/2+z
1/2+x,1/2+y,z
1/2-x,1/2+y,1/2-z
1/2-x,1/2-y,-z
1/2+x,1/2-y,1/2+z
loop_
_atom_site_type_symbol
_atom_site_label
_atom_site_fract_x
_atom_site_fract_y
_atom_site_fract_z
Si Si1 0.570013 0.805174 0.925184
Si Si2 0.729968 0.975777 0.985771
Si Si3 0.865046 0.273829 0.251662
Si Si4 0.969863 0.847055 0.982467
Si Si5 0.784124 0.341420 0.959520
Si Si6 0.788407 0.933131 0.469822
Si Si7 0.202380 0.063753 0.861784
O O1 0.683411 0.760164 0.820433
O O2 0.783014 0.839263 0.749251
O O3 0.307570 0.817783 0.042249
O O4 0.514813 0.799032 0.071948
O O5 0.000000 0.970451 0.750000
O O6 0.645086 0.024303 0.036983
O O7 0.802685 0.967008 0.046496
O O8 0.480180 0.946489 0.128190
O O9 0.709367 0.307619 0.414769
O O10 0.000000 0.249681 0.250000
O O11 0.045880 0.843644 0.044306
O O12 0.824323 0.890746 0.073021
O O13 0.000000 0.320672 0.750000
O O14 0.862028 0.389790 0.926023
O O15 0.000000 0.925229 0.250000
O O16 0.958671 0.940089 0.452217
#
# Coordination Sequence:
#
# PCOD9290621 Si02
#       7
#     8   8   8   8   8   8   8
#     4  11  24  45  70  99 134 182 225 281 340 403
#     4  10  23  42  68 103 133 184 228 277 337 405
#     4  12  26  43  70  99 138 182 226 278 336 411
#     4  10  24  45  65 102 133 175 233 282 336 409
#     4   9  22  43  66 101 134 173 229 282 344 399
#     4  10  22  41  67  99 138 176 227 282 338 405
#     4  10  23  44  66  97 143 178 227 281 337 402
#
# _framework density 24.023337999999999
#
# number of rings (size 3 to 8) (size 9 to 14) (size 15 to 20)
#    0.000    1.714    1.429    0.857    8.000    4.000 
#   10.286    0.000    0.000    0.000    0.000    0.000 
#    0.000    0.000    0.000    0.000    0.000    0.000 
#
# Total GULP energy -156203.581188 kJ/mol
# GULP energy per Si atom -5578.699328 kJ/mol
# Density = 2.396866 g / cm^3
# Si number density = 24.023338 Si / 1000 Ang^3
#
#
#
# Elastic Constant Matrix: (Units=GPa)
#
#
# Indices 1 2 3 4 5 6 
#
# 1 83.4035 29.3027 32.8623 0.0000 14.5155 0.0000
# 2 29.3027 103.5124 26.3541 0.0000 -4.0159 0.0000
# 3 32.8623 26.3541 113.0070 0.0000 14.8017 0.0000
# 4 0.0000 0.0000 0.0000 10.9112 0.0000 -0.4655
# 5 14.5155 -4.0159 14.8017 0.0000 32.3763 0.0000
# 6 0.0000 0.0000 0.0000 -0.4655 0.0000 43.3499
#
#
#
# Elastic Compliance Matrix: (Units=1/GPa)
#
#
# Indices 1 2 3 4 5 6 
#
# 1 0.015547 -0.003929 -0.002795 0.000000 -0.006180 0.000000
# 2 -0.003929 0.011460 -0.002071 0.000000 0.004130 0.000000
# 3 -0.002795 -0.002071 0.010652 0.000000 -0.003874 0.000000
# 4 0.000000 0.000000 0.000000 0.091691 0.000000 0.000985
# 5 -0.006180 0.004130 -0.003874 0.000000 0.035941 0.000000
# 6 0.000000 0.000000 0.000000 0.000985 0.000000 0.023079
#
#
# Mechanical properties :
#
#
# Convention : Reuss Voigt Hill
#
# Bulk Modulus (GPa) = 49.82856 52.99567 51.41211
# Shear Modulus (GPa) = 23.51270 31.42107 27.46689
#
# Velocity S-wave (km/s) = 3.13188 3.62047 3.38500
# Velocity P-wave (km/s) = 5.81936 6.29166 6.06012
#
# Compressibility (1/GPa) = 0.02006881
#
# Stress axis : x y z
#
# Youngs Moduli (GPa) = 64.31965 87.25637 93.87696
#
# Poissons Ratio (x) = 0.34285 0.26242
# Poissons Ratio (y) = 0.25273 0.19442
# Poissons Ratio (z) = 0.17980 0.18071
#
# Static dielectric constant tensor:
#      x y z
#    x 1.981560 0.000000 -0.057340 
#    y 0.000000 1.919510 0.000000 
#    z -0.057340 0.000000 2.011970 
# 
# From -- ./inp_files/149276.got.cif
#   From: 2010.05.17/outbox.cif.g08.bks.cpg/sg15_75_cif.got.tgz:149276.got - 2010.06.03 18:47:42.
