data_PCOD9290403
_publ_section_title
;
Structure prediction by ZEFSAII (Michael W. Deem and Ramdas Pophale) SiO2 
 PCOD9290403
Probable space group: C 2/C
;
_chemical_formula_sum "Si O2"
_cell_formula_units_Z 52
_cell_length_a 9.106910
_cell_length_b 20.762808
_cell_length_c 16.572296
_cell_angle_alpha 90.000000
_cell_angle_beta 130.997531
_cell_angle_gamma 90.000000
_cell_volume 2365.026138
_symmetry_space_group_name_H-M "C 2/C"
_symmetry_group_IT_number 15
_symmetry_cell_setting 'monoclinic'
loop_
_space_group_symop_operation_xyz
x,y,z
-x,y,1/2-z
-x,-y,-z
x,-y,1/2+z
1/2+x,1/2+y,z
1/2-x,1/2+y,1/2-z
1/2-x,1/2-y,-z
1/2+x,1/2-y,1/2+z
loop_
_atom_site_type_symbol
_atom_site_label
_atom_site_fract_x
_atom_site_fract_y
_atom_site_fract_z
Si Si1 0.302319 0.079857 0.454411
Si Si2 0.785510 0.658058 0.178654
Si Si3 0.719581 0.298542 0.825141
Si Si4 0.915370 0.228388 0.619181
Si Si5 0.500000 0.607450 0.750000
Si Si6 0.087119 0.958653 0.602476
Si Si7 0.857477 0.482742 0.331528
O O1 0.282080 0.155522 0.422322
O O2 0.446293 0.059152 0.579913
O O3 0.088119 0.053706 0.398149
O O4 0.374769 0.042366 0.400446
O O5 0.711848 0.656461 0.243055
O O6 0.824447 0.730226 0.162503
O O7 0.644896 0.609987 0.083091
O O8 0.000000 0.629364 0.250000
O O9 0.500000 0.271317 0.750000
O O10 0.888832 0.250478 0.857319
O O11 0.750000 0.250000 0.500000
O O12 0.940281 0.155992 0.656578
O O13 0.316521 0.563975 0.703692
O O14 0.272640 0.990024 0.715856
O O15 0.000000 0.000000 0.500000
#
# Coordination Sequence:
#
# PCOD9290403 Si02
#       7
#     8   8   8   8   4   8   8
#     4  11  22  41  66  96 130 176 223 277 347 401
#     4  10  22  41  65  96 128 175 227 273 327 409
#     4  11  19  42  71  96 125 172 232 281 332 406
#     4  11  25  43  69  97 131 185 228 278 336 409
#     4  12  22  44  62  96 136 164 232 278 326 404
#     4  12  25  39  64 100 139 173 224 281 341 414
#     4  11  24  39  65  94 133 177 218 280 342 402
#
# _framework density 21.987074
#
# number of rings (size 3 to 8) (size 9 to 14) (size 15 to 20)
#    0.000    0.923    6.923    0.923    4.308    1.231 
#    0.000    2.308    0.000    0.000    0.000    0.000 
#    0.000    0.000    0.000    0.000    0.000    0.000 
#
# Total GULP energy -144742.151168 kJ/mol
# GULP energy per Si atom -5567.005814 kJ/mol
# Density = 2.193703 g / cm^3
# Si number density = 21.987074 Si / 1000 Ang^3
#
#
#
# Elastic Constant Matrix: (Units=GPa)
#
#
# Indices 1 2 3 4 5 6 
#
# 1 68.8114 -3.0429 8.0897 0.0000 17.4148 0.0000
# 2 -3.0429 49.2067 -12.9389 0.0000 5.9334 0.0000
# 3 8.0897 -12.9389 84.4708 0.0000 7.3119 0.0000
# 4 0.0000 0.0000 0.0000 41.1019 0.0000 22.3990
# 5 17.4148 5.9334 7.3119 0.0000 37.7109 0.0000
# 6 0.0000 0.0000 0.0000 22.3990 0.0000 54.8307
#
#
#
# Elastic Compliance Matrix: (Units=1/GPa)
#
#
# Indices 1 2 3 4 5 6 
#
# 1 0.016678 0.001811 -0.000639 0.000000 -0.007863 0.000000
# 2 0.001811 0.021991 0.003628 0.000000 -0.005000 0.000000
# 3 -0.000639 0.003628 0.012692 0.000000 -0.002737 0.000000
# 4 0.000000 0.000000 0.000000 0.031297 0.000000 -0.012785
# 5 -0.007863 -0.005000 -0.002737 0.000000 0.031466 0.000000
# 6 0.000000 0.000000 0.000000 -0.012785 0.000000 0.023461
#
#
# Mechanical properties :
#
#
# Convention : Reuss Voigt Hill
#
# Bulk Modulus (GPa) = 16.40384 20.74497 18.57440
# Shear Modulus (GPa) = 33.71420 40.75409 37.23414
#
# Velocity S-wave (km/s) = 3.92007 4.30996 4.11963
# Velocity P-wave (km/s) = 5.28830 5.85006 5.57626
#
# Compressibility (1/GPa) = 0.06096133
#
# Stress axis : x y z
#
# Youngs Moduli (GPa) = 59.96055 45.47251 78.78855
#
# Poissons Ratio (x) = -0.08237 0.05036
# Poissons Ratio (y) = -0.10861 -0.28584
# Poissons Ratio (z) = 0.03832 -0.16497
#
# Static dielectric constant tensor:
#      x y z
#    x 1.777870 0.000000 0.002130 
#    y 0.000000 1.820980 0.000000 
#    z 0.002130 0.000000 1.951250 
# 
# From -- ./inp_files/192595.got.cif
#   From: 2010.05.17/outbox.cif.g08.bks.cpg/sg15_97_cif.got.tgz:192595.got - 2010.06.03 18:47:42.
