data_PCOD9290574
_publ_section_title
;
Structure prediction by ZEFSAII (Michael W. Deem and Ramdas Pophale) SiO2 
 PCOD9290574
Probable space group: C 2/C
;
_chemical_formula_sum "Si O2"
_cell_formula_units_Z 36
_cell_length_a 12.374895
_cell_length_b 14.152653
_cell_length_c 21.874177
_cell_angle_alpha 90.000000
_cell_angle_beta 155.997851
_cell_angle_gamma 90.000000
_cell_volume 1558.335583
_symmetry_space_group_name_H-M "C 2/C"
_symmetry_group_IT_number 15
_symmetry_cell_setting 'monoclinic'
loop_
_space_group_symop_operation_xyz
x,y,z
-x,y,1/2-z
-x,-y,-z
x,-y,1/2+z
1/2+x,1/2+y,z
1/2-x,1/2+y,1/2-z
1/2-x,1/2-y,-z
1/2+x,1/2-y,1/2+z
loop_
_atom_site_type_symbol
_atom_site_label
_atom_site_fract_x
_atom_site_fract_y
_atom_site_fract_z
Si Si1 0.739679 0.201897 0.279978
Si Si2 0.332248 0.097379 0.840041
Si Si3 0.749470 0.104575 0.163046
Si Si4 0.819041 0.375800 0.102572
Si Si5 0.500000 0.944088 0.750000
O O1 0.655188 0.308787 0.250381
O O2 0.700681 0.182235 0.188729
O O3 0.594507 0.123793 0.245197
O O4 0.053865 0.183615 0.455305
O O5 0.517335 0.110642 0.875710
O O6 0.202993 0.994082 0.775404
O O7 0.504058 0.099356 0.990480
O O8 0.000000 0.120005 0.250000
O O9 0.781859 0.482419 0.110150
O O10 0.000000 0.332049 0.250000
#
# Coordination Sequence:
#
# PCOD9290574 Si02
#       5
#     8   8   8   8   4
#     4  12  24  43  68  94 130 174 217 263 324 392
#     4  11  25  41  65 102 126 169 219 264 327 379
#     4  11  24  44  66  94 136 166 211 274 321 380
#     4  10  22  41  67  94 129 169 221 264 317 383
#     4  10  24  42  64  96 130 170 216 262 328 380
#
# _framework density 23.101571
#
# number of rings (size 3 to 8) (size 9 to 14) (size 15 to 20)
#    0.667    0.444    4.444    1.333    4.667    0.000 
#    0.000    1.111    0.000    0.000    0.000    0.000 
#    0.000    0.000    0.000    0.000    0.000    0.000 
#
# Total GULP energy -100630.425631 kJ/mol
# GULP energy per Si atom -5590.579202 kJ/mol
# Density = 2.304899 g / cm^3
# Si number density = 23.101571 Si / 1000 Ang^3
#
#
#
# Elastic Constant Matrix: (Units=GPa)
#
#
# Indices 1 2 3 4 5 6 
#
# 1 103.6436 26.4646 13.1895 0.0002 -22.4253 0.0004
# 2 26.4646 151.6606 -13.8584 0.0001 -7.3425 -0.0002
# 3 13.1895 -13.8584 27.7579 -0.0048 -24.6184 -0.0037
# 4 0.0002 0.0001 -0.0048 21.9212 0.0021 -4.3640
# 5 -22.4253 -7.3425 -24.6184 0.0021 32.2427 0.0006
# 6 0.0004 -0.0002 -0.0037 -4.3640 0.0006 27.2094
#
#
#
# Elastic Compliance Matrix: (Units=1/GPa)
#
#
# Indices 1 2 3 4 5 6 
#
# 1 0.011793 -0.001403 0.002128 -0.000001 0.009508 0.000000
# 2 -0.001403 0.009451 0.019914 0.000003 0.016382 0.000003
# 3 0.002128 0.019914 0.155787 0.000027 0.124964 0.000023
# 4 -0.000001 0.000003 0.000027 0.047123 0.000018 0.007558
# 5 0.009508 0.016382 0.124964 0.000018 0.136772 0.000017
# 6 0.000000 0.000003 0.000023 0.007558 0.000017 0.037964
#
#
# Mechanical properties :
#
#
# Convention : Reuss Voigt Hill
#
# Bulk Modulus (GPa) = 4.58064 37.18372 20.88218
# Shear Modulus (GPa) = 11.61759 33.42576 22.52168
#
# Velocity S-wave (km/s) = 2.24496 3.80795 3.12572
# Velocity P-wave (km/s) = 2.95075 5.95522 4.69955
#
# Compressibility (1/GPa) = 0.21831004
#
# Stress axis : x y z
#
# Youngs Moduli (GPa) = 84.79558 105.80552 6.41902
#
# Poissons Ratio (x) = 0.14845 -0.01366
# Poissons Ratio (y) = 0.11898 -0.12783
# Poissons Ratio (z) = -0.18047 -2.10702
#
# Static dielectric constant tensor:
#      x y z
#    x 1.819310 0.000000 0.006290 
#    y 0.000000 1.930570 0.000000 
#    z 0.006290 0.000000 1.870140 
# 
# From -- ./inp_files/85854.got.cif
#   From: 2010.05.17/outbox.cif.g08.bks.cpg/sg15_43_cif.got.tgz:85854.got - 2010.06.03 18:47:42.
