data_PCOD9290670
_publ_section_title
;
Structure prediction by ZEFSAII (Michael W. Deem and Ramdas Pophale) SiO2 
 PCOD9290670
Probable space group: C 2/C
;
_chemical_formula_sum "Si O2"
_cell_formula_units_Z 48
_cell_length_a 20.614814
_cell_length_b 26.052170
_cell_length_c 5.248925
_cell_angle_alpha 90.000000
_cell_angle_beta 131.178121
_cell_angle_gamma 90.000000
_cell_volume 2121.759766
_symmetry_space_group_name_H-M "C 2/C"
_symmetry_group_IT_number 15
_symmetry_cell_setting 'monoclinic'
loop_
_space_group_symop_operation_xyz
x,y,z
-x,y,1/2-z
-x,-y,-z
x,-y,1/2+z
1/2+x,1/2+y,z
1/2-x,1/2+y,1/2-z
1/2-x,1/2-y,-z
1/2+x,1/2-y,1/2+z
loop_
_atom_site_type_symbol
_atom_site_label
_atom_site_fract_x
_atom_site_fract_y
_atom_site_fract_z
Si Si1 0.601815 0.964625 0.492762
Si Si2 0.214534 0.620447 0.032086
Si Si3 0.838728 0.187387 0.671147
Si Si4 0.811202 0.716261 0.837685
Si Si5 0.000000 0.933857 0.250000
Si Si6 0.000000 0.866308 0.750000
Si Si7 0.687845 0.528112 0.320583
O O1 0.500000 0.951884 0.250000
O O2 0.653951 0.912135 0.566157
O O3 0.617650 0.997021 0.792461
O O4 0.300535 0.645974 0.375548
O O5 0.258470 0.578186 0.962335
O O6 0.163070 0.665824 0.754369
O O7 0.870753 0.239918 0.616992
O O8 0.752267 0.197691 0.605574
O O9 0.913726 0.167052 0.045254
O O10 0.750000 0.750000 0.500000
O O11 0.984369 0.899559 0.458442
O O12 0.085227 0.964605 0.546928
O O13 0.708550 0.485531 0.582313
#
# Coordination Sequence:
#
# PCOD9290670 Si02
#       7
#     8   8   8   8   4   4   8
#     4  10  23  43  68  98 134 173 219 280 341 404
#     4  11  22  39  69  96 131 175 224 272 341 406
#     4  10  22  41  68  95 132 174 224 276 331 405
#     4   9  21  41  67  94 125 169 219 281 335 396
#     4  12  24  43  60  92 138 186 224 275 314 380
#     4  12  24  41  72  96 132 186 226 263 340 394
#     4  12  25  39  60  96 136 179 225 271 321 385
#
# _framework density 22.622730000000001
#
# number of rings (size 3 to 8) (size 9 to 14) (size 15 to 20)
#    0.000    1.333    1.667    3.500    7.000    0.000 
#    0.000    0.000   20.167    0.000    0.000    0.000 
#    0.000    0.000    0.000    0.000    0.000    0.000 
#
# Total GULP energy -133965.441313 kJ/mol
# GULP energy per Si atom -5581.893388 kJ/mol
# Density = 2.257124 g / cm^3
# Si number density = 22.622730 Si / 1000 Ang^3
#
#
#
# Elastic Constant Matrix: (Units=GPa)
#
#
# Indices 1 2 3 4 5 6 
#
# 1 69.3470 41.5359 25.3626 0.0000 -4.3033 0.0000
# 2 41.5359 126.7914 41.0695 0.0000 1.4681 0.0000
# 3 25.3626 41.0695 87.3795 0.0000 5.0069 0.0000
# 4 0.0000 0.0000 0.0000 27.0178 0.0000 -24.4815
# 5 -4.3033 1.4681 5.0069 0.0000 42.4505 0.0000
# 6 0.0000 0.0000 0.0000 -24.4815 0.0000 28.7801
#
#
#
# Elastic Compliance Matrix: (Units=1/GPa)
#
#
# Indices 1 2 3 4 5 6 
#
# 1 0.018831 -0.005168 -0.003178 0.000000 0.002462 0.000000
# 2 -0.005168 0.010723 -0.003513 0.000000 -0.000480 0.000000
# 3 -0.003178 -0.003513 0.014125 0.000000 -0.001867 0.000000
# 4 0.000000 0.000000 0.000000 0.161478 0.000000 0.137360
# 5 0.002462 -0.000480 -0.001867 0.000000 0.024043 0.000000
# 6 0.000000 0.000000 0.000000 0.137360 0.000000 0.151591
#
#
# Mechanical properties :
#
#
# Convention : Reuss Voigt Hill
#
# Bulk Modulus (GPa) = 50.09533 55.49487 52.79510
# Shear Modulus (GPa) = 12.16067 31.35300 21.75684
#
# Velocity S-wave (km/s) = 2.32101 3.72682 3.10453
# Velocity P-wave (km/s) = 5.41984 6.56527 6.01986
#
# Compressibility (1/GPa) = 0.01996194
#
# Stress axis : x y z
#
# Youngs Moduli (GPa) = 53.10490 93.25519 70.79839
#
# Poissons Ratio (x) = 0.48194 0.22499
# Poissons Ratio (y) = 0.27444 0.24868
# Poissons Ratio (z) = 0.16876 0.32756
#
# Static dielectric constant tensor:
#      x y z
#    x 1.640700 0.000000 0.288460 
#    y 0.000000 -0.230620 0.000000 
#    z 0.288460 0.000000 1.434240 
# 
# From -- ./inp_files/10792.got.cif
#   From: 2010.05.17/outbox.cif.g08.bks.cpg/sg15_6_cif.got.tgz:10792.got - 2010.06.03 18:47:42.
