data_PCOD9290307
_publ_section_title
;
Structure prediction by ZEFSAII (Michael W. Deem and Ramdas Pophale) SiO2 
 PCOD9290307
Probable space group: C 2/C
;
_chemical_formula_sum "Si O2"
_cell_formula_units_Z 64
_cell_length_a 13.841433
_cell_length_b 11.902339
_cell_length_c 19.377188
_cell_angle_alpha 90.000000
_cell_angle_beta 60.708355
_cell_angle_gamma 90.000000
_cell_volume 2784.137247
_symmetry_space_group_name_H-M "C 2/C"
_symmetry_group_IT_number 15
_symmetry_cell_setting 'monoclinic'
loop_
_space_group_symop_operation_xyz
x,y,z
-x,y,1/2-z
-x,-y,-z
x,-y,1/2+z
1/2+x,1/2+y,z
1/2-x,1/2+y,1/2-z
1/2-x,1/2-y,-z
1/2+x,1/2-y,1/2+z
loop_
_atom_site_type_symbol
_atom_site_label
_atom_site_fract_x
_atom_site_fract_y
_atom_site_fract_z
Si Si1 0.290011 0.868007 0.954841
Si Si2 0.182966 0.415036 0.987757
Si Si3 0.116021 0.162374 0.249054
Si Si4 0.387496 0.416347 0.245152
Si Si5 0.792541 0.305795 0.392998
Si Si6 0.023825 0.656679 0.018855
Si Si7 0.199388 0.753779 0.858498
Si Si8 0.433813 0.592255 0.566941
O O1 0.250096 0.851266 0.890844
O O2 0.250737 0.972765 0.015257
O O3 0.250000 0.750000 0.000000
O O4 0.420628 0.877691 0.927799
O O5 0.131722 0.368666 0.078271
O O6 0.082026 0.413720 0.969213
O O7 0.263411 0.316025 0.935058
O O8 0.169454 0.271546 0.195386
O O9 0.123872 0.187813 0.326996
O O10 0.000000 0.155085 0.250000
O O11 0.166394 0.038428 0.218696
O O12 0.500000 0.400194 0.250000
O O13 0.301570 0.316754 0.291074
O O14 0.422441 0.426591 0.152689
O O15 0.687002 0.385272 0.422266
O O16 0.121830 0.667731 0.928275
O O17 0.989352 0.786095 0.038819
O O18 0.500000 0.500000 0.500000
#
# Coordination Sequence:
#
# PCOD9290307 Si02
#       8
#     8   8   8   8   8   8   8   8
#     4  10  23  37  64  95 133 180 224 282 350 416
#     4  10  22  41  65  95 136 174 241 280 348 407
#     4  11  24  43  69  96 140 183 236 287 362 409
#     4  11  25  43  68 102 144 187 234 299 361 427
#     4  10  23  40  67 100 133 184 230 300 334 422
#     4  10  22  41  65 100 134 186 229 290 347 423
#     4  11  23  43  65 102 137 182 234 287 363 420
#     4  11  23  42  71 103 140 183 246 291 351 421
#
# _framework density 22.987372000000001
#
# number of rings (size 3 to 8) (size 9 to 14) (size 15 to 20)
#    0.000    1.500    1.250    2.625    8.750    5.000 
#    0.000    0.000    0.000    2.250    0.000    0.000 
#    0.000    0.000    0.000    0.000    0.000    0.000 
#
# Total GULP energy -178541.164392 kJ/mol
# GULP energy per Si atom -5579.411387 kJ/mol
# Density = 2.293505 g / cm^3
# Si number density = 22.987372 Si / 1000 Ang^3
#
#
#
# Elastic Constant Matrix: (Units=GPa)
#
#
# Indices 1 2 3 4 5 6 
#
# 1 111.9156 39.0554 30.5110 0.0000 32.6925 0.0000
# 2 39.0554 120.0425 29.2403 0.0000 10.0119 0.0000
# 3 30.5110 29.2403 76.0899 0.0000 20.8473 0.0000
# 4 0.0000 0.0000 0.0000 35.9024 0.0000 0.8534
# 5 32.6925 10.0119 20.8473 0.0000 40.9085 0.0000
# 6 0.0000 0.0000 0.0000 0.8534 0.0000 39.1051
#
#
#
# Elastic Compliance Matrix: (Units=1/GPa)
#
#
# Indices 1 2 3 4 5 6 
#
# 1 0.013044 -0.003114 -0.001612 0.000000 -0.008841 0.000000
# 2 -0.003114 0.009944 -0.003008 0.000000 0.001588 0.000000
# 3 -0.001612 -0.003008 0.016725 0.000000 -0.006499 0.000000
# 4 0.000000 0.000000 0.000000 0.027868 0.000000 -0.000608
# 5 -0.008841 0.001588 -0.006499 0.000000 0.034434 0.000000
# 6 0.000000 0.000000 0.000000 -0.000608 0.000000 0.025585
#
#
# Mechanical properties :
#
#
# Convention : Reuss Voigt Hill
#
# Bulk Modulus (GPa) = 41.24297 56.18459 48.71378
# Shear Modulus (GPa) = 33.08031 37.13264 35.10647
#
# Velocity S-wave (km/s) = 3.79762 4.02350 3.91219
# Velocity P-wave (km/s) = 6.09998 6.78817 6.45326
#
# Compressibility (1/GPa) = 0.02424655
#
# Stress axis : x y z
#
# Youngs Moduli (GPa) = 76.66440 100.56669 59.79074
#
# Poissons Ratio (x) = 0.31315 0.09636
# Poissons Ratio (y) = 0.23872 0.17982
# Poissons Ratio (z) = 0.12355 0.30246
#
# Static dielectric constant tensor:
#      x y z
#    x 1.954100 0.000000 0.020170 
#    y 0.000000 1.954430 0.000000 
#    z 0.020170 0.000000 1.922640 
# 
# From -- ./inp_files/243697.got.cif
#   From: 2010.05.17/outbox.cif.g08.bks.cpg/sg15_122_cif.got.tgz:243697.got - 2010.06.03 18:47:42.
