data_PCOD9290114
_publ_section_title
;
Structure prediction by ZEFSAII (Michael W. Deem and Ramdas Pophale) SiO2 
 PCOD9290114
Probable space group: C 2/C
;
_chemical_formula_sum "Si O2"
_cell_formula_units_Z 40
_cell_length_a 14.080783
_cell_length_b 5.297960
_cell_length_c 25.310474
_cell_angle_alpha 90.000000
_cell_angle_beta 93.697996
_cell_angle_gamma 90.000000
_cell_volume 1884.215451
_symmetry_space_group_name_H-M "C 2/C"
_symmetry_group_IT_number 15
_symmetry_cell_setting 'monoclinic'
loop_
_space_group_symop_operation_xyz
x,y,z
-x,y,1/2-z
-x,-y,-z
x,-y,1/2+z
1/2+x,1/2+y,z
1/2-x,1/2+y,1/2-z
1/2-x,1/2-y,-z
1/2+x,1/2-y,1/2+z
loop_
_atom_site_type_symbol
_atom_site_label
_atom_site_fract_x
_atom_site_fract_y
_atom_site_fract_z
Si Si1 0.867882 0.505132 0.194990
Si Si2 0.687969 0.639429 0.131626
Si Si3 0.612134 0.502637 0.242964
Si Si4 0.030029 0.016862 0.561275
Si Si5 0.472001 0.976938 0.377472
O O1 0.797085 0.577684 0.144586
O O2 0.847491 0.239737 0.222291
O O3 0.975089 0.502787 0.176219
O O4 0.863298 0.027182 0.317693
O O5 0.642720 0.520138 0.077402
O O6 0.641758 0.921497 0.130403
O O7 0.853737 0.735228 0.234275
O O8 0.500000 0.512617 0.250000
O O9 0.005120 0.281997 0.586599
O O10 0.989759 0.779013 0.593158
O O11 0.000000 0.000000 0.500000
#
# Coordination Sequence:
#
# PCOD9290114 Si02
#       5
#     8   8   8   8   8
#     4  12  24  39  62  92 130 164 207 253 312 387
#     4  10  25  38  64  92 125 164 215 254 313 382
#     4  12  23  39  61  92 130 169 202 253 312 379
#     4  10  22  43  67  86 122 162 209 268 321 366
#     4  10  22  41  62  88 124 159 206 254 321 364
#
# _framework density 21.228997
#
# number of rings (size 3 to 8) (size 9 to 14) (size 15 to 20)
#    1.200    0.000    2.000    4.800    5.600    0.000 
#    0.000    2.000    0.000    0.000    0.000    0.000 
#    0.000    0.000    0.000    0.000    0.000    0.000 
#
# Total GULP energy -111564.295188 kJ/mol
# GULP energy per Si atom -5578.214759 kJ/mol
# Density = 2.118068 g / cm^3
# Si number density = 21.228997 Si / 1000 Ang^3
#
#
#
# Elastic Constant Matrix: (Units=GPa)
#
#
# Indices 1 2 3 4 5 6 
#
# 1 60.5228 6.6056 -8.9555 0.0000 16.6310 0.0000
# 2 6.6056 153.8233 37.5792 0.0000 1.9625 0.0000
# 3 -8.9555 37.5792 84.6662 0.0000 26.3426 0.0000
# 4 0.0000 0.0000 0.0000 26.8373 0.0000 2.1957
# 5 16.6310 1.9625 26.3426 0.0000 29.0573 0.0000
# 6 0.0000 0.0000 0.0000 2.1957 0.0000 6.6724
#
#
#
# Elastic Compliance Matrix: (Units=1/GPa)
#
#
# Indices 1 2 3 4 5 6 
#
# 1 0.025911 -0.003837 0.012504 0.000000 -0.025907 0.000000
# 2 -0.003837 0.008109 -0.006293 0.000000 0.007354 0.000000
# 3 0.012504 -0.006293 0.025102 0.000000 -0.029489 0.000000
# 4 0.000000 0.000000 0.000000 0.038293 0.000000 -0.012601
# 5 -0.025907 0.007354 -0.029489 0.000000 0.075480 0.000000
# 6 0.000000 0.000000 0.000000 -0.012601 0.000000 0.154018
#
#
# Mechanical properties :
#
#
# Convention : Reuss Voigt Hill
#
# Bulk Modulus (GPa) = 15.65670 41.05231 28.35450
# Shear Modulus (GPa) = 14.55796 30.09891 22.32844
#
# Velocity S-wave (km/s) = 2.62154 3.76948 3.24665
# Velocity P-wave (km/s) = 4.06872 6.19073 5.23830
#
# Compressibility (1/GPa) = 0.06387043
#
# Stress axis : x y z
#
# Youngs Moduli (GPa) = 38.59402 123.31442 39.83755
#
# Poissons Ratio (x) = 0.47315 -0.49814
# Poissons Ratio (y) = 0.14808 0.25071
# Poissons Ratio (z) = -0.48259 0.77604
#
# Static dielectric constant tensor:
#      x y z
#    x 1.822300 0.000000 0.050790 
#    y 0.000000 1.807290 0.000000 
#    z 0.050790 0.000000 1.730920 
# 
# From -- ./inp_files/294092.got.cif
#   From: 2010.05.17/outbox.cif.g08.bks.cpg/sg15_148_cif.got.tgz:294092.got - 2010.06.03 18:47:42.
