data_PCOD9290956
_publ_section_title
;
Structure prediction by ZEFSAII (Michael W. Deem and Ramdas Pophale) SiO2 
 PCOD9290956
Probable space group: C 2/C
;
_chemical_formula_sum "Si O2"
_cell_formula_units_Z 52
_cell_length_a 9.263072
_cell_length_b 10.723093
_cell_length_c 27.713904
_cell_angle_alpha 90.000000
_cell_angle_beta 121.933778
_cell_angle_gamma 90.000000
_cell_volume 2336.181372
_symmetry_space_group_name_H-M "C 2/C"
_symmetry_group_IT_number 15
_symmetry_cell_setting 'monoclinic'
loop_
_space_group_symop_operation_xyz
x,y,z
-x,y,1/2-z
-x,-y,-z
x,-y,1/2+z
1/2+x,1/2+y,z
1/2-x,1/2+y,1/2-z
1/2-x,1/2-y,-z
1/2+x,1/2-y,1/2+z
loop_
_atom_site_type_symbol
_atom_site_label
_atom_site_fract_x
_atom_site_fract_y
_atom_site_fract_z
Si Si1 0.000000 0.449080 0.250000
Si Si2 0.697874 0.345503 0.275600
Si Si3 0.168146 0.220693 0.297919
Si Si4 0.464867 0.394536 0.534078
Si Si5 0.062509 0.393730 0.474872
Si Si6 0.066397 0.458573 0.639171
Si Si7 0.736393 0.117178 0.345739
O O1 0.928361 0.343314 0.198786
O O2 0.844070 0.542895 0.213377
O O3 0.500000 0.366906 0.250000
O O4 0.729252 0.277527 0.229817
O O5 0.813598 0.467428 0.301925
O O6 0.755277 0.254497 0.328592
O O7 0.000000 0.146456 0.250000
O O8 0.299916 0.147910 0.354313
O O9 0.500000 0.500000 0.500000
O O10 0.266824 0.394192 0.511979
O O11 0.501573 0.248334 0.526857
O O12 0.586675 0.426342 0.600743
O O13 0.000000 0.500000 0.500000
O O14 0.001201 0.447507 0.412618
O O15 0.907693 0.396876 0.638545
#
# Coordination Sequence:
#
# PCOD9290956 Si02
#       7
#     4   8   8   8   8   8   8
#     4  10  22  42  62 102 142 178 222 278 352 414
#     4  12  23  40  69  98 136 184 228 272 350 423
#     4  10  23  40  63 102 143 179 221 284 342 412
#     4  11  25  48  74 100 138 186 236 298 358 410
#     4  11  27  48  71 105 139 183 244 300 357 417
#     4  12  22  44  67  98 142 181 233 289 345 422
#     4  12  22  42  70  98 133 184 230 281 349 424
#
# _framework density 22.258545000000002
#
# number of rings (size 3 to 8) (size 9 to 14) (size 15 to 20)
#    0.462    0.308    6.923    0.462    0.000    3.077 
#    5.538    0.000    0.000    0.000    0.000    0.000 
#    0.000    0.000    0.000    0.000    0.000    0.000 
#
# Total GULP energy -144813.617587 kJ/mol
# GULP energy per Si atom -5569.754523 kJ/mol
# Density = 2.220788 g / cm^3
# Si number density = 22.258545 Si / 1000 Ang^3
#
#
#
# Elastic Constant Matrix: (Units=GPa)
#
#
# Indices 1 2 3 4 5 6 
#
# 1 92.7357 33.9056 36.5161 0.0000 16.7831 0.0000
# 2 33.9056 102.2528 30.9782 0.0000 0.0001 0.0000
# 3 36.5161 30.9782 121.5889 0.0000 28.3193 0.0000
# 4 0.0000 0.0000 0.0000 -176.5202 0.0000 -100.3061
# 5 16.7831 0.0001 28.3193 0.0000 41.8258 0.0000
# 6 0.0000 0.0000 0.0000 -100.3061 0.0000 -8.7225
#
#
#
# Elastic Compliance Matrix: (Units=1/GPa)
#
#
# Indices 1 2 3 4 5 6 
#
# 1 0.013816 -0.003912 -0.002210 0.000000 -0.004048 0.000000
# 2 -0.003912 0.011874 -0.002631 0.000000 0.003351 0.000000
# 3 -0.002210 -0.002631 0.011103 0.000000 -0.006631 0.000000
# 4 0.000000 0.000000 0.000000 0.001024 0.000000 -0.011771
# 5 -0.004048 0.003351 -0.006631 0.000000 0.030022 0.000000
# 6 0.000000 0.000000 0.000000 -0.011771 0.000000 0.020714
#
#
# Mechanical properties :
#
#
# Convention : Reuss Voigt Hill
#
# Bulk Modulus (GPa) = 51.84667 57.70860 54.77764
# Shear Modulus (GPa) = 44.44936 -14.33823 15.05557
#
# Velocity S-wave (km/s) = 4.47358 -2.54080 2.60358
# Velocity P-wave (km/s) = 7.07300 4.16836 5.80528
#
# Compressibility (1/GPa) = 0.01928764
#
# Stress axis : x y z
#
# Youngs Moduli (GPa) = 72.37837 84.21910 90.06757
#
# Poissons Ratio (x) = 0.32944 0.19905
# Poissons Ratio (y) = 0.28313 0.23695
# Poissons Ratio (z) = 0.15996 0.22157
#
# Static dielectric constant tensor:
#      x y z
#    x 2.240290 0.000000 -0.284720 
#    y 0.000000 1.887620 0.000000 
#    z -0.284720 0.000000 2.013100 
# 
# From -- ./inp_files/288132.got.cif
#   From: 2010.05.17/outbox.cif.g08.bks.cpg/sg15_145_cif.got.tgz:288132.got - 2010.06.03 18:47:42.
