data_PCOD9290362
_publ_section_title
;
Structure prediction by ZEFSAII (Michael W. Deem and Ramdas Pophale) SiO2 
 PCOD9290362
Probable space group: C 2/C
;
_chemical_formula_sum "Si O2"
_cell_formula_units_Z 52
_cell_length_a 7.989191
_cell_length_b 27.086211
_cell_length_c 13.151053
_cell_angle_alpha 90.000000
_cell_angle_beta 120.469643
_cell_angle_gamma 90.000000
_cell_volume 2452.829927
_symmetry_space_group_name_H-M "C 2/C"
_symmetry_group_IT_number 15
_symmetry_cell_setting 'monoclinic'
loop_
_space_group_symop_operation_xyz
x,y,z
-x,y,1/2-z
-x,-y,-z
x,-y,1/2+z
1/2+x,1/2+y,z
1/2-x,1/2+y,1/2-z
1/2-x,1/2-y,-z
1/2+x,1/2-y,1/2+z
loop_
_atom_site_type_symbol
_atom_site_label
_atom_site_fract_x
_atom_site_fract_y
_atom_site_fract_z
Si Si1 0.621281 0.875970 0.464440
Si Si2 0.388073 0.492993 0.317356
Si Si3 0.000000 0.548289 0.750000
Si Si4 0.165975 0.730903 0.368512
Si Si5 0.435975 0.121521 0.120348
Si Si6 0.484819 0.585404 0.472204
Si Si7 0.541516 0.765274 0.383905
O O1 0.556059 0.915492 0.359922
O O2 0.559008 0.892359 0.558826
O O3 0.525541 0.822757 0.413557
O O4 0.853402 0.876119 0.516150
O O5 0.500000 0.480426 0.250000
O O6 0.158801 0.486711 0.247301
O O7 0.442195 0.547995 0.367119
O O8 0.443805 0.452183 0.418736
O O9 0.250000 0.750000 0.500000
O O10 0.057987 0.680596 0.366145
O O11 0.365538 0.730343 0.366991
O O12 0.000000 0.758762 0.250000
O O13 0.500000 0.101130 0.250000
O O14 0.209277 0.108998 0.043274
O O15 0.500000 0.765446 0.250000
O O16 0.750000 0.750000 0.500000
#
# Coordination Sequence:
#
# PCOD9290362 Si02
#       7
#     8   8   4   8   8   8   8
#     4  11  23  44  65  96 132 173 225 279 337 405
#     4  10  22  41  65  93 129 166 217 276 342 407
#     4  10  22  42  68  94 128 168 226 280 340 414
#     4  11  23  44  64  96 134 175 226 276 331 405
#     4  11  25  41  64  94 133 174 222 272 338 399
#     4  10  24  41  63  97 127 169 221 275 338 408
#     4  12  25  43  71 100 137 185 230 286 344 405
#
# _framework density 21.200002000000001
#
# number of rings (size 3 to 8) (size 9 to 14) (size 15 to 20)
#    0.000    1.231    2.308    2.769    5.385    0.000 
#    0.000    4.615    0.000    0.000    0.000    0.000 
#    0.000    0.000    0.000    0.000    0.000    0.000 
#
# Total GULP energy -144856.905716 kJ/mol
# GULP energy per Si atom -5571.419451 kJ/mol
# Density = 2.115175 g / cm^3
# Si number density = 21.200002 Si / 1000 Ang^3
#
#
#
# Elastic Constant Matrix: (Units=GPa)
#
#
# Indices 1 2 3 4 5 6 
#
# 1 133.1112 2.1331 45.0836 0.0000 -18.0370 0.0000
# 2 2.1331 25.6156 20.9521 0.0000 -11.6898 0.0000
# 3 45.0836 20.9521 118.9831 0.0000 -14.7438 0.0000
# 4 0.0000 0.0000 0.0000 110.4968 0.0000 -14.0001
# 5 -18.0370 -11.6898 -14.7438 0.0000 44.0955 0.0000
# 6 0.0000 0.0000 0.0000 -14.0001 0.0000 29.0329
#
#
#
# Elastic Compliance Matrix: (Units=1/GPa)
#
#
# Indices 1 2 3 4 5 6 
#
# 1 0.009195 0.003907 -0.003732 0.000000 0.003549 0.000000
# 2 0.003907 0.051736 -0.009069 0.000000 0.012281 0.000000
# 3 -0.003732 -0.009069 0.011401 0.000000 -0.000119 0.000000
# 4 0.000000 0.000000 0.000000 0.009639 0.000000 0.004648
# 5 0.003549 0.012281 -0.000119 0.000000 0.027346 0.000000
# 6 0.000000 0.000000 0.000000 0.004648 0.000000 0.036685
#
#
# Mechanical properties :
#
#
# Convention : Reuss Voigt Hill
#
# Bulk Modulus (GPa) = 18.33427 46.00527 32.16977
# Shear Modulus (GPa) = 27.47696 50.69443 39.08569
#
# Velocity S-wave (km/s) = 3.60402 4.89534 4.29845
# Velocity P-wave (km/s) = 5.09761 7.32804 6.31212
#
# Compressibility (1/GPa) = 0.05454268
#
# Stress axis : x y z
#
# Youngs Moduli (GPa) = 108.75665 19.32905 87.71217
#
# Poissons Ratio (x) = -0.07551 0.32736
# Poissons Ratio (y) = -0.42486 0.79544
# Poissons Ratio (z) = 0.40590 0.17529
#
# Static dielectric constant tensor:
#      x y z
#    x 1.736330 0.000000 0.136330 
#    y 0.000000 1.768150 0.000000 
#    z 0.136330 0.000000 1.819040 
# 
# From -- ./inp_files/81481.got.cif
#   From: 2010.05.17/outbox.cif.g08.bks.cpg/sg15_41_cif.got.tgz:81481.got - 2010.06.03 18:47:42.
