data_PCOD9290753
_publ_section_title
;
Structure prediction by ZEFSAII (Michael W. Deem and Ramdas Pophale) SiO2 
 PCOD9290753
Probable space group: C 2/C
;
_chemical_formula_sum "Si O2"
_cell_formula_units_Z 56
_cell_length_a 7.912309
_cell_length_b 24.813363
_cell_length_c 20.897598
_cell_angle_alpha 90.000000
_cell_angle_beta 145.317212
_cell_angle_gamma 90.000000
_cell_volume 2334.652925
_symmetry_space_group_name_H-M "C 2/C"
_symmetry_group_IT_number 15
_symmetry_cell_setting 'monoclinic'
loop_
_space_group_symop_operation_xyz
x,y,z
-x,y,1/2-z
-x,-y,-z
x,-y,1/2+z
1/2+x,1/2+y,z
1/2-x,1/2+y,1/2-z
1/2-x,1/2-y,-z
1/2+x,1/2-y,1/2+z
loop_
_atom_site_type_symbol
_atom_site_label
_atom_site_fract_x
_atom_site_fract_y
_atom_site_fract_z
Si Si1 0.007007 0.264912 0.327731
Si Si2 0.565532 0.680586 0.448473
Si Si3 0.426490 0.031820 0.575236
Si Si4 0.058513 0.384289 0.018126
Si Si5 0.791932 0.423222 0.815908
Si Si6 0.730880 0.119860 0.762211
Si Si7 0.189694 0.076217 0.143221
O O1 0.817808 0.319170 0.277071
O O2 0.000000 0.251102 0.250000
O O3 0.323995 0.284216 0.456857
O O4 0.918645 0.217832 0.348823
O O5 0.350855 0.632654 0.405876
O O6 0.859447 0.652804 0.505040
O O7 0.514673 0.055402 0.533104
O O8 0.613663 0.072174 0.679446
O O9 0.074904 0.041129 0.463850
O O10 0.471299 0.970631 0.609084
O O11 0.412911 0.381118 0.119357
O O12 0.902694 0.379728 0.900676
O O13 0.500000 0.453513 0.750000
O O14 0.677303 0.402643 0.712690
O O15 0.500000 0.116044 0.750000
O O16 0.500000 0.046553 0.250000
#
# Coordination Sequence:
#
# PCOD9290753 Si02
#       7
#     8   8   8   8   8   8   8
#     4  10  22  41  69  97 136 172 228 276 344 398
#     4  10  22  45  67  97 138 175 224 287 332 406
#     4  11  24  43  66  94 134 176 226 272 330 402
#     4  11  23  42  70  96 131 176 224 276 336 395
#     4  12  24  41  70  97 128 177 230 274 333 404
#     4  11  24  43  65  98 136 171 221 279 329 402
#     4  11  26  44  64  96 137 175 217 277 342 394
#
# _framework density 23.986435
#
# number of rings (size 3 to 8) (size 9 to 14) (size 15 to 20)
#    0.000    1.143    5.714    1.714    6.000    1.143 
#    5.143    2.857    0.000    0.000    0.000    0.000 
#    0.000    0.000    0.000    0.000    0.000    0.000 
#
# Total GULP energy -155940.183716 kJ/mol
# GULP energy per Si atom -5569.292276 kJ/mol
# Density = 2.393184 g / cm^3
# Si number density = 23.986435 Si / 1000 Ang^3
#
#
#
# Elastic Constant Matrix: (Units=GPa)
#
#
# Indices 1 2 3 4 5 6 
#
# 1 58.1328 -15.6759 30.8374 -0.0003 5.2431 -0.0002
# 2 -15.6759 38.2400 0.8288 0.0005 -0.0780 0.0001
# 3 30.8374 0.8288 123.4902 0.0001 2.4192 -0.0004
# 4 -0.0003 0.0005 0.0001 28.8259 -0.0001 -10.0882
# 5 5.2431 -0.0780 2.4192 -0.0001 52.6200 -0.0001
# 6 -0.0002 0.0001 -0.0004 -10.0882 -0.0001 10.7399
#
#
#
# Elastic Compliance Matrix: (Units=1/GPa)
#
#
# Indices 1 2 3 4 5 6 
#
# 1 0.023025 0.009560 -0.005774 0.000000 -0.002015 0.000000
# 2 0.009560 0.030124 -0.002574 -0.000001 -0.000790 -0.000001
# 3 -0.005774 -0.002574 0.009554 0.000000 0.000132 0.000000
# 4 0.000000 -0.000001 0.000000 0.051680 0.000000 0.048544
# 5 -0.002015 -0.000790 0.000132 0.000000 0.019198 0.000000
# 6 0.000000 -0.000001 0.000000 0.048544 0.000000 0.138710
#
#
# Mechanical properties :
#
#
# Convention : Reuss Voigt Hill
#
# Bulk Modulus (GPa) = 15.35498 27.98263 21.66880
# Shear Modulus (GPa) = 17.14822 32.02866 24.58844
#
# Velocity S-wave (km/s) = 2.67669 3.65812 3.20519
# Velocity P-wave (km/s) = 3.99603 5.43450 4.76980
#
# Compressibility (1/GPa) = 0.06512545
#
# Stress axis : x y z
#
# Youngs Moduli (GPa) = 43.43191 33.19655 104.66364
#
# Poissons Ratio (x) = -0.31735 0.60436
# Poissons Ratio (y) = -0.41519 0.26939
# Poissons Ratio (z) = 0.25079 0.08544
#
# Static dielectric constant tensor:
#      x y z
#    x 2.231550 0.000000 -0.012540 
#    y 0.000000 1.897110 0.000000 
#    z -0.012540 0.000000 1.916710 
# 
# From -- ./inp_files/234987.got.cif
#   From: 2010.05.17/outbox.cif.g08.bks.cpg/sg15_118_cif.got.tgz:234987.got - 2010.06.03 18:47:42.
