data_PCOD9290110
_publ_section_title
;
Structure prediction by ZEFSAII (Michael W. Deem and Ramdas Pophale) SiO2 
 PCOD9290110
Probable space group: C 2/C
;
_chemical_formula_sum "Si O2"
_cell_formula_units_Z 40
_cell_length_a 11.897330
_cell_length_b 19.597419
_cell_length_c 9.256570
_cell_angle_alpha 90.000000
_cell_angle_beta 133.141263
_cell_angle_gamma 90.000000
_cell_volume 1574.798429
_symmetry_space_group_name_H-M "C 2/C"
_symmetry_group_IT_number 15
_symmetry_cell_setting 'monoclinic'
loop_
_space_group_symop_operation_xyz
x,y,z
-x,y,1/2-z
-x,-y,-z
x,-y,1/2+z
1/2+x,1/2+y,z
1/2-x,1/2+y,1/2-z
1/2-x,1/2-y,-z
1/2+x,1/2-y,1/2+z
loop_
_atom_site_type_symbol
_atom_site_label
_atom_site_fract_x
_atom_site_fract_y
_atom_site_fract_z
Si Si1 0.211391 0.164210 0.857641
Si Si2 0.146237 0.935108 0.061226
Si Si3 0.067641 0.230268 0.008564
Si Si4 0.398973 0.954232 0.802576
Si Si5 0.679647 0.375102 0.798922
O O1 0.181365 0.093148 0.752728
O O2 0.379544 0.194765 0.986191
O O3 0.110162 0.218000 0.675951
O O4 0.148502 0.177754 0.962522
O O5 0.247716 0.001954 0.122783
O O6 0.209306 0.116038 0.493600
O O7 0.961923 0.928158 0.870287
O O8 0.115818 0.198775 0.201956
O O9 0.500000 0.937668 0.750000
O O10 0.328402 0.894571 0.837884
O O11 0.500000 0.000000 0.000000
#
# Coordination Sequence:
#
# PCOD9290110 Si02
#       5
#     8   8   8   8   8
#     4   9  19  36  58  85 117 154 196 244 289 351
#     4  10  22  41  62  85 121 159 201 241 296 362
#     4   9  19  36  57  87 116 153 200 239 293 349
#     4  12  25  42  59  90 124 154 199 253 303 352
#     4  10  22  41  62  86 118 162 200 240 298 362
#
# _framework density 25.400078000000001
#
# number of rings (size 3 to 8) (size 9 to 14) (size 15 to 20)
#    0.000    2.000    2.000    0.600    2.800    2.400 
#    3.600    0.000    0.000    0.000    0.000    0.000 
#    0.000    0.000    0.000    0.000    0.000    0.000 
#
# Total GULP energy -111735.469917 kJ/mol
# GULP energy per Si atom -5586.773496 kJ/mol
# Density = 2.534227 g / cm^3
# Si number density = 25.400078 Si / 1000 Ang^3
#
#
#
# Elastic Constant Matrix: (Units=GPa)
#
#
# Indices 1 2 3 4 5 6 
#
# 1 155.4580 28.2278 11.7222 0.0000 -7.6638 0.0000
# 2 28.2278 23.3899 16.4484 0.0000 2.9769 0.0000
# 3 11.7222 16.4484 59.7802 0.0000 -20.0584 0.0000
# 4 0.0000 0.0000 0.0000 22.4717 0.0000 8.8892
# 5 -7.6638 2.9769 -20.0584 0.0000 41.0378 0.0000
# 6 0.0000 0.0000 0.0000 8.8892 0.0000 29.5220
#
#
#
# Elastic Compliance Matrix: (Units=1/GPa)
#
#
# Indices 1 2 3 4 5 6 
#
# 1 0.008877 -0.013732 0.003503 0.000000 0.004366 0.000000
# 2 -0.013732 0.080907 -0.026793 0.000000 -0.021529 0.000000
# 3 0.003503 -0.026793 0.029049 0.000000 0.016796 0.000000
# 4 0.000000 0.000000 0.000000 0.050517 0.000000 -0.015211
# 5 0.004366 -0.021529 0.016796 0.000000 0.034954 0.000000
# 6 0.000000 0.000000 0.000000 -0.015211 0.000000 0.038453
#
#
# Mechanical properties :
#
#
# Convention : Reuss Voigt Hill
#
# Bulk Modulus (GPa) = 22.32692 39.04722 30.68707
# Shear Modulus (GPa) = 15.07239 30.75494 22.91367
#
# Velocity S-wave (km/s) = 2.43862 3.48346 3.00677
# Velocity P-wave (km/s) = 4.09125 5.62010 4.91548
#
# Compressibility (1/GPa) = 0.04478898
#
# Stress axis : x y z
#
# Youngs Moduli (GPa) = 112.64841 12.35981 34.42484
#
# Poissons Ratio (x) = 0.16973 -0.12058
# Poissons Ratio (y) = 1.54690 0.92233
# Poissons Ratio (z) = -0.39456 0.33115
#
# Static dielectric constant tensor:
#      x y z
#    x 1.977600 0.000000 0.036130 
#    y 0.000000 1.991390 0.000000 
#    z 0.036130 0.000000 2.026080 
# 
# From -- ./inp_files/31758.got.cif
#   From: 2010.05.17/outbox.cif.g08.bks.cpg/sg15_16_cif.got.tgz:31758.got - 2010.06.03 18:47:42.
