data_PCOD9290413
_publ_section_title
;
Structure prediction by ZEFSAII (Michael W. Deem and Ramdas Pophale) SiO2 
 PCOD9290413
Probable space group: C 2/C
;
_chemical_formula_sum "Si O2"
_cell_formula_units_Z 28
_cell_length_a 9.812412
_cell_length_b 18.512596
_cell_length_c 7.206436
_cell_angle_alpha 90.000000
_cell_angle_beta 87.204551
_cell_angle_gamma 90.000000
_cell_volume 1307.514521
_symmetry_space_group_name_H-M "C 2/C"
_symmetry_group_IT_number 15
_symmetry_cell_setting 'monoclinic'
loop_
_space_group_symop_operation_xyz
x,y,z
-x,y,1/2-z
-x,-y,-z
x,-y,1/2+z
1/2+x,1/2+y,z
1/2-x,1/2+y,1/2-z
1/2-x,1/2-y,-z
1/2+x,1/2-y,1/2+z
loop_
_atom_site_type_symbol
_atom_site_label
_atom_site_fract_x
_atom_site_fract_y
_atom_site_fract_z
Si Si1 0.500000 0.396542 0.750000
Si Si2 0.362274 0.899745 0.166065
Si Si3 0.207247 0.168217 0.974199
Si Si4 0.706342 0.062850 0.230475
O O1 0.438725 0.348815 0.922216
O O2 0.629332 0.442242 0.811268
O O3 0.500000 0.870236 0.250000
O O4 0.235236 0.856848 0.263471
O O5 0.347982 0.983815 0.224422
O O6 0.359268 0.901155 0.944867
O O7 0.302869 0.114977 0.092030
O O8 0.250000 0.250000 0.000000
#
# Coordination Sequence:
#
# PCOD9290413 Si02
#       4
#     4   8   8   8
#     4   8  22  44  62  92 128 164 228 250 340 368
#     4  12  24  39  68  99 132 172 220 262 326 382
#     4  10  24  43  65  97 131 169 214 272 327 383
#     4  10  22  41  65  97 128 171 215 269 318 377
#
# _framework density 21.414677000000001
#
# number of rings (size 3 to 8) (size 9 to 14) (size 15 to 20)
#    1.714    0.000    2.857    0.857    2.000    6.857 
#    0.000    2.857    0.000    0.000    0.000    0.000 
#    0.000    0.000    0.000    0.000    0.000    0.000 
#
# Total GULP energy -78076.918554 kJ/mol
# GULP energy per Si atom -5576.922754 kJ/mol
# Density = 2.136594 g / cm^3
# Si number density = 21.414677 Si / 1000 Ang^3
#
#
#
# Elastic Constant Matrix: (Units=GPa)
#
#
# Indices 1 2 3 4 5 6 
#
# 1 90.8340 -18.2925 -20.1631 0.0000 -2.9712 0.0000
# 2 -18.2925 68.6079 -12.8789 0.0000 -13.8159 0.0000
# 3 -20.1631 -12.8789 54.4427 0.0000 -0.2832 0.0000
# 4 0.0000 0.0000 0.0000 10.0538 0.0000 -2.0393
# 5 -2.9712 -13.8159 -0.2832 0.0000 35.3197 0.0000
# 6 0.0000 0.0000 0.0000 -2.0393 0.0000 11.5668
#
#
#
# Elastic Compliance Matrix: (Units=1/GPa)
#
#
# Indices 1 2 3 4 5 6 
#
# 1 0.013643 0.005509 0.006374 0.000000 0.003354 0.000000
# 2 0.005509 0.018863 0.006544 0.000000 0.007894 0.000000
# 3 0.006374 0.006544 0.022293 0.000000 0.003275 0.000000
# 4 0.000000 0.000000 0.000000 0.103153 0.000000 0.018187
# 5 0.003354 0.007894 0.003275 0.000000 0.031709 0.000000
# 6 0.000000 0.000000 0.000000 0.018187 0.000000 0.089661
#
#
# Mechanical properties :
#
#
# Convention : Reuss Voigt Hill
#
# Bulk Modulus (GPa) = 10.91084 12.35729 11.63407
# Shear Modulus (GPa) = 18.31365 29.06935 23.69150
#
# Velocity S-wave (km/s) = 2.92754 3.68836 3.32975
# Velocity P-wave (km/s) = 4.06613 4.89097 4.49750
#
# Compressibility (1/GPa) = 0.09165194
#
# Stress axis : x y z
#
# Youngs Moduli (GPa) = 73.29730 53.01506 44.85639
#
# Poissons Ratio (x) = -0.29208 -0.28589
# Poissons Ratio (y) = -0.40382 -0.29352
# Poissons Ratio (z) = -0.46716 -0.34691
#
# Static dielectric constant tensor:
#      x y z
#    x 1.844180 0.000000 -0.027640 
#    y 0.000000 1.701850 0.000000 
#    z -0.027640 0.000000 1.775320 
# 
# From -- ./inp_files/21672.got.cif
#   From: 2010.05.17/outbox.cif.g08.bks.cpg/sg15_11_cif.got.tgz:21672.got - 2010.06.03 18:47:42.
