data_PCOD9290667
_publ_section_title
;
Structure prediction by ZEFSAII (Michael W. Deem and Ramdas Pophale) SiO2 
 PCOD9290667
Probable space group: C 2/C
;
_chemical_formula_sum "Si O2"
_cell_formula_units_Z 52
_cell_length_a 28.588911
_cell_length_b 14.974194
_cell_length_c 9.404352
_cell_angle_alpha 90.000000
_cell_angle_beta 34.579104
_cell_angle_gamma 90.000000
_cell_volume 2284.910025
_symmetry_space_group_name_H-M "C 2/C"
_symmetry_group_IT_number 15
_symmetry_cell_setting 'monoclinic'
loop_
_space_group_symop_operation_xyz
x,y,z
-x,y,1/2-z
-x,-y,-z
x,-y,1/2+z
1/2+x,1/2+y,z
1/2-x,1/2+y,1/2-z
1/2-x,1/2-y,-z
1/2+x,1/2-y,1/2+z
loop_
_atom_site_type_symbol
_atom_site_label
_atom_site_fract_x
_atom_site_fract_y
_atom_site_fract_z
Si Si1 0.559512 0.654257 0.319925
Si Si2 0.469147 0.923529 0.179290
Si Si3 0.189141 0.003800 0.063705
Si Si4 0.298333 0.024998 0.028039
Si Si5 0.000000 0.257488 0.750000
Si Si6 0.379652 0.670354 0.638210
Si Si7 0.612543 0.167944 0.198094
O O1 0.610522 0.565474 0.233333
O O2 0.542121 0.703219 0.514383
O O3 0.468714 0.642564 0.480901
O O4 0.610176 0.692831 0.054920
O O5 0.500000 0.958933 0.250000
O O6 0.373142 0.913649 0.396494
O O7 0.527845 0.840760 0.002623
O O8 0.500000 0.000000 0.000000
O O9 0.171486 0.919196 0.207731
O O10 0.225864 0.971373 0.823485
O O11 0.262816 0.053097 0.964577
O O12 0.337077 0.924178 0.924826
O O13 0.074496 0.311874 0.638580
O O14 0.345801 0.749694 0.824369
#
# Coordination Sequence:
#
# PCOD9290667 Si02
#       7
#     8   8   8   8   4   8   8
#     4  10  23  44  69  98 124 176 226 271 325 397
#     4  10  22  41  68  95 129 177 224 262 315 391
#     4  12  24  44  65  98 133 176 219 270 335 398
#     4  11  25  41  66 101 138 173 217 268 336 398
#     4  10  24  40  72  96 130 164 234 276 324 380
#     4  10  23  45  69  95 129 175 227 273 328 390
#     4  10  24  42  68  99 131 177 222 273 327 390
#
# _framework density 22.758008
#
# number of rings (size 3 to 8) (size 9 to 14) (size 15 to 20)
#    0.000    1.538    1.538    2.308   15.077    1.846 
#    0.000    0.769    0.000    0.000    0.000    0.000 
#    0.000    0.000    0.000    0.000    0.000    0.000 
#
# Total GULP energy -145051.266906 kJ/mol
# GULP energy per Si atom -5578.894881 kJ/mol
# Density = 2.270621 g / cm^3
# Si number density = 22.758008 Si / 1000 Ang^3
#
#
#
# Elastic Constant Matrix: (Units=GPa)
#
#
# Indices 1 2 3 4 5 6 
#
# 1 106.1318 28.6439 21.6350 0.0000 19.6404 0.0000
# 2 28.6439 50.5178 21.7457 0.0000 -4.9846 0.0000
# 3 21.6350 21.7457 66.3055 0.0000 15.0509 0.0000
# 4 0.0000 0.0000 0.0000 35.8670 0.0000 14.3421
# 5 19.6404 -4.9846 15.0509 0.0000 46.7477 0.0000
# 6 0.0000 0.0000 0.0000 14.3421 0.0000 75.7057
#
#
#
# Elastic Compliance Matrix: (Units=1/GPa)
#
#
# Indices 1 2 3 4 5 6 
#
# 1 0.012665 -0.007676 -0.000239 0.000000 -0.006063 0.000000
# 2 -0.007676 0.028975 -0.009096 0.000000 0.009243 0.000000
# 3 -0.000239 -0.009096 0.019786 0.000000 -0.007240 0.000000
# 4 0.000000 0.000000 0.000000 0.030166 0.000000 -0.005715
# 5 -0.006063 0.009243 -0.007240 0.000000 0.027255 0.000000
# 6 0.000000 0.000000 0.000000 -0.005715 0.000000 0.014292
#
#
# Mechanical properties :
#
#
# Convention : Reuss Voigt Hill
#
# Bulk Modulus (GPa) = 36.49164 40.77826 38.63495
# Shear Modulus (GPa) = 28.36147 41.72611 35.04379
#
# Velocity S-wave (km/s) = 3.53401 4.28655 3.92834
# Velocity P-wave (km/s) = 5.72030 6.51586 6.13100
#
# Compressibility (1/GPa) = 0.02740354
#
# Stress axis : x y z
#
# Youngs Moduli (GPa) = 78.96040 34.51237 50.54025
#
# Poissons Ratio (x) = 0.26493 0.01206
# Poissons Ratio (y) = 0.60613 0.45972
# Poissons Ratio (z) = 0.01884 0.31393
#
# Static dielectric constant tensor:
#      x y z
#    x 0.195110 0.000000 0.336470 
#    y 0.000000 1.872490 0.000000 
#    z 0.336470 0.000000 1.812420 
# 
# From -- ./inp_files/70082.got.cif
#   From: 2010.05.17/outbox.cif.g08.bks.cpg/sg15_36_cif.got.tgz:70082.got - 2010.06.03 18:47:42.
