data_PCOD9290083
_publ_section_title
;
Structure prediction by ZEFSAII (Michael W. Deem and Ramdas Pophale) SiO2 
 PCOD9290083
Probable space group: C 2/C
;
_chemical_formula_sum "Si O2"
_cell_formula_units_Z 40
_cell_length_a 15.251489
_cell_length_b 13.885184
_cell_length_c 12.203957
_cell_angle_alpha 90.000000
_cell_angle_beta 49.063388
_cell_angle_gamma 90.000000
_cell_volume 1952.367722
_symmetry_space_group_name_H-M "C 2/C"
_symmetry_group_IT_number 15
_symmetry_cell_setting 'monoclinic'
loop_
_space_group_symop_operation_xyz
x,y,z
-x,y,1/2-z
-x,-y,-z
x,-y,1/2+z
1/2+x,1/2+y,z
1/2-x,1/2+y,1/2-z
1/2-x,1/2-y,-z
1/2+x,1/2-y,1/2+z
loop_
_atom_site_type_symbol
_atom_site_label
_atom_site_fract_x
_atom_site_fract_y
_atom_site_fract_z
Si Si1 0.517317 0.160095 0.459776
Si Si2 0.588832 0.977134 0.276959
Si Si3 0.499510 0.367539 0.381163
Si Si4 0.386213 0.737255 0.418722
Si Si5 0.353053 0.548626 0.561789
O O1 0.432380 0.093315 0.601798
O O2 0.472832 0.258079 0.440133
O O3 0.604784 0.198299 0.479963
O O4 0.573306 0.086939 0.328580
O O5 0.500000 0.962288 0.250000
O O6 0.719932 0.957814 0.138054
O O7 0.500000 0.373518 0.250000
O O8 0.408005 0.443610 0.504928
O O9 0.618420 0.405819 0.341859
O O10 0.500000 0.760885 0.250000
O O11 0.250000 0.750000 0.500000
O O12 0.407957 0.626554 0.434984
#
# Coordination Sequence:
#
# PCOD9290083 Si02
#       5
#     8   8   8   8   8
#     4  10  23  39  61  90 122 162 212 255 314 388
#     4  11  23  42  62  88 124 164 208 263 319 376
#     4  10  22  41  61  88 122 158 201 257 315 371
#     4  11  22  39  65  95 128 169 212 262 316 375
#     4  10  23  39  63  92 122 163 211 256 313 384
#
# _framework density 20.487943000000001
#
# number of rings (size 3 to 8) (size 9 to 14) (size 15 to 20)
#    0.000    1.600    0.000    4.200    0.000   12.800 
#    0.000    4.000    0.000    0.000    0.000    0.000 
#    0.000    0.000    0.000    0.000    0.000    0.000 
#
# Total GULP energy -111440.156670 kJ/mol
# GULP energy per Si atom -5572.007834 kJ/mol
# Density = 2.044131 g / cm^3
# Si number density = 20.487943 Si / 1000 Ang^3
#
#
#
# Elastic Constant Matrix: (Units=GPa)
#
#
# Indices 1 2 3 4 5 6 
#
# 1 128.9292 35.8406 54.0030 0.0000 -0.4128 0.0000
# 2 35.8406 182.2628 41.8786 0.0000 12.9994 0.0000
# 3 54.0030 41.8786 67.8031 0.0000 10.7110 0.0000
# 4 0.0000 0.0000 0.0000 14.1524 0.0000 23.8709
# 5 -0.4128 12.9994 10.7110 0.0000 32.3013 0.0000
# 6 0.0000 0.0000 0.0000 23.8709 0.0000 11.6440
#
#
#
# Elastic Compliance Matrix: (Units=1/GPa)
#
#
# Indices 1 2 3 4 5 6 
#
# 1 0.012022 -0.000337 -0.009933 0.000000 0.003583 0.000000
# 2 -0.000337 0.006458 -0.003492 0.000000 -0.001445 0.000000
# 3 -0.009933 -0.003492 0.025975 0.000000 -0.007335 0.000000
# 4 0.000000 0.000000 0.000000 -0.028749 0.000000 0.058936
# 5 0.003583 -0.001445 -0.007335 0.000000 0.034018 0.000000
# 6 0.000000 0.000000 0.000000 0.058936 0.000000 -0.034942
#
#
# Mechanical properties :
#
#
# Convention : Reuss Voigt Hill
#
# Bulk Modulus (GPa) = 59.06185 71.38215 65.22200
# Shear Modulus (GPa) = 104.27264 28.10441 66.18853
#
# Velocity S-wave (km/s) = 7.14179 3.70774 5.69001
# Velocity P-wave (km/s) = 9.84363 7.29702 8.66439
#
# Compressibility (1/GPa) = 0.01693140
#
# Stress axis : x y z
#
# Youngs Moduli (GPa) = 83.18212 154.83788 38.49827
#
# Poissons Ratio (x) = 0.05223 0.38239
# Poissons Ratio (y) = 0.02806 0.13444
# Poissons Ratio (z) = 0.82622 0.54069
#
# Static dielectric constant tensor:
#      x y z
#    x 1.781790 0.000000 -0.061670 
#    y 0.000000 1.757150 0.000000 
#    z -0.061670 0.000000 1.851760 
# 
# From -- ./inp_files/96020.got.cif
#   From: 2010.05.17/outbox.cif.g08.bks.cpg/sg15_49_cif.got.tgz:96020.got - 2010.06.03 18:47:42.
