data_PCOD9290156
_publ_section_title
;
Structure prediction by ZEFSAII (Michael W. Deem and Ramdas Pophale) SiO2 
 PCOD9290156
Probable space group: C 2/C
;
_chemical_formula_sum "Si O2"
_cell_formula_units_Z 60
_cell_length_a 25.338165
_cell_length_b 13.002848
_cell_length_c 16.661089
_cell_angle_alpha 90.000000
_cell_angle_beta 30.759803
_cell_angle_gamma 90.000000
_cell_volume 2807.448653
_symmetry_space_group_name_H-M "C 2/C"
_symmetry_group_IT_number 15
_symmetry_cell_setting 'monoclinic'
loop_
_space_group_symop_operation_xyz
x,y,z
-x,y,1/2-z
-x,-y,-z
x,-y,1/2+z
1/2+x,1/2+y,z
1/2-x,1/2+y,1/2-z
1/2-x,1/2-y,-z
1/2+x,1/2-y,1/2+z
loop_
_atom_site_type_symbol
_atom_site_label
_atom_site_fract_x
_atom_site_fract_y
_atom_site_fract_z
Si Si1 0.716377 0.182704 0.967931
Si Si2 0.438648 0.785992 0.967709
Si Si3 0.714138 0.769112 0.956980
Si Si4 0.130836 0.092756 0.853152
Si Si5 0.711739 0.074210 0.726875
Si Si6 0.105727 0.453204 0.723351
Si Si7 0.000000 0.611056 0.750000
Si Si8 0.081501 0.123093 0.374329
O O1 0.619613 0.221247 0.041362
O O2 0.805130 0.170165 0.785469
O O3 0.750000 0.250000 0.000000
O O4 0.685104 0.073068 0.047851
O O5 0.374605 0.862985 0.110413
O O6 0.440264 0.676887 0.010629
O O7 0.545348 0.846802 0.817237
O O8 0.719399 0.658841 0.908265
O O9 0.809825 0.831725 0.794801
O O10 0.750000 0.750000 0.000000
O O11 0.603184 0.823217 0.098669
O O12 0.208320 0.034058 0.812012
O O13 0.092704 0.998595 0.849273
O O14 0.029210 0.145775 0.023610
O O15 0.660931 0.996789 0.730265
O O16 0.027255 0.537564 0.790005
#
# Coordination Sequence:
#
# PCOD9290156 Si02
#       8
#     8   8   8   8   8   8   4   8
#     4  11  23  39  66 101 136 174 224 282 345 404
#     4  10  22  41  62  99 133 173 226 275 336 409
#     4  11  24  41  64  96 129 167 223 266 335 397
#     4  10  23  43  65  91 130 176 221 272 334 404
#     4  10  24  40  63  96 125 173 226 270 334 407
#     4  12  22  41  66  98 135 175 226 285 342 399
#     4  12  24  40  68  94 138 170 214 288 340 390
#     4  10  23  44  65  88 133 178 218 271 337 403
#
# _framework density 21.371717
#
# number of rings (size 3 to 8) (size 9 to 14) (size 15 to 20)
#    0.000    1.333    2.667    2.000    5.600    0.000 
#    2.400    0.000    0.000    0.000    0.000    0.000 
#    0.000    0.000    0.000    0.000    0.000    0.000 
#
# Total GULP energy -167271.414938 kJ/mol
# GULP energy per Si atom -5575.713831 kJ/mol
# Density = 2.132307 g / cm^3
# Si number density = 21.371717 Si / 1000 Ang^3
#
#
#
# Elastic Constant Matrix: (Units=GPa)
#
#
# Indices 1 2 3 4 5 6 
#
# 1 134.7350 25.9352 35.8181 0.0000 -17.3755 0.0000
# 2 25.9352 61.3687 29.5376 0.0000 -13.0023 0.0000
# 3 35.8181 29.5376 113.8636 0.0000 -26.8506 0.0000
# 4 0.0000 0.0000 0.0000 32.5167 0.0000 3.8924
# 5 -17.3755 -13.0023 -26.8506 0.0000 30.7644 0.0000
# 6 0.0000 0.0000 0.0000 3.8924 0.0000 38.1857
#
#
#
# Elastic Compliance Matrix: (Units=1/GPa)
#
#
# Indices 1 2 3 4 5 6 
#
# 1 0.008605 -0.002379 -0.001487 0.000000 0.002557 0.000000
# 2 -0.002379 0.019810 -0.003441 0.000000 0.004025 0.000000
# 3 -0.001487 -0.003441 0.012090 0.000000 0.008258 0.000000
# 4 0.000000 0.000000 0.000000 0.031133 0.000000 -0.003174
# 5 0.002557 0.004025 0.008258 0.000000 0.042858 0.000000
# 6 0.000000 0.000000 0.000000 -0.003174 0.000000 0.026511
#
#
# Mechanical properties :
#
#
# Convention : Reuss Voigt Hill
#
# Bulk Modulus (GPa) = 38.62455 54.72767 46.67611
# Shear Modulus (GPa) = 30.44114 34.87179 32.65647
#
# Velocity S-wave (km/s) = 3.77817 4.04379 3.91323
# Velocity P-wave (km/s) = 6.09465 6.88956 6.50426
#
# Compressibility (1/GPa) = 0.02589027
#
# Stress axis : x y z
#
# Youngs Moduli (GPa) = 116.21256 50.48068 82.71195
#
# Poissons Ratio (x) = 0.12011 0.12297
# Poissons Ratio (y) = 0.27650 0.28463
# Poissons Ratio (z) = 0.17277 0.17371
#
# Static dielectric constant tensor:
#      x y z
#    x 1.751200 0.000000 -0.067780 
#    y 0.000000 1.767490 0.000000 
#    z -0.067780 0.000000 1.917050 
# 
# From -- ./inp_files/222544.got.cif
#   From: 2010.05.17/outbox.cif.g08.bks.cpg/sg15_112_cif.got.tgz:222544.got - 2010.06.03 18:47:42.
