data_PCOD9290149
_publ_section_title
;
Structure prediction by ZEFSAII (Michael W. Deem and Ramdas Pophale) SiO2 
 PCOD9290149
Probable space group: C 2/C
;
_chemical_formula_sum "Si O2"
_cell_formula_units_Z 56
_cell_length_a 8.126432
_cell_length_b 22.770288
_cell_length_c 14.223844
_cell_angle_alpha 90.000000
_cell_angle_beta 112.680268
_cell_angle_gamma 90.000000
_cell_volume 2428.467247
_symmetry_space_group_name_H-M "C 2/C"
_symmetry_group_IT_number 15
_symmetry_cell_setting 'monoclinic'
loop_
_space_group_symop_operation_xyz
x,y,z
-x,y,1/2-z
-x,-y,-z
x,-y,1/2+z
1/2+x,1/2+y,z
1/2-x,1/2+y,1/2-z
1/2-x,1/2-y,-z
1/2+x,1/2-y,1/2+z
loop_
_atom_site_type_symbol
_atom_site_label
_atom_site_fract_x
_atom_site_fract_y
_atom_site_fract_z
Si Si1 0.624057 0.598062 0.027756
Si Si2 0.283117 0.315328 0.279103
Si Si3 0.692255 0.060444 0.254346
Si Si4 0.014487 0.431088 0.527242
Si Si5 0.547119 0.180493 0.913858
Si Si6 0.453131 0.269744 0.040497
Si Si7 0.385618 0.551427 0.813133
O O1 0.652522 0.585448 0.144489
O O2 0.821408 0.589344 0.025603
O O3 0.554020 0.664168 0.001494
O O4 0.494459 0.557645 0.934742
O O5 0.146609 0.300566 0.167861
O O6 0.455290 0.276830 0.338172
O O7 0.333990 0.382804 0.274662
O O8 0.176649 0.312976 0.354556
O O9 0.500000 0.080165 0.250000
O O10 0.671377 0.074019 0.139821
O O11 0.716968 0.991050 0.279444
O O12 0.000000 0.500000 0.500000
O O13 0.051914 0.386664 0.450376
O O14 0.568314 0.223517 0.006318
O O15 0.250000 0.250000 0.000000
O O16 0.500000 0.527669 0.750000
#
# Coordination Sequence:
#
# PCOD9290149 Si02
#       7
#     8   8   8   8   8   8   8
#     4  10  22  41  62  96 130 169 221 270 325 391
#     4  10  25  40  66  98 123 174 218 276 326 390
#     4  10  23  39  62  95 130 170 213 266 334 389
#     4  11  22  39  65  96 131 170 216 267 328 396
#     4  11  23  43  67  94 132 171 223 268 330 393
#     4  11  23  43  65  93 129 171 223 273 326 389
#     4  11  22  40  65  93 133 169 220 267 324 398
#
# _framework density 23.059811
#
# number of rings (size 3 to 8) (size 9 to 14) (size 15 to 20)
#    0.000    1.429    1.429    3.429    8.000    1.143 
#    7.714    0.000    0.000    0.000    0.000    0.000 
#    0.000    0.000    0.000    0.000    0.000    0.000 
#
# Total GULP energy -156434.340327 kJ/mol
# GULP energy per Si atom -5586.940726 kJ/mol
# Density = 2.300733 g / cm^3
# Si number density = 23.059811 Si / 1000 Ang^3
#
#
#
# Elastic Constant Matrix: (Units=GPa)
#
#
# Indices 1 2 3 4 5 6 
#
# 1 44.0758 6.7209 19.6470 0.0000 5.4430 0.0000
# 2 6.7209 82.3659 27.3226 0.0000 -8.3333 0.0000
# 3 19.6470 27.3226 147.8139 0.0000 10.9842 0.0000
# 4 0.0000 0.0000 0.0000 29.7770 0.0000 8.4726
# 5 5.4430 -8.3333 10.9842 0.0000 36.2734 0.0000
# 6 0.0000 0.0000 0.0000 8.4726 0.0000 29.0939
#
#
#
# Elastic Compliance Matrix: (Units=1/GPa)
#
#
# Indices 1 2 3 4 5 6 
#
# 1 0.024526 -0.001404 -0.002765 0.000000 -0.003166 0.000000
# 2 -0.001404 0.013542 -0.002622 0.000000 0.004116 0.000000
# 3 -0.002765 -0.002622 0.007807 0.000000 -0.002552 0.000000
# 4 0.000000 0.000000 0.000000 0.036617 0.000000 -0.010664
# 5 -0.003166 0.004116 -0.002552 0.000000 0.029762 0.000000
# 6 0.000000 0.000000 0.000000 -0.010664 0.000000 0.037477
#
#
# Mechanical properties :
#
#
# Convention : Reuss Voigt Hill
#
# Bulk Modulus (GPa) = 30.96807 42.40406 36.68606
# Shear Modulus (GPa) = 28.72283 33.73320 31.22802
#
# Velocity S-wave (km/s) = 3.53311 3.82888 3.68396
# Velocity P-wave (km/s) = 5.48656 6.16245 5.83430
#
# Compressibility (1/GPa) = 0.03229133
#
# Stress axis : x y z
#
# Youngs Moduli (GPa) = 40.77346 73.84519 128.08804
#
# Poissons Ratio (x) = 0.10370 0.35417
# Poissons Ratio (y) = 0.05726 0.33589
# Poissons Ratio (z) = 0.11274 0.19365
#
# Static dielectric constant tensor:
#      x y z
#    x 1.956660 0.000000 0.046050 
#    y 0.000000 1.840240 0.000000 
#    z 0.046050 0.000000 1.933860 
# 
# From -- ./inp_files/137973.got.cif
#   From: 2010.05.17/outbox.cif.g08.bks.cpg/sg15_69_cif.got.tgz:137973.got - 2010.06.03 18:47:42.
