data_PCOD9290525
_publ_section_title
;
Structure prediction by ZEFSAII (Michael W. Deem and Ramdas Pophale) SiO2 
 PCOD9290525
Probable space group: C 2/C
;
_chemical_formula_sum "Si O2"
_cell_formula_units_Z 40
_cell_length_a 23.320288
_cell_length_b 7.207301
_cell_length_c 9.736365
_cell_angle_alpha 90.000000
_cell_angle_beta 78.937949
_cell_angle_gamma 90.000000
_cell_volume 1606.047196
_symmetry_space_group_name_H-M "C 2/C"
_symmetry_group_IT_number 15
_symmetry_cell_setting 'monoclinic'
loop_
_space_group_symop_operation_xyz
x,y,z
-x,y,1/2-z
-x,-y,-z
x,-y,1/2+z
1/2+x,1/2+y,z
1/2-x,1/2+y,1/2-z
1/2-x,1/2-y,-z
1/2+x,1/2-y,1/2+z
loop_
_atom_site_type_symbol
_atom_site_label
_atom_site_fract_x
_atom_site_fract_y
_atom_site_fract_z
Si Si1 0.681149 0.927534 0.937529
Si Si2 0.120534 0.919696 0.811600
Si Si3 0.892409 0.486131 0.277951
Si Si4 0.193619 0.004261 0.520631
Si Si5 0.500000 0.243802 0.250000
Si Si6 0.000000 0.000000 0.000000
O O1 0.688740 0.709644 0.969406
O O2 0.662787 0.956609 0.789736
O O3 0.627325 0.995170 0.055715
O O4 0.740594 0.025944 0.957354
O O5 0.094746 0.727751 0.764918
O O6 0.151483 0.022519 0.671175
O O7 0.170280 0.880757 0.902339
O O8 0.067040 0.022638 0.907179
O O9 0.948375 0.608812 0.223962
O O10 0.476678 0.369995 0.384358
#
# Coordination Sequence:
#
# PCOD9290525 Si02
#       6
#     8   8   8   8   4   4
#     4  10  22  42  67  97 138 179 225 283 338 398
#     4  11  24  41  66  98 135 180 229 280 338 401
#     4  11  25  44  68 101 137 175 223 285 346 404
#     4  10  22  41  66  99 136 180 229 277 335 404
#     4  12  28  48  72 100 134 174 228 286 350 420
#     4  12  26  46  70  98 134 182 232 280 340 418
#
# _framework density 24.905868000000002
#
# number of rings (size 3 to 8) (size 9 to 14) (size 15 to 20)
#    0.000    1.200    0.000    4.800    0.000   11.200 
#    0.000    0.000    0.000    0.000    0.000    0.000 
#    0.000    0.000    0.000    0.000    0.000    0.000 
#
# Total GULP energy -111642.380321 kJ/mol
# GULP energy per Si atom -5582.119016 kJ/mol
# Density = 2.484918 g / cm^3
# Si number density = 24.905868 Si / 1000 Ang^3
#
#
#
# Elastic Constant Matrix: (Units=GPa)
#
#
# Indices 1 2 3 4 5 6 
#
# 1 101.7771 11.5526 1.3593 0.0000 1.9087 0.0000
# 2 11.5526 54.5831 20.9412 0.0000 -0.5710 0.0000
# 3 1.3593 20.9412 90.9827 0.0000 0.0757 0.0000
# 4 0.0000 0.0000 0.0000 27.3876 0.0000 13.8854
# 5 1.9087 -0.5710 0.0757 0.0000 35.6926 0.0000
# 6 0.0000 0.0000 0.0000 13.8854 0.0000 35.8692
#
#
#
# Elastic Compliance Matrix: (Units=1/GPa)
#
#
# Indices 1 2 3 4 5 6 
#
# 1 0.010091 -0.002286 0.000376 0.000000 -0.000577 0.000000
# 2 -0.002286 0.020617 -0.004712 0.000000 0.000462 0.000000
# 3 0.000376 -0.004712 0.012070 0.000000 -0.000121 0.000000
# 4 0.000000 0.000000 0.000000 0.045429 0.000000 -0.017586
# 5 -0.000577 0.000462 -0.000121 0.000000 0.028056 0.000000
# 6 0.000000 0.000000 0.000000 -0.017586 0.000000 0.034687
#
#
# Mechanical properties :
#
#
# Convention : Reuss Voigt Hill
#
# Bulk Modulus (GPa) = 33.85884 35.00545 34.43215
# Shear Modulus (GPa) = 28.72951 34.02253 31.37602
#
# Velocity S-wave (km/s) = 3.40004 3.70001 3.55319
# Velocity P-wave (km/s) = 5.38869 5.68675 5.53972
#
# Compressibility (1/GPa) = 0.02953438
#
# Stress axis : x y z
#
# Youngs Moduli (GPa) = 99.10143 48.50366 82.84979
#
# Poissons Ratio (x) = 0.11088 -0.03114
# Poissons Ratio (y) = 0.22654 0.39035
# Poissons Ratio (z) = -0.03725 0.22853
#
# Static dielectric constant tensor:
#      x y z
#    x 1.942400 0.000000 0.044630 
#    y 0.000000 2.009980 0.000000 
#    z 0.044630 0.000000 1.900350 
# 
# From -- ./inp_files/59976.got.cif
#   From: 2010.05.17/outbox.cif.g08.bks.cpg/sg15_30_cif.got.tgz:59976.got - 2010.06.03 18:47:42.
