data_PCOD9290554
_publ_section_title
;
Structure prediction by ZEFSAII (Michael W. Deem and Ramdas Pophale) SiO2 
 PCOD9290554
Probable space group: C 2/C
;
_chemical_formula_sum "Si O2"
_cell_formula_units_Z 52
_cell_length_a 21.677649
_cell_length_b 8.601447
_cell_length_c 19.145398
_cell_angle_alpha 90.000000
_cell_angle_beta 47.840584
_cell_angle_gamma 90.000000
_cell_volume 2646.247742
_symmetry_space_group_name_H-M "C 2/C"
_symmetry_group_IT_number 15
_symmetry_cell_setting 'monoclinic'
loop_
_space_group_symop_operation_xyz
x,y,z
-x,y,1/2-z
-x,-y,-z
x,-y,1/2+z
1/2+x,1/2+y,z
1/2-x,1/2+y,1/2-z
1/2-x,1/2-y,-z
1/2+x,1/2-y,1/2+z
loop_
_atom_site_type_symbol
_atom_site_label
_atom_site_fract_x
_atom_site_fract_y
_atom_site_fract_z
Si Si1 0.755199 0.033514 0.811808
Si Si2 0.714772 0.382048 0.855525
Si Si3 0.571429 0.632890 0.991232
Si Si4 0.000000 0.784612 0.250000
Si Si5 0.553082 0.410334 0.354528
Si Si6 0.679981 0.136631 0.089311
Si Si7 0.693264 0.842911 0.987365
O O1 0.704270 0.194968 0.857954
O O2 0.851425 0.082038 0.739482
O O3 0.744296 0.946425 0.746609
O O4 0.742426 0.913843 0.884209
O O5 0.631984 0.482681 0.933230
O O6 0.775332 0.415251 0.873823
O O7 0.552514 0.692023 0.926666
O O8 0.620674 0.742914 0.006603
O O9 0.486815 0.572170 0.089584
O O10 0.003235 0.867679 0.323009
O O11 0.090045 0.703335 0.177148
O O12 0.750000 0.250000 0.000000
O O13 0.662660 0.993445 0.051835
O O14 0.750000 0.750000 0.000000
#
# Coordination Sequence:
#
# PCOD9290554 Si02
#       7
#     8   8   8   4   8   8   8
#     4  11  23  41  68  96 124 177 222 269 329 395
#     4  11  21  41  67  95 130 167 223 265 327 401
#     4  10  23  43  66  95 132 171 218 268 334 393
#     4  12  24  40  68  98 132 176 224 268 324 406
#     4  10  22  41  67  91 128 175 216 265 326 399
#     4  12  24  45  67  99 133 180 220 275 339 393
#     4  12  25  41  66  97 129 172 224 275 329 399
#
# _framework density 19.650466000000002
#
# number of rings (size 3 to 8) (size 9 to 14) (size 15 to 20)
#    0.000    0.923    4.615    2.769    2.154    0.000 
#    2.769    2.308    0.000    0.000    0.000    0.000 
#    0.000    0.000    0.000    0.000    0.000    0.000 
#
# Total GULP energy -144942.433139 kJ/mol
# GULP energy per Si atom -5574.708967 kJ/mol
# Density = 1.960574 g / cm^3
# Si number density = 19.650466 Si / 1000 Ang^3
#
#
#
# Elastic Constant Matrix: (Units=GPa)
#
#
# Indices 1 2 3 4 5 6 
#
# 1 129.8826 30.9254 29.4593 0.0001 38.6984 0.0000
# 2 30.9254 79.9201 27.3443 0.0006 11.3108 -0.0002
# 3 29.4593 27.3443 71.6576 0.0002 16.3931 -0.0001
# 4 0.0001 0.0006 0.0002 13.1021 -0.0001 24.4810
# 5 38.6984 11.3108 16.3931 -0.0001 44.6248 0.0001
# 6 0.0000 -0.0002 -0.0001 24.4810 0.0001 29.1089
#
#
#
# Elastic Compliance Matrix: (Units=1/GPa)
#
#
# Indices 1 2 3 4 5 6 
#
# 1 0.011212 -0.002561 -0.001699 0.000000 -0.008450 0.000000
# 2 -0.002561 0.015107 -0.004743 0.000001 0.000134 -0.000001
# 3 -0.001699 -0.004743 0.017306 0.000000 -0.003682 0.000000
# 4 0.000000 0.000001 0.000000 -0.133569 -0.000001 0.112333
# 5 -0.008450 0.000134 -0.003682 -0.000001 0.031055 0.000001
# 6 0.000000 -0.000001 0.000000 0.112333 0.000001 -0.060120
#
#
# Mechanical properties :
#
#
# Convention : Reuss Voigt Hill
#
# Bulk Modulus (GPa) = 39.03318 50.76871 44.90094
# Shear Modulus (GPa) = -54.07544 30.28259 -11.89642
#
# Velocity S-wave (km/s) = -5.25151 3.92990 -2.46316
# Velocity P-wave (km/s) = 4.10662 6.81792 3.84836
#
# Compressibility (1/GPa) = 0.02561923
#
# Stress axis : x y z
#
# Youngs Moduli (GPa) = 89.18966 66.19315 57.78417
#
# Poissons Ratio (x) = 0.16955 0.09817
# Poissons Ratio (y) = 0.22845 0.27405
# Poissons Ratio (z) = 0.15153 0.31393
#
# Static dielectric constant tensor:
#      x y z
#    x 1.765950 0.000000 0.047640 
#    y 0.000000 1.739200 0.000000 
#    z 0.047640 0.000000 1.732690 
# 
# From -- ./inp_files/214219.got.cif
#   From: 2010.05.17/outbox.cif.g08.bks.cpg/sg15_108_cif.got.tgz:214219.got - 2010.06.03 18:47:42.
