data_PCOD9290346
_publ_section_title
;
Structure prediction by ZEFSAII (Michael W. Deem and Ramdas Pophale) SiO2 
 PCOD9290346
Probable space group: C 2/C
;
_chemical_formula_sum "Si O2"
_cell_formula_units_Z 48
_cell_length_a 17.156093
_cell_length_b 11.016123
_cell_length_c 11.136992
_cell_angle_alpha 90.000000
_cell_angle_beta 73.164167
_cell_angle_gamma 90.000000
_cell_volume 2014.604889
_symmetry_space_group_name_H-M "C 2/C"
_symmetry_group_IT_number 15
_symmetry_cell_setting 'monoclinic'
loop_
_space_group_symop_operation_xyz
x,y,z
-x,y,1/2-z
-x,-y,-z
x,-y,1/2+z
1/2+x,1/2+y,z
1/2-x,1/2+y,1/2-z
1/2-x,1/2-y,-z
1/2+x,1/2-y,1/2+z
loop_
_atom_site_type_symbol
_atom_site_label
_atom_site_fract_x
_atom_site_fract_y
_atom_site_fract_z
Si Si1 0.212090 0.423828 0.127456
Si Si2 0.311717 0.176378 0.098900
Si Si3 0.934243 0.674457 0.666661
Si Si4 0.975125 0.943313 0.137495
Si Si5 0.485388 0.166793 0.124125
Si Si6 0.172000 0.082435 0.313675
O O1 0.276870 0.311973 0.096705
O O2 0.144446 0.406660 0.261186
O O3 0.264524 0.547243 0.108761
O O4 0.161495 0.394163 0.031639
O O5 0.388541 0.173658 0.150327
O O6 0.232599 0.106488 0.178844
O O7 0.890706 0.805311 0.657699
O O8 0.000000 0.683223 0.750000
O O9 0.973961 0.630830 0.522315
O O10 0.010483 0.808783 0.124177
O O11 0.000000 0.007784 0.250000
O O12 0.879032 0.961144 0.184084
O O13 0.000000 0.000000 0.000000
O O14 0.500000 0.108304 0.250000
#
# Coordination Sequence:
#
# PCOD9290346 Si02
#       6
#     8   8   8   8   8   8
#     4  10  22  41  66  97 135 173 228 274 335 408
#     4  10  22  41  65  91 134 181 218 274 344 403
#     4  11  22  42  72  98 131 184 229 271 332 409
#     4  11  23  36  61  97 131 163 211 279 333 387
#     4  11  23  41  63  94 132 170 221 278 331 389
#     4  11  23  37  65 101 130 165 223 285 329 393
#
# _framework density 23.826008999999999
#
# number of rings (size 3 to 8) (size 9 to 14) (size 15 to 20)
#    0.000    1.333    5.000    0.500    2.333    0.000 
#    3.000    3.333    0.000    0.000    0.000    0.000 
#    0.000    0.000    0.000    0.000    0.000    0.000 
#
# Total GULP energy -133649.776832 kJ/mol
# GULP energy per Si atom -5568.740701 kJ/mol
# Density = 2.377178 g / cm^3
# Si number density = 23.826009 Si / 1000 Ang^3
#
#
#
# Elastic Constant Matrix: (Units=GPa)
#
#
# Indices 1 2 3 4 5 6 
#
# 1 117.8184 22.5776 49.6301 0.0000 17.2628 0.0000
# 2 22.5776 80.7873 27.5323 0.0000 5.7285 0.0000
# 3 49.6301 27.5323 169.4765 0.0000 4.6150 0.0000
# 4 0.0000 0.0000 0.0000 10.4671 0.0000 -2.9549
# 5 17.2628 5.7285 4.6150 0.0000 38.5430 0.0000
# 6 0.0000 0.0000 0.0000 -2.9549 0.0000 16.8534
#
#
#
# Elastic Compliance Matrix: (Units=1/GPa)
#
#
# Indices 1 2 3 4 5 6 
#
# 1 0.010566 -0.001739 -0.002699 0.000000 -0.004151 0.000000
# 2 -0.001739 0.013502 -0.001656 0.000000 -0.001030 0.000000
# 3 -0.002699 -0.001656 0.006943 0.000000 0.000624 0.000000
# 4 0.000000 0.000000 0.000000 0.100512 0.000000 0.017623
# 5 -0.004151 -0.001030 0.000624 0.000000 0.027882 0.000000
# 6 0.000000 0.000000 0.000000 0.017623 0.000000 0.062425
#
#
# Mechanical properties :
#
#
# Convention : Reuss Voigt Hill
#
# Bulk Modulus (GPa) = 53.12641 63.06246 58.09444
# Shear Modulus (GPa) = 20.80805 31.06218 25.93512
#
# Velocity S-wave (km/s) = 2.95843 3.61461 3.30285
# Velocity P-wave (km/s) = 5.83231 6.62917 6.24346
#
# Compressibility (1/GPa) = 0.01882303
#
# Stress axis : x y z
#
# Youngs Moduli (GPa) = 94.64523 74.06555 144.03272
#
# Poissons Ratio (x) = 0.12879 0.38869
# Poissons Ratio (y) = 0.16457 0.23854
# Poissons Ratio (z) = 0.25541 0.12266
#
# Static dielectric constant tensor:
#      x y z
#    x 1.879880 0.000000 0.035000 
#    y 0.000000 1.963400 0.000000 
#    z 0.035000 0.000000 1.922610 
# 
# From -- ./inp_files/104146.got.cif
#   From: 2010.05.17/outbox.cif.g08.bks.cpg/sg15_53_cif.got.tgz:104146.got - 2010.06.03 18:47:42.
