data_PCOD9290711
_publ_section_title
;
Structure prediction by ZEFSAII (Michael W. Deem and Ramdas Pophale) SiO2 
 PCOD9290711
Probable space group: C 2/C
;
_chemical_formula_sum "Si O2"
_cell_formula_units_Z 48
_cell_length_a 9.893966
_cell_length_b 27.647313
_cell_length_c 8.992904
_cell_angle_alpha 90.000000
_cell_angle_beta 94.372277
_cell_angle_gamma 90.000000
_cell_volume 2452.774118
_symmetry_space_group_name_H-M "C 2/C"
_symmetry_group_IT_number 15
_symmetry_cell_setting 'monoclinic'
loop_
_space_group_symop_operation_xyz
x,y,z
-x,y,1/2-z
-x,-y,-z
x,-y,1/2+z
1/2+x,1/2+y,z
1/2-x,1/2+y,1/2-z
1/2-x,1/2-y,-z
1/2+x,1/2-y,1/2+z
loop_
_atom_site_type_symbol
_atom_site_label
_atom_site_fract_x
_atom_site_fract_y
_atom_site_fract_z
Si Si1 0.000000 0.676089 0.750000
Si Si2 0.886058 0.273367 0.953526
Si Si3 0.656489 0.130693 0.248651
Si Si4 0.089366 0.045125 0.899508
Si Si5 0.246217 0.632808 0.600610
Si Si6 0.611907 0.564739 0.388521
Si Si7 0.000000 0.193346 0.750000
O O1 0.962711 0.707814 0.604566
O O2 0.876162 0.644940 0.800106
O O3 0.857150 0.318848 0.842429
O O4 0.961275 0.230221 0.877447
O O5 0.750000 0.250000 0.000000
O O6 0.500000 0.111837 0.250000
O O7 0.711355 0.140775 0.421710
O O8 0.760149 0.095217 0.163876
O O9 0.220401 0.076486 0.884606
O O10 0.000000 0.036184 0.750000
O O11 0.136994 0.990806 0.947188
O O12 0.988253 0.080232 0.986442
O O13 0.373949 0.662307 0.677926
O O14 0.500000 0.563960 0.250000
#
# Coordination Sequence:
#
# PCOD9290711 Si02
#       7
#     4   8   8   8   8   8   4
#     4  12  26  46  66  97 139 174 220 286 340 400
#     4  12  27  44  66  97 134 180 228 276 338 402
#     4  12  26  46  65  99 143 182 218 280 345 411
#     4  10  22  41  69 102 131 168 230 282 325 403
#     4  12  25  44  69 100 136 176 226 279 340 401
#     4  10  22  43  70  96 132 177 226 277 335 395
#     4  12  26  46  70  99 129 184 230 282 334 394
#
# _framework density 19.569678
#
# number of rings (size 3 to 8) (size 9 to 14) (size 15 to 20)
#    0.000    0.667    6.667    0.000    7.000    1.333 
#    1.500    0.833    0.000    0.000    0.000    0.000 
#    0.000    0.000    0.000    0.000    0.000    0.000 
#
# Total GULP energy -133613.645284 kJ/mol
# GULP energy per Si atom -5567.235220 kJ/mol
# Density = 1.952514 g / cm^3
# Si number density = 19.569678 Si / 1000 Ang^3
#
#
#
# Elastic Constant Matrix: (Units=GPa)
#
#
# Indices 1 2 3 4 5 6 
#
# 1 146.6744 63.5201 38.9862 0.0000 -19.8049 0.0000
# 2 63.5201 95.9541 28.8838 0.0000 -7.8144 0.0000
# 3 38.9862 28.8838 93.3568 0.0000 1.6438 0.0000
# 4 0.0000 0.0000 0.0000 -3.3175 0.0000 -69.1201
# 5 -19.8049 -7.8144 1.6438 0.0000 43.1659 0.0000
# 6 0.0000 0.0000 0.0000 -69.1201 0.0000 -62.6308
#
#
#
# Elastic Compliance Matrix: (Units=1/GPa)
#
#
# Indices 1 2 3 4 5 6 
#
# 1 0.010611 -0.005902 -0.002674 0.000000 0.003902 0.000000
# 2 -0.005902 0.014990 -0.002175 0.000000 0.000089 0.000000
# 3 -0.002674 -0.002175 0.012538 0.000000 -0.002098 0.000000
# 4 0.000000 0.000000 0.000000 0.013705 0.000000 -0.015125
# 5 0.003902 0.000089 -0.002098 0.000000 0.025053 0.000000
# 6 0.000000 0.000000 0.000000 -0.015125 0.000000 0.000726
#
#
# Mechanical properties :
#
#
# Convention : Reuss Voigt Hill
#
# Bulk Modulus (GPa) = 60.10189 66.52951 63.31570
# Shear Modulus (GPa) = 47.76842 9.08318 28.42580
#
# Velocity S-wave (km/s) = 4.94595 2.15674 3.81536
# Velocity P-wave (km/s) = 7.96209 6.34603 7.19955
#
# Compressibility (1/GPa) = 0.01663841
#
# Stress axis : x y z
#
# Youngs Moduli (GPa) = 94.23850 66.70902 79.75675
#
# Poissons Ratio (x) = 0.39371 0.21328
# Poissons Ratio (y) = 0.55618 0.17346
# Poissons Ratio (z) = 0.25200 0.14508
#
# Static dielectric constant tensor:
#      x y z
#    x 1.642320 0.000000 -0.098780 
#    y 0.000000 1.665900 0.000000 
#    z -0.098780 0.000000 1.753940 
# 
# From -- ./inp_files/26153.got.cif
#   From: 2010.05.17/outbox.cif.g08.bks.cpg/sg15_14_cif.got.tgz:26153.got - 2010.06.03 18:47:42.
