data_PCOD9290715
_publ_section_title
;
Structure prediction by ZEFSAII (Michael W. Deem and Ramdas Pophale) SiO2 
 PCOD9290715
Probable space group: C 2/C
;
_chemical_formula_sum "Si O2"
_cell_formula_units_Z 36
_cell_length_a 5.561625
_cell_length_b 18.188565
_cell_length_c 20.352567
_cell_angle_alpha 90.000000
_cell_angle_beta 44.870379
_cell_angle_gamma 90.000000
_cell_volume 1452.511562
_symmetry_space_group_name_H-M "C 2/C"
_symmetry_group_IT_number 15
_symmetry_cell_setting 'monoclinic'
loop_
_space_group_symop_operation_xyz
x,y,z
-x,y,1/2-z
-x,-y,-z
x,-y,1/2+z
1/2+x,1/2+y,z
1/2-x,1/2+y,1/2-z
1/2-x,1/2-y,-z
1/2+x,1/2-y,1/2+z
loop_
_atom_site_type_symbol
_atom_site_label
_atom_site_fract_x
_atom_site_fract_y
_atom_site_fract_z
Si Si1 0.147902 0.340053 0.349354
Si Si2 0.717694 0.552870 0.408609
Si Si3 0.500000 0.220148 0.750000
Si Si4 0.233415 0.001891 0.612071
Si Si5 0.229156 0.720795 0.078094
O O1 0.500000 0.313711 0.250000
O O2 0.929255 0.335443 0.325648
O O3 0.243670 0.415539 0.365434
O O4 0.064535 0.278326 0.417393
O O5 0.500000 0.500000 0.500000
O O6 0.607763 0.527763 0.356820
O O7 0.636725 0.638097 0.437633
O O8 0.104532 0.542905 0.358747
O O9 0.832364 0.272381 0.678505
O O10 0.500000 0.000000 0.500000
O O11 0.250000 0.750000 0.000000
#
# Coordination Sequence:
#
# PCOD9290715 Si02
#       5
#     8   8   4   8   8
#     4  10  24  45  70 102 143 195 250 309 376 459
#     4  10  23  41  67 107 140 180 243 301 376 452
#     4  10  26  44  72 108 152 192 274 306 392 468
#     4  10  22  41  69 102 143 181 243 305 370 453
#     4  11  24  44  76 104 147 202 253 322 381 459
#
# _framework density 24.784655000000001
#
# number of rings (size 3 to 8) (size 9 to 14) (size 15 to 20)
#    0.000    1.778    0.000    2.667   15.556    0.889 
#    2.000    0.000    0.000    0.000    0.000    0.000 
#    0.000    0.000    0.000    0.000    0.000    0.000 
#
# Total GULP energy -100415.130002 kJ/mol
# GULP energy per Si atom -5578.618333 kJ/mol
# Density = 2.472824 g / cm^3
# Si number density = 24.784655 Si / 1000 Ang^3
#
#
#
# Elastic Constant Matrix: (Units=GPa)
#
#
# Indices 1 2 3 4 5 6 
#
# 1 166.2749 83.3474 47.2302 0.0000 43.8674 0.0000
# 2 83.3474 227.0974 52.9291 0.0000 52.3568 0.0000
# 3 47.2302 52.9291 111.6970 0.0000 14.7783 0.0000
# 4 0.0000 0.0000 0.0000 30.7906 0.0000 10.4109
# 5 43.8674 52.3568 14.7783 0.0000 56.7812 0.0000
# 6 0.0000 0.0000 0.0000 10.4109 0.0000 40.1706
#
#
#
# Elastic Compliance Matrix: (Units=1/GPa)
#
#
# Indices 1 2 3 4 5 6 
#
# 1 0.008690 -0.001577 -0.002311 0.000000 -0.004658 0.000000
# 2 -0.001577 0.006365 -0.001796 0.000000 -0.004184 0.000000
# 3 -0.002311 -0.001796 0.010694 0.000000 0.000658 0.000000
# 4 0.000000 0.000000 0.000000 0.035597 0.000000 -0.009226
# 5 -0.004658 -0.004184 0.000658 0.000000 0.024897 0.000000
# 6 0.000000 0.000000 0.000000 -0.009226 0.000000 0.027285
#
#
# Mechanical properties :
#
#
# Convention : Reuss Voigt Hill
#
# Bulk Modulus (GPa) = 69.53334 96.89807 83.21571
# Shear Modulus (GPa) = 38.55393 46.98599 42.76996
#
# Velocity S-wave (km/s) = 3.94833 4.35877 4.15862
# Velocity P-wave (km/s) = 6.99297 8.03198 7.53042
#
# Compressibility (1/GPa) = 0.01438159
#
# Stress axis : x y z
#
# Youngs Moduli (GPa) = 115.07649 157.10442 93.51078
#
# Poissons Ratio (x) = 0.24771 0.21610
# Poissons Ratio (y) = 0.18145 0.16795
# Poissons Ratio (z) = 0.26594 0.28216
#
# Static dielectric constant tensor:
#      x y z
#    x 2.512690 0.000000 0.144130 
#    y 0.000000 1.917210 0.000000 
#    z 0.144130 0.000000 2.043500 
# 
# From -- ./inp_files/226718.got.cif
#   From: 2010.05.17/outbox.cif.g08.bks.cpg/sg15_114_cif.got.tgz:226718.got - 2010.06.03 18:47:42.
