data_PCOD9290786
_publ_section_title
;
Structure prediction by ZEFSAII (Michael W. Deem and Ramdas Pophale) SiO2 
 PCOD9290786
Probable space group: C 2/C
;
_chemical_formula_sum "Si O2"
_cell_formula_units_Z 48
_cell_length_a 20.720264
_cell_length_b 7.762340
_cell_length_c 20.933964
_cell_angle_alpha 90.000000
_cell_angle_beta 146.460039
_cell_angle_gamma 90.000000
_cell_volume 1860.313768
_symmetry_space_group_name_H-M "C 2/C"
_symmetry_group_IT_number 15
_symmetry_cell_setting 'monoclinic'
loop_
_space_group_symop_operation_xyz
x,y,z
-x,y,1/2-z
-x,-y,-z
x,-y,1/2+z
1/2+x,1/2+y,z
1/2-x,1/2+y,1/2-z
1/2-x,1/2-y,-z
1/2+x,1/2-y,1/2+z
loop_
_atom_site_type_symbol
_atom_site_label
_atom_site_fract_x
_atom_site_fract_y
_atom_site_fract_z
Si Si1 0.215901 0.593884 0.888291
Si Si2 0.506863 0.870747 0.139111
Si Si3 0.054856 0.014795 0.472714
Si Si4 0.760860 0.497457 0.947014
Si Si5 0.867635 0.494588 0.860408
Si Si6 0.655522 0.327916 0.252085
O O1 0.080404 0.568255 0.759929
O O2 0.246026 0.518555 0.982427
O O3 0.305366 0.499718 0.912810
O O4 0.220441 0.804243 0.891980
O O5 0.398792 0.000933 0.043283
O O6 0.612343 0.859392 0.175206
O O7 0.451666 0.687821 0.076582
O O8 0.345011 0.825427 0.800173
O O9 0.976447 0.889708 0.366459
O O10 0.000000 0.000000 0.500000
O O11 0.688662 0.651044 0.854257
O O12 0.756669 0.541368 0.810290
O O13 0.000000 0.500000 0.000000
#
# Coordination Sequence:
#
# PCOD9290786 Si02
#       6
#     8   8   8   8   8   8
#     4  10  22  41  70 105 139 193 248 296 364 447
#     4  11  21  42  69 102 138 192 244 306 368 440
#     4  11  23  39  69 105 147 188 243 302 370 445
#     4  10  22  42  69 103 142 186 250 309 361 439
#     4  12  26  44  73 106 151 189 244 310 380 450
#     4  12  25  45  71 107 147 192 247 308 378 441
#
# _framework density 25.802098000000001
#
# number of rings (size 3 to 8) (size 9 to 14) (size 15 to 20)
#    0.000    1.000    3.333    3.500    2.333    2.000 
#    0.000    0.833    3.667    0.000    0.000    0.000 
#    0.000    0.000    0.000    0.000    0.000    0.000 
#
# Total GULP energy -133620.041435 kJ/mol
# GULP energy per Si atom -5567.501726 kJ/mol
# Density = 2.574337 g / cm^3
# Si number density = 25.802098 Si / 1000 Ang^3
#
#
#
# Elastic Constant Matrix: (Units=GPa)
#
#
# Indices 1 2 3 4 5 6 
#
# 1 98.2608 1.1688 26.7021 0.0000 -4.3150 0.0000
# 2 1.1688 71.6541 53.8882 0.0000 -9.3577 0.0000
# 3 26.7021 53.8882 207.0868 0.0000 -10.6399 0.0000
# 4 0.0000 0.0000 0.0000 31.2213 0.0000 -4.2929
# 5 -4.3150 -9.3577 -10.6399 0.0000 33.8367 0.0000
# 6 0.0000 0.0000 0.0000 -4.2929 0.0000 31.8860
#
#
#
# Elastic Compliance Matrix: (Units=1/GPa)
#
#
# Indices 1 2 3 4 5 6 
#
# 1 0.010657 0.001204 -0.001627 0.000000 0.001180 0.000000
# 2 0.001204 0.017889 -0.004623 0.000000 0.003647 0.000000
# 3 -0.001627 -0.004623 0.006267 0.000000 0.000485 0.000000
# 4 0.000000 0.000000 0.000000 0.032634 0.000000 0.004394
# 5 0.001180 0.003647 0.000485 0.000000 0.030865 0.000000
# 6 0.000000 0.000000 0.000000 0.004394 0.000000 0.031953
#
#
# Mechanical properties :
#
#
# Convention : Reuss Voigt Hill
#
# Bulk Modulus (GPa) = 40.45230 60.05778 50.25504
# Shear Modulus (GPa) = 33.64816 39.07164 36.35990
#
# Velocity S-wave (km/s) = 3.61513 3.89560 3.75798
# Velocity P-wave (km/s) = 5.75652 6.60008 6.19268
#
# Compressibility (1/GPa) = 0.02472047
#
# Stress axis : x y z
#
# Youngs Moduli (GPa) = 93.83899 55.89917 159.57808
#
# Poissons Ratio (x) = -0.06728 0.25958
# Poissons Ratio (y) = -0.11295 0.73773
# Poissons Ratio (z) = 0.15264 0.25842
#
# Static dielectric constant tensor:
#      x y z
#    x 3.448360 0.000000 -2.026890 
#    y 0.000000 2.139440 0.000000 
#    z -2.026890 0.000000 5.103430 
# 
# From -- ./inp_files/168905.got.cif
#   From: 2010.05.17/outbox.cif.g08.bks.cpg/sg15_85_cif.got.tgz:168905.got - 2010.06.03 18:47:42.
