data_PCOD9290423
_publ_section_title
;
Structure prediction by ZEFSAII (Michael W. Deem and Ramdas Pophale) SiO2 
 PCOD9290423
Probable space group: C 2/C
;
_chemical_formula_sum "Si O2"
_cell_formula_units_Z 52
_cell_length_a 5.332044
_cell_length_b 31.150069
_cell_length_c 14.867078
_cell_angle_alpha 90.000000
_cell_angle_beta 108.521791
_cell_angle_gamma 90.000000
_cell_volume 2341.421707
_symmetry_space_group_name_H-M "C 2/C"
_symmetry_group_IT_number 15
_symmetry_cell_setting 'monoclinic'
loop_
_space_group_symop_operation_xyz
x,y,z
-x,y,1/2-z
-x,-y,-z
x,-y,1/2+z
1/2+x,1/2+y,z
1/2-x,1/2+y,1/2-z
1/2-x,1/2-y,-z
1/2+x,1/2-y,1/2+z
loop_
_atom_site_type_symbol
_atom_site_label
_atom_site_fract_x
_atom_site_fract_y
_atom_site_fract_z
Si Si1 0.500000 0.642144 0.250000
Si Si2 0.358225 0.672030 0.539154
Si Si3 0.586606 0.426223 0.491090
Si Si4 0.053721 0.298225 0.360214
Si Si5 0.108201 0.575465 0.164150
Si Si6 0.278716 0.505890 0.082588
Si Si7 0.761471 0.712880 0.161152
O O1 0.325217 0.611096 0.169505
O O2 0.673891 0.672016 0.208385
O O3 0.467878 0.623311 0.536495
O O4 0.633023 0.697404 0.586578
O O5 0.211042 0.693953 0.436226
O O6 0.144474 0.675524 0.595709
O O7 0.589155 0.459333 0.407335
O O8 0.429264 0.456276 0.544675
O O9 0.876214 0.421661 0.566998
O O10 0.000000 0.309834 0.250000
O O11 0.962916 0.249033 0.364559
O O12 0.223458 0.527588 0.171406
O O13 0.000000 0.584073 0.250000
O O14 0.000000 0.500000 0.000000
O O15 0.000000 0.731285 0.250000
#
# Coordination Sequence:
#
# PCOD9290423 Si02
#       7
#     4   8   8   8   8   8   8
#     4  12  24  38  70 100 148 174 222 298 378 428
#     4  12  27  45  80 106 144 195 254 294 370 443
#     4  10  22  41  65  98 132 183 232 291 349 426
#     4  12  28  51  72  99 148 200 250 310 357 424
#     4  11  21  37  60 101 138 174 216 284 365 430
#     4   9  20  38  67  89 134 174 222 281 363 410
#     4  12  26  45  72 111 146 182 238 307 382 441
#
# _framework density 22.208731
#
# number of rings (size 3 to 8) (size 9 to 14) (size 15 to 20)
#    0.000    0.923    0.769    6.462    8.615    0.000 
#    0.000    0.769   13.538    0.000    0.000    0.000 
#    0.000    0.000    0.000    0.000    0.000    0.000 
#
# Total GULP energy -145118.265496 kJ/mol
# GULP energy per Si atom -5581.471750 kJ/mol
# Density = 2.215818 g / cm^3
# Si number density = 22.208731 Si / 1000 Ang^3
#
#
#
# Elastic Constant Matrix: (Units=GPa)
#
#
# Indices 1 2 3 4 5 6 
#
# 1 76.8261 12.5538 23.6127 0.0000 10.1181 0.0000
# 2 12.5538 119.5890 24.2926 0.0000 3.3409 0.0000
# 3 23.6127 24.2926 72.5574 0.0000 -6.4795 0.0000
# 4 0.0000 0.0000 0.0000 30.7642 0.0000 4.8836
# 5 10.1181 3.3409 -6.4795 0.0000 36.0296 0.0000
# 6 0.0000 0.0000 0.0000 4.8836 0.0000 -502.3685
#
#
#
# Elastic Compliance Matrix: (Units=1/GPa)
#
#
# Indices 1 2 3 4 5 6 
#
# 1 0.015419 -0.000383 -0.005359 0.000000 -0.005258 0.000000
# 2 -0.000383 0.009051 -0.003020 0.000000 -0.001275 0.000000
# 3 -0.005359 -0.003020 0.016969 0.000000 0.004837 0.000000
# 4 0.000000 0.000000 0.000000 0.032455 0.000000 0.000316
# 5 -0.005258 -0.001275 0.004837 0.000000 0.030220 0.000000
# 6 0.000000 0.000000 0.000000 0.000316 0.000000 -0.001988
#
#
# Mechanical properties :
#
#
# Convention : Reuss Voigt Hill
#
# Bulk Modulus (GPa) = 41.81383 43.32119 42.56751
# Shear Modulus (GPa) = 39.17834 -73.21405 -17.01786
#
# Velocity S-wave (km/s) = 4.20467 -5.74786 -2.77116
# Velocity P-wave (km/s) = 6.51467 4.94993 2.99492
#
# Compressibility (1/GPa) = 0.02391553
#
# Stress axis : x y z
#
# Youngs Moduli (GPa) = 64.85657 110.48287 58.93060
#
# Poissons Ratio (x) = 0.04232 0.31581
# Poissons Ratio (y) = 0.02484 0.17794
# Poissons Ratio (z) = 0.34757 0.33361
#
# Static dielectric constant tensor:
#      x y z
#    x 1.887500 0.000000 -0.028210 
#    y 0.000000 1.852290 0.000000 
#    z -0.028210 0.000000 1.836210 
# 
# From -- ./inp_files/130871.got.cif
#   From: 2010.05.17/outbox.cif.g08.bks.cpg/sg15_66_cif.got.tgz:130871.got - 2010.06.03 18:47:42.
