data_PCOD9290009
_publ_section_title
;
Structure prediction by ZEFSAII (Michael W. Deem and Ramdas Pophale) SiO2 
 PCOD9290009
Probable space group: C 2/C
;
_chemical_formula_sum "Si O2"
_cell_formula_units_Z 32
_cell_length_a 10.727482
_cell_length_b 25.416963
_cell_length_c 5.465284
_cell_angle_alpha 90.000000
_cell_angle_beta 110.919140
_cell_angle_gamma 90.000000
_cell_volume 1391.940595
_symmetry_space_group_name_H-M "C 2/C"
_symmetry_group_IT_number 15
_symmetry_cell_setting 'monoclinic'
loop_
_space_group_symop_operation_xyz
x,y,z
-x,y,1/2-z
-x,-y,-z
x,-y,1/2+z
1/2+x,1/2+y,z
1/2-x,1/2+y,1/2-z
1/2-x,1/2-y,-z
1/2+x,1/2-y,1/2+z
loop_
_atom_site_type_symbol
_atom_site_label
_atom_site_fract_x
_atom_site_fract_y
_atom_site_fract_z
Si Si1 0.500000 0.113580 0.250000
Si Si2 0.416271 0.298835 0.943782
Si Si3 0.000000 0.033238 0.250000
Si Si4 0.359861 0.190205 0.780580
Si Si5 0.239065 0.889591 0.815413
O O1 0.590040 0.152171 0.473060
O O2 0.617620 0.086716 0.172266
O O3 0.500000 0.307761 0.750000
O O4 0.318328 0.248984 0.824023
O O5 0.340780 0.353818 0.937501
O O6 0.500000 0.286641 0.250000
O O7 0.134501 0.068124 0.337843
O O8 0.000000 0.000000 0.500000
O O9 0.500000 0.202174 0.750000
O O10 0.272554 0.154768 0.541625
#
# Coordination Sequence:
#
# PCOD9290009 Si02
#       5
#     4   8   4   8   8
#     4  10  22  40  73 102 154 191 242 288 370 436
#     4  11  23  39  68 108 155 201 249 286 355 441
#     4  12  32  56  81 110 138 187 258 326 376 434
#     4   9  20  40  63 108 151 203 236 292 350 453
#     4  11  25  45  76 102 149 197 248 307 375 429
#
# _framework density 22.989488999999999
#
# number of rings (size 3 to 8) (size 9 to 14) (size 15 to 20)
#    0.000    1.500    2.500    0.750    8.750    1.000 
#    0.000    1.250    0.000    0.000    0.000    0.000 
#    0.000    0.000    0.000    0.000    0.000    0.000 
#
# Total GULP energy -89230.820743 kJ/mol
# GULP energy per Si atom -5576.926296 kJ/mol
# Density = 2.293716 g / cm^3
# Si number density = 22.989489 Si / 1000 Ang^3
#
#
#
# Elastic Constant Matrix: (Units=GPa)
#
#
# Indices 1 2 3 4 5 6 
#
# 1 213.3856 74.3050 31.0422 0.0000 -23.5926 0.0000
# 2 74.3050 101.7661 31.3296 0.0000 6.5201 0.0000
# 3 31.0422 31.3296 101.9632 0.0000 2.2978 0.0000
# 4 0.0000 0.0000 0.0000 14.3866 0.0000 -22.8053
# 5 -23.5926 6.5201 2.2978 0.0000 32.1453 0.0000
# 6 0.0000 0.0000 0.0000 -22.8053 0.0000 15.7473
#
#
#
# Elastic Compliance Matrix: (Units=1/GPa)
#
#
# Indices 1 2 3 4 5 6 
#
# 1 0.007517 -0.005708 -0.000686 0.000000 0.006724 0.000000
# 2 -0.005708 0.015313 -0.002807 0.000000 -0.007095 0.000000
# 3 -0.000686 -0.002807 0.010895 0.000000 -0.000713 0.000000
# 4 0.000000 0.000000 0.000000 -0.053648 0.000000 -0.077693
# 5 0.006724 -0.007095 -0.000713 0.000000 0.037534 0.000000
# 6 0.000000 0.000000 0.000000 -0.077693 0.000000 -0.049012
#
#
# Mechanical properties :
#
#
# Convention : Reuss Voigt Hill
#
# Bulk Modulus (GPa) = 65.26690 76.71872 70.99281
# Shear Modulus (GPa) = -633.86013 31.15172 -301.35421
#
# Velocity S-wave (km/s) = -16.62275 3.68508 -11.46159
# Velocity P-wave (km/s) = 18.43827 7.17984 12.00874
#
# Compressibility (1/GPa) = 0.01532170
#
# Stress axis : x y z
#
# Youngs Moduli (GPa) = 133.02460 65.30246 91.78479
#
# Poissons Ratio (x) = 0.37277 0.06298
# Poissons Ratio (y) = 0.75936 0.25768
# Poissons Ratio (z) = 0.09128 0.18333
#
# Static dielectric constant tensor:
#      x y z
#    x 1.627680 0.000000 0.013150 
#    y 0.000000 1.840480 0.000000 
#    z 0.013150 0.000000 1.994630 
# 
# From -- ./inp_files/3993.got.cif
#   From: 2010.05.17/outbox.cif.g08.bks.cpg/sg15_2_cif.got.tgz:3993.got - 2010.06.03 18:47:42.
