data_PCOD9290135
_publ_section_title
;
Structure prediction by ZEFSAII (Michael W. Deem and Ramdas Pophale) SiO2 
 PCOD9290135
Probable space group: C 2/C
;
_chemical_formula_sum "Si O2"
_cell_formula_units_Z 56
_cell_length_a 8.672041
_cell_length_b 25.265170
_cell_length_c 13.554390
_cell_angle_alpha 90.000000
_cell_angle_beta 79.997579
_cell_angle_gamma 90.000000
_cell_volume 2924.635502
_symmetry_space_group_name_H-M "C 2/C"
_symmetry_group_IT_number 15
_symmetry_cell_setting 'monoclinic'
loop_
_space_group_symop_operation_xyz
x,y,z
-x,y,1/2-z
-x,-y,-z
x,-y,1/2+z
1/2+x,1/2+y,z
1/2-x,1/2+y,1/2-z
1/2-x,1/2-y,-z
1/2+x,1/2-y,1/2+z
loop_
_atom_site_type_symbol
_atom_site_label
_atom_site_fract_x
_atom_site_fract_y
_atom_site_fract_z
Si Si1 0.435070 0.251767 0.949716
Si Si2 0.866619 0.644798 0.599619
Si Si3 0.000000 0.176393 0.250000
Si Si4 0.247946 0.911213 0.298659
Si Si5 0.392585 0.412371 0.881377
Si Si6 0.918871 0.553892 0.975594
Si Si7 0.500000 0.507755 0.750000
Si Si8 0.520014 0.349729 0.052885
O O1 0.524602 0.196236 0.927863
O O2 0.478796 0.284123 0.844857
O O3 0.250000 0.250000 0.000000
O O4 0.499863 0.288276 0.029909
O O5 0.847147 0.625302 0.714399
O O6 0.690078 0.646995 0.580323
O O7 0.951114 0.598557 0.531474
O O8 0.871805 0.130776 0.295055
O O9 0.349214 0.940563 0.371801
O O10 0.150136 0.955255 0.249387
O O11 0.116893 0.873541 0.363541
O O12 0.476341 0.466745 0.841668
O O13 0.226391 0.429719 0.940943
O O14 0.493385 0.382785 0.954545
O O15 0.000000 0.500000 0.000000
#
# Coordination Sequence:
#
# PCOD9290135 Si02
#       8
#     8   8   4   8   8   8   4   8
#     4  11  24  40  68  92 125 171 214 273 333 392
#     4  12  23  40  63  95 127 166 213 271 324 387
#     4   9  20  40  62  88 122 162 215 262 326 390
#     4  11  23  40  63  97 126 168 215 270 324 387
#     4   9  21  40  63  88 123 173 214 260 324 396
#     4  11  25  39  62  94 135 168 217 262 327 387
#     4  11  20  38  70  88 124 166 221 260 326 376
#     4  10  22  41  62  93 128 164 217 263 328 393
#
# _framework density 19.147684999999999
#
# number of rings (size 3 to 8) (size 9 to 14) (size 15 to 20)
#    0.000    1.429    1.429    4.286    6.000    1.143 
#    0.000    0.000    0.000    5.143    0.000    0.000 
#    0.000    0.000    0.000    0.000    0.000    0.000 
#
# Total GULP energy -155936.630716 kJ/mol
# GULP energy per Si atom -5569.165383 kJ/mol
# Density = 1.910410 g / cm^3
# Si number density = 19.147685 Si / 1000 Ang^3
#
#
#
# Elastic Constant Matrix: (Units=GPa)
#
#
# Indices 1 2 3 4 5 6 
#
# 1 135.3220 69.4714 49.7438 0.0000 -3.8325 0.0000
# 2 69.4714 182.8719 66.5629 0.0000 -8.4965 0.0000
# 3 49.7438 66.5629 87.3052 0.0000 -17.2789 0.0000
# 4 0.0000 0.0000 0.0000 161.9099 0.0000 180.1249
# 5 -3.8325 -8.4965 -17.2789 0.0000 14.9447 0.0000
# 6 0.0000 0.0000 0.0000 180.1249 0.0000 275.4634
#
#
#
# Elastic Compliance Matrix: (Units=1/GPa)
#
#
# Indices 1 2 3 4 5 6 
#
# 1 0.010274 -0.002296 -0.004979 0.000000 -0.004428 0.000000
# 2 -0.002296 0.008192 -0.005359 0.000000 -0.002127 0.000000
# 3 -0.004979 -0.005359 0.022720 0.000000 0.021945 0.000000
# 4 0.000000 0.000000 0.000000 0.022662 0.000000 -0.014819
# 5 -0.004428 -0.002127 0.021945 0.000000 0.089942 0.000000
# 6 0.000000 0.000000 0.000000 -0.014819 0.000000 0.013320
#
#
# Mechanical properties :
#
#
# Convention : Reuss Voigt Hill
#
# Bulk Modulus (GPa) = 62.82324 86.33945 74.58134
# Shear Modulus (GPa) = 25.29300 105.11166 65.20233
#
# Velocity S-wave (km/s) = 3.63842 7.41717 5.84177
# Velocity P-wave (km/s) = 7.10858 10.88769 9.19439
#
# Compressibility (1/GPa) = 0.01591768
#
# Stress axis : x y z
#
# Youngs Moduli (GPa) = 97.33757 122.06705 44.01456
#
# Poissons Ratio (x) = 0.28029 0.21916
# Poissons Ratio (y) = 0.22350 0.23585
# Poissons Ratio (z) = 0.48466 0.65410
#
# Static dielectric constant tensor:
#      x y z
#    x 1.721110 0.000000 -0.016210 
#    y 0.000000 1.671490 0.000000 
#    z -0.016210 0.000000 1.760300 
# 
# From -- ./inp_files/137306.got.cif
#   From: 2010.05.17/outbox.cif.g08.bks.cpg/sg15_69_cif.got.tgz:137306.got - 2010.06.03 18:47:42.
