data_PCOD9290865
_publ_section_title
;
Structure prediction by ZEFSAII (Michael W. Deem and Ramdas Pophale) SiO2 
 PCOD9290865
Probable space group: C 2/C
;
_chemical_formula_sum "Si O2"
_cell_formula_units_Z 40
_cell_length_a 15.482248
_cell_length_b 7.213376
_cell_length_c 14.370198
_cell_angle_alpha 90.000000
_cell_angle_beta 64.041852
_cell_angle_gamma 90.000000
_cell_volume 1442.946107
_symmetry_space_group_name_H-M "C 2/C"
_symmetry_group_IT_number 15
_symmetry_cell_setting 'monoclinic'
loop_
_space_group_symop_operation_xyz
x,y,z
-x,y,1/2-z
-x,-y,-z
x,-y,1/2+z
1/2+x,1/2+y,z
1/2-x,1/2+y,1/2-z
1/2-x,1/2-y,-z
1/2+x,1/2-y,1/2+z
loop_
_atom_site_type_symbol
_atom_site_label
_atom_site_fract_x
_atom_site_fract_y
_atom_site_fract_z
Si Si1 0.345553 0.492135 0.456020
Si Si2 0.131414 0.078822 0.766885
Si Si3 0.149081 0.502464 0.798303
Si Si4 0.500000 0.912294 0.250000
Si Si5 0.500000 0.500000 0.500000
Si Si6 0.624917 0.065983 0.022966
O O1 0.376307 0.488589 0.335066
O O2 0.406934 0.620351 0.494263
O O3 0.376549 0.291553 0.484627
O O4 0.230407 0.497431 0.509481
O O5 0.128868 0.302551 0.763625
O O6 0.051657 0.012717 0.875200
O O7 0.237238 0.030645 0.754062
O O8 0.095598 0.653889 0.759430
O O9 0.114820 0.508549 0.920928
O O10 0.549051 0.008807 0.136156
#
# Coordination Sequence:
#
# PCOD9290865 Si02
#       6
#     8   8   8   4   4   8
#     4  10  22  44  71  96 141 186 230 273 359 415
#     4  11  25  47  73 101 144 185 229 287 352 419
#     4  11  25  45  73 102 139 186 233 281 354 416
#     4  12  20  40  66 104 132 180 230 284 336 426
#     4  12  24  38  74 108 130 186 238 290 320 432
#     4  10  22  41  72  97 133 187 228 282 341 424
#
# _framework density 27.721063999999998
#
# number of rings (size 3 to 8) (size 9 to 14) (size 15 to 20)
#    0.000    1.200    2.000    3.600    5.600    0.000 
#    0.000   13.000    0.000    0.000    0.000    0.000 
#    0.000    0.000    0.000    0.000    0.000    0.000 
#
# Total GULP energy -111674.393659 kJ/mol
# GULP energy per Si atom -5583.719683 kJ/mol
# Density = 2.765797 g / cm^3
# Si number density = 27.721064 Si / 1000 Ang^3
#
#
#
# Elastic Constant Matrix: (Units=GPa)
#
#
# Indices 1 2 3 4 5 6 
#
# 1 111.0867 -2.2059 73.5401 0.0000 2.7617 0.0000
# 2 -2.2059 81.0806 40.2388 0.0000 2.9510 0.0000
# 3 73.5401 40.2388 176.4348 0.0000 -24.8062 0.0000
# 4 0.0000 0.0000 0.0000 -13.6665 0.0000 -10.7414
# 5 2.7617 2.9510 -24.8062 0.0000 44.6616 0.0000
# 6 0.0000 0.0000 0.0000 -10.7414 0.0000 5.1521
#
#
#
# Elastic Compliance Matrix: (Units=1/GPa)
#
#
# Indices 1 2 3 4 5 6 
#
# 1 0.014381 0.004455 -0.007784 0.000000 -0.005507 0.000000
# 2 0.004455 0.015645 -0.006084 0.000000 -0.004688 0.000000
# 3 -0.007784 -0.006084 0.011307 0.000000 0.007164 0.000000
# 4 0.000000 0.000000 0.000000 -0.027731 0.000000 -0.057815
# 5 -0.005507 -0.004688 0.007164 0.000000 0.027020 0.000000
# 6 0.000000 0.000000 0.000000 -0.057815 0.000000 0.073559
#
#
# Mechanical properties :
#
#
# Convention : Reuss Voigt Hill
#
# Bulk Modulus (GPa) = 44.43360 65.74978 55.09169
# Shear Modulus (GPa) = 35.58496 24.36473 29.97484
#
# Velocity S-wave (km/s) = 3.58673 2.96788 3.29188
# Velocity P-wave (km/s) = 5.76338 5.95939 5.86220
#
# Compressibility (1/GPa) = 0.02250549
#
# Stress axis : x y z
#
# Youngs Moduli (GPa) = 69.53803 63.91965 88.43958
#
# Poissons Ratio (x) = -0.28475 0.68844
# Poissons Ratio (y) = -0.30978 0.53807
# Poissons Ratio (z) = 0.54131 0.38889
#
# Static dielectric constant tensor:
#      x y z
#    x 2.238560 0.000000 0.016820 
#    y 0.000000 0.687000 0.000000 
#    z 0.016820 0.000000 1.959120 
# 
# From -- ./inp_files/159163.got.cif
#   From: 2010.05.17/outbox.cif.g08.bks.cpg/sg15_80_cif.got.tgz:159163.got - 2010.06.03 18:47:42.
