data_PCOD9290264
_publ_section_title
;
Structure prediction by ZEFSAII (Michael W. Deem and Ramdas Pophale) SiO2 
 PCOD9290264
Probable space group: C 2/C
;
_chemical_formula_sum "Si O2"
_cell_formula_units_Z 36
_cell_length_a 15.757514
_cell_length_b 10.078395
_cell_length_c 9.454813
_cell_angle_alpha 90.000000
_cell_angle_beta 92.638540
_cell_angle_gamma 90.000000
_cell_volume 1499.931241
_symmetry_space_group_name_H-M "C 2/C"
_symmetry_group_IT_number 15
_symmetry_cell_setting 'monoclinic'
loop_
_space_group_symop_operation_xyz
x,y,z
-x,y,1/2-z
-x,-y,-z
x,-y,1/2+z
1/2+x,1/2+y,z
1/2-x,1/2+y,1/2-z
1/2-x,1/2-y,-z
1/2+x,1/2-y,1/2+z
loop_
_atom_site_type_symbol
_atom_site_label
_atom_site_fract_x
_atom_site_fract_y
_atom_site_fract_z
Si Si1 0.559854 0.994049 0.870082
Si Si2 0.900726 0.095903 0.476351
Si Si3 0.000000 0.251469 0.250000
Si Si4 0.345327 0.609808 0.772959
Si Si5 0.732462 0.127281 0.318783
O O1 0.500000 0.921703 0.750000
O O2 0.649706 0.926648 0.893020
O O3 0.570426 0.143417 0.810283
O O4 0.500000 0.000000 0.000000
O O5 0.966543 0.166521 0.377701
O O6 0.908316 0.108188 0.643727
O O7 0.809681 0.161470 0.429150
O O8 0.889264 0.945665 0.417743
O O9 0.299800 0.750720 0.777006
O O10 0.274545 0.495251 0.736159
#
# Coordination Sequence:
#
# PCOD9290264 Si02
#       5
#     8   8   4   8   8
#     4  10  23  38  64  91 124 168 213 255 306 376
#     4  10  23  40  67  87 130 168 210 254 322 375
#     4  10  22  44  64  92 128 178 198 258 330 374
#     4  10  23  39  65  92 124 171 205 263 305 388
#     4  10  22  41  64  94 127 167 211 257 321 369
#
# _framework density 24.001103000000001
#
# number of rings (size 3 to 8) (size 9 to 14) (size 15 to 20)
#    2.000    0.000    0.000    3.333    3.111    1.778 
#    6.000    0.000    0.000    0.000    0.000    0.000 
#    0.000    0.000    0.000    0.000    0.000    0.000 
#
# Total GULP energy -100469.175275 kJ/mol
# GULP energy per Si atom -5581.620849 kJ/mol
# Density = 2.394648 g / cm^3
# Si number density = 24.001103 Si / 1000 Ang^3
#
#
#
# Elastic Constant Matrix: (Units=GPa)
#
#
# Indices 1 2 3 4 5 6 
#
# 1 91.7185 31.0303 24.1951 0.0000 -10.8224 0.0000
# 2 31.0303 116.6951 8.8574 0.0000 -16.0687 0.0000
# 3 24.1951 8.8574 96.1249 0.0000 -17.4483 0.0000
# 4 0.0000 0.0000 0.0000 18.0890 0.0000 -5.7720
# 5 -10.8224 -16.0687 -17.4483 0.0000 26.8592 0.0000
# 6 0.0000 0.0000 0.0000 -5.7720 0.0000 32.8127
#
#
#
# Elastic Compliance Matrix: (Units=1/GPa)
#
#
# Indices 1 2 3 4 5 6 
#
# 1 0.012804 -0.002975 -0.002647 0.000000 0.001659 0.000000
# 2 -0.002975 0.010033 0.000789 0.000000 0.005316 0.000000
# 3 -0.002647 0.000789 0.012344 0.000000 0.007425 0.000000
# 4 0.000000 0.000000 0.000000 0.058570 0.000000 0.010303
# 5 0.001659 0.005316 0.007425 0.000000 0.045903 0.000000
# 6 0.000000 0.000000 0.000000 0.010303 0.000000 0.032288
#
#
# Mechanical properties :
#
#
# Convention : Reuss Voigt Hill
#
# Bulk Modulus (GPa) = 39.19377 48.07823 43.63600
# Shear Modulus (GPa) = 26.30006 31.58255 28.94130
#
# Velocity S-wave (km/s) = 3.31386 3.63144 3.47628
# Velocity P-wave (km/s) = 5.56845 6.13664 5.85943
#
# Compressibility (1/GPa) = 0.02551426
#
# Stress axis : x y z
#
# Youngs Moduli (GPa) = 78.10272 99.67548 81.00782
#
# Poissons Ratio (x) = 0.29655 0.21446
# Poissons Ratio (y) = 0.23237 -0.06394
# Poissons Ratio (z) = 0.20677 -0.07868
#
# Static dielectric constant tensor:
#      x y z
#    x 1.942190 0.000000 0.027170 
#    y 0.000000 1.991290 0.000000 
#    z 0.027170 0.000000 1.880860 
# 
# From -- ./inp_files/109505.got.cif
#   From: 2010.05.17/outbox.cif.g08.bks.cpg/sg15_55_cif.got.tgz:109505.got - 2010.06.03 18:47:42.
