data_PCOD9290416
_publ_section_title
;
Structure prediction by ZEFSAII (Michael W. Deem and Ramdas Pophale) SiO2 
 PCOD9290416
Probable space group: C 2/C
;
_chemical_formula_sum "Si O2"
_cell_formula_units_Z 64
_cell_length_a 14.484680
_cell_length_b 28.233771
_cell_length_c 8.903858
_cell_angle_alpha 90.000000
_cell_angle_beta 53.460749
_cell_angle_gamma 90.000000
_cell_volume 2925.596527
_symmetry_space_group_name_H-M "C 2/C"
_symmetry_group_IT_number 15
_symmetry_cell_setting 'monoclinic'
loop_
_space_group_symop_operation_xyz
x,y,z
-x,y,1/2-z
-x,-y,-z
x,-y,1/2+z
1/2+x,1/2+y,z
1/2-x,1/2+y,1/2-z
1/2-x,1/2-y,-z
1/2+x,1/2-y,1/2+z
loop_
_atom_site_type_symbol
_atom_site_label
_atom_site_fract_x
_atom_site_fract_y
_atom_site_fract_z
Si Si1 0.868246 0.888344 0.647363
Si Si2 0.693665 0.147552 0.769814
Si Si3 0.373209 0.506767 0.194840
Si Si4 0.998301 0.713945 0.568549
Si Si5 0.384750 0.971395 0.654803
Si Si6 0.143384 0.627215 0.490183
Si Si7 0.747325 0.071888 0.973777
Si Si8 0.448234 0.318643 0.969026
O O1 0.881980 0.937729 0.724382
O O2 0.776385 0.860545 0.833846
O O3 0.195826 0.898869 0.945891
O O4 0.982219 0.859482 0.512945
O O5 0.620449 0.194165 0.881661
O O6 0.629269 0.127207 0.683572
O O7 0.709405 0.106602 0.877410
O O8 0.817237 0.166925 0.605357
O O9 0.242630 0.504005 0.246591
O O10 0.348670 0.465710 0.337275
O O11 0.500000 0.500000 0.000000
O O12 0.000000 0.717714 0.750000
O O13 0.080771 0.669327 0.463871
O O14 0.031934 0.766127 0.485051
O O15 0.383931 0.924013 0.552773
O O16 0.636014 0.954515 0.653051
O O17 0.500000 0.000000 0.500000
O O18 0.500000 0.319895 0.750000
#
# Coordination Sequence:
#
# PCOD9290416 Si02
#       8
#     8   8   8   8   8   8   8   8
#     4  10  23  44  64  98 137 176 226 287 346 417
#     4  11  22  40  67 103 129 179 237 290 354 419
#     4  10  22  41  65  97 132 184 230 279 342 416
#     4   9  22  38  65  98 129 179 224 291 345 420
#     4  10  25  47  68 100 143 191 232 285 354 428
#     4   9  20  42  66  94 136 175 227 286 341 420
#     4  10  24  45  71  99 143 184 229 296 354 425
#     4  11  22  39  70  99 133 178 235 294 354 427
#
# _framework density 21.875879999999999
#
# number of rings (size 3 to 8) (size 9 to 14) (size 15 to 20)
#    0.000    2.250    1.250    0.750    3.500   10.500 
#   15.750    1.250    5.500    0.000    0.000    0.000 
#    0.000    0.000    0.000    0.000    0.000    0.000 
#
# Total GULP energy -178250.801304 kJ/mol
# GULP energy per Si atom -5570.337541 kJ/mol
# Density = 2.182609 g / cm^3
# Si number density = 21.875880 Si / 1000 Ang^3
#
#
#
# Elastic Constant Matrix: (Units=GPa)
#
#
# Indices 1 2 3 4 5 6 
#
# 1 73.8623 57.0299 41.8047 0.0000 -8.5783 0.0000
# 2 57.0299 113.8649 71.0807 0.0000 -16.0909 0.0000
# 3 41.8047 71.0807 148.4119 0.0000 -28.9112 0.0000
# 4 0.0000 0.0000 0.0000 11.5732 0.0000 -3.5063
# 5 -8.5783 -16.0909 -28.9112 0.0000 37.0230 0.0000
# 6 0.0000 0.0000 0.0000 -3.5063 0.0000 14.9214
#
#
#
# Elastic Compliance Matrix: (Units=1/GPa)
#
#
# Indices 1 2 3 4 5 6 
#
# 1 0.022263 -0.010334 -0.001406 0.000000 -0.000431 0.000000
# 2 -0.010334 0.017350 -0.005185 0.000000 0.001097 0.000000
# 3 -0.001406 -0.005185 0.010750 0.000000 0.005816 0.000000
# 4 0.000000 0.000000 0.000000 0.093029 0.000000 0.021860
# 5 -0.000431 0.001097 0.005816 0.000000 0.031929 0.000000
# 6 0.000000 0.000000 0.000000 0.021860 0.000000 0.072155
#
#
# Mechanical properties :
#
#
# Convention : Reuss Voigt Hill
#
# Bulk Modulus (GPa) = 60.55420 75.10774 67.83097
# Shear Modulus (GPa) = 17.43192 23.78512 20.60852
#
# Velocity S-wave (km/s) = 2.82593 3.30096 3.07264
# Velocity P-wave (km/s) = 6.19586 6.99547 6.60777
#
# Compressibility (1/GPa) = 0.01651413
#
# Stress axis : x y z
#
# Youngs Moduli (GPa) = 44.91697 57.63665 93.02200
#
# Poissons Ratio (x) = 0.59562 0.13075
# Poissons Ratio (y) = 0.46418 0.48232
# Poissons Ratio (z) = 0.06313 0.29885
#
# Static dielectric constant tensor:
#      x y z
#    x 1.909890 0.000000 -0.002380 
#    y 0.000000 1.815240 0.000000 
#    z -0.002380 0.000000 1.906540 
# 
# From -- ./inp_files/63601.got.cif
#   From: 2010.05.17/outbox.cif.g08.bks.cpg/sg15_32_cif.got.tgz:63601.got - 2010.06.03 18:47:42.
