data_PCOD9290082
_publ_section_title
;
Structure prediction by ZEFSAII (Michael W. Deem and Ramdas Pophale) SiO2 
 PCOD9290082
Probable space group: C 2/C
;
_chemical_formula_sum "Si O2"
_cell_formula_units_Z 24
_cell_length_a 9.490896
_cell_length_b 7.178453
_cell_length_c 15.873502
_cell_angle_alpha 90.000000
_cell_angle_beta 62.360423
_cell_angle_gamma 90.000000
_cell_volume 958.048211
_symmetry_space_group_name_H-M "C 2/C"
_symmetry_group_IT_number 15
_symmetry_cell_setting 'monoclinic'
loop_
_space_group_symop_operation_xyz
x,y,z
-x,y,1/2-z
-x,-y,-z
x,-y,1/2+z
1/2+x,1/2+y,z
1/2-x,1/2+y,1/2-z
1/2-x,1/2-y,-z
1/2+x,1/2-y,1/2+z
loop_
_atom_site_type_symbol
_atom_site_label
_atom_site_fract_x
_atom_site_fract_y
_atom_site_fract_z
Si Si1 0.819695 0.370647 0.795963
Si Si2 0.273516 0.702699 0.365471
Si Si3 0.497928 0.312021 0.553689
O O1 0.767631 0.379298 0.713379
O O2 0.810310 0.578109 0.837023
O O3 0.684603 0.254839 0.882922
O O4 0.000000 0.300724 0.750000
O O5 0.121218 0.682671 0.469619
O O6 0.074396 0.859072 0.623210
O O7 0.500000 0.500000 0.500000
#
# Coordination Sequence:
#
# PCOD9290082 Si02
#       3
#     8   8   8
#     4  11  22  37  61  90 120 155 197 246 295 349
#     4  10  22  41  61  86 121 157 198 245 293 350
#     4   9  20  40  62  85 119 159 197 242 293 349
#
# _framework density 25.050930000000001
#
# number of rings (size 3 to 8) (size 9 to 14) (size 15 to 20)
#    0.000    2.000    0.000    3.000    0.000    6.667 
#    0.000   23.333    0.000    0.000    0.000    0.000 
#    0.000    0.000    0.000    0.000    0.000    0.000 
#
# Total GULP energy -67158.458121 kJ/mol
# GULP energy per Si atom -5596.538177 kJ/mol
# Density = 2.499391 g / cm^3
# Si number density = 25.050930 Si / 1000 Ang^3
#
#
#
# Elastic Constant Matrix: (Units=GPa)
#
#
# Indices 1 2 3 4 5 6 
#
# 1 169.6939 17.5470 105.2373 0.0000 -27.6295 0.0000
# 2 17.5470 41.2737 3.8910 0.0000 -1.6055 0.0000
# 3 105.2373 3.8910 160.8710 0.0000 -35.2001 0.0000
# 4 0.0000 0.0000 0.0000 32.3171 0.0000 12.9474
# 5 -27.6295 -1.6055 -35.2001 0.0000 75.3460 0.0000
# 6 0.0000 0.0000 0.0000 12.9474 0.0000 28.9746
#
#
#
# Elastic Compliance Matrix: (Units=1/GPa)
#
#
# Indices 1 2 3 4 5 6 
#
# 1 0.010514 -0.003818 -0.006639 0.000000 0.000673 0.000000
# 2 -0.003818 0.025675 0.001882 0.000000 0.000026 0.000000
# 3 -0.006639 0.001882 0.011127 0.000000 0.002804 0.000000
# 4 0.000000 0.000000 0.000000 0.037691 0.000000 -0.016842
# 5 0.000673 0.000026 0.002804 0.000000 0.014829 0.000000
# 6 0.000000 0.000000 0.000000 -0.016842 0.000000 0.042039
#
#
# Mechanical properties :
#
#
# Convention : Reuss Voigt Hill
#
# Bulk Modulus (GPa) = 33.14754 69.46546 51.30650
# Shear Modulus (GPa) = 29.57176 43.67178 36.62177
#
# Velocity S-wave (km/s) = 3.43952 4.17984 3.82762
# Velocity P-wave (km/s) = 5.38837 7.14735 6.32926
#
# Compressibility (1/GPa) = 0.03016815
#
# Stress axis : x y z
#
# Youngs Moduli (GPa) = 95.10864 38.94802 89.87185
#
# Poissons Ratio (x) = 0.14870 0.59662
# Poissons Ratio (y) = 0.36312 -0.16918
# Poissons Ratio (z) = 0.63139 -0.07332
#
# Static dielectric constant tensor:
#      x y z
#    x 1.954120 0.000000 -0.069130 
#    y 0.000000 2.005600 0.000000 
#    z -0.069130 0.000000 2.000740 
# 
# From -- ./inp_files/53523.got.cif
#   From: 2010.05.17/outbox.cif.g08.bks.cpg/sg15_27_cif.got.tgz:53523.got - 2010.06.03 18:47:42.
