data_PCOD9291978
_publ_section_title
;
Structure prediction by ZEFSAII (Michael W. Deem and Ramdas Pophale) SiO2 
 PCOD9291978
Probable space group: C 2/C
;
_chemical_formula_sum "Si O2"
_cell_formula_units_Z 52
_cell_length_a 15.932247
_cell_length_b 11.695812
_cell_length_c 15.484312
_cell_angle_alpha 90.000000
_cell_angle_beta 63.373461
_cell_angle_gamma 90.000000
_cell_volume 2579.354110
_symmetry_space_group_name_H-M "C 2/C"
_symmetry_group_IT_number 15
_symmetry_cell_setting 'monoclinic'
loop_
_space_group_symop_operation_xyz
x,y,z
-x,y,1/2-z
-x,-y,-z
x,-y,1/2+z
1/2+x,1/2+y,z
1/2-x,1/2+y,1/2-z
1/2-x,1/2-y,-z
1/2+x,1/2-y,1/2+z
loop_
_atom_site_type_symbol
_atom_site_label
_atom_site_fract_x
_atom_site_fract_y
_atom_site_fract_z
Si Si1 0.141357 0.971849 0.279119
Si Si2 0.777372 0.617750 0.317986
Si Si3 0.917007 0.559254 0.392852
Si Si4 0.506122 0.187154 0.593195
Si Si5 0.500000 0.639610 0.250000
Si Si6 0.422792 0.770097 0.631645
Si Si7 0.694052 0.154412 0.896164
O O1 0.082382 0.862314 0.338606
O O2 0.229457 0.922581 0.185978
O O3 0.188732 0.041044 0.335492
O O4 0.081119 0.057345 0.248837
O O5 0.857836 0.552599 0.332922
O O6 0.826673 0.671056 0.209797
O O7 0.744033 0.724918 0.390636
O O8 0.965653 0.439654 0.390835
O O9 0.846717 0.590184 0.502841
O O10 0.992987 0.661464 0.360228
O O11 0.528149 0.278257 0.657440
O O12 0.558108 0.215729 0.478911
O O13 0.394994 0.183315 0.623639
#
# Coordination Sequence:
#
# PCOD9291978 Si02
#       7
#     8   8   8   8   4   8   8
#     4  11  25  43  66  93 137 169 216 272 331 389
#     4  11  22  40  64 100 130 169 216 271 324 384
#     4  11  23  40  71  98 127 172 223 266 318 392
#     4  11  24  46  68  96 132 172 223 264 326 387
#     4  12  28  44  64  98 130 178 214 278 334 388
#     4  10  24  42  71  98 131 175 217 269 325 389
#     4  10  22  43  64  94 132 170 216 269 319 388
#
# _framework density 20.160084999999999
#
# number of rings (size 3 to 8) (size 9 to 14) (size 15 to 20)
#    0.000    1.231    1.538    4.615    8.615    1.846 
#    0.000    2.308    0.000    0.000    0.000    0.000 
#    0.000    0.000    0.000    0.000    0.000    0.000 
#
# Total GULP energy -145358.331058 kJ/mol
# GULP energy per Si atom -5590.705041 kJ/mol
# Density = 2.011420 g / cm^3
# Si number density = 20.160085 Si / 1000 Ang^3
#
#
#
# Elastic Constant Matrix: (Units=GPa)
#
#
# Indices 1 2 3 4 5 6 
#
# 1 81.2593 47.3586 40.8954 0.0000 13.8927 0.0000
# 2 47.3586 118.9800 57.2708 0.0000 1.8919 0.0000
# 3 40.8954 57.2708 77.3333 0.0000 6.4661 0.0000
# 4 0.0000 0.0000 0.0000 72.5498 0.0000 92.3439
# 5 13.8927 1.8919 6.4661 0.0000 31.8325 0.0000
# 6 0.0000 0.0000 0.0000 92.3439 0.0000 171.7328
#
#
#
# Elastic Compliance Matrix: (Units=1/GPa)
#
#
# Indices 1 2 3 4 5 6 
#
# 1 0.019282 -0.004560 -0.006245 0.000000 -0.006876 0.000000
# 2 -0.004560 0.014185 -0.008331 0.000000 0.002839 0.000000
# 3 -0.006245 -0.008331 0.022516 0.000000 -0.001353 0.000000
# 4 0.000000 0.000000 0.000000 0.043678 0.000000 -0.023486
# 5 -0.006876 0.002839 -0.001353 0.000000 0.034521 0.000000
# 6 0.000000 0.000000 0.000000 -0.023486 0.000000 0.018452
#
#
# Mechanical properties :
#
#
# Convention : Reuss Voigt Hill
#
# Bulk Modulus (GPa) = 56.45954 63.18024 59.81989
# Shear Modulus (GPa) = 25.40522 64.02621 44.71572
#
# Velocity S-wave (km/s) = 3.55374 5.64162 4.71471
# Velocity P-wave (km/s) = 6.70113 8.59328 7.70551
#
# Compressibility (1/GPa) = 0.01771180
#
# Stress axis : x y z
#
# Youngs Moduli (GPa) = 51.86123 70.49905 44.41218
#
# Poissons Ratio (x) = 0.32145 0.27736
# Poissons Ratio (y) = 0.23647 0.36999
# Poissons Ratio (z) = 0.32388 0.58732
#
# Static dielectric constant tensor:
#      x y z
#    x 1.694840 0.000000 0.013120 
#    y 0.000000 1.703180 0.000000 
#    z 0.013120 0.000000 1.727390 
# 
# From -- ./inp_files/152554.got.cif
#   From: 2010.05.17/outbox.cif.g08.bks.cpg/sg15_77_cif.got.tgz:152554.got - 2010.06.03 18:47:42.
