data_PCOD9291020
_publ_section_title
;
Structure prediction by ZEFSAII (Michael W. Deem and Ramdas Pophale) SiO2 
 PCOD9291020
Probable space group: C 2/C
;
_chemical_formula_sum "Si O2"
_cell_formula_units_Z 48
_cell_length_a 17.119336
_cell_length_b 9.469236
_cell_length_c 32.107276
_cell_angle_alpha 90.000000
_cell_angle_beta 153.229156
_cell_angle_gamma 90.000000
_cell_volume 2344.369921
_symmetry_space_group_name_H-M "C 2/C"
_symmetry_group_IT_number 15
_symmetry_cell_setting 'monoclinic'
loop_
_space_group_symop_operation_xyz
x,y,z
-x,y,1/2-z
-x,-y,-z
x,-y,1/2+z
1/2+x,1/2+y,z
1/2-x,1/2+y,1/2-z
1/2-x,1/2-y,-z
1/2+x,1/2-y,1/2+z
loop_
_atom_site_type_symbol
_atom_site_label
_atom_site_fract_x
_atom_site_fract_y
_atom_site_fract_z
Si Si1 0.002292 0.396579 0.202792
Si Si2 0.824709 0.195276 0.688026
Si Si3 0.330202 0.666263 0.999012
Si Si4 0.714332 0.411055 0.703358
Si Si5 0.194072 0.875701 0.790619
Si Si6 0.028961 0.332108 0.512715
O O1 0.167616 0.463712 0.258510
O O2 0.029538 0.227133 0.214094
O O3 0.000000 0.437547 0.250000
O O4 0.823053 0.427893 0.093818
O O5 0.783813 0.274627 0.711449
O O6 0.664589 0.228775 0.581058
O O7 0.000000 0.241222 0.750000
O O8 0.835729 0.028609 0.703262
O O9 0.385185 0.776828 0.988996
O O10 0.250000 0.750000 0.000000
O O11 0.507180 0.585106 0.095866
O O12 0.742510 0.397435 0.765807
O O13 0.345675 0.800120 0.889325
O O14 0.000000 0.500000 0.500000
#
# Coordination Sequence:
#
# PCOD9291020 Si02
#       6
#     8   8   8   8   8   8
#     4  12  24  42  68  95 129 172 216 261 326 389
#     4  10  22  42  63  89 130 167 208 266 326 372
#     4  11  23  42  66  94 130 174 213 264 330 379
#     4  11  25  42  63  95 134 164 210 269 324 383
#     4  11  21  41  66  93 122 164 222 263 305 388
#     4   9  21  37  64  93 121 163 216 264 310 378
#
# _framework density 20.474584
#
# number of rings (size 3 to 8) (size 9 to 14) (size 15 to 20)
#    0.000    1.333    3.333    2.000    7.000    0.667 
#    3.000    0.833    0.000    0.000    0.000    0.000 
#    0.000    0.000    0.000    0.000    0.000    0.000 
#
# Total GULP energy -134029.972042 kJ/mol
# GULP energy per Si atom -5584.582168 kJ/mol
# Density = 2.042798 g / cm^3
# Si number density = 20.474584 Si / 1000 Ang^3
#
#
#
# Elastic Constant Matrix: (Units=GPa)
#
#
# Indices 1 2 3 4 5 6 
#
# 1 128.2475 6.6887 85.8030 0.0000 -5.4273 0.0000
# 2 6.6887 53.9247 13.7678 0.0001 6.1273 0.0000
# 3 85.8030 13.7678 153.1699 0.0005 7.4492 0.0000
# 4 0.0000 0.0001 0.0005 17.9562 0.0000 8.2133
# 5 -5.4273 6.1273 7.4492 0.0000 41.9390 0.0000
# 6 0.0000 0.0000 0.0000 8.2133 0.0000 30.7258
#
#
#
# Elastic Compliance Matrix: (Units=1/GPa)
#
#
# Indices 1 2 3 4 5 6 
#
# 1 0.012826 -0.000058 -0.007324 0.000000 0.002969 0.000000
# 2 -0.000058 0.019242 -0.001573 0.000000 -0.002539 0.000000
# 3 -0.007324 -0.001573 0.010902 0.000000 -0.002654 0.000000
# 4 0.000000 0.000000 0.000000 0.063449 0.000000 -0.016961
# 5 0.002969 -0.002539 -0.002654 0.000000 0.025071 0.000000
# 6 0.000000 0.000000 0.000000 -0.016961 0.000000 0.037080
#
#
# Mechanical properties :
#
#
# Convention : Reuss Voigt Hill
#
# Bulk Modulus (GPa) = 39.90685 60.87345 50.39015
# Shear Modulus (GPa) = 25.66279 33.39637 29.52958
#
# Velocity S-wave (km/s) = 3.54418 4.04309 3.80182
# Velocity P-wave (km/s) = 6.02341 7.18270 6.62845
#
# Compressibility (1/GPa) = 0.02505835
#
# Stress axis : x y z
#
# Youngs Moduli (GPa) = 77.96447 51.97005 91.72522
#
# Poissons Ratio (x) = 0.00303 0.67182
# Poissons Ratio (y) = 0.00455 0.14432
# Poissons Ratio (z) = 0.57103 0.08177
#
# Static dielectric constant tensor:
#      x y z
#    x 1.690860 0.000000 0.001730 
#    y 0.000000 1.757060 0.000000 
#    z 0.001730 0.000000 1.781820 
# 
# From -- ./inp_files/313645.got.cif
#   From: 2010.05.17/outbox.cif.g08.bks.cpg/sg15_157_cif.got.tgz:313645.got - 2010.06.03 18:47:42.
