data_PCOD9291914
_publ_section_title
;
Structure prediction by ZEFSAII (Michael W. Deem and Ramdas Pophale) SiO2 
 PCOD9291914
Probable space group: C 2/C
;
_chemical_formula_sum "Si O2"
_cell_formula_units_Z 52
_cell_length_a 18.228038
_cell_length_b 19.897765
_cell_length_c 8.811032
_cell_angle_alpha 90.000000
_cell_angle_beta 57.464654
_cell_angle_gamma 90.000000
_cell_volume 2694.197285
_symmetry_space_group_name_H-M "C 2/C"
_symmetry_group_IT_number 15
_symmetry_cell_setting 'monoclinic'
loop_
_space_group_symop_operation_xyz
x,y,z
-x,y,1/2-z
-x,-y,-z
x,-y,1/2+z
1/2+x,1/2+y,z
1/2-x,1/2+y,1/2-z
1/2-x,1/2-y,-z
1/2+x,1/2-y,1/2+z
loop_
_atom_site_type_symbol
_atom_site_label
_atom_site_fract_x
_atom_site_fract_y
_atom_site_fract_z
Si Si1 0.000000 0.981752 0.250000
Si Si2 0.853526 0.299326 0.260531
Si Si3 0.112651 0.073285 0.897748
Si Si4 0.027960 0.307303 0.884673
Si Si5 0.814033 0.557884 0.693377
Si Si6 0.833513 0.773559 0.105253
Si Si7 0.415543 0.048585 0.273300
O O1 0.059370 0.938340 0.300400
O O2 0.938704 0.030249 0.419136
O O3 0.832516 0.379041 0.284460
O O4 0.849443 0.260649 0.423846
O O5 0.770506 0.273971 0.255725
O O6 0.948405 0.291223 0.084333
O O7 0.211885 0.047018 0.780215
O O8 0.126192 0.151511 0.927695
O O9 0.115845 0.271662 0.833306
O O10 0.045794 0.386749 0.854729
O O11 0.000000 0.284688 0.750000
O O12 0.857771 0.571398 0.481314
O O13 0.859885 0.495246 0.721288
O O14 0.500000 0.011320 0.250000
#
# Coordination Sequence:
#
# PCOD9291914 Si02
#       7
#     4   8   8   8   8   8   8
#     4  10  22  44  66  96 128 160 216 272 322 382
#     4  10  22  43  61  92 128 164 220 263 314 390
#     4  10  23  43  67  96 125 166 215 269 321 387
#     4  11  23  41  60  94 128 164 213 265 320 382
#     4  11  22  41  63  92 131 167 216 261 324 381
#     4  10  24  41  66  91 125 174 213 266 322 383
#     4  11  23  38  60  94 128 172 210 259 316 388
#
# _framework density 19.300737999999999
#
# number of rings (size 3 to 8) (size 9 to 14) (size 15 to 20)
#    0.000    1.538    3.077    1.846    5.385    0.615 
#    2.769    0.000    0.000    0.000    0.000    0.000 
#    0.000    0.000    0.000    0.000    0.000    0.000 
#
# Total GULP energy -145103.929018 kJ/mol
# GULP energy per Si atom -5580.920347 kJ/mol
# Density = 1.925681 g / cm^3
# Si number density = 19.300738 Si / 1000 Ang^3
#
#
#
# Elastic Constant Matrix: (Units=GPa)
#
#
# Indices 1 2 3 4 5 6 
#
# 1 122.5427 38.8819 26.6313 0.0000 0.4242 0.0000
# 2 38.8819 45.6329 17.6238 0.0000 5.8156 0.0000
# 3 26.6313 17.6238 66.7307 0.0000 -13.5139 0.0000
# 4 0.0000 0.0000 0.0000 23.2538 0.0000 -2.9004
# 5 0.4242 5.8156 -13.5139 0.0000 29.9451 0.0000
# 6 0.0000 0.0000 0.0000 -2.9004 0.0000 39.5576
#
#
#
# Elastic Compliance Matrix: (Units=1/GPa)
#
#
# Indices 1 2 3 4 5 6 
#
# 1 0.011484 -0.009081 -0.002048 0.000000 0.000677 0.000000
# 2 -0.009081 0.033676 -0.007229 0.000000 -0.009674 0.000000
# 3 -0.002048 -0.007229 0.019813 0.000000 0.010374 0.000000
# 4 0.000000 0.000000 0.000000 0.043401 0.000000 0.003182
# 5 0.000677 -0.009674 0.010374 0.000000 0.039945 0.000000
# 6 0.000000 0.000000 0.000000 0.003182 0.000000 0.025513
#
#
# Mechanical properties :
#
#
# Convention : Reuss Voigt Hill
#
# Bulk Modulus (GPa) = 35.38814 44.57559 39.98187
# Shear Modulus (GPa) = 22.73066 28.66926 25.69996
#
# Velocity S-wave (km/s) = 3.43550 3.85827 3.65300
# Velocity P-wave (km/s) = 5.84053 6.55696 6.20909
#
# Compressibility (1/GPa) = 0.02825805
#
# Stress axis : x y z
#
# Youngs Moduli (GPa) = 87.07485 29.69473 50.47153
#
# Poissons Ratio (x) = 0.26965 0.10337
# Poissons Ratio (y) = 0.79069 0.36486
# Poissons Ratio (z) = 0.17833 0.21467
#
# Static dielectric constant tensor:
#      x y z
#    x 1.668410 0.000000 -0.010260 
#    y 0.000000 1.677450 0.000000 
#    z -0.010260 0.000000 1.661090 
# 
# From -- ./inp_files/50568.got.cif
#   From: 2010.05.17/outbox.cif.g08.bks.cpg/sg15_26_cif.got.tgz:50568.got - 2010.06.03 18:47:42.
