data_PCOD9291991
_publ_section_title
;
Structure prediction by ZEFSAII (Michael W. Deem and Ramdas Pophale) SiO2 
 PCOD9291991
Probable space group: C 2/C
;
_chemical_formula_sum "Si O2"
_cell_formula_units_Z 40
_cell_length_a 18.011803
_cell_length_b 7.887339
_cell_length_c 20.607032
_cell_angle_alpha 90.000000
_cell_angle_beta 146.976763
_cell_angle_gamma 90.000000
_cell_volume 1595.449297
_symmetry_space_group_name_H-M "C 2/C"
_symmetry_group_IT_number 15
_symmetry_cell_setting 'monoclinic'
loop_
_space_group_symop_operation_xyz
x,y,z
-x,y,1/2-z
-x,-y,-z
x,-y,1/2+z
1/2+x,1/2+y,z
1/2-x,1/2+y,1/2-z
1/2-x,1/2-y,-z
1/2+x,1/2-y,1/2+z
loop_
_atom_site_type_symbol
_atom_site_label
_atom_site_fract_x
_atom_site_fract_y
_atom_site_fract_z
Si Si1 0.885120 0.067384 0.062832
Si Si2 0.444162 0.864678 0.510933
Si Si3 0.329287 0.641248 0.875621
Si Si4 0.412641 0.965422 0.120561
Si Si5 0.187370 0.999759 0.772437
O O1 0.908332 0.263207 0.101583
O O2 0.031126 0.980883 0.178615
O O3 0.849847 0.066963 0.960985
O O4 0.748829 0.991962 0.994036
O O5 0.526162 0.704008 0.546881
O O6 0.500000 0.000000 0.500000
O O7 0.472353 0.930902 0.603684
O O8 0.283215 0.870243 0.380985
O O9 0.233579 0.805459 0.817344
O O10 0.280731 0.527895 0.780493
O O11 0.500000 0.991262 0.250000
#
# Coordination Sequence:
#
# PCOD9291991 Si02
#       5
#     8   8   8   8   8
#     4  11  23  39  66 105 129 177 230 279 343 405
#     4  10  22  43  64  95 135 178 219 276 342 398
#     4  11  23  42  70 102 138 178 230 277 342 404
#     4  11  24  40  67  97 140 172 226 288 341 400
#     4  11  23  40  70  99 138 174 228 279 332 408
#
# _framework density 25.071308999999999
#
# number of rings (size 3 to 8) (size 9 to 14) (size 15 to 20)
#    0.000    1.200    4.000    3.000   11.200    0.000 
#    0.000    1.000    0.000    0.000    0.000    0.000 
#    0.000    0.000    0.000    0.000    0.000    0.000 
#
# Total GULP energy -111967.795939 kJ/mol
# GULP energy per Si atom -5598.389797 kJ/mol
# Density = 2.501425 g / cm^3
# Si number density = 25.071309 Si / 1000 Ang^3
#
#
#
# Elastic Constant Matrix: (Units=GPa)
#
#
# Indices 1 2 3 4 5 6 
#
# 1 139.3983 4.2824 46.5878 0.0000 3.6441 0.0000
# 2 4.2824 15.1109 -16.6487 0.0000 6.5906 0.0000
# 3 46.5878 -16.6487 114.0693 0.0000 11.0911 0.0000
# 4 0.0000 0.0000 0.0000 43.3190 0.0000 -4.7094
# 5 3.6441 6.5906 11.0911 0.0000 62.8616 0.0000
# 6 0.0000 0.0000 0.0000 -4.7094 0.0000 33.6793
#
#
#
# Elastic Compliance Matrix: (Units=1/GPa)
#
#
# Indices 1 2 3 4 5 6 
#
# 1 0.009129 -0.008822 -0.005143 0.000000 0.001303 0.000000
# 2 -0.008822 0.094805 0.018677 0.000000 -0.012723 0.000000
# 3 -0.005143 0.018677 0.013994 0.000000 -0.004129 0.000000
# 4 0.000000 0.000000 0.000000 0.023441 0.000000 0.003278
# 5 0.001303 -0.012723 -0.004129 0.000000 0.017895 0.000000
# 6 0.000000 0.000000 0.000000 0.003278 0.000000 0.030150
#
#
# Mechanical properties :
#
#
# Convention : Reuss Voigt Hill
#
# Bulk Modulus (GPa) = 7.85218 37.44682 22.64950
# Shear Modulus (GPa) = 22.47790 43.59580 33.03685
#
# Velocity S-wave (km/s) = 2.99751 4.17450 3.63397
# Velocity P-wave (km/s) = 3.88829 6.18093 5.16346
#
# Compressibility (1/GPa) = 0.12735322
#
# Stress axis : x y z
#
# Youngs Moduli (GPa) = 109.53599 10.54802 71.45666
#
# Poissons Ratio (x) = 0.09305 0.36749
# Poissons Ratio (y) = 0.96631 -1.33460
# Poissons Ratio (z) = 0.56333 -0.19701
#
# Static dielectric constant tensor:
#      x y z
#    x 1.967970 0.000000 0.012440 
#    y 0.000000 2.072250 0.000000 
#    z 0.012440 0.000000 2.111320 
# 
# From -- ./inp_files/204250.got.cif
#   From: 2010.05.17/outbox.cif.g08.bks.cpg/sg15_103_cif.got.tgz:204250.got - 2010.06.03 18:47:42.
