data_PCOD9291975
_publ_section_title
;
Structure prediction by ZEFSAII (Michael W. Deem and Ramdas Pophale) SiO2 
 PCOD9291975
Probable space group: C 2/C
;
_chemical_formula_sum "Si O2"
_cell_formula_units_Z 36
_cell_length_a 17.458599
_cell_length_b 6.673050
_cell_length_c 22.676742
_cell_angle_alpha 90.000000
_cell_angle_beta 141.786383
_cell_angle_gamma 90.000000
_cell_volume 1634.259189
_symmetry_space_group_name_H-M "C 2/C"
_symmetry_group_IT_number 15
_symmetry_cell_setting 'monoclinic'
loop_
_space_group_symop_operation_xyz
x,y,z
-x,y,1/2-z
-x,-y,-z
x,-y,1/2+z
1/2+x,1/2+y,z
1/2-x,1/2+y,1/2-z
1/2-x,1/2-y,-z
1/2+x,1/2-y,1/2+z
loop_
_atom_site_type_symbol
_atom_site_label
_atom_site_fract_x
_atom_site_fract_y
_atom_site_fract_z
Si Si1 0.121811 0.144549 0.935620
Si Si2 0.492397 0.371686 0.554277
Si Si3 0.426821 0.941274 0.876894
Si Si4 0.000000 0.052629 0.250000
Si Si5 0.674755 0.270170 0.762581
O O1 0.031622 0.294908 0.916321
O O2 0.062626 0.080572 0.838080
O O3 0.250000 0.250000 0.000000
O O4 0.125896 0.946800 0.979971
O O5 0.500000 0.500000 0.500000
O O6 0.510376 0.135665 0.554786
O O7 0.604231 0.403656 0.669433
O O8 0.357216 0.046811 0.778645
O O9 0.317352 0.832105 0.846301
O O10 0.105381 0.182307 0.281156
#
# Coordination Sequence:
#
# PCOD9291975 Si02
#       5
#     8   8   8   4   8
#     4  11  25  43  64  98 134 174 220 269 332 391
#     4   9  22  41  63  95 126 167 219 267 324 384
#     4  10  22  43  64  94 128 173 219 265 323 395
#     4  10  22  44  62  98 132 170 218 276 324 388
#     4   9  20  40  66  91 124 168 222 255 331 380
#
# _framework density 22.02833
#
# number of rings (size 3 to 8) (size 9 to 14) (size 15 to 20)
#    1.333    0.889    0.000    2.667    3.111    2.667 
#    4.000    0.000    0.000    0.000    0.000    0.000 
#    0.000    0.000    0.000    0.000    0.000    0.000 
#
# Total GULP energy -100414.758291 kJ/mol
# GULP energy per Si atom -5578.597683 kJ/mol
# Density = 2.197819 g / cm^3
# Si number density = 22.028330 Si / 1000 Ang^3
#
#
#
# Elastic Constant Matrix: (Units=GPa)
#
#
# Indices 1 2 3 4 5 6 
#
# 1 166.9625 54.7717 57.2342 0.0000 25.9131 0.0000
# 2 54.7717 99.8128 25.5967 0.0000 18.7241 0.0000
# 3 57.2342 25.5967 71.3815 0.0000 21.7039 0.0000
# 4 0.0000 0.0000 0.0000 33.5627 0.0000 -2.8040
# 5 25.9131 18.7241 21.7039 0.0000 54.1084 0.0000
# 6 0.0000 0.0000 0.0000 -2.8040 0.0000 47.0757
#
#
#
# Elastic Compliance Matrix: (Units=1/GPa)
#
#
# Indices 1 2 3 4 5 6 
#
# 1 0.009284 -0.003402 -0.005956 0.000000 -0.000880 0.000000
# 2 -0.003402 0.012595 -0.001092 0.000000 -0.002291 0.000000
# 3 -0.005956 -0.001092 0.020722 0.000000 -0.005081 0.000000
# 4 0.000000 0.000000 0.000000 0.029944 0.000000 0.001784
# 5 -0.000880 -0.002291 -0.005081 0.000000 0.021734 0.000000
# 6 0.000000 0.000000 0.000000 0.001784 0.000000 0.021349
#
#
# Mechanical properties :
#
#
# Convention : Reuss Voigt Hill
#
# Bulk Modulus (GPa) = 46.08325 68.15132 57.11728
# Shear Modulus (GPa) = 34.77976 40.31964 37.54970
#
# Velocity S-wave (km/s) = 3.97780 4.28290 4.13317
# Velocity P-wave (km/s) = 6.48557 7.44734 6.98303
#
# Compressibility (1/GPa) = 0.02169986
#
# Stress axis : x y z
#
# Youngs Moduli (GPa) = 107.71572 79.39379 48.25831
#
# Poissons Ratio (x) = 0.27009 0.28745
# Poissons Ratio (y) = 0.36643 0.05271
# Poissons Ratio (z) = 0.64160 0.08672
#
# Static dielectric constant tensor:
#      x y z
#    x 1.791270 0.000000 -0.056920 
#    y 0.000000 1.861980 0.000000 
#    z -0.056920 0.000000 1.910220 
# 
# From -- ./inp_files/298247.got.cif
#   From: 2010.05.17/outbox.cif.g08.bks.cpg/sg15_150_cif.got.tgz:298247.got - 2010.06.03 18:47:42.
