data_PCOD9291657
_publ_section_title
;
Structure prediction by ZEFSAII (Michael W. Deem and Ramdas Pophale) SiO2 
 PCOD9291657
Probable space group: C 2/C
;
_chemical_formula_sum "Si O2"
_cell_formula_units_Z 64
_cell_length_a 29.855415
_cell_length_b 21.959205
_cell_length_c 15.326950
_cell_angle_alpha 90.000000
_cell_angle_beta 165.363466
_cell_angle_gamma 90.000000
_cell_volume 2539.085106
_symmetry_space_group_name_H-M "C 2/C"
_symmetry_group_IT_number 15
_symmetry_cell_setting 'monoclinic'
loop_
_space_group_symop_operation_xyz
x,y,z
-x,y,1/2-z
-x,-y,-z
x,-y,1/2+z
1/2+x,1/2+y,z
1/2-x,1/2+y,1/2-z
1/2-x,1/2-y,-z
1/2+x,1/2-y,1/2+z
loop_
_atom_site_type_symbol
_atom_site_label
_atom_site_fract_x
_atom_site_fract_y
_atom_site_fract_z
Si Si1 0.123859 0.882026 0.670089
Si Si2 0.502525 0.747894 0.556281
Si Si3 0.768330 0.492957 0.455136
Si Si4 0.395573 0.071228 0.354741
Si Si5 0.309035 0.861954 0.198105
Si Si6 0.212919 0.149245 0.159909
Si Si7 0.208911 0.610207 0.647022
Si Si8 0.324499 0.729289 0.785927
O O1 0.261093 0.867605 0.849936
O O2 0.994227 0.823854 0.414097
O O3 0.178511 0.871217 0.872558
O O4 0.123394 0.954989 0.664830
O O5 0.339411 0.790692 0.275948
O O6 0.520117 0.751229 0.484960
O O7 0.665066 0.776456 0.915328
O O8 0.756761 0.460330 0.527541
O O9 0.770548 0.446037 0.379570
O O10 0.960956 0.525751 0.831216
O O11 0.508233 0.113266 0.500238
O O12 0.303103 0.107673 0.257226
O O13 0.259258 0.899029 0.190387
O O14 0.268524 0.218137 0.246119
O O15 0.000000 0.140398 0.750000
O O16 0.333993 0.664826 0.850244
O O17 0.000000 0.629588 0.250000
#
# Coordination Sequence:
#
# PCOD9291657 Si02
#       8
#     8   8   8   8   8   8   8   8
#     4  11  26  40  64  96 141 170 209 274 334 387
#     4  11  21  42  65  97 133 170 215 271 338 390
#     4  10  24  41  68 101 133 173 224 271 320 396
#     4  10  22  42  69  99 129 174 224 272 325 389
#     4  11  22  41  66  99 132 171 216 279 328 382
#     4  12  24  43  68  98 130 169 223 277 332 389
#     4  12  22  39  70  98 126 171 226 269 311 387
#     4  11  23  40  72  98 125 169 228 269 323 399
#
# _framework density 25.205929999999999
#
# number of rings (size 3 to 8) (size 9 to 14) (size 15 to 20)
#    0.000    1.000    5.000    1.500    3.500    1.500 
#    0.000    4.375    0.000    0.000    0.000    0.000 
#    0.000    0.000    0.000    0.000    0.000    0.000 
#
# Total GULP energy -178922.785885 kJ/mol
# GULP energy per Si atom -5591.337059 kJ/mol
# Density = 2.514856 g / cm^3
# Si number density = 25.205930 Si / 1000 Ang^3
#
#
#
# Elastic Constant Matrix: (Units=GPa)
#
#
# Indices 1 2 3 4 5 6 
#
# 1 186.0649 75.8466 42.7396 0.0000 -29.3379 0.0000
# 2 75.8466 131.2482 27.8339 0.0000 1.1694 0.0000
# 3 42.7396 27.8339 38.5631 0.0000 -4.7319 0.0000
# 4 0.0000 0.0000 0.0000 25.1136 0.0000 -15.2122
# 5 -29.3379 1.1694 -4.7319 0.0000 30.8656 0.0000
# 6 0.0000 0.0000 0.0000 -15.2122 0.0000 28.4128
#
#
#
# Elastic Compliance Matrix: (Units=1/GPa)
#
#
# Indices 1 2 3 4 5 6 
#
# 1 0.010193 -0.004489 -0.006979 0.000000 0.008789 0.000000
# 2 -0.004489 0.011029 -0.003629 0.000000 -0.005241 0.000000
# 3 -0.006979 -0.003629 0.036169 0.000000 -0.000951 0.000000
# 4 0.000000 0.000000 0.000000 0.058931 0.000000 0.031552
# 5 0.008789 -0.005241 -0.000951 0.000000 0.040805 0.000000
# 6 0.000000 0.000000 0.000000 0.031552 0.000000 0.052088
#
#
# Mechanical properties :
#
#
# Convention : Reuss Voigt Hill
#
# Bulk Modulus (GPa) = 36.76694 72.07960 54.42327
# Shear Modulus (GPa) = 20.12279 30.84212 25.48246
#
# Velocity S-wave (km/s) = 2.82855 3.50180 3.18303
# Velocity P-wave (km/s) = 5.02851 6.70884 5.92851
#
# Compressibility (1/GPa) = 0.02719835
#
# Stress axis : x y z
#
# Youngs Moduli (GPa) = 98.10635 90.66651 27.64827
#
# Poissons Ratio (x) = 0.40698 0.19295
# Poissons Ratio (y) = 0.44038 0.10033
# Poissons Ratio (z) = 0.68465 0.32902
#
# Static dielectric constant tensor:
#      x y z
#    x 2.001390 0.000000 0.037590 
#    y 0.000000 2.017030 0.000000 
#    z 0.037590 0.000000 2.071540 
# 
# From -- ./inp_files/183155.got.cif
#   From: 2010.05.17/outbox.cif.g08.bks.cpg/sg15_92_cif.got.tgz:183155.got - 2010.06.03 18:47:42.
