data_PCOD9291467
_publ_section_title
;
Structure prediction by ZEFSAII (Michael W. Deem and Ramdas Pophale) SiO2 
 PCOD9291467
Probable space group: C 2/C
;
_chemical_formula_sum "Si O2"
_cell_formula_units_Z 36
_cell_length_a 12.503853
_cell_length_b 22.200049
_cell_length_c 4.721019
_cell_angle_alpha 90.000000
_cell_angle_beta 90.690273
_cell_angle_gamma 90.000000
_cell_volume 1310.394382
_symmetry_space_group_name_H-M "C 2/C"
_symmetry_group_IT_number 15
_symmetry_cell_setting 'monoclinic'
loop_
_space_group_symop_operation_xyz
x,y,z
-x,y,1/2-z
-x,-y,-z
x,-y,1/2+z
1/2+x,1/2+y,z
1/2-x,1/2+y,1/2-z
1/2-x,1/2-y,-z
1/2+x,1/2-y,1/2+z
loop_
_atom_site_type_symbol
_atom_site_label
_atom_site_fract_x
_atom_site_fract_y
_atom_site_fract_z
Si Si1 0.826547 0.623047 0.933921
Si Si2 0.500000 0.800185 0.250000
Si Si3 0.633361 0.542362 0.819056
Si Si4 0.000000 0.548043 0.250000
Si Si5 0.676266 0.288065 0.773674
Si Si6 0.500000 0.622488 0.250000
O O1 0.749785 0.571194 0.825323
O O2 0.902743 0.592259 0.166792
O O3 0.753146 0.675380 0.067849
O O4 0.904490 0.651714 0.699057
O O5 0.416978 0.751979 0.387464
O O6 0.620851 0.480964 0.000142
O O7 0.559857 0.587852 0.996971
O O8 0.000000 0.500000 0.500000
O O9 0.596848 0.338758 0.900050
O O10 0.750000 0.250000 0.000000
#
# Coordination Sequence:
#
# PCOD9291467 Si02
#       6
#     8   4   8   4   8   4
#     4  11  24  42  67  99 134 182 231 285 350 415
#     4  11  23  44  68  98 138 180 231 289 348 418
#     4  11  24  45  70 103 141 183 231 287 346 415
#     4  12  25  42  65  98 135 178 227 280 338 408
#     4  10  22  42  67  99 137 180 231 289 348 415
#     4   9  22  42  69 102 137 182 234 285 350 416
#
# _framework density 27.472643999999999
#
# number of rings (size 3 to 8) (size 9 to 14) (size 15 to 20)
#    0.000    1.333    0.000    4.667    0.000    5.333 
#    0.000    8.889    0.000    0.000    0.000    0.000 
#    0.000    0.000    0.000    0.000    0.000    0.000 
#
# Total GULP energy -100296.675227 kJ/mol
# GULP energy per Si atom -5572.037513 kJ/mol
# Density = 2.741012 g / cm^3
# Si number density = 27.472644 Si / 1000 Ang^3
#
#
#
# Elastic Constant Matrix: (Units=GPa)
#
#
# Indices 1 2 3 4 5 6 
#
# 1 206.8269 73.9386 18.7627 0.0000 -7.9033 0.0000
# 2 73.9386 103.5726 26.2704 0.0000 -6.2917 0.0000
# 3 18.7627 26.2704 115.4693 0.0000 7.7124 0.0000
# 4 0.0000 0.0000 0.0000 23.3751 0.0000 1.4635
# 5 -7.9033 -6.2917 7.7124 0.0000 31.5291 0.0000
# 6 0.0000 0.0000 0.0000 1.4635 0.0000 113.1444
#
#
#
# Elastic Compliance Matrix: (Units=1/GPa)
#
#
# Indices 1 2 3 4 5 6 
#
# 1 0.006508 -0.004585 -0.000063 0.000000 0.000732 0.000000
# 2 -0.004585 0.013701 -0.002519 0.000000 0.002201 0.000000
# 3 -0.000063 -0.002519 0.009432 0.000000 -0.002826 0.000000
# 4 0.000000 0.000000 0.000000 0.042815 0.000000 -0.000554
# 5 0.000732 0.002201 -0.002826 0.000000 0.033031 0.000000
# 6 0.000000 0.000000 0.000000 -0.000554 0.000000 0.008845
#
#
# Mechanical properties :
#
#
# Convention : Reuss Voigt Hill
#
# Bulk Modulus (GPa) = 65.33267 73.75691 69.54479
# Shear Modulus (GPa) = 37.37762 54.06953 45.72357
#
# Velocity S-wave (km/s) = 3.69255 4.44117 4.08405
# Velocity P-wave (km/s) = 6.48171 7.29413 6.89988
#
# Compressibility (1/GPa) = 0.01530628
#
# Stress axis : x y z
#
# Youngs Moduli (GPa) = 153.65975 72.98672 106.01734
#
# Poissons Ratio (x) = 0.33467 0.00669
# Poissons Ratio (y) = 0.70459 0.26706
# Poissons Ratio (z) = 0.00970 0.18386
#
# Static dielectric constant tensor:
#      x y z
#    x 2.164330 0.000000 0.015650 
#    y 0.000000 2.293270 0.000000 
#    z 0.015650 0.000000 2.118590 
# 
# From -- ./inp_files/4386.got.cif
#   From: 2010.05.17/outbox.cif.g08.bks.cpg/sg15_3_cif.got.tgz:4386.got - 2010.06.03 18:47:42.
