data_PCOD9291126
_publ_section_title
;
Structure prediction by ZEFSAII (Michael W. Deem and Ramdas Pophale) SiO2 
 PCOD9291126
Probable space group: C 2/C
;
_chemical_formula_sum "Si O2"
_cell_formula_units_Z 48
_cell_length_a 26.339899
_cell_length_b 14.080516
_cell_length_c 13.813408
_cell_angle_alpha 90.000000
_cell_angle_beta 153.639910
_cell_angle_gamma 90.000000
_cell_volume 2274.717114
_symmetry_space_group_name_H-M "C 2/C"
_symmetry_group_IT_number 15
_symmetry_cell_setting 'monoclinic'
loop_
_space_group_symop_operation_xyz
x,y,z
-x,y,1/2-z
-x,-y,-z
x,-y,1/2+z
1/2+x,1/2+y,z
1/2-x,1/2+y,1/2-z
1/2-x,1/2-y,-z
1/2+x,1/2-y,1/2+z
loop_
_atom_site_type_symbol
_atom_site_label
_atom_site_fract_x
_atom_site_fract_y
_atom_site_fract_z
Si Si1 0.328028 0.490486 0.194748
Si Si2 0.500000 0.243851 0.250000
Si Si3 0.879029 0.736989 0.678748
Si Si4 0.876158 0.934399 0.569318
Si Si5 0.000000 0.415074 0.250000
Si Si6 0.015723 0.157811 0.978392
Si Si7 0.334460 0.928931 0.435540
O O1 0.376540 0.584448 0.332401
O O2 0.417468 0.404839 0.360504
O O3 0.329677 0.512408 0.084316
O O4 0.208163 0.457633 0.030603
O O5 0.516565 0.307898 0.183258
O O6 0.604182 0.172482 0.454247
O O7 0.750000 0.750000 0.500000
O O8 0.896959 0.827892 0.641467
O O9 0.920758 0.648983 0.685277
O O10 0.956190 0.752755 0.905769
O O11 0.779283 0.931914 0.322943
O O12 0.000000 0.973588 0.750000
O O13 0.078910 0.487607 0.446175
#
# Coordination Sequence:
#
# PCOD9291126 Si02
#       7
#     8   4   8   8   4   8   8
#     4  10  23  41  66  94 128 171 219 276 328 396
#     4  11  26  42  65  96 138 172 211 278 338 399
#     4  11  22  40  66  96 132 178 226 273 332 401
#     4  11  22  41  67  95 127 172 228 280 328 394
#     4  11  24  42  67  98 140 184 219 270 340 399
#     4  10  22  42  64  96 129 168 226 273 329 393
#     4  11  25  43  62  99 137 174 220 270 339 403
#
# _framework density 21.101524999999999
#
# number of rings (size 3 to 8) (size 9 to 14) (size 15 to 20)
#    0.000    1.333    0.833    6.000    3.500    2.000 
#    0.000    4.167    0.000    0.000    0.000    0.000 
#    0.000    0.000    0.000    0.000    0.000    0.000 
#
# Total GULP energy -134027.374236 kJ/mol
# GULP energy per Si atom -5584.473927 kJ/mol
# Density = 2.105350 g / cm^3
# Si number density = 21.101525 Si / 1000 Ang^3
#
#
#
# Elastic Constant Matrix: (Units=GPa)
#
#
# Indices 1 2 3 4 5 6 
#
# 1 92.4019 31.9439 38.0736 0.0000 0.5437 0.0000
# 2 31.9439 74.3796 18.0524 0.0000 -3.0034 0.0000
# 3 38.0736 18.0524 100.5559 0.0000 -14.6297 0.0000
# 4 0.0000 0.0000 0.0000 11.4057 0.0000 1.1868
# 5 0.5437 -3.0034 -14.6297 0.0000 38.9792 0.0000
# 6 0.0000 0.0000 0.0000 1.1868 0.0000 19.0274
#
#
#
# Elastic Compliance Matrix: (Units=1/GPa)
#
#
# Indices 1 2 3 4 5 6 
#
# 1 0.014690 -0.005198 -0.004989 0.000000 -0.002478 0.000000
# 2 -0.005198 0.015897 -0.000737 0.000000 0.001021 0.000000
# 3 -0.004989 -0.000737 0.012659 0.000000 0.004764 0.000000
# 4 0.000000 0.000000 0.000000 0.088248 0.000000 -0.005504
# 5 -0.002478 0.001021 0.004764 0.000000 0.027556 0.000000
# 6 0.000000 0.000000 0.000000 -0.005504 0.000000 0.052899
#
#
# Mechanical properties :
#
#
# Convention : Reuss Voigt Hill
#
# Bulk Modulus (GPa) = 46.73578 49.27523 48.00551
# Shear Modulus (GPa) = 20.75289 25.83365 23.29327
#
# Velocity S-wave (km/s) = 3.13945 3.50273 3.32605
# Velocity P-wave (km/s) = 5.94455 6.30564 6.12775
#
# Compressibility (1/GPa) = 0.02139688
#
# Stress axis : x y z
#
# Youngs Moduli (GPa) = 68.07532 62.90475 78.99321
#
# Poissons Ratio (x) = 0.32697 0.39412
# Poissons Ratio (y) = 0.35385 0.05825
# Poissons Ratio (z) = 0.33965 0.04638
#
# Static dielectric constant tensor:
#      x y z
#    x 1.797130 0.000000 0.010580 
#    y 0.000000 1.771780 0.000000 
#    z 0.010580 0.000000 1.812570 
# 
# From -- ./inp_files/182567.got.cif
#   From: 2010.05.17/outbox.cif.g08.bks.cpg/sg15_92_cif.got.tgz:182567.got - 2010.06.03 18:47:42.
