data_PCOD9291112
_publ_section_title
;
Structure prediction by ZEFSAII (Michael W. Deem and Ramdas Pophale) SiO2 
 PCOD9291112
Probable space group: C 2/C
;
_chemical_formula_sum "Si O2"
_cell_formula_units_Z 60
_cell_length_a 19.386820
_cell_length_b 8.012496
_cell_length_c 20.048226
_cell_angle_alpha 90.000000
_cell_angle_beta 61.048174
_cell_angle_gamma 90.000000
_cell_volume 2725.033331
_symmetry_space_group_name_H-M "C 2/C"
_symmetry_group_IT_number 15
_symmetry_cell_setting 'monoclinic'
loop_
_space_group_symop_operation_xyz
x,y,z
-x,y,1/2-z
-x,-y,-z
x,-y,1/2+z
1/2+x,1/2+y,z
1/2-x,1/2+y,1/2-z
1/2-x,1/2-y,-z
1/2+x,1/2-y,1/2+z
loop_
_atom_site_type_symbol
_atom_site_label
_atom_site_fract_x
_atom_site_fract_y
_atom_site_fract_z
Si Si1 0.751552 0.337712 0.428847
Si Si2 0.848439 0.147936 0.273393
Si Si3 0.500000 0.215204 0.750000
Si Si4 0.452584 0.151522 0.487178
Si Si5 0.395771 0.647162 0.599142
Si Si6 0.604329 0.934360 0.634487
Si Si7 0.841707 0.243093 0.766395
Si Si8 0.166312 0.788057 0.856034
O O1 0.750000 0.250000 0.500000
O O2 0.801309 0.222435 0.356339
O O3 0.665826 0.345035 0.433785
O O4 0.805214 0.502322 0.414753
O O5 0.833809 0.277250 0.219371
O O6 0.940753 0.164482 0.240375
O O7 0.825372 0.955034 0.279351
O O8 0.550430 0.092908 0.679402
O O9 0.516081 0.301119 0.460364
O O10 0.427086 0.128802 0.422098
O O11 0.374313 0.181988 0.567898
O O12 0.500000 0.000000 0.500000
O O13 0.371314 0.759818 0.675744
O O14 0.385485 0.455653 0.625370
O O15 0.603105 0.810060 0.699402
O O16 0.757972 0.330371 0.819511
#
# Coordination Sequence:
#
# PCOD9291112 Si02
#       8
#     8   8   4   8   8   8   8   8
#     4  11  23  41  66  96 136 178 226 275 350 413
#     4  10  24  41  68  97 133 182 226 284 347 423
#     4  10  22  42  64  94 142 174 226 282 358 406
#     4  12  27  42  69 102 141 181 233 286 353 410
#     4  11  24  45  68  99 135 180 229 280 350 412
#     4  11  24  44  67 103 137 182 231 293 344 421
#     4  11  24  42  75  99 133 179 239 286 343 415
#     4  11  24  44  68  97 136 181 225 286 345 415
#
# _framework density 22.018077999999999
#
# number of rings (size 3 to 8) (size 9 to 14) (size 15 to 20)
#    0.000    1.067    2.667    2.800    3.733    6.400 
#    0.000    0.000    0.000    0.000    0.000    0.000 
#    0.000    0.000    0.000    0.000    0.000    0.000 
#
# Total GULP energy -167331.712475 kJ/mol
# GULP energy per Si atom -5577.723749 kJ/mol
# Density = 2.196796 g / cm^3
# Si number density = 22.018078 Si / 1000 Ang^3
#
#
#
# Elastic Constant Matrix: (Units=GPa)
#
#
# Indices 1 2 3 4 5 6 
#
# 1 121.8833 -6.4588 37.0579 0.0000 24.5482 -0.0002
# 2 -6.4588 27.1406 0.1829 0.0001 5.7870 -0.0006
# 3 37.0579 0.1829 121.0384 0.0000 19.6324 0.0002
# 4 0.0000 0.0001 0.0000 28.6750 0.0000 -1.7085
# 5 24.5482 5.7870 19.6324 0.0000 38.5604 0.0001
# 6 -0.0002 -0.0006 0.0002 -1.7085 0.0001 26.3367
#
#
#
# Elastic Compliance Matrix: (Units=1/GPa)
#
#
# Indices 1 2 3 4 5 6 
#
# 1 0.010272 0.003736 -0.002179 0.000000 -0.005990 0.000000
# 2 0.003736 0.039522 0.000157 0.000000 -0.008390 0.000001
# 3 -0.002179 0.000157 0.009491 0.000000 -0.003469 0.000000
# 4 0.000000 0.000000 0.000000 0.035009 0.000000 0.002271
# 5 -0.005990 -0.008390 -0.003469 0.000000 0.032772 0.000000
# 6 0.000000 0.000001 0.000000 0.002271 0.000000 0.038117
#
#
# Mechanical properties :
#
#
# Convention : Reuss Voigt Hill
#
# Bulk Modulus (GPa) = 15.94528 36.84739 26.39634
# Shear Modulus (GPa) = 27.37346 34.66644 31.01995
#
# Velocity S-wave (km/s) = 3.52977 3.97224 3.75752
# Velocity P-wave (km/s) = 4.88569 6.14896 5.55336
#
# Compressibility (1/GPa) = 0.06271449
#
# Stress axis : x y z
#
# Youngs Moduli (GPa) = 97.35644 25.30226 105.35928
#
# Poissons Ratio (x) = -0.09454 0.22956
# Poissons Ratio (y) = -0.36376 -0.01656
# Poissons Ratio (z) = 0.21212 -0.00398
#
# Static dielectric constant tensor:
#      x y z
#    x 1.926950 0.000000 0.065910 
#    y 0.000000 2.306730 0.000000 
#    z 0.065910 0.000000 1.852030 
# 
# From -- ./inp_files/247798.got.cif
#   From: 2010.05.17/outbox.cif.g08.bks.cpg/sg15_124_cif.got.tgz:247798.got - 2010.06.03 18:47:42.
