data_PCOD9291168
_publ_section_title
;
Structure prediction by ZEFSAII (Michael W. Deem and Ramdas Pophale) SiO2 
 PCOD9291168
Probable space group: C 2/C
;
_chemical_formula_sum "Si O2"
_cell_formula_units_Z 48
_cell_length_a 19.542953
_cell_length_b 18.106980
_cell_length_c 14.844878
_cell_angle_alpha 90.000000
_cell_angle_beta 154.414962
_cell_angle_gamma 90.000000
_cell_volume 2268.537697
_symmetry_space_group_name_H-M "C 2/C"
_symmetry_group_IT_number 15
_symmetry_cell_setting 'monoclinic'
loop_
_space_group_symop_operation_xyz
x,y,z
-x,y,1/2-z
-x,-y,-z
x,-y,1/2+z
1/2+x,1/2+y,z
1/2-x,1/2+y,1/2-z
1/2-x,1/2-y,-z
1/2+x,1/2-y,1/2+z
loop_
_atom_site_type_symbol
_atom_site_label
_atom_site_fract_x
_atom_site_fract_y
_atom_site_fract_z
Si Si1 0.000000 0.455368 0.750000
Si Si2 0.166219 0.330819 0.557733
Si Si3 0.729423 0.446327 0.966290
Si Si4 0.263511 0.322381 0.878618
Si Si5 0.800963 0.672741 0.683375
Si Si6 0.500000 0.562430 0.750000
Si Si7 0.598534 0.833607 0.992911
O O1 0.887293 0.506466 0.675881
O O2 0.110046 0.403798 0.942184
O O3 0.226381 0.397543 0.567697
O O4 0.243571 0.335928 0.748288
O O5 0.223985 0.253385 0.584383
O O6 0.976657 0.328575 0.347494
O O7 0.701061 0.389274 0.013712
O O8 0.591897 0.506171 0.793199
O O9 0.088599 0.323964 0.712264
O O10 0.374654 0.384241 0.053166
O O11 0.334027 0.240297 0.971913
O O12 0.821448 0.656938 0.814241
#
# Coordination Sequence:
#
# PCOD9291168 Si02
#       7
#     4   8   8   8   8   4   8
#     4  12  23  40  61  90 120 166 198 244 307 356
#     4  10  22  42  66  89 120 159 207 247 297 357
#     4  12  25  40  61  92 125 162 198 248 305 362
#     4  10  23  43  63  90 120 160 205 252 294 356
#     4  10  22  42  65  91 119 160 205 249 295 357
#     4  12  27  40  59  90 128 160 200 250 305 358
#     4  10  23  41  66  89 120 160 205 249 298 355
#
# _framework density 21.159005000000001
#
# number of rings (size 3 to 8) (size 9 to 14) (size 15 to 20)
#    0.000    1.333    3.333    1.000    4.667    4.000 
#    0.000    0.000    0.000    0.000    0.000    0.000 
#    0.000    0.000    0.000    0.000    0.000    0.000 
#
# Total GULP energy -134237.487865 kJ/mol
# GULP energy per Si atom -5593.228661 kJ/mol
# Density = 2.111085 g / cm^3
# Si number density = 21.159005 Si / 1000 Ang^3
#
#
#
# Elastic Constant Matrix: (Units=GPa)
#
#
# Indices 1 2 3 4 5 6 
#
# 1 50.4118 27.0377 -5.4085 0.0000 -4.5125 0.0000
# 2 27.0377 110.9851 18.1459 0.0000 -2.9728 0.0000
# 3 -5.4085 18.1459 41.1268 0.0000 -4.7634 0.0000
# 4 0.0000 0.0000 0.0000 1.2579 0.0000 19.7804
# 5 -4.5125 -2.9728 -4.7634 0.0000 18.8895 0.0000
# 6 0.0000 0.0000 0.0000 19.7804 0.0000 -3.5545
#
#
#
# Elastic Compliance Matrix: (Units=1/GPa)
#
#
# Indices 1 2 3 4 5 6 
#
# 1 0.025007 -0.007089 0.007189 0.000000 0.006671 0.000000
# 2 -0.007089 0.011724 -0.006271 0.000000 -0.001430 0.000000
# 3 0.007189 -0.006271 0.028958 0.000000 0.008033 0.000000
# 4 0.000000 0.000000 0.000000 0.008982 0.000000 0.049984
# 5 0.006671 -0.001430 0.008033 0.000000 0.056334 0.000000
# 6 0.000000 0.000000 0.000000 0.049984 0.000000 -0.003179
#
#
# Mechanical properties :
#
#
# Convention : Reuss Voigt Hill
#
# Bulk Modulus (GPa) = 18.74495 31.34157 25.04326
# Shear Modulus (GPa) = 31.65569 14.16849 22.91209
#
# Velocity S-wave (km/s) = 3.87212 2.59051 3.29424
# Velocity P-wave (km/s) = 5.37303 4.87773 5.13136
#
# Compressibility (1/GPa) = 0.05334770
#
# Stress axis : x y z
#
# Youngs Moduli (GPa) = 39.98874 85.29421 34.53325
#
# Poissons Ratio (x) = 0.60463 -0.24826
# Poissons Ratio (y) = 0.28347 0.21655
# Poissons Ratio (z) = -0.28748 0.53486
#
# Static dielectric constant tensor:
#      x y z
#    x 1.763950 0.000000 0.007230 
#    y 0.000000 1.736230 0.000000 
#    z 0.007230 0.000000 1.753160 
# 
# From -- ./inp_files/56436.got.cif
#   From: 2010.05.17/outbox.cif.g08.bks.cpg/sg15_29_cif.got.tgz:56436.got - 2010.06.03 18:47:42.
