data_PCOD9291654
_publ_section_title
;
Structure prediction by ZEFSAII (Michael W. Deem and Ramdas Pophale) SiO2 
 PCOD9291654
Probable space group: C 2/C
;
_chemical_formula_sum "Si O2"
_cell_formula_units_Z 60
_cell_length_a 22.360805
_cell_length_b 8.259528
_cell_length_c 13.526000
_cell_angle_alpha 90.000000
_cell_angle_beta 71.555587
_cell_angle_gamma 90.000000
_cell_volume 2369.787383
_symmetry_space_group_name_H-M "C 2/C"
_symmetry_group_IT_number 15
_symmetry_cell_setting 'monoclinic'
loop_
_space_group_symop_operation_xyz
x,y,z
-x,y,1/2-z
-x,-y,-z
x,-y,1/2+z
1/2+x,1/2+y,z
1/2-x,1/2+y,1/2-z
1/2-x,1/2-y,-z
1/2+x,1/2-y,1/2+z
loop_
_atom_site_type_symbol
_atom_site_label
_atom_site_fract_x
_atom_site_fract_y
_atom_site_fract_z
Si Si1 0.125796 0.495766 0.671140
Si Si2 0.019113 0.178636 0.527853
Si Si3 0.888928 0.721541 0.089024
Si Si4 0.174016 0.954436 0.249761
Si Si5 0.744687 0.310090 0.847719
Si Si6 0.500000 0.811005 0.750000
Si Si7 0.180288 0.811440 0.571576
Si Si8 0.635296 0.883507 0.450603
O O1 0.192225 0.402186 0.654166
O O2 0.060145 0.425601 0.749132
O O3 0.145202 0.683945 0.663021
O O4 0.112636 0.467575 0.562079
O O5 0.961951 0.295224 0.526732
O O6 0.022522 0.200510 0.645536
O O7 0.082692 0.253337 0.449728
O O8 0.000000 0.000000 0.500000
O O9 0.884595 0.849275 0.182528
O O10 0.858127 0.543291 0.122003
O O11 0.856457 0.811268 0.012979
O O12 0.177946 0.022788 0.136201
O O13 0.229092 0.824970 0.239130
O O14 0.193941 0.090054 0.314458
O O15 0.700470 0.205684 0.942286
O O16 0.250000 0.750000 0.500000
#
# Coordination Sequence:
#
# PCOD9291654 Si02
#       8
#     8   8   8   8   8   4   8   8
#     4  10  22  42  69  98 135 182 228 289 352 416
#     4  11  24  44  70 101 137 183 233 290 350 414
#     4  11  24  45  67  95 138 184 228 285 352 421
#     4  12  25  39  66 102 138 180 229 288 347 416
#     4  12  22  38  63  98 135 177 228 285 351 417
#     4  10  24  44  70 106 142 180 236 286 348 428
#     4  11  24  45  69 102 139 179 232 289 350 419
#     4  10  23  42  67  98 135 181 233 287 351 423
#
# _framework density 25.318726999999999
#
# number of rings (size 3 to 8) (size 9 to 14) (size 15 to 20)
#    0.000    1.067    0.000    7.200    0.000    5.333 
#    0.000    4.000    0.000    2.400    0.000    0.000 
#    0.000    0.000    0.000    0.000    0.000    0.000 
#
# Total GULP energy -167436.116953 kJ/mol
# GULP energy per Si atom -5581.203898 kJ/mol
# Density = 2.526110 g / cm^3
# Si number density = 25.318727 Si / 1000 Ang^3
#
#
#
# Elastic Constant Matrix: (Units=GPa)
#
#
# Indices 1 2 3 4 5 6 
#
# 1 139.6699 41.5291 33.2944 0.0000 -12.1656 0.0000
# 2 41.5291 122.2754 48.0662 0.0000 -4.9475 0.0000
# 3 33.2944 48.0662 84.6247 0.0000 -5.8875 0.0000
# 4 0.0000 0.0000 0.0000 44.4971 0.0000 -3.2703
# 5 -12.1656 -4.9475 -5.8875 0.0000 37.1451 0.0000
# 6 0.0000 0.0000 0.0000 -3.2703 0.0000 39.6344
#
#
#
# Elastic Compliance Matrix: (Units=1/GPa)
#
#
# Indices 1 2 3 4 5 6 
#
# 1 0.008422 -0.001969 -0.002044 0.000000 0.002172 0.000000
# 2 -0.001969 0.010997 -0.005475 0.000000 -0.000048 0.000000
# 3 -0.002044 -0.005475 0.015808 0.000000 0.001107 0.000000
# 4 0.000000 0.000000 0.000000 0.022610 0.000000 0.001866
# 5 0.002172 -0.000048 0.001107 0.000000 0.027802 0.000000
# 6 0.000000 0.000000 0.000000 0.001866 0.000000 0.025385
#
#
# Mechanical properties :
#
#
# Convention : Reuss Voigt Hill
#
# Bulk Modulus (GPa) = 61.53504 65.81659 63.67582
# Shear Modulus (GPa) = 36.92315 39.16734 38.04524
#
# Velocity S-wave (km/s) = 3.82296 3.93742 3.88061
# Velocity P-wave (km/s) = 6.62145 6.83540 6.72928
#
# Compressibility (1/GPa) = 0.01625090
#
# Stress axis : x y z
#
# Youngs Moduli (GPa) = 118.74249 90.93159 63.25978
#
# Poissons Ratio (x) = 0.17904 0.12930
# Poissons Ratio (y) = 0.23380 0.34635
# Poissons Ratio (z) = 0.24270 0.49786
#
# Static dielectric constant tensor:
#      x y z
#    x 2.026880 0.000000 -0.045700 
#    y 0.000000 2.099930 0.000000 
#    z -0.045700 0.000000 2.129840 
# 
# From -- ./inp_files/172365.got.cif
#   From: 2010.05.17/outbox.cif.g08.bks.cpg/sg15_87_cif.got.tgz:172365.got - 2010.06.03 18:47:42.
