data_PCOD9291598
_publ_section_title
;
Structure prediction by ZEFSAII (Michael W. Deem and Ramdas Pophale) SiO2 
 PCOD9291598
Probable space group: C 2/C
;
_chemical_formula_sum "Si O2"
_cell_formula_units_Z 44
_cell_length_a 26.232147
_cell_length_b 14.860446
_cell_length_c 14.638099
_cell_angle_alpha 90.000000
_cell_angle_beta 160.416102
_cell_angle_gamma 90.000000
_cell_volume 1912.657810
_symmetry_space_group_name_H-M "C 2/C"
_symmetry_group_IT_number 15
_symmetry_cell_setting 'monoclinic'
loop_
_space_group_symop_operation_xyz
x,y,z
-x,y,1/2-z
-x,-y,-z
x,-y,1/2+z
1/2+x,1/2+y,z
1/2-x,1/2+y,1/2-z
1/2-x,1/2-y,-z
1/2+x,1/2-y,1/2+z
loop_
_atom_site_type_symbol
_atom_site_label
_atom_site_fract_x
_atom_site_fract_y
_atom_site_fract_z
Si Si1 0.879578 0.717960 0.326416
Si Si2 0.703143 0.815985 0.157669
Si Si3 0.413576 0.905166 0.201867
Si Si4 0.558895 0.593262 0.141416
Si Si5 0.500000 0.620008 0.250000
Si Si6 0.604302 0.890876 0.809785
O O1 0.007384 0.660854 0.593685
O O2 0.959314 0.816791 0.450987
O O3 0.811745 0.660092 0.128914
O O4 0.738611 0.729363 0.158207
O O5 0.846713 0.827391 0.464595
O O6 0.683096 0.890141 0.042182
O O7 0.545010 0.827622 0.939564
O O8 0.500000 0.896447 0.250000
O O9 0.437426 0.007031 0.277741
O O10 0.231486 0.890521 0.897647
O O11 0.546078 0.577531 0.230084
O O12 0.500000 0.500000 0.000000
#
# Coordination Sequence:
#
# PCOD9291598 Si02
#       6
#     8   8   8   8   4   8
#     4  11  25  41  74 105 145 191 248 296 375 432
#     4  10  22  42  69 101 140 192 233 306 352 441
#     4  12  25  43  74 110 149 195 248 304 372 445
#     4  11  26  48  74 108 150 194 246 307 371 443
#     4  10  22  44  74  96 146 186 242 292 368 422
#     4  11  23  47  69 102 154 185 246 303 373 431
#
# _framework density 23.004636999999999
#
# number of rings (size 3 to 8) (size 9 to 14) (size 15 to 20)
#    0.000    1.091    1.818    4.909    7.636    0.000 
#    0.000    1.818    0.000    0.000    0.000    0.000 
#    0.000    0.000    0.000    0.000    0.000    0.000 
#
# Total GULP energy -122714.952893 kJ/mol
# GULP energy per Si atom -5577.952404 kJ/mol
# Density = 2.295228 g / cm^3
# Si number density = 23.004637 Si / 1000 Ang^3
#
#
#
# Elastic Constant Matrix: (Units=GPa)
#
#
# Indices 1 2 3 4 5 6 
#
# 1 117.6725 30.4754 30.2301 0.0000 -13.2047 0.0000
# 2 30.4754 117.9068 31.6975 0.0000 -19.6499 0.0000
# 3 30.2301 31.6975 107.1602 0.0000 3.8256 0.0000
# 4 0.0000 0.0000 0.0000 29.2515 0.0000 -4.5070
# 5 -13.2047 -19.6499 3.8256 0.0000 50.9878 0.0000
# 6 0.0000 0.0000 0.0000 -4.5070 0.0000 36.1906
#
#
#
# Elastic Compliance Matrix: (Units=1/GPa)
#
#
# Indices 1 2 3 4 5 6 
#
# 1 0.009740 -0.001528 -0.002371 0.000000 0.002111 0.000000
# 2 -0.001528 0.010236 -0.002731 0.000000 0.003754 0.000000
# 3 -0.002371 -0.002731 0.010897 0.000000 -0.002484 0.000000
# 4 0.000000 0.000000 0.000000 0.034855 0.000000 0.004341
# 5 0.002111 0.003754 -0.002484 0.000000 0.021792 0.000000
# 6 0.000000 0.000000 0.000000 0.004341 0.000000 0.028172
#
#
# Mechanical properties :
#
#
# Convention : Reuss Voigt Hill
#
# Bulk Modulus (GPa) = 56.77528 58.61615 57.69571
# Shear Modulus (GPa) = 37.08553 39.97507 38.53030
#
# Velocity S-wave (km/s) = 4.01944 4.17309 4.09699
# Velocity P-wave (km/s) = 6.80255 6.98248 6.89310
#
# Compressibility (1/GPa) = 0.01761330
#
# Stress axis : x y z
#
# Youngs Moduli (GPa) = 102.66951 97.69461 91.76767
#
# Poissons Ratio (x) = 0.14930 0.21758
# Poissons Ratio (y) = 0.15690 0.25059
# Poissons Ratio (z) = 0.24343 0.26677
#
# Static dielectric constant tensor:
#      x y z
#    x 1.988400 0.000000 -0.009170 
#    y 0.000000 1.862090 0.000000 
#    z -0.009170 0.000000 1.936740 
# 
# From -- ./inp_files/182354.got.cif
#   From: 2010.05.17/outbox.cif.g08.bks.cpg/sg15_92_cif.got.tgz:182354.got - 2010.06.03 18:47:42.
