data_PCOD9291949
_publ_section_title
;
Structure prediction by ZEFSAII (Michael W. Deem and Ramdas Pophale) SiO2 
 PCOD9291949
Probable space group: C 2/C
;
_chemical_formula_sum "Si O2"
_cell_formula_units_Z 44
_cell_length_a 4.945510
_cell_length_b 20.321914
_cell_length_c 21.003029
_cell_angle_alpha 90.000000
_cell_angle_beta 69.713583
_cell_angle_gamma 90.000000
_cell_volume 1979.917566
_symmetry_space_group_name_H-M "C 2/C"
_symmetry_group_IT_number 15
_symmetry_cell_setting 'monoclinic'
loop_
_space_group_symop_operation_xyz
x,y,z
-x,y,1/2-z
-x,-y,-z
x,-y,1/2+z
1/2+x,1/2+y,z
1/2-x,1/2+y,1/2-z
1/2-x,1/2-y,-z
1/2+x,1/2-y,1/2+z
loop_
_atom_site_type_symbol
_atom_site_label
_atom_site_fract_x
_atom_site_fract_y
_atom_site_fract_z
Si Si1 0.500000 0.764092 0.750000
Si Si2 0.238235 0.337186 0.619133
Si Si3 0.778128 0.660210 0.820610
Si Si4 0.071496 0.052710 0.576810
Si Si5 0.725239 0.232535 0.428292
Si Si6 0.932660 0.537428 0.427227
O O1 0.698308 0.809767 0.692510
O O2 0.655931 0.716822 0.785814
O O3 0.579614 0.333194 0.585676
O O4 0.103195 0.408120 0.622906
O O5 0.073462 0.288824 0.581673
O O6 0.539837 0.609017 0.866418
O O7 0.858194 0.705005 0.876879
O O8 0.000000 0.627921 0.750000
O O9 0.295551 0.071816 0.501972
O O10 0.252493 0.993354 0.593233
O O11 0.783012 0.023242 0.569025
O O12 0.750000 0.250000 0.500000
#
# Coordination Sequence:
#
# PCOD9291949 Si02
#       6
#     4   8   8   8   8   8
#     4  10  24  42  62  96 134 176 214 272 342 402
#     4  11  22  41  65  90 133 169 215 270 327 393
#     4  11  23  42  65  96 142 175 221 279 347 409
#     4  10  23  40  67  90 132 170 223 277 328 393
#     4  11  23  38  66 100 127 170 219 270 332 394
#     4  10  22  43  63  97 123 174 224 276 326 387
#
# _framework density 22.223147999999998
#
# number of rings (size 3 to 8) (size 9 to 14) (size 15 to 20)
#    0.000    1.455    1.818    2.727    2.545    4.364 
#    1.636    0.000    0.000    0.000    0.000    0.000 
#    0.000    0.000    0.000    0.000    0.000    0.000 
#
# Total GULP energy -122523.758291 kJ/mol
# GULP energy per Si atom -5569.261740 kJ/mol
# Density = 2.217257 g / cm^3
# Si number density = 22.223148 Si / 1000 Ang^3
#
#
#
# Elastic Constant Matrix: (Units=GPa)
#
#
# Indices 1 2 3 4 5 6 
#
# 1 78.3926 8.2104 24.8773 0.0000 1.0978 0.0000
# 2 8.2104 78.9023 48.0091 0.0000 -2.3398 0.0000
# 3 24.8773 48.0091 110.2389 0.0000 23.6187 0.0000
# 4 0.0000 0.0000 0.0000 16.0750 0.0000 7.4310
# 5 1.0978 -2.3398 23.6187 0.0000 24.4306 0.0000
# 6 0.0000 0.0000 0.0000 7.4310 0.0000 35.8400
#
#
#
# Elastic Compliance Matrix: (Units=1/GPa)
#
#
# Indices 1 2 3 4 5 6 
#
# 1 0.014031 0.001517 -0.004696 0.000000 0.004055 0.000000
# 2 0.001517 0.020259 -0.012065 0.000000 0.013536 0.000000
# 3 -0.004696 -0.012065 0.019660 0.000000 -0.019951 0.000000
# 4 0.000000 0.000000 0.000000 0.068803 0.000000 -0.014266
# 5 0.004055 0.013536 -0.019951 0.000000 0.061335 0.000000
# 6 0.000000 0.000000 0.000000 -0.014266 0.000000 0.030860
#
#
# Mechanical properties :
#
#
# Convention : Reuss Voigt Hill
#
# Bulk Modulus (GPa) = 42.62212 47.74751 45.18481
# Shear Modulus (GPa) = 19.74297 27.69824 23.72060
#
# Velocity S-wave (km/s) = 2.98383 3.53422 3.27063
# Velocity P-wave (km/s) = 5.57600 6.17952 5.88550
#
# Compressibility (1/GPa) = 0.02346200
#
# Stress axis : x y z
#
# Youngs Moduli (GPa) = 71.27181 49.36154 50.86502
#
# Poissons Ratio (x) = -0.07490 0.23885
# Poissons Ratio (y) = -0.10815 0.61370
# Poissons Ratio (z) = 0.33468 0.59556
#
# Static dielectric constant tensor:
#      x y z
#    x 1.952680 0.000000 -0.105640 
#    y 0.000000 1.890060 0.000000 
#    z -0.105640 0.000000 1.993330 
# 
# From -- ./inp_files/227237.got.cif
#   From: 2010.05.17/outbox.cif.g08.bks.cpg/sg15_114_cif.got.tgz:227237.got - 2010.06.03 18:47:42.
