data_PCOD9291908
_publ_section_title
;
Structure prediction by ZEFSAII (Michael W. Deem and Ramdas Pophale) SiO2 
 PCOD9291908
Probable space group: C 2/C
;
_chemical_formula_sum "Si O2"
_cell_formula_units_Z 44
_cell_length_a 6.065913
_cell_length_b 21.365576
_cell_length_c 16.007777
_cell_angle_alpha 90.000000
_cell_angle_beta 117.144338
_cell_angle_gamma 90.000000
_cell_volume 1846.135196
_symmetry_space_group_name_H-M "C 2/C"
_symmetry_group_IT_number 15
_symmetry_cell_setting 'monoclinic'
loop_
_space_group_symop_operation_xyz
x,y,z
-x,y,1/2-z
-x,-y,-z
x,-y,1/2+z
1/2+x,1/2+y,z
1/2-x,1/2+y,1/2-z
1/2-x,1/2-y,-z
1/2+x,1/2-y,1/2+z
loop_
_atom_site_type_symbol
_atom_site_label
_atom_site_fract_x
_atom_site_fract_y
_atom_site_fract_z
Si Si1 0.216822 0.135697 0.625155
Si Si2 0.685161 0.157411 0.454167
Si Si3 0.000000 0.399550 0.750000
Si Si4 0.000000 0.920137 0.250000
Si Si5 0.742886 0.733506 0.401322
Si Si6 0.954312 0.441908 0.433006
Si Si7 0.500000 0.623101 0.250000
O O1 0.360830 0.200984 0.649736
O O2 0.350137 0.077230 0.604113
O O3 0.970146 0.149362 0.527972
O O4 0.147997 0.120098 0.707697
O O5 0.629887 0.130160 0.353605
O O6 0.529206 0.221439 0.424578
O O7 0.560402 0.117691 0.508004
O O8 0.733393 0.416507 0.752697
O O9 0.198506 0.954432 0.341299
O O10 0.750000 0.750000 0.500000
O O11 0.601995 0.672887 0.338680
O O12 0.000000 0.500000 0.500000
#
# Coordination Sequence:
#
# PCOD9291908 Si02
#       7
#     8   8   4   4   8   8   4
#     4  11  23  42  71  99 145 177 243 297 376 449
#     4  10  23  41  66 101 136 187 238 297 366 437
#     4  10  22  43  60  99 142 183 241 288 358 432
#     4  10  26  45  71 108 132 183 239 308 372 446
#     4  11  21  38  66 100 141 191 231 294 364 446
#     4  11  25  49  70 101 139 188 246 308 372 445
#     4  10  24  36  61  95 142 184 232 288 356 440
#
# _framework density 23.833576000000001
#
# number of rings (size 3 to 8) (size 9 to 14) (size 15 to 20)
#    0.000    1.455    1.818    2.182    5.091    7.273 
#    6.545    0.000    0.000    0.000    0.000    0.000 
#    0.000    0.000    0.000    0.000    0.000    0.000 
#
# Total GULP energy -122486.551275 kJ/mol
# GULP energy per Si atom -5567.570512 kJ/mol
# Density = 2.377933 g / cm^3
# Si number density = 23.833576 Si / 1000 Ang^3
#
#
#
# Elastic Constant Matrix: (Units=GPa)
#
#
# Indices 1 2 3 4 5 6 
#
# 1 123.2137 23.3218 15.9271 0.0000 -15.8866 0.0000
# 2 23.3218 62.5319 17.9195 0.0000 -4.1955 0.0000
# 3 15.9271 17.9195 184.7226 0.0000 -1.9015 0.0000
# 4 0.0000 0.0000 0.0000 13.5399 0.0000 4.3321
# 5 -15.8866 -4.1955 -1.9015 0.0000 58.3304 0.0000
# 6 0.0000 0.0000 0.0000 4.3321 0.0000 2.6764
#
#
#
# Elastic Compliance Matrix: (Units=1/GPa)
#
#
# Indices 1 2 3 4 5 6 
#
# 1 0.009048 -0.003094 -0.000457 0.000000 0.002227 0.000000
# 2 -0.003094 0.017582 -0.001435 0.000000 0.000375 0.000000
# 3 -0.000457 -0.001435 0.005592 0.000000 -0.000045 0.000000
# 4 0.000000 0.000000 0.000000 0.153193 0.000000 -0.247967
# 5 0.002227 0.000375 -0.000045 0.000000 0.017776 0.000000
# 6 0.000000 0.000000 0.000000 -0.247967 0.000000 0.775013
#
#
# Mechanical properties :
#
#
# Convention : Reuss Voigt Hill
#
# Bulk Modulus (GPa) = 44.94488 53.86724 49.40606
# Shear Modulus (GPa) = 5.02214 35.79599 20.40906
#
# Velocity S-wave (km/s) = 1.45318 3.87966 2.92946
# Velocity P-wave (km/s) = 4.65987 6.53601 5.67600
#
# Compressibility (1/GPa) = 0.02224948
#
# Stress axis : x y z
#
# Youngs Moduli (GPa) = 110.52388 56.87569 178.83760
#
# Poissons Ratio (x) = 0.17598 0.08174
# Poissons Ratio (y) = 0.34197 0.25663
# Poissons Ratio (z) = 0.05051 0.08161
#
# Static dielectric constant tensor:
#      x y z
#    x 2.030240 0.000000 0.063910 
#    y 0.000000 1.970250 0.000000 
#    z 0.063910 0.000000 1.900350 
# 
# From -- ./inp_files/185387.got.cif
#   From: 2010.05.17/outbox.cif.g08.bks.cpg/sg15_93_cif.got.tgz:185387.got - 2010.06.03 18:47:42.
