data_PCOD9291255
_publ_section_title
;
Structure prediction by ZEFSAII (Michael W. Deem and Ramdas Pophale) SiO2 
 PCOD9291255
Probable space group: C 2/C
;
_chemical_formula_sum "Si O2"
_cell_formula_units_Z 64
_cell_length_a 15.250444
_cell_length_b 28.919710
_cell_length_c 9.553176
_cell_angle_alpha 90.000000
_cell_angle_beta 128.062891
_cell_angle_gamma 90.000000
_cell_volume 3317.290308
_symmetry_space_group_name_H-M "C 2/C"
_symmetry_group_IT_number 15
_symmetry_cell_setting 'monoclinic'
loop_
_space_group_symop_operation_xyz
x,y,z
-x,y,1/2-z
-x,-y,-z
x,-y,1/2+z
1/2+x,1/2+y,z
1/2-x,1/2+y,1/2-z
1/2-x,1/2-y,-z
1/2+x,1/2-y,1/2+z
loop_
_atom_site_type_symbol
_atom_site_label
_atom_site_fract_x
_atom_site_fract_y
_atom_site_fract_z
Si Si1 0.241176 0.571905 0.695458
Si Si2 0.623546 0.895803 0.804763
Si Si3 0.560716 0.632445 0.520238
Si Si4 0.164396 0.148114 0.327470
Si Si5 0.772598 0.697966 0.195085
Si Si6 0.606617 0.714857 0.775046
Si Si7 0.377886 0.095425 0.644877
Si Si8 0.380651 0.021876 0.421474
O O1 0.208782 0.593291 0.514674
O O2 0.363106 0.588714 0.863368
O O3 0.156326 0.592327 0.727777
O O4 0.213558 0.517524 0.670652
O O5 0.500000 0.896234 0.750000
O O6 0.651323 0.846980 0.759730
O O7 0.635818 0.936973 0.705196
O O8 0.613541 0.655267 0.431645
O O9 0.432960 0.621807 0.354826
O O10 0.570304 0.670147 0.651707
O O11 0.199249 0.190101 0.261659
O O12 0.277804 0.120831 0.468111
O O13 0.841090 0.745245 0.268729
O O14 0.694326 0.701543 0.981435
O O15 0.500000 0.734752 0.750000
O O16 0.500000 0.117100 0.750000
O O17 0.384500 0.045334 0.577899
O O18 0.500000 0.000000 0.500000
#
# Coordination Sequence:
#
# PCOD9291255 Si02
#       8
#     8   8   8   8   8   8   8   8
#     4  11  23  35  57  91 119 162 216 250 311 376
#     4  12  22  37  59  92 130 164 208 261 321 380
#     4  10  22  43  66  85 124 172 212 257 307 383
#     4  10  22  42  66  87 120 170 209 250 314 376
#     4  11  23  39  64  96 123 160 210 263 319 378
#     4  11  22  41  66  92 126 158 205 265 321 379
#     4  11  21  38  59  89 123 159 205 263 314 372
#     4  12  22  36  59  89 126 168 206 258 318 381
#
# _framework density 19.292854999999999
#
# number of rings (size 3 to 8) (size 9 to 14) (size 15 to 20)
#    0.000    1.000    6.250    1.125    0.000    0.500 
#    0.000    0.625    2.750    1.500    0.000    0.000 
#    0.000    0.000    0.000    0.000    0.000    0.000 
#
# Total GULP energy -178607.093547 kJ/mol
# GULP energy per Si atom -5581.471673 kJ/mol
# Density = 1.924894 g / cm^3
# Si number density = 19.292855 Si / 1000 Ang^3
#
#
#
# Elastic Constant Matrix: (Units=GPa)
#
#
# Indices 1 2 3 4 5 6 
#
# 1 57.4054 10.8363 23.8399 0.0000 14.8492 0.0000
# 2 10.8363 58.6229 24.2541 0.0000 7.9780 0.0000
# 3 23.8399 24.2541 90.0133 0.0000 11.8684 0.0000
# 4 0.0000 0.0000 0.0000 23.4231 0.0000 -2.6272
# 5 14.8492 7.9780 11.8684 0.0000 38.3506 0.0000
# 6 0.0000 0.0000 0.0000 -2.6272 0.0000 30.1644
#
#
#
# Elastic Compliance Matrix: (Units=1/GPa)
#
#
# Indices 1 2 3 4 5 6 
#
# 1 0.021185 -0.001190 -0.004422 0.000000 -0.006587 0.000000
# 2 -0.001190 0.019497 -0.004654 0.000000 -0.002155 0.000000
# 3 -0.004422 -0.004654 0.013742 0.000000 -0.001573 0.000000
# 4 0.000000 0.000000 0.000000 0.043114 0.000000 0.003755
# 5 -0.006587 -0.002155 -0.001573 0.000000 0.029560 0.000000
# 6 0.000000 0.000000 0.000000 0.003755 0.000000 0.033479
#
#
# Mechanical properties :
#
#
# Convention : Reuss Voigt Hill
#
# Bulk Modulus (GPa) = 29.50571 35.98914 32.74742
# Shear Modulus (GPa) = 25.98671 28.19502 27.09087
#
# Velocity S-wave (km/s) = 3.67408 3.82700 3.75132
# Velocity P-wave (km/s) = 5.77280 6.18244 5.98113
#
# Compressibility (1/GPa) = 0.03389175
#
# Stress axis : x y z
#
# Youngs Moduli (GPa) = 47.20389 51.28995 72.77012
#
# Poissons Ratio (x) = 0.06105 0.32176
# Poissons Ratio (y) = 0.05618 0.33868
# Poissons Ratio (z) = 0.20872 0.23871
#
# Static dielectric constant tensor:
#      x y z
#    x 1.700340 0.000000 0.003880 
#    y 0.000000 1.655690 0.000000 
#    z 0.003880 0.000000 1.692210 
# 
# From -- ./inp_files/44892.got.cif
#   From: 2010.05.17/outbox.cif.g08.bks.cpg/sg15_23_cif.got.tgz:44892.got - 2010.06.03 18:47:42.
