data_PCOD9291435
_publ_section_title
;
Structure prediction by ZEFSAII (Michael W. Deem and Ramdas Pophale) SiO2 
 PCOD9291435
Probable space group: C 2/C
;
_chemical_formula_sum "Si O2"
_cell_formula_units_Z 48
_cell_length_a 16.878111
_cell_length_b 12.779846
_cell_length_c 25.343065
_cell_angle_alpha 90.000000
_cell_angle_beta 26.310896
_cell_angle_gamma 90.000000
_cell_volume 2422.976365
_symmetry_space_group_name_H-M "C 2/C"
_symmetry_group_IT_number 15
_symmetry_cell_setting 'monoclinic'
loop_
_space_group_symop_operation_xyz
x,y,z
-x,y,1/2-z
-x,-y,-z
x,-y,1/2+z
1/2+x,1/2+y,z
1/2-x,1/2+y,1/2-z
1/2-x,1/2-y,-z
1/2+x,1/2-y,1/2+z
loop_
_atom_site_type_symbol
_atom_site_label
_atom_site_fract_x
_atom_site_fract_y
_atom_site_fract_z
Si Si1 0.384418 0.165732 0.978793
Si Si2 0.826238 0.629043 0.890392
Si Si3 0.893635 0.263133 0.960689
Si Si4 0.055038 0.951838 0.023184
Si Si5 0.327279 0.965004 0.068725
Si Si6 0.297247 0.634399 0.758340
O O1 0.378026 0.152591 0.919734
O O2 0.591408 0.158368 0.870983
O O3 0.299166 0.273006 0.049861
O O4 0.275699 0.069259 0.068742
O O5 0.000000 0.623052 0.750000
O O6 0.708612 0.524866 0.955502
O O7 0.877676 0.169044 0.013587
O O8 0.880023 0.374198 0.996595
O O9 0.750000 0.250000 0.000000
O O10 0.084621 0.237918 0.820103
O O11 0.881899 0.945148 0.164888
O O12 0.000000 0.000000 0.000000
O O13 0.187232 0.917206 0.193504
O O14 0.500000 0.000000 0.000000
#
# Coordination Sequence:
#
# PCOD9291435 Si02
#       6
#     8   8   8   8   8   8
#     4  10  23  41  67  98 133 178 229 281 344 414
#     4  11  24  42  65  99 138 179 229 282 343 414
#     4  10  23  45  66 102 136 178 236 280 351 415
#     4  10  23  42  66  94 137 177 232 280 342 412
#     4  10  22  42  67  96 133 176 224 280 340 413
#     4   9  23  42  69  97 132 179 226 286 345 407
#
# _framework density 19.810345999999999
#
# number of rings (size 3 to 8) (size 9 to 14) (size 15 to 20)
#    1.000    1.000    0.000    2.000    4.667    6.000 
#    6.000    0.000    0.000    0.000    0.000    0.000 
#    0.000    0.000    0.000    0.000    0.000    0.000 
#
# Total GULP energy -133820.065713 kJ/mol
# GULP energy per Si atom -5575.836071 kJ/mol
# Density = 1.976526 g / cm^3
# Si number density = 19.810346 Si / 1000 Ang^3
#
#
#
# Elastic Constant Matrix: (Units=GPa)
#
#
# Indices 1 2 3 4 5 6 
#
# 1 55.2918 -2.0116 10.3214 -0.1970 -3.8543 -0.2417
# 2 -2.0116 78.1554 7.1166 -0.0880 -9.2602 -0.0966
# 3 10.3214 7.1166 69.4825 -0.3775 -4.0915 -0.4601
# 4 -0.1970 -0.0880 -0.3775 -44.3742 0.4198 -83.9064
# 5 -3.8543 -9.2602 -4.0915 0.4198 29.0481 0.5148
# 6 -0.2417 -0.0966 -0.4601 -83.9064 0.5148 -58.7094
#
#
#
# Elastic Compliance Matrix: (Units=1/GPa)
#
#
# Indices 1 2 3 4 5 6 
#
# 1 0.018807 0.001023 -0.002755 -0.000017 0.002434 -0.000012
# 2 0.001023 0.013440 -0.001279 0.000012 0.004240 0.000004
# 3 -0.002755 -0.001279 0.015011 -0.000044 0.001342 -0.000030
# 4 -0.000017 0.000012 -0.000044 0.013238 0.000139 -0.018918
# 5 0.002434 0.004240 0.001342 0.000139 0.036286 0.000092
# 6 -0.000012 0.000004 -0.000030 -0.018918 0.000092 0.010006
#
#
# Mechanical properties :
#
#
# Convention : Reuss Voigt Hill
#
# Bulk Modulus (GPa) = 24.25042 25.97585 25.11313
# Shear Modulus (GPa) = 39.50854 -2.30688 18.60083
#
# Velocity S-wave (km/s) = 4.47065 -1.08028 3.06755
# Velocity P-wave (km/s) = 6.23833 3.40363 5.02501
#
# Compressibility (1/GPa) = 0.04123640
#
# Stress axis : x y z
#
# Youngs Moduli (GPa) = 53.17172 74.40366 66.61777
#
# Poissons Ratio (x) = -0.07614 0.18356
# Poissons Ratio (y) = -0.05441 0.08519
# Poissons Ratio (z) = 0.14651 0.09515
#
# Static dielectric constant tensor:
#      x y z
#    x 1.710300 -0.000060 0.015270 
#    y -0.000060 1.691920 -0.000020 
#    z 0.015270 -0.000020 1.682010 
# 
# From -- ./inp_files/274286.got.cif
#   From: 2010.05.17/outbox.cif.g08.bks.cpg/sg15_138_cif.got.tgz:274286.got - 2010.06.03 18:47:42.
