data_PCOD9291574
_publ_section_title
;
Structure prediction by ZEFSAII (Michael W. Deem and Ramdas Pophale) SiO2 
 PCOD9291574
Probable space group: C 2/C
;
_chemical_formula_sum "Si O2"
_cell_formula_units_Z 40
_cell_length_a 11.217812
_cell_length_b 7.821167
_cell_length_c 27.047032
_cell_angle_alpha 90.000000
_cell_angle_beta 40.774877
_cell_angle_gamma 90.000000
_cell_volume 1549.784968
_symmetry_space_group_name_H-M "C 2/C"
_symmetry_group_IT_number 15
_symmetry_cell_setting 'monoclinic'
loop_
_space_group_symop_operation_xyz
x,y,z
-x,y,1/2-z
-x,-y,-z
x,-y,1/2+z
1/2+x,1/2+y,z
1/2-x,1/2+y,1/2-z
1/2-x,1/2-y,-z
1/2+x,1/2-y,1/2+z
loop_
_atom_site_type_symbol
_atom_site_label
_atom_site_fract_x
_atom_site_fract_y
_atom_site_fract_z
Si Si1 0.921550 0.148134 0.969711
Si Si2 0.590674 0.421220 0.837767
Si Si3 0.416926 0.064460 0.682253
Si Si4 0.864774 0.462303 0.587918
Si Si5 0.799030 0.301733 0.866286
O O1 0.109896 0.259055 0.912261
O O2 0.950071 0.999788 0.921002
O O3 0.750000 0.250000 0.000000
O O4 0.855995 0.129483 0.046680
O O5 0.518862 0.258763 0.829532
O O6 0.709173 0.545959 0.766324
O O7 0.969025 0.415081 0.828131
O O8 0.438316 0.030197 0.617266
O O9 0.261561 0.344245 0.669732
O O10 0.000000 0.500000 0.500000
O O11 0.696536 0.593600 0.631083
#
# Coordination Sequence:
#
# PCOD9291574 Si02
#       5
#     8   8   8   8   8
#     4  11  21  42  69 101 138 183 234 297 364 435
#     4  11  25  42  68  98 140 183 242 299 364 444
#     4  11  22  43  66  97 140 187 232 304 368 424
#     4   9  20  39  67  99 133 174 233 288 350 437
#     4  10  22  42  68  98 134 184 234 293 365 440
#
# _framework density 25.810032
#
# number of rings (size 3 to 8) (size 9 to 14) (size 15 to 20)
#    0.000    1.600    2.000    2.400    0.000    0.800 
#   10.800    0.000    4.400    0.000    0.000    0.000 
#    0.000    0.000    0.000    0.000    0.000    0.000 
#
# Total GULP energy -111648.347070 kJ/mol
# GULP energy per Si atom -5582.417353 kJ/mol
# Density = 2.575129 g / cm^3
# Si number density = 25.810032 Si / 1000 Ang^3
#
#
#
# Elastic Constant Matrix: (Units=GPa)
#
#
# Indices 1 2 3 4 5 6 
#
# 1 82.1054 11.3007 13.9426 0.0000 -1.7308 0.0000
# 2 11.3007 129.5379 54.9855 0.0000 -19.1257 0.0000
# 3 13.9426 54.9855 127.1902 0.0000 0.4764 0.0000
# 4 0.0000 0.0000 0.0000 52.5741 0.0000 -3.8035
# 5 -1.7308 -19.1257 0.4764 0.0000 38.1625 0.0000
# 6 0.0000 0.0000 0.0000 -3.8035 0.0000 41.1872
#
#
#
# Elastic Compliance Matrix: (Units=1/GPa)
#
#
# Indices 1 2 3 4 5 6 
#
# 1 0.012454 -0.000567 -0.001121 0.000000 0.000295 0.000000
# 2 -0.000567 0.010445 -0.004473 0.000000 0.005265 0.000000
# 3 -0.001121 -0.004473 0.009928 0.000000 -0.002417 0.000000
# 4 0.000000 0.000000 0.000000 0.019149 0.000000 0.001768
# 5 0.000295 0.005265 -0.002417 0.000000 0.028886 0.000000
# 6 0.000000 0.000000 0.000000 0.001768 0.000000 0.024443
#
#
# Mechanical properties :
#
#
# Convention : Reuss Voigt Hill
#
# Bulk Modulus (GPa) = 48.76956 55.47680 52.12318
# Shear Modulus (GPa) = 40.17280 43.62507 41.89894
#
# Velocity S-wave (km/s) = 3.94951 4.11571 4.03346
# Velocity P-wave (km/s) = 6.30355 6.64277 6.47538
#
# Compressibility (1/GPa) = 0.02050459
#
# Stress axis : x y z
#
# Youngs Moduli (GPa) = 80.29474 95.73686 100.72545
#
# Poissons Ratio (x) = 0.05429 0.11293
# Poissons Ratio (y) = 0.04553 0.45056
# Poissons Ratio (z) = 0.09002 0.42825
#
# Static dielectric constant tensor:
#      x y z
#    x 2.103490 0.000000 -0.048370 
#    y 0.000000 2.234720 0.000000 
#    z -0.048370 0.000000 1.968630 
# 
# From -- ./inp_files/313047.got.cif
#   From: 2010.05.17/outbox.cif.g08.bks.cpg/sg15_157_cif.got.tgz:313047.got - 2010.06.03 18:47:42.
