data_PCOD9291196
_publ_section_title
;
Structure prediction by ZEFSAII (Michael W. Deem and Ramdas Pophale) SiO2 
 PCOD9291196
Probable space group: C 2/C
;
_chemical_formula_sum "Si O2"
_cell_formula_units_Z 48
_cell_length_a 13.395481
_cell_length_b 9.043380
_cell_length_c 27.124981
_cell_angle_alpha 90.000000
_cell_angle_beta 136.077848
_cell_angle_gamma 90.000000
_cell_volume 2279.386302
_symmetry_space_group_name_H-M "C 2/C"
_symmetry_group_IT_number 15
_symmetry_cell_setting 'monoclinic'
loop_
_space_group_symop_operation_xyz
x,y,z
-x,y,1/2-z
-x,-y,-z
x,-y,1/2+z
1/2+x,1/2+y,z
1/2-x,1/2+y,1/2-z
1/2-x,1/2-y,-z
1/2+x,1/2-y,1/2+z
loop_
_atom_site_type_symbol
_atom_site_label
_atom_site_fract_x
_atom_site_fract_y
_atom_site_fract_z
Si Si1 0.656513 0.996650 0.321552
Si Si2 0.029978 0.512352 0.569673
Si Si3 0.765959 0.278104 0.809901
Si Si4 0.059783 0.896726 0.403963
Si Si5 0.794359 0.383325 0.559285
Si Si6 0.902491 0.820418 0.852175
O O1 0.500000 0.053410 0.250000
O O2 0.673865 0.828136 0.311627
O O3 0.671955 0.009430 0.384838
O O4 0.784739 0.092105 0.343270
O O5 0.170370 0.420099 0.638863
O O6 0.049481 0.676343 0.599956
O O7 0.000000 0.500000 0.500000
O O8 0.895276 0.436621 0.550187
O O9 0.677785 0.297239 0.728342
O O10 0.906930 0.182533 0.846210
O O11 0.162252 0.784446 0.410432
O O12 0.130963 0.887791 0.483464
O O13 0.034250 0.068777 0.386231
#
# Coordination Sequence:
#
# PCOD9291196 Si02
#       6
#     8   8   8   8   8   8
#     4  11  23  40  69  93 124 177 226 268 323 403
#     4  11  25  42  63  97 138 168 215 283 348 404
#     4  10  22  43  63  90 135 173 215 266 337 406
#     4   9  21  39  69  88 127 167 218 268 325 388
#     4  10  22  42  65  94 129 163 231 271 324 405
#     4  11  23  41  68  93 134 177 216 273 345 400
#
# _framework density 21.058299000000002
#
# number of rings (size 3 to 8) (size 9 to 14) (size 15 to 20)
#    0.000    1.667    0.000    5.000    9.333    2.000 
#    3.000    0.833    0.000    0.000    0.000    0.000 
#    0.000    0.000    0.000    0.000    0.000    0.000 
#
# Total GULP energy -133829.095493 kJ/mol
# GULP energy per Si atom -5576.212312 kJ/mol
# Density = 2.101037 g / cm^3
# Si number density = 21.058299 Si / 1000 Ang^3
#
#
#
# Elastic Constant Matrix: (Units=GPa)
#
#
# Indices 1 2 3 4 5 6 
#
# 1 51.5259 28.9723 34.9639 0.0000 -25.5454 0.0000
# 2 28.9723 144.0087 61.6332 0.0000 -7.3626 0.0000
# 3 34.9639 61.6332 153.5715 0.0000 -21.4630 0.0000
# 4 0.0000 0.0000 0.0000 133.6896 0.0000 85.6318
# 5 -25.5454 -7.3626 -21.4630 0.0000 40.3919 0.0000
# 6 0.0000 0.0000 0.0000 85.6318 0.0000 89.9113
#
#
#
# Elastic Compliance Matrix: (Units=1/GPa)
#
#
# Indices 1 2 3 4 5 6 
#
# 1 0.033220 -0.004355 -0.003230 0.000000 0.018499 0.000000
# 2 -0.004355 0.008958 -0.002982 0.000000 -0.002706 0.000000
# 3 -0.003230 -0.002982 0.008731 0.000000 0.002053 0.000000
# 4 0.000000 0.000000 0.000000 0.019181 0.000000 -0.018268
# 5 0.018499 -0.002706 0.002053 0.000000 0.037055 0.000000
# 6 0.000000 0.000000 0.000000 -0.018268 0.000000 0.028521
#
#
# Mechanical properties :
#
#
# Convention : Reuss Voigt Hill
#
# Bulk Modulus (GPa) = 33.58540 66.69386 50.13963
# Shear Modulus (GPa) = 29.98958 67.70101 48.84530
#
# Velocity S-wave (km/s) = 3.77785 5.67619 4.82137
# Velocity P-wave (km/s) = 5.91717 8.64284 7.40647
#
# Compressibility (1/GPa) = 0.02977484
#
# Stress axis : x y z
#
# Youngs Moduli (GPa) = 30.10240 111.63174 114.53996
#
# Poissons Ratio (x) = 0.48618 0.36995
# Poissons Ratio (y) = 0.13110 0.34153
# Poissons Ratio (z) = 0.09723 0.33286
#
# Static dielectric constant tensor:
#      x y z
#    x 1.789400 0.000000 0.017490 
#    y 0.000000 1.806110 0.000000 
#    z 0.017490 0.000000 1.744130 
# 
# From -- ./inp_files/295460.got.cif
#   From: 2010.05.17/outbox.cif.g08.bks.cpg/sg15_148_cif.got.tgz:295460.got - 2010.06.03 18:47:42.
