data_PCOD9291825
_publ_section_title
;
Structure prediction by ZEFSAII (Michael W. Deem and Ramdas Pophale) SiO2 
 PCOD9291825
Probable space group: C 2/C
;
_chemical_formula_sum "Si O2"
_cell_formula_units_Z 28
_cell_length_a 9.007434
_cell_length_b 15.176769
_cell_length_c 15.664043
_cell_angle_alpha 90.000000
_cell_angle_beta 32.350213
_cell_angle_gamma 90.000000
_cell_volume 1145.812303
_symmetry_space_group_name_H-M "C 2/C"
_symmetry_group_IT_number 15
_symmetry_cell_setting 'monoclinic'
loop_
_space_group_symop_operation_xyz
x,y,z
-x,y,1/2-z
-x,-y,-z
x,-y,1/2+z
1/2+x,1/2+y,z
1/2-x,1/2+y,1/2-z
1/2-x,1/2-y,-z
1/2+x,1/2-y,1/2+z
loop_
_atom_site_type_symbol
_atom_site_label
_atom_site_fract_x
_atom_site_fract_y
_atom_site_fract_z
Si Si1 0.000000 0.940979 0.250000
Si Si2 0.793397 0.019778 0.519168
Si Si3 0.000000 0.676873 0.750000
Si Si4 0.500000 0.872706 0.750000
Si Si5 0.080586 0.771232 0.322938
O O1 0.879733 0.866359 0.241885
O O2 0.883012 0.007548 0.378566
O O3 0.647490 0.110903 0.611356
O O4 0.588304 0.937569 0.632633
O O5 0.000000 0.000000 0.500000
O O6 0.761273 0.730265 0.819377
O O7 0.304848 0.803686 0.796366
O O8 0.750000 0.750000 0.500000
#
# Coordination Sequence:
#
# PCOD9291825 Si02
#       5
#     4   8   4   4   8
#     4  11  22  41  75  98 149 192 234 305 374 419
#     4  11  22  45  70 104 142 190 246 302 359 438
#     4  11  24  43  79 109 142 192 254 293 364 447
#     4  10  22  42  72  91 145 190 230 302 372 416
#     4  11  22  44  72 107 146 191 238 305 370 431
#
# _framework density 24.436810000000001
#
# number of rings (size 3 to 8) (size 9 to 14) (size 15 to 20)
#    0.000    1.143    5.714    0.000    0.000    1.143 
#    0.000   14.286    6.286    0.000    0.000    0.000 
#    0.000    0.000    0.000    0.000    0.000    0.000 
#
# Total GULP energy -77958.623548 kJ/mol
# GULP energy per Si atom -5568.473111 kJ/mol
# Density = 2.438119 g / cm^3
# Si number density = 24.436810 Si / 1000 Ang^3
#
#
#
# Elastic Constant Matrix: (Units=GPa)
#
#
# Indices 1 2 3 4 5 6 
#
# 1 165.3177 30.9828 75.8063 -0.0482 3.1139 0.0153
# 2 30.9828 49.1945 17.0290 0.1664 10.7371 0.0151
# 3 75.8063 17.0290 139.6122 0.1702 48.7260 0.0611
# 4 -0.0482 0.1664 0.1702 12.1344 -0.0070 -1.4839
# 5 3.1139 10.7371 48.7260 -0.0070 52.9808 -0.0522
# 6 0.0153 0.0151 0.0611 -1.4839 -0.0522 5.5906
#
#
#
# Elastic Compliance Matrix: (Units=1/GPa)
#
#
# Indices 1 2 3 4 5 6 
#
# 1 0.010447 -0.005586 -0.007618 0.000255 0.007524 0.000208
# 2 -0.005586 0.024503 0.002450 -0.000428 -0.006891 -0.000256
# 3 -0.007618 0.002450 0.016226 -0.000349 -0.014972 -0.000395
# 4 0.000255 -0.000428 -0.000349 0.085189 0.000426 0.022620
# 5 0.007524 -0.006891 -0.014972 0.000426 0.033600 0.000588
# 6 0.000208 -0.000256 -0.000395 0.022620 0.000588 0.184886
#
#
# Mechanical properties :
#
#
# Convention : Reuss Voigt Hill
#
# Bulk Modulus (GPa) = 33.70512 66.86230 50.28371
# Shear Modulus (GPa) = 12.94506 29.49489 21.21998
#
# Velocity S-wave (km/s) = 2.30410 3.47794 2.94999
# Velocity P-wave (km/s) = 4.57178 6.59915 5.67671
#
# Compressibility (1/GPa) = 0.02966908
#
# Stress axis : x y z
#
# Youngs Moduli (GPa) = 95.71872 40.81140 61.62863
#
# Poissons Ratio (x) = 0.22797 0.46947
# Poissons Ratio (y) = 0.53468 -0.15099
# Poissons Ratio (z) = 0.72916 -0.09999
#
# Static dielectric constant tensor:
#      x y z
#    x 1.811750 -0.000090 0.462090 
#    y -0.000090 1.963710 0.000350 
#    z 0.462090 0.000350 0.879360 
# 
# From -- ./inp_files/75279.got.cif
#   From: 2010.05.17/outbox.cif.g08.bks.cpg/sg15_38_cif.got.tgz:75279.got - 2010.06.03 18:47:42.
