data_PCOD9291015
_publ_section_title
;
Structure prediction by ZEFSAII (Michael W. Deem and Ramdas Pophale) SiO2 
 PCOD9291015
Probable space group: C 2/C
;
_chemical_formula_sum "Si O2"
_cell_formula_units_Z 64
_cell_length_a 27.707601
_cell_length_b 11.787938
_cell_length_c 20.129756
_cell_angle_alpha 90.000000
_cell_angle_beta 150.923501
_cell_angle_gamma 90.000000
_cell_volume 3195.147744
_symmetry_space_group_name_H-M "C 2/C"
_symmetry_group_IT_number 15
_symmetry_cell_setting 'monoclinic'
loop_
_space_group_symop_operation_xyz
x,y,z
-x,y,1/2-z
-x,-y,-z
x,-y,1/2+z
1/2+x,1/2+y,z
1/2-x,1/2+y,1/2-z
1/2-x,1/2-y,-z
1/2+x,1/2-y,1/2+z
loop_
_atom_site_type_symbol
_atom_site_label
_atom_site_fract_x
_atom_site_fract_y
_atom_site_fract_z
Si Si1 0.048599 0.965295 0.236445
Si Si2 0.738460 0.628319 0.450715
Si Si3 0.820017 0.681785 0.945185
Si Si4 0.585332 0.482612 0.047376
Si Si5 0.035451 0.265861 0.655632
Si Si6 0.134167 0.735265 0.145446
Si Si7 0.272730 0.073075 0.341229
Si Si8 0.393074 0.065808 0.156850
O O1 0.136106 0.059244 0.342525
O O2 0.000000 0.946697 0.250000
O O3 0.084916 0.847411 0.246283
O O4 0.962665 0.000639 0.081738
O O5 0.750000 0.750000 0.500000
O O6 0.748920 0.633284 0.382849
O O7 0.828059 0.546564 0.581823
O O8 0.727853 0.754451 0.808579
O O9 0.806721 0.554321 0.900011
O O10 0.835110 0.657183 0.041142
O O11 0.921931 0.735091 0.042322
O O12 0.626102 0.355522 0.100031
O O13 0.674272 0.563001 0.177959
O O14 0.500000 0.500000 0.000000
O O15 0.042528 0.272458 0.585313
O O16 0.084880 0.376202 0.746993
O O17 0.148012 0.638931 0.107913
O O18 0.500000 0.045580 0.250000
#
# Coordination Sequence:
#
# PCOD9291015 Si02
#       8
#     8   8   8   8   8   8   8   8
#     4  12  25  40  69 101 126 167 222 271 324 390
#     4  11  25  44  61  90 131 168 216 267 313 387
#     4   9  20  39  59  88 128 164 207 261 319 378
#     4  11  21  44  64  90 130 173 215 264 330 384
#     4  11  21  39  64  98 126 158 213 272 325 377
#     4  11  23  36  65  93 123 174 206 261 323 384
#     4  10  22  42  63  88 128 174 216 260 330 395
#     4   9  20  40  64  87 123 168 199 257 329 372
#
# _framework density 20.030372
#
# number of rings (size 3 to 8) (size 9 to 14) (size 15 to 20)
#    0.000    1.500    2.500    3.375    1.750    5.000 
#    6.750    0.000    0.000    0.000    0.000    0.000 
#    0.000    0.000    0.000    0.000    0.000    0.000 
#
# Total GULP energy -178687.484806 kJ/mol
# GULP energy per Si atom -5583.983900 kJ/mol
# Density = 1.998478 g / cm^3
# Si number density = 20.030372 Si / 1000 Ang^3
#
#
#
# Elastic Constant Matrix: (Units=GPa)
#
#
# Indices 1 2 3 4 5 6 
#
# 1 91.4379 26.4862 -1.5275 0.0000 -11.1660 0.0000
# 2 26.4862 65.6328 15.6980 0.0000 -1.8909 0.0000
# 3 -1.5275 15.6980 75.6143 0.0000 -9.4923 0.0000
# 4 0.0000 0.0000 0.0000 19.2844 0.0000 1.3622
# 5 -11.1660 -1.8909 -9.4923 0.0000 25.2332 0.0000
# 6 0.0000 0.0000 0.0000 1.3622 0.0000 29.7426
#
#
#
# Elastic Compliance Matrix: (Units=1/GPa)
#
#
# Indices 1 2 3 4 5 6 
#
# 1 0.013424 -0.005777 0.002269 0.000000 0.006361 0.000000
# 2 -0.005777 0.018518 -0.004312 0.000000 -0.002791 0.000000
# 3 0.002269 -0.004312 0.014958 0.000000 0.006308 0.000000
# 4 0.000000 0.000000 0.000000 0.052024 0.000000 -0.002383
# 5 0.006361 -0.002791 0.006308 0.000000 0.044609 0.000000
# 6 0.000000 0.000000 0.000000 -0.002383 0.000000 0.033731
#
#
# Mechanical properties :
#
#
# Convention : Reuss Voigt Hill
#
# Bulk Modulus (GPa) = 31.98782 34.88869 33.43825
# Shear Modulus (GPa) = 24.59133 27.65393 26.12263
#
# Velocity S-wave (km/s) = 3.50766 3.71967 3.61522
# Velocity P-wave (km/s) = 5.69291 5.99197 5.84435
#
# Compressibility (1/GPa) = 0.03126190
#
# Stress axis : x y z
#
# Youngs Moduli (GPa) = 74.49102 54.00039 66.85464
#
# Poissons Ratio (x) = 0.31195 -0.15170
# Poissons Ratio (y) = 0.43033 0.28825
# Poissons Ratio (z) = -0.16902 0.23283
#
# Static dielectric constant tensor:
#      x y z
#    x 1.705780 0.000000 0.013180 
#    y 0.000000 1.708640 0.000000 
#    z 0.013180 0.000000 1.730020 
# 
# From -- ./inp_files/257519.got.cif
#   From: 2010.05.17/outbox.cif.g08.bks.cpg/sg15_129_cif.got.tgz:257519.got - 2010.06.03 18:47:42.
