data_PCOD9291264
_publ_section_title
;
Structure prediction by ZEFSAII (Michael W. Deem and Ramdas Pophale) SiO2 
 PCOD9291264
Probable space group: C 2/C
;
_chemical_formula_sum "Si O2"
_cell_formula_units_Z 52
_cell_length_a 11.016344
_cell_length_b 23.761966
_cell_length_c 13.851911
_cell_angle_alpha 90.000000
_cell_angle_beta 46.366715
_cell_angle_gamma 90.000000
_cell_volume 2624.404655
_symmetry_space_group_name_H-M "C 2/C"
_symmetry_group_IT_number 15
_symmetry_cell_setting 'monoclinic'
loop_
_space_group_symop_operation_xyz
x,y,z
-x,y,1/2-z
-x,-y,-z
x,-y,1/2+z
1/2+x,1/2+y,z
1/2-x,1/2+y,1/2-z
1/2-x,1/2-y,-z
1/2+x,1/2-y,1/2+z
loop_
_atom_site_type_symbol
_atom_site_label
_atom_site_fract_x
_atom_site_fract_y
_atom_site_fract_z
Si Si1 0.148366 0.917053 0.405253
Si Si2 0.173305 0.133597 0.218834
Si Si3 0.000000 0.630932 0.750000
Si Si4 0.198489 0.220016 0.377047
Si Si5 0.893670 0.288809 0.468968
Si Si6 0.521813 0.686530 0.843571
Si Si7 0.417588 0.478372 0.692931
O O1 0.333506 0.905616 0.342610
O O2 0.095240 0.859158 0.379550
O O3 0.037080 0.940469 0.556063
O O4 0.140137 0.967242 0.332384
O O5 0.181857 0.166150 0.315836
O O6 0.219778 0.068599 0.206128
O O7 0.000000 0.137050 0.250000
O O8 0.302988 0.167064 0.084737
O O9 0.000198 0.674534 0.837144
O O10 0.352661 0.260187 0.254695
O O11 0.024906 0.252174 0.453830
O O12 0.160941 0.201779 0.508767
O O13 0.750000 0.250000 0.500000
O O14 0.500000 0.658896 0.750000
O O15 0.500000 0.493834 0.750000
#
# Coordination Sequence:
#
# PCOD9291264 Si02
#       7
#     8   8   4   8   8   8   8
#     4  11  23  42  67  90 122 166 212 259 317 375
#     4  11  20  34  61  92 127 159 203 261 318 371
#     4  12  22  38  62  96 128 162 206 264 320 370
#     4  12  22  38  61  93 126 165 210 254 319 386
#     4  12  21  33  59  96 131 161 195 257 326 383
#     4  12  25  43  63  90 129 173 213 259 313 387
#     4  10  22  42  66  90 118 167 217 260 310 378
#
# _framework density 19.814017
#
# number of rings (size 3 to 8) (size 9 to 14) (size 15 to 20)
#    0.000    0.615    6.154    4.615    0.000    0.000 
#    0.000    3.077    5.077    0.000    0.000    0.000 
#    0.000    0.000    0.000    0.000    0.000    0.000 
#
# Total GULP energy -144845.137484 kJ/mol
# GULP energy per Si atom -5570.966826 kJ/mol
# Density = 1.976892 g / cm^3
# Si number density = 19.814017 Si / 1000 Ang^3
#
#
#
# Elastic Constant Matrix: (Units=GPa)
#
#
# Indices 1 2 3 4 5 6 
#
# 1 9.3199 -10.7090 -30.4488 0.0000 14.8698 0.0000
# 2 -10.7090 80.5425 -5.6371 0.0000 5.1015 0.0000
# 3 -30.4488 -5.6371 38.2761 0.0000 26.8048 0.0000
# 4 0.0000 0.0000 0.0000 23.9733 0.0000 8.6628
# 5 14.8698 5.1015 26.8048 0.0000 34.3639 0.0000
# 6 0.0000 0.0000 0.0000 8.6628 0.0000 28.1816
#
#
#
# Elastic Compliance Matrix: (Units=1/GPa)
#
#
# Indices 1 2 3 4 5 6 
#
# 1 -0.008583 -0.004172 -0.023090 0.000000 0.022344 0.000000
# 2 -0.004172 0.011402 -0.003789 0.000000 0.003068 0.000000
# 3 -0.023090 -0.003789 -0.000421 0.000000 0.010882 0.000000
# 4 0.000000 0.000000 0.000000 0.046925 0.000000 -0.014424
# 5 0.022344 0.003068 0.010882 0.000000 0.010488 0.000000
# 6 0.000000 0.000000 0.000000 -0.014424 0.000000 0.039918
#
#
# Mechanical properties :
#
#
# Convention : Reuss Voigt Hill
#
# Bulk Modulus (GPa) = -16.74931 3.83877 -6.45527
# Shear Modulus (GPa) = 35.22863 28.96598 32.09731
#
# Velocity S-wave (km/s) = 4.22117 3.82762 4.02920
# Velocity P-wave (km/s) = 3.90974 4.63420 4.28730
#
# Compressibility (1/GPa) = -0.05970396
#
# Stress axis : x y z
#
# Youngs Moduli (GPa) = -116.51113 87.70750 -2377.12829
#
# Poissons Ratio (x) = 0.36596 -54.88742
# Poissons Ratio (y) = -0.48614 -9.00627
# Poissons Ratio (z) = -2.69022 0.33230
#
# Static dielectric constant tensor:
#      x y z
#    x 1.719940 0.000000 0.044210 
#    y 0.000000 1.702010 0.000000 
#    z 0.044210 0.000000 1.758030 
# 
# From -- ./inp_files/148044.got.cif
#   From: 2010.05.17/outbox.cif.g08.bks.cpg/sg15_75_cif.got.tgz:148044.got - 2010.06.03 18:47:42.
