data_PCOD9291430
_publ_section_title
;
Structure prediction by ZEFSAII (Michael W. Deem and Ramdas Pophale) SiO2 
 PCOD9291430
Probable space group: C 2/C
;
_chemical_formula_sum "Si O2"
_cell_formula_units_Z 40
_cell_length_a 7.484104
_cell_length_b 12.071191
_cell_length_c 24.335254
_cell_angle_alpha 90.000000
_cell_angle_beta 128.255041
_cell_angle_gamma 90.000000
_cell_volume 1726.396928
_symmetry_space_group_name_H-M "C 2/C"
_symmetry_group_IT_number 15
_symmetry_cell_setting 'monoclinic'
loop_
_space_group_symop_operation_xyz
x,y,z
-x,y,1/2-z
-x,-y,-z
x,-y,1/2+z
1/2+x,1/2+y,z
1/2-x,1/2+y,1/2-z
1/2-x,1/2-y,-z
1/2+x,1/2-y,1/2+z
loop_
_atom_site_type_symbol
_atom_site_label
_atom_site_fract_x
_atom_site_fract_y
_atom_site_fract_z
Si Si1 0.746273 0.201420 0.779308
Si Si2 0.742958 0.457902 0.525754
Si Si3 0.298076 0.812835 0.629254
Si Si4 0.496896 0.505476 0.626327
Si Si5 0.679513 0.920474 0.151777
O O1 0.500000 0.242630 0.750000
O O2 0.717212 0.121794 0.720704
O O3 0.934892 0.296186 0.805046
O O4 0.852225 0.117416 0.844443
O O5 0.500000 0.500000 0.500000
O O6 0.776224 0.339489 0.560546
O O7 0.714114 0.476876 0.455873
O O8 0.939870 0.525708 0.593306
O O9 0.192607 0.694513 0.621438
O O10 0.157991 0.904476 0.637679
O O11 0.374218 0.501157 0.662334
#
# Coordination Sequence:
#
# PCOD9291430 Si02
#       5
#     8   8   8   8   8
#     4  11  24  43  66  98 138 177 225 278 331 402
#     4  10  22  42  67  96 129 172 219 272 335 398
#     4  10  23  42  67  94 127 174 219 267 339 396
#     4  10  22  43  69  95 132 173 222 279 330 395
#     4  11  24  42  65  99 133 170 223 277 331 397
#
# _framework density 23.169642
#
# number of rings (size 3 to 8) (size 9 to 14) (size 15 to 20)
#    0.000    1.600    0.000    5.400    0.000   12.800 
#    0.000    4.000    0.000    0.000    0.000    0.000 
#    0.000    0.000    0.000    0.000    0.000    0.000 
#
# Total GULP energy -111658.285223 kJ/mol
# GULP energy per Si atom -5582.914261 kJ/mol
# Density = 2.311691 g / cm^3
# Si number density = 23.169642 Si / 1000 Ang^3
#
#
#
# Elastic Constant Matrix: (Units=GPa)
#
#
# Indices 1 2 3 4 5 6 
#
# 1 131.2057 38.7933 41.9711 0.0000 17.7365 0.0000
# 2 38.7933 75.9682 26.0236 0.0000 8.0188 0.0000
# 3 41.9711 26.0236 128.2027 0.0000 5.5690 0.0000
# 4 0.0000 0.0000 0.0000 33.4685 0.0000 -15.3480
# 5 17.7365 8.0188 5.5690 0.0000 42.4860 0.0000
# 6 0.0000 0.0000 0.0000 -15.3480 0.0000 16.1405
#
#
#
# Elastic Compliance Matrix: (Units=1/GPa)
#
#
# Indices 1 2 3 4 5 6 
#
# 1 0.009954 -0.003961 -0.002320 0.000000 -0.003104 0.000000
# 2 -0.003961 0.015952 -0.001893 0.000000 -0.001109 0.000000
# 3 -0.002320 -0.001893 0.008937 0.000000 0.000154 0.000000
# 4 0.000000 0.000000 0.000000 0.052983 0.000000 0.050381
# 5 -0.003104 -0.001109 0.000154 0.000000 0.025022 0.000000
# 6 0.000000 0.000000 0.000000 0.050381 0.000000 0.109863
#
#
# Mechanical properties :
#
#
# Convention : Reuss Voigt Hill
#
# Bulk Modulus (GPa) = 54.06790 60.99474 57.53132
# Shear Modulus (GPa) = 20.38950 33.65824 27.02387
#
# Velocity S-wave (km/s) = 2.96971 3.81555 3.41889
# Velocity P-wave (km/s) = 5.92834 6.76710 6.36156
#
# Compressibility (1/GPa) = 0.01849526
#
# Stress axis : x y z
#
# Youngs Moduli (GPa) = 100.45726 62.68970 111.89110
#
# Poissons Ratio (x) = 0.24831 0.25959
# Poissons Ratio (y) = 0.39790 0.21182
# Poissons Ratio (z) = 0.23307 0.11868
#
# Static dielectric constant tensor:
#      x y z
#    x 1.948760 0.000000 -0.065270 
#    y 0.000000 1.881270 0.000000 
#    z -0.065270 0.000000 1.976580 
# 
# From -- ./inp_files/287802.got.cif
#   From: 2010.05.17/outbox.cif.g08.bks.cpg/sg15_144_cif.got.tgz:287802.got - 2010.06.03 18:47:42.
