data_PCOD9291931
_publ_section_title
;
Structure prediction by ZEFSAII (Michael W. Deem and Ramdas Pophale) SiO2 
 PCOD9291931
Probable space group: C 2/C
;
_chemical_formula_sum "Si O2"
_cell_formula_units_Z 44
_cell_length_a 10.564727
_cell_length_b 12.069219
_cell_length_c 16.894777
_cell_angle_alpha 90.000000
_cell_angle_beta 124.275241
_cell_angle_gamma 90.000000
_cell_volume 1780.121299
_symmetry_space_group_name_H-M "C 2/C"
_symmetry_group_IT_number 15
_symmetry_cell_setting 'monoclinic'
loop_
_space_group_symop_operation_xyz
x,y,z
-x,y,1/2-z
-x,-y,-z
x,-y,1/2+z
1/2+x,1/2+y,z
1/2-x,1/2+y,1/2-z
1/2-x,1/2-y,-z
1/2+x,1/2-y,1/2+z
loop_
_atom_site_type_symbol
_atom_site_label
_atom_site_fract_x
_atom_site_fract_y
_atom_site_fract_z
Si Si1 0.885223 0.790389 0.992087
Si Si2 0.674275 0.729920 0.661516
Si Si3 0.160755 0.998704 0.937951
Si Si4 0.608026 0.069001 0.854237
Si Si5 0.940115 0.794376 0.840843
Si Si6 0.000000 0.128760 0.750000
O O1 0.844045 0.791788 0.887302
O O2 0.750000 0.750000 0.000000
O O3 0.041722 0.722793 0.059070
O O4 0.922590 0.914409 0.033075
O O5 0.752349 0.624296 0.646076
O O6 0.814527 0.812507 0.728579
O O7 0.585849 0.696367 0.711004
O O8 0.072669 0.882936 0.900766
O O9 0.130062 0.056281 0.841868
O O10 0.321429 0.986655 0.042046
O O11 0.500000 0.008547 0.750000
O O12 0.509988 0.174354 0.848761
#
# Coordination Sequence:
#
# PCOD9291931 Si02
#       6
#     8   8   8   8   8   4
#     4  11  24  43  65  93 136 176 211 271 332 392
#     4  10  22  43  62  95 133 171 216 272 329 388
#     4  11  23  42  67 101 128 176 224 267 332 396
#     4  10  23  42  67  97 136 169 222 281 326 383
#     4  11  22  39  70  93 127 171 219 269 322 386
#     4  10  24  38  66  92 138 172 222 266 336 396
#
# _framework density 24.717416
#
# number of rings (size 3 to 8) (size 9 to 14) (size 15 to 20)
#    0.000    1.455    1.818    3.273    6.364    0.000 
#    3.273    8.182    0.000    0.000    0.000    0.000 
#    0.000    0.000    0.000    0.000    0.000    0.000 
#
# Total GULP energy -122791.846416 kJ/mol
# GULP energy per Si atom -5581.447564 kJ/mol
# Density = 2.466116 g / cm^3
# Si number density = 24.717416 Si / 1000 Ang^3
#
#
#
# Elastic Constant Matrix: (Units=GPa)
#
#
# Indices 1 2 3 4 5 6 
#
# 1 48.3269 -6.5072 -6.4733 0.0000 -13.9329 0.0000
# 2 -6.5072 40.9548 32.9396 0.0000 -0.6269 0.0000
# 3 -6.4733 32.9396 173.4999 0.0000 27.3565 0.0000
# 4 0.0000 0.0000 0.0000 31.6067 0.0000 -2.2394
# 5 -13.9329 -0.6269 27.3565 0.0000 53.8477 0.0000
# 6 0.0000 0.0000 0.0000 -2.2394 0.0000 17.8020
#
#
#
# Elastic Compliance Matrix: (Units=1/GPa)
#
#
# Indices 1 2 3 4 5 6 
#
# 1 0.023062 0.004607 -0.001047 0.000000 0.006553 0.000000
# 2 0.004607 0.030317 -0.006335 0.000000 0.004763 0.000000
# 3 -0.001047 -0.006335 0.007590 0.000000 -0.004201 0.000000
# 4 0.000000 0.000000 0.000000 0.031923 0.000000 0.004016
# 5 0.006553 0.004763 -0.004201 0.000000 0.022456 0.000000
# 6 0.000000 0.000000 0.000000 0.004016 0.000000 0.056678
#
#
# Mechanical properties :
#
#
# Convention : Reuss Voigt Hill
#
# Bulk Modulus (GPa) = 18.04480 33.63330 25.83905
# Shear Modulus (GPa) = 25.50372 36.83947 31.17159
#
# Velocity S-wave (km/s) = 3.21567 3.86479 3.55508
# Velocity P-wave (km/s) = 4.59387 5.79242 5.22761
#
# Compressibility (1/GPa) = 0.05541764
#
# Stress axis : x y z
#
# Youngs Moduli (GPa) = 43.36196 32.98452 131.75819
#
# Poissons Ratio (x) = -0.15196 0.13801
# Poissons Ratio (y) = -0.19977 0.83469
# Poissons Ratio (z) = 0.04542 0.20896
#
# Static dielectric constant tensor:
#      x y z
#    x 1.953660 0.000000 0.064540 
#    y 0.000000 1.977200 0.000000 
#    z 0.064540 0.000000 2.077930 
# 
# From -- ./inp_files/198095.got.cif
#   From: 2010.05.17/outbox.cif.g08.bks.cpg/sg15_100_cif.got.tgz:198095.got - 2010.06.03 18:47:42.
