data_PCOD9291964
_publ_section_title
;
Structure prediction by ZEFSAII (Michael W. Deem and Ramdas Pophale) SiO2 
 PCOD9291964
Probable space group: C 2/C
;
_chemical_formula_sum "Si O2"
_cell_formula_units_Z 40
_cell_length_a 6.967016
_cell_length_b 12.502536
_cell_length_c 18.132547
_cell_angle_alpha 90.000000
_cell_angle_beta 99.986789
_cell_angle_gamma 90.000000
_cell_volume 1555.510108
_symmetry_space_group_name_H-M "C 2/C"
_symmetry_group_IT_number 15
_symmetry_cell_setting 'monoclinic'
loop_
_space_group_symop_operation_xyz
x,y,z
-x,y,1/2-z
-x,-y,-z
x,-y,1/2+z
1/2+x,1/2+y,z
1/2-x,1/2+y,1/2-z
1/2-x,1/2-y,-z
1/2+x,1/2-y,1/2+z
loop_
_atom_site_type_symbol
_atom_site_label
_atom_site_fract_x
_atom_site_fract_y
_atom_site_fract_z
Si Si1 0.536205 0.155788 0.051219
Si Si2 0.286089 0.625039 0.930542
Si Si3 0.147570 0.086704 0.150587
Si Si4 0.853408 0.325318 0.391107
Si Si5 0.235177 0.465551 0.683830
O O1 0.561484 0.280080 0.072907
O O2 0.726976 0.127996 0.012732
O O3 0.558119 0.079266 0.122254
O O4 0.368729 0.141400 0.978662
O O5 0.349261 0.510395 0.906773
O O6 0.080021 0.659917 0.880601
O O7 0.200540 0.202127 0.121570
O O8 0.274789 0.055096 0.230472
O O9 0.928477 0.093247 0.167934
O O10 0.738538 0.409924 0.334574
#
# Coordination Sequence:
#
# PCOD9291964 Si02
#       5
#     8   8   8   8   8
#     4   9  19  42  67  89 122 166 212 254 305 370
#     4   9  20  41  67  89 120 166 209 251 306 372
#     4  11  24  40  62  94 128 165 206 259 311 373
#     4  10  22  43  64  91 121 171 207 253 317 360
#     4  11  23  39  64  92 131 162 206 261 314 361
#
# _framework density 25.715039000000001
#
# number of rings (size 3 to 8) (size 9 to 14) (size 15 to 20)
#    1.200    0.800    2.000    0.600    2.800    4.000 
#    3.600    2.000    0.000    0.000    0.000    0.000 
#    0.000    0.000    0.000    0.000    0.000    0.000 
#
# Total GULP energy -111967.880618 kJ/mol
# GULP energy per Si atom -5598.394031 kJ/mol
# Density = 2.565651 g / cm^3
# Si number density = 25.715039 Si / 1000 Ang^3
#
#
#
# Elastic Constant Matrix: (Units=GPa)
#
#
# Indices 1 2 3 4 5 6 
#
# 1 66.3545 15.5970 13.6319 0.0000 -4.5512 0.0000
# 2 15.5970 205.2049 88.8717 0.0000 -11.8917 0.0000
# 3 13.6319 88.8717 160.0294 0.0000 -8.2403 0.0000
# 4 0.0000 0.0000 0.0000 32.7351 0.0000 5.9398
# 5 -4.5512 -11.8917 -8.2403 0.0000 31.0542 0.0000
# 6 0.0000 0.0000 0.0000 5.9398 0.0000 43.6194
#
#
#
# Elastic Compliance Matrix: (Units=1/GPa)
#
#
# Indices 1 2 3 4 5 6 
#
# 1 0.015532 -0.000716 -0.000834 0.000000 0.001781 0.000000
# 2 -0.000716 0.006522 -0.003485 0.000000 0.001468 0.000000
# 3 -0.000834 -0.003485 0.008294 0.000000 0.000744 0.000000
# 4 0.000000 0.000000 0.000000 0.031322 0.000000 -0.004265
# 5 0.001781 0.001468 0.000744 0.000000 0.033222 0.000000
# 6 0.000000 0.000000 0.000000 -0.004265 0.000000 0.023506
#
#
# Mechanical properties :
#
#
# Convention : Reuss Voigt Hill
#
# Bulk Modulus (GPa) = 49.31565 74.19888 61.75727
# Shear Modulus (GPa) = 36.97429 42.38095 39.67762
#
# Velocity S-wave (km/s) = 3.79601 4.06408 3.93233
# Velocity P-wave (km/s) = 6.19938 7.13718 6.68474
#
# Compressibility (1/GPa) = 0.02027754
#
# Stress axis : x y z
#
# Youngs Moduli (GPa) = 64.38175 153.32256 120.57180
#
# Poissons Ratio (x) = 0.10983 0.10051
# Poissons Ratio (y) = 0.04612 0.42025
# Poissons Ratio (z) = 0.05367 0.53440
#
# Static dielectric constant tensor:
#      x y z
#    x 2.183450 0.000000 0.002940 
#    y 0.000000 1.938670 0.000000 
#    z 0.002940 0.000000 1.976010 
# 
# From -- ./inp_files/230008.got.cif
#   From: 2010.05.17/outbox.cif.g08.bks.cpg/sg15_116_cif.got.tgz:230008.got - 2010.06.03 18:47:42.
