data_PCOD9291274
_publ_section_title
;
Structure prediction by ZEFSAII (Michael W. Deem and Ramdas Pophale) SiO2 
 PCOD9291274
Probable space group: C 2/C
;
_chemical_formula_sum "Si O2"
_cell_formula_units_Z 56
_cell_length_a 9.406730
_cell_length_b 13.797305
_cell_length_c 24.958809
_cell_angle_alpha 90.000000
_cell_angle_beta 119.703553
_cell_angle_gamma 90.000000
_cell_volume 2813.695010
_symmetry_space_group_name_H-M "C 2/C"
_symmetry_group_IT_number 15
_symmetry_cell_setting 'monoclinic'
loop_
_space_group_symop_operation_xyz
x,y,z
-x,y,1/2-z
-x,-y,-z
x,-y,1/2+z
1/2+x,1/2+y,z
1/2-x,1/2+y,1/2-z
1/2-x,1/2-y,-z
1/2+x,1/2-y,1/2+z
loop_
_atom_site_type_symbol
_atom_site_label
_atom_site_fract_x
_atom_site_fract_y
_atom_site_fract_z
Si Si1 0.554717 0.515367 0.950142
Si Si2 0.997628 0.380254 0.367536
Si Si3 0.338630 0.175619 0.358479
Si Si4 0.644891 0.699989 0.432969
Si Si5 0.092582 0.542363 0.464676
Si Si6 0.269429 0.611668 0.829247
Si Si7 0.192319 0.989773 0.275042
O O1 0.589391 0.408401 0.933923
O O2 0.411406 0.569956 0.893372
O O3 0.500000 0.500000 0.000000
O O4 0.727317 0.571171 0.982659
O O5 0.814766 0.420387 0.330733
O O6 0.999535 0.273600 0.392396
O O7 0.098980 0.450619 0.425874
O O8 0.097870 0.383384 0.330035
O O9 0.246936 0.195583 0.397340
O O10 0.503341 0.124962 0.412532
O O11 0.329317 0.278909 0.326963
O O12 0.247092 0.096457 0.304579
O O13 0.750000 0.750000 0.500000
O O14 0.000000 0.500000 0.500000
O O15 0.266674 0.540534 0.778006
O O16 0.000000 0.976834 0.250000
#
# Coordination Sequence:
#
# PCOD9291274 Si02
#       7
#     8   8   8   8   8   8   8
#     4  12  22  37  63  99 135 162 212 270 326 389
#     4  10  22  42  66  91 127 171 219 263 317 395
#     4  10  23  42  66  91 128 174 222 261 326 400
#     4  11  19  39  68  98 127 177 218 254 324 411
#     4  11  20  38  65  95 131 171 204 267 330 388
#     4  11  24  43  64  94 126 172 220 265 323 397
#     4  11  25  44  65  92 125 168 222 275 325 379
#
# _framework density 19.902653999999998
#
# number of rings (size 3 to 8) (size 9 to 14) (size 15 to 20)
#    0.000    1.143    4.286    2.143    2.000    4.000 
#    2.571    2.857    0.000    0.000    0.000    0.000 
#    0.000    0.000    0.000    0.000    0.000    0.000 
#
# Total GULP energy -156208.035668 kJ/mol
# GULP energy per Si atom -5578.858417 kJ/mol
# Density = 1.985735 g / cm^3
# Si number density = 19.902654 Si / 1000 Ang^3
#
#
#
# Elastic Constant Matrix: (Units=GPa)
#
#
# Indices 1 2 3 4 5 6 
#
# 1 61.6582 22.2372 29.8201 0.0000 13.7262 0.0000
# 2 22.2372 109.5382 39.9151 0.0000 14.8619 0.0000
# 3 29.8201 39.9151 92.8004 0.0000 7.9860 0.0000
# 4 0.0000 0.0000 0.0000 33.8616 0.0000 -3.6999
# 5 13.7262 14.8619 7.9860 0.0000 45.6773 0.0000
# 6 0.0000 0.0000 0.0000 -3.6999 0.0000 20.7851
#
#
#
# Elastic Compliance Matrix: (Units=1/GPa)
#
#
# Indices 1 2 3 4 5 6 
#
# 1 0.020482 -0.001506 -0.005530 0.000000 -0.004698 0.000000
# 2 -0.001506 0.011288 -0.004157 0.000000 -0.002494 0.000000
# 3 -0.005530 -0.004157 0.014296 0.000000 0.000515 0.000000
# 4 0.000000 0.000000 0.000000 0.030118 0.000000 0.005361
# 5 -0.004698 -0.002494 0.000515 0.000000 0.024026 0.000000
# 6 0.000000 0.000000 0.000000 0.005361 0.000000 0.049066
#
#
# Mechanical properties :
#
#
# Convention : Reuss Voigt Hill
#
# Bulk Modulus (GPa) = 42.22620 49.77128 45.99874
# Shear Modulus (GPa) = 27.84696 31.53311 29.69003
#
# Velocity S-wave (km/s) = 3.74459 3.98473 3.86652
# Velocity P-wave (km/s) = 6.32126 6.79944 6.56471
#
# Compressibility (1/GPa) = 0.02368198
#
# Stress axis : x y z
#
# Youngs Moduli (GPa) = 48.82426 88.59055 69.94832
#
# Poissons Ratio (x) = 0.13338 0.38679
# Poissons Ratio (y) = 0.07351 0.29076
# Poissons Ratio (z) = 0.26998 0.36825
#
# Static dielectric constant tensor:
#      x y z
#    x 1.783940 0.000000 -0.050220 
#    y 0.000000 1.706360 0.000000 
#    z -0.050220 0.000000 1.803700 
# 
# From -- ./inp_files/264790.got.cif
#   From: 2010.05.17/outbox.cif.g08.bks.cpg/sg15_133_cif.got.tgz:264790.got - 2010.06.03 18:47:42.
