data_PCOD9291279
_publ_section_title
;
Structure prediction by ZEFSAII (Michael W. Deem and Ramdas Pophale) SiO2 
 PCOD9291279
Probable space group: C 2/C
;
_chemical_formula_sum "Si O2"
_cell_formula_units_Z 52
_cell_length_a 9.423481
_cell_length_b 18.124211
_cell_length_c 20.712609
_cell_angle_alpha 90.000000
_cell_angle_beta 139.143839
_cell_angle_gamma 90.000000
_cell_volume 2314.146144
_symmetry_space_group_name_H-M "C 2/C"
_symmetry_group_IT_number 15
_symmetry_cell_setting 'monoclinic'
loop_
_space_group_symop_operation_xyz
x,y,z
-x,y,1/2-z
-x,-y,-z
x,-y,1/2+z
1/2+x,1/2+y,z
1/2-x,1/2+y,1/2-z
1/2-x,1/2-y,-z
1/2+x,1/2-y,1/2+z
loop_
_atom_site_type_symbol
_atom_site_label
_atom_site_fract_x
_atom_site_fract_y
_atom_site_fract_z
Si Si1 0.530184 0.948431 0.573133
Si Si2 0.713049 0.624996 0.882308
Si Si3 0.075293 0.249645 0.658465
Si Si4 0.452272 0.688098 0.995181
Si Si5 0.527695 0.808603 0.134023
Si Si6 0.619092 0.097207 0.356798
Si Si7 0.500000 0.494579 0.750000
O O1 0.399282 0.879176 0.499750
O O2 0.406697 0.964775 0.597105
O O3 0.500000 0.000000 0.500000
O O4 0.783407 0.945954 0.677996
O O5 0.570489 0.695941 0.847127
O O6 0.834944 0.628739 0.855632
O O7 0.560382 0.552435 0.828230
O O8 0.029096 0.224471 0.569361
O O9 0.323139 0.229826 0.761043
O O10 0.013185 0.331276 0.660875
O O11 0.203018 0.664657 0.919734
O O12 0.493559 0.748320 0.065399
O O13 0.634607 0.625190 0.065446
O O14 0.500000 0.076165 0.250000
#
# Coordination Sequence:
#
# PCOD9291279 Si02
#       7
#     8   8   8   8   8   8   4
#     4  10  24  42  66  95 124 179 240 280 337 407
#     4  11  19  39  73  88 131 174 227 284 333 414
#     4  12  20  39  66 101 131 184 215 275 361 417
#     4  11  23  36  57  99 148 173 213 270 350 426
#     4  11  22  37  59 102 140 173 217 274 345 421
#     4  12  22  40  66  97 140 178 223 284 356 416
#     4  10  22  42  66  92 122 174 238 282 324 394
#
# _framework density 22.470492
#
# number of rings (size 3 to 8) (size 9 to 14) (size 15 to 20)
#    0.000    0.923    6.154    1.846    0.000    1.231 
#    2.769    0.000    6.769    5.538    0.000    0.000 
#    0.000    0.000    0.000    0.000    0.000    0.000 
#
# Total GULP energy -145073.309639 kJ/mol
# GULP energy per Si atom -5579.742678 kJ/mol
# Density = 2.241935 g / cm^3
# Si number density = 22.470492 Si / 1000 Ang^3
#
#
#
# Elastic Constant Matrix: (Units=GPa)
#
#
# Indices 1 2 3 4 5 6 
#
# 1 119.2596 21.8800 43.7174 0.0001 13.1490 0.0001
# 2 21.8800 27.8258 32.0766 0.0000 -0.5090 0.0000
# 3 43.7174 32.0766 123.8898 0.0001 27.4138 0.0000
# 4 0.0001 0.0000 0.0001 18.3955 0.0001 -4.1965
# 5 13.1490 -0.5090 27.4138 0.0001 51.2159 0.0000
# 6 0.0001 0.0000 0.0000 -4.1965 0.0000 25.0428
#
#
#
# Elastic Compliance Matrix: (Units=1/GPa)
#
#
# Indices 1 2 3 4 5 6 
#
# 1 0.010336 -0.006316 -0.001600 0.000000 -0.001860 0.000000
# 2 -0.006316 0.058687 -0.015261 0.000000 0.010374 0.000000
# 3 -0.001600 -0.015261 0.014214 0.000000 -0.007349 0.000000
# 4 0.000000 0.000000 0.000000 0.056522 0.000000 0.009472
# 5 -0.001860 0.010374 -0.007349 0.000000 0.024039 0.000000
# 6 0.000000 0.000000 0.000000 0.009472 0.000000 0.041519
#
#
# Mechanical properties :
#
#
# Convention : Reuss Voigt Hill
#
# Bulk Modulus (GPa) = 27.11454 51.81371 39.46412
# Shear Modulus (GPa) = 18.94179 30.48425 24.71302
#
# Velocity S-wave (km/s) = 2.90653 3.68725 3.31992
# Velocity P-wave (km/s) = 4.83289 6.42155 5.68301
#
# Compressibility (1/GPa) = 0.03688058
#
# Stress axis : x y z
#
# Youngs Moduli (GPa) = 96.75328 17.03946 70.35371
#
# Poissons Ratio (x) = 0.10763 0.11258
# Poissons Ratio (y) = 0.61113 1.07370
# Poissons Ratio (z) = 0.15483 0.26005
#
# Static dielectric constant tensor:
#      x y z
#    x 1.866620 0.000000 -0.000780 
#    y 0.000000 1.911160 0.000000 
#    z -0.000780 0.000000 1.868540 
# 
# From -- ./inp_files/234486.got.cif
#   From: 2010.05.17/outbox.cif.g08.bks.cpg/sg15_118_cif.got.tgz:234486.got - 2010.06.03 18:47:42.
