data_PCOD9291746
_publ_section_title
;
Structure prediction by ZEFSAII (Michael W. Deem and Ramdas Pophale) SiO2 
 PCOD9291746
Probable space group: C 2/C
;
_chemical_formula_sum "Si O2"
_cell_formula_units_Z 40
_cell_length_a 12.514722
_cell_length_b 9.517094
_cell_length_c 13.749122
_cell_angle_alpha 90.000000
_cell_angle_beta 72.453695
_cell_angle_gamma 90.000000
_cell_volume 1561.382154
_symmetry_space_group_name_H-M "C 2/C"
_symmetry_group_IT_number 15
_symmetry_cell_setting 'monoclinic'
loop_
_space_group_symop_operation_xyz
x,y,z
-x,y,1/2-z
-x,-y,-z
x,-y,1/2+z
1/2+x,1/2+y,z
1/2-x,1/2+y,1/2-z
1/2-x,1/2-y,-z
1/2+x,1/2-y,1/2+z
loop_
_atom_site_type_symbol
_atom_site_label
_atom_site_fract_x
_atom_site_fract_y
_atom_site_fract_z
Si Si1 0.194913 0.163841 0.366775
Si Si2 0.496563 0.699663 0.867163
Si Si3 0.047737 0.118792 0.128110
Si Si4 0.783211 0.689322 0.124903
Si Si5 0.328491 0.920385 0.999755
O O1 0.241309 0.147200 0.245501
O O2 0.252376 0.056453 0.425223
O O3 0.226769 0.313362 0.406543
O O4 0.059901 0.165308 0.403597
O O5 0.500000 0.721945 0.750000
O O6 0.440417 0.546942 0.895180
O O7 0.621775 0.695457 0.878581
O O8 0.432322 0.833238 0.928427
O O9 0.000000 0.131300 0.250000
O O10 0.165414 0.201564 0.097719
O O11 0.845378 0.561573 0.053904
#
# Coordination Sequence:
#
# PCOD9291746 Si02
#       5
#     8   8   8   8   8
#     4  10  22  42  70  98 138 176 227 287 338 413
#     4  11  22  43  69  98 140 182 223 280 343 410
#     4   9  21  40  68  98 133 179 227 277 338 403
#     4  11  23  41  70 102 135 178 229 277 343 411
#     4  11  23  40  69  99 132 183 224 276 351 409
#
# _framework density 25.618327000000001
#
# number of rings (size 3 to 8) (size 9 to 14) (size 15 to 20)
#    0.000    1.600    2.000    3.000    5.600    3.200 
#    0.000    9.000    0.000    0.000    0.000    0.000 
#    0.000    0.000    0.000    0.000    0.000    0.000 
#
# Total GULP energy -111849.479280 kJ/mol
# GULP energy per Si atom -5592.473964 kJ/mol
# Density = 2.556002 g / cm^3
# Si number density = 25.618327 Si / 1000 Ang^3
#
#
#
# Elastic Constant Matrix: (Units=GPa)
#
#
# Indices 1 2 3 4 5 6 
#
# 1 218.7183 52.5488 44.0140 0.0000 26.7872 0.0000
# 2 52.5488 71.0771 42.5666 0.0000 5.9605 0.0000
# 3 44.0140 42.5666 126.9701 0.0000 15.3399 0.0000
# 4 0.0000 0.0000 0.0000 32.0799 0.0000 1.8301
# 5 26.7872 5.9605 15.3399 0.0000 52.7096 0.0000
# 6 0.0000 0.0000 0.0000 1.8301 0.0000 49.0342
#
#
#
# Elastic Compliance Matrix: (Units=1/GPa)
#
#
# Indices 1 2 3 4 5 6 
#
# 1 0.005893 -0.003885 -0.000447 0.000000 -0.002425 0.000000
# 2 -0.003885 0.020170 -0.005574 0.000000 0.001316 0.000000
# 3 -0.000447 -0.005574 0.010153 0.000000 -0.002097 0.000000
# 4 0.000000 0.000000 0.000000 0.031239 0.000000 -0.001166
# 5 -0.002425 0.001316 -0.002097 0.000000 0.020666 0.000000
# 6 0.000000 0.000000 0.000000 -0.001166 0.000000 0.020437
#
#
# Mechanical properties :
#
#
# Convention : Reuss Voigt Hill
#
# Bulk Modulus (GPa) = 60.96749 77.22491 69.09620
# Shear Modulus (GPa) = 37.35884 45.27383 41.31634
#
# Velocity S-wave (km/s) = 3.82289 4.20842 4.02028
# Velocity P-wave (km/s) = 6.58301 7.33650 6.96995
#
# Compressibility (1/GPa) = 0.01640218
#
# Stress axis : x y z
#
# Youngs Moduli (GPa) = 169.70522 49.57974 98.49422
#
# Poissons Ratio (x) = 0.19264 0.04404
# Poissons Ratio (y) = 0.65937 0.54900
# Poissons Ratio (z) = 0.07587 0.27635
#
# Static dielectric constant tensor:
#      x y z
#    x 2.105160 0.000000 -0.014750 
#    y 0.000000 1.954060 0.000000 
#    z -0.014750 0.000000 2.004640 
# 
# From -- ./inp_files/141821.got.cif
#   From: 2010.05.17/outbox.cif.g08.bks.cpg/sg15_71_cif.got.tgz:141821.got - 2010.06.03 18:47:42.
