data_PCOD9291817
_publ_section_title
;
Structure prediction by ZEFSAII (Michael W. Deem and Ramdas Pophale) SiO2 
 PCOD9291817
Probable space group: C 2/C
;
_chemical_formula_sum "Si O2"
_cell_formula_units_Z 44
_cell_length_a 5.005822
_cell_length_b 22.228909
_cell_length_c 16.785892
_cell_angle_alpha 90.000000
_cell_angle_beta 102.394734
_cell_angle_gamma 90.000000
_cell_volume 1824.297278
_symmetry_space_group_name_H-M "C 2/C"
_symmetry_group_IT_number 15
_symmetry_cell_setting 'monoclinic'
loop_
_space_group_symop_operation_xyz
x,y,z
-x,y,1/2-z
-x,-y,-z
x,-y,1/2+z
1/2+x,1/2+y,z
1/2-x,1/2+y,1/2-z
1/2-x,1/2-y,-z
1/2+x,1/2-y,1/2+z
loop_
_atom_site_type_symbol
_atom_site_label
_atom_site_fract_x
_atom_site_fract_y
_atom_site_fract_z
Si Si1 0.790149 0.488730 0.805838
Si Si2 0.000000 0.000000 0.500000
Si Si3 0.659408 0.105307 0.417031
Si Si4 0.753103 0.759458 0.905681
Si Si5 0.696403 0.197355 0.839000
Si Si6 0.484870 0.083239 0.580032
O O1 0.500000 0.474945 0.750000
O O2 0.000000 0.509127 0.750000
O O3 0.928342 0.430991 0.854743
O O4 0.764309 0.544860 0.865996
O O5 0.077148 0.937601 0.557499
O O6 0.718488 0.970194 0.453581
O O7 0.706719 0.170585 0.383961
O O8 0.576322 0.113750 0.504479
O O9 0.510399 0.718186 0.852512
O O10 0.048152 0.740523 0.892698
O O11 0.750000 0.750000 0.000000
O O12 0.500000 0.201811 0.750000
O O13 0.657553 0.130407 0.871234
#
# Coordination Sequence:
#
# PCOD9291817 Si02
#       6
#     8   4   8   8   8   8
#     4  11  27  44  67 104 147 187 233 299 370 424
#     4  10  22  42  72 110 134 186 244 304 350 436
#     4  11  26  44  78 100 143 193 248 300 358 442
#     4  12  26  49  77 108 143 198 248 299 365 442
#     4  12  28  49  76 112 151 193 245 311 373 433
#     4  11  25  45  75 105 144 195 245 303 360 443
#
# _framework density 24.118876
#
# number of rings (size 3 to 8) (size 9 to 14) (size 15 to 20)
#    0.000    0.727    1.818    4.909   12.727    3.636 
#    0.000    0.000    0.000    0.000    0.000    0.000 
#    0.000    0.000    0.000    0.000    0.000    0.000 
#
# Total GULP energy -122812.649536 kJ/mol
# GULP energy per Si atom -5582.393161 kJ/mol
# Density = 2.406398 g / cm^3
# Si number density = 24.118876 Si / 1000 Ang^3
#
#
#
# Elastic Constant Matrix: (Units=GPa)
#
#
# Indices 1 2 3 4 5 6 
#
# 1 74.8561 12.8122 9.7682 0.0000 22.9819 0.0000
# 2 12.8122 133.2825 1.7049 0.0000 16.2974 0.0000
# 3 9.7682 1.7049 83.3456 0.0000 24.0625 0.0000
# 4 0.0000 0.0000 0.0000 19.2563 0.0000 -3.6320
# 5 22.9819 16.2974 24.0625 0.0000 45.8602 0.0000
# 6 0.0000 0.0000 0.0000 -3.6320 0.0000 22.7957
#
#
#
# Elastic Compliance Matrix: (Units=1/GPa)
#
#
# Indices 1 2 3 4 5 6 
#
# 1 0.015845 -0.000553 0.000460 0.000000 -0.007985 0.000000
# 2 -0.000553 0.007904 0.000747 0.000000 -0.002924 0.000000
# 3 0.000460 0.000747 0.014227 0.000000 -0.007961 0.000000
# 4 0.000000 0.000000 0.000000 0.053540 0.000000 0.008530
# 5 -0.007985 -0.002924 -0.007961 0.000000 0.031023 0.000000
# 6 0.000000 0.000000 0.000000 0.008530 0.000000 0.045227
#
#
# Mechanical properties :
#
#
# Convention : Reuss Voigt Hill
#
# Bulk Modulus (GPa) = 25.45493 37.78388 31.61941
# Shear Modulus (GPa) = 27.84687 35.39569 31.62128
#
# Velocity S-wave (km/s) = 3.40158 3.83502 3.62478
# Velocity P-wave (km/s) = 5.09946 5.94218 5.53688
#
# Compressibility (1/GPa) = 0.03928512
#
# Stress axis : x y z
#
# Youngs Moduli (GPa) = 63.11076 126.51878 70.28657
#
# Poissons Ratio (x) = 0.06992 -0.03231
# Poissons Ratio (y) = 0.03488 -0.05252
# Poissons Ratio (z) = -0.02901 -0.09454
#
# Static dielectric constant tensor:
#      x y z
#    x 1.837840 0.000000 -0.041230 
#    y 0.000000 1.888660 0.000000 
#    z -0.041230 0.000000 1.956680 
# 
# From -- ./inp_files/184999.got.cif
#   From: 2010.05.17/outbox.cif.g08.bks.cpg/sg15_93_cif.got.tgz:184999.got - 2010.06.03 18:47:42.
