data_PCOD9291479
_publ_section_title
;
Structure prediction by ZEFSAII (Michael W. Deem and Ramdas Pophale) SiO2 
 PCOD9291479
Probable space group: C 2/C
;
_chemical_formula_sum "Si O2"
_cell_formula_units_Z 52
_cell_length_a 14.915748
_cell_length_b 5.442730
_cell_length_c 25.880435
_cell_angle_alpha 90.000000
_cell_angle_beta 108.485505
_cell_angle_gamma 90.000000
_cell_volume 1992.630301
_symmetry_space_group_name_H-M "C 2/C"
_symmetry_group_IT_number 15
_symmetry_cell_setting 'monoclinic'
loop_
_space_group_symop_operation_xyz
x,y,z
-x,y,1/2-z
-x,-y,-z
x,-y,1/2+z
1/2+x,1/2+y,z
1/2-x,1/2+y,1/2-z
1/2-x,1/2-y,-z
1/2+x,1/2-y,1/2+z
loop_
_atom_site_type_symbol
_atom_site_label
_atom_site_fract_x
_atom_site_fract_y
_atom_site_fract_z
Si Si1 0.630033 0.900412 0.216919
Si Si2 0.650072 0.400237 0.268223
Si Si3 0.178783 0.816059 0.057079
Si Si4 0.983488 0.296656 0.111226
Si Si5 0.677338 0.906977 0.872110
Si Si6 0.653151 0.457033 0.450352
Si Si7 0.500000 0.000000 0.500000
O O1 0.607216 0.667330 0.249450
O O2 0.743071 0.915989 0.233709
O O3 0.585228 0.834603 0.153658
O O4 0.599336 0.169552 0.231013
O O5 0.662106 0.308744 0.329021
O O6 0.268156 0.657908 0.051730
O O7 0.091529 0.635953 0.044343
O O8 0.225118 0.941777 0.115945
O O9 0.141772 0.025540 0.009710
O O10 0.912719 0.418333 0.139941
O O11 0.946651 0.020817 0.094766
O O12 0.966386 0.406034 0.051342
O O13 0.685983 0.792468 0.931052
#
# Coordination Sequence:
#
# PCOD9291479 Si02
#       7
#     8   8   8   8   8   8   4
#     4  10  24  48  69 105 137 186 235 308 349 437
#     4  10  25  45  76  99 140 184 244 286 376 419
#     4   9  20  39  64  94 141 179 228 282 355 421
#     4  10  24  43  67 100 144 180 246 291 368 425
#     4  11  23  41  68 101 132 190 230 299 353 443
#     4   9  20  40  61  95 137 180 222 287 347 431
#     4  10  22  42  68 102 142 192 234 302 358 446
#
# _framework density 26.096159
#
# number of rings (size 3 to 8) (size 9 to 14) (size 15 to 20)
#    0.000    2.154    0.000    1.385    8.615    3.077 
#    0.000    2.308    0.000    0.000    0.000    0.000 
#    0.000    0.000    0.000    0.000    0.000    0.000 
#
# Total GULP energy -144870.097451 kJ/mol
# GULP energy per Si atom -5571.926825 kJ/mol
# Density = 2.603676 g / cm^3
# Si number density = 26.096159 Si / 1000 Ang^3
#
#
#
# Elastic Constant Matrix: (Units=GPa)
#
#
# Indices 1 2 3 4 5 6 
#
# 1 32.6939 17.5404 13.0372 0.0000 -0.0761 0.0001
# 2 17.5404 57.1004 22.6987 0.0000 -0.0350 0.0002
# 3 13.0372 22.6987 78.6006 0.0000 4.7688 0.0000
# 4 0.0000 0.0000 0.0000 35.8491 0.0000 0.8171
# 5 -0.0761 -0.0350 4.7688 0.0000 33.5478 0.0000
# 6 0.0001 0.0002 0.0000 0.8171 0.0000 20.1313
#
#
#
# Elastic Compliance Matrix: (Units=1/GPa)
#
#
# Indices 1 2 3 4 5 6 
#
# 1 0.037355 -0.010165 -0.003293 0.000000 0.000542 0.000000
# 2 -0.010165 0.022574 -0.004875 0.000000 0.000693 0.000000
# 3 -0.003293 -0.004875 0.014805 0.000000 -0.002117 0.000000
# 4 0.000000 0.000000 0.000000 0.027921 0.000000 -0.001133
# 5 0.000542 0.000693 -0.002117 0.000000 0.030111 0.000000
# 6 0.000000 0.000000 0.000000 -0.001133 0.000000 0.049720
#
#
# Mechanical properties :
#
#
# Convention : Reuss Voigt Hill
#
# Bulk Modulus (GPa) = 26.26961 30.54972 28.40966
# Shear Modulus (GPa) = 21.56641 25.58021 23.57331
#
# Velocity S-wave (km/s) = 2.87787 3.13426 3.00880
# Velocity P-wave (km/s) = 4.59687 4.98298 4.79381
#
# Compressibility (1/GPa) = 0.03806680
#
# Stress axis : x y z
#
# Youngs Moduli (GPa) = 26.77012 44.29869 67.54450
#
# Poissons Ratio (x) = 0.45032 0.22244
# Poissons Ratio (y) = 0.27213 0.32928
# Poissons Ratio (z) = 0.08816 0.21596
#
# Static dielectric constant tensor:
#      x y z
#    x 1.996340 0.000000 -0.010580 
#    y 0.000000 2.034220 0.000000 
#    z -0.010580 0.000000 2.030070 
# 
# From -- ./inp_files/297852.got.cif
#   From: 2010.05.17/outbox.cif.g08.bks.cpg/sg15_149_cif.got.tgz:297852.got - 2010.06.03 18:47:42.
