data_PCOD9291171
_publ_section_title
;
Structure prediction by ZEFSAII (Michael W. Deem and Ramdas Pophale) SiO2 
 PCOD9291171
Probable space group: C 2/C
;
_chemical_formula_sum "Si O2"
_cell_formula_units_Z 40
_cell_length_a 16.660098
_cell_length_b 8.774297
_cell_length_c 24.430265
_cell_angle_alpha 90.000000
_cell_angle_beta 30.606236
_cell_angle_gamma 90.000000
_cell_volume 1818.239526
_symmetry_space_group_name_H-M "C 2/C"
_symmetry_group_IT_number 15
_symmetry_cell_setting 'monoclinic'
loop_
_space_group_symop_operation_xyz
x,y,z
-x,y,1/2-z
-x,-y,-z
x,-y,1/2+z
1/2+x,1/2+y,z
1/2-x,1/2+y,1/2-z
1/2-x,1/2-y,-z
1/2+x,1/2-y,1/2+z
loop_
_atom_site_type_symbol
_atom_site_label
_atom_site_fract_x
_atom_site_fract_y
_atom_site_fract_z
Si Si1 0.195751 0.060589 0.500116
Si Si2 0.811852 0.198464 0.106420
Si Si3 0.330183 0.483815 0.364312
Si Si4 0.434840 0.770048 0.450068
Si Si5 0.963510 0.539264 0.711317
O O1 0.123411 0.150859 0.491683
O O2 0.150286 0.097924 0.588281
O O3 0.152262 0.882660 0.517976
O O4 0.384802 0.068883 0.385786
O O5 0.720646 0.356505 0.149500
O O6 0.946213 0.225143 0.071694
O O7 0.693704 0.062371 0.193407
O O8 0.500000 0.548946 0.250000
O O9 0.193454 0.608610 0.452658
O O10 0.527457 0.843695 0.344183
O O11 0.000000 0.607356 0.750000
#
# Coordination Sequence:
#
# PCOD9291171 Si02
#       5
#     8   8   8   8   8
#     4  10  22  42  65  91 127 172 216 261 318 392
#     4  11  23  42  66  97 130 167 213 274 327 373
#     4  11  23  41  65  94 130 179 219 256 316 389
#     4  11  24  42  66 100 131 165 216 275 321 373
#     4   9  20  41  65  90 126 171 212 254 319 393
#
# _framework density 21.999300999999999
#
# number of rings (size 3 to 8) (size 9 to 14) (size 15 to 20)
#    0.000    1.600    0.000    6.000    0.000    9.600 
#    0.000   10.000    0.000    0.000    0.000    0.000 
#    0.000    0.000    0.000    0.000    0.000    0.000 
#
# Total GULP energy -111844.598888 kJ/mol
# GULP energy per Si atom -5592.229944 kJ/mol
# Density = 2.194923 g / cm^3
# Si number density = 21.999301 Si / 1000 Ang^3
#
#
#
# Elastic Constant Matrix: (Units=GPa)
#
#
# Indices 1 2 3 4 5 6 
#
# 1 149.5088 32.5555 47.6515 0.0000 -2.6775 0.0000
# 2 32.5555 103.1687 11.2417 -0.0002 -18.5809 0.0000
# 3 47.6515 11.2417 96.3540 -0.0004 -2.3690 0.0000
# 4 0.0000 -0.0002 -0.0004 19.8823 0.0000 -0.6181
# 5 -2.6775 -18.5809 -2.3690 0.0000 20.0667 0.0000
# 6 0.0000 0.0000 0.0000 -0.6181 0.0000 41.0849
#
#
#
# Elastic Compliance Matrix: (Units=1/GPa)
#
#
# Indices 1 2 3 4 5 6 
#
# 1 0.008466 -0.002548 -0.003931 0.000000 -0.001694 0.000000
# 2 -0.002548 0.012516 0.000077 0.000000 0.011259 0.000000
# 3 -0.003931 0.000077 0.012338 0.000000 0.001003 0.000000
# 4 0.000000 0.000000 0.000000 0.050319 0.000000 0.000757
# 5 -0.001694 0.011259 0.001003 0.000000 0.060151 0.000000
# 6 0.000000 0.000000 0.000000 0.000757 0.000000 0.024351
#
#
# Mechanical properties :
#
#
# Convention : Reuss Voigt Hill
#
# Bulk Modulus (GPa) = 48.74430 59.10323 53.92377
# Shear Modulus (GPa) = 26.62598 33.37896 30.00247
#
# Velocity S-wave (km/s) = 3.48273 3.89945 3.69696
# Velocity P-wave (km/s) = 6.19498 6.87012 6.54127
#
# Compressibility (1/GPa) = 0.02051522
#
# Stress axis : x y z
#
# Youngs Moduli (GPa) = 118.11853 79.89574 81.04865
#
# Poissons Ratio (x) = 0.20360 0.31862
# Poissons Ratio (y) = 0.30100 -0.00622
# Poissons Ratio (z) = 0.46435 -0.00613
#
# Static dielectric constant tensor:
#      x y z
#    x 1.774320 0.000000 0.035280 
#    y 0.000000 1.840550 0.000000 
#    z 0.035280 0.000000 1.827310 
# 
# From -- ./inp_files/276722.got.cif
#   From: 2010.05.17/outbox.cif.g08.bks.cpg/sg15_139_cif.got.tgz:276722.got - 2010.06.03 18:47:42.
