data_PCOD9291195
_publ_section_title
;
Structure prediction by ZEFSAII (Michael W. Deem and Ramdas Pophale) SiO2 
 PCOD9291195
Probable space group: C 2/C
;
_chemical_formula_sum "Si O2"
_cell_formula_units_Z 56
_cell_length_a 14.984046
_cell_length_b 7.101999
_cell_length_c 25.427099
_cell_angle_alpha 90.000000
_cell_angle_beta 58.891233
_cell_angle_gamma 90.000000
_cell_volume 2316.731344
_symmetry_space_group_name_H-M "C 2/C"
_symmetry_group_IT_number 15
_symmetry_cell_setting 'monoclinic'
loop_
_space_group_symop_operation_xyz
x,y,z
-x,y,1/2-z
-x,-y,-z
x,-y,1/2+z
1/2+x,1/2+y,z
1/2-x,1/2+y,1/2-z
1/2-x,1/2-y,-z
1/2+x,1/2-y,1/2+z
loop_
_atom_site_type_symbol
_atom_site_label
_atom_site_fract_x
_atom_site_fract_y
_atom_site_fract_z
Si Si1 0.000000 0.000000 0.000000
Si Si2 0.500000 0.266121 0.750000
Si Si3 0.635658 0.585424 0.562145
Si Si4 0.797181 0.209272 0.600475
Si Si5 0.709340 0.506116 0.693954
Si Si6 0.235444 0.899631 0.803489
Si Si7 0.502274 0.745722 0.363017
Si Si8 0.161742 0.510738 0.553114
O O1 0.085025 0.930214 0.019422
O O2 0.912789 0.851044 0.049904
O O3 0.600903 0.397121 0.723893
O O4 0.502218 0.161128 0.693366
O O5 0.564025 0.447928 0.618147
O O6 0.755105 0.516829 0.518737
O O7 0.637592 0.800460 0.579580
O O8 0.763504 0.081401 0.660725
O O9 0.720301 0.139169 0.578118
O O10 0.780811 0.420138 0.626409
O O11 0.694560 0.729378 0.697327
O O12 0.756411 0.457298 0.737151
O O13 0.118370 0.812483 0.842659
O O14 0.445314 0.876480 0.423165
#
# Coordination Sequence:
#
# PCOD9291195 Si02
#       8
#     4   4   8   8   8   8   8   8
#     4  10  22  42  66  92 134 170 208 278 322 374
#     4  10  24  42  62  92 132 160 216 266 324 376
#     4  10  22  42  65  94 128 167 213 266 319 380
#     4  11  22  43  63  95 132 171 215 271 322 397
#     4  11  23  44  63  94 128 170 216 274 321 394
#     4  11  24  39  66  92 128 171 216 262 332 380
#     4  11  22  42  62  95 127 167 210 269 313 388
#     4  10  23  40  67  91 128 168 215 258 326 382
#
# _framework density 24.171987999999999
#
# number of rings (size 3 to 8) (size 9 to 14) (size 15 to 20)
#    0.000    1.429    4.286    0.429    4.000    0.000 
#    0.000    2.857    0.000    0.000    0.000    0.000 
#    0.000    0.000    0.000    0.000    0.000    0.000 
#
# Total GULP energy -156139.584132 kJ/mol
# GULP energy per Si atom -5576.413719 kJ/mol
# Density = 2.411697 g / cm^3
# Si number density = 24.171988 Si / 1000 Ang^3
#
#
#
# Elastic Constant Matrix: (Units=GPa)
#
#
# Indices 1 2 3 4 5 6 
#
# 1 43.8560 5.7918 12.9130 0.0000 -10.1840 0.0001
# 2 5.7918 79.5789 25.3423 0.0000 13.3745 0.0003
# 3 12.9130 25.3423 56.0825 0.0000 -5.0856 0.0001
# 4 0.0000 0.0000 0.0000 22.1519 0.0000 8.8599
# 5 -10.1840 13.3745 -5.0856 0.0000 40.7995 0.0000
# 6 0.0001 0.0003 0.0001 8.8599 0.0000 12.5280
#
#
#
# Elastic Compliance Matrix: (Units=1/GPa)
#
#
# Indices 1 2 3 4 5 6 
#
# 1 0.025856 -0.001441 -0.004727 0.000000 0.006337 0.000000
# 2 -0.001441 0.016199 -0.007588 0.000000 -0.006616 0.000000
# 3 -0.004727 -0.007588 0.022724 0.000000 0.004140 0.000000
# 4 0.000000 0.000000 0.000000 0.062948 0.000000 -0.044517
# 5 0.006337 -0.006616 0.004140 0.000000 0.028777 0.000000
# 6 0.000000 0.000000 0.000000 -0.044517 0.000000 0.111304
#
#
# Mechanical properties :
#
#
# Convention : Reuss Voigt Hill
#
# Bulk Modulus (GPa) = 26.83480 29.73462 28.28471
# Shear Modulus (GPa) = 16.24733 24.12725 20.18729
#
# Velocity S-wave (km/s) = 2.59541 3.16278 2.89304
# Velocity P-wave (km/s) = 4.48411 5.06612 4.78397
#
# Compressibility (1/GPa) = 0.03726504
#
# Stress axis : x y z
#
# Youngs Moduli (GPa) = 38.67618 61.73037 44.00697
#
# Poissons Ratio (x) = 0.08898 0.20803
# Poissons Ratio (y) = 0.05575 0.33393
# Poissons Ratio (z) = 0.18283 0.46842
#
# Static dielectric constant tensor:
#      x y z
#    x 1.931020 0.000000 0.023160 
#    y 0.000000 1.925230 0.000000 
#    z 0.023160 0.000000 1.996470 
# 
# From -- ./inp_files/315055.got.cif
#   From: 2010.05.17/outbox.cif.g08.bks.cpg/sg15_158_cif.got.tgz:315055.got - 2010.06.03 18:47:42.
