data_PCOD9291178
_publ_section_title
;
Structure prediction by ZEFSAII (Michael W. Deem and Ramdas Pophale) SiO2 
 PCOD9291178
Probable space group: C 2/C
;
_chemical_formula_sum "Si O2"
_cell_formula_units_Z 44
_cell_length_a 20.482198
_cell_length_b 7.568160
_cell_length_c 14.001153
_cell_angle_alpha 90.000000
_cell_angle_beta 62.711999
_cell_angle_gamma 90.000000
_cell_volume 1928.822790
_symmetry_space_group_name_H-M "C 2/C"
_symmetry_group_IT_number 15
_symmetry_cell_setting 'monoclinic'
loop_
_space_group_symop_operation_xyz
x,y,z
-x,y,1/2-z
-x,-y,-z
x,-y,1/2+z
1/2+x,1/2+y,z
1/2-x,1/2+y,1/2-z
1/2-x,1/2-y,-z
1/2+x,1/2-y,1/2+z
loop_
_atom_site_type_symbol
_atom_site_label
_atom_site_fract_x
_atom_site_fract_y
_atom_site_fract_z
Si Si1 0.762801 0.013362 0.179469
Si Si2 0.185598 0.393819 0.409466
Si Si3 0.473142 0.765495 0.962053
Si Si4 0.500000 0.026216 0.250000
Si Si5 0.154154 0.363304 0.107923
Si Si6 0.596052 0.611686 0.996873
O O1 0.724648 0.019525 0.307266
O O2 0.711897 0.880109 0.153438
O O3 0.771703 0.206628 0.125619
O O4 0.844953 0.936345 0.124089
O O5 0.100166 0.351851 0.444780
O O6 0.181243 0.489693 0.513656
O O7 0.496554 0.859961 0.849174
O O8 0.448796 0.565755 0.951403
O O9 0.538362 0.752957 0.994992
O O10 0.574135 0.913559 0.200511
O O11 0.141292 0.184973 0.056618
#
# Coordination Sequence:
#
# PCOD9291178 Si02
#       6
#     8   8   8   4   8   8
#     4  11  23  41  63  95 126 172 211 262 329 368
#     4  10  23  41  63  91 128 170 213 268 316 379
#     4   9  22  44  62  91 129 165 213 259 321 377
#     4  10  24  38  62  92 124 172 206 266 314 372
#     4  11  24  39  65  95 126 167 219 261 315 386
#     4  10  22  42  65  92 127 167 211 267 310 383
#
# _framework density 22.811841999999999
#
# number of rings (size 3 to 8) (size 9 to 14) (size 15 to 20)
#    0.000    1.818    0.000    2.182    7.636    2.182 
#    6.545    0.000    0.000    0.000    0.000    0.000 
#    0.000    0.000    0.000    0.000    0.000    0.000 
#
# Total GULP energy -123074.458806 kJ/mol
# GULP energy per Si atom -5594.293582 kJ/mol
# Density = 2.275992 g / cm^3
# Si number density = 22.811842 Si / 1000 Ang^3
#
#
#
# Elastic Constant Matrix: (Units=GPa)
#
#
# Indices 1 2 3 4 5 6 
#
# 1 65.1080 15.6742 27.5469 0.0000 -9.4168 0.0000
# 2 15.6742 81.7017 13.9339 0.0000 -7.5676 0.0000
# 3 27.5469 13.9339 102.9633 0.0000 -35.2755 0.0000
# 4 0.0000 0.0000 0.0000 22.5550 0.0000 -10.3238
# 5 -9.4168 -7.5676 -35.2755 0.0000 29.8003 0.0000
# 6 0.0000 0.0000 0.0000 -10.3238 0.0000 33.5719
#
#
#
# Elastic Compliance Matrix: (Units=1/GPa)
#
#
# Indices 1 2 3 4 5 6 
#
# 1 0.017877 -0.002691 -0.004571 0.000000 -0.000445 0.000000
# 2 -0.002691 0.013004 -0.000336 0.000000 0.002054 0.000000
# 3 -0.004571 -0.000336 0.017590 0.000000 0.019292 0.000000
# 4 0.000000 0.000000 0.000000 0.051599 0.000000 0.015867
# 5 -0.000445 0.002054 0.019292 0.000000 0.056774 0.000000
# 6 0.000000 0.000000 0.000000 0.015867 0.000000 0.034666
#
#
# Mechanical properties :
#
#
# Convention : Reuss Voigt Hill
#
# Bulk Modulus (GPa) = 30.05394 40.45367 35.25381
# Shear Modulus (GPa) = 22.95707 30.02663 26.49185
#
# Velocity S-wave (km/s) = 3.17577 3.63198 3.41151
# Velocity P-wave (km/s) = 5.16243 5.94647 5.56827
#
# Compressibility (1/GPa) = 0.03327351
#
# Stress axis : x y z
#
# Youngs Moduli (GPa) = 55.93905 76.90231 56.84970
#
# Poissons Ratio (x) = 0.20696 0.25987
# Poissons Ratio (y) = 0.15055 0.01910
# Poissons Ratio (z) = 0.25571 0.02584
#
# Static dielectric constant tensor:
#      x y z
#    x 1.834450 0.000000 0.011240 
#    y 0.000000 1.880200 0.000000 
#    z 0.011240 0.000000 1.798800 
# 
# From -- ./inp_files/109927.got.cif
#   From: 2010.05.17/outbox.cif.g08.bks.cpg/sg15_55_cif.got.tgz:109927.got - 2010.06.03 18:47:42.
