data_PCOD9291188
_publ_section_title
;
Structure prediction by ZEFSAII (Michael W. Deem and Ramdas Pophale) SiO2 
 PCOD9291188
Probable space group: C 2/C
;
_chemical_formula_sum "Si O2"
_cell_formula_units_Z 48
_cell_length_a 7.753620
_cell_length_b 12.457988
_cell_length_c 20.528898
_cell_angle_alpha 90.000000
_cell_angle_beta 71.786772
_cell_angle_gamma 90.000000
_cell_volume 1883.631339
_symmetry_space_group_name_H-M "C 2/C"
_symmetry_group_IT_number 15
_symmetry_cell_setting 'monoclinic'
loop_
_space_group_symop_operation_xyz
x,y,z
-x,y,1/2-z
-x,-y,-z
x,-y,1/2+z
1/2+x,1/2+y,z
1/2-x,1/2+y,1/2-z
1/2-x,1/2-y,-z
1/2+x,1/2-y,1/2+z
loop_
_atom_site_type_symbol
_atom_site_label
_atom_site_fract_x
_atom_site_fract_y
_atom_site_fract_z
Si Si1 0.112856 0.609222 0.171256
Si Si2 0.178859 0.293234 0.893526
Si Si3 0.687020 0.661453 0.685234
Si Si4 0.820606 0.557803 0.993621
Si Si5 0.134106 0.148602 0.539954
Si Si6 0.580271 0.122624 0.654538
O O1 0.969306 0.641634 0.131412
O O2 0.000000 0.606623 0.250000
O O3 0.237129 0.712992 0.166265
O O4 0.182876 0.488963 0.156008
O O5 0.256781 0.369618 0.939353
O O6 0.324235 0.230571 0.832361
O O7 0.066659 0.196024 0.940320
O O8 0.500000 0.652294 0.750000
O O9 0.658461 0.621763 0.614273
O O10 0.867152 0.610634 0.695444
O O11 0.689047 0.457496 0.994497
O O12 0.903945 0.627693 0.925638
O O13 0.000000 0.500000 0.000000
O O14 0.250000 0.250000 0.500000
#
# Coordination Sequence:
#
# PCOD9291188 Si02
#       6
#     8   8   8   8   8   8
#     4  10  23  43  63  88 129 174 219 273 329 390
#     4  11  24  40  65 102 131 174 225 276 340 406
#     4  10  22  42  65  93 132 177 219 275 343 400
#     4  12  20  39  69 101 137 170 217 281 340 402
#     4  11  20  38  67  94 134 177 219 276 341 396
#     4  12  24  42  70 100 133 174 227 276 335 411
#
# _framework density 25.482693999999999
#
# number of rings (size 3 to 8) (size 9 to 14) (size 15 to 20)
#    0.000    1.000    5.000    1.500    0.000    6.000 
#    0.000    5.000    0.000    1.000    0.000    0.000 
#    0.000    0.000    0.000    0.000    0.000    0.000 
#
# Total GULP energy -134099.346431 kJ/mol
# GULP energy per Si atom -5587.472768 kJ/mol
# Density = 2.542469 g / cm^3
# Si number density = 25.482694 Si / 1000 Ang^3
#
#
#
# Elastic Constant Matrix: (Units=GPa)
#
#
# Indices 1 2 3 4 5 6 
#
# 1 74.6420 15.5260 2.2770 0.0000 -28.5787 0.0000
# 2 15.5260 128.5791 16.9363 0.0000 -8.1566 0.0000
# 3 2.2770 16.9363 109.8994 0.0000 -12.9747 0.0000
# 4 0.0000 0.0000 0.0000 45.1747 0.0000 -9.2295
# 5 -28.5787 -8.1566 -12.9747 0.0000 28.4504 0.0000
# 6 0.0000 0.0000 0.0000 -9.2295 0.0000 33.9593
#
#
#
# Elastic Compliance Matrix: (Units=1/GPa)
#
#
# Indices 1 2 3 4 5 6 
#
# 1 0.022617 -0.001580 0.002540 0.000000 0.023425 0.000000
# 2 -0.001580 0.008139 -0.001198 0.000000 0.000200 0.000000
# 3 0.002540 -0.001198 0.010032 0.000000 0.006783 0.000000
# 4 0.000000 0.000000 0.000000 0.023438 0.000000 0.006370
# 5 0.023425 0.000200 0.006783 0.000000 0.061830 0.000000
# 6 0.000000 0.000000 0.000000 0.006370 0.000000 0.031178
#
#
# Mechanical properties :
#
#
# Convention : Reuss Voigt Hill
#
# Bulk Modulus (GPa) = 24.80561 42.51102 33.65831
# Shear Modulus (GPa) = 29.21479 40.07562 34.64520
#
# Velocity S-wave (km/s) = 3.38961 3.96998 3.69122
# Velocity P-wave (km/s) = 5.00746 6.14271 5.60391
#
# Compressibility (1/GPa) = 0.04031347
#
# Stress axis : x y z
#
# Youngs Moduli (GPa) = 44.21417 122.87212 99.68048
#
# Poissons Ratio (x) = 0.19410 -0.25322
# Poissons Ratio (y) = 0.06984 0.11940
# Poissons Ratio (z) = -0.11232 0.14718
#
# Static dielectric constant tensor:
#      x y z
#    x 2.104870 0.000000 -0.043590 
#    y 0.000000 2.083390 0.000000 
#    z -0.043590 0.000000 2.112700 
# 
# From -- ./inp_files/263496.got.cif
#   From: 2010.05.17/outbox.cif.g08.bks.cpg/sg15_132_cif.got.tgz:263496.got - 2010.06.03 18:47:42.
