data_PCOD9291049
_publ_section_title
;
Structure prediction by ZEFSAII (Michael W. Deem and Ramdas Pophale) SiO2 
 PCOD9291049
Probable space group: C 2/C
;
_chemical_formula_sum "Si O2"
_cell_formula_units_Z 44
_cell_length_a 15.221341
_cell_length_b 23.740691
_cell_length_c 5.499629
_cell_angle_alpha 90.000000
_cell_angle_beta 116.668129
_cell_angle_gamma 90.000000
_cell_volume 1775.959757
_symmetry_space_group_name_H-M "C 2/C"
_symmetry_group_IT_number 15
_symmetry_cell_setting 'monoclinic'
loop_
_space_group_symop_operation_xyz
x,y,z
-x,y,1/2-z
-x,-y,-z
x,-y,1/2+z
1/2+x,1/2+y,z
1/2-x,1/2+y,1/2-z
1/2-x,1/2-y,-z
1/2+x,1/2-y,1/2+z
loop_
_atom_site_type_symbol
_atom_site_label
_atom_site_fract_x
_atom_site_fract_y
_atom_site_fract_z
Si Si1 0.000000 0.936135 0.250000
Si Si2 0.839299 0.215405 0.862563
Si Si3 0.000000 0.864684 0.750000
Si Si4 0.779008 0.572597 0.485789
Si Si5 0.290113 0.451039 0.096749
Si Si6 0.135565 0.681283 0.767853
Si Si7 0.500000 0.758003 0.750000
O O1 0.006710 0.900091 0.507759
O O2 0.100423 0.970437 0.338797
O O3 0.729427 0.192568 0.706964
O O4 0.907577 0.220099 0.711413
O O5 0.905417 0.176443 0.120121
O O6 0.837682 0.277728 0.976154
O O7 0.783314 0.504448 0.472928
O O8 0.710584 0.577207 0.640791
O O9 0.864852 0.616080 0.655838
O O10 0.740814 0.587294 0.169143
O O11 0.038467 0.702856 0.515427
#
# Coordination Sequence:
#
# PCOD9291049 Si02
#       7
#     4   8   4   8   8   8   4
#     4  12  23  36  67  94 140 180 219 273 354 412
#     4  11  24  42  64  97 141 178 230 282 343 413
#     4  12  24  42  65 105 141 182 223 278 340 430
#     4  10  23  41  65  91 130 172 225 275 341 397
#     4  10  22  42  63  98 132 173 227 285 340 424
#     4  11  24  42  67  96 133 188 226 286 346 408
#     4  12  23  44  66  97 133 180 234 291 330 418
#
# _framework density 24.775334999999998
#
# number of rings (size 3 to 8) (size 9 to 14) (size 15 to 20)
#    0.000    1.091    1.818    4.364    2.545    2.909 
#    0.000    0.909    0.000    4.364    0.000    0.000 
#    0.000    0.000    0.000    0.000    0.000    0.000 
#
# Total GULP energy -122856.996082 kJ/mol
# GULP energy per Si atom -5584.408913 kJ/mol
# Density = 2.471894 g / cm^3
# Si number density = 24.775335 Si / 1000 Ang^3
#
#
#
# Elastic Constant Matrix: (Units=GPa)
#
#
# Indices 1 2 3 4 5 6 
#
# 1 71.1274 14.1638 14.4654 0.0000 -12.7509 0.0000
# 2 14.1638 112.3174 26.9259 0.0000 -0.9350 0.0000
# 3 14.4654 26.9259 111.4639 0.0000 -25.5821 0.0000
# 4 0.0000 0.0000 0.0000 31.4086 0.0000 -2.7590
# 5 -12.7509 -0.9350 -25.5821 0.0000 48.5901 0.0000
# 6 0.0000 0.0000 0.0000 -2.7590 0.0000 23.1015
#
#
#
# Elastic Compliance Matrix: (Units=1/GPa)
#
#
# Indices 1 2 3 4 5 6 
#
# 1 0.015189 -0.001708 -0.000741 0.000000 0.003563 0.000000
# 2 -0.001708 0.009701 -0.002482 0.000000 -0.001568 0.000000
# 3 -0.000741 -0.002482 0.010933 0.000000 0.005514 0.000000
# 4 0.000000 0.000000 0.000000 0.032176 0.000000 0.003843
# 5 0.003563 -0.001568 0.005514 0.000000 0.024388 0.000000
# 6 0.000000 0.000000 0.000000 0.003843 0.000000 0.043746
#
#
# Mechanical properties :
#
#
# Convention : Reuss Voigt Hill
#
# Bulk Modulus (GPa) = 38.51934 45.11321 41.81628
# Shear Modulus (GPa) = 32.33174 36.57694 34.45434
#
# Velocity S-wave (km/s) = 3.61639 3.84649 3.73322
# Velocity P-wave (km/s) = 5.74621 6.16245 5.95797
#
# Compressibility (1/GPa) = 0.02596099
#
# Stress axis : x y z
#
# Youngs Moduli (GPa) = 65.83799 103.08644 91.46988
#
# Poissons Ratio (x) = 0.17609 0.06776
# Poissons Ratio (y) = 0.11246 0.22699
# Poissons Ratio (z) = 0.04877 0.25581
#
# Static dielectric constant tensor:
#      x y z
#    x 1.983990 0.000000 -0.052110 
#    y 0.000000 2.009080 0.000000 
#    z -0.052110 0.000000 2.002790 
# 
# From -- ./inp_files/8340.got.cif
#   From: 2010.05.17/outbox.cif.g08.bks.cpg/sg15_5_cif.got.tgz:8340.got - 2010.06.03 18:47:42.
