data_PCOD9291465
_publ_section_title
;
Structure prediction by ZEFSAII (Michael W. Deem and Ramdas Pophale) SiO2 
 PCOD9291465
Probable space group: C 2/C
;
_chemical_formula_sum "Si O2"
_cell_formula_units_Z 40
_cell_length_a 18.592832
_cell_length_b 8.176938
_cell_length_c 22.030510
_cell_angle_alpha 90.000000
_cell_angle_beta 154.392631
_cell_angle_gamma 90.000000
_cell_volume 1447.595768
_symmetry_space_group_name_H-M "C 2/C"
_symmetry_group_IT_number 15
_symmetry_cell_setting 'monoclinic'
loop_
_space_group_symop_operation_xyz
x,y,z
-x,y,1/2-z
-x,-y,-z
x,-y,1/2+z
1/2+x,1/2+y,z
1/2-x,1/2+y,1/2-z
1/2-x,1/2-y,-z
1/2+x,1/2-y,1/2+z
loop_
_atom_site_type_symbol
_atom_site_label
_atom_site_fract_x
_atom_site_fract_y
_atom_site_fract_z
Si Si1 0.780995 0.354713 0.580776
Si Si2 0.355790 0.622563 0.966351
Si Si3 0.261748 0.122807 0.847797
Si Si4 0.525029 0.165291 0.831033
Si Si5 0.128918 0.312242 0.632784
O O1 0.750000 0.250000 0.500000
O O2 0.620750 0.443282 0.488694
O O3 0.837312 0.222814 0.675043
O O4 0.874559 0.509527 0.618831
O O5 0.435935 0.682836 0.966366
O O6 0.161971 0.611434 0.796240
O O7 0.389738 0.747391 0.047544
O O8 0.225315 0.231134 0.760806
O O9 0.249526 0.937570 0.811654
O O10 0.453600 0.107412 0.018744
O O11 0.500000 0.273586 0.750000
#
# Coordination Sequence:
#
# PCOD9291465 Si02
#       5
#     8   8   8   8   8
#     4  11  24  42  65  98 138 180 223 275 338 403
#     4  11  23  44  72 100 136 179 229 283 338 405
#     4  11  26  45  70 101 139 179 228 285 340 405
#     4  10  22  42  67  99 136 177 224 277 338 403
#     4  11  25  47  71 101 135 179 232 285 340 402
#
# _framework density 27.632023
#
# number of rings (size 3 to 8) (size 9 to 14) (size 15 to 20)
#    0.000    1.200    0.000    6.000    0.000   16.000 
#    0.000   11.000    0.000    0.000    0.000    0.000 
#    0.000    0.000    0.000    0.000    0.000    0.000 
#
# Total GULP energy -111594.821685 kJ/mol
# GULP energy per Si atom -5579.741084 kJ/mol
# Density = 2.756913 g / cm^3
# Si number density = 27.632023 Si / 1000 Ang^3
#
#
#
# Elastic Constant Matrix: (Units=GPa)
#
#
# Indices 1 2 3 4 5 6 
#
# 1 130.7373 61.2765 57.1989 0.0012 -47.8604 0.0002
# 2 61.2765 154.8411 47.4403 0.0052 -32.6753 0.0016
# 3 57.1989 47.4403 126.8207 0.0055 -20.8504 0.0019
# 4 0.0012 0.0052 0.0055 30.1736 0.0009 -15.1408
# 5 -47.8604 -32.6753 -20.8504 0.0009 68.3718 0.0001
# 6 0.0002 0.0016 0.0019 -15.1408 0.0001 54.5047
#
#
#
# Elastic Compliance Matrix: (Units=1/GPa)
#
#
# Indices 1 2 3 4 5 6 
#
# 1 0.012952 -0.002553 -0.003786 0.000001 0.006691 0.000000
# 2 -0.002553 0.008342 -0.001692 -0.000001 0.001683 -0.000001
# 3 -0.003786 -0.001692 0.010167 -0.000002 -0.000359 -0.000001
# 4 0.000001 -0.000001 -0.000002 0.038509 -0.000001 0.010697
# 5 0.006691 0.001683 -0.000359 -0.000001 0.020005 0.000000
# 6 0.000000 -0.000001 -0.000001 0.010697 0.000000 0.021319
#
#
# Mechanical properties :
#
#
# Convention : Reuss Voigt Hill
#
# Bulk Modulus (GPa) = 64.94675 82.69225 73.81950
# Shear Modulus (GPa) = 37.73851 47.04225 42.39038
#
# Velocity S-wave (km/s) = 3.69962 4.13056 3.92101
# Velocity P-wave (km/s) = 6.46566 7.26222 6.87549
#
# Compressibility (1/GPa) = 0.01539723
#
# Stress axis : x y z
#
# Youngs Moduli (GPa) = 77.20921 119.86889 98.35847
#
# Poissons Ratio (x) = 0.30608 0.37241
# Poissons Ratio (y) = 0.19715 0.16645
# Poissons Ratio (z) = 0.29233 0.20285
#
# Static dielectric constant tensor:
#      x y z
#    x 2.235660 0.000000 0.099260 
#    y 0.000000 2.378040 0.000000 
#    z 0.099260 0.000000 2.252790 
# 
# From -- ./inp_files/279634.got.cif
#   From: 2010.05.17/outbox.cif.g08.bks.cpg/sg15_140_cif.got.tgz:279634.got - 2010.06.03 18:47:42.
