data_PCOD9291331
_publ_section_title
;
Structure prediction by ZEFSAII (Michael W. Deem and Ramdas Pophale) SiO2 
 PCOD9291331
Probable space group: C 2/C
;
_chemical_formula_sum "Si O2"
_cell_formula_units_Z 48
_cell_length_a 25.606358
_cell_length_b 8.622226
_cell_length_c 9.235035
_cell_angle_alpha 90.000000
_cell_angle_beta 79.453260
_cell_angle_gamma 90.000000
_cell_volume 2004.500051
_symmetry_space_group_name_H-M "C 2/C"
_symmetry_group_IT_number 15
_symmetry_cell_setting 'monoclinic'
loop_
_space_group_symop_operation_xyz
x,y,z
-x,y,1/2-z
-x,-y,-z
x,-y,1/2+z
1/2+x,1/2+y,z
1/2-x,1/2+y,1/2-z
1/2-x,1/2-y,-z
1/2+x,1/2-y,1/2+z
loop_
_atom_site_type_symbol
_atom_site_label
_atom_site_fract_x
_atom_site_fract_y
_atom_site_fract_z
Si Si1 0.718740 0.098069 0.961384
Si Si2 0.556475 0.336518 0.776611
Si Si3 0.115136 0.041455 0.522647
Si Si4 0.961574 0.479702 0.656480
Si Si5 0.659604 0.050020 0.276828
Si Si6 0.682111 0.381927 0.249482
O O1 0.767908 0.029990 0.844883
O O2 0.672515 0.101552 0.865215
O O3 0.750000 0.250000 0.000000
O O4 0.687390 0.019327 0.108389
O O5 0.500000 0.399912 0.750000
O O6 0.595312 0.399678 0.632648
O O7 0.552546 0.151434 0.777851
O O8 0.571932 0.389572 0.931926
O O9 0.141240 0.146683 0.634945
O O10 0.159411 0.984496 0.388793
O O11 0.902828 0.411531 0.672020
O O12 0.000000 0.393496 0.750000
O O13 0.000000 0.500000 0.500000
O O14 0.689184 0.209368 0.309291
#
# Coordination Sequence:
#
# PCOD9291331 Si02
#       6
#     8   8   8   8   8   8
#     4  10  23  43  66 101 132 174 226 274 339 407
#     4  10  23  41  65  95 134 175 232 280 340 402
#     4  10  22  42  66  95 135 175 224 281 338 408
#     4  11  26  43  67 101 137 178 232 282 340 408
#     4  11  24  43  71  96 138 180 223 281 345 400
#     4  10  23  42  68  98 134 176 226 277 346 407
#
# _framework density 23.946121999999999
#
# number of rings (size 3 to 8) (size 9 to 14) (size 15 to 20)
#    0.000    1.667    0.000    2.500   14.000    0.000 
#    3.000    4.167    0.000    0.000    0.000    0.000 
#    0.000    0.000    0.000    0.000    0.000    0.000 
#
# Total GULP energy -133701.629526 kJ/mol
# GULP energy per Si atom -5570.901230 kJ/mol
# Density = 2.389162 g / cm^3
# Si number density = 23.946122 Si / 1000 Ang^3
#
#
#
# Elastic Constant Matrix: (Units=GPa)
#
#
# Indices 1 2 3 4 5 6 
#
# 1 121.5495 16.1686 45.4561 0.0000 -0.8556 0.0000
# 2 16.1686 54.9651 10.2622 0.0000 1.9281 0.0000
# 3 45.4561 10.2622 128.9849 0.0000 -12.0892 0.0000
# 4 0.0000 0.0000 0.0000 23.8433 0.0000 -4.4830
# 5 -0.8556 1.9281 -12.0892 0.0000 45.0707 0.0000
# 6 0.0000 0.0000 0.0000 -4.4830 0.0000 23.1980
#
#
#
# Elastic Compliance Matrix: (Units=1/GPa)
#
#
# Indices 1 2 3 4 5 6 
#
# 1 0.009761 -0.002230 -0.003320 0.000000 -0.000610 0.000000
# 2 -0.002230 0.019042 -0.000830 0.000000 -0.001080 0.000000
# 3 -0.003320 -0.000830 0.009218 0.000000 0.002445 0.000000
# 4 0.000000 0.000000 0.000000 0.043522 0.000000 0.008411
# 5 -0.000610 -0.001080 0.002445 0.000000 0.022878 0.000000
# 6 0.000000 0.000000 0.000000 0.008411 0.000000 0.044733
#
#
# Mechanical properties :
#
#
# Convention : Reuss Voigt Hill
#
# Bulk Modulus (GPa) = 39.58658 49.91928 44.75293
# Shear Modulus (GPa) = 29.35417 33.99659 31.67538
#
# Velocity S-wave (km/s) = 3.50500 3.77199 3.64095
# Velocity P-wave (km/s) = 5.73999 6.31366 6.03365
#
# Compressibility (1/GPa) = 0.02526108
#
# Stress axis : x y z
#
# Youngs Moduli (GPa) = 102.44968 52.51479 108.48421
#
# Poissons Ratio (x) = 0.11711 0.36012
# Poissons Ratio (y) = 0.22847 0.09007
# Poissons Ratio (z) = 0.34009 0.04360
#
# Static dielectric constant tensor:
#      x y z
#    x 2.092330 0.000000 0.037040 
#    y 0.000000 1.988070 0.000000 
#    z 0.037040 0.000000 1.944050 
# 
# From -- ./inp_files/60847.got.cif
#   From: 2010.05.17/outbox.cif.g08.bks.cpg/sg15_31_cif.got.tgz:60847.got - 2010.06.03 18:47:42.
