data_PCOD9291389
_publ_section_title
;
Structure prediction by ZEFSAII (Michael W. Deem and Ramdas Pophale) SiO2 
 PCOD9291389
Probable space group: C 2/C
;
_chemical_formula_sum "Si O2"
_cell_formula_units_Z 40
_cell_length_a 18.134928
_cell_length_b 20.239036
_cell_length_c 5.297604
_cell_angle_alpha 90.000000
_cell_angle_beta 114.653079
_cell_angle_gamma 90.000000
_cell_volume 1767.166204
_symmetry_space_group_name_H-M "C 2/C"
_symmetry_group_IT_number 15
_symmetry_cell_setting 'monoclinic'
loop_
_space_group_symop_operation_xyz
x,y,z
-x,y,1/2-z
-x,-y,-z
x,-y,1/2+z
1/2+x,1/2+y,z
1/2-x,1/2+y,1/2-z
1/2-x,1/2-y,-z
1/2+x,1/2-y,1/2+z
loop_
_atom_site_type_symbol
_atom_site_label
_atom_site_fract_x
_atom_site_fract_y
_atom_site_fract_z
Si Si1 0.000000 0.545238 0.250000
Si Si2 0.353013 0.850411 0.576078
Si Si3 0.000000 0.834326 0.750000
Si Si4 0.412408 0.792744 0.162131
Si Si5 0.441230 0.438616 0.349156
Si Si6 0.239566 0.962240 0.546581
O O1 0.922398 0.593067 0.164234
O O2 0.000000 0.500000 0.500000
O O3 0.355965 0.821061 0.299848
O O4 0.272713 0.889907 0.536352
O O5 0.373567 0.798589 0.828999
O O6 0.057044 0.779053 0.699578
O O7 0.932418 0.886855 0.559259
O O8 0.500000 0.829729 0.250000
O O9 0.500000 0.396980 0.250000
O O10 0.500000 0.500000 0.500000
O O11 0.358152 0.460622 0.108156
O O12 0.266228 0.989923 0.855108
#
# Coordination Sequence:
#
# PCOD9291389 Si02
#       6
#     4   8   4   8   8   8
#     4  12  20  31  54  85 118 164 216 262 310 384
#     4  12  22  42  61  93 133 180 219 271 326 385
#     4  10  24  41  72  99 124 180 226 274 326 412
#     4  10  22  42  67  89 130 181 224 262 317 391
#     4  12  23  44  73 100 132 168 223 279 349 405
#     4  12  25  43  67 102 138 175 218 284 340 395
#
# _framework density 22.635110000000001
#
# number of rings (size 3 to 8) (size 9 to 14) (size 15 to 20)
#    0.600    0.000    5.000    3.600    2.800    0.000 
#    0.000    2.000    0.000    0.000    0.000    0.000 
#    0.000    0.000    0.000    0.000    0.000    0.000 
#
# Total GULP energy -111421.572693 kJ/mol
# GULP energy per Si atom -5571.078635 kJ/mol
# Density = 2.258359 g / cm^3
# Si number density = 22.635110 Si / 1000 Ang^3
#
#
#
# Elastic Constant Matrix: (Units=GPa)
#
#
# Indices 1 2 3 4 5 6 
#
# 1 64.3931 10.1284 13.9510 0.0000 -5.2114 0.0000
# 2 10.1284 75.2630 6.8670 0.0000 -5.4832 0.0000
# 3 13.9510 6.8670 67.2807 0.0000 -29.3795 0.0000
# 4 0.0000 0.0000 0.0000 18.2860 0.0000 9.0479
# 5 -5.2114 -5.4832 -29.3795 0.0000 36.6377 0.0000
# 6 0.0000 0.0000 0.0000 9.0479 0.0000 11.2528
#
#
#
# Elastic Compliance Matrix: (Units=1/GPa)
#
#
# Indices 1 2 3 4 5 6 
#
# 1 0.016549 -0.001959 -0.003588 0.000000 -0.000817 0.000000
# 2 -0.001959 0.013690 -0.000336 0.000000 0.001501 0.000000
# 3 -0.003588 -0.000336 0.023693 0.000000 0.018439 0.000000
# 4 0.000000 0.000000 0.000000 0.090818 0.000000 -0.073023
# 5 -0.000817 0.001501 0.018439 0.000000 0.042189 0.000000
# 6 0.000000 0.000000 0.000000 -0.073023 0.000000 0.147581
#
#
# Mechanical properties :
#
#
# Convention : Reuss Voigt Hill
#
# Bulk Modulus (GPa) = 23.71541 29.86996 26.79269
# Shear Modulus (GPa) = 13.87573 24.96800 19.42186
#
# Velocity S-wave (km/s) = 2.47861 3.32485 2.93241
# Velocity P-wave (km/s) = 4.32335 5.28814 4.82989
#
# Compressibility (1/GPa) = 0.04216667
#
# Stress axis : x y z
#
# Youngs Moduli (GPa) = 60.42634 73.04406 42.20668
#
# Poissons Ratio (x) = 0.14311 0.15144
# Poissons Ratio (y) = 0.11839 0.01416
# Poissons Ratio (z) = 0.21682 0.02451
#
# Static dielectric constant tensor:
#      x y z
#    x 1.649380 0.000000 0.643670 
#    y 0.000000 1.815210 0.000000 
#    z 0.643670 0.000000 0.259730 
# 
# From -- ./inp_files/10237.got.cif
#   From: 2010.05.17/outbox.cif.g08.bks.cpg/sg15_6_cif.got.tgz:10237.got - 2010.06.03 18:47:42.
