data_PCOD9291390
_publ_section_title
;
Structure prediction by ZEFSAII (Michael W. Deem and Ramdas Pophale) SiO2 
 PCOD9291390
Probable space group: C 2/C
;
_chemical_formula_sum "Si O2"
_cell_formula_units_Z 48
_cell_length_a 12.623868
_cell_length_b 7.684594
_cell_length_c 23.713677
_cell_angle_alpha 90.000000
_cell_angle_beta 110.553505
_cell_angle_gamma 90.000000
_cell_volume 2154.011656
_symmetry_space_group_name_H-M "C 2/C"
_symmetry_group_IT_number 15
_symmetry_cell_setting 'monoclinic'
loop_
_space_group_symop_operation_xyz
x,y,z
-x,y,1/2-z
-x,-y,-z
x,-y,1/2+z
1/2+x,1/2+y,z
1/2-x,1/2+y,1/2-z
1/2-x,1/2-y,-z
1/2+x,1/2-y,1/2+z
loop_
_atom_site_type_symbol
_atom_site_label
_atom_site_fract_x
_atom_site_fract_y
_atom_site_fract_z
Si Si1 0.963573 0.257397 0.960489
Si Si2 0.369926 0.999967 0.737341
Si Si3 0.267516 0.165952 0.823398
Si Si4 0.397564 0.658933 0.186648
Si Si5 0.678947 0.076994 0.550804
Si Si6 0.575716 0.449215 0.931708
O O1 0.867721 0.397537 0.930756
O O2 0.984825 0.103817 0.920640
O O3 0.082737 0.358256 0.990528
O O4 0.935227 0.171078 0.015628
O O5 0.500000 0.950051 0.750000
O O6 0.289920 0.834983 0.714134
O O7 0.356243 0.083036 0.796692
O O8 0.338160 0.157428 0.688940
O O9 0.175882 0.012893 0.816088
O O10 0.311168 0.206685 0.894428
O O11 0.500000 0.653765 0.250000
O O12 0.436372 0.649899 0.129267
O O13 0.799208 0.036284 0.545754
#
# Coordination Sequence:
#
# PCOD9291390 Si02
#       6
#     8   8   8   8   8   8
#     4  10  22  42  67  89 131 170 211 267 320 380
#     4  11  24  42  65  95 129 171 213 263 326 388
#     4  11  23  43  65  96 130 170 214 267 324 382
#     4  10  23  43  67  97 132 167 215 267 320 395
#     4  10  23  41  63  96 125 165 218 264 316 385
#     4  10  22  43  63  97 125 170 213 263 323 378
#
# _framework density 22.283999999999999
#
# number of rings (size 3 to 8) (size 9 to 14) (size 15 to 20)
#    0.000    1.667    1.667    1.500    4.667    4.000 
#   21.000    0.000    0.000    0.000    0.000    0.000 
#    0.000    0.000    0.000    0.000    0.000    0.000 
#
# Total GULP energy -134215.635791 kJ/mol
# GULP energy per Si atom -5592.318158 kJ/mol
# Density = 2.223328 g / cm^3
# Si number density = 22.284000 Si / 1000 Ang^3
#
#
#
# Elastic Constant Matrix: (Units=GPa)
#
#
# Indices 1 2 3 4 5 6 
#
# 1 86.4412 20.3621 16.2465 0.0000 -10.5744 0.0000
# 2 20.3621 79.9620 7.0733 0.0000 -2.5895 0.0000
# 3 16.2465 7.0733 30.8107 0.0000 -6.3121 0.0000
# 4 0.0000 0.0000 0.0000 22.2728 0.0000 -0.0569
# 5 -10.5744 -2.5895 -6.3121 0.0000 17.9066 0.0000
# 6 0.0000 0.0000 0.0000 -0.0569 0.0000 32.5224
#
#
#
# Elastic Compliance Matrix: (Units=1/GPa)
#
#
# Indices 1 2 3 4 5 6 
#
# 1 0.014008 -0.002888 -0.005512 0.000000 0.005911 0.000000
# 2 -0.002888 0.013373 -0.001617 0.000000 -0.000342 0.000000
# 3 -0.005512 -0.001617 0.037745 0.000000 0.009816 0.000000
# 4 0.000000 0.000000 0.000000 0.044898 0.000000 0.000079
# 5 0.005911 -0.000342 0.009816 0.000000 0.062747 0.000000
# 6 0.000000 0.000000 0.000000 0.000079 0.000000 0.030748
#
#
# Mechanical properties :
#
#
# Convention : Reuss Voigt Hill
#
# Bulk Modulus (GPa) = 22.17722 31.61975 26.89849
# Shear Modulus (GPa) = 20.95681 24.77582 22.86632
#
# Velocity S-wave (km/s) = 3.06999 3.33802 3.20680
# Velocity P-wave (km/s) = 4.74765 5.39228 5.08020
#
# Compressibility (1/GPa) = 0.04509132
#
# Stress axis : x y z
#
# Youngs Moduli (GPa) = 71.38744 74.77547 26.49335
#
# Poissons Ratio (x) = 0.21596 0.14604
# Poissons Ratio (y) = 0.20617 0.04285
# Poissons Ratio (z) = 0.39352 0.12093
#
# Static dielectric constant tensor:
#      x y z
#    x 1.825620 0.000000 0.006470 
#    y 0.000000 1.831330 0.000000 
#    z 0.006470 0.000000 1.826300 
# 
# From -- ./inp_files/268083.got.cif
#   From: 2010.05.17/outbox.cif.g08.bks.cpg/sg15_135_cif.got.tgz:268083.got - 2010.06.03 18:47:42.
