data_PCOD9291711
_publ_section_title
;
Structure prediction by ZEFSAII (Michael W. Deem and Ramdas Pophale) SiO2 
 PCOD9291711
Probable space group: C 2/C
;
_chemical_formula_sum "Si O2"
_cell_formula_units_Z 60
_cell_length_a 11.085308
_cell_length_b 8.726838
_cell_length_c 29.405305
_cell_angle_alpha 90.000000
_cell_angle_beta 73.187169
_cell_angle_gamma 90.000000
_cell_volume 2723.064293
_symmetry_space_group_name_H-M "C 2/C"
_symmetry_group_IT_number 15
_symmetry_cell_setting 'monoclinic'
loop_
_space_group_symop_operation_xyz
x,y,z
-x,y,1/2-z
-x,-y,-z
x,-y,1/2+z
1/2+x,1/2+y,z
1/2-x,1/2+y,1/2-z
1/2-x,1/2-y,-z
1/2+x,1/2-y,1/2+z
loop_
_atom_site_type_symbol
_atom_site_label
_atom_site_fract_x
_atom_site_fract_y
_atom_site_fract_z
Si Si1 0.378500 0.692508 0.508368
Si Si2 0.000000 0.652219 0.750000
Si Si3 0.246806 0.380757 0.538536
Si Si4 0.823660 0.627623 0.267055
Si Si5 0.037986 0.611302 0.414862
Si Si6 0.407675 0.229485 0.588309
Si Si7 0.499789 0.271727 0.322500
Si Si8 0.967730 0.124188 0.177522
O O1 0.250000 0.750000 0.500000
O O2 0.348107 0.513117 0.517936
O O3 0.405235 0.776928 0.553162
O O4 0.491817 0.735625 0.462495
O O5 0.113864 0.537619 0.749711
O O6 0.963135 0.759473 0.796147
O O7 0.250000 0.250000 0.500000
O O8 0.281381 0.306729 0.583117
O O9 0.103687 0.437708 0.555195
O O10 0.877303 0.738240 0.222088
O O11 0.675363 0.618782 0.288024
O O12 0.887871 0.689647 0.306602
O O13 0.111471 0.451538 0.403357
O O14 0.025471 0.698020 0.368565
O O15 0.458703 0.305656 0.628414
O O16 0.478471 0.453195 0.328292
#
# Coordination Sequence:
#
# PCOD9291711 Si02
#       8
#     8   4   8   8   8   8   8   8
#     4  12  25  47  67  96 136 177 220 277 330 387
#     4  10  22  42  70  94 130 172 212 268 322 390
#     4  12  25  43  72  92 132 176 217 274 329 384
#     4  10  22  46  66  93 136 167 212 270 332 381
#     4  12  25  47  66  98 136 173 224 272 328 394
#     4  12  25  44  68 100 132 175 225 272 330 393
#     4  10  23  42  69  97 131 172 215 270 325 395
#     4  12  24  42  67  99 130 168 221 265 327 393
#
# _framework density 22.034001
#
# number of rings (size 3 to 8) (size 9 to 14) (size 15 to 20)
#    0.000    0.800    2.667    6.400    1.867    0.000 
#    7.200    0.000    0.000    0.000    0.000    0.000 
#    0.000    0.000    0.000    0.000    0.000    0.000 
#
# Total GULP energy -167929.606543 kJ/mol
# GULP energy per Si atom -5597.653551 kJ/mol
# Density = 2.198385 g / cm^3
# Si number density = 22.034001 Si / 1000 Ang^3
#
#
#
# Elastic Constant Matrix: (Units=GPa)
#
#
# Indices 1 2 3 4 5 6 
#
# 1 57.7270 4.9788 1.7573 0.0000 9.9446 0.0000
# 2 4.9788 171.1465 40.8450 0.0000 28.2318 0.0000
# 3 1.7573 40.8450 110.7690 0.0000 34.0533 0.0000
# 4 0.0000 0.0000 0.0000 36.2854 0.0000 10.2521
# 5 9.9446 28.2318 34.0533 0.0000 38.0513 0.0000
# 6 0.0000 0.0000 0.0000 10.2521 0.0000 34.3641
#
#
#
# Elastic Compliance Matrix: (Units=1/GPa)
#
#
# Indices 1 2 3 4 5 6 
#
# 1 0.018353 0.000126 0.001608 0.000000 -0.006329 0.000000
# 2 0.000126 0.006795 -0.001307 0.000000 -0.003905 0.000000
# 3 0.001608 -0.001307 0.012851 0.000000 -0.010951 0.000000
# 4 0.000000 0.000000 0.000000 0.030096 0.000000 -0.008979
# 5 -0.006329 -0.003905 -0.010951 0.000000 0.040632 0.000000
# 6 0.000000 0.000000 0.000000 -0.008979 0.000000 0.031779
#
#
# Mechanical properties :
#
#
# Convention : Reuss Voigt Hill
#
# Bulk Modulus (GPa) = 25.73725 48.31164 37.02444
# Shear Modulus (GPa) = 32.76454 41.21092 36.98773
#
# Velocity S-wave (km/s) = 3.86035 4.32943 4.10160
# Velocity P-wave (km/s) = 5.61923 6.85314 6.26663
#
# Compressibility (1/GPa) = 0.03885420
#
# Stress axis : x y z
#
# Youngs Moduli (GPa) = 54.48573 147.15842 77.81511
#
# Poissons Ratio (x) = -0.01860 -0.12513
# Poissons Ratio (y) = -0.00689 0.10173
# Poissons Ratio (z) = -0.08762 0.19238
#
# Static dielectric constant tensor:
#      x y z
#    x 1.826000 0.000000 -0.020740 
#    y 0.000000 1.827310 0.000000 
#    z -0.020740 0.000000 1.782510 
# 
# From -- ./inp_files/310290.got.cif
#   From: 2010.05.17/outbox.cif.g08.bks.cpg/sg15_156_cif.got.tgz:310290.got - 2010.06.03 18:47:42.
