data_PCOD9291422
_publ_section_title
;
Structure prediction by ZEFSAII (Michael W. Deem and Ramdas Pophale) SiO2 
 PCOD9291422
Probable space group: C 2/C
;
_chemical_formula_sum "Si O2"
_cell_formula_units_Z 48
_cell_length_a 31.609338
_cell_length_b 14.621771
_cell_length_c 15.851107
_cell_angle_alpha 90.000000
_cell_angle_beta 159.709978
_cell_angle_gamma 90.000000
_cell_volume 2540.501130
_symmetry_space_group_name_H-M "C 2/C"
_symmetry_group_IT_number 15
_symmetry_cell_setting 'monoclinic'
loop_
_space_group_symop_operation_xyz
x,y,z
-x,y,1/2-z
-x,-y,-z
x,-y,1/2+z
1/2+x,1/2+y,z
1/2-x,1/2+y,1/2-z
1/2-x,1/2-y,-z
1/2+x,1/2-y,1/2+z
loop_
_atom_site_type_symbol
_atom_site_label
_atom_site_fract_x
_atom_site_fract_y
_atom_site_fract_z
Si Si1 0.173149 0.364836 0.006413
Si Si2 0.232816 0.188538 0.051038
Si Si3 0.302929 0.147568 0.596298
Si Si4 0.412382 0.927434 0.474045
Si Si5 0.535445 0.138297 0.912041
Si Si6 0.142906 0.028786 0.767715
O O1 0.153261 0.255998 0.959084
O O2 0.153869 0.387735 0.067728
O O3 0.294731 0.411554 0.192663
O O4 0.056765 0.406505 0.740450
O O5 0.358570 0.188430 0.338170
O O6 0.250000 0.250000 0.000000
O O7 0.179162 0.092448 0.917197
O O8 0.250000 0.250000 0.500000
O O9 0.351888 0.113449 0.778186
O O10 0.413965 0.145711 0.739037
O O11 0.209640 0.068762 0.394274
O O12 0.412197 0.035617 0.487600
O O13 0.500000 0.164477 0.750000
O O14 0.000000 0.000000 0.500000
#
# Coordination Sequence:
#
# PCOD9291422 Si02
#       6
#     8   8   8   8   8   8
#     4  10  22  42  67  95 129 167 227 267 334 398
#     4  10  23  41  67  93 132 178 218 267 338 402
#     4  12  26  39  64  99 134 173 227 273 332 392
#     4  11  21  44  69  93 127 176 226 285 317 401
#     4  12  23  44  72  95 130 179 232 287 331 394
#     4  11  23  42  63  95 137 173 212 272 339 401
#
# _framework density 18.893910999999999
#
# number of rings (size 3 to 8) (size 9 to 14) (size 15 to 20)
#    0.000    1.000    5.000    2.500    9.333    0.000 
#    0.000    0.833    0.000    0.000    0.000    0.000 
#    0.000    0.000    0.000    0.000    0.000    0.000 
#
# Total GULP energy -133673.961829 kJ/mol
# GULP energy per Si atom -5569.748410 kJ/mol
# Density = 1.885091 g / cm^3
# Si number density = 18.893911 Si / 1000 Ang^3
#
#
#
# Elastic Constant Matrix: (Units=GPa)
#
#
# Indices 1 2 3 4 5 6 
#
# 1 81.5901 28.4295 34.8791 0.0000 -7.2649 0.0000
# 2 28.4295 88.4070 8.8322 0.0000 -7.5630 0.0000
# 3 34.8791 8.8322 94.9552 0.0000 -21.7149 0.0000
# 4 0.0000 0.0000 0.0000 32.4018 0.0000 -2.0352
# 5 -7.2649 -7.5630 -21.7149 0.0000 25.6327 0.0000
# 6 0.0000 0.0000 0.0000 -2.0352 0.0000 29.9443
#
#
#
# Elastic Compliance Matrix: (Units=1/GPa)
#
#
# Indices 1 2 3 4 5 6 
#
# 1 0.016320 -0.004810 -0.005971 0.000000 -0.001852 0.000000
# 2 -0.004810 0.013032 0.001392 0.000000 0.003661 0.000000
# 3 -0.005971 0.001392 0.015258 0.000000 0.011644 0.000000
# 4 0.000000 0.000000 0.000000 0.030995 0.000000 0.002107
# 5 -0.001852 0.003661 0.011644 0.000000 0.049433 0.000000
# 6 0.000000 0.000000 0.000000 0.002107 0.000000 0.033539
#
#
# Mechanical properties :
#
#
# Convention : Reuss Voigt Hill
#
# Bulk Modulus (GPa) = 38.71134 45.47042 42.09088
# Shear Modulus (GPa) = 26.88683 30.44985 28.66834
#
# Velocity S-wave (km/s) = 3.77642 4.01886 3.89952
# Velocity P-wave (km/s) = 6.28875 6.75673 6.52693
#
# Compressibility (1/GPa) = 0.02583222
#
# Stress axis : x y z
#
# Youngs Moduli (GPa) = 61.27465 76.73278 65.53988
#
# Poissons Ratio (x) = 0.36909 0.39132
# Poissons Ratio (y) = 0.29473 -0.09122
# Poissons Ratio (z) = 0.36586 -0.10680
#
# Static dielectric constant tensor:
#      x y z
#    x 1.682090 0.000000 -0.029660 
#    y 0.000000 1.325460 0.000000 
#    z -0.029660 0.000000 1.602760 
# 
# From -- ./inp_files/182458.got.cif
#   From: 2010.05.17/outbox.cif.g08.bks.cpg/sg15_92_cif.got.tgz:182458.got - 2010.06.03 18:47:42.
