data_PCOD9291924
_publ_section_title
;
Structure prediction by ZEFSAII (Michael W. Deem and Ramdas Pophale) SiO2 
 PCOD9291924
Probable space group: C 2/C
;
_chemical_formula_sum "Si O2"
_cell_formula_units_Z 28
_cell_length_a 5.004574
_cell_length_b 18.585406
_cell_length_c 14.188503
_cell_angle_alpha 90.000000
_cell_angle_beta 70.036117
_cell_angle_gamma 90.000000
_cell_volume 1240.398135
_symmetry_space_group_name_H-M "C 2/C"
_symmetry_group_IT_number 15
_symmetry_cell_setting 'monoclinic'
loop_
_space_group_symop_operation_xyz
x,y,z
-x,y,1/2-z
-x,-y,-z
x,-y,1/2+z
1/2+x,1/2+y,z
1/2-x,1/2+y,1/2-z
1/2-x,1/2-y,-z
1/2+x,1/2-y,1/2+z
loop_
_atom_site_type_symbol
_atom_site_label
_atom_site_fract_x
_atom_site_fract_y
_atom_site_fract_z
Si Si1 0.963288 0.341363 0.470783
Si Si2 0.837538 0.808019 0.598797
Si Si3 0.500000 0.400622 0.750000
Si Si4 0.700199 0.039169 0.817105
O O1 0.112166 0.276966 0.393372
O O2 0.074915 0.324886 0.562669
O O3 0.061400 0.416889 0.417618
O O4 0.624846 0.332676 0.509225
O O5 0.839317 0.851925 0.694526
O O6 0.290795 0.457033 0.828051
O O7 0.500000 0.038295 0.750000
O O8 0.000000 0.074117 0.750000
#
# Coordination Sequence:
#
# PCOD9291924 Si02
#       4
#     8   8   4   8
#     4  10  22  43  62  91 122 168 204 252 308 369
#     4  10  23  40  65  90 124 160 212 252 305 363
#     4  10  26  40  62  98 124 162 206 262 304 368
#     4  10  23  40  60  94 125 163 207 246 316 366
#
# _framework density 22.573398000000001
#
# number of rings (size 3 to 8) (size 9 to 14) (size 15 to 20)
#    0.857    1.143    0.000    1.714    6.000    2.286 
#    0.000    0.000    0.000    0.000    0.000    0.000 
#    0.000    0.000    0.000    0.000    0.000    0.000 
#
# Total GULP energy -78249.320039 kJ/mol
# GULP energy per Si atom -5589.237146 kJ/mol
# Density = 2.252202 g / cm^3
# Si number density = 22.573398 Si / 1000 Ang^3
#
#
#
# Elastic Constant Matrix: (Units=GPa)
#
#
# Indices 1 2 3 4 5 6 
#
# 1 87.2367 -1.3374 -5.3965 0.0000 4.1677 0.0000
# 2 -1.3374 123.9170 42.7261 0.0000 5.4342 0.0000
# 3 -5.3965 42.7261 43.9756 0.0000 6.3551 0.0000
# 4 0.0000 0.0000 0.0000 195.4820 0.0000 -14.8009
# 5 4.1677 5.4342 6.3551 0.0000 30.4708 0.0000
# 6 0.0000 0.0000 0.0000 -14.8009 0.0000 -12.5715
#
#
#
# Elastic Compliance Matrix: (Units=1/GPa)
#
#
# Indices 1 2 3 4 5 6 
#
# 1 0.011689 -0.000572 0.002275 0.000000 -0.001971 0.000000
# 2 -0.000572 0.012166 -0.011948 0.000000 0.000400 0.000000
# 3 0.002275 -0.011948 0.035433 0.000000 -0.005570 0.000000
# 4 0.000000 0.000000 0.000000 0.004697 0.000000 -0.005530
# 5 -0.001971 0.000400 -0.005570 0.000000 0.034178 0.000000
# 6 0.000000 0.000000 0.000000 -0.005530 0.000000 -0.073034
#
#
# Mechanical properties :
#
#
# Convention : Reuss Voigt Hill
#
# Bulk Modulus (GPa) = 25.77485 36.34596 31.06041
# Shear Modulus (GPa) = 85.39504 57.28540 71.34022
#
# Velocity S-wave (km/s) = 6.15728 5.04306 5.62781
# Velocity P-wave (km/s) = 7.87353 7.07433 7.48461
#
# Compressibility (1/GPa) = 0.03879751
#
# Stress axis : x y z
#
# Youngs Moduli (GPa) = 85.54902 82.19705 28.22250
#
# Poissons Ratio (x) = 0.04700 -0.06420
# Poissons Ratio (y) = 0.04891 0.33721
# Poissons Ratio (z) = -0.19461 0.98211
#
# Static dielectric constant tensor:
#      x y z
#    x 1.457110 0.000000 -0.642710 
#    y 0.000000 1.831810 0.000000 
#    z -0.642710 0.000000 0.847960 
# 
# From -- ./inp_files/71831.got.cif
#   From: 2010.05.17/outbox.cif.g08.bks.cpg/sg15_36_cif.got.tgz:71831.got - 2010.06.03 18:47:42.
