data_PCOD9291482
_publ_section_title
;
Structure prediction by ZEFSAII (Michael W. Deem and Ramdas Pophale) SiO2 
 PCOD9291482
Probable space group: C 2/C
;
_chemical_formula_sum "Si O2"
_cell_formula_units_Z 48
_cell_length_a 5.618072
_cell_length_b 22.725311
_cell_length_c 18.353863
_cell_angle_alpha 90.000000
_cell_angle_beta 71.508020
_cell_angle_gamma 90.000000
_cell_volume 2222.294140
_symmetry_space_group_name_H-M "C 2/C"
_symmetry_group_IT_number 15
_symmetry_cell_setting 'monoclinic'
loop_
_space_group_symop_operation_xyz
x,y,z
-x,y,1/2-z
-x,-y,-z
x,-y,1/2+z
1/2+x,1/2+y,z
1/2-x,1/2+y,1/2-z
1/2-x,1/2-y,-z
1/2+x,1/2-y,1/2+z
loop_
_atom_site_type_symbol
_atom_site_label
_atom_site_fract_x
_atom_site_fract_y
_atom_site_fract_z
Si Si1 0.112969 0.978190 0.065130
Si Si2 0.605659 0.168231 0.160698
Si Si3 0.582415 0.310079 0.549878
Si Si4 0.563325 0.090871 0.455313
Si Si5 0.409870 0.282801 0.100142
Si Si6 0.798504 0.100128 0.702041
O O1 0.904170 0.950767 0.138054
O O2 0.264506 0.034666 0.078716
O O3 0.323540 0.930152 0.024184
O O4 0.000000 0.000000 0.000000
O O5 0.500000 0.160149 0.250000
O O6 0.504387 0.121576 0.113410
O O7 0.538550 0.233626 0.137492
O O8 0.903070 0.162646 0.127875
O O9 0.792008 0.358767 0.514117
O O10 0.437698 0.302055 0.487261
O O11 0.687438 0.251495 0.578200
O O12 0.327352 0.337915 0.155989
O O13 0.500000 0.092462 0.750000
O O14 0.000000 0.101346 0.750000
#
# Coordination Sequence:
#
# PCOD9291482 Si02
#       6
#     8   8   8   8   8   8
#     4  11  25  49  74  96 138 191 251 300 367 431
#     4  11  23  40  63 103 142 181 230 296 367 427
#     4  10  22  42  68 103 132 188 246 290 356 439
#     4  10  23  43  73  98 130 188 243 305 349 436
#     4  10  23  40  71  96 143 187 236 288 364 443
#     4  12  30  48  73 113 153 191 241 308 381 443
#
# _framework density 21.599299999999999
#
# number of rings (size 3 to 8) (size 9 to 14) (size 15 to 20)
#    0.000    1.333    0.000    4.000   11.667    3.333 
#    6.000    0.000    0.000    0.000    0.000    0.000 
#    0.000    0.000    0.000    0.000    0.000    0.000 
#
# Total GULP energy -134053.089246 kJ/mol
# GULP energy per Si atom -5585.545385 kJ/mol
# Density = 2.155014 g / cm^3
# Si number density = 21.599300 Si / 1000 Ang^3
#
#
#
# Elastic Constant Matrix: (Units=GPa)
#
#
# Indices 1 2 3 4 5 6 
#
# 1 90.6963 47.9270 49.4644 0.0000 -16.6694 0.0000
# 2 47.9270 123.6070 51.8115 0.0000 -13.4819 0.0000
# 3 49.4644 51.8115 124.3840 0.0000 -14.6968 0.0000
# 4 0.0000 0.0000 0.0000 38.8041 0.0000 -0.0326
# 5 -16.6694 -13.4819 -14.6968 0.0000 36.6995 0.0000
# 6 0.0000 0.0000 0.0000 -0.0326 0.0000 20.2909
#
#
#
# Elastic Compliance Matrix: (Units=1/GPa)
#
#
# Indices 1 2 3 4 5 6 
#
# 1 0.016278 -0.004057 -0.004289 0.000000 0.004186 0.000000
# 2 -0.004057 0.010964 -0.002829 0.000000 0.001052 0.000000
# 3 -0.004289 -0.002829 0.011096 0.000000 0.001456 0.000000
# 4 0.000000 0.000000 0.000000 0.025771 0.000000 0.000041
# 5 0.004186 0.001052 0.001456 0.000000 0.030119 0.000000
# 6 0.000000 0.000000 0.000000 0.000041 0.000000 0.049283
#
#
# Mechanical properties :
#
#
# Convention : Reuss Voigt Hill
#
# Bulk Modulus (GPa) = 62.55026 70.78813 66.66920
# Shear Modulus (GPa) = 29.20721 31.79118 30.49920
#
# Velocity S-wave (km/s) = 3.68126 3.84065 3.76180
# Velocity P-wave (km/s) = 6.86230 7.24651 7.05702
#
# Compressibility (1/GPa) = 0.01598714
#
# Stress axis : x y z
#
# Youngs Moduli (GPa) = 61.43166 91.20778 90.12520
#
# Poissons Ratio (x) = 0.37007 0.38653
# Poissons Ratio (y) = 0.24926 0.25498
# Poissons Ratio (z) = 0.26347 0.25804
#
# Static dielectric constant tensor:
#      x y z
#    x 1.876180 0.000000 -0.029580 
#    y 0.000000 1.953720 0.000000 
#    z -0.029580 0.000000 1.792340 
# 
# From -- ./inp_files/185478.got.cif
#   From: 2010.05.17/outbox.cif.g08.bks.cpg/sg15_93_cif.got.tgz:185478.got - 2010.06.03 18:47:42.
