data_PCOD9291317
_publ_section_title
;
Structure prediction by ZEFSAII (Michael W. Deem and Ramdas Pophale) SiO2 
 PCOD9291317
Probable space group: C 2/C
;
_chemical_formula_sum "Si O2"
_cell_formula_units_Z 40
_cell_length_a 8.042631
_cell_length_b 28.257411
_cell_length_c 7.209319
_cell_angle_alpha 90.000000
_cell_angle_beta 79.230456
_cell_angle_gamma 90.000000
_cell_volume 1609.560242
_symmetry_space_group_name_H-M "C 2/C"
_symmetry_group_IT_number 15
_symmetry_cell_setting 'monoclinic'
loop_
_space_group_symop_operation_xyz
x,y,z
-x,y,1/2-z
-x,-y,-z
x,-y,1/2+z
1/2+x,1/2+y,z
1/2-x,1/2+y,1/2-z
1/2-x,1/2-y,-z
1/2+x,1/2-y,1/2+z
loop_
_atom_site_type_symbol
_atom_site_label
_atom_site_fract_x
_atom_site_fract_y
_atom_site_fract_z
Si Si1 0.275001 0.457779 0.153235
Si Si2 0.355285 0.441247 0.561273
Si Si3 0.474123 0.711530 0.971879
Si Si4 0.500000 0.360647 0.750000
Si Si5 0.412989 0.815546 0.956555
Si Si6 0.500000 0.111693 0.750000
O O1 0.306344 0.439319 0.355793
O O2 0.252975 0.514412 0.165427
O O3 0.125563 0.424430 0.118096
O O4 0.360885 0.393588 0.677786
O O5 0.557392 0.452201 0.505630
O O6 0.500000 0.702472 0.750000
O O7 0.506622 0.766788 0.000796
O O8 0.573671 0.674322 0.077594
O O9 0.277068 0.700893 0.050530
O O10 0.500000 0.832348 0.750000
O O11 0.416353 0.853907 0.116874
#
# Coordination Sequence:
#
# PCOD9291317 Si02
#       6
#     8   8   8   4   8   4
#     4  10  23  44  64  97 134 180 233 292 350 410
#     4  10  22  42  66  94 135 179 234 290 344 419
#     4  10  24  44  70 106 143 186 237 290 341 428
#     4  12  23  36  74 100 130 184 239 276 346 406
#     4  10  24  46  68 104 151 181 229 293 359 417
#     4  12  25  42  74 102 140 186 237 292 356 424
#
# _framework density 24.851507000000002
#
# number of rings (size 3 to 8) (size 9 to 14) (size 15 to 20)
#    0.000    1.600    0.000    4.200    8.400    0.800 
#    3.600    6.000    0.000    0.000    0.000    0.000 
#    0.000    0.000    0.000    0.000    0.000    0.000 
#
# Total GULP energy -111896.571764 kJ/mol
# GULP energy per Si atom -5594.828588 kJ/mol
# Density = 2.479494 g / cm^3
# Si number density = 24.851507 Si / 1000 Ang^3
#
#
#
# Elastic Constant Matrix: (Units=GPa)
#
#
# Indices 1 2 3 4 5 6 
#
# 1 34.2280 21.0660 2.2178 0.0000 -12.3972 0.0000
# 2 21.0660 197.4272 62.8398 0.0000 11.6981 0.0000
# 3 2.2178 62.8398 98.5330 0.0000 -5.4855 0.0000
# 4 0.0000 0.0000 0.0000 -71.4706 0.0000 87.4049
# 5 -12.3972 11.6981 -5.4855 0.0000 26.6718 0.0000
# 6 0.0000 0.0000 0.0000 87.4049 0.0000 -67.0352
#
#
#
# Elastic Compliance Matrix: (Units=1/GPa)
#
#
# Indices 1 2 3 4 5 6 
#
# 1 0.042270 -0.007603 0.005237 0.000000 0.024059 0.000000
# 2 -0.007603 0.008097 -0.005450 0.000000 -0.008206 0.000000
# 3 0.005237 -0.005450 0.013935 0.000000 0.007690 0.000000
# 4 0.000000 0.000000 0.000000 0.023533 0.000000 0.030684
# 5 0.024059 -0.008206 0.007690 0.000000 0.053856 0.000000
# 6 0.000000 0.000000 0.000000 0.030684 0.000000 0.025090
#
#
# Mechanical properties :
#
#
# Convention : Reuss Voigt Hill
#
# Bulk Modulus (GPa) = 20.54654 55.82615 38.18635
# Shear Modulus (GPa) = 25.17173 -6.09584 9.53795
#
# Velocity S-wave (km/s) = 3.18604 -1.56787 1.96120
# Velocity P-wave (km/s) = 4.67120 4.38577 4.53074
#
# Compressibility (1/GPa) = 0.04866999
#
# Stress axis : x y z
#
# Youngs Moduli (GPa) = 23.65766 123.49922 71.76309
#
# Poissons Ratio (x) = 0.93891 -0.37579
# Poissons Ratio (y) = 0.17986 0.39109
# Poissons Ratio (z) = -0.12388 0.67304
#
# Static dielectric constant tensor:
#      x y z
#    x 2.047240 0.000000 0.031910 
#    y 0.000000 2.033030 0.000000 
#    z 0.031910 0.000000 1.958570 
# 
# From -- ./inp_files/4926.got.cif
#   From: 2010.05.17/outbox.cif.g08.bks.cpg/sg15_3_cif.got.tgz:4926.got - 2010.06.03 18:47:42.
