data_PCOD9291111
_publ_section_title
;
Structure prediction by ZEFSAII (Michael W. Deem and Ramdas Pophale) SiO2 
 PCOD9291111
Probable space group: C 2/C
;
_chemical_formula_sum "Si O2"
_cell_formula_units_Z 44
_cell_length_a 24.858942
_cell_length_b 9.616223
_cell_length_c 8.702821
_cell_angle_alpha 90.000000
_cell_angle_beta 113.728800
_cell_angle_gamma 90.000000
_cell_volume 1904.525528
_symmetry_space_group_name_H-M "C 2/C"
_symmetry_group_IT_number 15
_symmetry_cell_setting 'monoclinic'
loop_
_space_group_symop_operation_xyz
x,y,z
-x,y,1/2-z
-x,-y,-z
x,-y,1/2+z
1/2+x,1/2+y,z
1/2-x,1/2+y,1/2-z
1/2-x,1/2-y,-z
1/2+x,1/2-y,1/2+z
loop_
_atom_site_type_symbol
_atom_site_label
_atom_site_fract_x
_atom_site_fract_y
_atom_site_fract_z
Si Si1 0.184506 0.888861 0.546374
Si Si2 0.749798 0.100327 0.076086
Si Si3 0.143341 0.600047 0.369715
Si Si4 0.433193 0.046743 0.936308
Si Si5 0.929671 0.146773 0.385726
Si Si6 0.000000 0.954000 0.250000
O O1 0.238293 0.882555 0.729272
O O2 0.172833 0.748218 0.437804
O O3 0.128630 0.903594 0.594020
O O4 0.198825 0.011480 0.446656
O O5 0.750000 0.250000 0.000000
O O6 0.691202 0.015241 0.969876
O O7 0.087283 0.586324 0.417441
O O8 0.113514 0.567760 0.173861
O O9 0.423978 0.191760 0.833564
O O10 0.500000 0.000000 0.000000
O O11 0.950119 0.053194 0.266897
O O12 0.977927 0.133429 0.578476
#
# Coordination Sequence:
#
# PCOD9291111 Si02
#       6
#     8   8   8   8   8   4
#     4  11  24  43  68  99 140 177 230 280 354 408
#     4  12  24  44  70 102 139 181 231 285 349 420
#     4  11  25  45  67 100 138 181 232 286 347 413
#     4  11  25  43  69  98 134 183 239 286 342 408
#     4  10  23  41  65  97 132 180 223 278 344 408
#     4  10  22  42  64  94 140 168 228 274 344 414
#
# _framework density 23.102868999999998
#
# number of rings (size 3 to 8) (size 9 to 14) (size 15 to 20)
#    0.000    1.091    0.000    6.545    7.636    1.455 
#    3.273    0.000    0.000    0.000    0.000    0.000 
#    0.000    0.000    0.000    0.000    0.000    0.000 
#
# Total GULP energy -123084.690036 kJ/mol
# GULP energy per Si atom -5594.758638 kJ/mol
# Density = 2.305029 g / cm^3
# Si number density = 23.102869 Si / 1000 Ang^3
#
#
#
# Elastic Constant Matrix: (Units=GPa)
#
#
# Indices 1 2 3 4 5 6 
#
# 1 123.6045 54.3824 -5.7534 0.0000 6.4993 0.0000
# 2 54.3824 148.5392 37.0631 0.0000 -9.9284 0.0000
# 3 -5.7534 37.0631 94.0517 0.0000 2.8057 0.0000
# 4 0.0000 0.0000 0.0000 32.3791 0.0000 -4.6737
# 5 6.4993 -9.9284 2.8057 0.0000 33.3657 0.0000
# 6 0.0000 0.0000 0.0000 -4.6737 0.0000 35.8944
#
#
#
# Elastic Compliance Matrix: (Units=1/GPa)
#
#
# Indices 1 2 3 4 5 6 
#
# 1 0.010491 -0.004740 0.002619 0.000000 -0.003674 0.000000
# 2 -0.004740 0.009818 -0.004284 0.000000 0.004205 0.000000
# 3 0.002619 -0.004284 0.012566 0.000000 -0.002842 0.000000
# 4 0.000000 0.000000 0.000000 0.031476 0.000000 0.004098
# 5 -0.003674 0.004205 -0.002842 0.000000 0.032177 0.000000
# 6 0.000000 0.000000 0.000000 0.004098 0.000000 0.028393
#
#
# Mechanical properties :
#
#
# Convention : Reuss Voigt Hill
#
# Bulk Modulus (GPa) = 49.83975 59.73108 54.78541
# Shear Modulus (GPa) = 34.62172 39.02806 36.82489
#
# Velocity S-wave (km/s) = 3.87536 4.11459 3.99677
# Velocity P-wave (km/s) = 6.45325 6.96302 6.71297
#
# Compressibility (1/GPa) = 0.02006431
#
# Stress axis : x y z
#
# Youngs Moduli (GPa) = 95.32072 101.85706 79.58134
#
# Poissons Ratio (x) = 0.48280 -0.20844
# Poissons Ratio (y) = 0.45182 0.34095
# Poissons Ratio (z) = -0.24967 0.43638
#
# Static dielectric constant tensor:
#      x y z
#    x 1.880000 0.000000 0.026880 
#    y 0.000000 1.853400 0.000000 
#    z 0.026880 0.000000 1.866000 
# 
# From -- ./inp_files/68677.got.cif
#   From: 2010.05.17/outbox.cif.g08.bks.cpg/sg15_35_cif.got.tgz:68677.got - 2010.06.03 18:47:42.
