data_PCOD9291392
_publ_section_title
;
Structure prediction by ZEFSAII (Michael W. Deem and Ramdas Pophale) SiO2 
 PCOD9291392
Probable space group: C 2/C
;
_chemical_formula_sum "Si O2"
_cell_formula_units_Z 52
_cell_length_a 22.219642
_cell_length_b 5.748149
_cell_length_c 21.284610
_cell_angle_alpha 90.000000
_cell_angle_beta 129.718767
_cell_angle_gamma 90.000000
_cell_volume 2091.050703
_symmetry_space_group_name_H-M "C 2/C"
_symmetry_group_IT_number 15
_symmetry_cell_setting 'monoclinic'
loop_
_space_group_symop_operation_xyz
x,y,z
-x,y,1/2-z
-x,-y,-z
x,-y,1/2+z
1/2+x,1/2+y,z
1/2-x,1/2+y,1/2-z
1/2-x,1/2-y,-z
1/2+x,1/2-y,1/2+z
loop_
_atom_site_type_symbol
_atom_site_label
_atom_site_fract_x
_atom_site_fract_y
_atom_site_fract_z
Si Si1 0.881047 0.631289 0.102803
Si Si2 0.722475 0.482402 0.529939
Si Si3 0.999166 0.659396 0.884167
Si Si4 0.258559 0.864886 0.347014
Si Si5 0.654192 0.384952 0.693440
Si Si6 0.377618 0.256511 0.434925
Si Si7 0.000000 0.376964 0.250000
O O1 0.804006 0.460805 0.049711
O O2 0.925529 0.552783 0.195922
O O3 0.948942 0.570096 0.096988
O O4 0.844619 0.878240 0.059769
O O5 0.748991 0.268578 0.593338
O O6 0.684502 0.644769 0.555983
O O7 0.908085 0.681811 0.836641
O O8 0.004954 0.768238 0.817412
O O9 0.041735 0.759785 0.973402
O O10 0.269864 0.693263 0.295431
O O11 0.185800 0.024056 0.280784
O O12 0.340309 0.003884 0.400887
O O13 0.618911 0.588123 0.625364
#
# Coordination Sequence:
#
# PCOD9291392 Si02
#       7
#     8   8   8   8   8   8   4
#     4   9  20  43  60  95 125 172 210 261 336 383
#     4  10  22  42  67  89 133 169 219 271 326 400
#     4  10  22  43  62  95 131 169 212 271 335 391
#     4  11  22  41  65  97 122 177 222 276 325 391
#     4  11  24  41  66  95 133 170 225 275 330 382
#     4  11  23  42  65  97 128 172 225 264 333 395
#     4   8  20  40  64  92 130 168 210 268 334 372
#
# _framework density 24.867881000000001
#
# number of rings (size 3 to 8) (size 9 to 14) (size 15 to 20)
#    0.923    0.923    3.077    0.462    2.154    1.231 
#   11.077    0.000    0.000    0.000    0.000    0.000 
#    0.000    0.000    0.000    0.000    0.000    0.000 
#
# Total GULP energy -144793.745689 kJ/mol
# GULP energy per Si atom -5568.990219 kJ/mol
# Density = 2.481128 g / cm^3
# Si number density = 24.867881 Si / 1000 Ang^3
#
#
#
# Elastic Constant Matrix: (Units=GPa)
#
#
# Indices 1 2 3 4 5 6 
#
# 1 73.2581 8.1080 17.0481 0.0000 1.2792 0.0002
# 2 8.1080 9.0279 7.3639 -0.0006 -0.7071 0.0018
# 3 17.0481 7.3639 134.4869 -0.0001 17.8264 0.0000
# 4 0.0000 -0.0006 -0.0001 22.5061 0.0000 -0.8999
# 5 1.2792 -0.7071 17.8264 0.0000 31.1417 0.0000
# 6 0.0002 0.0018 0.0000 -0.8999 0.0000 26.0707
#
#
#
# Elastic Compliance Matrix: (Units=1/GPa)
#
#
# Indices 1 2 3 4 5 6 
#
# 1 0.015356 -0.012818 -0.001215 0.000000 -0.000226 0.000001
# 2 -0.012818 0.127985 -0.006317 0.000003 0.007049 -0.000008
# 3 -0.001215 -0.006317 0.008601 0.000000 -0.005017 0.000000
# 4 0.000000 0.000003 0.000000 0.044494 0.000000 0.001536
# 5 -0.000226 0.007049 -0.005017 0.000000 0.035152 0.000000
# 6 0.000001 -0.000008 0.000000 0.001536 0.000000 0.038410
#
#
# Mechanical properties :
#
#
# Convention : Reuss Voigt Hill
#
# Bulk Modulus (GPa) = 8.98949 31.31255 20.15102
# Shear Modulus (GPa) = 14.37699 28.22722 21.30210
#
# Velocity S-wave (km/s) = 2.40705 3.37276 2.92997
# Velocity P-wave (km/s) = 3.36867 5.27127 4.42347
#
# Compressibility (1/GPa) = 0.11124104
#
# Stress axis : x y z
#
# Youngs Moduli (GPa) = 65.12260 7.81343 116.27198
#
# Poissons Ratio (x) = 0.10015 0.14123
# Poissons Ratio (y) = 0.83474 0.73452
# Poissons Ratio (z) = 0.07910 0.04936
#
# Static dielectric constant tensor:
#      x y z
#    x 2.013090 0.000000 -0.008490 
#    y 0.000000 2.093360 0.000000 
#    z -0.008490 0.000000 1.972650 
# 
# From -- ./inp_files/302846.got.cif
#   From: 2010.05.17/outbox.cif.g08.bks.cpg/sg15_152_cif.got.tgz:302846.got - 2010.06.03 18:47:42.
