data_PCOD9291547
_publ_section_title
;
Structure prediction by ZEFSAII (Michael W. Deem and Ramdas Pophale) SiO2 
 PCOD9291547
Probable space group: C 2/C
;
_chemical_formula_sum "Si O2"
_cell_formula_units_Z 60
_cell_length_a 13.271921
_cell_length_b 24.057048
_cell_length_c 9.529314
_cell_angle_alpha 90.000000
_cell_angle_beta 103.024315
_cell_angle_gamma 90.000000
_cell_volume 2964.279167
_symmetry_space_group_name_H-M "C 2/C"
_symmetry_group_IT_number 15
_symmetry_cell_setting 'monoclinic'
loop_
_space_group_symop_operation_xyz
x,y,z
-x,y,1/2-z
-x,-y,-z
x,-y,1/2+z
1/2+x,1/2+y,z
1/2-x,1/2+y,1/2-z
1/2-x,1/2-y,-z
1/2+x,1/2-y,1/2+z
loop_
_atom_site_type_symbol
_atom_site_label
_atom_site_fract_x
_atom_site_fract_y
_atom_site_fract_z
Si Si1 0.304602 0.678871 0.772192
Si Si2 0.500000 0.609272 0.750000
Si Si3 0.978835 0.444218 0.079732
Si Si4 0.669704 0.114768 0.503602
Si Si5 0.703776 0.863312 0.525074
Si Si6 0.382998 0.199923 0.257354
Si Si7 0.616392 0.570940 0.295087
Si Si8 0.646746 0.465990 0.492177
O O1 0.415320 0.647547 0.800900
O O2 0.234074 0.651272 0.632121
O O3 0.319658 0.743015 0.737569
O O4 0.250062 0.666190 0.902962
O O5 0.436831 0.571764 0.618385
O O6 0.000000 0.453892 0.250000
O O7 0.061899 0.401767 0.040011
O O8 0.865143 0.417606 0.030755
O O9 0.000000 0.500000 0.000000
O O10 0.653637 0.151133 0.359178
O O11 0.739978 0.060045 0.500542
O O12 0.629898 0.823280 0.590249
O O13 0.799117 0.882015 0.652916
O O14 0.500000 0.212499 0.250000
O O15 0.500000 0.593121 0.250000
O O16 0.631136 0.527250 0.426237
O O17 0.632331 0.538255 0.154166
#
# Coordination Sequence:
#
# PCOD9291547 Si02
#       8
#     8   4   8   8   8   8   8   8
#     4  11  24  45  71  98 130 183 234 287 353 404
#     4  10  22  42  68  96 134 176 228 284 348 410
#     4  12  27  45  71 107 143 188 232 282 350 428
#     4  11  24  44  69  97 138 174 229 289 341 414
#     4  12  26  44  71 101 145 177 233 293 346 418
#     4  12  24  46  72  99 133 182 234 291 351 418
#     4  12  25  41  65  99 138 180 225 277 343 411
#     4  11  24  40  64  97 134 177 224 274 339 417
#
# _framework density 20.241007
#
# number of rings (size 3 to 8) (size 9 to 14) (size 15 to 20)
#    0.000    0.533    5.333    2.800    5.600    2.133 
#    0.000    0.000    0.000    0.000    0.000    0.000 
#    0.000    0.000    0.000    0.000    0.000    0.000 
#
# Total GULP energy -167787.406018 kJ/mol
# GULP energy per Si atom -5592.913534 kJ/mol
# Density = 2.019494 g / cm^3
# Si number density = 20.241007 Si / 1000 Ang^3
#
#
#
# Elastic Constant Matrix: (Units=GPa)
#
#
# Indices 1 2 3 4 5 6 
#
# 1 122.5433 25.1632 33.5505 0.0000 -7.4771 0.0000
# 2 25.1632 58.6509 -9.6381 0.0000 -8.1151 0.0000
# 3 33.5505 -9.6381 71.5558 0.0000 -29.5282 0.0000
# 4 0.0000 0.0000 0.0000 5.2220 0.0000 -11.2765
# 5 -7.4771 -8.1151 -29.5282 0.0000 33.5805 0.0000
# 6 0.0000 0.0000 0.0000 -11.2765 0.0000 29.6305
#
#
#
# Elastic Compliance Matrix: (Units=1/GPa)
#
#
# Indices 1 2 3 4 5 6 
#
# 1 0.012049 -0.007938 -0.010050 0.000000 -0.008073 0.000000
# 2 -0.007938 0.025024 0.013904 0.000000 0.016506 0.000000
# 3 -0.010050 0.013904 0.032997 0.000000 0.030137 0.000000
# 4 0.000000 0.000000 0.000000 1.074676 0.000000 0.408991
# 5 -0.008073 0.016506 0.030137 0.000000 0.058471 0.000000
# 6 0.000000 0.000000 0.000000 0.408991 0.000000 0.189399
#
#
# Mechanical properties :
#
#
# Convention : Reuss Voigt Hill
#
# Bulk Modulus (GPa) = 16.15460 38.98903 27.57181
# Shear Modulus (GPa) = 3.51761 27.26490 15.39125
#
# Velocity S-wave (km/s) = 1.31971 3.67415 2.76053
# Velocity P-wave (km/s) = 3.21257 6.10765 4.87975
#
# Compressibility (1/GPa) = 0.06190187
#
# Stress axis : x y z
#
# Youngs Moduli (GPa) = 82.99144 39.96089 30.30622
#
# Poissons Ratio (x) = 0.31722 0.30458
# Poissons Ratio (y) = 0.65880 -0.42138
# Poissons Ratio (z) = 0.83408 -0.55562
#
# Static dielectric constant tensor:
#      x y z
#    x 1.753370 0.000000 -0.008190 
#    y 0.000000 1.705530 0.000000 
#    z -0.008190 0.000000 1.683770 
# 
# From -- ./inp_files/34284.got.cif
#   From: 2010.05.17/outbox.cif.g08.bks.cpg/sg15_18_cif.got.tgz:34284.got - 2010.06.03 18:47:42.
