data_PCOD9291379
_publ_section_title
;
Structure prediction by ZEFSAII (Michael W. Deem and Ramdas Pophale) SiO2 
 PCOD9291379
Probable space group: C 2/C
;
_chemical_formula_sum "Si O2"
_cell_formula_units_Z 40
_cell_length_a 22.637534
_cell_length_b 7.541810
_cell_length_c 9.162489
_cell_angle_alpha 90.000000
_cell_angle_beta 88.591756
_cell_angle_gamma 90.000000
_cell_volume 1563.820769
_symmetry_space_group_name_H-M "C 2/C"
_symmetry_group_IT_number 15
_symmetry_cell_setting 'monoclinic'
loop_
_space_group_symop_operation_xyz
x,y,z
-x,y,1/2-z
-x,-y,-z
x,-y,1/2+z
1/2+x,1/2+y,z
1/2-x,1/2+y,1/2-z
1/2-x,1/2-y,-z
1/2+x,1/2-y,1/2+z
loop_
_atom_site_type_symbol
_atom_site_label
_atom_site_fract_x
_atom_site_fract_y
_atom_site_fract_z
Si Si1 0.763269 0.534541 0.982355
Si Si2 0.041068 0.437843 0.363544
Si Si3 0.834048 0.340911 0.225436
Si Si4 0.637897 0.472568 0.547305
Si Si5 0.565534 0.669050 0.779710
O O1 0.785097 0.415289 0.115371
O O2 0.696722 0.468883 0.956953
O O3 0.750000 0.750000 0.000000
O O4 0.814465 0.524290 0.858881
O O5 0.104307 0.346077 0.367543
O O6 0.060175 0.621198 0.288141
O O7 0.000000 0.336177 0.250000
O O8 0.000000 0.500000 0.500000
O O9 0.842880 0.166999 0.326955
O O10 0.606670 0.620082 0.643688
O O11 0.593122 0.392032 0.431588
O O12 0.500000 0.597245 0.750000
#
# Coordination Sequence:
#
# PCOD9291379 Si02
#       5
#     8   8   8   8   8
#     4  10  22  42  67 101 138 180 231 289 349 418
#     4  11  23  41  64  94 131 177 228 281 339 408
#     4  11  23  43  71  99 135 182 232 287 350 419
#     4  11  24  44  67 100 139 181 231 291 354 417
#     4  11  25  44  68 100 142 186 234 292 351 414
#
# _framework density 25.578379999999999
#
# number of rings (size 3 to 8) (size 9 to 14) (size 15 to 20)
#    0.000    1.200    0.000    6.600    0.000    8.800 
#    0.000    6.000    0.000    0.000    0.000    0.000 
#    0.000    0.000    0.000    0.000    0.000    0.000 
#
# Total GULP energy -111540.765599 kJ/mol
# GULP energy per Si atom -5577.038280 kJ/mol
# Density = 2.552016 g / cm^3
# Si number density = 25.578380 Si / 1000 Ang^3
#
#
#
# Elastic Constant Matrix: (Units=GPa)
#
#
# Indices 1 2 3 4 5 6 
#
# 1 164.8955 28.9786 61.8917 0.0000 -4.5765 0.0000
# 2 28.9786 88.8956 35.0761 0.0000 7.9957 0.0000
# 3 61.8917 35.0761 134.5186 0.0000 9.0380 0.0000
# 4 0.0000 0.0000 0.0000 41.5669 0.0000 -5.3003
# 5 -4.5765 7.9957 9.0380 0.0000 74.8207 0.0000
# 6 0.0000 0.0000 0.0000 -5.3003 0.0000 17.1300
#
#
#
# Elastic Compliance Matrix: (Units=1/GPa)
#
#
# Indices 1 2 3 4 5 6 
#
# 1 0.007514 -0.001279 -0.003189 0.000000 0.000982 0.000000
# 2 -0.001279 0.012825 -0.002680 0.000000 -0.001125 0.000000
# 3 -0.003189 -0.002680 0.009673 0.000000 -0.001077 0.000000
# 4 0.000000 0.000000 0.000000 0.025046 0.000000 0.007750
# 5 0.000982 -0.001125 -0.001077 0.000000 0.013676 0.000000
# 6 0.000000 0.000000 0.000000 0.007750 0.000000 0.060775
#
#
# Mechanical properties :
#
#
# Convention : Reuss Voigt Hill
#
# Bulk Modulus (GPa) = 63.63806 71.13362 67.38584
# Shear Modulus (GPa) = 33.54752 44.19441 38.87096
#
# Velocity S-wave (km/s) = 3.62547 4.16119 3.90254
# Velocity P-wave (km/s) = 6.51606 7.13847 6.83436
#
# Compressibility (1/GPa) = 0.01571387
#
# Stress axis : x y z
#
# Youngs Moduli (GPa) = 133.09221 77.97403 103.38560
#
# Poissons Ratio (x) = 0.09974 0.32974
# Poissons Ratio (y) = 0.17024 0.27707
# Poissons Ratio (z) = 0.42448 0.20897
#
# Static dielectric constant tensor:
#      x y z
#    x 2.292860 0.000000 0.214910 
#    y 0.000000 2.102770 0.000000 
#    z 0.214910 0.000000 2.204380 
# 
# From -- ./inp_files/59919.got.cif
#   From: 2010.05.17/outbox.cif.g08.bks.cpg/sg15_30_cif.got.tgz:59919.got - 2010.06.03 18:47:42.
