data_PCOD9291821
_publ_section_title
;
Structure prediction by ZEFSAII (Michael W. Deem and Ramdas Pophale) SiO2 
 PCOD9291821
Probable space group: C 2/C
;
_chemical_formula_sum "Si O2"
_cell_formula_units_Z 56
_cell_length_a 21.712427
_cell_length_b 8.265593
_cell_length_c 13.779247
_cell_angle_alpha 90.000000
_cell_angle_beta 113.138421
_cell_angle_gamma 90.000000
_cell_volume 2273.982377
_symmetry_space_group_name_H-M "C 2/C"
_symmetry_group_IT_number 15
_symmetry_cell_setting 'monoclinic'
loop_
_space_group_symop_operation_xyz
x,y,z
-x,y,1/2-z
-x,-y,-z
x,-y,1/2+z
1/2+x,1/2+y,z
1/2-x,1/2+y,1/2-z
1/2-x,1/2-y,-z
1/2+x,1/2-y,1/2+z
loop_
_atom_site_type_symbol
_atom_site_label
_atom_site_fract_x
_atom_site_fract_y
_atom_site_fract_z
Si Si1 0.403693 0.913638 0.595410
Si Si2 0.500000 0.831819 0.250000
Si Si3 0.068150 0.913010 0.656128
Si Si4 0.288530 0.022305 0.144021
Si Si5 0.187264 0.147638 0.362139
Si Si6 0.167941 0.582922 0.112736
Si Si7 0.358888 0.548509 0.962180
Si Si8 0.000000 0.831782 0.250000
O O1 0.455441 0.773916 0.649373
O O2 0.437296 0.060692 0.677502
O O3 0.332872 0.870360 0.600393
O O4 0.386534 0.975620 0.477579
O O5 0.479811 0.727164 0.332129
O O6 0.141956 0.867362 0.739754
O O7 0.078996 0.960827 0.550942
O O8 0.045858 0.064039 0.707367
O O9 0.295518 0.836312 0.112455
O O10 0.209658 0.051016 0.097930
O O11 0.321472 0.038501 0.269615
O O12 0.258363 0.061592 0.389953
O O13 0.143442 0.082279 0.424617
O O14 0.149047 0.772731 0.090540
#
# Coordination Sequence:
#
# PCOD9291821 Si02
#       8
#     8   4   8   8   8   8   8   4
#     4  11  21  45  66  96 134 172 221 264 331 389
#     4  10  22  42  72  86 138 196 216 256 300 412
#     4  11  22  45  65  97 134 173 227 263 322 390
#     4  11  20  37  69  99 127 164 215 273 330 391
#     4  11  21  42  68  99 131 171 213 274 337 396
#     4  11  21  38  68 100 129 166 215 276 340 386
#     4  11  21  39  68 102 132 170 213 273 340 387
#     4  10  26  44  64  94 142 176 214 286 306 384
#
# _framework density 24.626401000000001
#
# number of rings (size 3 to 8) (size 9 to 14) (size 15 to 20)
#    0.000    1.143    5.714    1.714    0.000    0.000 
#    2.571   16.429    0.000    0.000    0.000    0.000 
#    0.000    0.000    0.000    0.000    0.000    0.000 
#
# Total GULP energy -156746.915744 kJ/mol
# GULP energy per Si atom -5598.104134 kJ/mol
# Density = 2.457035 g / cm^3
# Si number density = 24.626401 Si / 1000 Ang^3
#
#
#
# Elastic Constant Matrix: (Units=GPa)
#
#
# Indices 1 2 3 4 5 6 
#
# 1 94.7242 22.4483 -0.0291 0.0000 -7.6253 0.0000
# 2 22.4483 52.7159 7.1682 0.0000 -1.5410 0.0000
# 3 -0.0291 7.1682 86.6259 0.0000 -15.9580 0.0000
# 4 0.0000 0.0000 0.0000 39.8979 0.0000 0.4279
# 5 -7.6253 -1.5410 -15.9580 0.0000 44.2771 0.0000
# 6 0.0000 0.0000 0.0000 0.4279 0.0000 15.6274
#
#
#
# Elastic Compliance Matrix: (Units=1/GPa)
#
#
# Indices 1 2 3 4 5 6 
#
# 1 0.011950 -0.005138 0.000831 0.000000 0.002179 0.000000
# 2 -0.005138 0.021395 -0.001926 0.000000 -0.000834 0.000000
# 3 0.000831 -0.001926 0.012551 0.000000 0.004599 0.000000
# 4 0.000000 0.000000 0.000000 0.025071 0.000000 -0.000686
# 5 0.002179 -0.000834 0.004599 0.000000 0.024589 0.000000
# 6 0.000000 0.000000 0.000000 -0.000686 0.000000 0.064009
#
#
# Mechanical properties :
#
#
# Convention : Reuss Voigt Hill
#
# Bulk Modulus (GPa) = 29.91387 32.58232 31.24809
# Shear Modulus (GPa) = 27.29625 33.59237 30.44431
#
# Velocity S-wave (km/s) = 3.33290 3.69735 3.51984
# Velocity P-wave (km/s) = 5.19465 5.61129 5.40698
#
# Compressibility (1/GPa) = 0.03342931
#
# Stress axis : x y z
#
# Youngs Moduli (GPa) = 83.68024 46.73973 79.67590
#
# Poissons Ratio (x) = 0.24015 -0.06617
# Poissons Ratio (y) = 0.42996 0.15344
# Poissons Ratio (z) = -0.06950 0.09001
#
# Static dielectric constant tensor:
#      x y z
#    x 1.968940 0.000000 0.000240 
#    y 0.000000 1.963930 0.000000 
#    z 0.000240 0.000000 1.936100 
# 
# From -- ./inp_files/172001.got.cif
#   From: 2010.05.17/outbox.cif.g08.bks.cpg/sg15_87_cif.got.tgz:172001.got - 2010.06.03 18:47:42.
