data_PCOD9291251
_publ_section_title
;
Structure prediction by ZEFSAII (Michael W. Deem and Ramdas Pophale) SiO2 
 PCOD9291251
Probable space group: C 2/C
;
_chemical_formula_sum "Si O2"
_cell_formula_units_Z 60
_cell_length_a 11.148187
_cell_length_b 25.562228
_cell_length_c 16.665062
_cell_angle_alpha 90.000000
_cell_angle_beta 33.634144
_cell_angle_gamma 90.000000
_cell_volume 2630.459926
_symmetry_space_group_name_H-M "C 2/C"
_symmetry_group_IT_number 15
_symmetry_cell_setting 'monoclinic'
loop_
_space_group_symop_operation_xyz
x,y,z
-x,y,1/2-z
-x,-y,-z
x,-y,1/2+z
1/2+x,1/2+y,z
1/2-x,1/2+y,1/2-z
1/2-x,1/2-y,-z
1/2+x,1/2-y,1/2+z
loop_
_atom_site_type_symbol
_atom_site_label
_atom_site_fract_x
_atom_site_fract_y
_atom_site_fract_z
Si Si1 0.302678 0.688629 0.967886
Si Si2 0.728906 0.071599 0.269524
Si Si3 0.206179 0.083140 0.952620
Si Si4 0.512029 0.234779 0.603696
Si Si5 0.907393 0.364938 0.061891
Si Si6 0.351505 0.953970 0.209636
Si Si7 0.500000 0.879007 0.750000
Si Si8 0.855370 0.806929 0.095315
O O1 0.254072 0.665146 0.907975
O O2 0.532305 0.679831 0.882839
O O3 0.250000 0.750000 0.000000
O O4 0.140519 0.657448 0.115270
O O5 0.599991 0.108629 0.402569
O O6 0.650182 0.086646 0.223836
O O7 0.661963 0.011567 0.318684
O O8 0.986888 0.078670 0.125188
O O9 0.411197 0.062975 0.889002
O O10 0.201439 0.050127 0.872343
O O11 0.227626 0.142604 0.906756
O O12 0.750000 0.250000 0.500000
O O13 0.507232 0.177728 0.566505
O O14 0.335687 0.232246 0.772049
O O15 0.469728 0.277451 0.557848
O O16 0.796982 0.411406 0.172968
#
# Coordination Sequence:
#
# PCOD9291251 Si02
#       8
#     8   8   8   8   8   8   4   8
#     4  11  24  41  68  99 146 186 234 291 354 422
#     4  11  24  45  74 103 134 191 238 296 362 418
#     4  11  24  45  76 101 143 186 239 298 355 430
#     4  12  27  46  70 102 145 187 233 287 354 422
#     4  11  25  47  69 104 144 184 234 301 352 423
#     4  11  24  47  70 102 144 179 241 298 362 421
#     4  10  22  42  66 104 138 182 242 286 340 436
#     4  12  26  46  71 106 142 195 237 287 359 431
#
# _framework density 22.809699999999999
#
# number of rings (size 3 to 8) (size 9 to 14) (size 15 to 20)
#    0.000    0.800    4.000    2.800    5.600    1.067 
#    2.400    0.000    0.000    0.000    0.000    0.000 
#    0.000    0.000    0.000    0.000    0.000    0.000 
#
# Total GULP energy -167955.154262 kJ/mol
# GULP energy per Si atom -5598.505142 kJ/mol
# Density = 2.275778 g / cm^3
# Si number density = 22.809700 Si / 1000 Ang^3
#
#
#
# Elastic Constant Matrix: (Units=GPa)
#
#
# Indices 1 2 3 4 5 6 
#
# 1 97.8516 36.8082 26.2683 -0.0040 2.2991 0.0045
# 2 36.8082 133.2858 29.0185 -0.0008 -0.4213 0.0020
# 3 26.2683 29.0185 97.4721 -0.0034 -9.5857 0.0085
# 4 -0.0040 -0.0008 -0.0034 29.9115 0.0042 -2.2973
# 5 2.2991 -0.4213 -9.5857 0.0042 33.0298 -0.0045
# 6 0.0045 0.0020 0.0085 -2.2973 -0.0045 19.6128
#
#
#
# Elastic Compliance Matrix: (Units=1/GPa)
#
#
# Indices 1 2 3 4 5 6 
#
# 1 0.011983 -0.002755 -0.002568 0.000001 -0.001615 -0.000002
# 2 -0.002755 0.008668 -0.001861 0.000000 -0.000238 0.000000
# 3 -0.002568 -0.001861 0.011859 0.000000 0.003597 -0.000003
# 4 0.000001 0.000000 0.000000 0.033735 -0.000004 0.003952
# 5 -0.001615 -0.000238 0.003597 -0.000004 0.031429 0.000006
# 6 -0.000002 0.000000 -0.000003 0.003952 0.000006 0.051450
#
#
# Mechanical properties :
#
#
# Convention : Reuss Voigt Hill
#
# Bulk Modulus (GPa) = 55.12285 56.97773 56.05029
# Shear Modulus (GPa) = 29.49131 32.27845 30.88488
#
# Velocity S-wave (km/s) = 3.59963 3.76589 3.68370
# Velocity P-wave (km/s) = 6.44169 6.62896 6.53599
#
# Compressibility (1/GPa) = 0.01814130
#
# Stress axis : x y z
#
# Youngs Moduli (GPa) = 83.44944 115.36554 84.32218
#
# Poissons Ratio (x) = 0.31787 0.21653
# Poissons Ratio (y) = 0.22993 0.15696
# Poissons Ratio (z) = 0.21429 0.21475
#
# Static dielectric constant tensor:
#      x y z
#    x 1.921540 0.000000 0.010910 
#    y 0.000000 1.877800 0.000000 
#    z 0.010910 0.000000 1.877770 
# 
# From -- ./inp_files/201236.got.cif
#   From: 2010.05.17/outbox.cif.g08.bks.cpg/sg15_101_cif.got.tgz:201236.got - 2010.06.03 18:47:42.
