data_PCOD9291684
_publ_section_title
;
Structure prediction by ZEFSAII (Michael W. Deem and Ramdas Pophale) SiO2 
 PCOD9291684
Probable space group: C 2/C
;
_chemical_formula_sum "Si O2"
_cell_formula_units_Z 32
_cell_length_a 21.160107
_cell_length_b 7.488937
_cell_length_c 17.362121
_cell_angle_alpha 90.000000
_cell_angle_beta 149.908567
_cell_angle_gamma 90.000000
_cell_volume 1379.459676
_symmetry_space_group_name_H-M "C 2/C"
_symmetry_group_IT_number 15
_symmetry_cell_setting 'monoclinic'
loop_
_space_group_symop_operation_xyz
x,y,z
-x,y,1/2-z
-x,-y,-z
x,-y,1/2+z
1/2+x,1/2+y,z
1/2-x,1/2+y,1/2-z
1/2-x,1/2-y,-z
1/2+x,1/2-y,1/2+z
loop_
_atom_site_type_symbol
_atom_site_label
_atom_site_fract_x
_atom_site_fract_y
_atom_site_fract_z
Si Si1 0.879297 0.648331 0.148118
Si Si2 0.116756 0.117072 0.148632
Si Si3 0.785085 0.340220 0.956869
Si Si4 0.805192 0.529142 0.727188
O O1 0.868054 0.573331 0.222694
O O2 0.000000 0.761914 0.250000
O O3 0.750000 0.750000 0.000000
O O4 0.881880 0.489817 0.085712
O O5 0.169804 0.066595 0.289403
O O6 0.096257 0.330141 0.132240
O O7 0.233116 0.088811 0.212675
O O8 0.000000 0.000000 0.000000
O O9 0.802431 0.167231 0.920682
O O10 0.750000 0.250000 0.000000
#
# Coordination Sequence:
#
# PCOD9291684 Si02
#       4
#     8   8   8   8
#     4  11  25  45  70 103 141 197 253 306 366 450
#     4  10  22  42  70 103 141 188 240 299 373 444
#     4   8  20  42  64  97 142 184 235 291 369 437
#     4   9  23  41  67 105 141 181 243 303 372 435
#
# _framework density 23.197488
#
# number of rings (size 3 to 8) (size 9 to 14) (size 15 to 20)
#    1.500    1.000    0.000    0.000    7.000    2.000 
#    0.000    7.500    0.000    0.000    0.000    0.000 
#    0.000    0.000    0.000    0.000    0.000    0.000 
#
# Total GULP energy -89070.449386 kJ/mol
# GULP energy per Si atom -5566.903087 kJ/mol
# Density = 2.314469 g / cm^3
# Si number density = 23.197488 Si / 1000 Ang^3
#
#
#
# Elastic Constant Matrix: (Units=GPa)
#
#
# Indices 1 2 3 4 5 6 
#
# 1 146.1556 56.2585 73.0712 0.0000 -0.2309 0.0000
# 2 56.2585 56.8645 25.9609 0.0000 -0.2562 0.0000
# 3 73.0712 25.9609 113.8360 0.0000 -2.3765 0.0000
# 4 0.0000 0.0000 0.0000 33.7170 0.0000 -18.2407
# 5 -0.2309 -0.2562 -2.3765 0.0000 42.5081 0.0000
# 6 0.0000 0.0000 0.0000 -18.2407 0.0000 40.6121
#
#
#
# Elastic Compliance Matrix: (Units=1/GPa)
#
#
# Indices 1 2 3 4 5 6 
#
# 1 0.014609 -0.011352 -0.006796 0.000000 -0.000369 0.000000
# 2 -0.011352 0.028452 0.000802 0.000000 0.000155 0.000000
# 3 -0.006796 0.000802 0.012979 0.000000 0.000694 0.000000
# 4 0.000000 0.000000 0.000000 0.039178 0.000000 0.017597
# 5 -0.000369 0.000155 0.000694 0.000000 0.023563 0.000000
# 6 0.000000 0.000000 0.000000 0.017597 0.000000 0.032527
#
#
# Mechanical properties :
#
#
# Convention : Reuss Voigt Hill
#
# Bulk Modulus (GPa) = 46.84779 69.71527 58.28153
# Shear Modulus (GPa) = 25.89118 34.13847 30.01482
#
# Velocity S-wave (km/s) = 3.34446 3.84036 3.60096
# Velocity P-wave (km/s) = 5.92899 7.05569 6.51673
#
# Compressibility (1/GPa) = 0.02134573
#
# Stress axis : x y z
#
# Youngs Moduli (GPa) = 68.45098 35.14736 77.04908
#
# Poissons Ratio (x) = 0.39900 0.52365
# Poissons Ratio (y) = 0.77707 -0.06177
# Poissons Ratio (z) = 0.46521 -0.02818
#
# Static dielectric constant tensor:
#      x y z
#    x 1.886180 0.000000 -0.055810 
#    y 0.000000 1.989460 0.000000 
#    z -0.055810 0.000000 2.094410 
# 
# From -- ./inp_files/208806.got.cif
#   From: 2010.05.17/outbox.cif.g08.bks.cpg/sg15_105_cif.got.tgz:208806.got - 2010.06.03 18:47:42.
