data_PCOD9291682
_publ_section_title
;
Structure prediction by ZEFSAII (Michael W. Deem and Ramdas Pophale) SiO2 
 PCOD9291682
Probable space group: C 2/C
;
_chemical_formula_sum "Si O2"
_cell_formula_units_Z 44
_cell_length_a 20.319829
_cell_length_b 8.362983
_cell_length_c 13.667717
_cell_angle_alpha 90.000000
_cell_angle_beta 137.236552
_cell_angle_gamma 90.000000
_cell_volume 1576.993114
_symmetry_space_group_name_H-M "C 2/C"
_symmetry_group_IT_number 15
_symmetry_cell_setting 'monoclinic'
loop_
_space_group_symop_operation_xyz
x,y,z
-x,y,1/2-z
-x,-y,-z
x,-y,1/2+z
1/2+x,1/2+y,z
1/2-x,1/2+y,1/2-z
1/2-x,1/2-y,-z
1/2+x,1/2-y,1/2+z
loop_
_atom_site_type_symbol
_atom_site_label
_atom_site_fract_x
_atom_site_fract_y
_atom_site_fract_z
Si Si1 0.000000 0.658432 0.750000
Si Si2 0.250000 0.750000 0.000000
Si Si3 0.675108 0.434432 0.748982
Si Si4 0.500000 0.639639 0.750000
Si Si5 0.078004 0.593468 0.217431
Si Si6 0.860906 0.401203 0.394217
Si Si7 0.394274 0.613301 0.002876
O O1 0.911856 0.548000 0.690984
O O2 0.967513 0.747961 0.616707
O O3 0.168604 0.860240 0.849967
O O4 0.204597 0.823959 0.054607
O O5 0.776497 0.528922 0.868030
O O6 0.660323 0.278908 0.663374
O O7 0.614254 0.568448 0.620444
O O8 0.419247 0.745610 0.718160
O O9 0.557708 0.535866 0.890592
O O10 0.138522 0.534279 0.192425
O O11 0.966658 0.595326 0.057967
#
# Coordination Sequence:
#
# PCOD9291682 Si02
#       7
#     4   4   8   4   8   8   8
#     4  10  22  42  70 102 150 198 246 304 378 448
#     4  12  26  48  74 106 150 194 244 312 380 426
#     4  12  25  47  73 111 147 201 251 316 373 457
#     4  10  22  46  74 112 150 192 262 302 372 464
#     4  10  22  44  71 106 148 200 241 314 372 448
#     4  11  24  43  71 101 149 191 252 307 380 435
#     4  11  24  46  74 110 148 196 252 312 368 457
#
# _framework density 27.901198000000001
#
# number of rings (size 3 to 8) (size 9 to 14) (size 15 to 20)
#    0.000    1.091    3.636    2.182    0.000    2.909 
#    3.273    4.545    0.000    0.000    0.000    0.000 
#    0.000    0.000    0.000    0.000    0.000    0.000 
#
# Total GULP energy -122645.130968 kJ/mol
# GULP energy per Si atom -5574.778680 kJ/mol
# Density = 2.783769 g / cm^3
# Si number density = 27.901198 Si / 1000 Ang^3
#
#
#
# Elastic Constant Matrix: (Units=GPa)
#
#
# Indices 1 2 3 4 5 6 
#
# 1 61.3481 -2.7238 17.5171 0.0000 -2.6625 0.0000
# 2 -2.7238 107.1500 26.3140 0.0000 -14.8404 0.0000
# 3 17.5171 26.3140 174.4442 0.0000 -21.7240 0.0000
# 4 0.0000 0.0000 0.0000 50.7435 0.0000 -10.2968
# 5 -2.6625 -14.8404 -21.7240 0.0000 45.6500 0.0000
# 6 0.0000 0.0000 0.0000 -10.2968 0.0000 38.4889
#
#
#
# Elastic Compliance Matrix: (Units=1/GPa)
#
#
# Indices 1 2 3 4 5 6 
#
# 1 0.016869 0.000926 -0.001779 0.000000 0.000438 0.000000
# 2 0.000926 0.010044 -0.001270 0.000000 0.002715 0.000000
# 3 -0.001779 -0.001270 0.006419 0.000000 0.002538 0.000000
# 4 0.000000 0.000000 0.000000 0.020838 0.000000 0.005575
# 5 0.000438 0.002715 0.002538 0.000000 0.024022 0.000000
# 6 0.000000 0.000000 0.000000 0.005575 0.000000 0.027473
#
#
# Mechanical properties :
#
#
# Convention : Reuss Voigt Hill
#
# Bulk Modulus (GPa) = 34.38059 47.23968 40.81013
# Shear Modulus (GPa) = 41.80425 47.09881 44.45153
#
# Velocity S-wave (km/s) = 3.87498 4.11305 3.99579
# Velocity P-wave (km/s) = 5.68943 6.28682 5.99557
#
# Compressibility (1/GPa) = 0.02908618
#
# Stress axis : x y z
#
# Youngs Moduli (GPa) = 59.28188 99.56020 155.79307
#
# Poissons Ratio (x) = -0.09223 0.27716
# Poissons Ratio (y) = -0.05492 0.19786
# Poissons Ratio (z) = 0.10546 0.12645
#
# Static dielectric constant tensor:
#      x y z
#    x 3.913910 0.000000 0.550560 
#    y 0.000000 2.363730 0.000000 
#    z 0.550560 0.000000 2.299250 
# 
# From -- ./inp_files/176766.got.cif
#   From: 2010.05.17/outbox.cif.g08.bks.cpg/sg15_89_cif.got.tgz:176766.got - 2010.06.03 18:47:42.
