data_PCOD9291687
_publ_section_title
;
Structure prediction by ZEFSAII (Michael W. Deem and Ramdas Pophale) SiO2 
 PCOD9291687
Probable space group: C 2/C
;
_chemical_formula_sum "Si O2"
_cell_formula_units_Z 60
_cell_length_a 10.391332
_cell_length_b 10.035683
_cell_length_c 30.670179
_cell_angle_alpha 90.000000
_cell_angle_beta 114.023405
_cell_angle_gamma 90.000000
_cell_volume 2921.363498
_symmetry_space_group_name_H-M "C 2/C"
_symmetry_group_IT_number 15
_symmetry_cell_setting 'monoclinic'
loop_
_space_group_symop_operation_xyz
x,y,z
-x,y,1/2-z
-x,-y,-z
x,-y,1/2+z
1/2+x,1/2+y,z
1/2-x,1/2+y,1/2-z
1/2-x,1/2-y,-z
1/2+x,1/2-y,1/2+z
loop_
_atom_site_type_symbol
_atom_site_label
_atom_site_fract_x
_atom_site_fract_y
_atom_site_fract_z
Si Si1 0.586081 0.506485 0.467412
Si Si2 0.434140 0.572753 0.857689
Si Si3 0.129512 0.320250 0.605222
Si Si4 0.305826 0.448973 0.171125
Si Si5 0.603909 0.958468 0.974470
Si Si6 0.500000 0.357918 0.750000
Si Si7 0.381406 0.288032 0.823946
Si Si8 0.132640 0.270845 0.426483
O O1 0.500000 0.500000 0.500000
O O2 0.491451 0.460120 0.413902
O O3 0.736438 0.430926 0.488458
O O4 0.619295 0.661065 0.462224
O O5 0.362746 0.715525 0.854088
O O6 0.568181 0.584179 0.844674
O O7 0.347607 0.444330 0.828820
O O8 0.192367 0.462005 0.629149
O O9 0.226476 0.261577 0.580473
O O10 0.975273 0.345181 0.564042
O O11 0.375206 0.545988 0.216210
O O12 0.239929 0.317037 0.182629
O O13 0.621791 0.084046 0.944836
O O14 0.500000 0.000000 0.000000
O O15 0.442942 0.278128 0.783730
O O16 0.507378 0.254336 0.874812
#
# Coordination Sequence:
#
# PCOD9291687 Si02
#       8
#     8   8   8   8   8   4   8   8
#     4  11  23  40  59  93 137 179 228 286 325 382
#     4  10  24  42  64  94 131 178 217 274 332 388
#     4  12  23  42  69  95 132 180 227 276 337 397
#     4  11  22  46  68  99 131 167 216 272 337 413
#     4  12  24  38  64  97 129 186 238 278 327 401
#     4  10  22  42  70 104 126 166 204 276 344 412
#     4  10  22  45  71  92 136 170 210 271 343 407
#     4  11  22  42  63  91 136 179 220 281 338 392
#
# _framework density 20.538354000000002
#
# number of rings (size 3 to 8) (size 9 to 14) (size 15 to 20)
#    0.000    1.067    6.667    1.200    1.867    5.867 
#    0.000    0.000    0.000    0.000    0.000    0.000 
#    0.000    0.000    0.000    0.000    0.000    0.000 
#
# Total GULP energy -167687.098091 kJ/mol
# GULP energy per Si atom -5589.569936 kJ/mol
# Density = 2.049161 g / cm^3
# Si number density = 20.538354 Si / 1000 Ang^3
#
#
#
# Elastic Constant Matrix: (Units=GPa)
#
#
# Indices 1 2 3 4 5 6 
#
# 1 91.6220 41.2115 27.5904 0.0000 -18.8341 0.0000
# 2 41.2115 104.5549 11.5715 0.0000 -30.5755 0.0000
# 3 27.5904 11.5715 79.0062 0.0000 -21.2667 0.0000
# 4 0.0000 0.0000 0.0000 19.3965 0.0000 -4.5765
# 5 -18.8341 -30.5755 -21.2667 0.0000 33.3332 0.0000
# 6 0.0000 0.0000 0.0000 -4.5765 0.0000 41.0302
#
#
#
# Elastic Compliance Matrix: (Units=1/GPa)
#
#
# Indices 1 2 3 4 5 6 
#
# 1 0.014610 -0.004994 -0.004083 0.000000 0.001069 0.000000
# 2 -0.004994 0.014944 0.003001 0.000000 0.012800 0.000000
# 3 -0.004083 0.003001 0.016617 0.000000 0.011048 0.000000
# 4 0.000000 0.000000 0.000000 0.052949 0.000000 0.005906
# 5 0.001069 0.012800 0.011048 0.000000 0.049394 0.000000
# 6 0.000000 0.000000 0.000000 0.005906 0.000000 0.025031
#
#
# Mechanical properties :
#
#
# Convention : Reuss Voigt Hill
#
# Bulk Modulus (GPa) = 29.39523 48.43665 38.91594
# Shear Modulus (GPa) = 25.37588 31.73931 28.55759
#
# Velocity S-wave (km/s) = 3.51883 3.93538 3.73292
# Velocity P-wave (km/s) = 5.55455 6.65465 6.12933
#
# Compressibility (1/GPa) = 0.03401912
#
# Stress axis : x y z
#
# Youngs Moduli (GPa) = 68.44613 66.91635 60.17833
#
# Poissons Ratio (x) = 0.33419 0.24570
# Poissons Ratio (y) = 0.34183 -0.18059
# Poissons Ratio (z) = 0.27945 -0.20081
#
# Static dielectric constant tensor:
#      x y z
#    x 1.730560 0.000000 0.042140 
#    y 0.000000 1.780160 0.000000 
#    z 0.042140 0.000000 1.746800 
# 
# From -- ./inp_files/307213.got.cif
#   From: 2010.05.17/outbox.cif.g08.bks.cpg/sg15_154_cif.got.tgz:307213.got - 2010.06.03 18:47:42.
