data_PCOD9291628
_publ_section_title
;
Structure prediction by ZEFSAII (Michael W. Deem and Ramdas Pophale) SiO2 
 PCOD9291628
Probable space group: C 2/C
;
_chemical_formula_sum "Si O2"
_cell_formula_units_Z 60
_cell_length_a 20.974667
_cell_length_b 12.206974
_cell_length_c 11.502149
_cell_angle_alpha 90.000000
_cell_angle_beta 88.090707
_cell_angle_gamma 90.000000
_cell_volume 2943.343216
_symmetry_space_group_name_H-M "C 2/C"
_symmetry_group_IT_number 15
_symmetry_cell_setting 'monoclinic'
loop_
_space_group_symop_operation_xyz
x,y,z
-x,y,1/2-z
-x,-y,-z
x,-y,1/2+z
1/2+x,1/2+y,z
1/2-x,1/2+y,1/2-z
1/2-x,1/2-y,-z
1/2+x,1/2-y,1/2+z
loop_
_atom_site_type_symbol
_atom_site_label
_atom_site_fract_x
_atom_site_fract_y
_atom_site_fract_z
Si Si1 0.239345 0.657180 0.346541
Si Si2 0.902116 0.285838 0.098257
Si Si3 0.963414 0.720786 0.016108
Si Si4 0.601940 0.922007 0.171776
Si Si5 0.199463 0.099543 0.402670
Si Si6 0.000000 0.601223 0.250000
Si Si7 0.680512 0.971026 0.494481
Si Si8 0.663275 0.352290 0.444923
O O1 0.267866 0.630643 0.220751
O O2 0.192930 0.560670 0.395066
O O3 0.296948 0.661866 0.437127
O O4 0.198959 0.768699 0.355641
O O5 0.895656 0.327569 0.231630
O O6 0.854883 0.187708 0.073033
O O7 0.878386 0.392180 0.027973
O O8 0.972989 0.250935 0.059358
O O9 0.984657 0.674567 0.139237
O O10 0.909242 0.812936 0.033580
O O11 0.931567 0.625229 0.941251
O O12 0.559604 0.020741 0.223269
O O13 0.668528 0.965816 0.116871
O O14 0.255156 0.098391 0.495608
O O15 0.170864 0.977016 0.404657
#
# Coordination Sequence:
#
# PCOD9291628 Si02
#       8
#     8   8   8   8   8   4   8   8
#     4  10  22  42  69  94 129 174 221 271 330 389
#     4  12  25  41  67 100 133 174 219 271 327 393
#     4  12  24  43  66  97 134 173 218 270 331 395
#     4  12  22  40  69 100 131 167 221 273 333 389
#     4  11  26  42  65  97 133 179 219 263 325 397
#     4  12  24  40  64 102 136 166 216 282 336 378
#     4  11  23  41  64 101 133 167 213 286 329 382
#     4  10  24  44  65  94 131 176 219 269 323 398
#
# _framework density 20.384982000000001
#
# number of rings (size 3 to 8) (size 9 to 14) (size 15 to 20)
#    0.000    0.800    4.000    3.200    7.467    0.533 
#    4.800    0.000    2.933    0.000    0.000    0.000 
#    0.000    0.000    0.000    0.000    0.000    0.000 
#
# Total GULP energy -167812.795194 kJ/mol
# GULP energy per Si atom -5593.759840 kJ/mol
# Density = 2.033859 g / cm^3
# Si number density = 20.384982 Si / 1000 Ang^3
#
#
#
# Elastic Constant Matrix: (Units=GPa)
#
#
# Indices 1 2 3 4 5 6 
#
# 1 93.8081 28.1486 -3.6177 0.0000 -6.9232 0.0000
# 2 28.1486 75.9652 11.0997 0.0000 -3.9414 0.0000
# 3 -3.6177 11.0997 53.5253 0.0000 4.6578 0.0000
# 4 0.0000 0.0000 0.0000 14.5841 0.0000 -1.1707
# 5 -6.9232 -3.9414 4.6578 0.0000 26.8061 0.0000
# 6 0.0000 0.0000 0.0000 -1.1707 0.0000 37.6579
#
#
#
# Elastic Compliance Matrix: (Units=1/GPa)
#
#
# Indices 1 2 3 4 5 6 
#
# 1 0.012287 -0.004673 0.001608 0.000000 0.002207 0.000000
# 2 -0.004673 0.015523 -0.003684 0.000000 0.001716 0.000000
# 3 0.001608 -0.003684 0.019867 0.000000 -0.003579 0.000000
# 4 0.000000 0.000000 0.000000 0.068739 0.000000 0.002137
# 5 0.002207 0.001716 -0.003579 0.000000 0.038749 0.000000
# 6 0.000000 0.000000 0.000000 0.002137 0.000000 0.026621
#
#
# Mechanical properties :
#
#
# Convention : Reuss Voigt Hill
#
# Bulk Modulus (GPa) = 29.25946 32.72888 30.99417
# Shear Modulus (GPa) = 24.19212 28.32082 26.25647
#
# Velocity S-wave (km/s) = 3.44868 3.73137 3.59281
# Velocity P-wave (km/s) = 5.49931 5.88680 5.69635
#
# Compressibility (1/GPa) = 0.03417698
#
# Stress axis : x y z
#
# Youngs Moduli (GPa) = 81.38513 64.42065 50.33522
#
# Poissons Ratio (x) = 0.30106 -0.08092
# Poissons Ratio (y) = 0.38034 0.18545
# Poissons Ratio (z) = -0.13083 0.23734
#
# Static dielectric constant tensor:
#      x y z
#    x 1.746840 0.000000 0.010380 
#    y 0.000000 1.704950 0.000000 
#    z 0.010380 0.000000 1.725800 
# 
# From -- ./inp_files/111653.got.cif
#   From: 2010.05.17/outbox.cif.g08.bks.cpg/sg15_56_cif.got.tgz:111653.got - 2010.06.03 18:47:42.
