data_PCOD9291230
_publ_section_title
;
Structure prediction by ZEFSAII (Michael W. Deem and Ramdas Pophale) SiO2 
 PCOD9291230
Probable space group: C 2/C
;
_chemical_formula_sum "Si O2"
_cell_formula_units_Z 28
_cell_length_a 5.053018
_cell_length_b 23.083923
_cell_length_c 9.715362
_cell_angle_alpha 90.000000
_cell_angle_beta 72.271295
_cell_angle_gamma 90.000000
_cell_volume 1079.415268
_symmetry_space_group_name_H-M "C 2/C"
_symmetry_group_IT_number 15
_symmetry_cell_setting 'monoclinic'
loop_
_space_group_symop_operation_xyz
x,y,z
-x,y,1/2-z
-x,-y,-z
x,-y,1/2+z
1/2+x,1/2+y,z
1/2-x,1/2+y,1/2-z
1/2-x,1/2-y,-z
1/2+x,1/2-y,1/2+z
loop_
_atom_site_type_symbol
_atom_site_label
_atom_site_fract_x
_atom_site_fract_y
_atom_site_fract_z
Si Si1 0.242964 0.452229 0.117007
Si Si2 0.172933 0.575420 0.045125
Si Si3 0.000000 0.730269 0.750000
Si Si4 0.019788 0.299352 0.551317
O O1 0.544941 0.426197 0.089577
O O2 0.000000 0.429370 0.250000
O O3 0.113456 0.441132 0.986024
O O4 0.250408 0.522205 0.133177
O O5 0.134468 0.641210 0.094284
O O6 0.262542 0.773045 0.677820
O O7 0.029407 0.691752 0.606169
O O8 0.250000 0.250000 0.500000
#
# Coordination Sequence:
#
# PCOD9291230 Si02
#       4
#     8   8   4   8
#     4  10  22  42  65  99 132 178 224 285 350 417
#     4  10  24  42  66  98 135 174 232 282 349 422
#     4  10  26  44  68 106 142 186 246 286 370 424
#     4  11  25  46  69 105 139 190 235 300 357 428
#
# _framework density 25.939969000000001
#
# number of rings (size 3 to 8) (size 9 to 14) (size 15 to 20)
#    0.000    1.714    0.000    1.714   10.000    4.571 
#   10.286    0.000    0.000    0.000    0.000    0.000 
#    0.000    0.000    0.000    0.000    0.000    0.000 
#
# Total GULP energy -78146.432173 kJ/mol
# GULP energy per Si atom -5581.888012 kJ/mol
# Density = 2.588093 g / cm^3
# Si number density = 25.939969 Si / 1000 Ang^3
#
#
#
# Elastic Constant Matrix: (Units=GPa)
#
#
# Indices 1 2 3 4 5 6 
#
# 1 126.1951 41.7226 44.2680 0.0000 -45.5233 0.0000
# 2 41.7226 196.4302 31.8189 0.0000 -26.0260 0.0000
# 3 44.2680 31.8189 159.1942 0.0000 -39.2385 0.0000
# 4 0.0000 0.0000 0.0000 -14.9734 0.0000 -17.5688
# 5 -45.5233 -26.0260 -39.2385 0.0000 59.4280 0.0000
# 6 0.0000 0.0000 0.0000 -17.5688 0.0000 29.7138
#
#
#
# Elastic Compliance Matrix: (Units=1/GPa)
#
#
# Indices 1 2 3 4 5 6 
#
# 1 0.011418 -0.001259 -0.001079 0.000000 0.007483 0.000000
# 2 -0.001259 0.005591 -0.000480 0.000000 0.001167 0.000000
# 3 -0.001079 -0.000480 0.007670 0.000000 0.004028 0.000000
# 4 0.000000 0.000000 0.000000 -0.039430 0.000000 -0.023314
# 5 0.007483 0.001167 0.004028 0.000000 0.025730 0.000000
# 6 0.000000 0.000000 0.000000 -0.023314 0.000000 0.019870
#
#
# Mechanical properties :
#
#
# Convention : Reuss Voigt Hill
#
# Bulk Modulus (GPa) = 52.51061 79.71539 66.11300
# Shear Modulus (GPa) = 116.73478 39.10101 77.91790
#
# Velocity S-wave (km/s) = 6.71562 3.88669 5.48662
# Velocity P-wave (km/s) = 8.96771 7.13718 8.10429
#
# Compressibility (1/GPa) = 0.01904377
#
# Stress axis : x y z
#
# Youngs Moduli (GPa) = 87.57792 178.87035 130.37189
#
# Poissons Ratio (x) = 0.22521 0.14069
# Poissons Ratio (y) = 0.11027 0.06253
# Poissons Ratio (z) = 0.09451 0.08579
#
# Static dielectric constant tensor:
#      x y z
#    x 2.137100 0.000000 0.197310 
#    y 0.000000 2.042380 0.000000 
#    z 0.197310 0.000000 2.265370 
# 
# From -- ./inp_files/71789.got.cif
#   From: 2010.05.17/outbox.cif.g08.bks.cpg/sg15_36_cif.got.tgz:71789.got - 2010.06.03 18:47:42.
