data_PCOD9291481
_publ_section_title
;
Structure prediction by ZEFSAII (Michael W. Deem and Ramdas Pophale) SiO2 
 PCOD9291481
Probable space group: C 2/C
;
_chemical_formula_sum "Si O2"
_cell_formula_units_Z 52
_cell_length_a 11.025787
_cell_length_b 26.167241
_cell_length_c 8.511944
_cell_angle_alpha 90.000000
_cell_angle_beta 62.560520
_cell_angle_gamma 90.000000
_cell_volume 2179.534301
_symmetry_space_group_name_H-M "C 2/C"
_symmetry_group_IT_number 15
_symmetry_cell_setting 'monoclinic'
loop_
_space_group_symop_operation_xyz
x,y,z
-x,y,1/2-z
-x,-y,-z
x,-y,1/2+z
1/2+x,1/2+y,z
1/2-x,1/2+y,1/2-z
1/2-x,1/2-y,-z
1/2+x,1/2-y,1/2+z
loop_
_atom_site_type_symbol
_atom_site_label
_atom_site_fract_x
_atom_site_fract_y
_atom_site_fract_z
Si Si1 0.308148 0.346457 0.717029
Si Si2 0.866704 0.356192 0.990549
Si Si3 0.588795 0.892741 0.049937
Si Si4 0.000000 0.926081 0.750000
Si Si5 0.762929 0.016117 0.566217
Si Si6 0.406744 0.743809 0.959632
Si Si7 0.837588 0.930728 0.332957
O O1 0.195157 0.351710 0.646488
O O2 0.420431 0.390312 0.674570
O O3 0.395441 0.297010 0.607750
O O4 0.215042 0.355601 0.928118
O O5 0.935570 0.302064 0.993001
O O6 0.731084 0.376022 0.161586
O O7 0.982759 0.396248 0.969026
O O8 0.500000 0.873479 0.250000
O O9 0.644775 0.948491 0.064867
O O10 0.101426 0.961701 0.595522
O O11 0.784586 0.030452 0.732858
O O12 0.768186 0.956238 0.528219
O O13 0.500000 0.730843 0.750000
O O14 0.250000 0.750000 0.000000
O O15 0.000000 0.926831 0.250000
#
# Coordination Sequence:
#
# PCOD9291481 Si02
#       7
#     8   8   8   4   8   8   8
#     4  10  23  43  74 102 138 192 231 296 358 428
#     4  11  23  43  72  98 136 187 236 286 356 428
#     4  11  23  47  64  99 147 182 232 298 347 421
#     4  10  22  42  68 102 144 168 236 302 358 410
#     4  11  25  43  65  98 141 178 235 299 346 428
#     4  10  22  44  71 108 143 180 244 301 346 436
#     4  12  25  42  69 101 135 188 237 294 358 418
#
# _framework density 23.858309999999999
#
# number of rings (size 3 to 8) (size 9 to 14) (size 15 to 20)
#    0.000    1.231    2.308    3.692    4.308    5.538 
#    1.385    0.769    0.000    0.000    0.000    0.000 
#    0.000    0.000    0.000    0.000    0.000    0.000 
#
# Total GULP energy -145022.241025 kJ/mol
# GULP energy per Si atom -5577.778501 kJ/mol
# Density = 2.380401 g / cm^3
# Si number density = 23.858310 Si / 1000 Ang^3
#
#
#
# Elastic Constant Matrix: (Units=GPa)
#
#
# Indices 1 2 3 4 5 6 
#
# 1 102.1772 29.0336 16.0504 0.0000 -7.7297 0.0000
# 2 29.0336 113.8384 61.2696 0.0000 -5.4758 0.0000
# 3 16.0504 61.2696 100.4291 0.0000 -19.2469 0.0000
# 4 0.0000 0.0000 0.0000 35.0609 0.0000 7.2300
# 5 -7.7297 -5.4758 -19.2469 0.0000 37.2672 0.0000
# 6 0.0000 0.0000 0.0000 7.2300 0.0000 31.7884
#
#
#
# Elastic Compliance Matrix: (Units=1/GPa)
#
#
# Indices 1 2 3 4 5 6 
#
# 1 0.010684 -0.002854 0.000419 0.000000 0.002013 0.000000
# 2 -0.002854 0.014044 -0.008690 0.000000 -0.003016 0.000000
# 3 0.000419 -0.008690 0.016608 0.000000 0.007387 0.000000
# 4 0.000000 0.000000 0.000000 0.029925 0.000000 -0.006806
# 5 0.002013 -0.003016 0.007387 0.000000 0.030623 0.000000
# 6 0.000000 0.000000 0.000000 -0.006806 0.000000 0.033006
#
#
# Mechanical properties :
#
#
# Convention : Reuss Voigt Hill
#
# Bulk Modulus (GPa) = 52.39150 58.79466 55.59308
# Shear Modulus (GPa) = 30.58073 34.82938 32.70506
#
# Velocity S-wave (km/s) = 3.58406 3.82493 3.70645
# Velocity P-wave (km/s) = 6.25575 6.64858 6.45515
#
# Compressibility (1/GPa) = 0.01908707
#
# Stress axis : x y z
#
# Youngs Moduli (GPa) = 93.59559 71.20345 60.21333
#
# Poissons Ratio (x) = 0.20320 -0.02525
# Poissons Ratio (y) = 0.26710 0.52326
# Poissons Ratio (z) = -0.03925 0.61876
#
# Static dielectric constant tensor:
#      x y z
#    x 2.125940 0.000000 -0.035780 
#    y 0.000000 2.038760 0.000000 
#    z -0.035780 0.000000 2.030660 
# 
# From -- ./inp_files/34085.got.cif
#   From: 2010.05.17/outbox.cif.g08.bks.cpg/sg15_18_cif.got.tgz:34085.got - 2010.06.03 18:47:42.
