data_PCOD9291810
_publ_section_title
;
Structure prediction by ZEFSAII (Michael W. Deem and Ramdas Pophale) SiO2 
 PCOD9291810
Probable space group: C 2/C
;
_chemical_formula_sum "Si O2"
_cell_formula_units_Z 40
_cell_length_a 5.327161
_cell_length_b 25.922045
_cell_length_c 11.916296
_cell_angle_alpha 90.000000
_cell_angle_beta 80.502902
_cell_angle_gamma 90.000000
_cell_volume 1622.978395
_symmetry_space_group_name_H-M "C 2/C"
_symmetry_group_IT_number 15
_symmetry_cell_setting 'monoclinic'
loop_
_space_group_symop_operation_xyz
x,y,z
-x,y,1/2-z
-x,-y,-z
x,-y,1/2+z
1/2+x,1/2+y,z
1/2-x,1/2+y,1/2-z
1/2-x,1/2-y,-z
1/2+x,1/2-y,1/2+z
loop_
_atom_site_type_symbol
_atom_site_label
_atom_site_fract_x
_atom_site_fract_y
_atom_site_fract_z
Si Si1 0.861582 0.000925 0.888602
Si Si2 0.721674 0.110083 0.827053
Si Si3 0.227034 0.792682 0.646424
Si Si4 0.070247 0.794543 0.057478
Si Si5 0.790589 0.598927 0.183739
O O1 0.705572 0.054225 0.888187
O O2 0.000000 0.998528 0.750000
O O3 0.728851 0.945261 0.905890
O O4 0.000000 0.000000 0.000000
O O5 0.500000 0.116090 0.750000
O O6 0.762927 0.159457 0.904514
O O7 0.000000 0.108996 0.750000
O O8 0.373843 0.738769 0.646262
O O9 0.392506 0.843948 0.651549
O O10 0.000000 0.788239 0.750000
O O11 0.102737 0.807687 0.536294
O O12 0.250000 0.750000 0.000000
O O13 0.500000 0.606504 0.250000
O O14 0.000000 0.575557 0.250000
#
# Coordination Sequence:
#
# PCOD9291810 Si02
#       5
#     8   8   8   8   8
#     4  10  22  48  77 112 151 199 253 319 391 467
#     4  11  27  48  75 107 153 203 251 314 391 471
#     4  10  25  45  69 105 144 192 247 317 381 449
#     4  11  27  43  70 104 145 195 260 305 383 457
#     4  10  22  42  72 106 141 186 243 308 378 453
#
# _framework density 24.646048
#
# number of rings (size 3 to 8) (size 9 to 14) (size 15 to 20)
#    0.000    1.600    0.000    1.800   14.000    0.000 
#    0.000    8.000    0.000    0.000    0.000    0.000 
#    0.000    0.000    0.000    0.000    0.000    0.000 
#
# Total GULP energy -111441.435126 kJ/mol
# GULP energy per Si atom -5572.071756 kJ/mol
# Density = 2.458995 g / cm^3
# Si number density = 24.646048 Si / 1000 Ang^3
#
#
#
# Elastic Constant Matrix: (Units=GPa)
#
#
# Indices 1 2 3 4 5 6 
#
# 1 108.4228 15.3447 59.4566 0.0000 25.0294 0.0000
# 2 15.3447 149.3438 56.2482 0.0000 13.2780 0.0000
# 3 59.4566 56.2482 138.4600 0.0000 32.6239 0.0000
# 4 0.0000 0.0000 0.0000 56.8997 0.0000 29.2356
# 5 25.0294 13.2780 32.6239 0.0000 77.1118 0.0000
# 6 0.0000 0.0000 0.0000 29.2356 0.0000 5.1418
#
#
#
# Elastic Compliance Matrix: (Units=1/GPa)
#
#
# Indices 1 2 3 4 5 6 
#
# 1 0.012418 0.000865 -0.005219 0.000000 -0.001971 0.000000
# 2 0.000865 0.007966 -0.003575 0.000000 -0.000140 0.000000
# 3 -0.005219 -0.003575 0.011520 0.000000 -0.002564 0.000000
# 4 0.000000 0.000000 0.000000 -0.009147 0.000000 0.052006
# 5 -0.001971 -0.000140 -0.002564 0.000000 0.014717 0.000000
# 6 0.000000 0.000000 0.000000 0.052006 0.000000 -0.101217
#
#
# Mechanical properties :
#
#
# Convention : Reuss Voigt Hill
#
# Bulk Modulus (GPa) = 62.32015 73.14729 67.73372
# Shear Modulus (GPa) = -117.54690 45.50913 -36.01889
#
# Velocity S-wave (km/s) = -6.91358 4.30176 -3.82703
# Velocity P-wave (km/s) = 6.19590 7.37680 2.83090
#
# Compressibility (1/GPa) = 0.01604617
#
# Stress axis : x y z
#
# Youngs Moduli (GPa) = 80.52795 125.53628 86.80648
#
# Poissons Ratio (x) = -0.10861 0.45308
# Poissons Ratio (y) = -0.06967 0.31029
# Poissons Ratio (z) = 0.42031 0.44873
#
# Static dielectric constant tensor:
#      x y z
#    x 2.495180 0.000000 -0.280060 
#    y 0.000000 2.153460 0.000000 
#    z -0.280060 0.000000 2.088210 
# 
# From -- ./inp_files/73215.got.cif
#   From: 2010.05.17/outbox.cif.g08.bks.cpg/sg15_37_cif.got.tgz:73215.got - 2010.06.03 18:47:42.
