data_PCOD9291700
_publ_section_title
;
Structure prediction by ZEFSAII (Michael W. Deem and Ramdas Pophale) SiO2 
 PCOD9291700
Probable space group: C 2/C
;
_chemical_formula_sum "Si O2"
_cell_formula_units_Z 56
_cell_length_a 28.154948
_cell_length_b 8.871546
_cell_length_c 12.691349
_cell_angle_alpha 90.000000
_cell_angle_beta 48.955629
_cell_angle_gamma 90.000000
_cell_volume 2390.832195
_symmetry_space_group_name_H-M "C 2/C"
_symmetry_group_IT_number 15
_symmetry_cell_setting 'monoclinic'
loop_
_space_group_symop_operation_xyz
x,y,z
-x,y,1/2-z
-x,-y,-z
x,-y,1/2+z
1/2+x,1/2+y,z
1/2-x,1/2+y,1/2-z
1/2-x,1/2-y,-z
1/2+x,1/2-y,1/2+z
loop_
_atom_site_type_symbol
_atom_site_label
_atom_site_fract_x
_atom_site_fract_y
_atom_site_fract_z
Si Si1 0.000000 0.737604 0.250000
Si Si2 0.266708 0.439138 0.068889
Si Si3 0.435980 0.016120 0.960039
Si Si4 0.110629 0.276782 0.817930
Si Si5 0.678347 0.072509 0.027610
Si Si6 0.908720 0.970925 0.296989
Si Si7 0.000000 0.215860 0.250000
Si Si8 0.234815 0.730119 0.248775
O O1 0.016331 0.622068 0.131221
O O2 0.059861 0.847218 0.170107
O O3 0.217109 0.461413 0.047062
O O4 0.252100 0.564192 0.181802
O O5 0.255278 0.282254 0.146368
O O6 0.337006 0.478120 0.924637
O O7 0.465407 0.172383 0.879287
O O8 0.376234 0.986373 0.970379
O O9 0.418437 0.062322 0.104015
O O10 0.148150 0.314292 0.656396
O O11 0.079710 0.117646 0.830688
O O12 0.161380 0.243862 0.833810
O O13 0.726486 0.163593 0.885788
O O14 0.951919 0.115219 0.253784
#
# Coordination Sequence:
#
# PCOD9291700 Si02
#       8
#     4   8   8   8   8   8   4   8
#     4  10  22  42  70  90 124 176 226 258 306 380
#     4  11  22  40  68  97 132 168 210 260 329 384
#     4  11  23  43  66  98 127 166 223 274 304 370
#     4  11  21  39  69  95 128 167 214 265 322 380
#     4  11  20  41  67  96 128 168 210 267 321 383
#     4  11  21  43  67  89 131 176 208 257 328 385
#     4  10  26  44  60  92 138 168 210 276 314 370
#     4  11  21  38  63 103 128 167 208 261 322 392
#
# _framework density 23.422806000000001
#
# number of rings (size 3 to 8) (size 9 to 14) (size 15 to 20)
#    0.000    1.143    4.286    3.429    0.000    1.143 
#    2.571    2.143    0.000    0.000    0.000    0.000 
#    0.000    0.000    0.000    0.000    0.000    0.000 
#
# Total GULP energy -156283.020586 kJ/mol
# GULP energy per Si atom -5581.536450 kJ/mol
# Density = 2.336949 g / cm^3
# Si number density = 23.422806 Si / 1000 Ang^3
#
#
#
# Elastic Constant Matrix: (Units=GPa)
#
#
# Indices 1 2 3 4 5 6 
#
# 1 71.9341 10.4056 -3.9562 0.0000 -5.8495 0.0000
# 2 10.4056 81.9338 13.2274 0.0000 7.8672 0.0000
# 3 -3.9562 13.2274 58.9441 0.0000 2.5820 0.0000
# 4 0.0000 0.0000 0.0000 46.5178 0.0000 10.9297
# 5 -5.8495 7.8672 2.5820 0.0000 16.5295 0.0000
# 6 0.0000 0.0000 0.0000 10.9297 0.0000 49.6832
#
#
#
# Elastic Compliance Matrix: (Units=1/GPa)
#
#
# Indices 1 2 3 4 5 6 
#
# 1 0.014884 -0.002715 0.001330 0.000000 0.006352 0.000000
# 2 -0.002715 0.013700 -0.002949 0.000000 -0.007021 0.000000
# 3 0.001330 -0.002949 0.017756 0.000000 -0.000899 0.000000
# 4 0.000000 0.000000 0.000000 0.022669 0.000000 -0.004987
# 5 0.006352 -0.007021 -0.000899 0.000000 0.066228 0.000000
# 6 0.000000 0.000000 0.000000 -0.004987 0.000000 0.021225
#
#
# Mechanical properties :
#
#
# Convention : Reuss Voigt Hill
#
# Bulk Modulus (GPa) = 26.54506 28.01840 27.28173
# Shear Modulus (GPa) = 28.13956 35.42178 31.78067
#
# Velocity S-wave (km/s) = 3.46984 3.89302 3.68751
# Velocity P-wave (km/s) = 5.23552 5.67410 5.45922
#
# Compressibility (1/GPa) = 0.03767179
#
# Stress axis : x y z
#
# Youngs Moduli (GPa) = 67.18636 72.99289 56.32009
#
# Poissons Ratio (x) = 0.19816 -0.07490
# Poissons Ratio (y) = 0.18240 0.16609
# Poissons Ratio (z) = -0.08936 0.21526
#
# Static dielectric constant tensor:
#      x y z
#    x 1.950330 0.000000 0.055890 
#    y 0.000000 1.947920 0.000000 
#    z 0.055890 0.000000 2.227150 
# 
# From -- ./inp_files/180782.got.cif
#   From: 2010.05.17/outbox.cif.g08.bks.cpg/sg15_91_cif.got.tgz:180782.got - 2010.06.03 18:47:42.
