data_PCOD9291031
_publ_section_title
;
Structure prediction by ZEFSAII (Michael W. Deem and Ramdas Pophale) SiO2 
 PCOD9291031
Probable space group: C 2/C
;
_chemical_formula_sum "Si O2"
_cell_formula_units_Z 60
_cell_length_a 22.920888
_cell_length_b 8.640744
_cell_length_c 18.864598
_cell_angle_alpha 90.000000
_cell_angle_beta 125.337511
_cell_angle_gamma 90.000000
_cell_volume 3047.839254
_symmetry_space_group_name_H-M "C 2/C"
_symmetry_group_IT_number 15
_symmetry_cell_setting 'monoclinic'
loop_
_space_group_symop_operation_xyz
x,y,z
-x,y,1/2-z
-x,-y,-z
x,-y,1/2+z
1/2+x,1/2+y,z
1/2-x,1/2+y,1/2-z
1/2-x,1/2-y,-z
1/2+x,1/2-y,1/2+z
loop_
_atom_site_type_symbol
_atom_site_label
_atom_site_fract_x
_atom_site_fract_y
_atom_site_fract_z
Si Si1 0.244136 0.306372 0.311742
Si Si2 0.396878 0.566207 0.941269
Si Si3 0.915602 0.605966 0.532759
Si Si4 0.832705 0.496115 0.849861
Si Si5 0.450608 0.071484 0.318623
Si Si6 0.500000 0.619010 0.250000
Si Si7 0.876204 0.631279 0.658737
Si Si8 0.505561 0.403692 0.390399
O O1 0.313181 0.417258 0.367847
O O2 0.201834 0.355187 0.211050
O O3 0.273532 0.132200 0.328075
O O4 0.192996 0.335360 0.342772
O O5 0.441305 0.555965 0.899808
O O6 0.417735 0.728745 0.994865
O O7 0.423595 0.432251 0.012732
O O8 0.882721 0.485757 0.453488
O O9 0.866487 0.613371 0.568104
O O10 0.993847 0.557088 0.613990
O O11 0.884204 0.422944 0.826071
O O12 0.491784 0.232370 0.351766
O O13 0.417474 0.016889 0.220999
O O14 0.569292 0.726968 0.293452
O O15 0.505968 0.516723 0.324186
#
# Coordination Sequence:
#
# PCOD9291031 Si02
#       8
#     8   8   8   8   8   4   8   8
#     4  10  23  41  61  91 124 168 203 257 308 376
#     4  10  22  42  63  93 126 159 210 256 316 368
#     4  11  20  41  62  93 117 165 213 248 307 368
#     4  10  23  38  63  89 120 162 208 253 309 365
#     4  11  21  39  64  93 123 161 209 260 297 365
#     4  12  24  40  60 100 122 168 202 252 332 354
#     4  11  23  40  65  87 131 167 209 248 305 386
#     4  11  23  38  64  95 127 157 203 268 304 366
#
# _framework density 19.686077000000001
#
# number of rings (size 3 to 8) (size 9 to 14) (size 15 to 20)
#    0.000    1.333    5.333    0.400    3.733    3.200 
#    0.000    0.000    0.000    2.400    0.000    0.000 
#    0.000    0.000    0.000    0.000    0.000    0.000 
#
# Total GULP energy -167583.320219 kJ/mol
# GULP energy per Si atom -5586.110674 kJ/mol
# Density = 1.964127 g / cm^3
# Si number density = 19.686077 Si / 1000 Ang^3
#
#
#
# Elastic Constant Matrix: (Units=GPa)
#
#
# Indices 1 2 3 4 5 6 
#
# 1 93.5122 5.7951 20.2933 0.0000 -9.4228 0.0000
# 2 5.7951 45.1344 5.2887 0.0000 -7.0226 0.0000
# 3 20.2933 5.2887 69.5398 0.0000 -22.6422 0.0000
# 4 0.0000 0.0000 0.0000 1.8272 0.0000 -21.8115
# 5 -9.4228 -7.0226 -22.6422 0.0000 30.8951 0.0000
# 6 0.0000 0.0000 0.0000 -21.8115 0.0000 2.5488
#
#
#
# Elastic Compliance Matrix: (Units=1/GPa)
#
#
# Indices 1 2 3 4 5 6 
#
# 1 0.011501 -0.000956 -0.002905 0.000000 0.001161 0.000000
# 2 -0.000956 0.023048 0.000180 0.000000 0.005079 0.000000
# 3 -0.002905 0.000180 0.019621 0.000000 0.013535 0.000000
# 4 0.000000 0.000000 0.000000 -0.005411 0.000000 -0.046301
# 5 0.001161 0.005079 0.013535 0.000000 0.043796 0.000000
# 6 0.000000 0.000000 0.000000 -0.046301 0.000000 -0.003879
#
#
# Mechanical properties :
#
#
# Convention : Reuss Voigt Hill
#
# Bulk Modulus (GPa) = 21.36407 30.10450 25.73428
# Shear Modulus (GPa) = 44.78648 18.84150 31.81399
#
# Velocity S-wave (km/s) = 4.77491 3.09706 4.02439
# Velocity P-wave (km/s) = 6.42461 5.30231 5.89025
#
# Compressibility (1/GPa) = 0.04680757
#
# Stress axis : x y z
#
# Youngs Moduli (GPa) = 86.95269 43.38780 50.96489
#
# Poissons Ratio (x) = 0.04146 0.14807
# Poissons Ratio (y) = 0.08309 -0.00916
# Poissons Ratio (z) = 0.25263 -0.00780
#
# Static dielectric constant tensor:
#      x y z
#    x 1.675520 0.000000 -0.000810 
#    y 0.000000 1.704160 0.000000 
#    z -0.000810 0.000000 1.707610 
# 
# From -- ./inp_files/218620.got.cif
#   From: 2010.05.17/outbox.cif.g08.bks.cpg/sg15_110_cif.got.tgz:218620.got - 2010.06.03 18:47:42.
