data_PCOD9291751
_publ_section_title
;
Structure prediction by ZEFSAII (Michael W. Deem and Ramdas Pophale) SiO2 
 PCOD9291751
Probable space group: C 2/C
;
_chemical_formula_sum "Si O2"
_cell_formula_units_Z 60
_cell_length_a 9.106287
_cell_length_b 23.459108
_cell_length_c 15.153728
_cell_angle_alpha 90.000000
_cell_angle_beta 116.031124
_cell_angle_gamma 90.000000
_cell_volume 2908.823431
_symmetry_space_group_name_H-M "C 2/C"
_symmetry_group_IT_number 15
_symmetry_cell_setting 'monoclinic'
loop_
_space_group_symop_operation_xyz
x,y,z
-x,y,1/2-z
-x,-y,-z
x,-y,1/2+z
1/2+x,1/2+y,z
1/2-x,1/2+y,1/2-z
1/2-x,1/2-y,-z
1/2+x,1/2-y,1/2+z
loop_
_atom_site_type_symbol
_atom_site_label
_atom_site_fract_x
_atom_site_fract_y
_atom_site_fract_z
Si Si1 0.171721 0.298601 0.539743
Si Si2 0.810829 0.979577 0.956563
Si Si3 0.137127 0.573562 0.032842
Si Si4 0.763088 0.937313 0.763802
Si Si5 0.750878 0.597511 0.909261
Si Si6 0.500000 0.482064 0.250000
Si Si7 0.671862 0.305094 0.740727
Si Si8 0.295876 0.223707 0.917600
O O1 0.250000 0.250000 0.500000
O O2 0.222954 0.364642 0.538609
O O3 0.200741 0.287854 0.650274
O O4 0.982535 0.295106 0.472612
O O5 0.705601 0.964623 0.840691
O O6 0.812635 0.920559 0.011292
O O7 0.715128 0.026106 0.990550
O O8 0.000000 0.000000 0.000000
O O9 0.167586 0.558196 0.144762
O O10 0.944446 0.582178 0.961439
O O11 0.803653 0.870591 0.780790
O O12 0.930577 0.973299 0.801269
O O13 0.649616 0.557259 0.817318
O O14 0.709669 0.663082 0.879104
O O15 0.500000 0.298893 0.750000
O O16 0.705467 0.266982 0.664266
O O17 0.250000 0.250000 0.000000
#
# Coordination Sequence:
#
# PCOD9291751 Si02
#       8
#     8   8   8   8   8   4   8   8
#     4  10  22  42  70  99 130 182 236 278 334 408
#     4  12  23  39  68 100 130 179 229 273 349 410
#     4  10  24  45  66  94 145 175 222 291 337 409
#     4  11  22  41  69 101 128 175 234 282 329 406
#     4  11  25  45  64  99 145 178 219 288 349 412
#     4  12  22  42  66  98 138 174 220 284 346 394
#     4  11  22  41  74  98 128 179 237 282 329 413
#     4  11  25  45  67 100 143 179 224 288 354 406
#
# _framework density 20.626897
#
# number of rings (size 3 to 8) (size 9 to 14) (size 15 to 20)
#    0.000    1.067    4.667    1.200    1.867    3.200 
#    2.400    4.000    0.000    0.000    0.000    0.000 
#    0.000    0.000    0.000    0.000    0.000    0.000 
#
# Total GULP energy -167223.760150 kJ/mol
# GULP energy per Si atom -5574.125338 kJ/mol
# Density = 2.057995 g / cm^3
# Si number density = 20.626897 Si / 1000 Ang^3
#
#
#
# Elastic Constant Matrix: (Units=GPa)
#
#
# Indices 1 2 3 4 5 6 
#
# 1 54.5643 51.2888 29.1485 0.0000 -8.9584 0.0000
# 2 51.2888 172.6945 98.4090 0.0000 -16.5132 0.0000
# 3 29.1485 98.4090 150.1308 0.0000 -19.3146 0.0000
# 4 0.0000 0.0000 0.0000 24.5906 0.0000 -20.5318
# 5 -8.9584 -16.5132 -19.3146 0.0000 32.8758 0.0000
# 6 0.0000 0.0000 0.0000 -20.5318 0.0000 13.5870
#
#
#
# Elastic Compliance Matrix: (Units=1/GPa)
#
#
# Indices 1 2 3 4 5 6 
#
# 1 0.025782 -0.007546 0.000386 0.000000 0.003462 0.000000
# 2 -0.007546 0.011494 -0.006048 0.000000 0.000164 0.000000
# 3 0.000386 -0.006048 0.011005 0.000000 0.003533 0.000000
# 4 0.000000 0.000000 0.000000 -0.155379 0.000000 -0.234799
# 5 0.003462 0.000164 0.003533 0.000000 0.033519 0.000000
# 6 0.000000 0.000000 0.000000 -0.234799 0.000000 -0.281214
#
#
# Mechanical properties :
#
#
# Convention : Reuss Voigt Hill
#
# Bulk Modulus (GPa) = 45.73543 81.67580 63.70561
# Shear Modulus (GPa) = -15.57194 27.44691 5.93748
#
# Velocity S-wave (km/s) = -2.75059 3.65175 1.69846
# Velocity P-wave (km/s) = 3.48328 7.58044 5.89899
#
# Compressibility (1/GPa) = 0.02186489
#
# Stress axis : x y z
#
# Youngs Moduli (GPa) = 38.78646 87.00470 90.87061
#
# Poissons Ratio (x) = 0.65654 -0.03508
# Poissons Ratio (y) = 0.29268 0.54957
# Poissons Ratio (z) = -0.01497 0.52619
#
# Static dielectric constant tensor:
#      x y z
#    x 1.849990 0.000000 -0.046660 
#    y 0.000000 1.818770 0.000000 
#    z -0.046660 0.000000 1.830780 
# 
# From -- ./inp_files/137892.got.cif
#   From: 2010.05.17/outbox.cif.g08.bks.cpg/sg15_69_cif.got.tgz:137892.got - 2010.06.03 18:47:42.
