data_PCOD9291522
_publ_section_title
;
Structure prediction by ZEFSAII (Michael W. Deem and Ramdas Pophale) SiO2 
 PCOD9291522
Probable space group: C 2/C
;
_chemical_formula_sum "Si O2"
_cell_formula_units_Z 44
_cell_length_a 30.136008
_cell_length_b 7.820594
_cell_length_c 25.563891
_cell_angle_alpha 90.000000
_cell_angle_beta 160.703266
_cell_angle_gamma 90.000000
_cell_volume 1991.003842
_symmetry_space_group_name_H-M "C 2/C"
_symmetry_group_IT_number 15
_symmetry_cell_setting 'monoclinic'
loop_
_space_group_symop_operation_xyz
x,y,z
-x,y,1/2-z
-x,-y,-z
x,-y,1/2+z
1/2+x,1/2+y,z
1/2-x,1/2+y,1/2-z
1/2-x,1/2-y,-z
1/2+x,1/2-y,1/2+z
loop_
_atom_site_type_symbol
_atom_site_label
_atom_site_fract_x
_atom_site_fract_y
_atom_site_fract_z
Si Si1 0.000000 0.180174 0.250000
Si Si2 0.530090 0.694647 0.583502
Si Si3 0.644952 0.357232 0.414648
Si Si4 0.141616 0.340601 0.507003
Si Si5 0.938006 0.216278 0.369108
Si Si6 0.821180 0.266415 0.438067
O O1 0.062837 0.279195 0.368065
O O2 0.115261 0.045726 0.359279
O O3 0.456667 0.766843 0.450472
O O4 0.533564 0.488240 0.593871
O O5 0.683702 0.755490 0.753501
O O6 0.450714 0.750457 0.546377
O O7 0.500000 0.267322 0.250000
O O8 0.750000 0.250000 0.500000
O O9 0.679033 0.362340 0.513585
O O10 0.287197 0.256617 0.680335
O O11 0.174612 0.540225 0.536595
O O12 0.045636 0.301298 0.449968
#
# Coordination Sequence:
#
# PCOD9291522 Si02
#       6
#     4   8   8   8   8   8
#     4  10  26  44  66  90 136 172 206 276 326 378
#     4  10  22  42  68  94 131 171 215 268 322 388
#     4  10  23  41  67  91 125 171 214 261 318 384
#     4  11  25  41  65  98 133 171 215 267 329 384
#     4  10  23  43  65  96 132 171 214 268 328 384
#     4  11  23  40  67  98 126 170 221 266 324 391
#
# _framework density 22.099405999999998
#
# number of rings (size 3 to 8) (size 9 to 14) (size 15 to 20)
#    0.545    1.091    0.000    3.273    6.364    5.818 
#    0.000    0.000    0.000    0.000    0.000    0.000 
#    0.000    0.000    0.000    0.000    0.000    0.000 
#
# Total GULP energy -122906.583343 kJ/mol
# GULP energy per Si atom -5586.662879 kJ/mol
# Density = 2.204911 g / cm^3
# Si number density = 22.099406 Si / 1000 Ang^3
#
#
#
# Elastic Constant Matrix: (Units=GPa)
#
#
# Indices 1 2 3 4 5 6 
#
# 1 71.2819 12.2122 40.8538 -0.0001 -0.8890 -0.0001
# 2 12.2122 36.6571 42.1938 -0.0001 -12.0179 0.0000
# 3 40.8538 42.1938 107.9355 0.0000 -21.2051 0.0000
# 4 -0.0001 -0.0001 0.0000 22.7593 0.0001 -6.6411
# 5 -0.8890 -12.0179 -21.2051 0.0001 43.8101 0.0000
# 6 -0.0001 0.0000 0.0000 -6.6411 0.0000 10.1092
#
#
#
# Elastic Compliance Matrix: (Units=1/GPa)
#
#
# Indices 1 2 3 4 5 6 
#
# 1 0.018500 0.002883 -0.008730 0.000000 -0.003060 0.000000
# 2 0.002883 0.050923 -0.020159 0.000000 0.004270 0.000000
# 3 -0.008730 -0.020159 0.021360 0.000000 0.004631 0.000000
# 4 0.000000 0.000000 0.000000 0.054358 0.000000 0.035710
# 5 -0.003060 0.004270 0.004631 0.000000 0.026177 0.000000
# 6 0.000000 0.000000 0.000000 0.035710 0.000000 0.122379
#
#
# Mechanical properties :
#
#
# Convention : Reuss Voigt Hill
#
# Bulk Modulus (GPa) = 25.79320 45.15489 35.47404
# Shear Modulus (GPa) = 13.94182 23.37671 18.65927
#
# Velocity S-wave (km/s) = 2.51443 3.25591 2.90889
# Velocity P-wave (km/s) = 4.48627 5.88316 5.23155
#
# Compressibility (1/GPa) = 0.03876991
#
# Stress axis : x y z
#
# Youngs Moduli (GPa) = 54.05276 19.63747 46.81733
#
# Poissons Ratio (x) = -0.05661 0.40873
# Poissons Ratio (y) = -0.15582 0.94378
# Poissons Ratio (z) = 0.47190 0.39587
#
# Static dielectric constant tensor:
#      x y z
#    x 1.857970 0.000000 -0.033160 
#    y 0.000000 1.847750 0.000000 
#    z -0.033160 0.000000 1.825320 
# 
# From -- ./inp_files/284477.got.cif
#   From: 2010.05.17/outbox.cif.g08.bks.cpg/sg15_143_cif.got.tgz:284477.got - 2010.06.03 18:47:42.
