data_PCOD9291487
_publ_section_title
;
Structure prediction by ZEFSAII (Michael W. Deem and Ramdas Pophale) SiO2 
 PCOD9291487
Probable space group: C 2/C
;
_chemical_formula_sum "Si O2"
_cell_formula_units_Z 52
_cell_length_a 5.429579
_cell_length_b 30.641156
_cell_length_c 13.908149
_cell_angle_alpha 90.000000
_cell_angle_beta 75.233592
_cell_angle_gamma 90.000000
_cell_volume 2237.458452
_symmetry_space_group_name_H-M "C 2/C"
_symmetry_group_IT_number 15
_symmetry_cell_setting 'monoclinic'
loop_
_space_group_symop_operation_xyz
x,y,z
-x,y,1/2-z
-x,-y,-z
x,-y,1/2+z
1/2+x,1/2+y,z
1/2-x,1/2+y,1/2-z
1/2-x,1/2-y,-z
1/2+x,1/2-y,1/2+z
loop_
_atom_site_type_symbol
_atom_site_label
_atom_site_fract_x
_atom_site_fract_y
_atom_site_fract_z
Si Si1 0.259971 0.280026 0.347920
Si Si2 0.000000 0.352106 0.250000
Si Si3 0.000000 0.499074 0.750000
Si Si4 0.500000 0.155077 0.250000
Si Si5 0.110955 0.903841 0.952284
Si Si6 0.138543 0.930593 0.335428
Si Si7 0.697622 0.079652 0.340222
Si Si8 0.340995 0.695326 0.062016
O O1 0.500000 0.274459 0.250000
O O2 0.103050 0.320584 0.322646
O O3 0.336992 0.290363 0.450770
O O4 0.080800 0.237003 0.380706
O O5 0.218367 0.384509 0.192232
O O6 0.843260 0.531548 0.833718
O O7 0.817492 0.465814 0.713443
O O8 0.717655 0.121532 0.266273
O O9 0.583210 0.183155 0.149006
O O10 0.914380 0.924126 0.896854
O O11 0.411011 0.911569 0.907321
O O12 0.036774 0.852388 0.954143
O O13 0.055138 0.924133 0.060531
O O14 0.000000 0.940980 0.250000
#
# Coordination Sequence:
#
# PCOD9291487 Si02
#       8
#     8   4   4   4   8   8   8   8
#     4  11  23  43  67 102 146 188 251 308 365 432
#     4  11  24  41  68  98 138 192 242 301 364 441
#     4  10  26  46  72 104 140 180 238 302 376 434
#     4   9  20  41  68  96 148 184 242 291 370 429
#     4  11  25  45  73 103 145 190 244 295 368 444
#     4  11  26  45  70  97 142 190 239 304 367 449
#     4  10  25  44  72 106 141 187 236 304 365 439
#     4  10  22  42  68 103 142 193 242 304 363 438
#
# _framework density 23.240656000000001
#
# number of rings (size 3 to 8) (size 9 to 14) (size 15 to 20)
#    0.000    1.538    0.769    2.308   10.769    7.385 
#    0.000    2.308    0.000    0.000    0.000    0.000 
#    0.000    0.000    0.000    0.000    0.000    0.000 
#
# Total GULP energy -145095.136166 kJ/mol
# GULP energy per Si atom -5580.582160 kJ/mol
# Density = 2.318776 g / cm^3
# Si number density = 23.240656 Si / 1000 Ang^3
#
#
#
# Elastic Constant Matrix: (Units=GPa)
#
#
# Indices 1 2 3 4 5 6 
#
# 1 80.5610 11.2023 40.1529 0.0000 -2.3290 0.0000
# 2 11.2023 132.7881 29.6885 0.0000 -0.7509 0.0000
# 3 40.1529 29.6885 153.9628 0.0000 -8.0410 0.0000
# 4 0.0000 0.0000 0.0000 2.6486 0.0000 1.9602
# 5 -2.3290 -0.7509 -8.0410 0.0000 28.6464 0.0000
# 6 0.0000 0.0000 0.0000 1.9602 0.0000 36.7681
#
#
#
# Elastic Compliance Matrix: (Units=1/GPa)
#
#
# Indices 1 2 3 4 5 6 
#
# 1 0.014287 -0.000390 -0.003644 0.000000 0.000128 0.000000
# 2 -0.000390 0.007882 -0.001430 0.000000 -0.000227 0.000000
# 3 -0.003644 -0.001430 0.007818 0.000000 0.001861 0.000000
# 4 0.000000 0.000000 0.000000 0.393066 0.000000 -0.020956
# 5 0.000128 -0.000227 0.001861 0.000000 0.035435 0.000000
# 6 0.000000 0.000000 0.000000 -0.020956 0.000000 0.028315
#
#
# Mechanical properties :
#
#
# Convention : Reuss Voigt Hill
#
# Bulk Modulus (GPa) = 52.46695 58.82215 55.64455
# Shear Modulus (GPa) = 9.91897 32.69716 21.30807
#
# Velocity S-wave (km/s) = 2.06814 3.75493 3.03123
# Velocity P-wave (km/s) = 5.32235 6.64562 6.02045
#
# Compressibility (1/GPa) = 0.01905962
#
# Stress axis : x y z
#
# Youngs Moduli (GPa) = 69.99274 126.86920 127.90325
#
# Poissons Ratio (x) = 0.04946 0.46610
# Poissons Ratio (y) = 0.02728 0.18291
# Poissons Ratio (z) = 0.25507 0.18143
#
# Static dielectric constant tensor:
#      x y z
#    x 1.901310 0.000000 -0.034830 
#    y 0.000000 1.901940 0.000000 
#    z -0.034830 0.000000 1.923640 
# 
# From -- ./inp_files/130748.got.cif
#   From: 2010.05.17/outbox.cif.g08.bks.cpg/sg15_66_cif.got.tgz:130748.got - 2010.06.03 18:47:42.
