data_PCOD9291764
_publ_section_title
;
Structure prediction by ZEFSAII (Michael W. Deem and Ramdas Pophale) SiO2 
 PCOD9291764
Probable space group: C 2/C
;
_chemical_formula_sum "Si O2"
_cell_formula_units_Z 44
_cell_length_a 11.610380
_cell_length_b 24.812220
_cell_length_c 9.806467
_cell_angle_alpha 90.000000
_cell_angle_beta 144.782290
_cell_angle_gamma 90.000000
_cell_volume 1629.157917
_symmetry_space_group_name_H-M "C 2/C"
_symmetry_group_IT_number 15
_symmetry_cell_setting 'monoclinic'
loop_
_space_group_symop_operation_xyz
x,y,z
-x,y,1/2-z
-x,-y,-z
x,-y,1/2+z
1/2+x,1/2+y,z
1/2-x,1/2+y,1/2-z
1/2-x,1/2-y,-z
1/2+x,1/2-y,1/2+z
loop_
_atom_site_type_symbol
_atom_site_label
_atom_site_fract_x
_atom_site_fract_y
_atom_site_fract_z
Si Si1 0.580284 0.078973 0.630445
Si Si2 0.000000 0.859367 0.750000
Si Si3 0.497516 0.382684 0.052721
Si Si4 0.116633 0.307402 0.247924
Si Si5 0.386106 0.740208 0.529522
Si Si6 0.291976 0.480059 0.870837
O O1 0.505919 0.135614 0.614437
O O2 0.397490 0.046042 0.391382
O O3 0.696278 0.035055 0.838460
O O4 0.765849 0.101453 0.715453
O O5 0.942030 0.889243 0.836112
O O6 0.822242 0.825219 0.513434
O O7 0.433436 0.323165 0.039364
O O8 0.370991 0.425952 0.015783
O O9 0.000000 0.276193 0.250000
O O10 0.125525 0.274860 0.119488
O O11 0.631470 0.756622 0.813703
O O12 0.500000 0.500000 0.000000
#
# Coordination Sequence:
#
# PCOD9291764 Si02
#       6
#     8   4   8   8   8   8
#     4   9  19  40  69 109 151 192 258 333 407 490
#     4  10  22  42  72 112 152 188 274 344 408 472
#     4  10  22  42  71 105 152 204 262 337 408 493
#     4  11  25  46  80 111 155 210 272 350 413 493
#     4  12  29  50  72 109 164 216 279 340 423 508
#     4   9  18  37  74 104 151 200 253 319 418 492
#
# _framework density 27.007818
#
# number of rings (size 3 to 8) (size 9 to 14) (size 15 to 20)
#    0.000    1.818    0.000    3.273    6.364    0.727 
#    0.000    0.000   68.000    0.000    0.000    0.000 
#    0.000    0.000    0.000    0.000    0.000    0.000 
#
# Total GULP energy -122553.139075 kJ/mol
# GULP energy per Si atom -5570.597231 kJ/mol
# Density = 2.694635 g / cm^3
# Si number density = 27.007818 Si / 1000 Ang^3
#
#
#
# Elastic Constant Matrix: (Units=GPa)
#
#
# Indices 1 2 3 4 5 6 
#
# 1 184.3749 56.1719 78.4626 0.0000 -6.5426 0.0000
# 2 56.1719 207.5041 55.0623 0.0000 10.7894 0.0000
# 3 78.4626 55.0623 215.8949 0.0000 6.2553 0.0000
# 4 0.0000 0.0000 0.0000 31.6590 0.0000 13.4860
# 5 -6.5426 10.7894 6.2553 0.0000 54.5420 0.0000
# 6 0.0000 0.0000 0.0000 13.4860 0.0000 -19.4736
#
#
#
# Elastic Compliance Matrix: (Units=1/GPa)
#
#
# Indices 1 2 3 4 5 6 
#
# 1 0.006801 -0.001334 -0.002170 0.000000 0.001329 0.000000
# 2 -0.001334 0.005473 -0.000878 0.000000 -0.001142 0.000000
# 3 -0.002170 -0.000878 0.005666 0.000000 -0.000736 0.000000
# 4 0.000000 0.000000 0.000000 0.024391 0.000000 0.016892
# 5 0.001329 -0.001142 -0.000736 0.000000 0.018804 0.000000
# 6 0.000000 0.000000 0.000000 0.016892 0.000000 -0.039654
#
#
# Mechanical properties :
#
#
# Convention : Reuss Voigt Hill
#
# Bulk Modulus (GPa) = 108.98701 109.68527 109.33614
# Shear Modulus (GPa) = 150.13684 41.21727 95.67706
#
# Velocity S-wave (km/s) = 7.46397 3.91080 5.95841
# Velocity P-wave (km/s) = 10.71086 7.81621 9.37592
#
# Compressibility (1/GPa) = 0.00917541
#
# Stress axis : x y z
#
# Youngs Moduli (GPa) = 147.04225 182.72596 176.50221
#
# Poissons Ratio (x) = 0.24381 0.38297
# Poissons Ratio (y) = 0.19620 0.15492
# Poissons Ratio (z) = 0.31905 0.16039
#
# Static dielectric constant tensor:
#      x y z
#    x 2.394710 0.000000 0.064800 
#    y 0.000000 2.143230 0.000000 
#    z 0.064800 0.000000 2.235070 
# 
# From -- ./inp_files/216778.got.cif
#   From: 2010.05.17/outbox.cif.g08.bks.cpg/sg15_109_cif.got.tgz:216778.got - 2010.06.03 18:47:42.
