data_PCOD9291738
_publ_section_title
;
Structure prediction by ZEFSAII (Michael W. Deem and Ramdas Pophale) SiO2 
 PCOD9291738
Probable space group: C 2/C
;
_chemical_formula_sum "Si O2"
_cell_formula_units_Z 40
_cell_length_a 22.681982
_cell_length_b 15.826813
_cell_length_c 8.215011
_cell_angle_alpha 90.000000
_cell_angle_beta 32.329683
_cell_angle_gamma 90.000000
_cell_volume 1577.124742
_symmetry_space_group_name_H-M "C 2/C"
_symmetry_group_IT_number 15
_symmetry_cell_setting 'monoclinic'
loop_
_space_group_symop_operation_xyz
x,y,z
-x,y,1/2-z
-x,-y,-z
x,-y,1/2+z
1/2+x,1/2+y,z
1/2-x,1/2+y,1/2-z
1/2-x,1/2-y,-z
1/2+x,1/2-y,1/2+z
loop_
_atom_site_type_symbol
_atom_site_label
_atom_site_fract_x
_atom_site_fract_y
_atom_site_fract_z
Si Si1 0.230206 0.233242 0.741203
Si Si2 0.000000 0.849877 0.750000
Si Si3 0.363633 0.078880 0.362129
Si Si4 0.855447 0.978481 0.300688
Si Si5 0.500000 0.944788 0.250000
Si Si6 0.122778 0.870404 0.941536
O O1 0.250000 0.250000 0.500000
O O2 0.312011 0.154928 0.583375
O O3 0.279250 0.308783 0.735361
O O4 0.102651 0.209753 0.065763
O O5 0.062331 0.913574 0.481434
O O6 0.263812 0.041500 0.490959
O O7 0.415826 0.008391 0.355511
O O8 0.448082 0.105968 0.021775
O O9 0.867460 0.949408 0.457042
O O10 0.870978 0.078068 0.239658
O O11 0.000000 0.832289 0.250000
#
# Coordination Sequence:
#
# PCOD9291738 Si02
#       6
#     8   4   8   8   4   8
#     4  11  24  46  68 102 140 185 230 293 354 416
#     4  10  22  45  75  90 142 184 236 278 361 412
#     4  10  22  42  70  97 143 179 238 279 361 417
#     4  11  23  45  72 101 136 185 243 285 348 423
#     4  10  22  43  69 104 136 188 224 298 343 430
#     4  12  25  44  74 106 141 184 241 299 348 420
#
# _framework density 25.36261
#
# number of rings (size 3 to 8) (size 9 to 14) (size 15 to 20)
#    0.000    1.200    5.000    1.800    1.400    0.800 
#    3.600    1.000    0.000    0.000    0.000    0.000 
#    0.000    0.000    0.000    0.000    0.000    0.000 
#
# Total GULP energy -111938.272959 kJ/mol
# GULP energy per Si atom -5596.913648 kJ/mol
# Density = 2.530488 g / cm^3
# Si number density = 25.362610 Si / 1000 Ang^3
#
#
#
# Elastic Constant Matrix: (Units=GPa)
#
#
# Indices 1 2 3 4 5 6 
#
# 1 117.1612 40.6275 39.5160 0.0000 -34.0503 0.0000
# 2 40.6275 108.3998 71.1225 0.0000 -29.0213 0.0000
# 3 39.5160 71.1225 139.5882 0.0000 -16.0570 0.0000
# 4 0.0000 0.0000 0.0000 -75.7360 0.0000 49.0764
# 5 -34.0503 -29.0213 -16.0570 0.0000 43.6723 0.0000
# 6 0.0000 0.0000 0.0000 49.0764 0.0000 6.1740
#
#
#
# Elastic Compliance Matrix: (Units=1/GPa)
#
#
# Indices 1 2 3 4 5 6 
#
# 1 0.011818 -0.001108 -0.001885 0.000000 0.007785 0.000000
# 2 -0.001108 0.016291 -0.007143 0.000000 0.007336 0.000000
# 3 -0.001885 -0.007143 0.011091 0.000000 -0.002139 0.000000
# 4 0.000000 0.000000 0.000000 -0.002147 0.000000 0.017064
# 5 0.007785 0.007336 -0.002139 0.000000 0.033056 0.000000
# 6 0.000000 0.000000 0.000000 0.017064 0.000000 0.026333
#
#
# Mechanical properties :
#
#
# Convention : Reuss Voigt Hill
#
# Bulk Modulus (GPa) = 52.83503 74.18679 63.51091
# Shear Modulus (GPa) = 40.64259 9.08094 24.86176
#
# Velocity S-wave (km/s) = 4.00742 1.89426 3.13430
# Velocity P-wave (km/s) = 6.50305 5.83937 6.18012
#
# Compressibility (1/GPa) = 0.01892684
#
# Stress axis : x y z
#
# Youngs Moduli (GPa) = 84.61800 61.38387 90.16211
#
# Poissons Ratio (x) = 0.06801 0.17000
# Poissons Ratio (y) = 0.09376 0.64403
# Poissons Ratio (z) = 0.15955 0.43847
#
# Static dielectric constant tensor:
#      x y z
#    x 2.048870 0.000000 0.117300 
#    y 0.000000 2.009700 0.000000 
#    z 0.117300 0.000000 2.172590 
# 
# From -- ./inp_files/62869.got.cif
#   From: 2010.05.17/outbox.cif.g08.bks.cpg/sg15_32_cif.got.tgz:62869.got - 2010.06.03 18:47:42.
