data_PCOD9291292
_publ_section_title
;
Structure prediction by ZEFSAII (Michael W. Deem and Ramdas Pophale) SiO2 
 PCOD9291292
Probable space group: C 2/C
;
_chemical_formula_sum "Si O2"
_cell_formula_units_Z 56
_cell_length_a 9.273932
_cell_length_b 22.822515
_cell_length_c 14.588267
_cell_angle_alpha 90.000000
_cell_angle_beta 114.186209
_cell_angle_gamma 90.000000
_cell_volume 2816.632006
_symmetry_space_group_name_H-M "C 2/C"
_symmetry_group_IT_number 15
_symmetry_cell_setting 'monoclinic'
loop_
_space_group_symop_operation_xyz
x,y,z
-x,y,1/2-z
-x,-y,-z
x,-y,1/2+z
1/2+x,1/2+y,z
1/2-x,1/2+y,1/2-z
1/2-x,1/2-y,-z
1/2+x,1/2-y,1/2+z
loop_
_atom_site_type_symbol
_atom_site_label
_atom_site_fract_x
_atom_site_fract_y
_atom_site_fract_z
Si Si1 0.677223 0.499881 0.584808
Si Si2 0.334755 0.966386 0.953933
Si Si3 0.672417 0.290902 0.750662
Si Si4 0.917506 0.662860 0.825769
Si Si5 0.066556 0.339194 0.558287
Si Si6 0.839436 0.374589 0.649886
Si Si7 0.176873 0.942510 0.283229
O O1 0.500000 0.500000 0.500000
O O2 0.776816 0.540446 0.542235
O O3 0.753246 0.435064 0.602488
O O4 0.686977 0.525125 0.688672
O O5 0.358002 0.904130 0.913405
O O6 0.215507 0.008516 0.869211
O O7 0.500000 0.000000 0.000000
O O8 0.500000 0.304177 0.750000
O O9 0.666948 0.225088 0.711362
O O10 0.807333 0.296222 0.863290
O O11 0.725736 0.335085 0.683743
O O12 0.801238 0.609858 0.820106
O O13 0.000000 0.649346 0.750000
O O14 0.032104 0.670837 0.942789
O O15 0.905578 0.341946 0.576409
O O16 0.000000 0.386668 0.750000
O O17 0.000000 0.919778 0.250000
#
# Coordination Sequence:
#
# PCOD9291292 Si02
#       7
#     8   8   8   8   8   8   8
#     4  12  25  39  61 101 134 164 210 261 325 381
#     4  12  23  42  68  96 131 173 210 257 327 391
#     4  10  25  44  67  97 127 166 222 272 320 375
#     4  11  25  46  66  95 127 174 221 267 326 380
#     4  11  23  43  70  93 130 176 217 259 324 395
#     4  10  22  42  66  93 129 173 215 255 319 390
#     4  12  25  41  63  97 137 166 213 273 316 382
#
# _framework density 19.881900999999999
#
# number of rings (size 3 to 8) (size 9 to 14) (size 15 to 20)
#    0.000    0.857    4.286    2.571    2.000    5.714 
#    2.571    0.000    0.000    0.000    0.000    0.000 
#    0.000    0.000    0.000    0.000    0.000    0.000 
#
# Total GULP energy -156537.563710 kJ/mol
# GULP energy per Si atom -5590.627275 kJ/mol
# Density = 1.983665 g / cm^3
# Si number density = 19.881901 Si / 1000 Ang^3
#
#
#
# Elastic Constant Matrix: (Units=GPa)
#
#
# Indices 1 2 3 4 5 6 
#
# 1 84.3692 18.6508 28.6061 0.0000 -13.8656 0.0000
# 2 18.6508 91.3409 29.5453 0.0000 8.1575 0.0000
# 3 28.6061 29.5453 108.8486 0.0000 -12.4801 0.0000
# 4 0.0000 0.0000 0.0000 36.3848 0.0000 -1.1976
# 5 -13.8656 8.1575 -12.4801 0.0000 35.5569 0.0000
# 6 0.0000 0.0000 0.0000 -1.1976 0.0000 8.9164
#
#
#
# Elastic Compliance Matrix: (Units=1/GPa)
#
#
# Indices 1 2 3 4 5 6 
#
# 1 0.014098 -0.002568 -0.002407 0.000000 0.005242 0.000000
# 2 -0.002568 0.013060 -0.003468 0.000000 -0.005215 0.000000
# 3 -0.002407 -0.003468 0.011195 0.000000 0.003786 0.000000
# 4 0.000000 0.000000 0.000000 0.027606 0.000000 0.003708
# 5 0.005242 -0.005215 0.003786 0.000000 0.032693 0.000000
# 6 0.000000 0.000000 0.000000 0.003708 0.000000 0.112651
#
#
# Mechanical properties :
#
#
# Convention : Reuss Voigt Hill
#
# Bulk Modulus (GPa) = 46.58345 48.68479 47.63412
# Shear Modulus (GPa) = 21.24539 30.02206 25.63373
#
# Velocity S-wave (km/s) = 3.27246 3.89011 3.59458
# Velocity P-wave (km/s) = 6.14488 6.68711 6.42172
#
# Compressibility (1/GPa) = 0.02146685
#
# Stress axis : x y z
#
# Youngs Moduli (GPa) = 70.93208 76.57051 89.32518
#
# Poissons Ratio (x) = 0.19665 0.21500
# Poissons Ratio (y) = 0.18217 0.30977
# Poissons Ratio (z) = 0.17073 0.26554
#
# Static dielectric constant tensor:
#      x y z
#    x 1.705500 0.000000 -0.006980 
#    y 0.000000 0.887460 0.000000 
#    z -0.006980 0.000000 1.702000 
# 
# From -- ./inp_files/137969.got.cif
#   From: 2010.05.17/outbox.cif.g08.bks.cpg/sg15_69_cif.got.tgz:137969.got - 2010.06.03 18:47:42.
