data_PCOD9291215
_publ_section_title
;
Structure prediction by ZEFSAII (Michael W. Deem and Ramdas Pophale) SiO2 
 PCOD9291215
Probable space group: C 2/C
;
_chemical_formula_sum "Si O2"
_cell_formula_units_Z 60
_cell_length_a 22.553778
_cell_length_b 10.550829
_cell_length_c 15.898512
_cell_angle_alpha 90.000000
_cell_angle_beta 41.463314
_cell_angle_gamma 90.000000
_cell_volume 2505.027091
_symmetry_space_group_name_H-M "C 2/C"
_symmetry_group_IT_number 15
_symmetry_cell_setting 'monoclinic'
loop_
_space_group_symop_operation_xyz
x,y,z
-x,y,1/2-z
-x,-y,-z
x,-y,1/2+z
1/2+x,1/2+y,z
1/2-x,1/2+y,1/2-z
1/2-x,1/2-y,-z
1/2+x,1/2-y,1/2+z
loop_
_atom_site_type_symbol
_atom_site_label
_atom_site_fract_x
_atom_site_fract_y
_atom_site_fract_z
Si Si1 0.163050 0.111140 0.789923
Si Si2 0.516798 0.755117 0.520868
Si Si3 0.154106 0.546925 0.856513
Si Si4 0.395935 0.542871 0.979420
Si Si5 0.234249 0.578802 0.592598
Si Si6 0.000000 0.731518 0.750000
Si Si7 0.074777 0.103378 0.292090
Si Si8 0.837432 0.653894 0.009317
O O1 0.266786 0.141509 0.692315
O O2 0.136317 0.027687 0.900645
O O3 0.143502 0.008041 0.737785
O O4 0.088632 0.221594 0.862510
O O5 0.557144 0.894041 0.476863
O O6 0.566127 0.680496 0.543547
O O7 0.554801 0.682465 0.397625
O O8 0.170689 0.540558 0.738622
O O9 0.173359 0.422792 0.892261
O O10 0.313762 0.524144 0.006122
O O11 0.482238 0.462200 0.863663
O O12 0.191942 0.584611 0.545532
O O13 0.280177 0.714953 0.570038
O O14 0.084669 0.799517 0.706234
O O15 0.055073 0.668424 0.616382
#
# Coordination Sequence:
#
# PCOD9291215 Si02
#       8
#     8   8   8   8   8   4   8   8
#     4   8  18  33  59  92 126 164 221 271 324 405
#     4   9  18  36  60  91 126 167 219 266 332 404
#     4  11  23  39  68 100 136 181 221 278 351 413
#     4   8  15  34  60  87 118 161 212 273 329 384
#     4  10  22  42  65  96 136 169 225 290 327 406
#     4  12  22  38  62  94 136 168 220 298 328 398
#     4   9  17  32  59  90 119 164 215 274 326 375
#     4  11  26  41  65 101 133 179 230 276 352 400
#
# _framework density 23.951839
#
# number of rings (size 3 to 8) (size 9 to 14) (size 15 to 20)
#    0.000    2.400    1.333    2.400    9.333    0.000 
#    0.000    4.667    0.000    3.200    0.000    0.000 
#    0.000    0.000    0.000    0.000    0.000    0.000 
#
# Total GULP energy -167419.277419 kJ/mol
# GULP energy per Si atom -5580.642581 kJ/mol
# Density = 2.389732 g / cm^3
# Si number density = 23.951839 Si / 1000 Ang^3
#
#
#
# Elastic Constant Matrix: (Units=GPa)
#
#
# Indices 1 2 3 4 5 6 
#
# 1 115.9983 43.5397 23.0911 0.0000 4.1458 0.0000
# 2 43.5397 49.0936 27.3379 -0.0001 -3.8218 0.0000
# 3 23.0911 27.3379 76.4066 0.0000 1.6832 0.0000
# 4 0.0000 -0.0001 0.0000 30.0806 0.0000 -2.5138
# 5 4.1458 -3.8218 1.6832 0.0000 43.0111 0.0000
# 6 0.0000 0.0000 0.0000 -2.5138 0.0000 41.0575
#
#
#
# Elastic Compliance Matrix: (Units=1/GPa)
#
#
# Indices 1 2 3 4 5 6 
#
# 1 0.013158 -0.012073 0.000395 0.000000 -0.002356 0.000000
# 2 -0.012073 0.036813 -0.009629 0.000000 0.004812 0.000000
# 3 0.000395 -0.009629 0.016448 0.000000 -0.001537 0.000000
# 4 0.000000 0.000000 0.000000 0.033415 0.000000 0.002046
# 5 -0.002356 0.004812 -0.001537 0.000000 0.023965 0.000000
# 6 0.000000 0.000000 0.000000 0.002046 0.000000 0.024481
#
#
# Mechanical properties :
#
#
# Convention : Reuss Voigt Hill
#
# Bulk Modulus (GPa) = 42.00822 47.71508 44.86165
# Shear Modulus (GPa) = 25.14748 32.66515 28.90632
#
# Velocity S-wave (km/s) = 3.24376 3.69695 3.47775
# Velocity P-wave (km/s) = 5.62192 6.17963 5.90736
#
# Compressibility (1/GPa) = 0.02380487
#
# Stress axis : x y z
#
# Youngs Moduli (GPa) = 76.00010 27.16463 60.79942
#
# Poissons Ratio (x) = 0.32795 -0.02402
# Poissons Ratio (y) = 0.91753 0.58543
# Poissons Ratio (z) = -0.03002 0.26156
#
# Static dielectric constant tensor:
#      x y z
#    x 1.947640 0.000000 -0.004030 
#    y 0.000000 1.995310 0.000000 
#    z -0.004030 0.000000 1.947890 
# 
# From -- ./inp_files/252887.got.cif
#   From: 2010.05.17/outbox.cif.g08.bks.cpg/sg15_127_cif.got.tgz:252887.got - 2010.06.03 18:47:42.
