data_PCOD9291270
_publ_section_title
;
Structure prediction by ZEFSAII (Michael W. Deem and Ramdas Pophale) SiO2 
 PCOD9291270
Probable space group: C 2/C
;
_chemical_formula_sum "Si O2"
_cell_formula_units_Z 44
_cell_length_a 17.574599
_cell_length_b 12.235401
_cell_length_c 10.426392
_cell_angle_alpha 90.000000
_cell_angle_beta 81.662576
_cell_angle_gamma 90.000000
_cell_volume 2218.315536
_symmetry_space_group_name_H-M "C 2/C"
_symmetry_group_IT_number 15
_symmetry_cell_setting 'monoclinic'
loop_
_space_group_symop_operation_xyz
x,y,z
-x,y,1/2-z
-x,-y,-z
x,-y,1/2+z
1/2+x,1/2+y,z
1/2-x,1/2+y,1/2-z
1/2-x,1/2-y,-z
1/2+x,1/2-y,1/2+z
loop_
_atom_site_type_symbol
_atom_site_label
_atom_site_fract_x
_atom_site_fract_y
_atom_site_fract_z
Si Si1 0.500000 0.640198 0.250000
Si Si2 0.874591 0.275514 0.187360
Si Si3 0.220465 0.069344 0.358520
Si Si4 0.841028 0.279808 0.491975
Si Si5 0.187349 0.511936 0.908396
Si Si6 0.419980 0.558153 0.488201
O O1 0.456329 0.713788 0.155448
O O2 0.431722 0.571624 0.331727
O O3 0.804448 0.194292 0.165555
O O4 0.867997 0.297038 0.340209
O O5 0.867696 0.390257 0.119773
O O6 0.279062 0.049105 0.461827
O O7 0.250585 0.008907 0.222123
O O8 0.144500 0.017015 0.437271
O O9 0.750000 0.250000 0.500000
O O10 0.848673 0.392207 0.565659
O O11 0.890473 0.179138 0.535450
O O12 0.500000 0.500000 0.500000
#
# Coordination Sequence:
#
# PCOD9291270 Si02
#       6
#     4   8   8   8   8   8
#     4  10  22  42  66  90 134 172 214 264 344 396
#     4  11  22  40  63  95 126 173 217 273 332 393
#     4  12  23  39  67  97 134 166 221 275 329 392
#     4  11  20  40  65  92 128 170 214 268 334 383
#     4  12  23  41  66  98 130 170 223 278 325 396
#     4  11  22  39  65  96 125 172 216 266 325 400
#
# _framework density 19.834869999999999
#
# number of rings (size 3 to 8) (size 9 to 14) (size 15 to 20)
#    0.000    0.727    7.273    1.636    0.000    0.000 
#    0.000    3.636    0.000    0.000    0.000    0.000 
#    0.000    0.000    0.000    0.000    0.000    0.000 
#
# Total GULP energy -122558.066255 kJ/mol
# GULP energy per Si atom -5570.821193 kJ/mol
# Density = 1.978973 g / cm^3
# Si number density = 19.834870 Si / 1000 Ang^3
#
#
#
# Elastic Constant Matrix: (Units=GPa)
#
#
# Indices 1 2 3 4 5 6 
#
# 1 59.8620 36.6617 16.0531 0.0000 4.7466 0.0000
# 2 36.6617 138.6624 26.8470 0.0000 11.2654 0.0000
# 3 16.0531 26.8470 72.2233 0.0000 -10.8531 0.0000
# 4 0.0000 0.0000 0.0000 37.3166 0.0000 2.5590
# 5 4.7466 11.2654 -10.8531 0.0000 30.7205 0.0000
# 6 0.0000 0.0000 0.0000 2.5590 0.0000 34.6504
#
#
#
# Elastic Compliance Matrix: (Units=1/GPa)
#
#
# Indices 1 2 3 4 5 6 
#
# 1 0.020610 -0.004601 -0.003269 0.000000 -0.002652 0.000000
# 2 -0.004601 0.009316 -0.003007 0.000000 -0.003768 0.000000
# 3 -0.003269 -0.003007 0.016825 0.000000 0.007552 0.000000
# 4 0.000000 0.000000 0.000000 0.026934 0.000000 -0.001989
# 5 -0.002652 -0.003768 0.007552 0.000000 0.037011 0.000000
# 6 0.000000 0.000000 0.000000 -0.001989 0.000000 0.029007
#
#
# Mechanical properties :
#
#
# Convention : Reuss Voigt Hill
#
# Bulk Modulus (GPa) = 40.00347 47.76348 43.88347
# Shear Modulus (GPa) = 29.44830 33.28320 31.36575
#
# Velocity S-wave (km/s) = 3.85733 4.10080 3.98093
# Velocity P-wave (km/s) = 6.32856 6.82312 6.58049
#
# Compressibility (1/GPa) = 0.02499783
#
# Stress axis : x y z
#
# Youngs Moduli (GPa) = 48.52078 107.33756 59.43494
#
# Poissons Ratio (x) = 0.49382 0.19431
# Poissons Ratio (y) = 0.22323 0.17870
# Poissons Ratio (z) = 0.15863 0.32273
#
# Static dielectric constant tensor:
#      x y z
#    x 1.775120 0.000000 0.022090 
#    y 0.000000 1.751420 0.000000 
#    z 0.022090 0.000000 1.756620 
# 
# From -- ./inp_files/54407.got.cif
#   From: 2010.05.17/outbox.cif.g08.bks.cpg/sg15_28_cif.got.tgz:54407.got - 2010.06.03 18:47:42.
