data_PCOD9291248
_publ_section_title
;
Structure prediction by ZEFSAII (Michael W. Deem and Ramdas Pophale) SiO2 
 PCOD9291248
Probable space group: C 2/C
;
_chemical_formula_sum "Si O2"
_cell_formula_units_Z 60
_cell_length_a 9.128752
_cell_length_b 22.703713
_cell_length_c 20.429580
_cell_angle_alpha 90.000000
_cell_angle_beta 141.337985
_cell_angle_gamma 90.000000
_cell_volume 2645.188988
_symmetry_space_group_name_H-M "C 2/C"
_symmetry_group_IT_number 15
_symmetry_cell_setting 'monoclinic'
loop_
_space_group_symop_operation_xyz
x,y,z
-x,y,1/2-z
-x,-y,-z
x,-y,1/2+z
1/2+x,1/2+y,z
1/2-x,1/2+y,1/2-z
1/2-x,1/2-y,-z
1/2+x,1/2-y,1/2+z
loop_
_atom_site_type_symbol
_atom_site_label
_atom_site_fract_x
_atom_site_fract_y
_atom_site_fract_z
Si Si1 0.520787 0.426772 0.091238
Si Si2 0.524762 0.655477 0.473212
Si Si3 0.777768 0.964078 0.771212
Si Si4 0.189875 0.129099 0.391550
Si Si5 0.000000 0.371117 0.750000
Si Si6 0.556390 0.690648 0.849106
Si Si7 0.495475 0.962709 0.562024
Si Si8 0.573828 0.768179 0.578483
O O1 0.673922 0.484355 0.161014
O O2 0.524010 0.372161 0.145484
O O3 0.560007 0.399672 0.033627
O O4 0.261018 0.452929 0.001676
O O5 0.685511 0.647369 0.465912
O O6 0.245431 0.659750 0.355979
O O7 0.590948 0.711372 0.538539
O O8 0.583704 0.915916 0.723109
O O9 0.670307 0.995257 0.671535
O O10 0.992564 0.922183 0.824960
O O11 0.397523 0.097951 0.425185
O O12 0.205461 0.190746 0.359363
O O13 0.500000 0.692388 0.750000
O O14 0.439905 0.744322 0.851346
O O15 0.829461 0.701495 0.966735
O O16 0.500000 0.000000 0.500000
#
# Coordination Sequence:
#
# PCOD9291248 Si02
#       8
#     8   8   8   8   4   8   8   8
#     4  11  23  43  70  97 144 178 235 286 355 429
#     4  10  23  43  69  98 137 182 234 290 353 415
#     4  11  25  41  67 104 136 181 229 288 354 419
#     4  11  23  41  68  98 138 175 232 289 349 409
#     4  10  22  42  66 104 130 180 232 280 346 422
#     4  10  23  41  68 101 135 183 230 280 354 419
#     4  12  24  41  64 100 137 180 225 289 348 418
#     4  10  22  44  68 101 137 179 234 292 342 417
#
# _framework density 22.682687999999999
#
# number of rings (size 3 to 8) (size 9 to 14) (size 15 to 20)
#    0.000    1.333    4.000    0.800    2.800    3.200 
#    4.800    0.000    0.000    1.600    0.000    0.000 
#    0.000    0.000    0.000    0.000    0.000    0.000 
#
# Total GULP energy -167169.187404 kJ/mol
# GULP energy per Si atom -5572.306247 kJ/mol
# Density = 2.263106 g / cm^3
# Si number density = 22.682688 Si / 1000 Ang^3
#
#
#
# Elastic Constant Matrix: (Units=GPa)
#
#
# Indices 1 2 3 4 5 6 
#
# 1 69.5684 3.5330 20.4099 -0.0002 -19.9342 0.0000
# 2 3.5330 71.4194 33.2692 0.0001 -10.7439 0.0000
# 3 20.4099 33.2692 75.2583 -0.0003 -26.0103 0.0000
# 4 -0.0002 0.0001 -0.0003 -67.5238 -0.0002 -8.6301
# 5 -19.9342 -10.7439 -26.0103 -0.0002 22.3238 0.0000
# 6 0.0000 0.0000 0.0000 -8.6301 0.0000 27.6196
#
#
#
# Elastic Compliance Matrix: (Units=1/GPa)
#
#
# Indices 1 2 3 4 5 6 
#
# 1 0.019534 0.001641 0.000466 0.000000 0.018777 0.000000
# 2 0.001641 0.017784 -0.008107 0.000000 0.000579 0.000000
# 3 0.000466 -0.008107 0.026017 0.000000 0.026828 0.000000
# 4 0.000000 0.000000 0.000000 -0.014241 0.000000 -0.004450
# 5 0.018777 0.000579 0.026828 0.000000 0.093099 0.000000
# 6 0.000000 0.000000 0.000000 -0.004450 0.000000 0.034816
#
#
# Mechanical properties :
#
#
# Convention : Reuss Voigt Hill
#
# Bulk Modulus (GPa) = 19.47918 36.74113 28.11016
# Shear Modulus (GPa) = 24.25766 7.08619 15.67193
#
# Velocity S-wave (km/s) = 3.27377 1.76942 2.63139
# Velocity P-wave (km/s) = 4.78502 4.51746 4.65317
#
# Compressibility (1/GPa) = 0.05133686
#
# Stress axis : x y z
#
# Youngs Moduli (GPa) = 51.19157 56.23027 38.43643
#
# Poissons Ratio (x) = -0.09228 -0.01792
# Poissons Ratio (y) = -0.08401 0.31159
# Poissons Ratio (z) = -0.02387 0.45584
#
# Static dielectric constant tensor:
#      x y z
#    x 1.860050 0.000000 -0.023230 
#    y 0.000000 1.789000 0.000000 
#    z -0.023230 0.000000 1.925480 
# 
# From -- ./inp_files/234565.got.cif
#   From: 2010.05.17/outbox.cif.g08.bks.cpg/sg15_118_cif.got.tgz:234565.got - 2010.06.03 18:47:42.
