data_PCOD9291314
_publ_section_title
;
Structure prediction by ZEFSAII (Michael W. Deem and Ramdas Pophale) SiO2 
 PCOD9291314
Probable space group: C 2/C
;
_chemical_formula_sum "Si O2"
_cell_formula_units_Z 44
_cell_length_a 12.426455
_cell_length_b 17.977882
_cell_length_c 13.784007
_cell_angle_alpha 90.000000
_cell_angle_beta 41.893352
_cell_angle_gamma 90.000000
_cell_volume 2056.234682
_symmetry_space_group_name_H-M "C 2/C"
_symmetry_group_IT_number 15
_symmetry_cell_setting 'monoclinic'
loop_
_space_group_symop_operation_xyz
x,y,z
-x,y,1/2-z
-x,-y,-z
x,-y,1/2+z
1/2+x,1/2+y,z
1/2-x,1/2+y,1/2-z
1/2-x,1/2-y,-z
1/2+x,1/2-y,1/2+z
loop_
_atom_site_type_symbol
_atom_site_label
_atom_site_fract_x
_atom_site_fract_y
_atom_site_fract_z
Si Si1 0.958148 0.398764 0.454552
Si Si2 0.000000 0.285477 0.250000
Si Si3 0.500000 0.277459 0.250000
Si Si4 0.369195 0.353633 0.722713
Si Si5 0.000000 0.974224 0.750000
Si Si6 0.834046 0.443585 0.014478
Si Si7 0.710679 0.663985 0.442235
O O1 0.798597 0.384523 0.624376
O O2 0.949059 0.484606 0.426105
O O3 0.950798 0.341639 0.369953
O O4 0.102760 0.395325 0.436354
O O5 0.106878 0.225338 0.239031
O O6 0.439565 0.320272 0.385523
O O7 0.339210 0.229817 0.338182
O O8 0.505896 0.414147 0.658890
O O9 0.359692 0.351984 0.614787
O O10 0.843358 0.024143 0.846243
O O11 0.815574 0.396981 0.929114
#
# Coordination Sequence:
#
# PCOD9291314 Si02
#       7
#     8   4   4   8   4   8   8
#     4  10  23  42  65  97 129 175 222 269 330 393
#     4  11  24  41  65  96 129 174 220 268 329 398
#     4  10  25  39  61 101 130 170 224 260 338 391
#     4  10  23  41  66  93 137 170 217 277 322 393
#     4   9  21  44  62  99 129 172 222 266 329 389
#     4  10  22  42  66  94 133 170 221 273 327 395
#     4  11  23  42  66  96 133 174 215 277 328 396
#
# _framework density 21.398334999999999
#
# number of rings (size 3 to 8) (size 9 to 14) (size 15 to 20)
#    0.000    1.818    0.000    2.182    7.636    5.818 
#    0.000    0.000    0.000    0.000    0.000    0.000 
#    0.000    0.000    0.000    0.000    0.000    0.000 
#
# Total GULP energy -122644.818443 kJ/mol
# GULP energy per Si atom -5574.764475 kJ/mol
# Density = 2.134963 g / cm^3
# Si number density = 21.398335 Si / 1000 Ang^3
#
#
#
# Elastic Constant Matrix: (Units=GPa)
#
#
# Indices 1 2 3 4 5 6 
#
# 1 136.9701 46.4331 58.1020 0.0012 37.1124 0.0012
# 2 46.4331 86.2144 46.7083 -0.0011 20.2064 -0.0016
# 3 58.1020 46.7083 114.3747 0.0001 21.9226 -0.0001
# 4 0.0012 -0.0011 0.0001 -189.2467 -0.0001 -248.8938
# 5 37.1124 20.2064 21.9226 -0.0001 43.8312 0.0009
# 6 0.0012 -0.0016 -0.0001 -248.8938 0.0009 -264.8791
#
#
#
# Elastic Compliance Matrix: (Units=1/GPa)
#
#
# Indices 1 2 3 4 5 6 
#
# 1 0.011527 -0.002763 -0.003429 0.000000 -0.006771 0.000000
# 2 -0.002763 0.016301 -0.004713 0.000000 -0.002818 0.000000
# 3 -0.003429 -0.004713 0.012650 0.000000 -0.001250 0.000000
# 4 0.000000 0.000000 0.000000 0.022408 0.000001 -0.021056
# 5 -0.006771 -0.002818 -0.001250 0.000001 0.030472 -0.000001
# 6 0.000000 0.000000 0.000000 -0.021056 -0.000001 0.016010
#
#
# Mechanical properties :
#
#
# Convention : Reuss Voigt Hill
#
# Bulk Modulus (GPa) = 53.57318 71.11624 62.34471
# Shear Modulus (GPa) = 36.38959 -69.63788 -16.62414
#
# Velocity S-wave (km/s) = 4.12828 -5.71089 -2.79030
# Velocity P-wave (km/s) = 6.91478 3.19046 4.33792
#
# Compressibility (1/GPa) = 0.01866605
#
# Stress axis : x y z
#
# Youngs Moduli (GPa) = 86.75328 61.34547 79.05290
#
# Poissons Ratio (x) = 0.16952 0.27110
# Poissons Ratio (y) = 0.23972 0.37259
# Poissons Ratio (z) = 0.29751 0.28913
#
# Static dielectric constant tensor:
#      x y z
#    x 2.081420 0.000000 0.088870 
#    y 0.000000 1.863780 0.000000 
#    z 0.088870 0.000000 1.766590 
# 
# From -- ./inp_files/87212.got.cif
#   From: 2010.05.17/outbox.cif.g08.bks.cpg/sg15_44_cif.got.tgz:87212.got - 2010.06.03 18:47:42.
