data_PCOD9291891
_publ_section_title
;
Structure prediction by ZEFSAII (Michael W. Deem and Ramdas Pophale) SiO2 
 PCOD9291891
Probable space group: C 2/C
;
_chemical_formula_sum "Si O2"
_cell_formula_units_Z 44
_cell_length_a 8.013328
_cell_length_b 27.158657
_cell_length_c 10.138818
_cell_angle_alpha 90.000000
_cell_angle_beta 121.399442
_cell_angle_gamma 90.000000
_cell_volume 1883.391001
_symmetry_space_group_name_H-M "C 2/C"
_symmetry_group_IT_number 15
_symmetry_cell_setting 'monoclinic'
loop_
_space_group_symop_operation_xyz
x,y,z
-x,y,1/2-z
-x,-y,-z
x,-y,1/2+z
1/2+x,1/2+y,z
1/2-x,1/2+y,1/2-z
1/2-x,1/2-y,-z
1/2+x,1/2-y,1/2+z
loop_
_atom_site_type_symbol
_atom_site_label
_atom_site_fract_x
_atom_site_fract_y
_atom_site_fract_z
Si Si1 0.330419 0.367624 0.286320
Si Si2 0.000000 0.471551 0.750000
Si Si3 0.678479 0.537256 0.565097
Si Si4 0.209270 0.306635 0.663553
Si Si5 0.970479 0.218915 0.016275
Si Si6 0.958048 0.590018 0.479923
O O1 0.500000 0.367270 0.250000
O O2 0.387215 0.409995 0.412156
O O3 0.347549 0.315946 0.367079
O O4 0.121386 0.385075 0.142142
O O5 0.829460 0.508586 0.721233
O O6 0.055829 0.438143 0.897329
O O7 0.500000 0.500000 0.500000
O O8 0.809536 0.552257 0.491852
O O9 0.025299 0.271863 0.552824
O O10 0.314789 0.297557 0.846665
O O11 0.350026 0.287689 0.603061
O O12 0.163989 0.363793 0.626083
#
# Coordination Sequence:
#
# PCOD9291891 Si02
#       6
#     8   4   8   8   8   8
#     4  12  26  46  70 106 144 194 241 304 366 432
#     4  12  28  46  68 106 144 192 242 294 370 430
#     4  12  27  46  74 101 143 191 245 303 365 430
#     4  10  22  42  76 102 143 187 236 297 360 439
#     4  10  22  43  70 110 140 187 238 292 365 434
#     4  12  26  48  72 105 145 189 245 301 366 437
#
# _framework density 23.362116
#
# number of rings (size 3 to 8) (size 9 to 14) (size 15 to 20)
#    0.000    0.727    3.636    2.727    7.636    1.455 
#    1.636    1.818    0.000    0.000    0.000    0.000 
#    0.000    0.000    0.000    0.000    0.000    0.000 
#
# Total GULP energy -122771.435791 kJ/mol
# GULP energy per Si atom -5580.519809 kJ/mol
# Density = 2.330894 g / cm^3
# Si number density = 23.362116 Si / 1000 Ang^3
#
#
#
# Elastic Constant Matrix: (Units=GPa)
#
#
# Indices 1 2 3 4 5 6 
#
# 1 63.9033 14.3295 41.2260 0.0000 -4.4038 0.0000
# 2 14.3295 104.6735 14.4624 0.0000 -2.3338 0.0000
# 3 41.2260 14.4624 55.5087 0.0000 9.1109 0.0000
# 4 0.0000 0.0000 0.0000 23.0241 0.0000 11.6187
# 5 -4.4038 -2.3338 9.1109 0.0000 34.7585 0.0000
# 6 0.0000 0.0000 0.0000 11.6187 0.0000 12.4297
#
#
#
# Elastic Compliance Matrix: (Units=1/GPa)
#
#
# Indices 1 2 3 4 5 6 
#
# 1 0.033906 -0.000679 -0.026858 0.000000 0.011290 0.000000
# 2 -0.000679 0.009990 -0.002293 0.000000 0.001186 0.000000
# 3 -0.026858 -0.002293 0.040903 0.000000 -0.014278 0.000000
# 4 0.000000 0.000000 0.000000 0.082214 0.000000 -0.076850
# 5 0.011290 0.001186 -0.014278 0.000000 0.034023 0.000000
# 6 0.000000 0.000000 0.000000 -0.076850 0.000000 0.152289
#
#
# Mechanical properties :
#
#
# Convention : Reuss Voigt Hill
#
# Bulk Modulus (GPa) = 39.77876 40.45793 40.11834
# Shear Modulus (GPa) = 11.86623 24.31363 18.08993
#
# Velocity S-wave (km/s) = 2.25617 3.22953 2.78569
# Velocity P-wave (km/s) = 4.88375 5.59123 5.24942
#
# Compressibility (1/GPa) = 0.02513904
#
# Stress axis : x y z
#
# Youngs Moduli (GPa) = 29.49356 100.10275 24.44788
#
# Poissons Ratio (x) = 0.06797 0.65662
# Poissons Ratio (y) = 0.02003 0.05606
# Poissons Ratio (z) = 0.79213 0.22954
#
# Static dielectric constant tensor:
#      x y z
#    x 2.115890 0.000000 0.077110 
#    y 0.000000 1.885310 0.000000 
#    z 0.077110 0.000000 2.108300 
# 
# From -- ./inp_files/26007.got.cif
#   From: 2010.05.17/outbox.cif.g08.bks.cpg/sg15_14_cif.got.tgz:26007.got - 2010.06.03 18:47:42.
