data_PCOD9291116
_publ_section_title
;
Structure prediction by ZEFSAII (Michael W. Deem and Ramdas Pophale) SiO2 
 PCOD9291116
Probable space group: C 2/C
;
_chemical_formula_sum "Si O2"
_cell_formula_units_Z 48
_cell_length_a 11.514622
_cell_length_b 8.974430
_cell_length_c 21.213873
_cell_angle_alpha 90.000000
_cell_angle_beta 108.107110
_cell_angle_gamma 90.000000
_cell_volume 2083.618549
_symmetry_space_group_name_H-M "C 2/C"
_symmetry_group_IT_number 15
_symmetry_cell_setting 'monoclinic'
loop_
_space_group_symop_operation_xyz
x,y,z
-x,y,1/2-z
-x,-y,-z
x,-y,1/2+z
1/2+x,1/2+y,z
1/2-x,1/2+y,1/2-z
1/2-x,1/2-y,-z
1/2+x,1/2-y,1/2+z
loop_
_atom_site_type_symbol
_atom_site_label
_atom_site_fract_x
_atom_site_fract_y
_atom_site_fract_z
Si Si1 0.725814 0.932382 0.785151
Si Si2 0.644651 0.795799 0.529738
Si Si3 0.489875 0.468280 0.675034
Si Si4 0.390558 0.143293 0.979472
Si Si5 0.137486 0.736626 0.389577
Si Si6 0.771970 0.244431 0.172630
O O1 0.693577 0.106007 0.784765
O O2 0.873343 0.921795 0.821325
O O3 0.649071 0.846178 0.825117
O O4 0.709591 0.864551 0.712978
O O5 0.750000 0.750000 0.500000
O O6 0.511997 0.772324 0.477194
O O7 0.679450 0.717404 0.600829
O O8 0.636782 0.972800 0.542500
O O9 0.500000 0.518350 0.750000
O O10 0.434880 0.608472 0.628744
O O11 0.389441 0.336723 0.661931
O O12 0.409119 0.143436 0.058593
O O13 0.275008 0.229908 0.934912
#
# Coordination Sequence:
#
# PCOD9291116 Si02
#       6
#     8   8   8   8   8   8
#     4  11  24  42  68  95 131 174 216 277 340 386
#     4  11  23  43  65  96 134 172 223 274 324 396
#     4  10  22  42  64  95 132 171 220 274 328 397
#     4  10  24  39  65  97 130 177 220 266 330 392
#     4  11  22  43  65  96 136 173 219 272 330 399
#     4  11  23  43  67  98 129 171 224 272 330 398
#
# _framework density 23.036847999999999
#
# number of rings (size 3 to 8) (size 9 to 14) (size 15 to 20)
#    0.000    1.333    1.667    4.000    2.333    0.000 
#    0.000   13.333    0.000    0.000    0.000    0.000 
#    0.000    0.000    0.000    0.000    0.000    0.000 
#
# Total GULP energy -134134.083833 kJ/mol
# GULP energy per Si atom -5588.920160 kJ/mol
# Density = 2.298441 g / cm^3
# Si number density = 23.036848 Si / 1000 Ang^3
#
#
#
# Elastic Constant Matrix: (Units=GPa)
#
#
# Indices 1 2 3 4 5 6 
#
# 1 107.7502 17.0029 11.0070 0.0000 -3.9220 0.0000
# 2 17.0029 65.0299 4.1976 0.0000 -9.9797 0.0000
# 3 11.0070 4.1976 72.3021 0.0000 -8.3767 0.0000
# 4 0.0000 0.0000 0.0000 24.8804 0.0000 1.1547
# 5 -3.9220 -9.9797 -8.3767 0.0000 29.2136 0.0000
# 6 0.0000 0.0000 0.0000 1.1547 0.0000 24.2543
#
#
#
# Elastic Compliance Matrix: (Units=1/GPa)
#
#
# Indices 1 2 3 4 5 6 
#
# 1 0.009810 -0.002464 -0.001340 0.000000 0.000091 0.000000
# 2 -0.002464 0.016854 0.000026 0.000000 0.005434 0.000000
# 3 -0.001340 0.000026 0.014495 0.000000 0.003985 0.000000
# 4 0.000000 0.000000 0.000000 0.040281 0.000000 -0.001918
# 5 0.000091 0.005434 0.003985 0.000000 0.037242 0.000000
# 6 0.000000 0.000000 0.000000 -0.001918 0.000000 0.041321
#
#
# Mechanical properties :
#
#
# Convention : Reuss Voigt Hill
#
# Bulk Modulus (GPa) = 29.75920 34.38856 32.07388
# Shear Modulus (GPa) = 27.97043 29.86132 28.91588
#
# Velocity S-wave (km/s) = 3.48826 3.60424 3.54673
# Velocity P-wave (km/s) = 5.40093 5.68162 5.54305
#
# Compressibility (1/GPa) = 0.03360305
#
# Stress axis : x y z
#
# Youngs Moduli (GPa) = 101.93898 59.33256 68.98914
#
# Poissons Ratio (x) = 0.14622 0.09243
# Poissons Ratio (y) = 0.25122 -0.00181
# Poissons Ratio (z) = 0.13658 -0.00156
#
# Static dielectric constant tensor:
#      x y z
#    x 1.994440 0.000000 0.004390 
#    y 0.000000 1.828280 0.000000 
#    z 0.004390 0.000000 1.841900 
# 
# From -- ./inp_files/268088.got.cif
#   From: 2010.05.17/outbox.cif.g08.bks.cpg/sg15_135_cif.got.tgz:268088.got - 2010.06.03 18:47:42.
