data_PCOD9291286
_publ_section_title
;
Structure prediction by ZEFSAII (Michael W. Deem and Ramdas Pophale) SiO2 
 PCOD9291286
Probable space group: C 2/C
;
_chemical_formula_sum "Si O2"
_cell_formula_units_Z 32
_cell_length_a 10.328893
_cell_length_b 9.898439
_cell_length_c 13.547853
_cell_angle_alpha 90.000000
_cell_angle_beta 78.534185
_cell_angle_gamma 90.000000
_cell_volume 1357.488970
_symmetry_space_group_name_H-M "C 2/C"
_symmetry_group_IT_number 15
_symmetry_cell_setting 'monoclinic'
loop_
_space_group_symop_operation_xyz
x,y,z
-x,y,1/2-z
-x,-y,-z
x,-y,1/2+z
1/2+x,1/2+y,z
1/2-x,1/2+y,1/2-z
1/2-x,1/2-y,-z
1/2+x,1/2-y,1/2+z
loop_
_atom_site_type_symbol
_atom_site_label
_atom_site_fract_x
_atom_site_fract_y
_atom_site_fract_z
Si Si1 0.176343 0.453101 0.808989
Si Si2 0.640799 0.241714 0.770601
Si Si3 0.113306 0.110553 0.483486
Si Si4 0.100172 0.386057 0.596373
O O1 0.288768 0.344180 0.816052
O O2 0.221593 0.606105 0.783275
O O3 0.132745 0.399356 0.707181
O O4 0.044008 0.451306 0.894211
O O5 0.500000 0.195389 0.750000
O O6 0.612874 0.319343 0.876229
O O7 0.089120 0.230932 0.564219
O O8 0.264874 0.059028 0.475039
O O9 0.000000 0.000000 0.500000
#
# Coordination Sequence:
#
# PCOD9291286 Si02
#       4
#     8   8   8   8
#     4  10  22  42  66  92 130 171 215 267 319 377
#     4  11  24  42  64  99 127 167 222 259 323 388
#     4  10  23  40  65 100 128 170 217 261 326 382
#     4   9  20  41  65  88 134 164 213 266 317 373
#
# _framework density 23.572937
#
# number of rings (size 3 to 8) (size 9 to 14) (size 15 to 20)
#    0.000    2.000    2.500    0.000    7.000    7.000 
#    0.000    2.500    0.000    0.000    0.000    0.000 
#    0.000    0.000    0.000    0.000    0.000    0.000 
#
# Total GULP energy -89343.470108 kJ/mol
# GULP energy per Si atom -5583.966882 kJ/mol
# Density = 2.351928 g / cm^3
# Si number density = 23.572937 Si / 1000 Ang^3
#
#
#
# Elastic Constant Matrix: (Units=GPa)
#
#
# Indices 1 2 3 4 5 6 
#
# 1 98.7631 70.3743 12.2768 0.0000 -16.4547 0.0000
# 2 70.3743 151.4153 40.8972 0.0000 -43.5925 0.0000
# 3 12.2768 40.8972 75.7428 0.0000 -9.0006 0.0000
# 4 0.0000 0.0000 0.0000 29.7312 0.0000 -4.3451
# 5 -16.4547 -43.5925 -9.0006 0.0000 29.2901 0.0000
# 6 0.0000 0.0000 0.0000 -4.3451 0.0000 52.1164
#
#
#
# Elastic Compliance Matrix: (Units=1/GPa)
#
#
# Indices 1 2 3 4 5 6 
#
# 1 0.015541 -0.008806 0.001781 0.000000 -0.003829 0.000000
# 2 -0.008806 0.018118 -0.005957 0.000000 0.020188 0.000000
# 3 0.001781 -0.005957 0.015772 0.000000 -0.003018 0.000000
# 4 0.000000 0.000000 0.000000 0.034050 0.000000 0.002839
# 5 -0.003829 0.020188 -0.003018 0.000000 0.061108 0.000000
# 6 0.000000 0.000000 0.000000 0.002839 0.000000 0.019424
#
#
# Mechanical properties :
#
#
# Convention : Reuss Voigt Hill
#
# Bulk Modulus (GPa) = 42.61318 63.66864 53.14091
# Shear Modulus (GPa) = 25.27810 35.71906 30.49858
#
# Velocity S-wave (km/s) = 3.27821 3.89685 3.60084
# Velocity P-wave (km/s) = 5.69607 6.87860 6.31508
#
# Compressibility (1/GPa) = 0.02346692
#
# Stress axis : x y z
#
# Youngs Moduli (GPa) = 64.34562 55.19270 63.40546
#
# Poissons Ratio (x) = 0.48605 -0.11293
# Poissons Ratio (y) = 0.56666 0.37768
# Poissons Ratio (z) = -0.11461 0.32876
#
# Static dielectric constant tensor:
#      x y z
#    x 2.015810 0.000000 -0.010980 
#    y 0.000000 1.876330 0.000000 
#    z -0.010980 0.000000 1.927520 
# 
# From -- ./inp_files/140687.got.cif
#   From: 2010.05.17/outbox.cif.g08.bks.cpg/sg15_71_cif.got.tgz:140687.got - 2010.06.03 18:47:42.
