data_PCOD9291351
_publ_section_title
;
Structure prediction by ZEFSAII (Michael W. Deem and Ramdas Pophale) SiO2 
 PCOD9291351
Probable space group: C 2/C
;
_chemical_formula_sum "Si O2"
_cell_formula_units_Z 52
_cell_length_a 16.867182
_cell_length_b 14.587648
_cell_length_c 12.855650
_cell_angle_alpha 90.000000
_cell_angle_beta 129.173254
_cell_angle_gamma 90.000000
_cell_volume 2452.210260
_symmetry_space_group_name_H-M "C 2/C"
_symmetry_group_IT_number 15
_symmetry_cell_setting 'monoclinic'
loop_
_space_group_symop_operation_xyz
x,y,z
-x,y,1/2-z
-x,-y,-z
x,-y,1/2+z
1/2+x,1/2+y,z
1/2-x,1/2+y,1/2-z
1/2-x,1/2-y,-z
1/2+x,1/2-y,1/2+z
loop_
_atom_site_type_symbol
_atom_site_label
_atom_site_fract_x
_atom_site_fract_y
_atom_site_fract_z
Si Si1 0.581082 0.034597 0.153084
Si Si2 0.500000 0.819617 0.750000
Si Si3 0.650620 0.312165 0.888090
Si Si4 0.691206 0.425577 0.719534
Si Si5 0.872045 0.337687 0.282519
Si Si6 0.435167 0.279186 0.015088
Si Si7 0.635676 0.371674 0.104343
O O1 0.548363 0.113306 0.204811
O O2 0.686965 0.065681 0.188791
O O3 0.607203 0.940445 0.236075
O O4 0.500000 0.000000 0.000000
O O5 0.577776 0.754828 0.878221
O O6 0.669592 0.391502 0.818769
O O7 0.593100 0.235942 0.772675
O O8 0.750000 0.250000 0.000000
O O9 0.609401 0.356006 0.960184
O O10 0.643920 0.351705 0.599678
O O11 0.643181 0.523360 0.647892
O O12 0.927671 0.308851 0.433941
O O13 0.750710 0.331820 0.208089
O O14 0.548559 0.320799 0.096682
#
# Coordination Sequence:
#
# PCOD9291351 Si02
#       7
#     8   4   8   8   8   8   8
#     4  11  24  44  66  95 139 168 234 277 341 404
#     4  12  28  40  66 102 134 194 212 286 356 396
#     4   9  20  38  68  97 122 175 224 259 350 385
#     4  10  24  43  68  97 137 176 221 294 326 412
#     4   9  21  41  64  96 126 173 224 284 324 398
#     4  11  24  43  64  99 136 174 230 271 349 402
#     4  10  22  42  66  97 134 173 223 280 333 409
#
# _framework density 21.205359999999999
#
# number of rings (size 3 to 8) (size 9 to 14) (size 15 to 20)
#    0.000    1.846    1.538    0.462    6.462    9.231 
#    0.000    0.000    0.000    0.000    0.000    0.000 
#    0.000    0.000    0.000    0.000    0.000    0.000 
#
# Total GULP energy -145039.253698 kJ/mol
# GULP energy per Si atom -5578.432835 kJ/mol
# Density = 2.115710 g / cm^3
# Si number density = 21.205360 Si / 1000 Ang^3
#
#
#
# Elastic Constant Matrix: (Units=GPa)
#
#
# Indices 1 2 3 4 5 6 
#
# 1 77.7007 46.2699 40.6555 0.0000 7.3325 0.0000
# 2 46.2699 116.5190 47.5284 0.0000 -5.6856 0.0000
# 3 40.6555 47.5284 123.1034 0.0000 -10.6993 0.0000
# 4 0.0000 0.0000 0.0000 24.5555 0.0000 -13.3630
# 5 7.3325 -5.6856 -10.6993 0.0000 34.0505 0.0000
# 6 0.0000 0.0000 0.0000 -13.3630 0.0000 23.5500
#
#
#
# Elastic Compliance Matrix: (Units=1/GPa)
#
#
# Indices 1 2 3 4 5 6 
#
# 1 0.019662 -0.006230 -0.004674 0.000000 -0.006743 0.000000
# 2 -0.006230 0.012168 -0.002413 0.000000 0.002615 0.000000
# 3 -0.004674 -0.002413 0.010950 0.000000 0.004044 0.000000
# 4 0.000000 0.000000 0.000000 0.058917 0.000000 0.033431
# 5 -0.006743 0.002615 0.004044 0.000000 0.032528 0.000000
# 6 0.000000 0.000000 0.000000 0.033431 0.000000 0.061433
#
#
# Mechanical properties :
#
#
# Convention : Reuss Voigt Hill
#
# Bulk Modulus (GPa) = 61.93745 65.13674 63.53709
# Shear Modulus (GPa) = 21.96120 28.62250 25.29185
#
# Velocity S-wave (km/s) = 3.22163 3.67792 3.45731
# Velocity P-wave (km/s) = 6.56585 6.98712 6.77976
#
# Compressibility (1/GPa) = 0.01614532
#
# Stress axis : x y z
#
# Youngs Moduli (GPa) = 50.85986 82.18114 91.32358
#
# Poissons Ratio (x) = 0.51201 0.42686
# Poissons Ratio (y) = 0.31687 0.22038
# Poissons Ratio (z) = 0.23772 0.19831
#
# Static dielectric constant tensor:
#      x y z
#    x 1.755610 0.000000 0.023030 
#    y 0.000000 1.791060 0.000000 
#    z 0.023030 0.000000 1.835310 
# 
# From -- ./inp_files/105486.got.cif
#   From: 2010.05.17/outbox.cif.g08.bks.cpg/sg15_53_cif.got.tgz:105486.got - 2010.06.03 18:47:42.
