data_PCOD9291319
_publ_section_title
;
Structure prediction by ZEFSAII (Michael W. Deem and Ramdas Pophale) SiO2 
 PCOD9291319
Probable space group: C 2/C
;
_chemical_formula_sum "Si O2"
_cell_formula_units_Z 52
_cell_length_a 12.302538
_cell_length_b 8.130403
_cell_length_c 26.275425
_cell_angle_alpha 90.000000
_cell_angle_beta 118.145070
_cell_angle_gamma 90.000000
_cell_volume 2317.421347
_symmetry_space_group_name_H-M "C 2/C"
_symmetry_group_IT_number 15
_symmetry_cell_setting 'monoclinic'
loop_
_space_group_symop_operation_xyz
x,y,z
-x,y,1/2-z
-x,-y,-z
x,-y,1/2+z
1/2+x,1/2+y,z
1/2-x,1/2+y,1/2-z
1/2-x,1/2-y,-z
1/2+x,1/2-y,1/2+z
loop_
_atom_site_type_symbol
_atom_site_label
_atom_site_fract_x
_atom_site_fract_y
_atom_site_fract_z
Si Si1 0.500000 0.079881 0.750000
Si Si2 0.724771 0.584230 0.962708
Si Si3 0.251777 0.591273 0.323672
Si Si4 0.022902 0.951968 0.562478
Si Si5 0.799706 0.462692 0.361516
Si Si6 0.542164 0.070779 0.954327
Si Si7 0.382533 0.396892 0.750063
O O1 0.387362 0.972199 0.704810
O O2 0.437487 0.214919 0.773849
O O3 0.580190 0.549760 0.929687
O O4 0.766031 0.570864 0.913201
O O5 0.750000 0.750000 0.000000
O O6 0.812140 0.458972 0.013789
O O7 0.338461 0.525929 0.388114
O O8 0.319556 0.535721 0.286584
O O9 0.262371 0.789595 0.327371
O O10 0.989021 0.760850 0.558611
O O11 0.000000 0.000000 0.500000
O O12 0.720265 0.602713 0.316691
O O13 0.945145 0.507403 0.393111
O O14 0.500000 0.000000 0.000000
O O15 0.500000 0.486681 0.750000
#
# Coordination Sequence:
#
# PCOD9291319 Si02
#       7
#     4   8   8   8   8   8   8
#     4  10  26  42  70  98 132 182 236 284 346 420
#     4  11  22  41  63 101 136 181 230 279 351 419
#     4  11  23  46  66 100 136 176 234 285 351 419
#     4  11  23  42  66  97 137 173 226 286 345 420
#     4  10  22  42  66  94 136 177 223 288 349 415
#     4   9  20  39  64  94 128 170 218 273 342 406
#     4  10  23  44  65  97 132 177 234 282 348 409
#
# _framework density 22.438735000000001
#
# number of rings (size 3 to 8) (size 9 to 14) (size 15 to 20)
#    0.462    1.231    0.000    5.077    1.077    3.692 
#   19.385    0.000    0.000    0.000    0.000    0.000 
#    0.000    0.000    0.000    0.000    0.000    0.000 
#
# Total GULP energy -144958.921824 kJ/mol
# GULP energy per Si atom -5575.343147 kJ/mol
# Density = 2.238766 g / cm^3
# Si number density = 22.438735 Si / 1000 Ang^3
#
#
#
# Elastic Constant Matrix: (Units=GPa)
#
#
# Indices 1 2 3 4 5 6 
#
# 1 87.8625 21.8817 61.2600 0.0000 25.5737 0.0000
# 2 21.8817 37.4350 28.3734 0.0000 16.6278 0.0000
# 3 61.2600 28.3734 132.5540 0.0000 30.3249 0.0000
# 4 0.0000 0.0000 0.0000 34.2769 0.0000 10.5670
# 5 25.5737 16.6278 30.3249 0.0000 53.7749 0.0000
# 6 0.0000 0.0000 0.0000 10.5670 0.0000 31.6410
#
#
#
# Elastic Compliance Matrix: (Units=1/GPa)
#
#
# Indices 1 2 3 4 5 6 
#
# 1 0.018066 -0.003882 -0.006691 0.000000 -0.003618 0.000000
# 2 -0.003882 0.035119 -0.004204 0.000000 -0.006642 0.000000
# 3 -0.006691 -0.004204 0.012068 0.000000 -0.002324 0.000000
# 4 0.000000 0.000000 0.000000 0.032523 0.000000 -0.010861
# 5 -0.003618 -0.006642 -0.002324 0.000000 0.023681 0.000000
# 6 0.000000 0.000000 0.000000 -0.010861 0.000000 0.035232
#
#
# Mechanical properties :
#
#
# Convention : Reuss Voigt Hill
#
# Bulk Modulus (GPa) = 28.01104 53.43127 40.72116
# Shear Modulus (GPa) = 25.23469 33.69431 29.46450
#
# Velocity S-wave (km/s) = 3.35715 3.87927 3.62762
# Velocity P-wave (km/s) = 5.24764 6.62788 5.97773
#
# Compressibility (1/GPa) = 0.03570021
#
# Stress axis : x y z
#
# Youngs Moduli (GPa) = 55.35184 28.47501 82.86717
#
# Poissons Ratio (x) = 0.11054 0.55443
# Poissons Ratio (y) = 0.21487 0.34834
# Poissons Ratio (z) = 0.37034 0.11970
#
# Static dielectric constant tensor:
#      x y z
#    x 2.065350 0.000000 -0.253770 
#    y 0.000000 1.869200 0.000000 
#    z -0.253770 0.000000 2.309950 
# 
# From -- ./inp_files/291691.got.cif
#   From: 2010.05.17/outbox.cif.g08.bks.cpg/sg15_146_cif.got.tgz:291691.got - 2010.06.03 18:47:42.
