data_PCOD9291407
_publ_section_title
;
Structure prediction by ZEFSAII (Michael W. Deem and Ramdas Pophale) SiO2 
 PCOD9291407
Probable space group: C 2/C
;
_chemical_formula_sum "Si O2"
_cell_formula_units_Z 64
_cell_length_a 29.865471
_cell_length_b 17.114173
_cell_length_c 9.385397
_cell_angle_alpha 90.000000
_cell_angle_beta 143.996327
_cell_angle_gamma 90.000000
_cell_volume 2819.907979
_symmetry_space_group_name_H-M "C 2/C"
_symmetry_group_IT_number 15
_symmetry_cell_setting 'monoclinic'
loop_
_space_group_symop_operation_xyz
x,y,z
-x,y,1/2-z
-x,-y,-z
x,-y,1/2+z
1/2+x,1/2+y,z
1/2-x,1/2+y,1/2-z
1/2-x,1/2-y,-z
1/2+x,1/2-y,1/2+z
loop_
_atom_site_type_symbol
_atom_site_label
_atom_site_fract_x
_atom_site_fract_y
_atom_site_fract_z
Si Si1 0.966224 0.320552 0.311343
Si Si2 0.959057 0.937102 0.295776
Si Si3 0.845640 0.194341 0.890132
Si Si4 0.405039 0.721850 0.739995
Si Si5 0.204126 0.464273 0.289231
Si Si6 0.949525 0.450124 0.480020
Si Si7 0.193724 0.988513 0.196266
Si Si8 0.288178 0.218214 0.739444
O O1 0.924146 0.378066 0.312153
O O2 0.000000 0.355188 0.250000
O O3 0.040689 0.294115 0.589198
O O4 0.915824 0.244843 0.136492
O O5 0.957332 0.854260 0.367792
O O6 0.000000 0.933030 0.250000
O O7 0.000000 0.000000 0.500000
O O8 0.872168 0.959347 0.039505
O O9 0.849671 0.212224 0.732867
O O10 0.840767 0.099754 0.891461
O O11 0.772348 0.222269 0.788023
O O12 0.360780 0.734093 0.479549
O O13 0.230685 0.494901 0.205313
O O14 0.276775 0.483035 0.575427
O O15 0.192686 0.371999 0.237813
O O16 0.125477 0.493851 0.153287
O O17 0.000000 0.429145 0.750000
O O18 0.000000 0.500000 0.500000
O O19 0.250000 0.250000 0.500000
#
# Coordination Sequence:
#
# PCOD9291407 Si02
#       8
#     8   8   8   8   8   8   8   8
#     4  10  23  42  65  94 130 170 219 272 331 396
#     4  12  25  41  65  97 132 174 223 275 333 401
#     4  10  22  42  67  93 129 174 219 272 331 399
#     4  11  23  41  64  93 130 176 218 269 334 399
#     4  11  24  41  64  92 127 171 216 269 327 391
#     4  12  25  44  68  98 133 174 222 276 334 399
#     4  11  23  42  64  94 131 171 218 269 327 390
#     4  11  23  39  62  95 130 170 222 276 331 393
#
# _framework density 22.695777
#
# number of rings (size 3 to 8) (size 9 to 14) (size 15 to 20)
#    0.000    1.000    0.000    6.750    0.000    6.500 
#    0.000    5.000    0.000    0.000    0.000    0.000 
#    0.000    0.000    0.000    0.000    0.000    0.000 
#
# Total GULP energy -178938.637420 kJ/mol
# GULP energy per Si atom -5591.832419 kJ/mol
# Density = 2.264412 g / cm^3
# Si number density = 22.695777 Si / 1000 Ang^3
#
#
#
# Elastic Constant Matrix: (Units=GPa)
#
#
# Indices 1 2 3 4 5 6 
#
# 1 129.3434 22.4135 15.9048 0.0000 -2.9468 0.0000
# 2 22.4135 52.2641 22.7763 0.0000 -8.9371 0.0000
# 3 15.9048 22.7763 103.1318 0.0000 -23.6775 0.0000
# 4 0.0000 0.0000 0.0000 30.3990 0.0000 -2.4320
# 5 -2.9468 -8.9371 -23.6775 0.0000 34.6844 0.0000
# 6 0.0000 0.0000 0.0000 -2.4320 0.0000 26.3502
#
#
#
# Elastic Compliance Matrix: (Units=1/GPa)
#
#
# Indices 1 2 3 4 5 6 
#
# 1 0.008392 -0.003408 -0.000687 0.000000 -0.000634 0.000000
# 2 -0.003408 0.022768 -0.003821 0.000000 0.002969 0.000000
# 3 -0.000687 -0.003821 0.012341 0.000000 0.007382 0.000000
# 4 0.000000 0.000000 0.000000 0.033141 0.000000 0.003059
# 5 -0.000634 0.002969 0.007382 0.000000 0.034582 0.000000
# 6 0.000000 0.000000 0.000000 0.003059 0.000000 0.038233
#
#
# Mechanical properties :
#
#
# Convention : Reuss Voigt Hill
#
# Bulk Modulus (GPa) = 36.14236 45.21430 40.67833
# Shear Modulus (GPa) = 28.65154 33.19636 30.92395
#
# Velocity S-wave (km/s) = 3.55691 3.82863 3.69527
# Velocity P-wave (km/s) = 5.72958 6.28567 6.01406
#
# Compressibility (1/GPa) = 0.02766837
#
# Stress axis : x y z
#
# Youngs Moduli (GPa) = 119.16188 43.92151 81.03135
#
# Poissons Ratio (x) = 0.14968 0.05568
# Poissons Ratio (y) = 0.40609 0.30963
# Poissons Ratio (z) = 0.08189 0.16783
#
# Static dielectric constant tensor:
#      x y z
#    x 1.847260 0.000000 0.020320 
#    y 0.000000 1.838890 0.000000 
#    z 0.020320 0.000000 1.803100 
# 
# From -- ./inp_files/70635.got.cif
#   From: 2010.05.17/outbox.cif.g08.bks.cpg/sg15_36_cif.got.tgz:70635.got - 2010.06.03 18:47:42.
