data_PCOD9291760
_publ_section_title
;
Structure prediction by ZEFSAII (Michael W. Deem and Ramdas Pophale) SiO2 
 PCOD9291760
Probable space group: C 2/C
;
_chemical_formula_sum "Si O2"
_cell_formula_units_Z 40
_cell_length_a 5.637785
_cell_length_b 27.388958
_cell_length_c 12.195221
_cell_angle_alpha 90.000000
_cell_angle_beta 120.880537
_cell_angle_gamma 90.000000
_cell_volume 1616.151590
_symmetry_space_group_name_H-M "C 2/C"
_symmetry_group_IT_number 15
_symmetry_cell_setting 'monoclinic'
loop_
_space_group_symop_operation_xyz
x,y,z
-x,y,1/2-z
-x,-y,-z
x,-y,1/2+z
1/2+x,1/2+y,z
1/2-x,1/2+y,1/2-z
1/2-x,1/2-y,-z
1/2+x,1/2-y,1/2+z
loop_
_atom_site_type_symbol
_atom_site_label
_atom_site_fract_x
_atom_site_fract_y
_atom_site_fract_z
Si Si1 0.765188 0.540010 0.972732
Si Si2 0.228145 0.807760 0.973913
Si Si3 0.038101 0.603522 0.881937
Si Si4 0.958153 0.947443 0.867415
Si Si5 0.366017 0.790687 0.610033
O O1 0.501345 0.506326 0.885061
O O2 0.788155 0.585619 0.898306
O O3 0.792430 0.557648 0.104913
O O4 0.000000 0.500000 0.000000
O O5 0.386126 0.817467 0.896441
O O6 0.904262 0.820097 0.912887
O O7 0.250000 0.750000 0.000000
O O8 0.404937 0.839063 0.101052
O O9 0.000000 0.586350 0.750000
O O10 0.302092 0.580442 0.007247
O O11 0.000000 0.933835 0.750000
O O12 0.500000 0.767812 0.750000
O O13 0.250000 0.750000 0.500000
#
# Coordination Sequence:
#
# PCOD9291760 Si02
#       5
#     8   8   8   8   8
#     4   9  22  41  67 104 141 187 240 298 372 448
#     4  10  24  45  69 103 143 194 242 306 371 439
#     4  11  26  43  69 106 144 188 249 312 371 445
#     4  10  23  42  70 102 145 193 239 302 377 452
#     4  10  22  42  71 102 137 182 240 301 370 439
#
# _framework density 24.750153000000001
#
# number of rings (size 3 to 8) (size 9 to 14) (size 15 to 20)
#    0.000    2.000    0.000    0.600   11.200   10.400 
#    0.000    0.000    0.000    0.000    0.000    0.000 
#    0.000    0.000    0.000    0.000    0.000    0.000 
#
# Total GULP energy -111505.351692 kJ/mol
# GULP energy per Si atom -5575.267585 kJ/mol
# Density = 2.469382 g / cm^3
# Si number density = 24.750153 Si / 1000 Ang^3
#
#
#
# Elastic Constant Matrix: (Units=GPa)
#
#
# Indices 1 2 3 4 5 6 
#
# 1 167.0727 17.2841 55.5353 0.0000 -48.0085 0.0000
# 2 17.2841 93.6191 29.3475 0.0000 0.0795 0.0000
# 3 55.5353 29.3475 213.0872 0.0000 -47.7957 0.0000
# 4 0.0000 0.0000 0.0000 28.9349 0.0000 4.1878
# 5 -48.0085 0.0795 -47.7957 0.0000 37.1581 0.0000
# 6 0.0000 0.0000 0.0000 4.1878 0.0000 20.0595
#
#
#
# Elastic Compliance Matrix: (Units=1/GPa)
#
#
# Indices 1 2 3 4 5 6 
#
# 1 0.009915 -0.002097 0.000814 0.000000 0.013862 0.000000
# 2 -0.002097 0.011820 -0.002382 0.000000 -0.005799 0.000000
# 3 0.000814 -0.002382 0.007092 0.000000 0.010179 0.000000
# 4 0.000000 0.000000 0.000000 0.035637 0.000000 -0.007440
# 5 0.013862 -0.005799 0.010179 0.000000 0.057927 0.000000
# 6 0.000000 0.000000 0.000000 -0.007440 0.000000 0.051405
#
#
# Mechanical properties :
#
#
# Convention : Reuss Voigt Hill
#
# Bulk Modulus (GPa) = 46.51939 75.34585 60.93262
# Shear Modulus (GPa) = 26.55427 42.00464 34.27945
#
# Velocity S-wave (km/s) = 3.27906 4.12411 3.72562
# Velocity P-wave (km/s) = 5.75957 7.29290 6.57112
#
# Compressibility (1/GPa) = 0.02149641
#
# Stress axis : x y z
#
# Youngs Moduli (GPa) = 100.85695 84.59888 141.00310
#
# Poissons Ratio (x) = 0.17744 -0.11478
# Poissons Ratio (y) = 0.21155 0.33589
# Poissons Ratio (z) = -0.08210 0.20153
#
# Static dielectric constant tensor:
#      x y z
#    x 2.286220 0.000000 0.013530 
#    y 0.000000 2.041580 0.000000 
#    z 0.013530 0.000000 1.963550 
# 
# From -- ./inp_files/74073.got.cif
#   From: 2010.05.17/outbox.cif.g08.bks.cpg/sg15_38_cif.got.tgz:74073.got - 2010.06.03 18:47:42.
