data_PCOD9291192
_publ_section_title
;
Structure prediction by ZEFSAII (Michael W. Deem and Ramdas Pophale) SiO2 
 PCOD9291192
Probable space group: C 2/C
;
_chemical_formula_sum "Si O2"
_cell_formula_units_Z 60
_cell_length_a 29.602126
_cell_length_b 8.689476
_cell_length_c 24.549316
_cell_angle_alpha 90.000000
_cell_angle_beta 151.721373
_cell_angle_gamma 90.000000
_cell_volume 2991.672379
_symmetry_space_group_name_H-M "C 2/C"
_symmetry_group_IT_number 15
_symmetry_cell_setting 'monoclinic'
loop_
_space_group_symop_operation_xyz
x,y,z
-x,y,1/2-z
-x,-y,-z
x,-y,1/2+z
1/2+x,1/2+y,z
1/2-x,1/2+y,1/2-z
1/2-x,1/2-y,-z
1/2+x,1/2-y,1/2+z
loop_
_atom_site_type_symbol
_atom_site_label
_atom_site_fract_x
_atom_site_fract_y
_atom_site_fract_z
Si Si1 0.264906 0.164865 0.301555
Si Si2 0.064401 0.890905 0.530536
Si Si3 0.750018 0.411462 0.375795
Si Si4 0.373250 0.388824 0.022052
Si Si5 0.197776 0.592493 0.815110
Si Si6 0.321444 0.338728 0.616709
Si Si7 0.102420 0.311551 0.660821
Si Si8 0.000000 0.993958 0.750000
O O1 0.167060 0.128808 0.166099
O O2 0.245856 0.318571 0.315719
O O3 0.345390 0.183742 0.341957
O O4 0.282495 0.028700 0.363107
O O5 0.079979 0.942747 0.485072
O O6 0.006316 0.732349 0.463528
O O7 0.000000 0.000000 0.500000
O O8 0.829305 0.281182 0.469440
O O9 0.725497 0.512906 0.402984
O O10 0.656589 0.321081 0.253677
O O11 0.449233 0.404645 0.150119
O O12 0.281824 0.498479 0.934311
O O13 0.155785 0.719825 0.810438
O O14 0.122513 0.470604 0.712606
O O15 0.250000 0.250000 0.500000
O O16 0.416873 0.391495 0.688096
#
# Coordination Sequence:
#
# PCOD9291192 Si02
#       8
#     8   8   8   8   8   8   8   4
#     4  11  21  40  66  96 139 179 214 268 344 404
#     4  12  23  38  67 101 137 181 221 272 335 409
#     4  10  22  43  68  95 133 177 221 282 343 405
#     4  11  24  45  69  98 134 176 236 276 338 403
#     4  10  22  42  65  93 135 178 216 283 338 403
#     4  11  24  48  69  94 130 179 230 290 352 394
#     4  11  21  39  62  99 138 174 220 270 332 411
#     4  12  26  46  72 100 132 180 234 288 342 418
#
# _framework density 20.055671
#
# number of rings (size 3 to 8) (size 9 to 14) (size 15 to 20)
#    0.000    1.067    5.333    2.400    1.867    1.067 
#    4.800    0.000    0.000    0.000    0.000    0.000 
#    0.000    0.000    0.000    0.000    0.000    0.000 
#
# Total GULP energy -167765.207647 kJ/mol
# GULP energy per Si atom -5592.173588 kJ/mol
# Density = 2.001002 g / cm^3
# Si number density = 20.055671 Si / 1000 Ang^3
#
#
#
# Elastic Constant Matrix: (Units=GPa)
#
#
# Indices 1 2 3 4 5 6 
#
# 1 115.4446 36.6946 45.6785 -0.0001 -3.0509 -0.0001
# 2 36.6946 95.2757 24.5113 -0.0001 -9.6441 -0.0001
# 3 45.6785 24.5113 87.0426 0.0000 -11.4301 0.0000
# 4 -0.0001 -0.0001 0.0000 22.4508 -0.0001 0.1942
# 5 -3.0509 -9.6441 -11.4301 -0.0001 30.6174 0.0000
# 6 -0.0001 -0.0001 0.0000 0.1942 0.0000 27.0260
#
#
#
# Elastic Compliance Matrix: (Units=1/GPa)
#
#
# Indices 1 2 3 4 5 6 
#
# 1 0.011865 -0.003341 -0.005540 0.000000 -0.001938 0.000000
# 2 -0.003341 0.012441 -0.001345 0.000000 0.003084 0.000000
# 3 -0.005540 -0.001345 0.015402 0.000000 0.004774 0.000000
# 4 0.000000 0.000000 0.000000 0.044545 0.000000 -0.000320
# 5 -0.001938 0.003084 0.004774 0.000000 0.035221 0.000000
# 6 0.000000 0.000000 0.000000 -0.000320 0.000000 0.037004
#
#
# Mechanical properties :
#
#
# Convention : Reuss Voigt Hill
#
# Bulk Modulus (GPa) = 51.93447 56.83687 54.38567
# Shear Modulus (GPa) = 27.27056 28.74408 28.00732
#
# Velocity S-wave (km/s) = 3.69147 3.78989 3.74100
# Velocity P-wave (km/s) = 6.64234 6.89580 6.77026
#
# Compressibility (1/GPa) = 0.01925503
#
# Stress axis : x y z
#
# Youngs Moduli (GPa) = 84.28217 80.38154 64.92729
#
# Poissons Ratio (x) = 0.26852 0.35972
# Poissons Ratio (y) = 0.28155 0.08735
# Poissons Ratio (z) = 0.46695 0.10814
#
# Static dielectric constant tensor:
#      x y z
#    x 1.715870 0.000000 -0.016460 
#    y 0.000000 1.724380 0.000000 
#    z -0.016460 0.000000 1.686720 
# 
# From -- ./inp_files/283363.got.cif
#   From: 2010.05.17/outbox.cif.g08.bks.cpg/sg15_142_cif.got.tgz:283363.got - 2010.06.03 18:47:42.
