data_PCOD9291953
_publ_section_title
;
Structure prediction by ZEFSAII (Michael W. Deem and Ramdas Pophale) SiO2 
 PCOD9291953
Probable space group: C 2/C
;
_chemical_formula_sum "Si O2"
_cell_formula_units_Z 44
_cell_length_a 30.080701
_cell_length_b 8.364653
_cell_length_c 24.686619
_cell_angle_alpha 90.000000
_cell_angle_beta 17.143349
_cell_angle_gamma 90.000000
_cell_volume 1830.926965
_symmetry_space_group_name_H-M "C 2/C"
_symmetry_group_IT_number 15
_symmetry_cell_setting 'monoclinic'
loop_
_space_group_symop_operation_xyz
x,y,z
-x,y,1/2-z
-x,-y,-z
x,-y,1/2+z
1/2+x,1/2+y,z
1/2-x,1/2+y,1/2-z
1/2-x,1/2-y,-z
1/2+x,1/2-y,1/2+z
loop_
_atom_site_type_symbol
_atom_site_label
_atom_site_fract_x
_atom_site_fract_y
_atom_site_fract_z
Si Si1 0.401987 0.303120 0.264446
Si Si2 0.000000 0.252425 0.250000
Si Si3 0.163750 0.631821 0.764001
Si Si4 0.595726 0.890136 0.461871
Si Si5 0.786855 0.441198 0.571020
Si Si6 0.661737 0.455166 0.027998
O O1 0.296865 0.453610 0.375570
O O2 0.518770 0.348097 0.175485
O O3 0.293276 0.151515 0.400015
O O4 0.492289 0.253692 0.104583
O O5 0.941557 0.364612 0.366753
O O6 0.867637 0.117020 0.403075
O O7 0.184461 0.651632 0.804098
O O8 0.179495 0.799833 0.716125
O O9 0.284575 0.520448 0.593297
O O10 0.007167 0.542751 0.934341
O O11 0.684776 0.945325 0.410895
#
# Coordination Sequence:
#
# PCOD9291953 Si02
#       6
#     8   4   8   8   8   8
#     4  11  23  43  68  98 135 176 227 278 346 399
#     4  10  26  48  66 100 134 182 234 284 332 410
#     4   9  23  40  66  99 140 177 222 281 333 413
#     4  10  22  43  64 100 139 174 228 280 342 406
#     4  11  24  43  70  98 132 186 227 277 343 407
#     4  10  23  46  65 100 139 178 224 284 335 405
#
# _framework density 24.031542000000002
#
# number of rings (size 3 to 8) (size 9 to 14) (size 15 to 20)
#    0.000    1.818    1.818    0.000    7.636    4.364 
#    6.545    0.000    0.000    0.000    0.000    0.000 
#    0.000    0.000    0.000    0.000    0.000    0.000 
#
# Total GULP energy -122931.202457 kJ/mol
# GULP energy per Si atom -5587.781930 kJ/mol
# Density = 2.397685 g / cm^3
# Si number density = 24.031542 Si / 1000 Ang^3
#
#
#
# Elastic Constant Matrix: (Units=GPa)
#
#
# Indices 1 2 3 4 5 6 
#
# 1 114.5178 38.4294 36.6617 0.0009 27.7632 0.0000
# 2 38.4294 114.9517 48.7853 0.0046 12.3325 0.0024
# 3 36.6617 48.7853 69.8597 0.0041 19.7198 0.0010
# 4 0.0009 0.0046 0.0041 17.2434 0.0003 0.6210
# 5 27.7632 12.3325 19.7198 0.0003 42.4487 -0.0005
# 6 0.0000 0.0024 0.0010 0.6210 -0.0005 18.1322
#
#
#
# Elastic Compliance Matrix: (Units=1/GPa)
#
#
# Indices 1 2 3 4 5 6 
#
# 1 0.011793 -0.001971 -0.003219 0.000001 -0.005645 0.000000
# 2 -0.001971 0.012701 -0.008238 -0.000001 0.001426 -0.000001
# 3 -0.003219 -0.008238 0.023579 -0.000003 -0.006455 0.000000
# 4 0.000001 -0.000001 -0.000003 0.058065 0.000001 -0.001989
# 5 -0.005645 0.001426 -0.006455 0.000001 0.029834 0.000001
# 6 0.000000 -0.000001 0.000000 -0.001989 0.000001 0.055219
#
#
# Mechanical properties :
#
#
# Convention : Reuss Voigt Hill
#
# Bulk Modulus (GPa) = 47.13168 60.78689 53.95928
# Shear Modulus (GPa) = 22.21054 27.26171 24.73612
#
# Velocity S-wave (km/s) = 3.04340 3.37176 3.21178
# Velocity P-wave (km/s) = 5.65727 6.36458 6.02132
#
# Compressibility (1/GPa) = 0.02121715
#
# Stress axis : x y z
#
# Youngs Moduli (GPa) = 84.79871 78.73177 42.41109
#
# Poissons Ratio (x) = 0.15515 0.13653
# Poissons Ratio (y) = 0.16710 0.34939
# Poissons Ratio (z) = 0.27297 0.64860
#
# Static dielectric constant tensor:
#      x y z
#    x 1.902090 0.000000 0.046750 
#    y 0.000000 1.891900 0.000000 
#    z 0.046750 0.000000 2.045330 
# 
# From -- ./inp_files/115966.got.cif
#   From: 2010.05.17/outbox.cif.g08.bks.cpg/sg15_58_cif.got.tgz:115966.got - 2010.06.03 18:47:42.
