data_PCOD9291958
_publ_section_title
;
Structure prediction by ZEFSAII (Michael W. Deem and Ramdas Pophale) SiO2 
 PCOD9291958
Probable space group: C 2/C
;
_chemical_formula_sum "Si O2"
_cell_formula_units_Z 64
_cell_length_a 15.015013
_cell_length_b 8.497558
_cell_length_c 25.111697
_cell_angle_alpha 90.000000
_cell_angle_beta 104.108904
_cell_angle_gamma 90.000000
_cell_volume 3107.372964
_symmetry_space_group_name_H-M "C 2/C"
_symmetry_group_IT_number 15
_symmetry_cell_setting 'monoclinic'
loop_
_space_group_symop_operation_xyz
x,y,z
-x,y,1/2-z
-x,-y,-z
x,-y,1/2+z
1/2+x,1/2+y,z
1/2-x,1/2+y,1/2-z
1/2-x,1/2-y,-z
1/2+x,1/2-y,1/2+z
loop_
_atom_site_type_symbol
_atom_site_label
_atom_site_fract_x
_atom_site_fract_y
_atom_site_fract_z
Si Si1 0.269610 0.896073 0.928677
Si Si2 0.111116 0.688980 0.955485
Si Si3 0.090674 0.644674 0.228614
Si Si4 0.757669 0.751899 0.936844
Si Si5 0.365894 0.672510 0.865391
Si Si6 0.449951 0.378295 0.919015
Si Si7 0.680947 0.975501 0.838957
Si Si8 0.000902 0.380806 0.150457
O O1 0.184857 0.777108 0.927924
O O2 0.334918 0.826089 0.893125
O O3 0.240052 0.073874 0.914878
O O4 0.330688 0.892405 0.991040
O O5 0.041390 0.573665 0.913998
O O6 0.042124 0.827841 0.963435
O O7 0.101961 0.781239 0.187981
O O8 0.169448 0.625534 0.283739
O O9 0.000000 0.670425 0.250000
O O10 0.074916 0.487360 0.190556
O O11 0.860298 0.806937 0.934562
O O12 0.691594 0.868377 0.893545
O O13 0.750000 0.750000 0.000000
O O14 0.436940 0.561713 0.906717
O O15 0.273585 0.571499 0.848484
O O16 0.462958 0.290283 0.862803
O O17 0.591536 0.089700 0.828423
#
# Coordination Sequence:
#
# PCOD9291958 Si02
#       8
#     8   8   8   8   8   8   8   8
#     4  11  22  39  65  92 128 167 206 258 317 379
#     4   9  21  39  64  91 128 158 210 252 313 376
#     4  10  23  41  64  88 120 166 209 261 315 371
#     4  11  24  40  62  93 127 166 207 260 315 386
#     4  11  22  40  64  93 125 164 211 264 313 375
#     4   9  22  40  60  91 126 161 210 254 315 378
#     4  10  22  43  64  87 126 162 210 259 320 380
#     4   9  18  44  61  84 123 160 204 254 313 370
#
# _framework density 20.596177000000001
#
# number of rings (size 3 to 8) (size 9 to 14) (size 15 to 20)
#    0.750    1.250    1.250    1.500    5.250    6.000 
#    4.500    3.125    0.000    0.000    0.000    0.000 
#    0.000    0.000    0.000    0.000    0.000    0.000 
#
# Total GULP energy -178164.819455 kJ/mol
# GULP energy per Si atom -5567.650608 kJ/mol
# Density = 2.054930 g / cm^3
# Si number density = 20.596177 Si / 1000 Ang^3
#
#
#
# Elastic Constant Matrix: (Units=GPa)
#
#
# Indices 1 2 3 4 5 6 
#
# 1 42.8566 14.1018 20.0171 0.0000 -9.9475 0.0000
# 2 14.1018 74.4025 35.4720 0.0000 -19.2534 0.0000
# 3 20.0171 35.4720 97.1347 0.0000 -9.1780 0.0000
# 4 0.0000 0.0000 0.0000 18.5987 0.0000 -8.3419
# 5 -9.9475 -19.2534 -9.1780 0.0000 33.0409 0.0000
# 6 0.0000 0.0000 0.0000 -8.3419 0.0000 21.2070
#
#
#
# Elastic Compliance Matrix: (Units=1/GPa)
#
#
# Indices 1 2 3 4 5 6 
#
# 1 0.027347 -0.001434 -0.004532 0.000000 0.006139 0.000000
# 2 -0.001434 0.018736 -0.005705 0.000000 0.008901 0.000000
# 3 -0.004532 -0.005705 0.013216 0.000000 -0.001018 0.000000
# 4 0.000000 0.000000 0.000000 0.065285 0.000000 0.025680
# 5 0.006139 0.008901 -0.001018 0.000000 0.037018 0.000000
# 6 0.000000 0.000000 0.000000 0.025680 0.000000 0.057256
#
#
# Mechanical properties :
#
#
# Convention : Reuss Voigt Hill
#
# Bulk Modulus (GPa) = 27.81149 39.28618 33.54884
# Shear Modulus (GPa) = 19.67067 24.22285 21.94676
#
# Velocity S-wave (km/s) = 3.09376 3.43313 3.26786
# Velocity P-wave (km/s) = 5.12780 5.90179 5.52836
#
# Compressibility (1/GPa) = 0.03595636
#
# Stress axis : x y z
#
# Youngs Moduli (GPa) = 36.56697 53.37421 75.66448
#
# Poissons Ratio (x) = 0.07654 0.34290
# Poissons Ratio (y) = 0.05244 0.43170
# Poissons Ratio (z) = 0.16572 0.30452
#
# Static dielectric constant tensor:
#      x y z
#    x 1.751340 0.000000 -0.004430 
#    y 0.000000 1.772020 0.000000 
#    z -0.004430 0.000000 1.776530 
# 
# From -- ./inp_files/295165.got.cif
#   From: 2010.05.17/outbox.cif.g08.bks.cpg/sg15_148_cif.got.tgz:295165.got - 2010.06.03 18:47:42.
