data_PCOD9291172
_publ_section_title
;
Structure prediction by ZEFSAII (Michael W. Deem and Ramdas Pophale) SiO2 
 PCOD9291172
Probable space group: C 2/C
;
_chemical_formula_sum "Si O2"
_cell_formula_units_Z 48
_cell_length_a 33.242540
_cell_length_b 15.166986
_cell_length_c 16.268039
_cell_angle_alpha 90.000000
_cell_angle_beta 15.820629
_cell_angle_gamma 90.000000
_cell_volume 2236.129906
_symmetry_space_group_name_H-M "C 2/C"
_symmetry_group_IT_number 15
_symmetry_cell_setting 'monoclinic'
loop_
_space_group_symop_operation_xyz
x,y,z
-x,y,1/2-z
-x,-y,-z
x,-y,1/2+z
1/2+x,1/2+y,z
1/2-x,1/2+y,1/2-z
1/2-x,1/2-y,-z
1/2+x,1/2-y,1/2+z
loop_
_atom_site_type_symbol
_atom_site_label
_atom_site_fract_x
_atom_site_fract_y
_atom_site_fract_z
Si Si1 0.688631 0.671711 0.182561
Si Si2 0.095241 0.418366 0.340240
Si Si3 0.363391 0.696849 0.580528
Si Si4 0.080607 0.761043 0.350135
Si Si5 0.677870 0.644054 0.392033
Si Si6 0.833411 0.456023 0.111826
O O1 0.513040 0.675931 0.524434
O O2 0.725989 0.673531 0.204741
O O3 0.750000 0.750000 0.000000
O O4 0.760838 0.587043 0.999854
O O5 0.145085 0.422270 0.336824
O O6 0.000000 0.500000 0.500000
O O7 0.993981 0.334115 0.517275
O O8 0.434832 0.696419 0.529883
O O9 0.254855 0.781005 0.794869
O O10 0.263032 0.614199 0.750429
O O11 0.500000 0.706546 0.250000
O O12 0.250000 0.750000 0.000000
O O13 0.749086 0.549428 0.272747
O O14 0.500000 0.642787 0.750000
O O15 0.000000 0.464892 0.750000
#
# Coordination Sequence:
#
# PCOD9291172 Si02
#       6
#     8   8   8   8   8   8
#     4  10  22  42  65  91 128 173 216 266 328 394
#     4  11  22  41  64  91 125 168 215 267 327 393
#     4  12  23  41  66  96 132 174 220 276 336 399
#     4  11  22  39  62  91 122 165 212 261 323 390
#     4  12  25  44  68 100 135 177 226 278 334 401
#     4  12  25  43  66  99 135 175 224 282 338 399
#
# _framework density 21.465658000000001
#
# number of rings (size 3 to 8) (size 9 to 14) (size 15 to 20)
#    0.000    0.667    0.000   10.500    0.000    0.000 
#    0.000    2.500    0.000    0.000    0.000    0.000 
#    0.000    0.000    0.000    0.000    0.000    0.000 
#
# Total GULP energy -134078.538065 kJ/mol
# GULP energy per Si atom -5586.605753 kJ/mol
# Density = 2.141680 g / cm^3
# Si number density = 21.465658 Si / 1000 Ang^3
#
#
#
# Elastic Constant Matrix: (Units=GPa)
#
#
# Indices 1 2 3 4 5 6 
#
# 1 89.2619 2.7084 -32.0001 0.0000 -7.1507 0.0000
# 2 2.7084 118.5020 24.6237 0.0000 -32.1325 0.0000
# 3 -32.0001 24.6237 118.4374 0.0000 -15.3729 0.0000
# 4 0.0000 0.0000 0.0000 42.6270 0.0000 -13.7999
# 5 -7.1507 -32.1325 -15.3729 0.0000 41.5435 0.0001
# 6 0.0000 0.0000 0.0000 -13.7999 0.0001 25.9905
#
#
#
# Elastic Compliance Matrix: (Units=1/GPa)
#
#
# Indices 1 2 3 4 5 6 
#
# 1 0.012925 -0.000153 0.003989 0.000000 0.003582 0.000000
# 2 -0.000153 0.010847 -0.001272 0.000000 0.007892 0.000000
# 3 0.003989 -0.001272 0.010239 0.000000 0.003492 0.000000
# 4 0.000000 0.000000 0.000000 0.028329 0.000000 0.015041
# 5 0.003582 0.007892 0.003492 0.000000 0.032084 0.000000
# 6 0.000000 0.000000 0.000000 0.015041 0.000000 0.046462
#
#
# Mechanical properties :
#
#
# Convention : Reuss Voigt Hill
#
# Bulk Modulus (GPa) = 25.55068 35.20727 30.37897
# Shear Modulus (GPa) = 33.60153 44.09014 38.84584
#
# Velocity S-wave (km/s) = 3.96076 4.53701 4.25864
# Velocity P-wave (km/s) = 5.73112 6.62444 6.19390
#
# Compressibility (1/GPa) = 0.03913790
#
# Stress axis : x y z
#
# Youngs Moduli (GPa) = 77.37193 92.19519 97.66939
#
# Poissons Ratio (x) = 0.01409 -0.38958
# Poissons Ratio (y) = 0.01182 0.12423
# Poissons Ratio (z) = -0.30862 0.11726
#
# Static dielectric constant tensor:
#      x y z
#    x 1.773440 0.000000 0.036510 
#    y 0.000000 1.764180 0.000000 
#    z 0.036510 0.000000 1.772570 
# 
# From -- ./inp_files/182447.got.cif
#   From: 2010.05.17/outbox.cif.g08.bks.cpg/sg15_92_cif.got.tgz:182447.got - 2010.06.03 18:47:42.
