data_PCOD9291159
_publ_section_title
;
Structure prediction by ZEFSAII (Michael W. Deem and Ramdas Pophale) SiO2 
 PCOD9291159
Probable space group: C 2/C
;
_chemical_formula_sum "Si O2"
_cell_formula_units_Z 44
_cell_length_a 8.693142
_cell_length_b 21.501056
_cell_length_c 14.672435
_cell_angle_alpha 90.000000
_cell_angle_beta 61.700462
_cell_angle_gamma 90.000000
_cell_volume 2414.675824
_symmetry_space_group_name_H-M "C 2/C"
_symmetry_group_IT_number 15
_symmetry_cell_setting 'monoclinic'
loop_
_space_group_symop_operation_xyz
x,y,z
-x,y,1/2-z
-x,-y,-z
x,-y,1/2+z
1/2+x,1/2+y,z
1/2-x,1/2+y,1/2-z
1/2-x,1/2-y,-z
1/2+x,1/2-y,1/2+z
loop_
_atom_site_type_symbol
_atom_site_label
_atom_site_fract_x
_atom_site_fract_y
_atom_site_fract_z
Si Si1 0.782623 0.876044 0.076753
Si Si2 0.298487 0.927298 0.828175
Si Si3 0.463444 0.530695 0.660740
Si Si4 0.173340 0.492280 0.009318
Si Si5 0.972198 0.170255 0.153532
Si Si6 0.000000 0.709290 0.750000
O O1 0.919234 0.915591 0.100054
O O2 0.665195 0.830950 0.171277
O O3 0.878054 0.843607 0.963642
O O4 0.656753 0.929251 0.071317
O O5 0.500000 0.922811 0.750000
O O6 0.197122 0.864163 0.837103
O O7 0.197512 0.982188 0.801528
O O8 0.297701 0.949784 0.932145
O O9 0.500000 0.557603 0.750000
O O10 0.637614 0.490417 0.591760
O O11 0.000000 0.500000 0.000000
O O12 0.954873 0.243534 0.179534
O O13 0.000000 0.144913 0.250000
#
# Coordination Sequence:
#
# PCOD9291159 Si02
#       6
#     8   8   8   8   8   4
#     4  11  22  44  62  95 133 162 223 265 317 393
#     4  11  21  37  61  95 128 163 213 267 319 387
#     4  11  22  38  62  98 133 165 201 271 337 378
#     4  11  23  35  64  98 128 167 203 266 340 382
#     4  10  22  42  65  87 123 175 220 264 309 379
#     4  10  26  38  72  90 124 184 216 256 322 376
#
# _framework density 18.221907999999999
#
# number of rings (size 3 to 8) (size 9 to 14) (size 15 to 20)
#    0.545    0.727    3.636    3.273   10.182    0.000 
#    0.000    0.909    0.000    3.273    0.000    0.000 
#    0.000    0.000    0.000    0.000    0.000    0.000 
#
# Total GULP energy -122548.661857 kJ/mol
# GULP energy per Si atom -5570.393721 kJ/mol
# Density = 1.818043 g / cm^3
# Si number density = 18.221908 Si / 1000 Ang^3
#
#
#
# Elastic Constant Matrix: (Units=GPa)
#
#
# Indices 1 2 3 4 5 6 
#
# 1 140.0085 53.6269 44.1948 0.0000 -0.2157 0.0000
# 2 53.6269 101.2783 36.6515 0.0000 -3.7861 0.0000
# 3 44.1948 36.6515 67.6509 0.0000 -0.5079 0.0000
# 4 0.0000 0.0000 0.0000 28.2605 0.0000 1.0113
# 5 -0.2157 -3.7861 -0.5079 0.0000 41.0984 0.0000
# 6 0.0000 0.0000 0.0000 1.0113 0.0000 15.3330
#
#
#
# Elastic Compliance Matrix: (Units=1/GPa)
#
#
# Indices 1 2 3 4 5 6 
#
# 1 0.009973 -0.003651 -0.004540 0.000000 -0.000340 0.000000
# 2 -0.003651 0.013663 -0.005009 0.000000 0.001178 0.000000
# 3 -0.004540 -0.005009 0.020460 0.000000 -0.000232 0.000000
# 4 0.000000 0.000000 0.000000 0.035469 0.000000 -0.002339
# 5 -0.000340 0.001178 -0.000232 0.000000 0.024436 0.000000
# 6 0.000000 0.000000 0.000000 -0.002339 0.000000 0.065373
#
#
# Mechanical properties :
#
#
# Convention : Reuss Voigt Hill
#
# Bulk Modulus (GPa) = 56.50556 64.20936 60.35746
# Shear Modulus (GPa) = 24.79272 28.56934 26.68103
#
# Velocity S-wave (km/s) = 3.69263 3.96391 3.83067
# Velocity P-wave (km/s) = 7.01838 7.50094 7.26367
#
# Compressibility (1/GPa) = 0.01769737
#
# Stress axis : x y z
#
# Youngs Moduli (GPa) = 100.26799 73.18814 48.87673
#
# Poissons Ratio (x) = 0.26718 0.22191
# Poissons Ratio (y) = 0.36603 0.24481
# Poissons Ratio (z) = 0.45523 0.36659
#
# Static dielectric constant tensor:
#      x y z
#    x 1.633400 0.000000 -0.059540 
#    y 0.000000 1.629490 0.000000 
#    z -0.059540 0.000000 1.795050 
# 
# From -- ./inp_files/135387.got.cif
#   From: 2010.05.17/outbox.cif.g08.bks.cpg/sg15_68_cif.got.tgz:135387.got - 2010.06.03 18:47:42.
