data_PCOD9291573
_publ_section_title
;
Structure prediction by ZEFSAII (Michael W. Deem and Ramdas Pophale) SiO2 
 PCOD9291573
Probable space group: C 2/C
;
_chemical_formula_sum "Si O2"
_cell_formula_units_Z 36
_cell_length_a 5.384331
_cell_length_b 21.031054
_cell_length_c 16.074464
_cell_angle_alpha 90.000000
_cell_angle_beta 121.547960
_cell_angle_gamma 90.000000
_cell_volume 1551.215353
_symmetry_space_group_name_H-M "C 2/C"
_symmetry_group_IT_number 15
_symmetry_cell_setting 'monoclinic'
loop_
_space_group_symop_operation_xyz
x,y,z
-x,y,1/2-z
-x,-y,-z
x,-y,1/2+z
1/2+x,1/2+y,z
1/2-x,1/2+y,1/2-z
1/2-x,1/2-y,-z
1/2+x,1/2-y,1/2+z
loop_
_atom_site_type_symbol
_atom_site_label
_atom_site_fract_x
_atom_site_fract_y
_atom_site_fract_z
Si Si1 0.786281 0.900855 0.858946
Si Si2 0.094483 0.239295 0.060600
Si Si3 0.056602 0.516478 0.913807
Si Si4 0.658627 0.858090 0.187906
Si Si5 0.500000 0.540523 0.250000
O O1 0.500000 0.897432 0.750000
O O2 0.831030 0.833307 0.906118
O O3 0.777173 0.962443 0.917497
O O4 0.035707 0.915733 0.836274
O O5 0.188331 0.290942 0.145622
O O6 0.250000 0.250000 0.000000
O O7 0.750000 0.250000 0.000000
O O8 0.054775 0.592688 0.900440
O O9 0.785572 0.501533 0.803694
O O10 0.000000 0.500000 0.000000
O O11 0.500000 0.851818 0.250000
O O12 0.000000 0.879536 0.250000
#
# Coordination Sequence:
#
# PCOD9291573 Si02
#       5
#     8   8   8   8   4
#     4  10  24  43  71  96 140 190 239 291 363 441
#     4  12  28  47  71 107 145 191 252 303 367 446
#     4  11  24  43  70 104 143 188 241 304 366 441
#     4  12  26  47  74 107 152 194 244 311 380 439
#     4  10  22  42  68  98 134 182 236 290 358 444
#
# _framework density 23.207608
#
# number of rings (size 3 to 8) (size 9 to 14) (size 15 to 20)
#    0.000    0.889    1.111    5.333   10.889    0.889 
#    0.000    0.000    0.000    0.000    0.000    0.000 
#    0.000    0.000    0.000    0.000    0.000    0.000 
#
# Total GULP energy -100415.664142 kJ/mol
# GULP energy per Si atom -5578.648008 kJ/mol
# Density = 2.315479 g / cm^3
# Si number density = 23.207608 Si / 1000 Ang^3
#
#
#
# Elastic Constant Matrix: (Units=GPa)
#
#
# Indices 1 2 3 4 5 6 
#
# 1 141.1757 64.5464 53.9608 0.0000 -41.4335 0.0000
# 2 64.5464 181.9723 68.8778 0.0000 -16.3072 0.0000
# 3 53.9608 68.8778 97.2919 0.0000 -23.3380 0.0000
# 4 0.0000 0.0000 0.0000 52.6137 0.0000 4.9861
# 5 -41.4335 -16.3072 -23.3380 0.0000 53.5711 0.0000
# 6 0.0000 0.0000 0.0000 4.9861 0.0000 25.0117
#
#
#
# Elastic Compliance Matrix: (Units=1/GPa)
#
#
# Indices 1 2 3 4 5 6 
#
# 1 0.011227 -0.002231 -0.003046 0.000000 0.006678 0.000000
# 2 -0.002231 0.007950 -0.004717 0.000000 -0.001361 0.000000
# 3 -0.003046 -0.004717 0.016078 0.000000 0.003213 0.000000
# 4 0.000000 0.000000 0.000000 0.019372 0.000000 -0.003862
# 5 0.006678 -0.001361 0.003213 0.000000 0.024817 0.000000
# 6 0.000000 0.000000 0.000000 -0.003862 0.000000 0.040751
#
#
# Mechanical properties :
#
#
# Convention : Reuss Voigt Hill
#
# Bulk Modulus (GPa) = 65.49994 88.35666 76.92830
# Shear Modulus (GPa) = 34.41779 41.77629 38.09704
#
# Velocity S-wave (km/s) = 3.85520 4.24738 4.05603
# Velocity P-wave (km/s) = 6.93553 7.88724 7.42664
#
# Compressibility (1/GPa) = 0.01526719
#
# Stress axis : x y z
#
# Youngs Moduli (GPa) = 89.06751 125.77997 62.19731
#
# Poissons Ratio (x) = 0.28064 0.18943
# Poissons Ratio (y) = 0.19873 0.29341
# Poissons Ratio (z) = 0.27127 0.59335
#
# Static dielectric constant tensor:
#      x y z
#    x 2.062210 0.000000 0.208060 
#    y 0.000000 2.007510 0.000000 
#    z 0.208060 0.000000 2.119640 
# 
# From -- ./inp_files/184776.got.cif
#   From: 2010.05.17/outbox.cif.g08.bks.cpg/sg15_93_cif.got.tgz:184776.got - 2010.06.03 18:47:42.
