data_PCOD9291377
_publ_section_title
;
Structure prediction by ZEFSAII (Michael W. Deem and Ramdas Pophale) SiO2 
 PCOD9291377
Probable space group: C 2/C
;
_chemical_formula_sum "Si O2"
_cell_formula_units_Z 60
_cell_length_a 15.984836
_cell_length_b 10.742830
_cell_length_c 17.771152
_cell_angle_alpha 90.000000
_cell_angle_beta 61.996175
_cell_angle_gamma 90.000000
_cell_volume 2694.399440
_symmetry_space_group_name_H-M "C 2/C"
_symmetry_group_IT_number 15
_symmetry_cell_setting 'monoclinic'
loop_
_space_group_symop_operation_xyz
x,y,z
-x,y,1/2-z
-x,-y,-z
x,-y,1/2+z
1/2+x,1/2+y,z
1/2-x,1/2+y,1/2-z
1/2-x,1/2-y,-z
1/2+x,1/2-y,1/2+z
loop_
_atom_site_type_symbol
_atom_site_label
_atom_site_fract_x
_atom_site_fract_y
_atom_site_fract_z
Si Si1 0.269202 0.126594 0.443729
Si Si2 0.288264 0.498777 0.394729
Si Si3 0.000000 0.289092 0.250000
Si Si4 0.978966 0.907390 0.891300
Si Si5 0.608161 0.268499 0.220397
Si Si6 0.374046 0.458850 0.080866
Si Si7 0.788206 0.357471 0.705965
Si Si8 0.308813 0.127994 0.773117
O O1 0.250000 0.250000 0.500000
O O2 0.281750 0.029306 0.506228
O O3 0.353537 0.159559 0.351607
O O4 0.177200 0.079072 0.436160
O O5 0.388768 0.530730 0.389629
O O6 0.320265 0.381776 0.329359
O O7 0.243401 0.606963 0.364315
O O8 0.001908 0.205092 0.173508
O O9 0.095919 0.365819 0.219286
O O10 0.068997 0.996728 0.869049
O O11 0.943023 0.890239 0.992626
O O12 0.500000 0.301342 0.250000
O O13 0.794029 0.241610 0.234167
O O14 0.284636 0.373586 0.135950
O O15 0.878888 0.284772 0.700960
O O16 0.800225 0.496316 0.734926
#
# Coordination Sequence:
#
# PCOD9291377 Si02
#       8
#     8   8   4   8   8   8   8   8
#     4   9  20  41  67  93 134 181 222 274 344 403
#     4  10  22  42  67 101 127 182 235 277 332 418
#     4  12  26  40  66 102 138 178 230 288 354 408
#     4  10  23  42  70 101 135 178 243 284 332 415
#     4  11  24  39  68  99 139 177 230 284 344 414
#     4  10  22  43  68  99 137 184 232 285 340 410
#     4  12  24  44  67 100 135 185 225 287 342 408
#     4  12  26  43  70  97 145 182 228 285 349 408
#
# _framework density 22.268412000000001
#
# number of rings (size 3 to 8) (size 9 to 14) (size 15 to 20)
#    0.000    1.333    4.000    0.800    3.733    0.533 
#    0.000    0.667    0.000    0.000    0.000    0.000 
#    0.000    0.000    0.000    0.000    0.000    0.000 
#
# Total GULP energy -167095.670022 kJ/mol
# GULP energy per Si atom -5569.855667 kJ/mol
# Density = 2.221773 g / cm^3
# Si number density = 22.268412 Si / 1000 Ang^3
#
#
#
# Elastic Constant Matrix: (Units=GPa)
#
#
# Indices 1 2 3 4 5 6 
#
# 1 134.8536 40.9100 40.6697 0.0000 17.0846 0.0000
# 2 40.9100 87.2383 14.8216 0.0000 16.4122 0.0000
# 3 40.6697 14.8216 53.9079 0.0000 3.5117 0.0000
# 4 0.0000 0.0000 0.0000 25.6733 0.0000 6.1407
# 5 17.0846 16.4122 3.5117 0.0000 41.3034 0.0000
# 6 0.0000 0.0000 0.0000 6.1407 0.0000 43.8823
#
#
#
# Elastic Compliance Matrix: (Units=1/GPa)
#
#
# Indices 1 2 3 4 5 6 
#
# 1 0.010933 -0.003434 -0.007138 0.000000 -0.002551 0.000000
# 2 -0.003434 0.014006 -0.000995 0.000000 -0.004060 0.000000
# 3 -0.007138 -0.000995 0.024124 0.000000 0.001297 0.000000
# 4 0.000000 0.000000 0.000000 0.040300 0.000000 -0.005639
# 5 -0.002551 -0.004060 0.001297 0.000000 0.026769 0.000000
# 6 0.000000 0.000000 0.000000 -0.005639 0.000000 0.023577
#
#
# Mechanical properties :
#
#
# Convention : Reuss Voigt Hill
#
# Bulk Modulus (GPa) = 38.56762 52.08916 45.32839
# Shear Modulus (GPa) = 29.15642 34.14503 31.65072
#
# Velocity S-wave (km/s) = 3.62237 3.92004 3.77414
# Velocity P-wave (km/s) = 5.90360 6.62806 6.27629
#
# Compressibility (1/GPa) = 0.02592848
#
# Stress axis : x y z
#
# Youngs Moduli (GPa) = 91.46469 71.39582 41.45188
#
# Poissons Ratio (x) = 0.24521 0.29588
# Poissons Ratio (y) = 0.31413 0.04126
# Poissons Ratio (z) = 0.65286 0.07107
#
# Static dielectric constant tensor:
#      x y z
#    x 1.819280 0.000000 0.028430 
#    y 0.000000 1.945850 0.000000 
#    z 0.028430 0.000000 1.929940 
# 
# From -- ./inp_files/205053.got.cif
#   From: 2010.05.17/outbox.cif.g08.bks.cpg/sg15_103_cif.got.tgz:205053.got - 2010.06.03 18:47:42.
