data_PCOD9291862
_publ_section_title
;
Structure prediction by ZEFSAII (Michael W. Deem and Ramdas Pophale) SiO2 
 PCOD9291862
Probable space group: C 2/C
;
_chemical_formula_sum "Si O2"
_cell_formula_units_Z 28
_cell_length_a 7.054615
_cell_length_b 13.033646
_cell_length_c 11.831073
_cell_angle_alpha 90.000000
_cell_angle_beta 72.732184
_cell_angle_gamma 90.000000
_cell_volume 1038.804588
_symmetry_space_group_name_H-M "C 2/C"
_symmetry_group_IT_number 15
_symmetry_cell_setting 'monoclinic'
loop_
_space_group_symop_operation_xyz
x,y,z
-x,y,1/2-z
-x,-y,-z
x,-y,1/2+z
1/2+x,1/2+y,z
1/2-x,1/2+y,1/2-z
1/2-x,1/2-y,-z
1/2+x,1/2-y,1/2+z
loop_
_atom_site_type_symbol
_atom_site_label
_atom_site_fract_x
_atom_site_fract_y
_atom_site_fract_z
Si Si1 0.904369 0.695630 0.883554
Si Si2 0.075062 0.090073 0.853367
Si Si3 0.652117 0.087124 0.015801
Si Si4 0.000000 0.295002 0.750000
O O1 0.793734 0.587403 0.866545
O O2 0.000000 0.741640 0.750000
O O3 0.750000 0.750000 0.000000
O O4 0.094799 0.672418 0.929729
O O5 0.000000 0.037971 0.750000
O O6 0.095105 0.211591 0.817270
O O7 0.886835 0.072437 0.964192
O O8 0.614586 0.131786 0.145512
O O9 0.500000 0.000000 0.000000
#
# Coordination Sequence:
#
# PCOD9291862 Si02
#       4
#     8   8   8   4
#     4  12  24  42  75 106 137 190 247 288 348 438
#     4  10  22  42  73  94 137 182 238 274 349 421
#     4  12  27  44  68 107 145 176 230 306 360 418
#     4  10  22  44  72  98 140 188 230 282 348 430
#
# _framework density 26.954059999999998
#
# number of rings (size 3 to 8) (size 9 to 14) (size 15 to 20)
#    0.857    0.000    5.714    0.857    6.000    1.143 
#    0.000    1.429    0.000    0.000    0.000    0.000 
#    0.000    0.000    0.000    0.000    0.000    0.000 
#
# Total GULP energy -77977.931815 kJ/mol
# GULP energy per Si atom -5569.852273 kJ/mol
# Density = 2.689271 g / cm^3
# Si number density = 26.954060 Si / 1000 Ang^3
#
#
#
# Elastic Constant Matrix: (Units=GPa)
#
#
# Indices 1 2 3 4 5 6 
#
# 1 175.8442 20.9889 51.7130 0.0000 0.5259 0.0000
# 2 20.9889 88.9838 34.5217 0.0000 -11.9581 0.0000
# 3 51.7130 34.5217 233.2508 0.0000 -10.2345 0.0000
# 4 0.0000 0.0000 0.0000 349.3407 0.0000 -165.5812
# 5 0.5259 -11.9581 -10.2345 0.0000 57.2750 0.0000
# 6 0.0000 0.0000 0.0000 -165.5812 0.0000 119.3693
#
#
#
# Elastic Compliance Matrix: (Units=1/GPa)
#
#
# Indices 1 2 3 4 5 6 
#
# 1 0.006177 -0.001044 -0.001237 0.000000 -0.000496 0.000000
# 2 -0.001044 0.012378 -0.001499 0.000000 0.002326 0.000000
# 3 -0.001237 -0.001499 0.004808 0.000000 0.000558 0.000000
# 4 0.000000 0.000000 0.000000 0.008357 0.000000 0.011593
# 5 -0.000496 0.002326 0.000558 0.000000 0.018049 0.000000
# 6 0.000000 0.000000 0.000000 0.011593 0.000000 0.024458
#
#
# Mechanical properties :
#
#
# Convention : Reuss Voigt Hill
#
# Bulk Modulus (GPa) = 63.27283 79.16956 71.22119
# Shear Modulus (GPa) = 57.43637 131.25402 94.34520
#
# Velocity S-wave (km/s) = 4.62117 6.98578 5.92269
# Velocity P-wave (km/s) = 7.21103 9.72132 8.55871
#
# Compressibility (1/GPa) = 0.01580457
#
# Stress axis : x y z
#
# Youngs Moduli (GPa) = 161.90146 80.78747 208.00155
#
# Poissons Ratio (x) = 0.08432 0.25723
# Poissons Ratio (y) = 0.16898 0.31170
# Poissons Ratio (z) = 0.20022 0.12106
#
# Static dielectric constant tensor:
#      x y z
#    x 2.946180 0.000000 0.250310 
#    y 0.000000 2.296590 0.000000 
#    z 0.250310 0.000000 2.212700 
# 
# From -- ./inp_files/75486.got.cif
#   From: 2010.05.17/outbox.cif.g08.bks.cpg/sg15_38_cif.got.tgz:75486.got - 2010.06.03 18:47:42.
