data_PCOD9291663
_publ_section_title
;
Structure prediction by ZEFSAII (Michael W. Deem and Ramdas Pophale) SiO2 
 PCOD9291663
Probable space group: C 2/C
;
_chemical_formula_sum "Si O2"
_cell_formula_units_Z 52
_cell_length_a 11.189784
_cell_length_b 9.200657
_cell_length_c 26.095965
_cell_angle_alpha 90.000000
_cell_angle_beta 56.803579
_cell_angle_gamma 90.000000
_cell_volume 2248.199289
_symmetry_space_group_name_H-M "C 2/C"
_symmetry_group_IT_number 15
_symmetry_cell_setting 'monoclinic'
loop_
_space_group_symop_operation_xyz
x,y,z
-x,y,1/2-z
-x,-y,-z
x,-y,1/2+z
1/2+x,1/2+y,z
1/2-x,1/2+y,1/2-z
1/2-x,1/2-y,-z
1/2+x,1/2-y,1/2+z
loop_
_atom_site_type_symbol
_atom_site_label
_atom_site_fract_x
_atom_site_fract_y
_atom_site_fract_z
Si Si1 0.000000 0.468933 0.750000
Si Si2 0.653644 0.086033 0.910663
Si Si3 0.877072 0.920949 0.061341
Si Si4 0.393099 0.329498 0.171050
Si Si5 0.272026 0.982445 0.719321
Si Si6 0.670475 0.851980 0.620902
Si Si7 0.157565 0.640196 0.487317
O O1 0.096679 0.534339 0.773489
O O2 0.115605 0.378933 0.691240
O O3 0.707635 0.040544 0.842563
O O4 0.691488 0.252303 0.910886
O O5 0.725462 0.991567 0.939366
O O6 0.483151 0.075692 0.953531
O O7 0.875664 0.921042 0.123170
O O8 0.889309 0.751748 0.046035
O O9 0.725826 0.998739 0.083067
O O10 0.000000 0.000000 0.000000
O O11 0.367951 0.446370 0.222204
O O12 0.541883 0.243222 0.129028
O O13 0.287404 0.192831 0.209396
O O14 0.250000 0.750000 0.500000
#
# Coordination Sequence:
#
# PCOD9291663 Si02
#       7
#     4   8   8   8   8   8   8
#     4  10  22  42  70 100 134 182 224 298 358 430
#     4  11  24  45  67 101 142 184 235 301 351 434
#     4  12  25  46  70 105 140 188 239 288 358 438
#     4  11  26  45  73 105 140 188 238 302 363 435
#     4  11  23  45  71 100 144 180 241 296 366 433
#     4  11  24  43  72  99 139 183 237 290 362 423
#     4  11  27  44  67 101 142 185 234 292 360 426
#
# _framework density 23.129622999999999
#
# number of rings (size 3 to 8) (size 9 to 14) (size 15 to 20)
#    0.000    0.923    4.615    1.846    6.462    0.615 
#    0.000    0.000    0.000    0.000    0.000    0.000 
#    0.000    0.000    0.000    0.000    0.000    0.000 
#
# Total GULP energy -144926.657839 kJ/mol
# GULP energy per Si atom -5574.102225 kJ/mol
# Density = 2.307698 g / cm^3
# Si number density = 23.129623 Si / 1000 Ang^3
#
#
#
# Elastic Constant Matrix: (Units=GPa)
#
#
# Indices 1 2 3 4 5 6 
#
# 1 65.2675 11.1988 30.0490 0.0000 1.4225 0.0000
# 2 11.1988 91.3423 46.0095 0.0000 -13.1366 0.0000
# 3 30.0490 46.0095 121.2761 0.0000 -1.7276 0.0000
# 4 0.0000 0.0000 0.0000 29.1648 0.0000 -10.5162
# 5 1.4225 -13.1366 -1.7276 0.0000 25.0825 0.0000
# 6 0.0000 0.0000 0.0000 -10.5162 0.0000 33.9536
#
#
#
# Elastic Compliance Matrix: (Units=1/GPa)
#
#
# Indices 1 2 3 4 5 6 
#
# 1 0.017338 -0.000185 -0.004245 0.000000 -0.001372 0.000000
# 2 -0.000185 0.014779 -0.005456 0.000000 0.007375 0.000000
# 3 -0.004245 -0.005456 0.011341 0.000000 -0.001836 0.000000
# 4 0.000000 0.000000 0.000000 0.038599 0.000000 0.011955
# 5 -0.001372 0.007375 -0.001836 0.000000 0.043682 0.000000
# 6 0.000000 0.000000 0.000000 0.011955 0.000000 0.033155
#
#
# Mechanical properties :
#
#
# Convention : Reuss Voigt Hill
#
# Bulk Modulus (GPa) = 42.21869 50.26672 46.24271
# Shear Modulus (GPa) = 26.80077 30.34876 28.57476
#
# Velocity S-wave (km/s) = 3.40769 3.62624 3.51866
# Velocity P-wave (km/s) = 5.81170 6.26998 6.04518
#
# Compressibility (1/GPa) = 0.02368619
#
# Stress axis : x y z
#
# Youngs Moduli (GPa) = 57.67780 67.66152 88.17294
#
# Poissons Ratio (x) = 0.01249 0.37432
# Poissons Ratio (y) = 0.01065 0.48109
# Poissons Ratio (z) = 0.24486 0.36917
#
# Static dielectric constant tensor:
#      x y z
#    x 2.000140 0.000000 0.063160 
#    y 0.000000 1.840530 0.000000 
#    z 0.063160 0.000000 1.908490 
# 
# From -- ./inp_files/291456.got.cif
#   From: 2010.05.17/outbox.cif.g08.bks.cpg/sg15_146_cif.got.tgz:291456.got - 2010.06.03 18:47:42.
