data_PCOD9291841
_publ_section_title
;
Structure prediction by ZEFSAII (Michael W. Deem and Ramdas Pophale) SiO2 
 PCOD9291841
Probable space group: C 2/C
;
_chemical_formula_sum "Si O2"
_cell_formula_units_Z 24
_cell_length_a 7.229759
_cell_length_b 10.678542
_cell_length_c 12.086777
_cell_angle_alpha 90.000000
_cell_angle_beta 94.121009
_cell_angle_gamma 90.000000
_cell_volume 930.726260
_symmetry_space_group_name_H-M "C 2/C"
_symmetry_group_IT_number 15
_symmetry_cell_setting 'monoclinic'
loop_
_space_group_symop_operation_xyz
x,y,z
-x,y,1/2-z
-x,-y,-z
x,-y,1/2+z
1/2+x,1/2+y,z
1/2-x,1/2+y,1/2-z
1/2-x,1/2-y,-z
1/2+x,1/2-y,1/2+z
loop_
_atom_site_type_symbol
_atom_site_label
_atom_site_fract_x
_atom_site_fract_y
_atom_site_fract_z
Si Si1 0.992304 0.062018 0.366282
Si Si2 0.561687 0.700238 0.934997
Si Si3 0.054584 0.463915 0.874080
O O1 0.058270 0.150935 0.466894
O O2 0.777427 0.031349 0.379047
O O3 0.000000 0.127697 0.250000
O O4 0.095093 0.927907 0.368758
O O5 0.485223 0.818951 0.868096
O O6 0.750000 0.750000 0.000000
O O7 0.000000 0.520619 0.750000
O O8 0.000000 0.500000 0.000000
#
# Coordination Sequence:
#
# PCOD9291841 Si02
#       3
#     8   8   8
#     4  10  22  42  72  96 135 184 237 291 359 417
#     4   9  21  42  66  96 135 176 238 286 349 417
#     4  11  26  44  66 103 146 182 235 294 354 424
#
# _framework density 25.786317
#
# number of rings (size 3 to 8) (size 9 to 14) (size 15 to 20)
#    0.000    2.000    0.000    1.000   14.000    2.667 
#    6.000    0.000    0.000    0.000    0.000    0.000 
#    0.000    0.000    0.000    0.000    0.000    0.000 
#
# Total GULP energy -66849.990221 kJ/mol
# GULP energy per Si atom -5570.832518 kJ/mol
# Density = 2.572763 g / cm^3
# Si number density = 25.786317 Si / 1000 Ang^3
#
#
#
# Elastic Constant Matrix: (Units=GPa)
#
#
# Indices 1 2 3 4 5 6 
#
# 1 93.6394 -8.6488 21.0742 0.0000 -10.7342 0.0000
# 2 -8.6488 105.2405 31.1717 0.0000 0.3030 0.0000
# 3 21.0742 31.1717 226.6719 0.0000 -16.8346 0.0000
# 4 0.0000 0.0000 0.0000 21.7461 0.0000 8.3732
# 5 -10.7342 0.3030 -16.8346 0.0000 34.5392 0.0000
# 6 0.0000 0.0000 0.0000 8.3732 0.0000 21.8599
#
#
#
# Elastic Compliance Matrix: (Units=1/GPa)
#
#
# Indices 1 2 3 4 5 6 
#
# 1 0.011365 0.001221 -0.000999 0.000000 0.003034 0.000000
# 2 0.001221 0.010057 -0.001530 0.000000 -0.000455 0.000000
# 3 -0.000999 -0.001530 0.004869 0.000000 0.002076 0.000000
# 4 0.000000 0.000000 0.000000 0.053941 0.000000 -0.020661
# 5 0.003034 -0.000455 0.002076 0.000000 0.030912 0.000000
# 6 0.000000 0.000000 0.000000 -0.020661 0.000000 0.053660
#
#
# Mechanical properties :
#
#
# Convention : Reuss Voigt Hill
#
# Bulk Modulus (GPa) = 42.23993 56.97179 49.60586
# Shear Modulus (GPa) = 28.52069 41.09269 34.80669
#
# Velocity S-wave (km/s) = 3.32933 3.99630 3.67797
# Velocity P-wave (km/s) = 5.58530 6.59058 6.10865
#
# Compressibility (1/GPa) = 0.02367428
#
# Stress axis : x y z
#
# Youngs Moduli (GPa) = 87.99132 99.43333 205.37239
#
# Poissons Ratio (x) = -0.12143 0.20521
# Poissons Ratio (y) = -0.10745 0.31429
# Poissons Ratio (z) = 0.08792 0.15217
#
# Static dielectric constant tensor:
#      x y z
#    x 2.105800 0.000000 -0.017210 
#    y 0.000000 2.140420 0.000000 
#    z -0.017210 0.000000 2.136270 
# 
# From -- ./inp_files/74716.got.cif
#   From: 2010.05.17/outbox.cif.g08.bks.cpg/sg15_38_cif.got.tgz:74716.got - 2010.06.03 18:47:42.
