data_PCOD9291149
_publ_section_title
;
Structure prediction by ZEFSAII (Michael W. Deem and Ramdas Pophale) SiO2 
 PCOD9291149
Probable space group: C 2/C
;
_chemical_formula_sum "Si O2"
_cell_formula_units_Z 52
_cell_length_a 12.323422
_cell_length_b 15.371326
_cell_length_c 13.892072
_cell_angle_alpha 90.000000
_cell_angle_beta 114.171232
_cell_angle_gamma 90.000000
_cell_volume 2400.820255
_symmetry_space_group_name_H-M "C 2/C"
_symmetry_group_IT_number 15
_symmetry_cell_setting 'monoclinic'
loop_
_space_group_symop_operation_xyz
x,y,z
-x,y,1/2-z
-x,-y,-z
x,-y,1/2+z
1/2+x,1/2+y,z
1/2-x,1/2+y,1/2-z
1/2-x,1/2-y,-z
1/2+x,1/2-y,1/2+z
loop_
_atom_site_type_symbol
_atom_site_label
_atom_site_fract_x
_atom_site_fract_y
_atom_site_fract_z
Si Si1 0.500000 0.884222 0.750000
Si Si2 0.329309 0.967684 0.273158
Si Si3 0.111639 0.239022 0.928565
Si Si4 0.811061 0.058020 0.601957
Si Si5 0.500000 0.174630 0.750000
Si Si6 0.864809 0.963675 0.447314
Si Si7 0.500000 0.576294 0.250000
Si Si8 0.475100 0.303877 0.575110
O O1 0.560336 0.818908 0.849053
O O2 0.595598 0.947059 0.730247
O O3 0.306208 0.948602 0.376783
O O4 0.398936 0.886297 0.255776
O O5 0.198319 0.964410 0.177640
O O6 0.115290 0.147569 0.871807
O O7 0.250000 0.250000 0.000000
O O8 0.045417 0.227216 0.006739
O O9 0.787935 0.029392 0.484235
O O10 0.897326 0.982514 0.670558
O O11 0.445192 0.228247 0.639892
O O12 0.872948 0.866850 0.495080
O O13 0.000000 0.000000 0.500000
O O14 0.453892 0.634654 0.322591
#
# Coordination Sequence:
#
# PCOD9291149 Si02
#       8
#     4   8   8   8   4   8   4   8
#     4  11  29  45  67 106 146 188 227 291 355 415
#     4  11  25  46  67  94 142 183 228 279 351 422
#     4  12  25  42  69 102 139 180 235 286 350 411
#     4  11  22  38  68  98 126 180 226 285 331 415
#     4  10  24  46  64  94 136 182 222 282 350 416
#     4  11  22  41  70  97 132 173 228 282 353 404
#     4   9  21  37  69  94 132 166 223 279 351 389
#     4  10  22  42  65 100 133 168 225 291 335 412
#
# _framework density 21.659262999999999
#
# number of rings (size 3 to 8) (size 9 to 14) (size 15 to 20)
#    0.000    1.231    1.538    4.154    4.308    1.846 
#    2.769    3.846    0.000    0.000    0.000    0.000 
#    0.000    0.000    0.000    0.000    0.000    0.000 
#
# Total GULP energy -145095.716896 kJ/mol
# GULP energy per Si atom -5580.604496 kJ/mol
# Density = 2.160997 g / cm^3
# Si number density = 21.659263 Si / 1000 Ang^3
#
#
#
# Elastic Constant Matrix: (Units=GPa)
#
#
# Indices 1 2 3 4 5 6 
#
# 1 103.9189 45.9099 38.9163 0.0000 -36.9823 0.0000
# 2 45.9099 132.3887 44.0622 0.0000 -23.2744 0.0000
# 3 38.9163 44.0622 85.1217 0.0000 -18.6994 0.0000
# 4 0.0000 0.0000 0.0000 16.6470 0.0000 -6.7394
# 5 -36.9823 -23.2744 -18.6994 0.0000 46.7856 0.0000
# 6 0.0000 0.0000 0.0000 -6.7394 0.0000 18.5589
#
#
#
# Elastic Compliance Matrix: (Units=1/GPa)
#
#
# Indices 1 2 3 4 5 6 
#
# 1 0.015496 -0.002460 -0.003715 0.000000 0.009541 0.000000
# 2 -0.002460 0.009892 -0.003663 0.000000 0.001512 0.000000
# 3 -0.003715 -0.003663 0.015674 0.000000 0.001505 0.000000
# 4 0.000000 0.000000 0.000000 0.070424 0.000000 0.025573
# 5 0.009541 0.001512 0.001505 0.000000 0.030269 0.000000
# 6 0.000000 0.000000 0.000000 0.025573 0.000000 0.063169
#
#
# Mechanical properties :
#
#
# Convention : Reuss Voigt Hill
#
# Bulk Modulus (GPa) = 46.76461 64.35624 55.56043
# Shear Modulus (GPa) = 21.57688 29.23436 25.40562
#
# Velocity S-wave (km/s) = 3.15968 3.67787 3.42858
# Velocity P-wave (km/s) = 5.91180 6.91470 6.43283
#
# Compressibility (1/GPa) = 0.02138369
#
# Stress axis : x y z
#
# Youngs Moduli (GPa) = 64.53151 101.09472 63.80195
#
# Poissons Ratio (x) = 0.24869 0.23705
# Poissons Ratio (y) = 0.15875 0.23374
# Poissons Ratio (z) = 0.23976 0.37036
#
# Static dielectric constant tensor:
#      x y z
#    x 1.816800 0.000000 -0.036680 
#    y 0.000000 1.873220 0.000000 
#    z -0.036680 0.000000 1.844350 
# 
# From -- ./inp_files/144356.got.cif
#   From: 2010.05.17/outbox.cif.g08.bks.cpg/sg15_73_cif.got.tgz:144356.got - 2010.06.03 18:47:42.
