data_PCOD9291455
_publ_section_title
;
Structure prediction by ZEFSAII (Michael W. Deem and Ramdas Pophale) SiO2 
 PCOD9291455
Probable space group: C 2/C
;
_chemical_formula_sum "Si O2"
_cell_formula_units_Z 44
_cell_length_a 21.515794
_cell_length_b 5.393976
_cell_length_c 17.110878
_cell_angle_alpha 90.000000
_cell_angle_beta 86.419985
_cell_angle_gamma 90.000000
_cell_volume 1981.939342
_symmetry_space_group_name_H-M "C 2/C"
_symmetry_group_IT_number 15
_symmetry_cell_setting 'monoclinic'
loop_
_space_group_symop_operation_xyz
x,y,z
-x,y,1/2-z
-x,-y,-z
x,-y,1/2+z
1/2+x,1/2+y,z
1/2-x,1/2+y,1/2-z
1/2-x,1/2-y,-z
1/2+x,1/2-y,1/2+z
loop_
_atom_site_type_symbol
_atom_site_label
_atom_site_fract_x
_atom_site_fract_y
_atom_site_fract_z
Si Si1 0.002737 0.229943 0.906789
Si Si2 0.597978 0.095114 0.981235
Si Si3 0.274393 0.575676 0.710774
Si Si4 0.274898 0.998274 0.458407
Si Si5 0.500000 0.045506 0.750000
Si Si6 0.903944 0.858613 0.672580
O O1 0.052206 0.379139 0.955850
O O2 0.989617 0.387076 0.829289
O O3 0.036889 0.989257 0.872492
O O4 0.942015 0.208956 0.965004
O O5 0.624108 0.200803 0.897271
O O6 0.651609 0.999914 0.032820
O O7 0.253731 0.853977 0.733916
O O8 0.246961 0.514166 0.628327
O O9 0.349510 0.541000 0.704644
O O10 0.250000 0.750000 0.500000
O O11 0.250000 0.250000 0.500000
O O12 0.436986 0.200634 0.737494
#
# Coordination Sequence:
#
# PCOD9291455 Si02
#       6
#     8   8   8   8   4   8
#     4  10  22  42  67  98 136 175 230 294 352 416
#     4  10  23  41  69 101 129 182 238 288 349 424
#     4  12  29  47  73 108 146 192 240 299 365 430
#     4  12  25  47  74 104 142 195 240 295 355 425
#     4  10  24  38  64  98 132 184 218 286 362 418
#     4  11  23  44  67  95 143 177 235 292 357 422
#
# _framework density 22.200475999999998
#
# number of rings (size 3 to 8) (size 9 to 14) (size 15 to 20)
#    0.000    1.091    1.818    3.273    7.636    1.455 
#    0.000    0.000    0.000    0.000    0.000    0.000 
#    0.000    0.000    0.000    0.000    0.000    0.000 
#
# Total GULP energy -123003.495536 kJ/mol
# GULP energy per Si atom -5591.067979 kJ/mol
# Density = 2.214995 g / cm^3
# Si number density = 22.200476 Si / 1000 Ang^3
#
#
#
# Elastic Constant Matrix: (Units=GPa)
#
#
# Indices 1 2 3 4 5 6 
#
# 1 91.6386 1.4612 41.1471 0.0000 16.4543 0.0000
# 2 1.4612 59.8687 12.9965 0.0000 1.3673 0.0000
# 3 41.1471 12.9965 88.9433 0.0000 27.9587 0.0000
# 4 0.0000 0.0000 0.0000 42.6932 0.0000 -8.7354
# 5 16.4543 1.3673 27.9587 0.0000 41.0344 0.0000
# 6 0.0000 0.0000 0.0000 -8.7354 0.0000 20.3313
#
#
#
# Elastic Compliance Matrix: (Units=1/GPa)
#
#
# Indices 1 2 3 4 5 6 
#
# 1 0.013907 0.001025 -0.006133 0.000000 -0.001432 0.000000
# 2 0.001025 0.017394 -0.003441 0.000000 0.001354 0.000000
# 3 -0.006133 -0.003441 0.017528 0.000000 -0.009369 0.000000
# 4 0.000000 0.000000 0.000000 0.025680 0.000000 0.011034
# 5 -0.001432 0.001354 -0.009369 0.000000 0.031282 0.000000
# 6 0.000000 0.000000 0.000000 0.011034 0.000000 0.053926
#
#
# Mechanical properties :
#
#
# Convention : Reuss Voigt Hill
#
# Bulk Modulus (GPa) = 31.51623 39.07335 35.29479
# Shear Modulus (GPa) = 26.68154 33.13485 29.90819
#
# Velocity S-wave (km/s) = 3.47053 3.86752 3.67439
# Velocity P-wave (km/s) = 5.50331 6.13042 5.82531
#
# Compressibility (1/GPa) = 0.03172968
#
# Stress axis : x y z
#
# Youngs Moduli (GPa) = 71.90526 57.48985 57.05000
#
# Poissons Ratio (x) = -0.05891 0.34991
# Poissons Ratio (y) = -0.07368 0.19634
# Poissons Ratio (z) = 0.44103 0.19785
#
# Static dielectric constant tensor:
#      x y z
#    x 1.819060 0.000000 -0.027850 
#    y 0.000000 1.860840 0.000000 
#    z -0.027850 0.000000 1.814410 
# 
# From -- ./inp_files/212889.got.cif
#   From: 2010.05.17/outbox.cif.g08.bks.cpg/sg15_107_cif.got.tgz:212889.got - 2010.06.03 18:47:42.
