data_PCOD9291952
_publ_section_title
;
Structure prediction by ZEFSAII (Michael W. Deem and Ramdas Pophale) SiO2 
 PCOD9291952
Probable space group: C 2/C
;
_chemical_formula_sum "Si O2"
_cell_formula_units_Z 32
_cell_length_a 18.214387
_cell_length_b 12.111807
_cell_length_c 14.737849
_cell_angle_alpha 90.000000
_cell_angle_beta 24.586149
_cell_angle_gamma 90.000000
_cell_volume 1352.740797
_symmetry_space_group_name_H-M "C 2/C"
_symmetry_group_IT_number 15
_symmetry_cell_setting 'monoclinic'
loop_
_space_group_symop_operation_xyz
x,y,z
-x,y,1/2-z
-x,-y,-z
x,-y,1/2+z
1/2+x,1/2+y,z
1/2-x,1/2+y,1/2-z
1/2-x,1/2-y,-z
1/2+x,1/2-y,1/2+z
loop_
_atom_site_type_symbol
_atom_site_label
_atom_site_fract_x
_atom_site_fract_y
_atom_site_fract_z
Si Si1 0.920682 0.789950 0.254561
Si Si2 0.725207 0.611177 0.106713
Si Si3 0.821094 0.402294 0.103711
Si Si4 0.193531 0.136152 0.939482
O O1 0.750000 0.750000 0.500000
O O2 0.863234 0.854754 0.230619
O O3 0.000000 0.859323 0.250000
O O4 0.033714 0.684462 0.095570
O O5 0.823801 0.522028 0.056856
O O6 0.789915 0.732056 0.063838
O O7 0.511139 0.609648 0.352441
O O8 0.757668 0.589089 0.963664
O O9 0.809266 0.401994 0.224698
#
# Coordination Sequence:
#
# PCOD9291952 Si02
#       4
#     8   8   8   8
#     4   9  21  41  62  98 131 160 222 283 329 411
#     4  10  23  43  65  96 143 179 223 288 332 398
#     4  11  21  42  71  94 133 185 222 279 353 396
#     4  10  22  43  64 100 136 176 240 274 326 423
#
# _framework density 23.655678000000002
#
# number of rings (size 3 to 8) (size 9 to 14) (size 15 to 20)
#    0.000    2.000    0.000    2.250    3.500    0.000 
#   36.000    2.500    0.000    0.000    0.000    0.000 
#    0.000    0.000    0.000    0.000    0.000    0.000 
#
# Total GULP energy -89417.113373 kJ/mol
# GULP energy per Si atom -5588.569586 kJ/mol
# Density = 2.360184 g / cm^3
# Si number density = 23.655678 Si / 1000 Ang^3
#
#
#
# Elastic Constant Matrix: (Units=GPa)
#
#
# Indices 1 2 3 4 5 6 
#
# 1 131.5945 49.1827 62.6006 -0.0002 45.5210 0.0000
# 2 49.1827 95.8940 36.9275 -0.0001 11.6655 0.0000
# 3 62.6006 36.9275 106.2610 0.0001 30.4801 -0.0001
# 4 -0.0002 -0.0001 0.0001 31.9246 0.0000 -6.2728
# 5 45.5210 11.6655 30.4801 0.0000 49.4862 0.0000
# 6 0.0000 0.0000 -0.0001 -6.2728 0.0000 46.2856
#
#
#
# Elastic Compliance Matrix: (Units=1/GPa)
#
#
# Indices 1 2 3 4 5 6 
#
# 1 0.014819 -0.004766 -0.004234 0.000000 -0.009900 0.000000
# 2 -0.004766 0.013576 -0.002733 0.000000 0.002867 0.000000
# 3 -0.004234 -0.002733 0.014032 0.000000 -0.004104 0.000000
# 4 0.000000 0.000000 0.000000 0.032181 0.000000 0.004361
# 5 -0.009900 0.002867 -0.004104 0.000000 0.031166 0.000000
# 6 0.000000 0.000000 0.000000 0.004361 0.000000 0.022196
#
#
# Mechanical properties :
#
#
# Convention : Reuss Voigt Hill
#
# Bulk Modulus (GPa) = 52.73687 70.13014 61.43351
# Shear Modulus (GPa) = 31.69442 37.87519 34.78480
#
# Velocity S-wave (km/s) = 3.66433 4.00572 3.83882
# Velocity P-wave (km/s) = 6.34390 7.14877 6.75833
#
# Compressibility (1/GPa) = 0.01896207
#
# Stress axis : x y z
#
# Youngs Moduli (GPa) = 67.47958 73.65948 71.26547
#
# Poissons Ratio (x) = 0.35103 0.30177
# Poissons Ratio (y) = 0.32158 0.19474
# Poissons Ratio (z) = 0.28573 0.20128
#
# Static dielectric constant tensor:
#      x y z
#    x 1.632390 0.000000 0.160220 
#    y 0.000000 1.883860 0.000000 
#    z 0.160220 0.000000 1.784550 
# 
# From -- ./inp_files/36863.got.cif
#   From: 2010.05.17/outbox.cif.g08.bks.cpg/sg15_19_cif.got.tgz:36863.got - 2010.06.03 18:47:42.
