data_PCOD9291750
_publ_section_title
;
Structure prediction by ZEFSAII (Michael W. Deem and Ramdas Pophale) SiO2 
 PCOD9291750
Probable space group: C 2/C
;
_chemical_formula_sum "Si O2"
_cell_formula_units_Z 36
_cell_length_a 12.331650
_cell_length_b 18.126127
_cell_length_c 9.206451
_cell_angle_alpha 90.000000
_cell_angle_beta 60.439618
_cell_angle_gamma 90.000000
_cell_volume 1790.012092
_symmetry_space_group_name_H-M "C 2/C"
_symmetry_group_IT_number 15
_symmetry_cell_setting 'monoclinic'
loop_
_space_group_symop_operation_xyz
x,y,z
-x,y,1/2-z
-x,-y,-z
x,-y,1/2+z
1/2+x,1/2+y,z
1/2-x,1/2+y,1/2-z
1/2-x,1/2-y,-z
1/2+x,1/2-y,1/2+z
loop_
_atom_site_type_symbol
_atom_site_label
_atom_site_fract_x
_atom_site_fract_y
_atom_site_fract_z
Si Si1 0.048403 0.114749 0.373378
Si Si2 0.396329 0.745644 0.945401
Si Si3 0.000000 0.516587 0.750000
Si Si4 0.623334 0.092968 0.938101
Si Si5 0.885938 0.960024 0.212722
O O1 0.092065 0.180683 0.444923
O O2 0.000000 0.140882 0.250000
O O3 0.934622 0.074086 0.530948
O O4 0.145287 0.046771 0.287869
O O5 0.500000 0.732779 0.750000
O O6 0.250000 0.750000 0.000000
O O7 0.425207 0.825739 0.994941
O O8 0.918746 0.565749 0.693460
O O9 0.076466 0.463634 0.591652
O O10 0.772234 0.087514 0.843873
O O11 0.000000 0.957297 0.250000
#
# Coordination Sequence:
#
# PCOD9291750 Si02
#       5
#     8   8   4   8   8
#     4  10  23  40  66 105 129 169 222 277 333 387
#     4  12  26  45  68  97 140 180 217 278 343 404
#     4  10  26  42  66  92 130 182 222 266 318 402
#     4  11  24  45  67  95 133 175 225 269 329 399
#     4  10  22  42  70  99 130 171 222 276 332 394
#
# _framework density 20.111595000000001
#
# number of rings (size 3 to 8) (size 9 to 14) (size 15 to 20)
#    0.000    1.333    1.111    3.333   14.000    0.889 
#    0.000    2.222    0.000    0.000    0.000    0.000 
#    0.000    0.000    0.000    0.000    0.000    0.000 
#
# Total GULP energy -100576.183487 kJ/mol
# GULP energy per Si atom -5587.565749 kJ/mol
# Density = 2.006582 g / cm^3
# Si number density = 20.111595 Si / 1000 Ang^3
#
#
#
# Elastic Constant Matrix: (Units=GPa)
#
#
# Indices 1 2 3 4 5 6 
#
# 1 95.1259 47.0358 62.1859 0.0000 18.2863 0.0000
# 2 47.0358 135.6105 44.5061 0.0000 29.2017 0.0000
# 3 62.1859 44.5061 116.3602 0.0000 25.9326 0.0000
# 4 0.0000 0.0000 0.0000 19.5664 0.0000 2.8628
# 5 18.2863 29.2017 25.9326 0.0000 36.6357 0.0000
# 6 0.0000 0.0000 0.0000 2.8628 0.0000 24.7620
#
#
#
# Elastic Compliance Matrix: (Units=1/GPa)
#
#
# Indices 1 2 3 4 5 6 
#
# 1 0.017446 -0.003354 -0.007950 0.000000 -0.000407 0.000000
# 2 -0.003354 0.010031 -0.000754 0.000000 -0.005788 0.000000
# 3 -0.007950 -0.000754 0.014382 0.000000 -0.005611 0.000000
# 4 0.000000 0.000000 0.000000 0.051987 0.000000 -0.006010
# 5 -0.000407 -0.005788 -0.005611 0.000000 0.036083 0.000000
# 6 0.000000 0.000000 0.000000 -0.006010 0.000000 0.041079
#
#
# Mechanical properties :
#
#
# Convention : Reuss Voigt Hill
#
# Bulk Modulus (GPa) = 56.36425 72.72804 64.54614
# Shear Modulus (GPa) = 24.87053 29.08409 26.97731
#
# Velocity S-wave (km/s) = 3.52039 3.80693 3.66646
# Velocity P-wave (km/s) = 6.67913 7.45415 7.07726
#
# Compressibility (1/GPa) = 0.01774174
#
# Stress axis : x y z
#
# Youngs Moduli (GPa) = 57.31848 99.68765 69.53304
#
# Poissons Ratio (x) = 0.33439 0.55279
# Poissons Ratio (y) = 0.19227 0.05245
# Poissons Ratio (z) = 0.45569 0.07520
#
# Static dielectric constant tensor:
#      x y z
#    x 1.726480 0.000000 -0.007640 
#    y 0.000000 1.730870 0.000000 
#    z -0.007640 0.000000 1.718550 
# 
# From -- ./inp_files/28985.got.cif
#   From: 2010.05.17/outbox.cif.g08.bks.cpg/sg15_15_cif.got.tgz:28985.got - 2010.06.03 18:47:42.
