data_PCOD9291184
_publ_section_title
;
Structure prediction by ZEFSAII (Michael W. Deem and Ramdas Pophale) SiO2 
 PCOD9291184
Probable space group: C 2/C
;
_chemical_formula_sum "Si O2"
_cell_formula_units_Z 40
_cell_length_a 16.409419
_cell_length_b 17.807729
_cell_length_c 17.605452
_cell_angle_alpha 90.000000
_cell_angle_beta 161.167944
_cell_angle_gamma 90.000000
_cell_volume 1660.642299
_symmetry_space_group_name_H-M "C 2/C"
_symmetry_group_IT_number 15
_symmetry_cell_setting 'monoclinic'
loop_
_space_group_symop_operation_xyz
x,y,z
-x,y,1/2-z
-x,-y,-z
x,-y,1/2+z
1/2+x,1/2+y,z
1/2-x,1/2+y,1/2-z
1/2-x,1/2-y,-z
1/2+x,1/2-y,1/2+z
loop_
_atom_site_type_symbol
_atom_site_label
_atom_site_fract_x
_atom_site_fract_y
_atom_site_fract_z
Si Si1 0.332299 0.427331 0.176078
Si Si2 0.326825 0.074990 0.387593
Si Si3 0.390897 0.776807 0.546051
Si Si4 0.096343 0.112185 0.601448
Si Si5 0.736352 0.245407 0.116311
O O1 0.500000 0.425322 0.250000
O O2 0.248642 0.511982 0.118305
O O3 0.113597 0.366510 0.967547
O O4 0.485714 0.392594 0.382963
O O5 0.630348 0.070483 0.646559
O O6 0.301560 0.161309 0.388697
O O7 0.117986 0.071789 0.136826
O O8 0.250000 0.750000 0.500000
O O9 0.682107 0.752017 0.801098
O O10 0.156194 0.190777 0.609009
O O11 0.036260 0.249620 0.372026
#
# Coordination Sequence:
#
# PCOD9291184 Si02
#       5
#     8   8   8   8   8
#     4  12  25  42  66  99 135 168 212 274 331 385
#     4  10  22  43  64  95 128 171 219 268 321 383
#     4  10  22  43  57  84 133 176 208 245 307 401
#     4  10  22  42  65  93 126 177 220 262 319 389
#     4   8  16  34  62  87 116 160 213 259 302 371
#
# _framework density 24.087064999999999
#
# number of rings (size 3 to 8) (size 9 to 14) (size 15 to 20)
#    0.000    2.000    2.000    1.200    0.000    8.000 
#    0.000    0.000    0.000   10.800    0.000    0.000 
#    0.000    0.000    0.000    0.000    0.000    0.000 
#
# Total GULP energy -111510.684817 kJ/mol
# GULP energy per Si atom -5575.534241 kJ/mol
# Density = 2.403224 g / cm^3
# Si number density = 24.087065 Si / 1000 Ang^3
#
#
#
# Elastic Constant Matrix: (Units=GPa)
#
#
# Indices 1 2 3 4 5 6 
#
# 1 83.5708 46.5364 56.1878 0.0181 -2.4560 0.0033
# 2 46.5364 141.8766 68.0651 0.0727 1.4558 0.1488
# 3 56.1878 68.0651 244.8654 0.0633 10.2115 0.1145
# 4 0.0181 0.0727 0.0633 43.0932 0.0745 -8.1581
# 5 -2.4560 1.4558 10.2115 0.0745 24.1794 0.1013
# 6 0.0033 0.1488 0.1145 -8.1581 0.1013 8.7858
#
#
#
# Elastic Compliance Matrix: (Units=1/GPa)
#
#
# Indices 1 2 3 4 5 6 
#
# 1 0.016111 -0.004017 -0.002706 0.000013 0.003021 0.000074
# 2 -0.004017 0.009140 -0.001607 -0.000043 -0.000279 -0.000169
# 3 -0.002706 -0.001607 0.005252 -0.000003 -0.002396 -0.000015
# 4 0.000013 -0.000043 -0.000003 0.028156 -0.000191 0.026147
# 5 0.003021 -0.000279 -0.002396 -0.000191 0.042696 -0.000635
# 6 0.000074 -0.000169 -0.000015 0.026147 -0.000635 0.138110
#
#
# Mechanical properties :
#
#
# Convention : Reuss Voigt Hill
#
# Bulk Modulus (GPa) = 72.24676 90.21016 81.22846
# Shear Modulus (GPa) = 19.17619 35.17992 27.17806
#
# Velocity S-wave (km/s) = 2.82462 3.82584 3.36270
# Velocity P-wave (km/s) = 6.37943 7.55308 6.99093
#
# Compressibility (1/GPa) = 0.01384145
#
# Stress axis : x y z
#
# Youngs Moduli (GPa) = 62.06835 109.40713 190.42085
#
# Poissons Ratio (x) = 0.43953 0.51533
# Poissons Ratio (y) = 0.24935 0.30603
# Poissons Ratio (z) = 0.16797 0.17583
#
# Static dielectric constant tensor:
#      x y z
#    x 1.985380 -0.000070 0.030360 
#    y -0.000070 1.985080 -0.000140 
#    z 0.030360 -0.000140 2.016100 
# 
# From -- ./inp_files/211913.got.cif
#   From: 2010.05.17/outbox.cif.g08.bks.cpg/sg15_106_cif.got.tgz:211913.got - 2010.06.03 18:47:42.
