data_PCOD9291497
_publ_section_title
;
Structure prediction by ZEFSAII (Michael W. Deem and Ramdas Pophale) SiO2 
 PCOD9291497
Probable space group: C 2/C
;
_chemical_formula_sum "Si O2"
_cell_formula_units_Z 32
_cell_length_a 22.825335
_cell_length_b 10.015104
_cell_length_c 15.851813
_cell_angle_alpha 90.000000
_cell_angle_beta 19.248460
_cell_angle_gamma 90.000000
_cell_volume 1194.606190
_symmetry_space_group_name_H-M "C 2/C"
_symmetry_group_IT_number 15
_symmetry_cell_setting 'monoclinic'
loop_
_space_group_symop_operation_xyz
x,y,z
-x,y,1/2-z
-x,-y,-z
x,-y,1/2+z
1/2+x,1/2+y,z
1/2-x,1/2+y,1/2-z
1/2-x,1/2-y,-z
1/2+x,1/2-y,1/2+z
loop_
_atom_site_type_symbol
_atom_site_label
_atom_site_fract_x
_atom_site_fract_y
_atom_site_fract_z
Si Si1 0.966416 0.178034 0.581444
Si Si2 0.880272 0.470313 0.765303
Si Si3 0.216372 0.017496 0.816600
Si Si4 0.199893 0.343893 0.992895
O O1 0.043087 0.076884 0.547766
O O2 0.901371 0.315063 0.711221
O O3 0.155223 0.180499 0.274778
O O4 0.835085 0.127833 0.684913
O O5 0.758202 0.536646 0.858711
O O6 0.811772 0.506372 0.951205
O O7 0.083049 0.527954 0.483833
O O8 0.000000 0.304926 0.250000
O O9 0.250000 0.250000 0.000000
#
# Coordination Sequence:
#
# PCOD9291497 Si02
#       4
#     8   8   8   8
#     4  11  24  44  74 105 149 202 250 311 387 455
#     4  11  23  43  73 106 150 199 250 315 385 450
#     4  10  22  42  68 106 146 204 245 305 398 441
#     4  12  27  44  71 111 149 192 262 315 368 470
#
# _framework density 26.787071000000001
#
# number of rings (size 3 to 8) (size 9 to 14) (size 15 to 20)
#    0.000    1.000    2.500    4.500    7.000    0.000 
#    0.000    5.000    0.000    0.000    0.000    0.000 
#    0.000    0.000    0.000    0.000    0.000    0.000 
#
# Total GULP energy -89365.824643 kJ/mol
# GULP energy per Si atom -5585.364040 kJ/mol
# Density = 2.672610 g / cm^3
# Si number density = 26.787071 Si / 1000 Ang^3
#
#
#
# Elastic Constant Matrix: (Units=GPa)
#
#
# Indices 1 2 3 4 5 6 
#
# 1 107.9555 39.6230 64.2052 0.0000 -59.3969 0.0000
# 2 39.6230 134.1352 17.6357 0.0000 -22.5084 0.0000
# 3 64.2052 17.6357 141.4433 0.0000 -45.6302 0.0000
# 4 0.0000 0.0000 0.0000 25.6645 0.0000 5.0986
# 5 -59.3969 -22.5084 -45.6302 0.0000 63.5516 0.0000
# 6 0.0000 0.0000 0.0000 5.0986 0.0000 48.8553
#
#
#
# Elastic Compliance Matrix: (Units=1/GPa)
#
#
# Indices 1 2 3 4 5 6 
#
# 1 0.021972 -0.003186 -0.004315 0.000000 0.016309 0.000000
# 2 -0.003186 0.008390 0.000518 0.000000 0.000365 0.000000
# 3 -0.004315 0.000518 0.010050 0.000000 0.003367 0.000000
# 4 0.000000 0.000000 0.000000 0.039789 0.000000 -0.004152
# 5 0.016309 0.000365 0.003367 0.000000 0.033524 0.000000
# 6 0.000000 0.000000 0.000000 -0.004152 0.000000 0.020902
#
#
# Mechanical properties :
#
#
# Convention : Reuss Voigt Hill
#
# Bulk Modulus (GPa) = 37.81424 69.60685 53.71055
# Shear Modulus (GPa) = 31.76435 45.08563 38.42499
#
# Velocity S-wave (km/s) = 3.44729 4.10703 3.79154
# Velocity P-wave (km/s) = 5.47653 6.96648 6.26595
#
# Compressibility (1/GPa) = 0.02644506
#
# Stress axis : x y z
#
# Youngs Moduli (GPa) = 45.51250 119.19525 99.50056
#
# Poissons Ratio (x) = 0.37981 0.42936
# Poissons Ratio (y) = 0.14502 -0.05156
# Poissons Ratio (z) = 0.19639 -0.06177
#
# Static dielectric constant tensor:
#      x y z
#    x 2.168880 0.000000 0.019000 
#    y 0.000000 2.409090 0.000000 
#    z 0.019000 0.000000 1.986460 
# 
# From -- ./inp_files/219230.got.cif
#   From: 2010.05.17/outbox.cif.g08.bks.cpg/sg15_110_cif.got.tgz:219230.got - 2010.06.03 18:47:42.
