data_PCOD9291616
_publ_section_title
;
Structure prediction by ZEFSAII (Michael W. Deem and Ramdas Pophale) SiO2 
 PCOD9291616
Probable space group: C 2/C
;
_chemical_formula_sum "Si O2"
_cell_formula_units_Z 56
_cell_length_a 16.078071
_cell_length_b 16.979803
_cell_length_c 14.119063
_cell_angle_alpha 90.000000
_cell_angle_beta 34.379998
_cell_angle_gamma 90.000000
_cell_volume 2176.577031
_symmetry_space_group_name_H-M "C 2/C"
_symmetry_group_IT_number 15
_symmetry_cell_setting 'monoclinic'
loop_
_space_group_symop_operation_xyz
x,y,z
-x,y,1/2-z
-x,-y,-z
x,-y,1/2+z
1/2+x,1/2+y,z
1/2-x,1/2+y,1/2-z
1/2-x,1/2-y,-z
1/2+x,1/2-y,1/2+z
loop_
_atom_site_type_symbol
_atom_site_label
_atom_site_fract_x
_atom_site_fract_y
_atom_site_fract_z
Si Si1 0.617195 0.524454 0.469632
Si Si2 0.017632 0.315688 0.464993
Si Si3 0.780659 0.228845 0.361197
Si Si4 0.373467 0.428610 0.772344
Si Si5 0.305274 0.930938 0.092160
Si Si6 0.016158 0.820746 0.348055
Si Si7 0.842196 0.530329 0.881343
O O1 0.500000 0.500000 0.500000
O O2 0.516107 0.481861 0.645056
O O3 0.606311 0.616494 0.500739
O O4 0.777443 0.490659 0.341068
O O5 0.151707 0.299627 0.264925
O O6 0.059875 0.397606 0.475856
O O7 0.866962 0.305318 0.548724
O O8 0.003711 0.254499 0.566350
O O9 0.750000 0.250000 0.500000
O O10 0.904552 0.161097 0.219027
O O11 0.260446 0.482881 0.816524
O O12 0.273241 0.414529 0.957909
O O13 0.172201 0.866817 0.218497
O O14 0.340916 0.951435 0.948951
O O15 0.000000 0.806324 0.250000
O O16 0.000000 0.565855 0.750000
#
# Coordination Sequence:
#
# PCOD9291616 Si02
#       7
#     8   8   8   8   8   8   8
#     4  11  21  40  71 104 141 195 255 305 371 467
#     4  12  26  47  75 109 153 198 258 315 401 464
#     4  12  28  50  74 111 151 203 259 324 399 468
#     4   9  23  47  69  99 142 199 252 308 382 464
#     4   9  22  46  68 104 150 186 250 317 370 465
#     4  11  21  44  73 105 145 192 245 313 382 458
#     4  10  22  42  69 105 145 186 251 308 388 444
#
# _framework density 25.728472
#
# number of rings (size 3 to 8) (size 9 to 14) (size 15 to 20)
#    0.857    0.571    2.857    1.714    0.000    8.571 
#    5.143    0.000    0.000    0.000    0.000    0.000 
#    0.000    0.000    0.000    0.000    0.000    0.000 
#
# Total GULP energy -155998.770531 kJ/mol
# GULP energy per Si atom -5571.384662 kJ/mol
# Density = 2.566991 g / cm^3
# Si number density = 25.728472 Si / 1000 Ang^3
#
#
#
# Elastic Constant Matrix: (Units=GPa)
#
#
# Indices 1 2 3 4 5 6 
#
# 1 154.6817 21.3697 0.6996 0.0004 6.8510 -0.0004
# 2 21.3697 114.3167 -10.2023 0.0003 5.1555 -0.0003
# 3 0.6996 -10.2023 28.4708 0.0007 -0.0768 -0.0006
# 4 0.0004 0.0003 0.0007 27.2385 -0.0003 17.5796
# 5 6.8510 5.1555 -0.0768 -0.0003 45.7656 0.0002
# 6 -0.0004 -0.0003 -0.0006 17.5796 0.0002 3.6640
#
#
#
# Elastic Compliance Matrix: (Units=1/GPa)
#
#
# Indices 1 2 3 4 5 6 
#
# 1 0.006681 -0.001265 -0.000620 0.000000 -0.000859 0.000000
# 2 -0.001265 0.009323 0.003370 0.000000 -0.000855 -0.000001
# 3 -0.000620 0.003370 0.036346 0.000002 -0.000226 -0.000005
# 4 0.000000 0.000000 0.000002 -0.017511 0.000000 0.084016
# 5 -0.000859 -0.000855 -0.000226 0.000000 0.022075 0.000001
# 6 0.000000 -0.000001 -0.000005 0.084016 0.000001 -0.130177
#
#
# Mechanical properties :
#
#
# Convention : Reuss Voigt Hill
#
# Bulk Modulus (GPa) = 18.07703 35.68925 26.88314
# Shear Modulus (GPa) = -86.51674 34.37377 -26.07149
#
# Velocity S-wave (km/s) = -5.80516 3.65913 -3.18674
# Velocity P-wave (km/s) = 6.15563 5.63506 1.75184
#
# Compressibility (1/GPa) = 0.05531881
#
# Stress axis : x y z
#
# Youngs Moduli (GPa) = 149.68850 107.25602 27.51340
#
# Poissons Ratio (x) = 0.13572 0.01706
# Poissons Ratio (y) = 0.18942 -0.09271
# Poissons Ratio (z) = 0.09280 -0.36143
#
# Static dielectric constant tensor:
#      x y z
#    x 2.412310 0.000000 0.301030 
#    y 0.000000 1.930220 0.000000 
#    z 0.301030 0.000000 2.257270 
# 
# From -- ./inp_files/156156.got.cif
#   From: 2010.05.17/outbox.cif.g08.bks.cpg/sg15_79_cif.got.tgz:156156.got - 2010.06.03 18:47:42.
