data_PCOD9291690
_publ_section_title
;
Structure prediction by ZEFSAII (Michael W. Deem and Ramdas Pophale) SiO2 
 PCOD9291690
Probable space group: C 2/C
;
_chemical_formula_sum "Si O2"
_cell_formula_units_Z 60
_cell_length_a 12.078518
_cell_length_b 16.447747
_cell_length_c 27.964559
_cell_angle_alpha 90.000000
_cell_angle_beta 29.522437
_cell_angle_gamma 90.000000
_cell_volume 2737.583194
_symmetry_space_group_name_H-M "C 2/C"
_symmetry_group_IT_number 15
_symmetry_cell_setting 'monoclinic'
loop_
_space_group_symop_operation_xyz
x,y,z
-x,y,1/2-z
-x,-y,-z
x,-y,1/2+z
1/2+x,1/2+y,z
1/2-x,1/2+y,1/2-z
1/2-x,1/2-y,-z
1/2+x,1/2-y,1/2+z
loop_
_atom_site_type_symbol
_atom_site_label
_atom_site_fract_x
_atom_site_fract_y
_atom_site_fract_z
Si Si1 0.404346 0.586262 0.554123
Si Si2 0.648570 0.752507 0.237264
Si Si3 0.188015 0.517034 0.215477
Si Si4 0.000000 0.983653 0.250000
Si Si5 0.584183 0.753401 0.517601
Si Si6 0.543519 0.593993 0.146499
Si Si7 0.019599 0.385459 0.345973
Si Si8 0.559783 0.880546 0.440921
O O1 0.500000 0.500000 0.500000
O O2 0.280881 0.557034 0.648648
O O3 0.567010 0.660545 0.505242
O O4 0.227654 0.624063 0.583269
O O5 0.500000 0.786659 0.250000
O O6 0.510251 0.686010 0.318568
O O7 0.698346 0.824905 0.254586
O O8 0.858036 0.718221 0.129909
O O9 0.399439 0.570400 0.153586
O O10 0.077642 0.475874 0.304197
O O11 0.000000 0.555396 0.250000
O O12 0.213513 0.933027 0.151082
O O13 0.941347 0.040540 0.227648
O O14 0.750000 0.750000 0.500000
O O15 0.611882 0.813137 0.461840
O O16 0.813390 0.580509 0.045104
O O17 0.015960 0.359374 0.401970
#
# Coordination Sequence:
#
# PCOD9291690 Si02
#       8
#     8   8   8   4   8   8   8   8
#     4  11  23  43  72 104 142 191 244 301 372 446
#     4  12  22  48  73 100 140 193 248 299 368 451
#     4  10  22  42  70 104 148 190 232 302 382 436
#     4  12  26  46  70 104 154 188 240 314 374 426
#     4  12  28  47  75 110 149 198 252 308 377 453
#     4  12  24  45  74 108 141 188 254 306 369 448
#     4  11  22  44  75  97 141 194 239 294 370 447
#     4  12  27  45  76 108 145 197 251 303 373 450
#
# _framework density 21.917141999999998
#
# number of rings (size 3 to 8) (size 9 to 14) (size 15 to 20)
#    0.000    0.533    6.000    1.600    3.733    5.333 
#    2.400    0.000    4.400    0.000    0.000    0.000 
#    0.000    0.000    0.000    0.000    0.000    0.000 
#
# Total GULP energy -167170.583253 kJ/mol
# GULP energy per Si atom -5572.352775 kJ/mol
# Density = 2.186726 g / cm^3
# Si number density = 21.917142 Si / 1000 Ang^3
#
#
#
# Elastic Constant Matrix: (Units=GPa)
#
#
# Indices 1 2 3 4 5 6 
#
# 1 169.2081 55.3635 31.0832 -0.0074 10.5026 0.0027
# 2 55.3635 79.7829 32.9797 0.0107 -3.0822 0.0003
# 3 31.0832 32.9797 89.1572 0.0075 9.8415 0.0187
# 4 -0.0074 0.0107 0.0075 41.5251 0.0100 7.9924
# 5 10.5026 -3.0822 9.8415 0.0100 37.4497 -0.0028
# 6 0.0027 0.0003 0.0187 7.9924 -0.0028 30.4098
#
#
#
# Elastic Compliance Matrix: (Units=1/GPa)
#
#
# Indices 1 2 3 4 5 6 
#
# 1 0.007922 -0.005394 -0.000486 0.000004 -0.002538 -0.000002
# 2 -0.005394 0.018747 -0.005552 -0.000007 0.004515 0.000006
# 3 -0.000486 -0.005552 0.013877 0.000002 -0.003967 -0.000009
# 4 0.000004 -0.000007 0.000002 0.025365 -0.000009 -0.006667
# 5 -0.002538 0.004515 -0.003967 -0.000009 0.028828 0.000008
# 6 -0.000002 0.000006 -0.000009 -0.006667 0.000008 0.034636
#
#
# Mechanical properties :
#
#
# Convention : Reuss Voigt Hill
#
# Bulk Modulus (GPa) = 56.55982 64.11123 60.33552
# Shear Modulus (GPa) = 31.61873 36.45838 34.03856
#
# Velocity S-wave (km/s) = 3.80234 4.08298 3.94516
# Velocity P-wave (km/s) = 6.71858 7.17933 6.95277
#
# Compressibility (1/GPa) = 0.01768040
#
# Stress axis : x y z
#
# Youngs Moduli (GPa) = 126.23681 53.34286 72.05923
#
# Poissons Ratio (x) = 0.28773 0.03504
# Poissons Ratio (y) = 0.68093 0.40009
# Poissons Ratio (z) = 0.06139 0.29618
#
# Static dielectric constant tensor:
#      x y z
#    x 1.935120 -0.000010 -0.196200 
#    y -0.000010 1.823680 0.000050 
#    z -0.196200 0.000050 2.201460 
# 
# From -- ./inp_files/293513.got.cif
#   From: 2010.05.17/outbox.cif.g08.bks.cpg/sg15_147_cif.got.tgz:293513.got - 2010.06.03 18:47:42.
