data_PCOD9291180
_publ_section_title
;
Structure prediction by ZEFSAII (Michael W. Deem and Ramdas Pophale) SiO2 
 PCOD9291180
Probable space group: C 2/C
;
_chemical_formula_sum "Si O2"
_cell_formula_units_Z 64
_cell_length_a 27.012677
_cell_length_b 15.583792
_cell_length_c 19.179769
_cell_angle_alpha 90.000000
_cell_angle_beta 22.463113
_cell_angle_gamma 90.000000
_cell_volume 3084.950326
_symmetry_space_group_name_H-M "C 2/C"
_symmetry_group_IT_number 15
_symmetry_cell_setting 'monoclinic'
loop_
_space_group_symop_operation_xyz
x,y,z
-x,y,1/2-z
-x,-y,-z
x,-y,1/2+z
1/2+x,1/2+y,z
1/2-x,1/2+y,1/2-z
1/2-x,1/2-y,-z
1/2+x,1/2-y,1/2+z
loop_
_atom_site_type_symbol
_atom_site_label
_atom_site_fract_x
_atom_site_fract_y
_atom_site_fract_z
Si Si1 0.844995 0.810004 0.215820
Si Si2 0.140396 0.402183 0.934366
Si Si3 0.001118 0.061742 0.431819
Si Si4 0.131575 0.923487 0.533432
Si Si5 0.452185 0.136458 0.094136
Si Si6 0.273161 0.777283 0.276092
Si Si7 0.888961 0.485769 0.277603
Si Si8 0.245650 0.479342 0.409096
O O1 0.877909 0.723116 0.212735
O O2 0.744990 0.792949 0.283562
O O3 0.801095 0.885059 0.323923
O O4 0.965397 0.847148 0.012599
O O5 0.988506 0.406066 0.154112
O O6 0.126724 0.400704 0.869089
O O7 0.230747 0.322144 0.838701
O O8 0.196738 0.485428 0.898833
O O9 0.901415 0.037082 0.500304
O O10 0.141547 0.046531 0.216828
O O11 0.000000 0.000000 0.500000
O O12 0.173147 0.828080 0.455741
O O13 0.254321 0.963853 0.413359
O O14 0.000000 0.926277 0.750000
O O15 0.456167 0.061652 0.145393
O O16 0.589837 0.175057 0.889766
O O17 0.857120 0.518194 0.396070
#
# Coordination Sequence:
#
# PCOD9291180 Si02
#       8
#     8   8   8   8   8   8   8   8
#     4   9  21  39  62  93 125 175 227 266 326 387
#     4  11  24  41  68  97 128 176 229 279 338 400
#     4   9  19  36  64  89 125 176 220 272 316 390
#     4  11  22  41  62  95 136 174 216 272 344 403
#     4  11  23  42  67 100 130 178 228 281 329 395
#     4  10  22  42  65  92 129 172 228 282 333 398
#     4  12  25  40  66 100 141 175 221 277 341 407
#     4  11  22  40  63  96 136 175 217 272 339 404
#
# _framework density 20.745877
#
# number of rings (size 3 to 8) (size 9 to 14) (size 15 to 20)
#    0.000    1.500    2.500    2.250    5.250    1.500 
#    2.250    1.250    0.000    0.000    0.000    0.000 
#    0.000    0.000    0.000    0.000    0.000    0.000 
#
# Total GULP energy -178252.200413 kJ/mol
# GULP energy per Si atom -5570.381263 kJ/mol
# Density = 2.069866 g / cm^3
# Si number density = 20.745877 Si / 1000 Ang^3
#
#
#
# Elastic Constant Matrix: (Units=GPa)
#
#
# Indices 1 2 3 4 5 6 
#
# 1 72.1283 27.4337 28.0625 0.0001 -3.4289 -0.0001
# 2 27.4337 67.9466 25.6602 0.0001 9.3998 -0.0001
# 3 28.0625 25.6602 86.8666 0.0001 1.1577 -0.0001
# 4 0.0001 0.0001 0.0001 27.0125 -0.0001 -4.2036
# 5 -3.4289 9.3998 1.1577 -0.0001 38.1441 0.0001
# 6 -0.0001 -0.0001 -0.0001 -4.2036 0.0001 21.5493
#
#
#
# Elastic Compliance Matrix: (Units=1/GPa)
#
#
# Indices 1 2 3 4 5 6 
#
# 1 0.017928 -0.006174 -0.004011 0.000000 0.003255 0.000000
# 2 -0.006174 0.019304 -0.003639 0.000000 -0.005202 0.000000
# 3 -0.004011 -0.003639 0.013881 0.000000 0.000115 0.000000
# 4 0.000000 0.000000 0.000000 0.038179 0.000000 0.007448
# 5 0.003255 -0.005202 0.000115 0.000000 0.027787 0.000000
# 6 0.000000 0.000000 0.000000 0.007448 0.000000 0.047858
#
#
# Mechanical properties :
#
#
# Convention : Reuss Voigt Hill
#
# Bulk Modulus (GPa) = 42.61585 43.25047 42.93316
# Shear Modulus (GPa) = 24.94941 27.06020 26.00480
#
# Velocity S-wave (km/s) = 3.47164 3.61552 3.54431
# Velocity P-wave (km/s) = 6.05443 6.19050 6.12285
#
# Compressibility (1/GPa) = 0.02346545
#
# Stress axis : x y z
#
# Youngs Moduli (GPa) = 55.77963 51.80320 72.04077
#
# Poissons Ratio (x) = 0.31982 0.28897
# Poissons Ratio (y) = 0.34437 0.26212
# Poissons Ratio (z) = 0.22375 0.18849
#
# Static dielectric constant tensor:
#      x y z
#    x 1.762250 0.000000 -0.058260 
#    y 0.000000 1.750120 0.000000 
#    z -0.058260 0.000000 1.828580 
# 
# From -- ./inp_files/259426.got.cif
#   From: 2010.05.17/outbox.cif.g08.bks.cpg/sg15_130_cif.got.tgz:259426.got - 2010.06.03 18:47:42.
