data_PCOD9291401
_publ_section_title
;
Structure prediction by ZEFSAII (Michael W. Deem and Ramdas Pophale) SiO2 
 PCOD9291401
Probable space group: C 2/C
;
_chemical_formula_sum "Si O2"
_cell_formula_units_Z 44
_cell_length_a 6.818931
_cell_length_b 13.618554
_cell_length_c 22.059830
_cell_angle_alpha 90.000000
_cell_angle_beta 85.548525
_cell_angle_gamma 90.000000
_cell_volume 2042.383967
_symmetry_space_group_name_H-M "C 2/C"
_symmetry_group_IT_number 15
_symmetry_cell_setting 'monoclinic'
loop_
_space_group_symop_operation_xyz
x,y,z
-x,y,1/2-z
-x,-y,-z
x,-y,1/2+z
1/2+x,1/2+y,z
1/2-x,1/2+y,1/2-z
1/2-x,1/2-y,-z
1/2+x,1/2-y,1/2+z
loop_
_atom_site_type_symbol
_atom_site_label
_atom_site_fract_x
_atom_site_fract_y
_atom_site_fract_z
Si Si1 0.068313 0.344593 0.486470
Si Si2 0.500000 0.644420 0.250000
Si Si3 0.811952 0.500364 0.295174
Si Si4 0.541660 0.667885 0.573646
Si Si5 0.733889 0.989703 0.065077
Si Si6 0.338959 0.282861 0.203811
O O1 0.222070 0.332914 0.427738
O O2 0.195939 0.408472 0.531800
O O3 0.006530 0.243302 0.519067
O O4 0.886575 0.408455 0.469509
O O5 0.635185 0.575770 0.288294
O O6 0.652538 0.711522 0.209555
O O7 0.854828 0.498783 0.365560
O O8 0.737593 0.392033 0.279064
O O9 0.000000 0.524859 0.250000
O O10 0.449517 0.559283 0.566368
O O11 0.440142 0.710576 0.635896
O O12 0.500000 0.254051 0.250000
#
# Coordination Sequence:
#
# PCOD9291401 Si02
#       6
#     8   4   8   8   8   8
#     4  10  22  42  67  92 130 175 210 270 326 390
#     4  12  26  44  68  96 136 178 222 276 344 392
#     4  11  25  45  69 101 135 177 224 280 335 397
#     4  10  23  42  64  97 130 168 220 269 325 394
#     4  10  23  42  64  97 130 168 220 269 325 394
#     4  11  25  45  69 101 135 177 224 280 335 397
#
# _framework density 21.543451999999998
#
# number of rings (size 3 to 8) (size 9 to 14) (size 15 to 20)
#    0.000    1.455    1.818    1.636    7.636    0.000 
#   16.364    0.000    0.000    0.000    0.000    0.000 
#    0.000    0.000    0.000    0.000    0.000    0.000 
#
# Total GULP energy -122970.942074 kJ/mol
# GULP energy per Si atom -5589.588276 kJ/mol
# Density = 2.149442 g / cm^3
# Si number density = 21.543452 Si / 1000 Ang^3
#
#
#
# Elastic Constant Matrix: (Units=GPa)
#
#
# Indices 1 2 3 4 5 6 
#
# 1 80.1807 33.3259 32.3828 0.0000 -15.5789 0.0000
# 2 33.3259 105.1663 23.8184 0.0000 -8.8937 0.0000
# 3 32.3828 23.8184 80.4032 0.0000 -15.6551 0.0000
# 4 0.0000 0.0000 0.0000 57.6140 0.0000 -87.8919
# 5 -15.5789 -8.8937 -15.6551 0.0000 26.0333 0.0000
# 6 0.0000 0.0000 0.0000 -87.8919 0.0000 157.2729
#
#
#
# Elastic Compliance Matrix: (Units=1/GPa)
#
#
# Indices 1 2 3 4 5 6 
#
# 1 0.017118 -0.003872 -0.004542 0.000000 0.006190 0.000000
# 2 -0.003872 0.011151 -0.001646 0.000000 0.000502 0.000000
# 3 -0.004542 -0.001646 0.015988 0.000000 0.006334 0.000000
# 4 0.000000 0.000000 0.000000 0.117708 0.000000 0.065781
# 5 0.006190 0.000502 0.006334 0.000000 0.046097 0.000000
# 6 0.000000 0.000000 0.000000 0.065781 0.000000 0.043120
#
#
# Mechanical properties :
#
#
# Convention : Reuss Voigt Hill
#
# Bulk Modulus (GPa) = 41.43190 49.42269 45.42730
# Shear Modulus (GPa) = 17.89884 59.93225 38.91554
#
# Velocity S-wave (km/s) = 2.88553 5.28012 4.25476
# Velocity P-wave (km/s) = 5.51137 7.75652 6.72826
#
# Compressibility (1/GPa) = 0.02413599
#
# Stress axis : x y z
#
# Youngs Moduli (GPa) = 58.41641 89.67701 62.54885
#
# Poissons Ratio (x) = 0.34727 0.28411
# Poissons Ratio (y) = 0.22621 0.10295
# Poissons Ratio (z) = 0.26534 0.14760
#
# Static dielectric constant tensor:
#      x y z
#    x 2.006970 0.000000 -0.138450 
#    y 0.000000 1.788990 0.000000 
#    z -0.138450 0.000000 1.840580 
# 
# From -- ./inp_files/260335.got.cif
#   From: 2010.05.17/outbox.cif.g08.bks.cpg/sg15_131_cif.got.tgz:260335.got - 2010.06.03 18:47:42.
