data_PCOD9291527
_publ_section_title
;
Structure prediction by ZEFSAII (Michael W. Deem and Ramdas Pophale) SiO2 
 PCOD9291527
Probable space group: C 2/C
;
_chemical_formula_sum "Si O2"
_cell_formula_units_Z 52
_cell_length_a 11.724954
_cell_length_b 8.199543
_cell_length_c 26.496675
_cell_angle_alpha 90.000000
_cell_angle_beta 109.588278
_cell_angle_gamma 90.000000
_cell_volume 2399.944464
_symmetry_space_group_name_H-M "C 2/C"
_symmetry_group_IT_number 15
_symmetry_cell_setting 'monoclinic'
loop_
_space_group_symop_operation_xyz
x,y,z
-x,y,1/2-z
-x,-y,-z
x,-y,1/2+z
1/2+x,1/2+y,z
1/2-x,1/2+y,1/2-z
1/2-x,1/2-y,-z
1/2+x,1/2-y,1/2+z
loop_
_atom_site_type_symbol
_atom_site_label
_atom_site_fract_x
_atom_site_fract_y
_atom_site_fract_z
Si Si1 0.019954 0.038904 0.178057
Si Si2 0.750552 0.167564 0.762652
Si Si3 0.000000 0.662539 0.750000
Si Si4 0.079421 0.929583 0.572397
Si Si5 0.804548 0.072663 0.996724
Si Si6 0.753000 0.492699 0.834533
Si Si7 0.878830 0.437472 0.454606
O O1 0.014354 0.211636 0.205804
O O2 0.071228 0.054508 0.130198
O O3 0.880698 0.984619 0.161496
O O4 0.117929 0.917184 0.216486
O O5 0.631518 0.077888 0.770116
O O6 0.757743 0.335579 0.796681
O O7 0.724131 0.147669 0.698614
O O8 0.108186 0.748596 0.558842
O O9 0.940733 0.956791 0.535261
O O10 0.179258 0.043276 0.560458
O O11 0.750000 0.250000 0.000000
O O12 0.721936 0.955440 0.017379
O O13 0.841585 0.474996 0.896093
O O14 0.000000 0.500000 0.500000
#
# Coordination Sequence:
#
# PCOD9291527 Si02
#       7
#     8   8   4   8   8   8   8
#     4  11  21  43  72  97 137 188 230 290 359 413
#     4  11  22  45  70 103 140 183 235 286 362 413
#     4  10  22  42  68  94 142 174 224 296 348 424
#     4  11  25  42  73  96 139 190 232 292 362 412
#     4  11  24  45  68 100 140 184 241 287 348 427
#     4  11  25  45  74 103 147 184 238 294 351 431
#     4  12  25  46  73 106 145 186 243 298 351 425
#
# _framework density 21.667166999999999
#
# number of rings (size 3 to 8) (size 9 to 14) (size 15 to 20)
#    0.000    0.923    6.154    1.385    2.154    0.000 
#    8.308    0.000    0.000    0.000    0.000    0.000 
#    0.000    0.000    0.000    0.000    0.000    0.000 
#
# Total GULP energy -144872.655774 kJ/mol
# GULP energy per Si atom -5572.025222 kJ/mol
# Density = 2.161785 g / cm^3
# Si number density = 21.667167 Si / 1000 Ang^3
#
#
#
# Elastic Constant Matrix: (Units=GPa)
#
#
# Indices 1 2 3 4 5 6 
#
# 1 122.6485 45.8223 61.0893 0.0000 -18.7827 0.0000
# 2 45.8223 40.0831 28.0943 0.0000 -12.6126 0.0000
# 3 61.0893 28.0943 154.8090 0.0000 -26.4085 0.0000
# 4 0.0000 0.0000 0.0000 25.1962 0.0000 -18.7608
# 5 -18.7827 -12.6126 -26.4085 0.0000 51.2120 0.0000
# 6 0.0000 0.0000 0.0000 -18.7608 0.0000 31.6502
#
#
#
# Elastic Compliance Matrix: (Units=1/GPa)
#
#
# Indices 1 2 3 4 5 6 
#
# 1 0.015614 -0.015457 -0.003321 0.000000 0.000207 0.000000
# 2 -0.015457 0.044996 -0.001253 0.000000 0.004767 0.000000
# 3 -0.003321 -0.001253 0.008483 0.000000 0.002848 0.000000
# 4 0.000000 0.000000 0.000000 0.071044 0.000000 0.042112
# 5 0.000207 0.004767 0.002848 0.000000 0.022245 0.000000
# 6 0.000000 0.000000 0.000000 0.042112 0.000000 0.056557
#
#
# Mechanical properties :
#
#
# Convention : Reuss Voigt Hill
#
# Bulk Modulus (GPa) = 34.44530 65.28360 49.86445
# Shear Modulus (GPa) = 18.60951 33.78067 26.19509
#
# Velocity S-wave (km/s) = 2.93385 3.95279 3.48081
# Velocity P-wave (km/s) = 5.23532 7.14341 6.26247
#
# Compressibility (1/GPa) = 0.02903154
#
# Stress axis : x y z
#
# Youngs Moduli (GPa) = 64.04503 22.22409 117.87784
#
# Poissons Ratio (x) = 0.34351 0.39148
# Poissons Ratio (y) = 0.98992 0.14774
# Poissons Ratio (z) = 0.21270 0.02785
#
# Static dielectric constant tensor:
#      x y z
#    x 1.821220 0.000000 0.067040 
#    y 0.000000 1.839870 0.000000 
#    z 0.067040 0.000000 1.965000 
# 
# From -- ./inp_files/291222.got.cif
#   From: 2010.05.17/outbox.cif.g08.bks.cpg/sg15_146_cif.got.tgz:291222.got - 2010.06.03 18:47:42.
