data_PCOD9291879
_publ_section_title
;
Structure prediction by ZEFSAII (Michael W. Deem and Ramdas Pophale) SiO2 
 PCOD9291879
Probable space group: C 2/C
;
_chemical_formula_sum "Si O2"
_cell_formula_units_Z 44
_cell_length_a 19.435074
_cell_length_b 6.610064
_cell_length_c 16.753528
_cell_angle_alpha 90.000000
_cell_angle_beta 64.905552
_cell_angle_gamma 90.000000
_cell_volume 1949.123243
_symmetry_space_group_name_H-M "C 2/C"
_symmetry_group_IT_number 15
_symmetry_cell_setting 'monoclinic'
loop_
_space_group_symop_operation_xyz
x,y,z
-x,y,1/2-z
-x,-y,-z
x,-y,1/2+z
1/2+x,1/2+y,z
1/2-x,1/2+y,1/2-z
1/2-x,1/2-y,-z
1/2+x,1/2-y,1/2+z
loop_
_atom_site_type_symbol
_atom_site_label
_atom_site_fract_x
_atom_site_fract_y
_atom_site_fract_z
Si Si1 0.014901 0.502545 0.151454
Si Si2 0.140293 0.458811 0.861420
Si Si3 0.000000 0.892484 0.750000
Si Si4 0.249748 0.315318 0.667708
Si Si5 0.625538 0.651222 0.615265
Si Si6 0.809344 0.163721 0.534716
O O1 0.945402 0.548833 0.127898
O O2 0.000000 0.570876 0.250000
O O3 0.011557 0.260801 0.169305
O O4 0.088249 0.641517 0.099944
O O5 0.194149 0.347816 0.769814
O O6 0.175821 0.683930 0.849352
O O7 0.147438 0.341876 0.941171
O O8 0.926900 0.035062 0.793654
O O9 0.203718 0.199363 0.621224
O O10 0.267296 0.533730 0.623011
O O11 0.639127 0.497237 0.536796
O O12 0.750000 0.250000 0.500000
#
# Coordination Sequence:
#
# PCOD9291879 Si02
#       6
#     8   8   4   8   8   8
#     4  10  24  42  71 101 138 190 240 287 358 435
#     4  12  25  44  72 108 137 193 245 296 362 433
#     4  10  22  42  74  96 136 188 234 282 358 430
#     4  12  25  44  75 104 143 185 247 293 358 439
#     4  12  24  46  71 104 146 187 241 292 364 433
#     4  12  29  44  73 109 147 190 238 310 364 419
#
# _framework density 22.574252000000001
#
# number of rings (size 3 to 8) (size 9 to 14) (size 15 to 20)
#    0.545    0.000    6.364    0.545    7.636    2.182 
#    0.000    1.818    0.000    0.000    0.000    0.000 
#    0.000    0.000    0.000    0.000    0.000    0.000 
#
# Total GULP energy -122851.853717 kJ/mol
# GULP energy per Si atom -5584.175169 kJ/mol
# Density = 2.252287 g / cm^3
# Si number density = 22.574252 Si / 1000 Ang^3
#
#
#
# Elastic Constant Matrix: (Units=GPa)
#
#
# Indices 1 2 3 4 5 6 
#
# 1 101.5286 21.2104 8.4849 0.0000 30.2797 0.0002
# 2 21.2104 83.6713 23.7959 0.0003 12.2521 0.0006
# 3 8.4849 23.7959 62.6348 0.0000 10.3887 0.0000
# 4 0.0000 0.0003 0.0000 101.0105 0.0000 63.8436
# 5 30.2797 12.2521 10.3887 0.0000 31.6955 0.0001
# 6 0.0002 0.0006 0.0000 63.8436 0.0001 132.9865
#
#
#
# Elastic Compliance Matrix: (Units=1/GPa)
#
#
# Indices 1 2 3 4 5 6 
#
# 1 0.014047 -0.001939 0.000989 0.000000 -0.012994 0.000000
# 2 -0.001939 0.014093 -0.004754 0.000000 -0.002037 0.000000
# 3 0.000989 -0.004754 0.018495 0.000000 -0.005169 0.000000
# 4 0.000000 0.000000 0.000000 0.014212 0.000000 -0.006823
# 5 -0.012994 -0.002037 -0.005169 0.000000 0.046446 0.000000
# 6 0.000000 0.000000 0.000000 -0.006823 0.000000 0.010795
#
#
# Mechanical properties :
#
#
# Convention : Reuss Voigt Hill
#
# Bulk Modulus (GPa) = 28.38677 39.42412 33.90544
# Shear Modulus (GPa) = 35.40075 66.09475 50.74775
#
# Velocity S-wave (km/s) = 3.96434 5.41686 4.74649
# Velocity P-wave (km/s) = 5.79282 7.52498 6.71498
#
# Compressibility (1/GPa) = 0.03522768
#
# Stress axis : x y z
#
# Youngs Moduli (GPa) = 71.18772 70.95518 54.06868
#
# Poissons Ratio (x) = 0.13762 -0.05348
# Poissons Ratio (y) = 0.13807 0.25703
# Poissons Ratio (z) = -0.07042 0.33730
#
# Static dielectric constant tensor:
#      x y z
#    x 1.789490 0.000000 -0.098700 
#    y 0.000000 1.872240 0.000000 
#    z -0.098700 0.000000 2.190140 
# 
# From -- ./inp_files/212812.got.cif
#   From: 2010.05.17/outbox.cif.g08.bks.cpg/sg15_107_cif.got.tgz:212812.got - 2010.06.03 18:47:42.
