data_PCOD9291000
_publ_section_title
;
Structure prediction by ZEFSAII (Michael W. Deem and Ramdas Pophale) SiO2 
 PCOD9291000
Probable space group: C 2/C
;
_chemical_formula_sum "Si O2"
_cell_formula_units_Z 36
_cell_length_a 10.853785
_cell_length_b 27.335224
_cell_length_c 4.873130
_cell_angle_alpha 90.000000
_cell_angle_beta 115.496243
_cell_angle_gamma 90.000000
_cell_volume 1305.009518
_symmetry_space_group_name_H-M "C 2/C"
_symmetry_group_IT_number 15
_symmetry_cell_setting 'monoclinic'
loop_
_space_group_symop_operation_xyz
x,y,z
-x,y,1/2-z
-x,-y,-z
x,-y,1/2+z
1/2+x,1/2+y,z
1/2-x,1/2+y,1/2-z
1/2-x,1/2-y,-z
1/2+x,1/2-y,1/2+z
loop_
_atom_site_type_symbol
_atom_site_label
_atom_site_fract_x
_atom_site_fract_y
_atom_site_fract_z
Si Si1 0.000000 0.440575 0.250000
Si Si2 0.203834 0.969169 0.162597
Si Si3 0.500000 0.119248 0.250000
Si Si4 0.652768 0.304369 0.589262
Si Si5 0.000000 0.112219 0.250000
Si Si6 0.830026 0.697971 0.761767
O O1 0.867066 0.463421 0.270253
O O2 0.068729 0.413388 0.579203
O O3 0.167935 0.985010 0.433904
O O4 0.118169 0.922044 0.989523
O O5 0.591627 0.153264 0.530585
O O6 0.567699 0.350965 0.595832
O O7 0.691899 0.301548 0.309634
O O8 0.600678 0.250244 0.618041
O O9 0.790366 0.307875 0.908396
#
# Coordination Sequence:
#
# PCOD9291000 Si02
#       6
#     4   8   4   8   4   8
#     4  12  26  46  74 102 138 188 242 292 360 444
#     4  12  27  49  73 102 140 183 236 305 375 435
#     4  12  22  39  70 103 132 177 238 293 332 406
#     4  10  24  41  64  95 141 188 226 277 340 419
#     4  12  26  45  74 109 142 183 242 299 362 424
#     4  10  22  42  62  97 142 186 230 274 336 405
#
# _framework density 27.586005
#
# number of rings (size 3 to 8) (size 9 to 14) (size 15 to 20)
#    0.000    0.889    0.000    6.667    0.000   10.667 
#    0.000    0.000    0.000    0.000    0.000    0.000 
#    0.000    0.000    0.000    0.000    0.000    0.000 
#
# Total GULP energy -100943.390557 kJ/mol
# GULP energy per Si atom -5607.966142 kJ/mol
# Density = 2.752322 g / cm^3
# Si number density = 27.586005 Si / 1000 Ang^3
#
#
#
# Elastic Constant Matrix: (Units=GPa)
#
#
# Indices 1 2 3 4 5 6 
#
# 1 92.3211 38.4399 4.8474 0.0000 12.4262 0.0000
# 2 38.4399 125.9166 22.6648 0.0000 10.8732 0.0000
# 3 4.8474 22.6648 122.3793 0.0000 2.5451 0.0000
# 4 0.0000 0.0000 0.0000 40.9964 0.0000 -12.4131
# 5 12.4262 10.8732 2.5451 0.0000 46.9096 0.0000
# 6 0.0000 0.0000 0.0000 -12.4131 0.0000 45.4246
#
#
#
# Elastic Compliance Matrix: (Units=1/GPa)
#
#
# Indices 1 2 3 4 5 6 
#
# 1 0.012700 -0.003702 0.000235 0.000000 -0.002519 0.000000
# 2 -0.003702 0.009454 -0.001581 0.000000 -0.001125 0.000000
# 3 0.000235 -0.001581 0.008458 0.000000 -0.000155 0.000000
# 4 0.000000 0.000000 0.000000 0.026593 0.000000 0.007267
# 5 -0.002519 -0.001125 -0.000155 0.000000 0.022254 0.000000
# 6 0.000000 0.000000 0.000000 0.007267 0.000000 0.024000
#
#
# Mechanical properties :
#
#
# Convention : Reuss Voigt Hill
#
# Bulk Modulus (GPa) = 48.74242 52.50236 50.62239
# Shear Modulus (GPa) = 41.53092 44.97712 43.25402
#
# Velocity S-wave (km/s) = 3.88430 4.04224 3.96406
# Velocity P-wave (km/s) = 6.15017 6.39217 6.27234
#
# Compressibility (1/GPa) = 0.02051601
#
# Stress axis : x y z
#
# Youngs Moduli (GPa) = 78.74166 105.78073 118.23140
#
# Poissons Ratio (x) = 0.39158 -0.02778
# Poissons Ratio (y) = 0.29148 0.18690
# Poissons Ratio (z) = -0.01850 0.16722
#
# Static dielectric constant tensor:
#      x y z
#    x 2.182610 0.000000 0.072220 
#    y 0.000000 2.172860 0.000000 
#    z 0.072220 0.000000 2.085270 
# 
# From -- ./inp_files/5156.got.cif
#   From: 2010.05.17/outbox.cif.g08.bks.cpg/sg15_3_cif.got.tgz:5156.got - 2010.06.03 18:47:42.
