data_PCOD9291447
_publ_section_title
;
Structure prediction by ZEFSAII (Michael W. Deem and Ramdas Pophale) SiO2 
 PCOD9291447
Probable space group: C 2/C
;
_chemical_formula_sum "Si O2"
_cell_formula_units_Z 40
_cell_length_a 13.301862
_cell_length_b 26.623546
_cell_length_c 5.474473
_cell_angle_alpha 90.000000
_cell_angle_beta 119.208982
_cell_angle_gamma 90.000000
_cell_volume 1692.224878
_symmetry_space_group_name_H-M "C 2/C"
_symmetry_group_IT_number 15
_symmetry_cell_setting 'monoclinic'
loop_
_space_group_symop_operation_xyz
x,y,z
-x,y,1/2-z
-x,-y,-z
x,-y,1/2+z
1/2+x,1/2+y,z
1/2-x,1/2+y,1/2-z
1/2-x,1/2-y,-z
1/2+x,1/2-y,1/2+z
loop_
_atom_site_type_symbol
_atom_site_label
_atom_site_fract_x
_atom_site_fract_y
_atom_site_fract_z
Si Si1 0.000000 0.193334 0.750000
Si Si2 0.740784 0.025660 0.368660
Si Si3 0.106903 0.362953 0.186977
Si Si4 0.863124 0.718549 0.188331
Si Si5 0.500000 0.048199 0.250000
Si Si6 0.211605 0.136873 0.246925
O O1 0.056727 0.234983 0.636346
O O2 0.907040 0.161190 0.487665
O O3 0.600846 0.021698 0.214569
O O4 0.772534 0.083661 0.364403
O O5 0.782415 0.003550 0.675825
O O6 0.242217 0.370706 0.422438
O O7 0.000000 0.359886 0.250000
O O8 0.100616 0.313864 0.006962
O O9 0.073014 0.413339 0.003729
O O10 0.814179 0.675987 0.305409
O O11 0.750000 0.750000 0.000000
#
# Coordination Sequence:
#
# PCOD9291447 Si02
#       6
#     4   8   8   8   4   8
#     4  10  23  44  66 104 136 192 244 291 358 456
#     4  12  26  44  73 108 145 195 251 308 379 446
#     4  12  21  39  72 100 145 188 226 294 386 427
#     4  10  22  42  67  97 141 181 237 294 358 437
#     4  12  23  40  66 104 142 178 232 307 374 444
#     4  11  24  44  70  99 149 186 238 305 365 437
#
# _framework density 23.637518
#
# number of rings (size 3 to 8) (size 9 to 14) (size 15 to 20)
#    0.000    0.800    4.000    3.600    0.000    3.200 
#    0.000   11.000    0.000    0.000    0.000    0.000 
#    0.000    0.000    0.000    0.000    0.000    0.000 
#
# Total GULP energy -111444.730579 kJ/mol
# GULP energy per Si atom -5572.236529 kJ/mol
# Density = 2.358372 g / cm^3
# Si number density = 23.637518 Si / 1000 Ang^3
#
#
#
# Elastic Constant Matrix: (Units=GPa)
#
#
# Indices 1 2 3 4 5 6 
#
# 1 41.6802 34.1227 36.5344 0.0000 12.3429 0.0000
# 2 34.1227 145.7797 40.3013 0.0000 6.9583 0.0000
# 3 36.5344 40.3013 119.6161 0.0000 27.5328 0.0000
# 4 0.0000 0.0000 0.0000 54.2936 0.0000 -14.1716
# 5 12.3429 6.9583 27.5328 0.0000 39.6974 0.0000
# 6 0.0000 0.0000 0.0000 -14.1716 0.0000 62.5589
#
#
#
# Elastic Compliance Matrix: (Units=1/GPa)
#
#
# Indices 1 2 3 4 5 6 
#
# 1 0.037932 -0.006345 -0.008317 0.000000 -0.004914 0.000000
# 2 -0.006345 0.008635 -0.001282 0.000000 0.001348 0.000000
# 3 -0.008317 -0.001282 0.012715 0.000000 -0.006008 0.000000
# 4 0.000000 0.000000 0.000000 0.019576 0.000000 0.004435
# 5 -0.004914 0.001348 -0.006008 0.000000 0.030649 0.000000
# 6 0.000000 0.000000 0.000000 0.004435 0.000000 0.016990
#
#
# Mechanical properties :
#
#
# Convention : Reuss Voigt Hill
#
# Bulk Modulus (GPa) = 36.50325 58.77697 47.64011
# Shear Modulus (GPa) = 29.84821 44.38448 37.11635
#
# Velocity S-wave (km/s) = 3.55737 4.33796 3.96691
# Velocity P-wave (km/s) = 5.68767 7.07181 6.41717
#
# Compressibility (1/GPa) = 0.02739482
#
# Stress axis : x y z
#
# Youngs Moduli (GPa) = 26.36318 115.81063 78.64713
#
# Poissons Ratio (x) = 0.73481 0.65409
# Poissons Ratio (y) = 0.16727 0.10080
# Poissons Ratio (z) = 0.21926 0.14843
#
# Static dielectric constant tensor:
#      x y z
#    x 2.138470 0.000000 -0.210260 
#    y 0.000000 1.920250 0.000000 
#    z -0.210260 0.000000 2.315360 
# 
# From -- ./inp_files/8152.got.cif
#   From: 2010.05.17/outbox.cif.g08.bks.cpg/sg15_5_cif.got.tgz:8152.got - 2010.06.03 18:47:42.
