data_PCOD9291029
_publ_section_title
;
Structure prediction by ZEFSAII (Michael W. Deem and Ramdas Pophale) SiO2 
 PCOD9291029
Probable space group: C 2/C
;
_chemical_formula_sum "Si O2"
_cell_formula_units_Z 48
_cell_length_a 30.886019
_cell_length_b 9.191073
_cell_length_c 16.096551
_cell_angle_alpha 90.000000
_cell_angle_beta 147.513523
_cell_angle_gamma 90.000000
_cell_volume 2454.237372
_symmetry_space_group_name_H-M "C 2/C"
_symmetry_group_IT_number 15
_symmetry_cell_setting 'monoclinic'
loop_
_space_group_symop_operation_xyz
x,y,z
-x,y,1/2-z
-x,-y,-z
x,-y,1/2+z
1/2+x,1/2+y,z
1/2-x,1/2+y,1/2-z
1/2-x,1/2-y,-z
1/2+x,1/2-y,1/2+z
loop_
_atom_site_type_symbol
_atom_site_label
_atom_site_fract_x
_atom_site_fract_y
_atom_site_fract_z
Si Si1 0.452247 0.282987 0.453269
Si Si2 0.392800 0.612110 0.374953
Si Si3 0.282029 0.860099 0.981829
Si Si4 0.665614 0.176770 0.382834
Si Si5 0.914646 0.373124 0.064675
Si Si6 0.090025 0.710215 0.430998
O O1 0.427092 0.449874 0.426274
O O2 0.547712 0.288763 0.586141
O O3 0.402544 0.217749 0.294754
O O4 0.427457 0.200357 0.496612
O O5 0.300754 0.600915 0.198463
O O6 0.397635 0.681149 0.473816
O O7 0.250000 0.750000 0.000000
O O8 0.346503 0.808258 0.016374
O O9 0.322325 0.003248 0.088126
O O10 0.750000 0.250000 0.500000
O O11 0.643279 0.238879 0.436824
O O12 0.894125 0.543211 0.017225
O O13 0.000000 0.366387 0.250000
O O14 0.000000 0.718196 0.250000
#
# Coordination Sequence:
#
# PCOD9291029 Si02
#       6
#     8   8   8   8   8   8
#     4  11  24  43  66  95 130 176 215 273 334 392
#     4  11  24  41  65  97 129 167 228 264 331 393
#     4  11  25  42  65  99 128 167 222 273 324 398
#     4  11  23  43  64  92 136 170 213 267 337 388
#     4  10  24  43  64  94 131 167 220 267 335 394
#     4  10  22  42  63  92 127 174 215 268 326 398
#
# _framework density 19.558009999999999
#
# number of rings (size 3 to 8) (size 9 to 14) (size 15 to 20)
#    0.000    1.333    3.333    1.000    4.667    2.667 
#    0.000    0.000    0.000    0.000    0.000    0.000 
#    0.000    0.000    0.000    0.000    0.000    0.000 
#
# Total GULP energy -134019.161050 kJ/mol
# GULP energy per Si atom -5584.131710 kJ/mol
# Density = 1.951350 g / cm^3
# Si number density = 19.558010 Si / 1000 Ang^3
#
#
#
# Elastic Constant Matrix: (Units=GPa)
#
#
# Indices 1 2 3 4 5 6 
#
# 1 190.4846 60.6222 50.7120 0.0000 0.4338 0.0000
# 2 60.6222 61.3576 33.5908 0.0000 -20.2461 0.0000
# 3 50.7120 33.5908 61.2994 0.0000 -0.1373 0.0000
# 4 0.0000 0.0000 0.0000 41.6598 0.0000 17.0815
# 5 0.4338 -20.2461 -0.1373 0.0000 42.5457 0.0000
# 6 0.0000 0.0000 0.0000 17.0815 0.0000 65.5921
#
#
#
# Elastic Compliance Matrix: (Units=1/GPa)
#
#
# Indices 1 2 3 4 5 6 
#
# 1 0.008641 -0.008565 -0.002465 0.000000 -0.004172 0.000000
# 2 -0.008565 0.038441 -0.013938 0.000000 0.018335 0.000000
# 3 -0.002465 -0.013938 0.025975 0.000000 -0.006524 0.000000
# 4 0.000000 0.000000 0.000000 0.026873 0.000000 -0.006998
# 5 -0.004172 0.018335 -0.006524 0.000000 0.032251 0.000000
# 6 0.000000 0.000000 0.000000 -0.006998 0.000000 0.017068
#
#
# Mechanical properties :
#
#
# Convention : Reuss Voigt Hill
#
# Bulk Modulus (GPa) = 43.24850 66.99906 55.12378
# Shear Modulus (GPa) = 24.16715 41.17395 32.67055
#
# Velocity S-wave (km/s) = 3.51902 4.59325 4.09154
# Velocity P-wave (km/s) = 6.21870 7.90326 7.11104
#
# Compressibility (1/GPa) = 0.02312219
#
# Stress axis : x y z
#
# Youngs Moduli (GPa) = 115.72386 26.01412 38.49785
#
# Poissons Ratio (x) = 0.22281 0.09489
# Poissons Ratio (y) = 0.99117 0.53658
# Poissons Ratio (z) = 0.28523 0.36258
#
# Static dielectric constant tensor:
#      x y z
#    x 1.651980 0.000000 0.002000 
#    y 0.000000 1.683760 0.000000 
#    z 0.002000 0.000000 1.655370 
# 
# From -- ./inp_files/176973.got.cif
#   From: 2010.05.17/outbox.cif.g08.bks.cpg/sg15_89_cif.got.tgz:176973.got - 2010.06.03 18:47:42.
