data_PCOD9291174
_publ_section_title
;
Structure prediction by ZEFSAII (Michael W. Deem and Ramdas Pophale) SiO2 
 PCOD9291174
Probable space group: C 2/C
;
_chemical_formula_sum "Si O2"
_cell_formula_units_Z 40
_cell_length_a 8.769854
_cell_length_b 22.673882
_cell_length_c 9.430416
_cell_angle_alpha 90.000000
_cell_angle_beta 109.897065
_cell_angle_gamma 90.000000
_cell_volume 1763.267088
_symmetry_space_group_name_H-M "C 2/C"
_symmetry_group_IT_number 15
_symmetry_cell_setting 'monoclinic'
loop_
_space_group_symop_operation_xyz
x,y,z
-x,y,1/2-z
-x,-y,-z
x,-y,1/2+z
1/2+x,1/2+y,z
1/2-x,1/2+y,1/2-z
1/2-x,1/2-y,-z
1/2+x,1/2-y,1/2+z
loop_
_atom_site_type_symbol
_atom_site_label
_atom_site_fract_x
_atom_site_fract_y
_atom_site_fract_z
Si Si1 0.658023 0.024160 0.211204
Si Si2 0.076058 0.110938 0.120478
Si Si3 0.314361 0.222446 0.163899
Si Si4 0.726255 0.921106 0.421056
Si Si5 0.172481 0.289880 0.356281
O O1 0.500000 0.045007 0.250000
O O2 0.811044 0.054097 0.334763
O O3 0.675549 0.955767 0.262522
O O4 0.672793 0.042715 0.048673
O O5 0.195795 0.166090 0.139939
O O6 0.000000 0.120891 0.250000
O O7 0.918542 0.094572 0.978203
O O8 0.500000 0.203246 0.250000
O O9 0.290372 0.277301 0.263747
O O10 0.250000 0.250000 0.000000
O O11 0.649975 0.856121 0.401916
O O12 0.250000 0.250000 0.500000
O O13 0.000000 0.266867 0.250000
#
# Coordination Sequence:
#
# PCOD9291174 Si02
#       5
#     8   8   8   8   8
#     4  11  23  41  65  96 133 175 228 286 341 405
#     4  10  22  42  65  91 130 180 226 277 342 410
#     4  12  25  42  68 104 137 175 229 293 349 410
#     4  11  24  43  67  98 134 184 229 282 347 413
#     4  12  25  46  71  99 139 186 230 280 350 424
#
# _framework density 22.685161000000001
#
# number of rings (size 3 to 8) (size 9 to 14) (size 15 to 20)
#    0.000    0.800    0.000    9.000    0.000    3.200 
#    0.000    5.000    0.000    0.000    0.000    0.000 
#    0.000    0.000    0.000    0.000    0.000    0.000 
#
# Total GULP energy -111596.288991 kJ/mol
# GULP energy per Si atom -5579.814450 kJ/mol
# Density = 2.263353 g / cm^3
# Si number density = 22.685161 Si / 1000 Ang^3
#
#
#
# Elastic Constant Matrix: (Units=GPa)
#
#
# Indices 1 2 3 4 5 6 
#
# 1 134.8135 32.0518 37.4579 0.0000 21.4504 0.0000
# 2 32.0518 135.3127 48.0739 0.0000 -1.3081 0.0000
# 3 37.4579 48.0739 130.4848 0.0000 8.8489 0.0000
# 4 0.0000 0.0000 0.0000 219.6178 0.0000 219.5617
# 5 21.4504 -1.3081 8.8489 0.0000 35.6594 0.0000
# 6 0.0000 0.0000 0.0000 219.5617 0.0000 284.5744
#
#
#
# Elastic Compliance Matrix: (Units=1/GPa)
#
#
# Indices 1 2 3 4 5 6 
#
# 1 0.009075 -0.001607 -0.001667 0.000000 -0.005104 0.000000
# 2 -0.001607 0.008831 -0.002929 0.000000 0.002017 0.000000
# 3 -0.001667 -0.002929 0.009318 0.000000 -0.001417 0.000000
# 4 0.000000 0.000000 0.000000 0.019914 0.000000 -0.015364
# 5 -0.005104 0.002017 -0.001417 0.000000 0.031539 0.000000
# 6 0.000000 0.000000 0.000000 -0.015364 0.000000 0.015368
#
#
# Mechanical properties :
#
#
# Convention : Reuss Voigt Hill
#
# Bulk Modulus (GPa) = 67.48650 70.64202 69.06426
# Shear Modulus (GPa) = 44.88744 126.83882 85.86313
#
# Velocity S-wave (km/s) = 4.45310 7.48559 6.15890
# Velocity P-wave (km/s) = 7.50026 10.29174 9.00483
#
# Compressibility (1/GPa) = 0.01481778
#
# Stress axis : x y z
#
# Youngs Moduli (GPa) = 110.19337 113.23694 107.32449
#
# Poissons Ratio (x) = 0.18194 0.17891
# Poissons Ratio (y) = 0.17705 0.31437
# Poissons Ratio (z) = 0.18370 0.33169
#
# Static dielectric constant tensor:
#      x y z
#    x 2.112320 0.000000 0.011800 
#    y 0.000000 1.962900 0.000000 
#    z 0.011800 0.000000 1.807680 
# 
# From -- ./inp_files/23767.got.cif
#   From: 2010.05.17/outbox.cif.g08.bks.cpg/sg15_12_cif.got.tgz:23767.got - 2010.06.03 18:47:42.
