data_PCOD9291586
_publ_section_title
;
Structure prediction by ZEFSAII (Michael W. Deem and Ramdas Pophale) SiO2 
 PCOD9291586
Probable space group: C 2/C
;
_chemical_formula_sum "Si O2"
_cell_formula_units_Z 36
_cell_length_a 7.805076
_cell_length_b 13.518579
_cell_length_c 19.096475
_cell_angle_alpha 90.000000
_cell_angle_beta 128.398455
_cell_angle_gamma 90.000000
_cell_volume 1579.126388
_symmetry_space_group_name_H-M "C 2/C"
_symmetry_group_IT_number 15
_symmetry_cell_setting 'monoclinic'
loop_
_space_group_symop_operation_xyz
x,y,z
-x,y,1/2-z
-x,-y,-z
x,-y,1/2+z
1/2+x,1/2+y,z
1/2-x,1/2+y,1/2-z
1/2-x,1/2-y,-z
1/2+x,1/2-y,1/2+z
loop_
_atom_site_type_symbol
_atom_site_label
_atom_site_fract_x
_atom_site_fract_y
_atom_site_fract_z
Si Si1 0.546095 0.089734 0.681031
Si Si2 0.229857 0.481216 0.517656
Si Si3 0.838545 0.221421 0.099271
Si Si4 0.500000 0.376327 0.250000
Si Si5 0.557571 0.689393 0.916004
O O1 0.500000 0.066218 0.750000
O O2 0.358367 0.049942 0.581574
O O3 0.542770 0.209486 0.668932
O O4 0.786964 0.060009 0.716988
O O5 0.351462 0.395631 0.592894
O O6 0.386064 0.575583 0.551560
O O7 0.000000 0.500000 0.500000
O O8 0.659816 0.261362 0.108789
O O9 0.750000 0.250000 0.000000
O O10 0.442562 0.311756 0.167573
O O11 0.750000 0.750000 0.000000
#
# Coordination Sequence:
#
# PCOD9291586 Si02
#       5
#     8   8   8   4   8
#     4  11  23  44  68 101 142 179 235 296 350 427
#     4  11  22  43  73 103 139 186 240 290 363 433
#     4  10  22  42  68  99 141 182 229 296 356 420
#     4  12  24  44  72  98 138 188 234 286 358 428
#     4  12  23  44  73 100 141 189 234 296 361 424
#
# _framework density 22.797415000000001
#
# number of rings (size 3 to 8) (size 9 to 14) (size 15 to 20)
#    0.000    0.889    6.667    1.333    0.000    3.556 
#    4.000    2.222    0.000    0.000    0.000    0.000 
#    0.000    0.000    0.000    0.000    0.000    0.000 
#
# Total GULP energy -100550.171559 kJ/mol
# GULP energy per Si atom -5586.120642 kJ/mol
# Density = 2.274553 g / cm^3
# Si number density = 22.797415 Si / 1000 Ang^3
#
#
#
# Elastic Constant Matrix: (Units=GPa)
#
#
# Indices 1 2 3 4 5 6 
#
# 1 118.9031 22.8685 52.8245 0.0000 -21.7074 0.0000
# 2 22.8685 135.7471 35.6028 0.0000 -2.2173 0.0000
# 3 52.8245 35.6028 153.0513 0.0000 -36.7553 0.0000
# 4 0.0000 0.0000 0.0000 29.9273 0.0000 5.9086
# 5 -21.7074 -2.2173 -36.7553 0.0000 51.2079 0.0000
# 6 0.0000 0.0000 0.0000 5.9086 0.0000 30.4164
#
#
#
# Elastic Compliance Matrix: (Units=1/GPa)
#
#
# Indices 1 2 3 4 5 6 
#
# 1 0.010243 -0.000966 -0.002752 0.000000 0.002325 0.000000
# 2 -0.000966 0.007995 -0.001863 0.000000 -0.001400 0.000000
# 3 -0.002752 -0.001863 0.009204 0.000000 0.005359 0.000000
# 4 0.000000 0.000000 0.000000 0.034747 0.000000 -0.006750
# 5 0.002325 -0.001400 0.005359 0.000000 0.024300 0.000000
# 6 0.000000 0.000000 0.000000 -0.006750 0.000000 0.034188
#
#
# Mechanical properties :
#
#
# Convention : Reuss Voigt Hill
#
# Bulk Modulus (GPa) = 61.42372 70.03256 65.72814
# Shear Modulus (GPa) = 36.42579 42.07071 39.24825
#
# Velocity S-wave (km/s) = 4.00159 4.30049 4.15373
# Velocity P-wave (km/s) = 6.95357 7.44615 7.20407
#
# Compressibility (1/GPa) = 0.01628036
#
# Stress axis : x y z
#
# Youngs Moduli (GPa) = 97.62607 125.07803 108.64868
#
# Poissons Ratio (x) = 0.12079 0.29905
# Poissons Ratio (y) = 0.09428 0.20238
# Poissons Ratio (z) = 0.26871 0.23299
#
# Static dielectric constant tensor:
#      x y z
#    x 2.076620 0.000000 0.160970 
#    y 0.000000 1.920440 0.000000 
#    z 0.160970 0.000000 1.954030 
# 
# From -- ./inp_files/230875.got.cif
#   From: 2010.05.17/outbox.cif.g08.bks.cpg/sg15_116_cif.got.tgz:230875.got - 2010.06.03 18:47:42.
