data_PCOD9291216
_publ_section_title
;
Structure prediction by ZEFSAII (Michael W. Deem and Ramdas Pophale) SiO2 
 PCOD9291216
Probable space group: C 2/C
;
_chemical_formula_sum "Si O2"
_cell_formula_units_Z 40
_cell_length_a 8.311374
_cell_length_b 21.187771
_cell_length_c 12.466809
_cell_angle_alpha 90.000000
_cell_angle_beta 115.027216
_cell_angle_gamma 90.000000
_cell_volume 1989.265987
_symmetry_space_group_name_H-M "C 2/C"
_symmetry_group_IT_number 15
_symmetry_cell_setting 'monoclinic'
loop_
_space_group_symop_operation_xyz
x,y,z
-x,y,1/2-z
-x,-y,-z
x,-y,1/2+z
1/2+x,1/2+y,z
1/2-x,1/2+y,1/2-z
1/2-x,1/2-y,-z
1/2+x,1/2-y,1/2+z
loop_
_atom_site_type_symbol
_atom_site_label
_atom_site_fract_x
_atom_site_fract_y
_atom_site_fract_z
Si Si1 0.500000 0.044943 0.250000
Si Si2 0.428740 0.377293 0.116791
Si Si3 0.500000 0.743752 0.750000
Si Si4 0.225415 0.351435 0.707172
Si Si5 0.812890 0.510443 0.006454
Si Si6 0.914453 0.111150 0.066644
O O1 0.410651 0.091805 0.309866
O O2 0.643249 0.004984 0.354769
O O3 0.500000 0.404649 0.250000
O O4 0.400423 0.304176 0.140568
O O5 0.263358 0.420086 0.037343
O O6 0.561534 0.378937 0.053125
O O7 0.638368 0.788394 0.728436
O O8 0.397395 0.372684 0.824836
O O9 0.277622 0.347068 0.597414
O O10 0.660631 0.459592 0.936116
O O11 0.000000 0.500000 0.000000
#
# Coordination Sequence:
#
# PCOD9291216 Si02
#       6
#     4   8   4   8   8   8
#     4  11  22  40  62  98 132 174 221 258 338 387
#     4  10  25  44  66  97 131 178 215 276 336 381
#     4   9  24  46  68  96 128 176 227 278 318 397
#     4  10  22  42  65  97 125 180 226 265 328 385
#     4  12  25  40  66 102 137 175 212 278 330 406
#     4  11  23  40  69  97 133 175 220 274 334 395
#
# _framework density 20.107921000000001
#
# number of rings (size 3 to 8) (size 9 to 14) (size 15 to 20)
#    0.600    0.800    4.000    0.600    5.600    1.600 
#    0.000    4.000    0.000    0.000    0.000    0.000 
#    0.000    0.000    0.000    0.000    0.000    0.000 
#
# Total GULP energy -111437.229346 kJ/mol
# GULP energy per Si atom -5571.861467 kJ/mol
# Density = 2.006215 g / cm^3
# Si number density = 20.107921 Si / 1000 Ang^3
#
#
#
# Elastic Constant Matrix: (Units=GPa)
#
#
# Indices 1 2 3 4 5 6 
#
# 1 126.3654 62.9384 48.5719 0.0000 -29.3301 0.0000
# 2 62.9384 126.5048 36.9219 0.0000 1.1509 0.0000
# 3 48.5719 36.9219 108.0775 0.0000 -16.2979 0.0000
# 4 0.0000 0.0000 0.0000 3.3941 0.0000 -5.9179
# 5 -29.3301 1.1509 -16.2979 0.0000 44.3439 0.0000
# 6 0.0000 0.0000 0.0000 -5.9179 0.0000 20.3169
#
#
#
# Elastic Compliance Matrix: (Units=1/GPa)
#
#
# Indices 1 2 3 4 5 6 
#
# 1 0.014099 -0.006233 -0.002939 0.000000 0.008407 0.000000
# 2 -0.006233 0.011620 -0.001943 0.000000 -0.005139 0.000000
# 3 -0.002939 -0.001943 0.011594 0.000000 0.002368 0.000000
# 4 0.000000 0.000000 0.000000 0.598688 0.000000 0.174386
# 5 0.008407 -0.005139 0.002368 0.000000 0.029115 0.000000
# 6 0.000000 0.000000 0.000000 0.174386 0.000000 0.100015
#
#
# Mechanical properties :
#
#
# Convention : Reuss Voigt Hill
#
# Bulk Modulus (GPa) = 66.30330 73.09020 69.69675
# Shear Modulus (GPa) = 6.31002 27.77866 17.04434
#
# Velocity S-wave (km/s) = 1.77338 3.72086 2.91459
# Velocity P-wave (km/s) = 6.10233 7.40861 6.78698
#
# Compressibility (1/GPa) = 0.01508221
#
# Stress axis : x y z
#
# Youngs Moduli (GPa) = 70.92584 86.05936 86.24822
#
# Poissons Ratio (x) = 0.53643 0.25350
# Poissons Ratio (y) = 0.44210 0.16760
# Poissons Ratio (z) = 0.20847 0.16723
#
# Static dielectric constant tensor:
#      x y z
#    x 1.747050 0.000000 -0.022450 
#    y 0.000000 1.698520 0.000000 
#    z -0.022450 0.000000 1.773100 
# 
# From -- ./inp_files/79573.got.cif
#   From: 2010.05.17/outbox.cif.g08.bks.cpg/sg15_40_cif.got.tgz:79573.got - 2010.06.03 18:47:42.
