data_PCOD9291362
_publ_section_title
;
Structure prediction by ZEFSAII (Michael W. Deem and Ramdas Pophale) SiO2 
 PCOD9291362
Probable space group: C 2/C
;
_chemical_formula_sum "Si O2"
_cell_formula_units_Z 36
_cell_length_a 20.513167
_cell_length_b 7.959278
_cell_length_c 9.449605
_cell_angle_alpha 90.000000
_cell_angle_beta 87.238765
_cell_angle_gamma 90.000000
_cell_volume 1541.045701
_symmetry_space_group_name_H-M "C 2/C"
_symmetry_group_IT_number 15
_symmetry_cell_setting 'monoclinic'
loop_
_space_group_symop_operation_xyz
x,y,z
-x,y,1/2-z
-x,-y,-z
x,-y,1/2+z
1/2+x,1/2+y,z
1/2-x,1/2+y,1/2-z
1/2-x,1/2-y,-z
1/2+x,1/2-y,1/2+z
loop_
_atom_site_type_symbol
_atom_site_label
_atom_site_fract_x
_atom_site_fract_y
_atom_site_fract_z
Si Si1 0.364979 0.110806 0.356384
Si Si2 0.500000 0.104949 0.250000
Si Si3 0.361764 0.486147 0.337796
Si Si4 0.220836 0.405312 0.914277
Si Si5 0.059570 0.888712 0.439305
O O1 0.434918 0.021669 0.320730
O O2 0.377627 0.302982 0.402663
O O3 0.326459 0.133080 0.212143
O O4 0.319406 0.019877 0.473108
O O5 0.530387 0.224164 0.368953
O O6 0.284388 0.504690 0.341229
O O7 0.398787 0.483561 0.185668
O O8 0.391992 0.629253 0.434160
O O9 0.250000 0.250000 0.000000
O O10 0.000000 0.000000 0.500000
#
# Coordination Sequence:
#
# PCOD9291362 Si02
#       5
#     8   4   8   8   8
#     4  11  24  43  67  91 134 172 218 274 323 391
#     4  10  22  42  66  98 136 168 222 268 334 394
#     4  11  23  40  68  96 130 167 219 272 327 385
#     4  12  25  44  65  96 132 173 221 267 330 391
#     4  11  18  37  65  99 127 162 213 267 323 388
#
# _framework density 23.360759000000002
#
# number of rings (size 3 to 8) (size 9 to 14) (size 15 to 20)
#    0.000    0.889    4.444    6.000    0.000    2.667 
#    0.000    0.000    0.000    0.000    0.000    0.000 
#    0.000    0.000    0.000    0.000    0.000    0.000 
#
# Total GULP energy -100699.519700 kJ/mol
# GULP energy per Si atom -5594.417761 kJ/mol
# Density = 2.330759 g / cm^3
# Si number density = 23.360759 Si / 1000 Ang^3
#
#
#
# Elastic Constant Matrix: (Units=GPa)
#
#
# Indices 1 2 3 4 5 6 
#
# 1 211.3333 26.5812 62.9698 0.0000 -31.6853 0.0000
# 2 26.5812 57.3568 34.8003 0.0000 -15.7005 0.0000
# 3 62.9698 34.8003 132.2835 0.0000 -17.8392 0.0000
# 4 0.0000 0.0000 0.0000 28.5445 0.0000 -7.0573
# 5 -31.6853 -15.7005 -17.8392 0.0000 58.2883 0.0000
# 6 0.0000 0.0000 0.0000 -7.0573 0.0000 32.5815
#
#
#
# Elastic Compliance Matrix: (Units=1/GPa)
#
#
# Indices 1 2 3 4 5 6 
#
# 1 0.005845 -0.000692 -0.002292 0.000000 0.002290 0.000000
# 2 -0.000692 0.021805 -0.004867 0.000000 0.004008 0.000000
# 3 -0.002292 -0.004867 0.009999 0.000000 0.000503 0.000000
# 4 0.000000 0.000000 0.000000 0.037015 0.000000 0.008018
# 5 0.002290 0.004008 0.000503 0.000000 0.019634 0.000000
# 6 0.000000 0.000000 0.000000 0.008018 0.000000 0.032429
#
#
# Mechanical properties :
#
#
# Convention : Reuss Voigt Hill
#
# Bulk Modulus (GPa) = 45.56031 72.18624 58.87327
# Shear Modulus (GPa) = 33.39047 42.32435 37.85741
#
# Velocity S-wave (km/s) = 3.78476 4.26111 4.02998
# Velocity P-wave (km/s) = 6.21647 7.42813 6.84915
#
# Compressibility (1/GPa) = 0.02194893
#
# Stress axis : x y z
#
# Youngs Moduli (GPa) = 171.08763 45.86085 100.01442
#
# Poissons Ratio (x) = 0.03172 0.22919
# Poissons Ratio (y) = 0.11833 0.48673
# Poissons Ratio (z) = 0.39207 0.22319
#
# Static dielectric constant tensor:
#      x y z
#    x 1.963160 0.000000 0.002780 
#    y 0.000000 1.912040 0.000000 
#    z 0.002780 0.000000 1.856730 
# 
# From -- ./inp_files/53610.got.cif
#   From: 2010.05.17/outbox.cif.g08.bks.cpg/sg15_27_cif.got.tgz:53610.got - 2010.06.03 18:47:42.
