data_PCOD9291722
_publ_section_title
;
Structure prediction by ZEFSAII (Michael W. Deem and Ramdas Pophale) SiO2 
 PCOD9291722
Probable space group: C 2/C
;
_chemical_formula_sum "Si O2"
_cell_formula_units_Z 60
_cell_length_a 18.307159
_cell_length_b 11.582374
_cell_length_c 14.324639
_cell_angle_alpha 90.000000
_cell_angle_beta 98.918375
_cell_angle_gamma 90.000000
_cell_volume 3000.680063
_symmetry_space_group_name_H-M "C 2/C"
_symmetry_group_IT_number 15
_symmetry_cell_setting 'monoclinic'
loop_
_space_group_symop_operation_xyz
x,y,z
-x,y,1/2-z
-x,-y,-z
x,-y,1/2+z
1/2+x,1/2+y,z
1/2-x,1/2+y,1/2-z
1/2-x,1/2-y,-z
1/2+x,1/2-y,1/2+z
loop_
_atom_site_type_symbol
_atom_site_label
_atom_site_fract_x
_atom_site_fract_y
_atom_site_fract_z
Si Si1 0.427717 0.491464 0.332321
Si Si2 0.500000 0.951627 0.250000
Si Si3 0.168702 0.685154 0.914379
Si Si4 0.112035 0.253093 0.207650
Si Si5 0.818507 0.917155 0.475233
Si Si6 0.165495 0.280173 0.010184
Si Si7 0.905591 0.080550 0.622132
Si Si8 0.066393 0.491003 0.940976
O O1 0.426391 0.627265 0.304651
O O2 0.369786 0.461324 0.401753
O O3 0.510362 0.459658 0.381766
O O4 0.405010 0.421213 0.234438
O O5 0.557046 0.862733 0.210195
O O6 0.463712 0.036407 0.167484
O O7 0.162558 0.739051 0.810129
O O8 0.233007 0.588640 0.929328
O O9 0.095226 0.619140 0.927706
O O10 0.173201 0.784951 0.991693
O O11 0.154926 0.260306 0.118508
O O12 0.844644 0.992177 0.568779
O O13 0.113983 0.196654 0.936978
O O14 0.131475 0.406435 0.985443
O O15 0.250000 0.250000 0.000000
O O16 0.000000 0.500000 0.000000
#
# Coordination Sequence:
#
# PCOD9291722 Si02
#       8
#     8   4   8   8   8   8   8   8
#     4  11  24  39  69 101 129 169 218 281 338 390
#     4  10  22  42  70  96 126 176 236 278 330 414
#     4  10  25  43  66  97 131 171 228 269 329 407
#     4  11  22  42  71  94 129 173 227 280 334 405
#     4  11  22  43  66  95 131 170 214 278 331 390
#     4  12  27  44  65  97 141 180 219 275 346 405
#     4  11  24  41  65 100 131 165 220 276 331 396
#     4  11  24  44  67  96 131 181 224 276 330 408
#
# _framework density 19.995467999999999
#
# number of rings (size 3 to 8) (size 9 to 14) (size 15 to 20)
#    0.000    1.067    4.000    2.000    5.600    1.067 
#    0.000    0.000    0.000    0.000    0.000    0.000 
#    0.000    0.000    0.000    0.000    0.000    0.000 
#
# Total GULP energy -167277.883827 kJ/mol
# GULP energy per Si atom -5575.929461 kJ/mol
# Density = 1.994996 g / cm^3
# Si number density = 19.995468 Si / 1000 Ang^3
#
#
#
# Elastic Constant Matrix: (Units=GPa)
#
#
# Indices 1 2 3 4 5 6 
#
# 1 87.4637 28.1896 53.6281 0.0000 -2.1697 0.0000
# 2 28.1896 58.7384 33.4834 0.0000 -4.4077 0.0000
# 3 53.6281 33.4834 116.1843 0.0000 -11.4170 0.0000
# 4 0.0000 0.0000 0.0000 36.8336 0.0000 8.0789
# 5 -2.1697 -4.4077 -11.4170 0.0000 28.3256 0.0000
# 6 0.0000 0.0000 0.0000 8.0789 0.0000 23.7437
#
#
#
# Elastic Compliance Matrix: (Units=1/GPa)
#
#
# Indices 1 2 3 4 5 6 
#
# 1 0.016954 -0.004446 -0.006752 0.000000 -0.002115 0.000000
# 2 -0.004446 0.021556 -0.004023 0.000000 0.001392 0.000000
# 3 -0.006752 -0.004023 0.013297 0.000000 0.004216 0.000000
# 4 0.000000 0.000000 0.000000 0.029339 0.000000 -0.009983
# 5 -0.002115 0.001392 0.004216 0.000000 0.037058 0.000000
# 6 0.000000 0.000000 0.000000 -0.009983 0.000000 0.045513
#
#
# Mechanical properties :
#
#
# Convention : Reuss Voigt Hill
#
# Bulk Modulus (GPa) = 46.80632 54.77651 50.79141
# Shear Modulus (GPa) = 24.84081 27.58627 26.21354
#
# Velocity S-wave (km/s) = 3.52848 3.71836 3.62467
# Velocity P-wave (km/s) = 6.32926 6.77413 6.55547
#
# Compressibility (1/GPa) = 0.02136464
#
# Stress axis : x y z
#
# Youngs Moduli (GPa) = 58.98381 46.38992 75.20284
#
# Poissons Ratio (x) = 0.20626 0.50776
# Poissons Ratio (y) = 0.26226 0.30256
# Poissons Ratio (z) = 0.39825 0.18664
#
# Static dielectric constant tensor:
#      x y z
#    x 1.795540 0.000000 0.088800 
#    y 0.000000 1.759020 0.000000 
#    z 0.088800 0.000000 1.772870 
# 
# From -- ./inp_files/160933.got.cif
#   From: 2010.05.17/outbox.cif.g08.bks.cpg/sg15_81_cif.got.tgz:160933.got - 2010.06.03 18:47:42.
