data_PCOD9291873
_publ_section_title
;
Structure prediction by ZEFSAII (Michael W. Deem and Ramdas Pophale) SiO2 
 PCOD9291873
Probable space group: C 2/C
;
_chemical_formula_sum "Si O2"
_cell_formula_units_Z 48
_cell_length_a 22.489106
_cell_length_b 9.641676
_cell_length_c 21.796300
_cell_angle_alpha 90.000000
_cell_angle_beta 24.377593
_cell_angle_gamma 90.000000
_cell_volume 1950.710152
_symmetry_space_group_name_H-M "C 2/C"
_symmetry_group_IT_number 15
_symmetry_cell_setting 'monoclinic'
loop_
_space_group_symop_operation_xyz
x,y,z
-x,y,1/2-z
-x,-y,-z
x,-y,1/2+z
1/2+x,1/2+y,z
1/2-x,1/2+y,1/2-z
1/2-x,1/2-y,-z
1/2+x,1/2-y,1/2+z
loop_
_atom_site_type_symbol
_atom_site_label
_atom_site_fract_x
_atom_site_fract_y
_atom_site_fract_z
Si Si1 0.600898 0.168538 0.761060
Si Si2 0.262867 0.181505 0.733186
Si Si3 0.610681 0.076626 0.003233
Si Si4 0.200008 0.140902 0.567061
Si Si5 0.104611 0.080931 0.064832
Si Si6 0.450253 0.638837 0.983265
O O1 0.674680 0.193407 0.758055
O O2 0.508378 0.296326 0.823177
O O3 0.493175 0.041651 0.875638
O O4 0.733429 0.138124 0.592033
O O5 0.341998 0.070931 0.612961
O O6 0.308438 0.324500 0.655919
O O7 0.094181 0.151031 0.887872
O O8 0.751596 0.081507 0.913903
O O9 0.838174 0.304703 0.895832
O O10 0.042246 0.269522 0.570647
O O11 0.112451 0.037183 0.608531
O O12 0.066543 0.000269 0.038038
#
# Coordination Sequence:
#
# PCOD9291873 Si02
#       6
#     8   8   8   8   8   8
#     4  12  28  46  71 109 159 193 240 310 385 459
#     4  10  22  43  75 106 152 195 246 304 377 441
#     4  10  25  44  75 106 144 193 252 305 366 441
#     4  12  27  50  85 108 142 190 256 319 363 443
#     4  12  29  48  73 113 149 203 247 310 387 443
#     4  10  22  42  74 108 139 191 259 294 363 450
#
# _framework density 24.606425999999999
#
# number of rings (size 3 to 8) (size 9 to 14) (size 15 to 20)
#    1.000    0.000    1.667    3.500    7.000    4.667 
#    0.000    0.000    0.000    0.000    0.000    0.000 
#    0.000    0.000    0.000    0.000    0.000    0.000 
#
# Total GULP energy -134002.585155 kJ/mol
# GULP energy per Si atom -5583.441048 kJ/mol
# Density = 2.455042 g / cm^3
# Si number density = 24.606426 Si / 1000 Ang^3
#
#
#
# Elastic Constant Matrix: (Units=GPa)
#
#
# Indices 1 2 3 4 5 6 
#
# 1 102.7894 31.1936 25.7169 0.0003 -6.8993 0.0000
# 2 31.1936 121.5396 48.4852 -0.0008 -8.3202 0.0003
# 3 25.7169 48.4852 106.4885 -0.0003 -8.4742 0.0001
# 4 0.0003 -0.0008 -0.0003 -3.3783 -0.0001 -17.2456
# 5 -6.8993 -8.3202 -8.4742 -0.0001 27.9153 0.0000
# 6 0.0000 0.0003 0.0001 -17.2456 0.0000 34.8146
#
#
#
# Elastic Compliance Matrix: (Units=1/GPa)
#
#
# Indices 1 2 3 4 5 6 
#
# 1 0.010849 -0.002054 -0.001558 0.000000 0.001596 0.000000
# 2 -0.002054 0.010517 -0.004185 -0.000001 0.001357 0.000000
# 3 -0.001558 -0.004185 0.011828 0.000000 0.001958 0.000000
# 4 0.000000 -0.000001 0.000000 -0.083885 0.000000 -0.041553
# 5 0.001596 0.001357 0.001958 0.000000 0.037216 0.000000
# 6 0.000000 0.000000 0.000000 -0.041553 0.000000 0.008140
#
#
# Mechanical properties :
#
#
# Convention : Reuss Voigt Hill
#
# Bulk Modulus (GPa) = 56.81294 60.17877 58.49586
# Shear Modulus (GPa) = 310.09237 26.89844 168.49541
#
# Velocity S-wave (km/s) = 11.23808 3.30986 8.28401
# Velocity P-wave (km/s) = 13.83949 6.25432 10.73890
#
# Compressibility (1/GPa) = 0.01760162
#
# Stress axis : x y z
#
# Youngs Moduli (GPa) = 92.17652 95.08362 84.54483
#
# Poissons Ratio (x) = 0.19526 0.13171
# Poissons Ratio (y) = 0.18929 0.35379
# Poissons Ratio (z) = 0.14360 0.39789
#
# Static dielectric constant tensor:
#      x y z
#    x 1.981110 0.000000 0.042610 
#    y 0.000000 1.928650 0.000000 
#    z 0.042610 0.000000 2.023720 
# 
# From -- ./inp_files/252499.got.cif
#   From: 2010.05.17/outbox.cif.g08.bks.cpg/sg15_127_cif.got.tgz:252499.got - 2010.06.03 18:47:42.
