data_PCOD9291132
_publ_section_title
;
Structure prediction by ZEFSAII (Michael W. Deem and Ramdas Pophale) SiO2 
 PCOD9291132
Probable space group: C 2/C
;
_chemical_formula_sum "Si O2"
_cell_formula_units_Z 40
_cell_length_a 15.126607
_cell_length_b 6.673113
_cell_length_c 17.740131
_cell_angle_alpha 90.000000
_cell_angle_beta 94.734633
_cell_angle_gamma 90.000000
_cell_volume 1784.605955
_symmetry_space_group_name_H-M "C 2/C"
_symmetry_group_IT_number 15
_symmetry_cell_setting 'monoclinic'
loop_
_space_group_symop_operation_xyz
x,y,z
-x,y,1/2-z
-x,-y,-z
x,-y,1/2+z
1/2+x,1/2+y,z
1/2-x,1/2+y,1/2-z
1/2-x,1/2-y,-z
1/2+x,1/2-y,1/2+z
loop_
_atom_site_type_symbol
_atom_site_label
_atom_site_fract_x
_atom_site_fract_y
_atom_site_fract_z
Si Si1 0.411897 0.457166 0.446166
Si Si2 0.660215 0.029970 0.809880
Si Si3 0.684266 0.211179 0.651912
Si Si4 0.026641 0.201917 0.835891
Si Si5 0.182734 0.083216 0.411533
O O1 0.500000 0.500000 0.500000
O O2 0.383537 0.657351 0.400643
O O3 0.441820 0.301393 0.384355
O O4 0.337706 0.395005 0.501265
O O5 0.646786 0.111034 0.724642
O O6 0.685012 0.210093 0.866876
O O7 0.739637 0.867871 0.815217
O O8 0.574088 0.915564 0.834127
O O9 0.731698 0.048975 0.601999
O O10 0.100070 0.045927 0.871633
O O11 0.000000 0.140629 0.750000
#
# Coordination Sequence:
#
# PCOD9291132 Si02
#       5
#     8   8   8   8   8
#     4  10  23  42  65  93 139 177 215 279 339 404
#     4  11  23  39  67  97 126 173 231 282 328 395
#     4  11  22  41  68  95 131 174 229 278 331 401
#     4  10  23  40  63  96 132 174 224 277 334 404
#     4  10  22  42  64  97 131 175 223 277 341 394
#
# _framework density 22.413910000000001
#
# number of rings (size 3 to 8) (size 9 to 14) (size 15 to 20)
#    0.000    1.600    2.000    1.800    2.800    5.600 
#    0.000    4.000    0.000    0.000    0.000    0.000 
#    0.000    0.000    0.000    0.000    0.000    0.000 
#
# Total GULP energy -111974.498556 kJ/mol
# GULP energy per Si atom -5598.724928 kJ/mol
# Density = 2.236290 g / cm^3
# Si number density = 22.413910 Si / 1000 Ang^3
#
#
#
# Elastic Constant Matrix: (Units=GPa)
#
#
# Indices 1 2 3 4 5 6 
#
# 1 80.3316 59.3279 64.0287 0.0000 -10.3050 0.0000
# 2 59.3279 114.4743 60.0828 0.0000 -32.3004 0.0000
# 3 64.0287 60.0828 165.2055 0.0000 -26.0069 0.0000
# 4 0.0000 0.0000 0.0000 1.7436 0.0000 -5.5864
# 5 -10.3050 -32.3004 -26.0069 0.0000 37.6885 0.0000
# 6 0.0000 0.0000 0.0000 -5.5864 0.0000 27.0869
#
#
#
# Elastic Compliance Matrix: (Units=1/GPa)
#
#
# Indices 1 2 3 4 5 6 
#
# 1 0.025768 -0.011996 -0.006881 0.000000 -0.007983 0.000000
# 2 -0.011996 0.018556 -0.000126 0.000000 0.012536 0.000000
# 3 -0.006881 -0.000126 0.009483 0.000000 0.004554 0.000000
# 4 0.000000 0.000000 0.000000 1.690672 0.000000 0.348685
# 5 -0.007983 0.012536 0.004554 0.000000 0.038237 0.000000
# 6 0.000000 0.000000 0.000000 0.348685 0.000000 0.108831
#
#
# Mechanical properties :
#
#
# Convention : Reuss Voigt Hill
#
# Bulk Modulus (GPa) = 63.28539 80.76557 72.02548
# Shear Modulus (GPa) = 2.58422 25.07527 13.82974
#
# Velocity S-wave (km/s) = 1.07492 3.34838 2.48668
# Velocity P-wave (km/s) = 5.46230 7.14568 6.35994
#
# Compressibility (1/GPa) = 0.01580144
#
# Stress axis : x y z
#
# Youngs Moduli (GPa) = 38.80756 53.89136 105.45572
#
# Poissons Ratio (x) = 0.64647 0.72565
# Poissons Ratio (y) = 0.46553 0.01327
# Poissons Ratio (z) = 0.26704 0.00678
#
# Static dielectric constant tensor:
#      x y z
#    x 1.898270 0.000000 -0.031170 
#    y 0.000000 1.792360 0.000000 
#    z -0.031170 0.000000 1.824350 
# 
# From -- ./inp_files/208038.got.cif
#   From: 2010.05.17/outbox.cif.g08.bks.cpg/sg15_105_cif.got.tgz:208038.got - 2010.06.03 18:47:42.
