data_PCOD9291352
_publ_section_title
;
Structure prediction by ZEFSAII (Michael W. Deem and Ramdas Pophale) SiO2 
 PCOD9291352
Probable space group: C 2/C
;
_chemical_formula_sum "Si O2"
_cell_formula_units_Z 60
_cell_length_a 20.186776
_cell_length_b 8.148067
_cell_length_c 18.691837
_cell_angle_alpha 90.000000
_cell_angle_beta 121.770353
_cell_angle_gamma 90.000000
_cell_volume 2613.827290
_symmetry_space_group_name_H-M "C 2/C"
_symmetry_group_IT_number 15
_symmetry_cell_setting 'monoclinic'
loop_
_space_group_symop_operation_xyz
x,y,z
-x,y,1/2-z
-x,-y,-z
x,-y,1/2+z
1/2+x,1/2+y,z
1/2-x,1/2+y,1/2-z
1/2-x,1/2-y,-z
1/2+x,1/2-y,1/2+z
loop_
_atom_site_type_symbol
_atom_site_label
_atom_site_fract_x
_atom_site_fract_y
_atom_site_fract_z
Si Si1 0.463865 0.324261 0.501552
Si Si2 0.701980 0.139103 0.574755
Si Si3 0.111974 0.725585 0.659432
Si Si4 0.098875 0.656234 0.174556
Si Si5 0.248876 0.697002 0.179254
Si Si6 0.705980 0.370193 0.029859
Si Si7 0.500000 0.710457 0.750000
Si Si8 0.649794 0.687963 0.916080
O O1 0.500000 0.500000 0.500000
O O2 0.523219 0.265232 0.595606
O O3 0.453910 0.214388 0.423949
O O4 0.379734 0.324410 0.490186
O O5 0.653012 0.235631 0.605564
O O6 0.652354 0.159602 0.472898
O O7 0.787003 0.215423 0.609793
O O8 0.717645 0.957006 0.614810
O O9 0.114281 0.536919 0.683156
O O10 0.165563 0.834395 0.741112
O O11 0.184226 0.731566 0.203531
O O12 0.053918 0.699371 0.221602
O O13 0.254573 0.853721 0.130438
O O14 0.750000 0.250000 0.000000
O O15 0.690169 0.540889 0.982690
O O16 0.567038 0.632170 0.838281
#
# Coordination Sequence:
#
# PCOD9291352 Si02
#       8
#     8   8   8   8   8   8   4   8
#     4  11  24  44  71 100 138 184 231 285 352 421
#     4  10  22  42  66  97 134 179 225 274 350 416
#     4  11  23  43  69 100 129 178 229 285 340 408
#     4  10  24  44  65  96 140 177 221 287 349 417
#     4  10  23  43  70  94 131 177 233 281 340 419
#     4  11  23  45  65  99 139 180 222 283 355 417
#     4  12  24  42  66 106 136 174 238 290 344 410
#     4  11  24  41  70  98 133 182 225 283 344 419
#
# _framework density 22.954844000000001
#
# number of rings (size 3 to 8) (size 9 to 14) (size 15 to 20)
#    0.000    1.333    1.333    3.600    0.000   12.800 
#    2.400    0.000    0.000    0.800    0.000    0.000 
#    0.000    0.000    0.000    0.000    0.000    0.000 
#
# Total GULP energy -167397.326035 kJ/mol
# GULP energy per Si atom -5579.910868 kJ/mol
# Density = 2.290260 g / cm^3
# Si number density = 22.954844 Si / 1000 Ang^3
#
#
#
# Elastic Constant Matrix: (Units=GPa)
#
#
# Indices 1 2 3 4 5 6 
#
# 1 112.3955 12.5034 36.4692 0.0000 -15.5895 0.0000
# 2 12.5034 66.5884 32.5752 0.0000 -4.5909 0.0000
# 3 36.4692 32.5752 116.6642 0.0000 17.2117 0.0000
# 4 0.0000 0.0000 0.0000 9.7986 0.0000 1.0954
# 5 -15.5895 -4.5909 17.2117 0.0000 48.0661 0.0000
# 6 0.0000 0.0000 0.0000 1.0954 0.0000 24.8606
#
#
#
# Elastic Compliance Matrix: (Units=1/GPa)
#
#
# Indices 1 2 3 4 5 6 
#
# 1 0.010957 0.000396 -0.004292 0.000000 0.005129 0.000000
# 2 0.000396 0.018015 -0.005729 0.000000 0.003901 0.000000
# 3 -0.004292 -0.005729 0.012457 0.000000 -0.006400 0.000000
# 4 0.000000 0.000000 0.000000 0.102561 0.000000 -0.004519
# 5 0.005129 0.003901 -0.006400 0.000000 0.025133 0.000000
# 6 0.000000 0.000000 0.000000 -0.004519 0.000000 0.040423
#
#
# Mechanical properties :
#
#
# Convention : Reuss Voigt Hill
#
# Bulk Modulus (GPa) = 45.08984 50.97152 48.03068
# Shear Modulus (GPa) = 21.16928 30.81838 25.99383
#
# Velocity S-wave (km/s) = 3.04009 3.66808 3.36875
# Velocity P-wave (km/s) = 5.65759 6.33980 6.00839
#
# Compressibility (1/GPa) = 0.02217795
#
# Stress axis : x y z
#
# Youngs Moduli (GPa) = 91.26390 55.50904 80.27315
#
# Poissons Ratio (x) = -0.02198 0.34457
# Poissons Ratio (y) = -0.03614 0.45992
# Poissons Ratio (z) = 0.39175 0.31804
#
# Static dielectric constant tensor:
#      x y z
#    x 1.892800 0.000000 -0.016560 
#    y 0.000000 1.920340 0.000000 
#    z -0.016560 0.000000 1.952950 
# 
# From -- ./inp_files/214324.got.cif
#   From: 2010.05.17/outbox.cif.g08.bks.cpg/sg15_108_cif.got.tgz:214324.got - 2010.06.03 18:47:42.
