data_PCOD9291414
_publ_section_title
;
Structure prediction by ZEFSAII (Michael W. Deem and Ramdas Pophale) SiO2 
 PCOD9291414
Probable space group: C 2/C
;
_chemical_formula_sum "Si O2"
_cell_formula_units_Z 32
_cell_length_a 5.750021
_cell_length_b 28.287231
_cell_length_c 8.944662
_cell_angle_alpha 90.000000
_cell_angle_beta 90.519415
_cell_angle_gamma 90.000000
_cell_volume 1454.808922
_symmetry_space_group_name_H-M "C 2/C"
_symmetry_group_IT_number 15
_symmetry_cell_setting 'monoclinic'
loop_
_space_group_symop_operation_xyz
x,y,z
-x,y,1/2-z
-x,-y,-z
x,-y,1/2+z
1/2+x,1/2+y,z
1/2-x,1/2+y,1/2-z
1/2-x,1/2-y,-z
1/2+x,1/2-y,1/2+z
loop_
_atom_site_type_symbol
_atom_site_label
_atom_site_fract_x
_atom_site_fract_y
_atom_site_fract_z
Si Si1 0.677232 0.628368 0.509960
Si Si2 0.620794 0.712154 0.100471
Si Si3 0.500000 0.084743 0.750000
Si Si4 0.000000 0.356211 0.750000
Si Si5 0.885742 0.956801 0.086037
O O1 0.572198 0.680659 0.487563
O O2 0.467941 0.591154 0.506914
O O3 0.815993 0.618144 0.663685
O O4 0.847651 0.617350 0.372573
O O5 0.500000 0.732350 0.250000
O O6 0.817894 0.676312 0.159812
O O7 0.750000 0.750000 0.000000
O O8 0.383400 0.050976 0.874379
O O9 0.000000 0.958995 0.250000
O O10 0.000000 0.000000 0.000000
#
# Coordination Sequence:
#
# PCOD9291414 Si02
#       5
#     8   8   4   4   8
#     4  10  22  42  67  94 132 177 224 270 337 402
#     4  10  23  45  66  98 130 174 230 280 344 403
#     4  10  22  43  62 100 134 180 220 278 333 392
#     4  10  22  43  64  92 132 168 220 276 335 386
#     4  10  23  40  62  98 133 173 225 266 328 399
#
# _framework density 21.996013999999999
#
# number of rings (size 3 to 8) (size 9 to 14) (size 15 to 20)
#    0.000    2.000    0.000    1.500    0.000   14.000 
#   29.250    0.000    0.000    0.000    0.000    0.000 
#    0.000    0.000    0.000    0.000    0.000    0.000 
#
# Total GULP energy -89334.014511 kJ/mol
# GULP energy per Si atom -5583.375907 kJ/mol
# Density = 2.194595 g / cm^3
# Si number density = 21.996014 Si / 1000 Ang^3
#
#
#
# Elastic Constant Matrix: (Units=GPa)
#
#
# Indices 1 2 3 4 5 6 
#
# 1 102.9494 34.9840 49.6984 0.0000 -31.5406 0.0000
# 2 34.9840 88.1054 71.9658 0.0000 -25.9475 0.0000
# 3 49.6984 71.9658 112.8082 0.0000 -35.8402 0.0000
# 4 0.0000 0.0000 0.0000 40.3285 0.0000 -23.9314
# 5 -31.5406 -25.9475 -35.8402 0.0000 62.7852 0.0000
# 6 0.0000 0.0000 0.0000 -23.9314 0.0000 26.0250
#
#
#
# Elastic Compliance Matrix: (Units=1/GPa)
#
#
# Indices 1 2 3 4 5 6 
#
# 1 0.013141 -0.000730 -0.004058 0.000000 0.003983 0.000000
# 2 -0.000730 0.023844 -0.014506 0.000000 0.001207 0.000000
# 3 -0.004058 -0.014506 0.021199 0.000000 0.004067 0.000000
# 4 0.000000 0.000000 0.000000 0.054579 0.000000 0.050188
# 5 0.003983 0.001207 0.004067 0.000000 0.020749 0.000000
# 6 0.000000 0.000000 0.000000 0.050188 0.000000 0.084575
#
#
# Mechanical properties :
#
#
# Convention : Reuss Voigt Hill
#
# Bulk Modulus (GPa) = 51.03307 68.57328 59.80317
# Shear Modulus (GPa) = 18.99637 35.64207 27.31922
#
# Velocity S-wave (km/s) = 2.94194 4.02977 3.52804
# Velocity P-wave (km/s) = 5.89843 7.27290 6.62142
#
# Compressibility (1/GPa) = 0.01959514
#
# Stress axis : x y z
#
# Youngs Moduli (GPa) = 76.09795 41.93850 47.17186
#
# Poissons Ratio (x) = 0.03062 0.19143
# Poissons Ratio (y) = 0.05556 0.68430
# Poissons Ratio (z) = 0.30881 0.60838
#
# Static dielectric constant tensor:
#      x y z
#    x 1.891710 0.000000 -0.009050 
#    y 0.000000 1.785120 0.000000 
#    z -0.009050 0.000000 1.803100 
# 
# From -- ./inp_files/19990.got.cif
#   From: 2010.05.17/outbox.cif.g08.bks.cpg/sg15_10_cif.got.tgz:19990.got - 2010.06.03 18:47:42.
