data_PCOD9291368
_publ_section_title
;
Structure prediction by ZEFSAII (Michael W. Deem and Ramdas Pophale) SiO2 
 PCOD9291368
Probable space group: C 2/C
;
_chemical_formula_sum "Si O2"
_cell_formula_units_Z 44
_cell_length_a 32.791822
_cell_length_b 8.237344
_cell_length_c 24.661608
_cell_angle_alpha 90.000000
_cell_angle_beta 15.178762
_cell_angle_gamma 90.000000
_cell_volume 1744.198708
_symmetry_space_group_name_H-M "C 2/C"
_symmetry_group_IT_number 15
_symmetry_cell_setting 'monoclinic'
loop_
_space_group_symop_operation_xyz
x,y,z
-x,y,1/2-z
-x,-y,-z
x,-y,1/2+z
1/2+x,1/2+y,z
1/2-x,1/2+y,1/2-z
1/2-x,1/2-y,-z
1/2+x,1/2-y,1/2+z
loop_
_atom_site_type_symbol
_atom_site_label
_atom_site_fract_x
_atom_site_fract_y
_atom_site_fract_z
Si Si1 0.000000 0.099980 0.750000
Si Si2 0.749023 0.767891 0.813844
Si Si3 0.939287 0.357021 0.748307
Si Si4 0.718629 0.642662 0.730720
Si Si5 0.184189 0.544794 0.210102
Si Si6 0.075778 0.696569 0.707602
O O1 0.101953 0.198880 0.664523
O O2 0.133325 0.035483 0.539496
O O3 0.748184 0.688345 0.755347
O O4 0.835701 0.636803 0.741044
O O5 0.824929 0.949603 0.716261
O O6 0.565814 0.786109 0.067439
O O7 0.895899 0.404361 0.742994
O O8 0.890918 0.508525 0.846092
O O9 0.125680 0.354717 0.505172
O O10 0.641373 0.806516 0.805115
O O11 0.250000 0.750000 0.500000
O O12 0.000000 0.766164 0.750000
#
# Coordination Sequence:
#
# PCOD9291368 Si02
#       6
#     4   8   8   8   8   8
#     4  10  22  42  66  98 142 182 240 292 364 430
#     4  11  23  45  72 101 145 188 237 304 358 431
#     4  10  22  43  68  97 143 185 232 304 359 425
#     4  10  23  46  67  99 144 180 239 297 357 425
#     4  11  23  42  71 101 138 192 243 289 363 439
#     4  11  24  44  71 107 147 191 242 303 370 435
#
# _framework density 25.226483000000002
#
# number of rings (size 3 to 8) (size 9 to 14) (size 15 to 20)
#    0.000    1.455    2.727    1.636    3.818    0.727 
#    3.273    4.545    0.000    0.000    0.000    0.000 
#    0.000    0.000    0.000    0.000    0.000    0.000 
#
# Total GULP energy -122554.975075 kJ/mol
# GULP energy per Si atom -5570.680685 kJ/mol
# Density = 2.516907 g / cm^3
# Si number density = 25.226483 Si / 1000 Ang^3
#
#
#
# Elastic Constant Matrix: (Units=GPa)
#
#
# Indices 1 2 3 4 5 6 
#
# 1 117.8161 30.8473 15.8522 0.0005 0.9231 0.0001
# 2 30.8473 157.2193 46.9061 0.0009 14.4753 0.0006
# 3 15.8522 46.9061 124.8862 0.0005 6.3325 0.0002
# 4 0.0005 0.0009 0.0005 11.4968 0.0001 5.4368
# 5 0.9231 14.4753 6.3325 0.0001 35.4644 0.0001
# 6 0.0001 0.0006 0.0002 5.4368 0.0001 34.5891
#
#
#
# Elastic Compliance Matrix: (Units=1/GPa)
#
#
# Indices 1 2 3 4 5 6 
#
# 1 0.008989 -0.001650 -0.000549 0.000000 0.000537 0.000000
# 2 -0.001650 0.007686 -0.002544 0.000000 -0.002640 0.000000
# 3 -0.000549 -0.002544 0.009061 0.000000 -0.000565 0.000000
# 4 0.000000 0.000000 0.000000 0.093965 0.000000 -0.014770
# 5 0.000537 -0.002640 -0.000565 0.000000 0.029362 0.000000
# 6 0.000000 0.000000 0.000000 -0.014770 0.000000 0.031232
#
#
# Mechanical properties :
#
#
# Convention : Reuss Voigt Hill
#
# Bulk Modulus (GPa) = 61.52817 65.23700 63.38259
# Shear Modulus (GPa) = 25.61514 36.73112 31.17313
#
# Velocity S-wave (km/s) = 3.19000 3.81997 3.51911
# Velocity P-wave (km/s) = 6.16534 6.73594 6.45694
#
# Compressibility (1/GPa) = 0.01625272
#
# Stress axis : x y z
#
# Youngs Moduli (GPa) = 111.24326 130.10432 110.36352
#
# Poissons Ratio (x) = 0.21461 0.06056
# Poissons Ratio (y) = 0.18350 0.28072
# Poissons Ratio (z) = 0.06104 0.33093
#
# Static dielectric constant tensor:
#      x y z
#    x 1.501910 0.000010 0.076540 
#    y 0.000010 2.228680 0.000000 
#    z 0.076540 0.000000 1.996480 
# 
# From -- ./inp_files/284375.got.cif
#   From: 2010.05.17/outbox.cif.g08.bks.cpg/sg15_143_cif.got.tgz:284375.got - 2010.06.03 18:47:42.
