data_PCOD9291106
_publ_section_title
;
Structure prediction by ZEFSAII (Michael W. Deem and Ramdas Pophale) SiO2 
 PCOD9291106
Probable space group: C 2/C
;
_chemical_formula_sum "Si O2"
_cell_formula_units_Z 52
_cell_length_a 9.427243
_cell_length_b 24.618003
_cell_length_c 13.530712
_cell_angle_alpha 90.000000
_cell_angle_beta 55.066515
_cell_angle_gamma 90.000000
_cell_volume 2574.395591
_symmetry_space_group_name_H-M "C 2/C"
_symmetry_group_IT_number 15
_symmetry_cell_setting 'monoclinic'
loop_
_space_group_symop_operation_xyz
x,y,z
-x,y,1/2-z
-x,-y,-z
x,-y,1/2+z
1/2+x,1/2+y,z
1/2-x,1/2+y,1/2-z
1/2-x,1/2-y,-z
1/2+x,1/2-y,1/2+z
loop_
_atom_site_type_symbol
_atom_site_label
_atom_site_fract_x
_atom_site_fract_y
_atom_site_fract_z
Si Si1 0.394126 0.078313 0.392553
Si Si2 0.329700 0.711278 0.859770
Si Si3 0.891152 0.863325 0.892994
Si Si4 0.180218 0.975705 0.467060
Si Si5 0.490120 0.139504 0.964442
Si Si6 0.325707 0.683610 0.080379
Si Si7 0.500000 0.078984 0.750000
O O1 0.500000 0.065521 0.250000
O O2 0.500925 0.098868 0.444756
O O3 0.270948 0.127893 0.407617
O O4 0.283607 0.026536 0.471201
O O5 0.500000 0.682863 0.750000
O O6 0.152094 0.679340 0.913025
O O7 0.302393 0.771053 0.823526
O O8 0.372652 0.712027 0.958646
O O9 0.000000 0.866604 0.750000
O O10 0.008444 0.830249 0.922410
O O11 0.858776 0.924271 0.947708
O O12 0.703005 0.836635 0.954508
O O13 0.318912 0.953793 0.330874
O O14 0.000000 0.000000 0.500000
O O15 0.507937 0.112155 0.849408
#
# Coordination Sequence:
#
# PCOD9291106 Si02
#       7
#     8   8   8   8   8   8   4
#     4  11  21  41  67  92 129 170 221 269 320 379
#     4  10  23  42  69  95 122 173 221 269 324 384
#     4  11  24  41  63  97 136 169 213 268 334 396
#     4  11  23  39  65  93 124 176 216 265 324 382
#     4  10  25  40  65  96 129 174 211 271 331 384
#     4  10  22  42  64  94 128 164 224 263 318 397
#     4  10  24  42  58  92 136 160 216 264 322 398
#
# _framework density 20.198916000000001
#
# number of rings (size 3 to 8) (size 9 to 14) (size 15 to 20)
#    0.000    1.538    2.308    1.385    4.308    6.769 
#    1.385    0.769    0.000    0.000    0.000    0.000 
#    0.000    0.000    0.000    0.000    0.000    0.000 
#
# Total GULP energy -144957.110990 kJ/mol
# GULP energy per Si atom -5575.273500 kJ/mol
# Density = 2.015294 g / cm^3
# Si number density = 20.198916 Si / 1000 Ang^3
#
#
#
# Elastic Constant Matrix: (Units=GPa)
#
#
# Indices 1 2 3 4 5 6 
#
# 1 164.8091 45.0907 67.3400 0.0000 -13.1878 0.0000
# 2 45.0907 76.7620 29.1242 0.0000 -6.8910 0.0000
# 3 67.3400 29.1242 116.9567 0.0000 -14.0178 0.0000
# 4 0.0000 0.0000 0.0000 18.4646 0.0000 -4.1137
# 5 -13.1878 -6.8910 -14.0178 0.0000 38.1419 0.0000
# 6 0.0000 0.0000 0.0000 -4.1137 0.0000 25.8444
#
#
#
# Elastic Compliance Matrix: (Units=1/GPa)
#
#
# Indices 1 2 3 4 5 6 
#
# 1 0.008763 -0.003527 -0.004059 0.000000 0.000901 0.000000
# 2 -0.003527 0.015872 -0.001804 0.000000 0.000985 0.000000
# 3 -0.004059 -0.001804 0.011642 0.000000 0.002549 0.000000
# 4 0.000000 0.000000 0.000000 0.056149 0.000000 0.008937
# 5 0.000901 0.000985 0.002549 0.000000 0.027644 0.000000
# 6 0.000000 0.000000 0.000000 0.008937 0.000000 0.040116
#
#
# Mechanical properties :
#
#
# Convention : Reuss Voigt Hill
#
# Bulk Modulus (GPa) = 57.15086 71.29308 64.22197
# Shear Modulus (GPa) = 27.05662 30.95504 29.00583
#
# Velocity S-wave (km/s) = 3.66390 3.91898 3.79358
# Velocity P-wave (km/s) = 6.80105 7.47328 7.14508
#
# Compressibility (1/GPa) = 0.01749755
#
# Stress axis : x y z
#
# Youngs Moduli (GPa) = 114.11348 63.00567 85.89468
#
# Poissons Ratio (x) = 0.22219 0.34868
# Poissons Ratio (y) = 0.40242 0.15493
# Poissons Ratio (z) = 0.46324 0.11365
#
# Static dielectric constant tensor:
#      x y z
#    x 1.696270 0.000000 -0.024700 
#    y 0.000000 1.755400 0.000000 
#    z -0.024700 0.000000 1.811050 
# 
# From -- ./inp_files/138441.got.cif
#   From: 2010.05.17/outbox.cif.g08.bks.cpg/sg15_70_cif.got.tgz:138441.got - 2010.06.03 18:47:42.
