data_PCOD9291355
_publ_section_title
;
Structure prediction by ZEFSAII (Michael W. Deem and Ramdas Pophale) SiO2 
 PCOD9291355
Probable space group: C 2/C
;
_chemical_formula_sum "Si O2"
_cell_formula_units_Z 56
_cell_length_a 22.756329
_cell_length_b 15.036114
_cell_length_c 7.578675
_cell_angle_alpha 90.000000
_cell_angle_beta 75.104739
_cell_angle_gamma 90.000000
_cell_volume 2506.033226
_symmetry_space_group_name_H-M "C 2/C"
_symmetry_group_IT_number 15
_symmetry_cell_setting 'monoclinic'
loop_
_space_group_symop_operation_xyz
x,y,z
-x,y,1/2-z
-x,-y,-z
x,-y,1/2+z
1/2+x,1/2+y,z
1/2-x,1/2+y,1/2-z
1/2-x,1/2-y,-z
1/2+x,1/2-y,1/2+z
loop_
_atom_site_type_symbol
_atom_site_label
_atom_site_fract_x
_atom_site_fract_y
_atom_site_fract_z
Si Si1 0.500000 0.538711 0.750000
Si Si2 0.744394 0.334612 0.881680
Si Si3 0.749998 0.596038 0.031902
Si Si4 0.314160 0.426906 0.275900
Si Si5 0.000000 0.728602 0.750000
Si Si6 0.552472 0.074967 0.949609
Si Si7 0.563419 0.612107 0.023612
Si Si8 0.355156 0.969905 0.863175
O O1 0.512177 0.596377 0.913001
O O2 0.554551 0.469738 0.665995
O O3 0.742782 0.321767 0.672099
O O4 0.802657 0.398943 0.862393
O O5 0.750000 0.250000 0.000000
O O6 0.689672 0.382797 0.028094
O O7 0.702080 0.527979 0.161674
O O8 0.735714 0.602460 0.834940
O O9 0.814783 0.545444 0.995860
O O10 0.374819 0.399933 0.129108
O O11 0.972953 0.662528 0.623302
O O12 0.050567 0.795149 0.629897
O O13 0.608313 0.031846 0.799709
O O14 0.587736 0.086804 0.104952
O O15 0.500000 0.000000 0.000000
#
# Coordination Sequence:
#
# PCOD9291355 Si02
#       8
#     4   8   8   8   4   8   8   8
#     4   9  20  42  67  90 132 186 209 258 356 409
#     4  11  25  41  61 103 133 164 223 277 341 406
#     4  11  21  40  69  97 128 171 226 258 339 426
#     4  11  21  39  67  96 126 176 217 268 330 415
#     4  11  26  44  59 104 134 168 243 286 328 405
#     4  12  23  42  68  91 124 182 235 274 337 399
#     4  10  22  42  66  97 136 170 223 281 330 405
#     4  11  21  43  67  88 128 179 212 281 338 399
#
# _framework density 22.346073000000001
#
# number of rings (size 3 to 8) (size 9 to 14) (size 15 to 20)
#    0.000    1.143    5.714    1.714    0.000    4.000 
#    5.143    0.000    0.000    0.000    0.000    0.000 
#    0.000    0.000    0.000    0.000    0.000    0.000 
#
# Total GULP energy -155955.732426 kJ/mol
# GULP energy per Si atom -5569.847587 kJ/mol
# Density = 2.229521 g / cm^3
# Si number density = 22.346073 Si / 1000 Ang^3
#
#
#
# Elastic Constant Matrix: (Units=GPa)
#
#
# Indices 1 2 3 4 5 6 
#
# 1 43.6207 -7.1067 11.4287 0.0000 -24.4976 0.0000
# 2 -7.1067 74.5441 21.7355 0.0000 -9.5340 0.0000
# 3 11.4287 21.7355 96.1775 0.0000 -13.9035 0.0000
# 4 0.0000 0.0000 0.0000 29.3918 0.0000 5.8718
# 5 -24.4976 -9.5340 -13.9035 0.0000 52.7666 0.0000
# 6 0.0000 0.0000 0.0000 5.8718 0.0000 12.8991
#
#
#
# Elastic Compliance Matrix: (Units=1/GPa)
#
#
# Indices 1 2 3 4 5 6 
#
# 1 0.033686 0.006151 -0.003089 0.000000 0.015937 0.000000
# 2 0.006151 0.015652 -0.003583 0.000000 0.004739 0.000000
# 3 -0.003089 -0.003583 0.011720 0.000000 0.001006 0.000000
# 4 0.000000 0.000000 0.000000 0.037427 0.000000 -0.017037
# 5 0.015937 0.004739 0.001006 0.000000 0.027472 0.000000
# 6 0.000000 0.000000 0.000000 -0.017037 0.000000 0.085280
#
#
# Mechanical properties :
#
#
# Convention : Reuss Voigt Hill
#
# Bulk Modulus (GPa) = 16.66247 29.60638 23.13442
# Shear Modulus (GPa) = 21.52525 31.56382 26.54453
#
# Velocity S-wave (km/s) = 3.10702 3.76240 3.45031
# Velocity P-wave (km/s) = 4.51045 5.67027 5.12329
#
# Compressibility (1/GPa) = 0.06001512
#
# Stress axis : x y z
#
# Youngs Moduli (GPa) = 29.68555 63.88903 85.32603
#
# Poissons Ratio (x) = -0.39295 0.26358
# Poissons Ratio (y) = -0.18258 0.30572
# Poissons Ratio (z) = 0.09170 0.22892
#
# Static dielectric constant tensor:
#      x y z
#    x 1.928360 0.000000 0.111240 
#    y 0.000000 1.860080 0.000000 
#    z 0.111240 0.000000 1.938880 
# 
# From -- ./inp_files/61856.got.cif
#   From: 2010.05.17/outbox.cif.g08.bks.cpg/sg15_31_cif.got.tgz:61856.got - 2010.06.03 18:47:42.
