data_PCOD9291828
_publ_section_title
;
Structure prediction by ZEFSAII (Michael W. Deem and Ramdas Pophale) SiO2 
 PCOD9291828
Probable space group: C 2/C
;
_chemical_formula_sum "Si O2"
_cell_formula_units_Z 36
_cell_length_a 4.858955
_cell_length_b 16.161760
_cell_length_c 18.910117
_cell_angle_alpha 90.000000
_cell_angle_beta 100.575493
_cell_angle_gamma 90.000000
_cell_volume 1459.773323
_symmetry_space_group_name_H-M "C 2/C"
_symmetry_group_IT_number 15
_symmetry_cell_setting 'monoclinic'
loop_
_space_group_symop_operation_xyz
x,y,z
-x,y,1/2-z
-x,-y,-z
x,-y,1/2+z
1/2+x,1/2+y,z
1/2-x,1/2+y,1/2-z
1/2-x,1/2-y,-z
1/2+x,1/2-y,1/2+z
loop_
_atom_site_type_symbol
_atom_site_label
_atom_site_fract_x
_atom_site_fract_y
_atom_site_fract_z
Si Si1 0.640867 0.939562 0.562547
Si Si2 0.435246 0.935399 0.322692
Si Si3 0.000000 0.799457 0.250000
Si Si4 0.378580 0.676684 0.457907
Si Si5 0.792081 0.209170 0.888306
O O1 0.925043 0.903216 0.546388
O O2 0.428031 0.863069 0.565631
O O3 0.500000 0.000000 0.500000
O O4 0.685435 0.995170 0.633103
O O5 0.500000 0.974217 0.250000
O O6 0.693927 0.885768 0.369750
O O7 0.229434 0.860080 0.294491
O O8 0.869532 0.756616 0.313537
O O9 0.534487 0.741776 0.412537
O O10 0.455072 0.704170 0.542337
#
# Coordination Sequence:
#
# PCOD9291828 Si02
#       5
#     8   8   4   8   8
#     4  12  24  43  68 102 135 176 220 285 337 404
#     4  10  23  41  66  93 133 182 225 269 341 411
#     4  10  22  42  72  92 134 186 234 272 340 422
#     4  11  26  41  72 101 138 169 231 285 341 391
#     4  10  23  43  67  99 131 182 225 281 336 411
#
# _framework density 24.661366000000001
#
# number of rings (size 3 to 8) (size 9 to 14) (size 15 to 20)
#    0.000    1.333    2.222    2.000    9.333    1.778 
#    2.000    0.000    0.000    0.000    0.000    0.000 
#    0.000    0.000    0.000    0.000    0.000    0.000 
#
# Total GULP energy -100733.388756 kJ/mol
# GULP energy per Si atom -5596.299375 kJ/mol
# Density = 2.460524 g / cm^3
# Si number density = 24.661366 Si / 1000 Ang^3
#
#
#
# Elastic Constant Matrix: (Units=GPa)
#
#
# Indices 1 2 3 4 5 6 
#
# 1 92.8203 -11.2758 25.7916 0.0000 -14.2578 0.0000
# 2 -11.2758 66.4384 42.5948 0.0000 -16.4498 0.0000
# 3 25.7916 42.5948 159.4681 0.0000 -29.1286 0.0000
# 4 0.0000 0.0000 0.0000 45.0016 0.0000 -2.7780
# 5 -14.2578 -16.4498 -29.1286 0.0000 52.8879 0.0000
# 6 0.0000 0.0000 0.0000 -2.7780 0.0000 17.8330
#
#
#
# Elastic Compliance Matrix: (Units=1/GPa)
#
#
# Indices 1 2 3 4 5 6 
#
# 1 0.012606 0.004692 -0.002674 0.000000 0.003385 0.000000
# 2 0.004692 0.020444 -0.005367 0.000000 0.004668 0.000000
# 3 -0.002674 -0.005367 0.008562 0.000000 0.002325 0.000000
# 4 0.000000 0.000000 0.000000 0.022437 0.000000 0.003495
# 5 0.003385 0.004668 0.002325 0.000000 0.022553 0.000000
# 6 0.000000 0.000000 0.000000 0.003495 0.000000 0.056620
#
#
# Mechanical properties :
#
#
# Convention : Reuss Voigt Hill
#
# Bulk Modulus (GPa) = 28.64126 48.10534 38.37330
# Shear Modulus (GPa) = 30.94841 40.58556 35.76699
#
# Velocity S-wave (km/s) = 3.54635 4.06114 3.81244
# Velocity P-wave (km/s) = 5.32990 6.44509 5.91384
#
# Compressibility (1/GPa) = 0.03491466
#
# Stress axis : x y z
#
# Youngs Moduli (GPa) = 79.32462 48.91297 116.80069
#
# Poissons Ratio (x) = -0.22950 0.31230
# Poissons Ratio (y) = -0.37219 0.62688
# Poissons Ratio (z) = 0.21210 0.26252
#
# Static dielectric constant tensor:
#      x y z
#    x 2.166530 0.000000 -0.000540 
#    y 0.000000 2.082510 0.000000 
#    z -0.000540 0.000000 2.009130 
# 
# From -- ./inp_files/184096.got.cif
#   From: 2010.05.17/outbox.cif.g08.bks.cpg/sg15_93_cif.got.tgz:184096.got - 2010.06.03 18:47:42.
