data_PCOD9291676
_publ_section_title
;
Structure prediction by ZEFSAII (Michael W. Deem and Ramdas Pophale) SiO2 
 PCOD9291676
Probable space group: C 2/C
;
_chemical_formula_sum "Si O2"
_cell_formula_units_Z 40
_cell_length_a 13.337223
_cell_length_b 29.579682
_cell_length_c 13.493455
_cell_angle_alpha 90.000000
_cell_angle_beta 21.782490
_cell_angle_gamma 90.000000
_cell_volume 1975.396980
_symmetry_space_group_name_H-M "C 2/C"
_symmetry_group_IT_number 15
_symmetry_cell_setting 'monoclinic'
loop_
_space_group_symop_operation_xyz
x,y,z
-x,y,1/2-z
-x,-y,-z
x,-y,1/2+z
1/2+x,1/2+y,z
1/2-x,1/2+y,1/2-z
1/2-x,1/2-y,-z
1/2+x,1/2-y,1/2+z
loop_
_atom_site_type_symbol
_atom_site_label
_atom_site_fract_x
_atom_site_fract_y
_atom_site_fract_z
Si Si1 0.100621 0.386931 0.268873
Si Si2 0.772117 0.922305 0.542299
Si Si3 0.950917 0.721110 0.179905
Si Si4 0.156522 0.860004 0.837240
Si Si5 0.210748 0.509675 0.718967
O O1 0.184006 0.439669 0.203100
O O2 0.000000 0.378132 0.250000
O O3 0.860117 0.378695 0.567331
O O4 0.359919 0.356736 0.061239
O O5 0.500000 0.900054 0.750000
O O6 0.872637 0.895129 0.545398
O O7 0.688425 0.971899 0.655597
O O8 0.000000 0.923886 0.250000
O O9 0.743842 0.763623 0.372078
O O10 0.800669 0.683487 0.253148
O O11 0.000000 0.707803 0.250000
O O12 0.500000 0.500000 0.500000
O O13 0.000000 0.500000 0.000000
#
# Coordination Sequence:
#
# PCOD9291676 Si02
#       5
#     8   8   8   8   8
#     4  12  25  43  66  90 129 181 228 270 317 371
#     4  12  24  38  62  93 127 167 209 265 327 378
#     4  10  22  42  70 102 133 165 200 252 336 416
#     4  12  24  43  67  96 132 165 218 273 318 392
#     4  12  22  42  61  86 129 174 221 271 319 369
#
# _framework density 20.249095000000001
#
# number of rings (size 3 to 8) (size 9 to 14) (size 15 to 20)
#    0.000    0.400    4.000    5.400    0.000    4.000 
#    0.000    0.000    0.000   12.000    0.000    0.000 
#    0.000    0.000    0.000    0.000    0.000    0.000 
#
# Total GULP energy -111879.015263 kJ/mol
# GULP energy per Si atom -5593.950763 kJ/mol
# Density = 2.020301 g / cm^3
# Si number density = 20.249095 Si / 1000 Ang^3
#
#
#
# Elastic Constant Matrix: (Units=GPa)
#
#
# Indices 1 2 3 4 5 6 
#
# 1 176.1815 39.4151 64.7902 0.0676 -8.2798 0.0669
# 2 39.4151 59.2453 5.2117 0.0173 7.3720 0.0190
# 3 64.7902 5.2117 154.7501 0.5747 7.3940 0.5648
# 4 0.0676 0.0173 0.5747 203.5650 -0.0275 158.8913
# 5 -8.2798 7.3720 7.3940 -0.0275 44.6726 -0.0272
# 6 0.0669 0.0190 0.5648 158.8913 -0.0272 184.5998
#
#
#
# Elastic Compliance Matrix: (Units=1/GPa)
#
#
# Indices 1 2 3 4 5 6 
#
# 1 0.008348 -0.005629 -0.003451 0.000004 0.003047 0.000005
# 2 -0.005629 0.021060 0.001878 -0.000002 -0.004830 -0.000005
# 3 -0.003451 0.001878 0.007952 -0.000010 -0.002266 -0.000015
# 4 0.000004 -0.000002 -0.000010 0.014970 0.000004 -0.012885
# 5 0.003047 -0.004830 -0.002266 0.000004 0.024122 0.000006
# 6 0.000005 -0.000005 -0.000015 -0.012885 0.000006 0.016508
#
#
# Mechanical properties :
#
#
# Convention : Reuss Voigt Hill
#
# Bulk Modulus (GPa) = 43.56230 67.66789 55.61510
# Shear Modulus (GPa) = 43.47293 105.28479 74.37886
#
# Velocity S-wave (km/s) = 4.63850 7.21857 6.06726
# Velocity P-wave (km/s) = 7.08855 10.14728 8.75256
#
# Compressibility (1/GPa) = 0.02295563
#
# Stress axis : x y z
#
# Youngs Moduli (GPa) = 119.79461 47.48402 125.75480
#
# Poissons Ratio (x) = 0.26730 0.43398
# Poissons Ratio (y) = 0.67434 -0.23621
# Poissons Ratio (z) = 0.41341 -0.08919
#
# Static dielectric constant tensor:
#      x y z
#    x 1.730690 0.000000 -0.042240 
#    y 0.000000 1.752320 0.000000 
#    z -0.042240 0.000000 1.690940 
# 
# From -- ./inp_files/5935.got.cif
#   From: 2010.05.17/outbox.cif.g08.bks.cpg/sg15_3_cif.got.tgz:5935.got - 2010.06.03 18:47:42.
