data_PCOD9291386
_publ_section_title
;
Structure prediction by ZEFSAII (Michael W. Deem and Ramdas Pophale) SiO2 
 PCOD9291386
Probable space group: C 2/C
;
_chemical_formula_sum "Si O2"
_cell_formula_units_Z 28
_cell_length_a 11.308988
_cell_length_b 4.938186
_cell_length_c 21.191451
_cell_angle_alpha 90.000000
_cell_angle_beta 110.401829
_cell_angle_gamma 90.000000
_cell_volume 1109.218226
_symmetry_space_group_name_H-M "C 2/C"
_symmetry_group_IT_number 15
_symmetry_cell_setting 'monoclinic'
loop_
_space_group_symop_operation_xyz
x,y,z
-x,y,1/2-z
-x,-y,-z
x,-y,1/2+z
1/2+x,1/2+y,z
1/2-x,1/2+y,1/2-z
1/2-x,1/2-y,-z
1/2+x,1/2-y,1/2+z
loop_
_atom_site_type_symbol
_atom_site_label
_atom_site_fract_x
_atom_site_fract_y
_atom_site_fract_z
Si Si1 0.747945 0.143871 0.292790
Si Si2 0.500000 0.585039 0.750000
Si Si3 0.602622 0.143538 0.468367
Si Si4 0.496621 0.670023 0.384003
O O1 0.750556 0.334442 0.229949
O O2 0.611652 0.220735 0.291163
O O3 0.848076 0.236469 0.364373
O O4 0.516582 0.402884 0.691928
O O5 0.750000 0.250000 0.500000
O O6 0.530022 0.407319 0.430132
O O7 0.500000 0.000000 0.500000
O O8 0.596107 0.901756 0.416265
#
# Coordination Sequence:
#
# PCOD9291386 Si02
#       4
#     8   4   8   8
#     4  10  22  42  67 110 150 190 239 306 401 474
#     4  10  24  46  78 114 154 190 250 324 422 468
#     4  12  29  55  78 112 155 219 274 327 393 480
#     4  11  25  48  80 112 156 200 262 335 396 489
#
# _framework density 25.243005
#
# number of rings (size 3 to 8) (size 9 to 14) (size 15 to 20)
#    0.000    1.143    0.000    5.143    4.000   10.286 
#   15.429    0.000    0.000    0.000    0.000    0.000 
#    0.000    0.000    0.000    0.000    0.000    0.000 
#
# Total GULP energy -78009.498837 kJ/mol
# GULP energy per Si atom -5572.107060 kJ/mol
# Density = 2.518555 g / cm^3
# Si number density = 25.243005 Si / 1000 Ang^3
#
#
#
# Elastic Constant Matrix: (Units=GPa)
#
#
# Indices 1 2 3 4 5 6 
#
# 1 116.2392 47.2504 67.2784 0.0000 46.5867 0.0000
# 2 47.2504 155.2267 66.2798 0.0000 29.0271 0.0000
# 3 67.2784 66.2798 111.9076 0.0000 30.6720 0.0000
# 4 0.0000 0.0000 0.0000 55.5042 0.0000 23.2298
# 5 46.5867 29.0271 30.6720 0.0000 63.4444 0.0000
# 6 0.0000 0.0000 0.0000 23.2298 0.0000 32.7811
#
#
#
# Elastic Compliance Matrix: (Units=1/GPa)
#
#
# Indices 1 2 3 4 5 6 
#
# 1 0.016295 -0.000265 -0.007370 0.000000 -0.008281 0.000000
# 2 -0.000265 0.008790 -0.004608 0.000000 -0.001599 0.000000
# 3 -0.007370 -0.004608 0.016179 0.000000 -0.000301 0.000000
# 4 0.000000 0.000000 0.000000 0.025613 0.000000 -0.018150
# 5 -0.008281 -0.001599 -0.000301 0.000000 0.022720 0.000000
# 6 0.000000 0.000000 0.000000 -0.018150 0.000000 0.043367
#
#
# Mechanical properties :
#
#
# Convention : Reuss Voigt Hill
#
# Bulk Modulus (GPa) = 59.60427 82.77674 71.19050
# Shear Modulus (GPa) = 30.66681 43.85027 37.25854
#
# Velocity S-wave (km/s) = 3.48927 4.17241 3.84604
# Velocity P-wave (km/s) = 6.31639 7.48833 6.92719
#
# Compressibility (1/GPa) = 0.01677732
#
# Stress axis : x y z
#
# Youngs Moduli (GPa) = 61.36707 113.77201 61.80902
#
# Poissons Ratio (x) = 0.03011 0.45554
# Poissons Ratio (y) = 0.01624 0.28484
# Poissons Ratio (z) = 0.45229 0.52430
#
# Static dielectric constant tensor:
#      x y z
#    x 2.767120 0.000000 -0.213850 
#    y 0.000000 1.919620 0.000000 
#    z -0.213850 0.000000 2.110390 
# 
# From -- ./inp_files/235228.got.cif
#   From: 2010.05.17/outbox.cif.g08.bks.cpg/sg15_118_cif.got.tgz:235228.got - 2010.06.03 18:47:42.
