data_PCOD9291468
_publ_section_title
;
Structure prediction by ZEFSAII (Michael W. Deem and Ramdas Pophale) SiO2 
 PCOD9291468
Probable space group: C 2/C
;
_chemical_formula_sum "Si O2"
_cell_formula_units_Z 56
_cell_length_a 8.627236
_cell_length_b 16.954501
_cell_length_c 17.601813
_cell_angle_alpha 90.000000
_cell_angle_beta 75.197012
_cell_angle_gamma 90.000000
_cell_volume 2489.174004
_symmetry_space_group_name_H-M "C 2/C"
_symmetry_group_IT_number 15
_symmetry_cell_setting 'monoclinic'
loop_
_space_group_symop_operation_xyz
x,y,z
-x,y,1/2-z
-x,-y,-z
x,-y,1/2+z
1/2+x,1/2+y,z
1/2-x,1/2+y,1/2-z
1/2-x,1/2-y,-z
1/2+x,1/2-y,1/2+z
loop_
_atom_site_type_symbol
_atom_site_label
_atom_site_fract_x
_atom_site_fract_y
_atom_site_fract_z
Si Si1 0.830808 0.659201 0.671390
Si Si2 0.483942 0.504168 0.881313
Si Si3 0.500000 0.288557 0.750000
Si Si4 0.059929 0.685629 0.521468
Si Si5 0.738968 0.998369 0.270367
Si Si6 0.000000 0.773669 0.250000
Si Si7 0.403948 0.367891 0.014365
Si Si8 0.661257 0.848605 0.839747
O O1 0.848559 0.584352 0.722940
O O2 0.644085 0.678214 0.696348
O O3 0.924912 0.733130 0.694944
O O4 0.905917 0.647334 0.579399
O O5 0.648491 0.485061 0.815643
O O6 0.350982 0.510671 0.832089
O O7 0.519314 0.585169 0.923811
O O8 0.432028 0.433189 0.944442
O O9 0.352786 0.336810 0.804030
O O10 0.216491 0.657155 0.550169
O O11 0.032473 0.780527 0.517030
O O12 0.104703 0.655133 0.432682
O O13 0.622821 0.069525 0.304563
O O14 0.923206 0.721155 0.194230
#
# Coordination Sequence:
#
# PCOD9291468 Si02
#       8
#     8   8   4   8   8   4   8   8
#     4  11  26  43  66 101 136 178 229 280 351 397
#     4  10  22  42  67  99 139 184 227 272 341 416
#     4  10  22  42  74  96 128 180 240 280 318 416
#     4  11  24  41  70 100 137 177 228 291 337 403
#     4  11  24  41  67  97 140 184 221 281 335 409
#     4  10  26  46  66 100 134 186 232 282 340 416
#     4  10  22  42  68 106 134 179 229 283 339 413
#     4  11  24  45  69 100 140 179 233 279 342 410
#
# _framework density 22.497425
#
# number of rings (size 3 to 8) (size 9 to 14) (size 15 to 20)
#    0.000    1.429    1.429    3.429   12.000    1.714 
#    0.000    0.000    0.000    0.000    0.000    0.000 
#    0.000    0.000    0.000    0.000    0.000    0.000 
#
# Total GULP energy -156495.442795 kJ/mol
# GULP energy per Si atom -5589.122957 kJ/mol
# Density = 2.244622 g / cm^3
# Si number density = 22.497425 Si / 1000 Ang^3
#
#
#
# Elastic Constant Matrix: (Units=GPa)
#
#
# Indices 1 2 3 4 5 6 
#
# 1 83.1065 37.3633 50.0453 0.0000 -13.0550 0.0000
# 2 37.3633 109.4571 9.9104 0.0000 -12.9254 0.0000
# 3 50.0453 9.9104 101.6970 0.0000 -22.9795 0.0000
# 4 0.0000 0.0000 0.0000 30.0990 0.0000 14.7600
# 5 -13.0550 -12.9254 -22.9795 0.0000 41.6190 0.0000
# 6 0.0000 0.0000 0.0000 14.7600 0.0000 44.7471
#
#
#
# Elastic Compliance Matrix: (Units=1/GPa)
#
#
# Indices 1 2 3 4 5 6 
#
# 1 0.020537 -0.006233 -0.009690 0.000000 -0.000844 0.000000
# 2 -0.006233 0.011383 0.002645 0.000000 0.003040 0.000000
# 3 -0.009690 0.002645 0.015816 0.000000 0.006514 0.000000
# 4 0.000000 0.000000 0.000000 0.039635 0.000000 -0.013074
# 5 -0.000844 0.003040 0.006514 0.000000 0.028304 0.000000
# 6 0.000000 0.000000 0.000000 -0.013074 0.000000 0.026660
#
#
# Mechanical properties :
#
#
# Convention : Reuss Voigt Hill
#
# Bulk Modulus (GPa) = 47.21201 54.32205 50.76703
# Shear Modulus (GPa) = 28.41705 36.42247 32.41976
#
# Velocity S-wave (km/s) = 3.55790 4.02800 3.80023
# Velocity P-wave (km/s) = 6.15705 6.76988 6.47073
#
# Compressibility (1/GPa) = 0.02118105
#
# Stress axis : x y z
#
# Youngs Moduli (GPa) = 48.69181 87.84934 63.22817
#
# Poissons Ratio (x) = 0.54754 0.61266
# Poissons Ratio (y) = 0.30348 -0.16723
# Poissons Ratio (z) = 0.47181 -0.23235
#
# Static dielectric constant tensor:
#      x y z
#    x 1.853200 0.000000 0.029930 
#    y 0.000000 1.847990 0.000000 
#    z 0.029930 0.000000 1.815190 
# 
# From -- ./inp_files/190977.got.cif
#   From: 2010.05.17/outbox.cif.g08.bks.cpg/sg15_96_cif.got.tgz:190977.got - 2010.06.03 18:47:42.
