data_PCOD9291962
_publ_section_title
;
Structure prediction by ZEFSAII (Michael W. Deem and Ramdas Pophale) SiO2 
 PCOD9291962
Probable space group: C 2/C
;
_chemical_formula_sum "Si O2"
_cell_formula_units_Z 60
_cell_length_a 19.291512
_cell_length_b 13.330276
_cell_length_c 13.320912
_cell_angle_alpha 90.000000
_cell_angle_beta 59.433099
_cell_angle_gamma 90.000000
_cell_volume 2949.583211
_symmetry_space_group_name_H-M "C 2/C"
_symmetry_group_IT_number 15
_symmetry_cell_setting 'monoclinic'
loop_
_space_group_symop_operation_xyz
x,y,z
-x,y,1/2-z
-x,-y,-z
x,-y,1/2+z
1/2+x,1/2+y,z
1/2-x,1/2+y,1/2-z
1/2-x,1/2-y,-z
1/2+x,1/2-y,1/2+z
loop_
_atom_site_type_symbol
_atom_site_label
_atom_site_fract_x
_atom_site_fract_y
_atom_site_fract_z
Si Si1 0.276246 0.019179 0.620931
Si Si2 0.974311 0.971256 0.627827
Si Si3 0.500000 0.656183 0.750000
Si Si4 0.177136 0.169000 0.564836
Si Si5 0.316308 0.161813 0.947460
Si Si6 0.525731 0.259183 0.619414
Si Si7 0.812214 0.884396 0.670090
Si Si8 0.861826 0.325548 0.181763
O O1 0.291509 0.940394 0.520562
O O2 0.255735 0.955205 0.735692
O O3 0.206761 0.092618 0.629286
O O4 0.347015 0.091203 0.608481
O O5 0.887376 0.920857 0.682632
O O6 0.032065 0.880004 0.618312
O O7 0.976985 0.075384 0.682336
O O8 0.000000 0.000000 0.500000
O O9 0.585650 0.707617 0.656789
O O10 0.250000 0.250000 0.500000
O O11 0.172576 0.112019 0.460191
O O12 0.390302 0.206071 0.958010
O O13 0.342031 0.144703 0.811816
O O14 0.250000 0.250000 0.000000
O O15 0.500000 0.229825 0.750000
O O16 0.452207 0.219449 0.606519
O O17 0.802323 0.767505 0.702419
#
# Coordination Sequence:
#
# PCOD9291962 Si02
#       8
#     8   8   4   8   8   8   8   8
#     4  12  24  41  69  94 134 184 223 279 354 409
#     4  11  21  36  65  97 127 168 221 286 338 401
#     4  12  24  42  70 102 130 184 238 272 364 414
#     4  12  26  45  68  99 144 180 226 294 346 412
#     4  11  23  40  67  99 129 172 227 281 339 414
#     4   9  21  39  63  89 133 165 217 286 329 394
#     4  11  22  41  63 100 131 174 221 287 343 399
#     4  10  22  43  64  90 133 175 224 275 339 406
#
# _framework density 20.341856
#
# number of rings (size 3 to 8) (size 9 to 14) (size 15 to 20)
#    0.000    1.067    6.000    0.800    1.867    1.600 
#    2.400    0.000    7.333    0.000    0.000    0.000 
#    0.000    0.000    0.000    0.000    0.000    0.000 
#
# Total GULP energy -167108.820601 kJ/mol
# GULP energy per Si atom -5570.294020 kJ/mol
# Density = 2.029556 g / cm^3
# Si number density = 20.341856 Si / 1000 Ang^3
#
#
#
# Elastic Constant Matrix: (Units=GPa)
#
#
# Indices 1 2 3 4 5 6 
#
# 1 85.7168 35.5572 21.1918 0.0000 -12.7918 0.0000
# 2 35.5572 82.5668 15.1222 0.0000 -15.9991 0.0000
# 3 21.1918 15.1222 71.6797 0.0000 0.2728 0.0000
# 4 0.0000 0.0000 0.0000 21.7717 0.0000 12.2783
# 5 -12.7918 -15.9991 0.2728 0.0000 36.6226 0.0000
# 6 0.0000 0.0000 0.0000 12.2783 0.0000 38.2204
#
#
#
# Elastic Compliance Matrix: (Units=1/GPa)
#
#
# Indices 1 2 3 4 5 6 
#
# 1 0.015157 -0.005331 -0.003368 0.000000 0.002990 0.000000
# 2 -0.005331 0.015699 -0.001755 0.000000 0.005010 0.000000
# 3 -0.003368 -0.001755 0.015325 0.000000 -0.002057 0.000000
# 4 0.000000 0.000000 0.000000 0.056094 0.000000 -0.018020
# 5 0.002990 0.005010 -0.002057 0.000000 0.030554 0.000000
# 6 0.000000 0.000000 0.000000 -0.018020 0.000000 0.031953
#
#
# Mechanical properties :
#
#
# Convention : Reuss Voigt Hill
#
# Bulk Modulus (GPa) = 39.56768 42.63398 41.10083
# Shear Modulus (GPa) = 25.75819 30.52907 28.14363
#
# Velocity S-wave (km/s) = 3.56232 3.87822 3.72362
# Velocity P-wave (km/s) = 6.03438 6.40768 6.22383
#
# Compressibility (1/GPa) = 0.02527315
#
# Stress axis : x y z
#
# Youngs Moduli (GPa) = 65.97813 63.69714 65.25415
#
# Poissons Ratio (x) = 0.33956 0.21976
# Poissons Ratio (y) = 0.35172 0.11453
# Poissons Ratio (z) = 0.22219 0.11179
#
# Static dielectric constant tensor:
#      x y z
#    x 1.752370 0.000000 -0.024780 
#    y 0.000000 1.738300 0.000000 
#    z -0.024780 0.000000 1.750430 
# 
# From -- ./inp_files/167606.got.cif
#   From: 2010.05.17/outbox.cif.g08.bks.cpg/sg15_84_cif.got.tgz:167606.got - 2010.06.03 18:47:42.
