data_PCOD9291415
_publ_section_title
;
Structure prediction by ZEFSAII (Michael W. Deem and Ramdas Pophale) SiO2 
 PCOD9291415
Probable space group: C 2/C
;
_chemical_formula_sum "Si O2"
_cell_formula_units_Z 40
_cell_length_a 11.295661
_cell_length_b 11.666732
_cell_length_c 14.945816
_cell_angle_alpha 90.000000
_cell_angle_beta 98.094456
_cell_angle_gamma 90.000000
_cell_volume 1949.988519
_symmetry_space_group_name_H-M "C 2/C"
_symmetry_group_IT_number 15
_symmetry_cell_setting 'monoclinic'
loop_
_space_group_symop_operation_xyz
x,y,z
-x,y,1/2-z
-x,-y,-z
x,-y,1/2+z
1/2+x,1/2+y,z
1/2-x,1/2+y,1/2-z
1/2-x,1/2-y,-z
1/2+x,1/2-y,1/2+z
loop_
_atom_site_type_symbol
_atom_site_label
_atom_site_fract_x
_atom_site_fract_y
_atom_site_fract_z
Si Si1 0.069479 0.102805 0.553017
Si Si2 0.581622 0.228196 0.897528
Si Si3 0.663568 0.818894 0.219065
Si Si4 0.906251 0.741116 0.161937
Si Si5 0.682139 0.991436 0.361028
O O1 0.113840 0.186259 0.478848
O O2 0.979423 0.179756 0.601616
O O3 0.178919 0.044243 0.617316
O O4 0.000000 0.000000 0.500000
O O5 0.441513 0.224275 0.856615
O O6 0.650866 0.252851 0.810988
O O7 0.616885 0.096960 0.920890
O O8 0.791732 0.807162 0.189067
O O9 0.857114 0.446503 0.242365
O O10 0.852287 0.620575 0.122533
O O11 0.000000 0.713803 0.250000
#
# Coordination Sequence:
#
# PCOD9291415 Si02
#       5
#     8   8   8   8   8
#     4  12  26  42  64 103 142 174 227 290 351 402
#     4   9  20  43  64  95 132 176 225 281 343 405
#     4   9  20  40  66  95 130 176 230 276 337 406
#     4  12  23  43  70  99 134 180 237 282 338 421
#     4  10  22  42  67  94 132 178 233 278 339 409
#
# _framework density 20.512941999999999
#
# number of rings (size 3 to 8) (size 9 to 14) (size 15 to 20)
#    1.200    0.400    2.000    3.000    0.000    5.600 
#    3.600    0.000    0.000    0.000    0.000    0.000 
#    0.000    0.000    0.000    0.000    0.000    0.000 
#
# Total GULP energy -111454.888594 kJ/mol
# GULP energy per Si atom -5572.744430 kJ/mol
# Density = 2.046625 g / cm^3
# Si number density = 20.512942 Si / 1000 Ang^3
#
#
#
# Elastic Constant Matrix: (Units=GPa)
#
#
# Indices 1 2 3 4 5 6 
#
# 1 109.3559 47.2805 33.7898 0.0000 -4.3464 0.0000
# 2 47.2805 141.9029 37.3325 0.0000 -7.6380 0.0000
# 3 33.7898 37.3325 51.8991 0.0000 0.2951 0.0000
# 4 0.0000 0.0000 0.0000 24.9673 0.0000 2.9774
# 5 -4.3464 -7.6380 0.2951 0.0000 25.4720 0.0000
# 6 0.0000 0.0000 0.0000 2.9774 0.0000 28.1159
#
#
#
# Elastic Compliance Matrix: (Units=1/GPa)
#
#
# Indices 1 2 3 4 5 6 
#
# 1 0.012134 -0.002324 -0.006236 0.000000 0.001446 0.000000
# 2 -0.002324 0.009324 -0.005208 0.000000 0.002460 0.000000
# 3 -0.006236 -0.005208 0.027091 0.000000 -0.002939 0.000000
# 4 0.000000 0.000000 0.000000 0.040565 0.000000 -0.004296
# 5 0.001446 0.002460 -0.002939 0.000000 0.040277 0.000000
# 6 0.000000 0.000000 0.000000 -0.004296 0.000000 0.036022
#
#
# Mechanical properties :
#
#
# Convention : Reuss Voigt Hill
#
# Bulk Modulus (GPa) = 47.59083 59.99592 53.79338
# Shear Modulus (GPa) = 25.00589 28.02805 26.51697
#
# Velocity S-wave (km/s) = 3.49525 3.70044 3.59931
# Velocity P-wave (km/s) = 6.28807 6.89703 6.59958
#
# Compressibility (1/GPa) = 0.02101245
#
# Stress axis : x y z
#
# Youngs Moduli (GPa) = 82.41464 107.25045 36.91262
#
# Poissons Ratio (x) = 0.24929 0.23019
# Poissons Ratio (y) = 0.19156 0.19223
# Poissons Ratio (z) = 0.51395 0.55852
#
# Static dielectric constant tensor:
#      x y z
#    x 2.129120 0.000000 0.039060 
#    y 0.000000 1.757860 0.000000 
#    z 0.039060 0.000000 1.770170 
# 
# From -- ./inp_files/235924.got.cif
#   From: 2010.05.17/outbox.cif.g08.bks.cpg/sg15_118_cif.got.tgz:235924.got - 2010.06.03 18:47:42.
