data_PCOD9291157
_publ_section_title
;
Structure prediction by ZEFSAII (Michael W. Deem and Ramdas Pophale) SiO2 
 PCOD9291157
Probable space group: C 2/C
;
_chemical_formula_sum "Si O2"
_cell_formula_units_Z 52
_cell_length_a 28.600319
_cell_length_b 13.891654
_cell_length_c 8.273877
_cell_angle_alpha 90.000000
_cell_angle_beta 49.307488
_cell_angle_gamma 90.000000
_cell_volume 2492.463889
_symmetry_space_group_name_H-M "C 2/C"
_symmetry_group_IT_number 15
_symmetry_cell_setting 'monoclinic'
loop_
_space_group_symop_operation_xyz
x,y,z
-x,y,1/2-z
-x,-y,-z
x,-y,1/2+z
1/2+x,1/2+y,z
1/2-x,1/2+y,1/2-z
1/2-x,1/2-y,-z
1/2+x,1/2-y,1/2+z
loop_
_atom_site_type_symbol
_atom_site_label
_atom_site_fract_x
_atom_site_fract_y
_atom_site_fract_z
Si Si1 0.179187 0.366738 0.081225
Si Si2 0.376829 0.970362 0.600005
Si Si3 0.032400 0.128972 0.947568
Si Si4 0.573525 0.433276 0.993626
Si Si5 0.398852 0.199301 0.276619
Si Si6 0.500000 0.080461 0.250000
Si Si7 0.180705 0.815509 0.787923
O O1 0.168687 0.441037 0.254639
O O2 0.163906 0.261628 0.186032
O O3 0.138544 0.416839 0.033358
O O4 0.248388 0.346015 0.863279
O O5 0.368561 0.888640 0.752827
O O6 0.447329 0.011505 0.447841
O O7 0.054545 0.102472 0.714524
O O8 0.065111 0.226708 0.921149
O O9 0.053425 0.041823 0.010648
O O10 0.959939 0.127295 0.073678
O O11 0.645034 0.413186 0.827772
O O12 0.454879 0.152064 0.252947
O O13 0.348827 0.261093 0.490103
#
# Coordination Sequence:
#
# PCOD9291157 Si02
#       7
#     8   8   8   8   8   4   8
#     4  11  24  42  61  93 127 173 217 264 322 390
#     4  12  25  41  65  96 132 166 220 271 329 395
#     4   9  19  33  58  87 119 155 200 262 311 378
#     4   9  18  35  56  84 118 157 203 253 312 369
#     4  11  22  40  65  96 124 169 216 268 334 392
#     4  12  22  40  70  94 136 170 208 278 338 386
#     4  10  22  42  65  84 127 173 212 264 320 386
#
# _framework density 20.862888999999999
#
# number of rings (size 3 to 8) (size 9 to 14) (size 15 to 20)
#    0.000    1.538    3.077    2.308    0.000    4.308 
#    0.000    3.077    0.000    0.000    0.000    0.000 
#    0.000    0.000    0.000    0.000    0.000    0.000 
#
# Total GULP energy -144776.827453 kJ/mol
# GULP energy per Si atom -5568.339517 kJ/mol
# Density = 2.081540 g / cm^3
# Si number density = 20.862889 Si / 1000 Ang^3
#
#
#
# Elastic Constant Matrix: (Units=GPa)
#
#
# Indices 1 2 3 4 5 6 
#
# 1 29.7190 14.3686 13.4793 0.0000 -2.0080 0.0000
# 2 14.3686 72.4967 25.5599 0.0000 -15.3388 0.0000
# 3 13.4793 25.5599 61.8674 0.0000 -18.0452 0.0000
# 4 0.0000 0.0000 0.0000 26.5025 0.0000 3.7525
# 5 -2.0080 -15.3388 -18.0452 0.0000 21.8351 0.0000
# 6 0.0000 0.0000 0.0000 3.7525 0.0000 24.8421
#
#
#
# Elastic Compliance Matrix: (Units=1/GPa)
#
#
# Indices 1 2 3 4 5 6 
#
# 1 0.040101 -0.006695 -0.008258 0.000000 -0.007840 0.000000
# 2 -0.006695 0.018304 -0.003337 0.000000 0.009485 0.000000
# 3 -0.008258 -0.003337 0.024292 0.000000 0.016972 0.000000
# 4 0.000000 0.000000 0.000000 0.038557 0.000000 -0.005824
# 5 -0.007840 0.009485 0.016972 0.000000 0.065766 0.000000
# 6 0.000000 0.000000 0.000000 -0.005824 0.000000 0.041134
#
#
# Mechanical properties :
#
#
# Convention : Reuss Voigt Hill
#
# Bulk Modulus (GPa) = 21.68388 30.09983 25.89185
# Shear Modulus (GPa) = 17.85042 22.01430 19.93236
#
# Velocity S-wave (km/s) = 2.92825 3.25189 3.09430
# Velocity P-wave (km/s) = 4.67428 5.34402 5.02033
#
# Compressibility (1/GPa) = 0.04611721
#
# Stress axis : x y z
#
# Youngs Moduli (GPa) = 24.93694 54.63291 41.16655
#
# Poissons Ratio (x) = 0.36578 0.33994
# Poissons Ratio (y) = 0.16696 0.13737
# Poissons Ratio (z) = 0.20592 0.18230
#
# Static dielectric constant tensor:
#      x y z
#    x 1.760370 0.000000 0.018180 
#    y 0.000000 1.753450 0.000000 
#    z 0.018180 0.000000 1.877720 
# 
# From -- ./inp_files/66106.got.cif
#   From: 2010.05.17/outbox.cif.g08.bks.cpg/sg15_34_cif.got.tgz:66106.got - 2010.06.03 18:47:42.
