data_PCOD9291421
_publ_section_title
;
Structure prediction by ZEFSAII (Michael W. Deem and Ramdas Pophale) SiO2 
 PCOD9291421
Probable space group: C 2/C
;
_chemical_formula_sum "Si O2"
_cell_formula_units_Z 24
_cell_length_a 18.105087
_cell_length_b 5.097559
_cell_length_c 12.178229
_cell_angle_alpha 90.000000
_cell_angle_beta 74.585088
_cell_angle_gamma 90.000000
_cell_volume 1083.517366
_symmetry_space_group_name_H-M "C 2/C"
_symmetry_group_IT_number 15
_symmetry_cell_setting 'monoclinic'
loop_
_space_group_symop_operation_xyz
x,y,z
-x,y,1/2-z
-x,-y,-z
x,-y,1/2+z
1/2+x,1/2+y,z
1/2-x,1/2+y,1/2-z
1/2-x,1/2-y,-z
1/2+x,1/2-y,1/2+z
loop_
_atom_site_type_symbol
_atom_site_label
_atom_site_fract_x
_atom_site_fract_y
_atom_site_fract_z
Si Si1 0.408962 0.991413 0.031770
Si Si2 0.165217 0.008453 0.824478
Si Si3 0.310202 0.825696 0.381652
O O1 0.374649 0.223559 0.121829
O O2 0.375835 0.720074 0.090099
O O3 0.377961 0.036189 0.920422
O O4 0.500000 0.000000 0.000000
O O5 0.160519 0.921212 0.699878
O O6 0.255322 0.011483 0.821836
O O7 0.250000 0.750000 0.500000
#
# Coordination Sequence:
#
# PCOD9291421 Si02
#       3
#     8   8   8
#     4  11  25  44  66  96 134 171 215 269 327 387
#     4  11  23  42  67  96 128 173 220 265 323 385
#     4  10  22  42  67  95 128 168 217 269 316 381
#
# _framework density 22.150084
#
# number of rings (size 3 to 8) (size 9 to 14) (size 15 to 20)
#    0.000    1.333    0.000    6.000    0.000    9.333 
#    0.000    6.667    0.000    0.000    0.000    0.000 
#    0.000    0.000    0.000    0.000    0.000    0.000 
#
# Total GULP energy -67139.135562 kJ/mol
# GULP energy per Si atom -5594.927964 kJ/mol
# Density = 2.209967 g / cm^3
# Si number density = 22.150084 Si / 1000 Ang^3
#
#
#
# Elastic Constant Matrix: (Units=GPa)
#
#
# Indices 1 2 3 4 5 6 
#
# 1 172.1118 29.2041 31.8291 0.0000 -16.5030 0.0000
# 2 29.2041 100.0788 19.6182 0.0000 -22.2628 0.0000
# 3 31.8291 19.6182 99.4188 0.0000 0.9887 0.0000
# 4 0.0000 0.0000 0.0000 47.5366 0.0000 -9.3267
# 5 -16.5030 -22.2628 0.9887 0.0000 24.7970 0.0000
# 6 0.0000 0.0000 0.0000 -9.3267 0.0000 14.2237
#
#
#
# Elastic Compliance Matrix: (Units=1/GPa)
#
#
# Indices 1 2 3 4 5 6 
#
# 1 0.006679 -0.000677 -0.002044 0.000000 0.003919 0.000000
# 2 -0.000677 0.013251 -0.002513 0.000000 0.011546 0.000000
# 3 -0.002044 -0.002513 0.011249 0.000000 -0.004065 0.000000
# 4 0.000000 0.000000 0.000000 0.024142 0.000000 0.015830
# 5 0.003919 0.011546 -0.004065 0.000000 0.053464 0.000000
# 6 0.000000 0.000000 0.000000 0.015830 0.000000 0.080685
#
#
# Mechanical properties :
#
#
# Convention : Reuss Voigt Hill
#
# Bulk Modulus (GPa) = 48.28097 59.21245 53.74671
# Shear Modulus (GPa) = 24.17320 36.70868 30.44094
#
# Velocity S-wave (km/s) = 3.30712 4.07537 3.71118
# Velocity P-wave (km/s) = 6.03550 6.99538 6.53309
#
# Compressibility (1/GPa) = 0.02071210
#
# Stress axis : x y z
#
# Youngs Moduli (GPa) = 149.73030 75.46765 88.89643
#
# Poissons Ratio (x) = 0.05106 0.18167
# Poissons Ratio (y) = 0.10130 0.22340
# Poissons Ratio (z) = 0.30600 0.18965
#
# Static dielectric constant tensor:
#      x y z
#    x 1.789240 0.000000 0.053640 
#    y 0.000000 1.851860 0.000000 
#    z 0.053640 0.000000 1.853290 
# 
# From -- ./inp_files/92807.got.cif
#   From: 2010.05.17/outbox.cif.g08.bks.cpg/sg15_47_cif.got.tgz:92807.got - 2010.06.03 18:47:42.
