data_PCOD9291010
_publ_section_title
;
Structure prediction by ZEFSAII (Michael W. Deem and Ramdas Pophale) SiO2 
 PCOD9291010
Probable space group: C 2/C
;
_chemical_formula_sum "Si O2"
_cell_formula_units_Z 40
_cell_length_a 7.766739
_cell_length_b 11.017873
_cell_length_c 20.530086
_cell_angle_alpha 90.000000
_cell_angle_beta 78.828226
_cell_angle_gamma 90.000000
_cell_volume 1723.529432
_symmetry_space_group_name_H-M "C 2/C"
_symmetry_group_IT_number 15
_symmetry_cell_setting 'monoclinic'
loop_
_space_group_symop_operation_xyz
x,y,z
-x,y,1/2-z
-x,-y,-z
x,-y,1/2+z
1/2+x,1/2+y,z
1/2-x,1/2+y,1/2-z
1/2-x,1/2-y,-z
1/2+x,1/2-y,1/2+z
loop_
_atom_site_type_symbol
_atom_site_label
_atom_site_fract_x
_atom_site_fract_y
_atom_site_fract_z
Si Si1 0.781196 0.586744 0.086476
Si Si2 0.862346 0.631072 0.486273
Si Si3 0.189377 0.345216 0.767640
Si Si4 0.349435 0.585346 0.707025
Si Si5 0.419272 0.473931 0.576460
O O1 0.816952 0.598250 0.159965
O O2 0.574296 0.613671 0.092517
O O3 0.932699 0.660348 0.037742
O O4 0.824742 0.454593 0.051472
O O5 0.750000 0.750000 0.500000
O O6 0.777428 0.566854 0.428275
O O7 0.276441 0.448920 0.717758
O O8 0.261345 0.207110 0.769996
O O9 0.000000 0.329738 0.750000
O O10 0.500000 0.584193 0.750000
O O11 0.414495 0.585488 0.627579
O O12 0.500000 0.500000 0.500000
#
# Coordination Sequence:
#
# PCOD9291010 Si02
#       5
#     8   8   8   8   8
#     4  10  22  42  63 101 133 183 238 284 351 432
#     4  10  23  41  67  99 144 182 233 295 359 419
#     4  11  25  43  72  98 143 186 239 297 366 425
#     4  11  24  46  69 101 142 187 236 298 360 432
#     4  10  22  43  69 100 136 181 234 290 353 422
#
# _framework density 23.208190999999999
#
# number of rings (size 3 to 8) (size 9 to 14) (size 15 to 20)
#    0.000    1.600    2.000    1.200    5.600    3.200 
#   10.800    0.000    0.000    0.000    0.000    0.000 
#    0.000    0.000    0.000    0.000    0.000    0.000 
#
# Total GULP energy -111391.005127 kJ/mol
# GULP energy per Si atom -5569.550256 kJ/mol
# Density = 2.315537 g / cm^3
# Si number density = 23.208191 Si / 1000 Ang^3
#
#
#
# Elastic Constant Matrix: (Units=GPa)
#
#
# Indices 1 2 3 4 5 6 
#
# 1 77.8284 19.5706 -11.0398 0.0000 7.4450 0.0000
# 2 19.5706 119.0761 31.0015 0.0000 -9.4958 0.0000
# 3 -11.0398 31.0015 86.8921 0.0000 24.5350 0.0000
# 4 0.0000 0.0000 0.0000 12.2048 0.0000 -4.2554
# 5 7.4450 -9.4958 24.5350 0.0000 44.1504 0.0000
# 6 0.0000 0.0000 0.0000 -4.2554 0.0000 28.4050
#
#
#
# Elastic Compliance Matrix: (Units=1/GPa)
#
#
# Indices 1 2 3 4 5 6 
#
# 1 0.015356 -0.004447 0.005383 0.000000 -0.006537 0.000000
# 2 -0.004447 0.011382 -0.006558 0.000000 0.006842 0.000000
# 3 0.005383 -0.006558 0.018013 0.000000 -0.012328 0.000000
# 4 0.000000 0.000000 0.000000 0.086451 0.000000 0.012951
# 5 -0.006537 0.006842 -0.012328 0.000000 0.032075 0.000000
# 6 0.000000 0.000000 0.000000 0.012951 0.000000 0.037145
#
#
# Mechanical properties :
#
#
# Convention : Reuss Voigt Hill
#
# Bulk Modulus (GPa) = 29.84270 40.31790 35.08030
# Shear Modulus (GPa) = 22.43827 33.23632 27.83730
#
# Velocity S-wave (km/s) = 3.11276 3.78841 3.46708
# Velocity P-wave (km/s) = 5.07992 6.04533 5.58353
#
# Compressibility (1/GPa) = 0.03350903
#
# Stress axis : x y z
#
# Youngs Moduli (GPa) = 65.12130 87.86002 55.51473
#
# Poissons Ratio (x) = 0.39069 -0.29886
# Poissons Ratio (y) = 0.28958 0.36405
# Poissons Ratio (z) = -0.35058 0.57616
#
# Static dielectric constant tensor:
#      x y z
#    x 1.983760 0.000000 -0.027520 
#    y 0.000000 1.983290 0.000000 
#    z -0.027520 0.000000 1.923100 
# 
# From -- ./inp_files/229837.got.cif
#   From: 2010.05.17/outbox.cif.g08.bks.cpg/sg15_115_cif.got.tgz:229837.got - 2010.06.03 18:47:42.
