data_PCOD9291864
_publ_section_title
;
Structure prediction by ZEFSAII (Michael W. Deem and Ramdas Pophale) SiO2 
 PCOD9291864
Probable space group: C 2/C
;
_chemical_formula_sum "Si O2"
_cell_formula_units_Z 60
_cell_length_a 15.433757
_cell_length_b 8.156709
_cell_length_c 19.987187
_cell_angle_alpha 90.000000
_cell_angle_beta 116.799705
_cell_angle_gamma 90.000000
_cell_volume 2245.894825
_symmetry_space_group_name_H-M "C 2/C"
_symmetry_group_IT_number 15
_symmetry_cell_setting 'monoclinic'
loop_
_space_group_symop_operation_xyz
x,y,z
-x,y,1/2-z
-x,-y,-z
x,-y,1/2+z
1/2+x,1/2+y,z
1/2-x,1/2+y,1/2-z
1/2-x,1/2-y,-z
1/2+x,1/2-y,1/2+z
loop_
_atom_site_type_symbol
_atom_site_label
_atom_site_fract_x
_atom_site_fract_y
_atom_site_fract_z
Si Si1 0.772709 0.036982 0.138405
Si Si2 0.737498 0.342990 0.604274
Si Si3 0.250000 0.750000 0.000000
Si Si4 0.472261 0.828051 0.071683
Si Si5 0.047770 0.148074 0.977495
Si Si6 0.374790 0.659832 0.295397
Si Si7 0.920964 0.347142 0.851346
Si Si8 0.888472 0.525514 0.719925
O O1 0.792571 0.153523 0.082696
O O2 0.852833 0.043522 0.225767
O O3 0.674609 0.109042 0.139664
O O4 0.761414 0.848359 0.112136
O O5 0.662473 0.380559 0.518006
O O6 0.684729 0.377596 0.657556
O O7 0.824494 0.474574 0.634176
O O8 0.139447 0.694435 0.981100
O O9 0.530154 0.799230 0.022402
O O10 0.517906 0.696297 0.139466
O O11 0.504937 0.003049 0.110169
O O12 0.982068 0.188110 0.891506
O O13 0.000000 0.000000 0.000000
O O14 0.342080 0.835360 0.250906
O O15 0.892605 0.359195 0.764473
O O16 0.000000 0.576062 0.750000
#
# Coordination Sequence:
#
# PCOD9291864 Si02
#       8
#     8   8   4   8   8   8   8   8
#     4  12  23  42  72  99 133 181 235 281 345 412
#     4  11  22  45  68  98 134 183 226 277 348 414
#     4  12  26  38  68 100 136 178 222 294 334 396
#     4  10  22  43  65  98 132 171 230 282 341 404
#     4  11  23  39  67  99 131 176 230 274 326 419
#     4  10  22  42  73  96 124 179 238 277 327 422
#     4  11  21  45  70  91 132 188 221 277 347 417
#     4  11  25  43  66 102 135 172 222 289 353 399
#
# _framework density 26.715409999999999
#
# number of rings (size 3 to 8) (size 9 to 14) (size 15 to 20)
#    0.000    1.067    6.667    1.200    5.600    2.133 
#    4.800    0.667    0.000    0.000    0.000    0.000 
#    0.000    0.000    0.000    0.000    0.000    0.000 
#
# Total GULP energy -167507.956792 kJ/mol
# GULP energy per Si atom -5583.598560 kJ/mol
# Density = 2.665460 g / cm^3
# Si number density = 26.715410 Si / 1000 Ang^3
#
#
#
# Elastic Constant Matrix: (Units=GPa)
#
#
# Indices 1 2 3 4 5 6 
#
# 1 88.1594 -4.0774 27.3727 0.0000 20.7060 0.0000
# 2 -4.0774 82.8666 9.9199 0.0000 4.3606 0.0000
# 3 27.3727 9.9199 83.1762 0.0000 20.9962 0.0000
# 4 0.0000 0.0000 0.0000 39.1012 0.0000 -1.8002
# 5 20.7060 4.3606 20.9962 0.0000 64.8741 0.0000
# 6 0.0000 0.0000 0.0000 -1.8002 0.0000 19.3529
#
#
#
# Elastic Compliance Matrix: (Units=1/GPa)
#
#
# Indices 1 2 3 4 5 6 
#
# 1 0.013295 0.001266 -0.003739 0.000000 -0.003118 0.000000
# 2 0.001266 0.012372 -0.001721 0.000000 -0.000679 0.000000
# 3 -0.003739 -0.001721 0.014296 0.000000 -0.003318 0.000000
# 4 0.000000 0.000000 0.000000 0.025685 0.000000 0.002389
# 5 -0.003118 -0.000679 -0.003318 0.000000 0.017529 0.000000
# 6 0.000000 0.000000 0.000000 0.002389 0.000000 0.051894
#
#
# Mechanical properties :
#
#
# Convention : Reuss Voigt Hill
#
# Bulk Modulus (GPa) = 31.67113 35.62585 33.64849
# Shear Modulus (GPa) = 32.47107 39.39808 35.93458
#
# Velocity S-wave (km/s) = 3.49010 3.84439 3.67152
# Velocity P-wave (km/s) = 5.30300 5.75066 5.53136
#
# Compressibility (1/GPa) = 0.03157450
#
# Stress axis : x y z
#
# Youngs Moduli (GPa) = 75.21627 80.83044 69.95010
#
# Poissons Ratio (x) = -0.10232 0.26155
# Poissons Ratio (y) = -0.09521 0.12037
# Poissons Ratio (z) = 0.28124 0.13909
#
# Static dielectric constant tensor:
#      x y z
#    x 2.076770 0.000000 -0.009680 
#    y 0.000000 2.160990 0.000000 
#    z -0.009680 0.000000 2.171550 
# 
# From -- ./inp_files/276575.got.cif
#   From: 2010.05.17/outbox.cif.g08.bks.cpg/sg15_139_cif.got.tgz:276575.got - 2010.06.03 18:47:42.
