data_PCOD9291523
_publ_section_title
;
Structure prediction by ZEFSAII (Michael W. Deem and Ramdas Pophale) SiO2 
 PCOD9291523
Probable space group: C 2/C
;
_chemical_formula_sum "Si O2"
_cell_formula_units_Z 36
_cell_length_a 11.621269
_cell_length_b 16.104312
_cell_length_c 9.502904
_cell_angle_alpha 90.000000
_cell_angle_beta 76.452556
_cell_angle_gamma 90.000000
_cell_volume 1729.008360
_symmetry_space_group_name_H-M "C 2/C"
_symmetry_group_IT_number 15
_symmetry_cell_setting 'monoclinic'
loop_
_space_group_symop_operation_xyz
x,y,z
-x,y,1/2-z
-x,-y,-z
x,-y,1/2+z
1/2+x,1/2+y,z
1/2-x,1/2+y,1/2-z
1/2-x,1/2-y,-z
1/2+x,1/2-y,1/2+z
loop_
_atom_site_type_symbol
_atom_site_label
_atom_site_fract_x
_atom_site_fract_y
_atom_site_fract_z
Si Si1 0.500000 0.192996 0.750000
Si Si2 0.690023 0.317114 0.776158
Si Si3 0.234518 0.373856 0.049568
Si Si4 0.134706 0.811438 0.208053
Si Si5 0.369855 0.460019 0.516151
O O1 0.577240 0.256495 0.821278
O O2 0.401704 0.141256 0.864491
O O3 0.731872 0.325481 0.602626
O O4 0.789147 0.271232 0.839393
O O5 0.658871 0.408312 0.835888
O O6 0.315065 0.343143 0.156780
O O7 0.273514 0.468879 0.017767
O O8 0.000000 0.785261 0.250000
O O9 0.137682 0.889724 0.102131
O O10 0.500000 0.500000 0.500000
#
# Coordination Sequence:
#
# PCOD9291523 Si02
#       5
#     4   8   8   8   8
#     4  10  22  42  68  94 134 176 222 274 332 404
#     4  11  25  44  70  97 132 182 228 271 339 403
#     4  11  24  44  69 100 133 180 225 277 340 397
#     4  11  23  42  68  99 134 172 227 274 331 401
#     4  12  24  43  69 101 137 171 226 284 333 398
#
# _framework density 20.821182
#
# number of rings (size 3 to 8) (size 9 to 14) (size 15 to 20)
#    0.000    0.889    2.222    6.000    3.111    0.000 
#    2.000    5.556    0.000    0.000    0.000    0.000 
#    0.000    0.000    0.000    0.000    0.000    0.000 
#
# Total GULP energy -100566.030623 kJ/mol
# GULP energy per Si atom -5587.001701 kJ/mol
# Density = 2.077379 g / cm^3
# Si number density = 20.821182 Si / 1000 Ang^3
#
#
#
# Elastic Constant Matrix: (Units=GPa)
#
#
# Indices 1 2 3 4 5 6 
#
# 1 156.9877 58.6688 52.4034 0.0000 -35.0533 0.0000
# 2 58.6688 125.3740 36.3045 0.0000 -23.4080 0.0000
# 3 52.4034 36.3045 125.2234 0.0000 0.4338 0.0000
# 4 0.0000 0.0000 0.0000 37.1247 0.0000 8.1654
# 5 -35.0533 -23.4080 0.4338 0.0000 21.2346 0.0000
# 6 0.0000 0.0000 0.0000 8.1654 0.0000 32.9935
#
#
#
# Elastic Compliance Matrix: (Units=1/GPa)
#
#
# Indices 1 2 3 4 5 6 
#
# 1 0.013095 -0.000653 -0.005363 0.000000 0.021006 0.000000
# 2 -0.000653 0.011298 -0.003042 0.000000 0.011440 0.000000
# 3 -0.005363 -0.003042 0.011155 0.000000 -0.012435 0.000000
# 4 0.000000 0.000000 0.000000 0.028487 0.000000 -0.007050
# 5 0.021006 0.011440 -0.012435 0.000000 0.094634 0.000000
# 6 0.000000 0.000000 0.000000 -0.007050 0.000000 0.032054
#
#
# Mechanical properties :
#
#
# Convention : Reuss Voigt Hill
#
# Bulk Modulus (GPa) = 57.36601 78.03762 67.70181
# Shear Modulus (GPa) = 23.29380 35.61779 29.45580
#
# Velocity S-wave (km/s) = 3.34841 4.14049 3.76533
# Velocity P-wave (km/s) = 6.52385 7.77300 7.17566
#
# Compressibility (1/GPa) = 0.01743193
#
# Stress axis : x y z
#
# Youngs Moduli (GPa) = 76.36764 88.50954 89.64401
#
# Poissons Ratio (x) = 0.05776 0.48080
# Poissons Ratio (y) = 0.04983 0.27271
# Poissons Ratio (z) = 0.40959 0.26926
#
# Static dielectric constant tensor:
#      x y z
#    x 1.734610 0.000000 -0.008230 
#    y 0.000000 1.765110 0.000000 
#    z -0.008230 0.000000 1.815890 
# 
# From -- ./inp_files/28970.got.cif
#   From: 2010.05.17/outbox.cif.g08.bks.cpg/sg15_15_cif.got.tgz:28970.got - 2010.06.03 18:47:42.
