data_PCOD9291837
_publ_section_title
;
Structure prediction by ZEFSAII (Michael W. Deem and Ramdas Pophale) SiO2 
 PCOD9291837
Probable space group: C 2/C
;
_chemical_formula_sum "Si O2"
_cell_formula_units_Z 56
_cell_length_a 11.355230
_cell_length_b 21.853620
_cell_length_c 11.667689
_cell_angle_alpha 90.000000
_cell_angle_beta 70.701923
_cell_angle_gamma 90.000000
_cell_volume 2732.685687
_symmetry_space_group_name_H-M "C 2/C"
_symmetry_group_IT_number 15
_symmetry_cell_setting 'monoclinic'
loop_
_space_group_symop_operation_xyz
x,y,z
-x,y,1/2-z
-x,-y,-z
x,-y,1/2+z
1/2+x,1/2+y,z
1/2-x,1/2+y,1/2-z
1/2-x,1/2-y,-z
1/2+x,1/2-y,1/2+z
loop_
_atom_site_type_symbol
_atom_site_label
_atom_site_fract_x
_atom_site_fract_y
_atom_site_fract_z
Si Si1 0.692402 0.414348 0.417817
Si Si2 0.470573 0.635627 0.132811
Si Si3 0.873538 0.540523 0.035054
Si Si4 0.392528 0.815780 0.539865
Si Si5 0.368548 0.248951 0.544068
Si Si6 0.863672 0.983193 0.737043
Si Si7 0.296761 0.212787 0.821676
O O1 0.598601 0.396114 0.550173
O O2 0.815752 0.447904 0.427102
O O3 0.632234 0.462811 0.354566
O O4 0.718228 0.349922 0.349553
O O5 0.500000 0.662530 0.250000
O O6 0.425808 0.685043 0.056642
O O7 0.365634 0.583877 0.179318
O O8 0.888619 0.612073 0.065633
O O9 0.759623 0.511409 0.144936
O O10 0.000000 0.500000 0.000000
O O11 0.520683 0.789808 0.546732
O O12 0.385168 0.800452 0.404320
O O13 0.279880 0.774633 0.624691
O O14 0.250000 0.250000 0.500000
O O15 0.341439 0.220669 0.678064
O O16 0.000000 0.985025 0.750000
#
# Coordination Sequence:
#
# PCOD9291837 Si02
#       7
#     8   8   8   8   8   8   8
#     4  11  23  43  71 101 131 180 236 291 339 412
#     4  11  21  43  72  96 129 183 243 276 333 423
#     4  11  25  43  66 101 140 176 227 289 353 412
#     4  10  22  45  69  96 129 183 232 278 337 422
#     4  12  26  40  65 103 141 175 216 290 359 410
#     4  11  24  42  71  98 132 182 232 280 342 417
#     4  10  22  42  72  96 130 178 240 273 335 417
#
# _framework density 20.492660000000001
#
# number of rings (size 3 to 8) (size 9 to 14) (size 15 to 20)
#    0.000    1.143    4.286    2.571    4.000    3.429 
#    0.000    1.429    0.000    0.000    0.000    0.000 
#    0.000    0.000    0.000    0.000    0.000    0.000 
#
# Total GULP energy -156196.058779 kJ/mol
# GULP energy per Si atom -5578.430671 kJ/mol
# Density = 2.044602 g / cm^3
# Si number density = 20.492660 Si / 1000 Ang^3
#
#
#
# Elastic Constant Matrix: (Units=GPa)
#
#
# Indices 1 2 3 4 5 6 
#
# 1 123.4927 59.9321 32.1420 0.0000 -15.5191 0.0000
# 2 59.9321 108.9877 22.1179 0.0000 6.4655 0.0000
# 3 32.1420 22.1179 52.6757 0.0000 -12.5253 0.0000
# 4 0.0000 0.0000 0.0000 28.9054 0.0000 -4.8513
# 5 -15.5191 6.4655 -12.5253 0.0000 20.3797 0.0000
# 6 0.0000 0.0000 0.0000 -4.8513 0.0000 39.7297
#
#
#
# Elastic Compliance Matrix: (Units=1/GPa)
#
#
# Indices 1 2 3 4 5 6 
#
# 1 0.014055 -0.007922 -0.002468 0.000000 0.011699 0.000000
# 2 -0.007922 0.015358 -0.004928 0.000000 -0.013934 0.000000
# 3 -0.002468 -0.004928 0.026332 0.000000 0.015868 0.000000
# 4 0.000000 0.000000 0.000000 0.035319 0.000000 0.004313
# 5 0.011699 -0.013934 0.015868 0.000000 0.072150 0.000000
# 6 0.000000 0.000000 0.000000 0.004313 0.000000 0.025697
#
#
# Mechanical properties :
#
#
# Convention : Reuss Voigt Hill
#
# Bulk Modulus (GPa) = 39.82546 57.06000 48.44273
# Shear Modulus (GPa) = 21.93780 29.20058 25.56919
#
# Velocity S-wave (km/s) = 3.27543 3.77892 3.53615
# Velocity P-wave (km/s) = 5.81212 6.85163 6.35317
#
# Compressibility (1/GPa) = 0.02510956
#
# Stress axis : x y z
#
# Youngs Moduli (GPa) = 71.15035 65.11144 37.97623
#
# Poissons Ratio (x) = 0.51581 0.09372
# Poissons Ratio (y) = 0.56364 0.18715
# Poissons Ratio (z) = 0.17559 0.32088
#
# Static dielectric constant tensor:
#      x y z
#    x 1.733930 0.000000 -0.022110 
#    y 0.000000 1.800870 0.000000 
#    z -0.022110 0.000000 1.769390 
# 
# From -- ./inp_files/89558.got.cif
#   From: 2010.05.17/outbox.cif.g08.bks.cpg/sg15_45_cif.got.tgz:89558.got - 2010.06.03 18:47:42.
