data_PCOD9291806
_publ_section_title
;
Structure prediction by ZEFSAII (Michael W. Deem and Ramdas Pophale) SiO2 
 PCOD9291806
Probable space group: C 2/C
;
_chemical_formula_sum "Si O2"
_cell_formula_units_Z 44
_cell_length_a 5.141736
_cell_length_b 21.876594
_cell_length_c 17.735871
_cell_angle_alpha 90.000000
_cell_angle_beta 67.622832
_cell_angle_gamma 90.000000
_cell_volume 1844.768327
_symmetry_space_group_name_H-M "C 2/C"
_symmetry_group_IT_number 15
_symmetry_cell_setting 'monoclinic'
loop_
_space_group_symop_operation_xyz
x,y,z
-x,y,1/2-z
-x,-y,-z
x,-y,1/2+z
1/2+x,1/2+y,z
1/2-x,1/2+y,1/2-z
1/2-x,1/2-y,-z
1/2+x,1/2-y,1/2+z
loop_
_atom_site_type_symbol
_atom_site_label
_atom_site_fract_x
_atom_site_fract_y
_atom_site_fract_z
Si Si1 0.279567 0.025766 0.844350
Si Si2 0.000000 0.013252 0.250000
Si Si3 0.429652 0.306330 0.449234
Si Si4 0.174447 0.720928 0.304973
Si Si5 0.390308 0.115870 0.969279
Si Si6 0.973556 0.588497 0.127008
O O1 0.500000 0.034907 0.750000
O O2 0.999948 0.027673 0.824944
O O3 0.274639 0.957939 0.882335
O O4 0.341597 0.072718 0.902892
O O5 0.748047 0.060037 0.290326
O O6 0.250000 0.250000 0.500000
O O7 0.642936 0.277224 0.365355
O O8 0.625393 0.337712 0.490912
O O9 0.194093 0.350547 0.438667
O O10 0.500000 0.708342 0.250000
O O11 0.024954 0.660252 0.355883
O O12 0.000000 0.736199 0.250000
O O13 0.386051 0.082109 0.050053
#
# Coordination Sequence:
#
# PCOD9291806 Si02
#       6
#     8   4   8   8   8   8
#     4  10  25  46  70 109 147 194 239 302 367 454
#     4  10  22  42  72 104 152 184 246 298 368 440
#     4  12  28  49  73 106 147 197 244 315 359 436
#     4  12  26  45  76 106 146 192 255 303 367 435
#     4  12  28  46  79 104 153 194 247 303 380 432
#     4  11  24  42  74 109 145 189 247 306 371 432
#
# _framework density 23.851233000000001
#
# number of rings (size 3 to 8) (size 9 to 14) (size 15 to 20)
#    0.000    0.727    2.727    3.818   10.182    2.909 
#    0.000    0.000    0.000    0.000    0.000    0.000 
#    0.000    0.000    0.000    0.000    0.000    0.000 
#
# Total GULP energy -122856.861339 kJ/mol
# GULP energy per Si atom -5584.402788 kJ/mol
# Density = 2.379695 g / cm^3
# Si number density = 23.851233 Si / 1000 Ang^3
#
#
#
# Elastic Constant Matrix: (Units=GPa)
#
#
# Indices 1 2 3 4 5 6 
#
# 1 89.4514 31.0578 19.9389 0.0000 18.6203 0.0000
# 2 31.0578 71.3054 38.4515 0.0000 6.6779 0.0000
# 3 19.9389 38.4515 100.0248 0.0000 33.1454 0.0000
# 4 0.0000 0.0000 0.0000 111.8203 0.0000 94.6215
# 5 18.6203 6.6779 33.1454 0.0000 47.5846 0.0000
# 6 0.0000 0.0000 0.0000 94.6215 0.0000 127.7936
#
#
#
# Elastic Compliance Matrix: (Units=1/GPa)
#
#
# Indices 1 2 3 4 5 6 
#
# 1 0.014300 -0.006538 0.001577 0.000000 -0.005777 0.000000
# 2 -0.006538 0.021001 -0.008634 0.000000 0.005625 0.000000
# 3 0.001577 -0.008634 0.016648 0.000000 -0.011002 0.000000
# 4 0.000000 0.000000 0.000000 0.023946 0.000000 -0.017730
# 5 -0.005777 0.005625 -0.011002 0.000000 0.030150 0.000000
# 6 0.000000 0.000000 0.000000 -0.017730 0.000000 0.020953
#
#
# Mechanical properties :
#
#
# Convention : Reuss Voigt Hill
#
# Bulk Modulus (GPa) = 40.38911 48.85309 44.62110
# Shear Modulus (GPa) = 30.78044 68.86192 49.82118
#
# Velocity S-wave (km/s) = 3.59628 5.37904 4.57533
# Velocity P-wave (km/s) = 5.84934 7.68802 6.83083
#
# Compressibility (1/GPa) = 0.02475915
#
# Stress axis : x y z
#
# Youngs Moduli (GPa) = 69.92886 47.61699 60.06788
#
# Poissons Ratio (x) = 0.31132 -0.09473
# Poissons Ratio (y) = 0.45719 0.51862
# Poissons Ratio (z) = -0.11028 0.41112
#
# Static dielectric constant tensor:
#      x y z
#    x 2.209720 0.000000 -0.023900 
#    y 0.000000 1.913970 0.000000 
#    z -0.023900 0.000000 1.937660 
# 
# From -- ./inp_files/184829.got.cif
#   From: 2010.05.17/outbox.cif.g08.bks.cpg/sg15_93_cif.got.tgz:184829.got - 2010.06.03 18:47:42.
