data_PCOD9291626
_publ_section_title
;
Structure prediction by ZEFSAII (Michael W. Deem and Ramdas Pophale) SiO2 
 PCOD9291626
Probable space group: C 2/C
;
_chemical_formula_sum "Si O2"
_cell_formula_units_Z 40
_cell_length_a 8.422175
_cell_length_b 16.681217
_cell_length_c 15.283430
_cell_angle_alpha 90.000000
_cell_angle_beta 68.060219
_cell_angle_gamma 90.000000
_cell_volume 1991.694965
_symmetry_space_group_name_H-M "C 2/C"
_symmetry_group_IT_number 15
_symmetry_cell_setting 'monoclinic'
loop_
_space_group_symop_operation_xyz
x,y,z
-x,y,1/2-z
-x,-y,-z
x,-y,1/2+z
1/2+x,1/2+y,z
1/2-x,1/2+y,1/2-z
1/2-x,1/2-y,-z
1/2+x,1/2-y,1/2+z
loop_
_atom_site_type_symbol
_atom_site_label
_atom_site_fract_x
_atom_site_fract_y
_atom_site_fract_z
Si Si1 0.329315 0.462354 0.999481
Si Si2 0.977933 0.821128 0.855473
Si Si3 0.586723 0.144723 0.638117
Si Si4 0.145190 0.725806 0.144802
Si Si5 0.172433 0.625681 0.967669
O O1 0.236202 0.418519 0.098562
O O2 0.500000 0.500000 0.000000
O O3 0.379905 0.391569 0.923608
O O4 0.226137 0.535517 0.978461
O O5 0.167320 0.802190 0.856760
O O6 0.000000 0.842182 0.750000
O O7 0.870592 0.738468 0.881423
O O8 0.500000 0.137916 0.750000
O O9 0.463452 0.124984 0.582318
O O10 0.176568 0.815094 0.098796
O O11 0.000000 0.724118 0.250000
O O12 0.105475 0.668237 0.070414
#
# Coordination Sequence:
#
# PCOD9291626 Si02
#       5
#     8   8   8   8   8
#     4  12  24  41  65  98 133 163 213 274 321 379
#     4  10  23  42  64  97 125 173 217 262 325 382
#     4  10  24  45  67  93 128 175 218 259 323 388
#     4  10  22  42  69  94 127 173 218 261 320 392
#     4  10  23  43  64  97 127 169 216 262 328 374
#
# _framework density 20.083396
#
# number of rings (size 3 to 8) (size 9 to 14) (size 15 to 20)
#    0.000    1.600    2.000    1.200    2.800    8.000 
#    0.000    0.000    0.000    0.000    0.000    0.000 
#    0.000    0.000    0.000    0.000    0.000    0.000 
#
# Total GULP energy -111721.683629 kJ/mol
# GULP energy per Si atom -5586.084181 kJ/mol
# Density = 2.003769 g / cm^3
# Si number density = 20.083396 Si / 1000 Ang^3
#
#
#
# Elastic Constant Matrix: (Units=GPa)
#
#
# Indices 1 2 3 4 5 6 
#
# 1 24.6103 25.2225 24.9383 0.0000 -2.5902 0.0000
# 2 25.2225 165.5227 82.3370 0.0000 -25.3623 0.0000
# 3 24.9383 82.3370 149.6851 0.0000 -6.8432 0.0000
# 4 0.0000 0.0000 0.0000 106.4813 0.0000 4.5972
# 5 -2.5902 -25.3623 -6.8432 0.0000 29.8148 0.0000
# 6 0.0000 0.0000 0.0000 4.5972 0.0000 16.7883
#
#
#
# Elastic Compliance Matrix: (Units=1/GPa)
#
#
# Indices 1 2 3 4 5 6 
#
# 1 0.051707 -0.005171 -0.005827 0.000000 -0.001244 0.000000
# 2 -0.005171 0.010094 -0.004365 0.000000 0.007135 0.000000
# 3 -0.005827 -0.004365 0.009964 0.000000 -0.001932 0.000000
# 4 0.000000 0.000000 0.000000 0.009504 0.000000 -0.002602
# 5 -0.001244 0.007135 -0.001932 0.000000 0.039059 0.000000
# 6 0.000000 0.000000 0.000000 -0.002602 0.000000 0.060278
#
#
# Mechanical properties :
#
#
# Convention : Reuss Voigt Hill
#
# Bulk Modulus (GPa) = 24.36687 67.20154 45.78420
# Shear Modulus (GPa) = 22.22116 44.43823 33.32970
#
# Velocity S-wave (km/s) = 3.32993 4.70902 4.07820
# Velocity P-wave (km/s) = 5.19074 7.94358 6.70985
#
# Compressibility (1/GPa) = 0.04103933
#
# Stress axis : x y z
#
# Youngs Moduli (GPa) = 19.33970 99.06985 100.36157
#
# Poissons Ratio (x) = 0.51232 0.58481
# Poissons Ratio (y) = 0.10001 0.43803
# Poissons Ratio (z) = 0.11269 0.43240
#
# Static dielectric constant tensor:
#      x y z
#    x 1.763180 0.000000 -0.005670 
#    y 0.000000 1.595350 0.000000 
#    z -0.005670 0.000000 1.678060 
# 
# From -- ./inp_files/76935.got.cif
#   From: 2010.05.17/outbox.cif.g08.bks.cpg/sg15_39_cif.got.tgz:76935.got - 2010.06.03 18:47:42.
