data_PCOD9291313
_publ_section_title
;
Structure prediction by ZEFSAII (Michael W. Deem and Ramdas Pophale) SiO2 
 PCOD9291313
Probable space group: C 2/C
;
_chemical_formula_sum "Si O2"
_cell_formula_units_Z 28
_cell_length_a 7.324988
_cell_length_b 12.943623
_cell_length_c 11.879167
_cell_angle_alpha 90.000000
_cell_angle_beta 80.628179
_cell_angle_gamma 90.000000
_cell_volume 1111.252941
_symmetry_space_group_name_H-M "C 2/C"
_symmetry_group_IT_number 15
_symmetry_cell_setting 'monoclinic'
loop_
_space_group_symop_operation_xyz
x,y,z
-x,y,1/2-z
-x,-y,-z
x,-y,1/2+z
1/2+x,1/2+y,z
1/2-x,1/2+y,1/2-z
1/2-x,1/2-y,-z
1/2+x,1/2-y,1/2+z
loop_
_atom_site_type_symbol
_atom_site_label
_atom_site_fract_x
_atom_site_fract_y
_atom_site_fract_z
Si Si1 0.000000 0.394878 0.750000
Si Si2 0.044391 0.112897 0.546025
Si Si3 0.680774 0.091944 0.678345
Si Si4 0.037043 0.333516 0.492369
O O1 0.169561 0.476977 0.729031
O O2 0.012492 0.340517 0.629394
O O3 0.018599 0.211956 0.466168
O O4 0.258215 0.125922 0.559668
O O5 0.112284 0.871101 0.343454
O O6 0.000000 0.000000 0.500000
O O7 0.500000 0.147806 0.750000
O O8 0.615244 0.098084 0.554687
#
# Coordination Sequence:
#
# PCOD9291313 Si02
#       4
#     4   8   8   8
#     4  10  22  42  66  94 132 180 220 282 344 392
#     4  11  23  42  69  99 131 181 226 272 350 397
#     4  10  23  43  66  95 132 173 225 275 339 401
#     4  11  24  44  67  96 140 171 227 286 325 410
#
# _framework density 25.196781999999999
#
# number of rings (size 3 to 8) (size 9 to 14) (size 15 to 20)
#    0.857    0.571    2.857    1.714    0.000    5.714 
#    0.000    4.286    3.143    0.000    0.000    0.000 
#    0.000    0.000    0.000    0.000    0.000    0.000 
#
# Total GULP energy -78078.783517 kJ/mol
# GULP energy per Si atom -5577.055965 kJ/mol
# Density = 2.513943 g / cm^3
# Si number density = 25.196782 Si / 1000 Ang^3
#
#
#
# Elastic Constant Matrix: (Units=GPa)
#
#
# Indices 1 2 3 4 5 6 
#
# 1 172.4507 53.8139 67.9007 0.0000 -38.4672 0.0000
# 2 53.8139 144.9779 28.1978 0.0000 -25.4381 0.0000
# 3 67.9007 28.1978 109.6070 0.0000 -17.3097 0.0000
# 4 0.0000 0.0000 0.0000 10.0159 0.0000 6.2120
# 5 -38.4672 -25.4381 -17.3097 0.0000 31.6411 0.0000
# 6 0.0000 0.0000 0.0000 6.2120 0.0000 32.0106
#
#
#
# Elastic Compliance Matrix: (Units=1/GPa)
#
#
# Indices 1 2 3 4 5 6 
#
# 1 0.009841 -0.001302 -0.004419 0.000000 0.008500 0.000000
# 2 -0.001302 0.008336 -0.000580 0.000000 0.004802 0.000000
# 3 -0.004419 -0.000580 0.012137 0.000000 0.000801 0.000000
# 4 0.000000 0.000000 0.000000 0.113502 0.000000 -0.022026
# 5 0.008500 0.004802 0.000801 0.000000 0.046237 0.000000
# 6 0.000000 0.000000 0.000000 -0.022026 0.000000 0.035514
#
#
# Mechanical properties :
#
#
# Convention : Reuss Voigt Hill
#
# Bulk Modulus (GPa) = 56.45770 80.76228 68.60999
# Shear Modulus (GPa) = 20.48569 33.20840 26.84705
#
# Velocity S-wave (km/s) = 2.85446 3.63431 3.26773
# Velocity P-wave (km/s) = 5.77228 7.05218 6.44408
#
# Compressibility (1/GPa) = 0.01771238
#
# Stress axis : x y z
#
# Youngs Moduli (GPa) = 101.61550 119.95897 82.39422
#
# Poissons Ratio (x) = 0.15618 0.36411
# Poissons Ratio (y) = 0.13230 0.04776
# Poissons Ratio (z) = 0.44905 0.06954
#
# Static dielectric constant tensor:
#      x y z
#    x 1.951970 0.000000 -0.025540 
#    y 0.000000 2.051860 0.000000 
#    z -0.025540 0.000000 2.150080 
# 
# From -- ./inp_files/131484.got.cif
#   From: 2010.05.17/outbox.cif.g08.bks.cpg/sg15_66_cif.got.tgz:131484.got - 2010.06.03 18:47:42.
