data_PCOD9291197
_publ_section_title
;
Structure prediction by ZEFSAII (Michael W. Deem and Ramdas Pophale) SiO2 
 PCOD9291197
Probable space group: C 2/C
;
_chemical_formula_sum "Si O2"
_cell_formula_units_Z 56
_cell_length_a 6.131753
_cell_length_b 23.301409
_cell_length_c 19.183630
_cell_angle_alpha 90.000000
_cell_angle_beta 71.410959
_cell_angle_gamma 90.000000
_cell_volume 2597.932126
_symmetry_space_group_name_H-M "C 2/C"
_symmetry_group_IT_number 15
_symmetry_cell_setting 'monoclinic'
loop_
_space_group_symop_operation_xyz
x,y,z
-x,y,1/2-z
-x,-y,-z
x,-y,1/2+z
1/2+x,1/2+y,z
1/2-x,1/2+y,1/2-z
1/2-x,1/2-y,-z
1/2+x,1/2-y,1/2+z
loop_
_atom_site_type_symbol
_atom_site_label
_atom_site_fract_x
_atom_site_fract_y
_atom_site_fract_z
Si Si1 0.721846 0.863472 0.982428
Si Si2 0.500000 0.405430 0.750000
Si Si3 0.453329 0.772777 0.929578
Si Si4 0.000000 0.599184 0.750000
Si Si5 0.410469 0.045196 0.120144
Si Si6 0.954603 0.834305 0.174208
Si Si7 0.122412 0.580765 0.884393
Si Si8 0.791859 0.125910 0.125526
O O1 0.642771 0.802526 0.959651
O O2 0.622684 0.908751 0.937364
O O3 0.994251 0.871474 0.950235
O O4 0.586436 0.880686 0.065558
O O5 0.296883 0.442770 0.804773
O O6 0.608531 0.371015 0.805430
O O7 0.541123 0.718849 0.877619
O O8 0.364364 0.820508 0.882876
O O9 0.250000 0.750000 0.000000
O O10 0.207415 0.637310 0.701933
O O11 0.090874 0.565313 0.806309
O O12 0.649183 0.066493 0.131296
O O13 0.385132 0.983423 0.086440
O O14 0.000000 0.816690 0.250000
O O15 0.147926 0.881274 0.132606
#
# Coordination Sequence:
#
# PCOD9291197 Si02
#       8
#     8   4   8   4   8   8   8   8
#     4  10  23  41  65  99 126 170 216 274 328 390
#     4  10  22  42  65  94 132 163 222 268 322 392
#     4  11  23  43  70  91 130 174 217 275 326 390
#     4  10  26  38  63  96 124 173 206 266 322 378
#     4  10  23  39  66  94 129 174 212 270 330 385
#     4  10  24  44  61  95 128 165 218 266 327 393
#     4  11  23  41  65  91 134 168 219 263 323 401
#     4  10  24  41  64 101 128 171 223 268 337 383
#
# _framework density 21.555606000000001
#
# number of rings (size 3 to 8) (size 9 to 14) (size 15 to 20)
#    0.000    1.714    1.429    0.857    7.000    8.000 
#    0.000    3.571    0.000    0.000    0.000    0.000 
#    0.000    0.000    0.000    0.000    0.000    0.000 
#
# Total GULP energy -156290.523404 kJ/mol
# GULP energy per Si atom -5581.804407 kJ/mol
# Density = 2.150654 g / cm^3
# Si number density = 21.555606 Si / 1000 Ang^3
#
#
#
# Elastic Constant Matrix: (Units=GPa)
#
#
# Indices 1 2 3 4 5 6 
#
# 1 63.9439 0.6379 22.4865 0.0000 -21.8537 0.0000
# 2 0.6379 66.4777 16.4791 0.0000 -0.3529 0.0000
# 3 22.4865 16.4791 96.9270 0.0000 -14.3065 0.0000
# 4 0.0000 0.0000 0.0000 34.6528 0.0000 -6.2494
# 5 -21.8537 -0.3529 -14.3065 0.0000 34.8248 0.0000
# 6 0.0000 0.0000 0.0000 -6.2494 0.0000 47.7940
#
#
#
# Elastic Compliance Matrix: (Units=1/GPa)
#
#
# Indices 1 2 3 4 5 6 
#
# 1 0.020763 0.000656 -0.003198 0.000000 0.011722 0.000000
# 2 0.000656 0.015758 -0.002924 0.000000 -0.000630 0.000000
# 3 -0.003198 -0.002924 0.011982 0.000000 0.002886 0.000000
# 4 0.000000 0.000000 0.000000 0.029555 0.000000 0.003864
# 5 0.011722 -0.000630 0.002886 0.000000 0.037250 0.000000
# 6 0.000000 0.000000 0.000000 0.003864 0.000000 0.021428
#
#
# Mechanical properties :
#
#
# Convention : Reuss Voigt Hill
#
# Bulk Modulus (GPa) = 26.61713 34.06175 30.33944
# Shear Modulus (GPa) = 31.21232 35.97065 33.59148
#
# Velocity S-wave (km/s) = 3.80938 4.08945 3.95189
# Velocity P-wave (km/s) = 5.63235 6.17529 5.91006
#
# Compressibility (1/GPa) = 0.03756979
#
# Stress axis : x y z
#
# Youngs Moduli (GPa) = 48.16241 63.46034 83.45772
#
# Poissons Ratio (x) = -0.04162 0.26691
# Poissons Ratio (y) = -0.03158 0.24405
# Poissons Ratio (z) = 0.15403 0.18557
#
# Static dielectric constant tensor:
#      x y z
#    x 1.804500 0.000000 -0.024850 
#    y 0.000000 1.799910 0.000000 
#    z -0.024850 0.000000 1.369260 
# 
# From -- ./inp_files/228112.got.cif
#   From: 2010.05.17/outbox.cif.g08.bks.cpg/sg15_115_cif.got.tgz:228112.got - 2010.06.03 18:47:42.
