data_PCOD9291743
_publ_section_title
;
Structure prediction by ZEFSAII (Michael W. Deem and Ramdas Pophale) SiO2 
 PCOD9291743
Probable space group: C 2/C
;
_chemical_formula_sum "Si O2"
_cell_formula_units_Z 36
_cell_length_a 14.605374
_cell_length_b 11.193836
_cell_length_c 12.359570
_cell_angle_alpha 90.000000
_cell_angle_beta 68.394269
_cell_angle_gamma 90.000000
_cell_volume 1878.695265
_symmetry_space_group_name_H-M "C 2/C"
_symmetry_group_IT_number 15
_symmetry_cell_setting 'monoclinic'
loop_
_space_group_symop_operation_xyz
x,y,z
-x,y,1/2-z
-x,-y,-z
x,-y,1/2+z
1/2+x,1/2+y,z
1/2-x,1/2+y,1/2-z
1/2-x,1/2-y,-z
1/2+x,1/2-y,1/2+z
loop_
_atom_site_type_symbol
_atom_site_label
_atom_site_fract_x
_atom_site_fract_y
_atom_site_fract_z
Si Si1 0.286560 0.775140 0.103967
Si Si2 0.414911 0.772472 0.699141
Si Si3 0.500000 0.235390 0.750000
Si Si4 0.510694 0.362771 0.958088
Si Si5 0.081897 0.535059 0.875467
O O1 0.191943 0.773793 0.221811
O O2 0.374289 0.679914 0.091209
O O3 0.331577 0.907212 0.092608
O O4 0.250000 0.750000 0.000000
O O5 0.500000 0.746758 0.750000
O O6 0.454528 0.717832 0.570664
O O7 0.400534 0.914207 0.695851
O O8 0.466013 0.326171 0.860247
O O9 0.559775 0.139444 0.797558
O O10 0.500000 0.500000 0.000000
O O11 0.000000 0.500000 0.000000
#
# Coordination Sequence:
#
# PCOD9291743 Si02
#       5
#     8   8   4   8   8
#     4  11  24  42  66 102 128 178 232 272 346 406
#     4  12  23  43  71  97 135 187 223 283 343 395
#     4  10  22  42  70  98 130 182 228 272 336 410
#     4  11  26  45  65  98 145 178 223 283 345 405
#     4  11  21  43  69  96 135 173 230 281 332 405
#
# _framework density 19.162234000000002
#
# number of rings (size 3 to 8) (size 9 to 14) (size 15 to 20)
#    0.000    0.889    7.778    0.000    4.667    0.000 
#    4.000    4.444    0.000    0.000    0.000    0.000 
#    0.000    0.000    0.000    0.000    0.000    0.000 
#
# Total GULP energy -100226.076071 kJ/mol
# GULP energy per Si atom -5568.115337 kJ/mol
# Density = 1.911862 g / cm^3
# Si number density = 19.162234 Si / 1000 Ang^3
#
#
#
# Elastic Constant Matrix: (Units=GPa)
#
#
# Indices 1 2 3 4 5 6 
#
# 1 95.0387 31.0335 55.4129 0.0000 -18.8511 0.0000
# 2 31.0335 126.9939 43.0123 0.0000 -1.3585 0.0000
# 3 55.4129 43.0123 139.9579 0.0000 6.8366 0.0000
# 4 0.0000 0.0000 0.0000 36.0713 0.0000 -3.0984
# 5 -18.8511 -1.3585 6.8366 0.0000 45.2902 0.0000
# 6 0.0000 0.0000 0.0000 -3.0984 0.0000 36.4154
#
#
#
# Elastic Compliance Matrix: (Units=1/GPa)
#
#
# Indices 1 2 3 4 5 6 
#
# 1 0.016282 -0.001771 -0.006277 0.000000 0.007671 0.000000
# 2 -0.001771 0.009002 -0.002058 0.000000 -0.000156 0.000000
# 3 -0.006277 -0.002058 0.010470 0.000000 -0.004255 0.000000
# 4 0.000000 0.000000 0.000000 0.027927 0.000000 0.002376
# 5 0.007671 -0.000156 -0.004255 0.000000 0.025910 0.000000
# 6 0.000000 0.000000 0.000000 0.002376 0.000000 0.027663
#
#
# Mechanical properties :
#
#
# Convention : Reuss Voigt Hill
#
# Bulk Modulus (GPa) = 64.33568 68.98977 66.66273
# Shear Modulus (GPa) = 35.05152 39.05750 37.05451
#
# Velocity S-wave (km/s) = 4.28155 4.51960 4.40219
# Velocity P-wave (km/s) = 7.62164 7.95719 7.79122
#
# Compressibility (1/GPa) = 0.01554347
#
# Stress axis : x y z
#
# Youngs Moduli (GPa) = 61.41908 111.08079 95.50687
#
# Poissons Ratio (x) = 0.19670 0.59948
# Poissons Ratio (y) = 0.10876 0.19655
# Poissons Ratio (z) = 0.38552 0.22860
#
# Static dielectric constant tensor:
#      x y z
#    x 1.703100 0.000000 0.031850 
#    y 0.000000 1.716750 0.000000 
#    z 0.031850 0.000000 1.694670 
# 
# From -- ./inp_files/94425.got.cif
#   From: 2010.05.17/outbox.cif.g08.bks.cpg/sg15_48_cif.got.tgz:94425.got - 2010.06.03 18:47:42.
