data_PCOD9291831
_publ_section_title
;
Structure prediction by ZEFSAII (Michael W. Deem and Ramdas Pophale) SiO2 
 PCOD9291831
Probable space group: C 2/C
;
_chemical_formula_sum "Si O2"
_cell_formula_units_Z 52
_cell_length_a 9.686506
_cell_length_b 25.050864
_cell_length_c 12.272695
_cell_angle_alpha 90.000000
_cell_angle_beta 55.506359
_cell_angle_gamma 90.000000
_cell_volume 2454.463854
_symmetry_space_group_name_H-M "C 2/C"
_symmetry_group_IT_number 15
_symmetry_cell_setting 'monoclinic'
loop_
_space_group_symop_operation_xyz
x,y,z
-x,y,1/2-z
-x,-y,-z
x,-y,1/2+z
1/2+x,1/2+y,z
1/2-x,1/2+y,1/2-z
1/2-x,1/2-y,-z
1/2+x,1/2-y,1/2+z
loop_
_atom_site_type_symbol
_atom_site_label
_atom_site_fract_x
_atom_site_fract_y
_atom_site_fract_z
Si Si1 0.500000 0.041906 0.750000
Si Si2 0.332963 0.868989 0.881245
Si Si3 0.018216 0.158650 0.374080
Si Si4 0.936159 0.539773 0.121797
Si Si5 0.313471 0.293453 0.381385
Si Si6 0.810627 0.614241 0.004769
Si Si7 0.495319 0.780636 0.122076
O O1 0.423013 0.080540 0.873072
O O2 0.624355 0.001183 0.758006
O O3 0.500000 0.842381 0.750000
O O4 0.417390 0.923425 0.890621
O O5 0.188994 0.860556 0.854027
O O6 0.239377 0.845955 0.028913
O O7 0.868049 0.119831 0.471703
O O8 0.000000 0.159289 0.250000
O O9 0.971746 0.219541 0.428278
O O10 0.814010 0.580882 0.115248
O O11 0.000000 0.500000 0.000000
O O12 0.500000 0.289832 0.250000
O O13 0.250000 0.250000 0.500000
O O14 0.192566 0.290147 0.332536
O O15 0.888036 0.673749 0.983123
O O16 0.500000 0.784836 0.250000
#
# Coordination Sequence:
#
# PCOD9291831 Si02
#       7
#     4   8   8   8   8   8   8
#     4  10  22  42  72  94 128 186 236 286 368 410
#     4  12  24  46  74  99 143 190 236 298 362 422
#     4  11  26  40  68 106 144 185 235 280 357 445
#     4  10  22  42  72  99 129 189 241 296 362 428
#     4  12  27  45  69 105 146 190 243 288 352 433
#     4  11  22  43  68  99 141 175 234 292 354 422
#     4  11  24  41  68 103 146 189 222 288 358 438
#
# _framework density 21.185890000000001
#
# number of rings (size 3 to 8) (size 9 to 14) (size 15 to 20)
#    0.000    0.923    4.615    1.846    2.154    1.231 
#    0.000    3.077    3.385    0.000    0.000    0.000 
#    0.000    0.000    0.000    0.000    0.000    0.000 
#
# Total GULP energy -144760.160180 kJ/mol
# GULP energy per Si atom -5567.698468 kJ/mol
# Density = 2.113767 g / cm^3
# Si number density = 21.185890 Si / 1000 Ang^3
#
#
#
# Elastic Constant Matrix: (Units=GPa)
#
#
# Indices 1 2 3 4 5 6 
#
# 1 189.3173 48.9029 34.1437 0.0000 -6.4037 0.0000
# 2 48.9029 95.2967 34.9834 0.0000 1.8285 0.0000
# 3 34.1437 34.9834 82.8573 0.0000 -1.7392 0.0000
# 4 0.0000 0.0000 0.0000 12.7709 0.0000 10.7806
# 5 -6.4037 1.8285 -1.7392 0.0000 38.7696 0.0000
# 6 0.0000 0.0000 0.0000 10.7806 0.0000 11.9187
#
#
#
# Elastic Compliance Matrix: (Units=1/GPa)
#
#
# Indices 1 2 3 4 5 6 
#
# 1 0.006278 -0.002724 -0.001414 0.000000 0.001102 0.000000
# 2 -0.002724 0.013626 -0.004658 0.000000 -0.001301 0.000000
# 3 -0.001414 -0.004658 0.014632 0.000000 0.000643 0.000000
# 4 0.000000 0.000000 0.000000 0.331165 0.000000 -0.299543
# 5 0.001102 -0.001301 0.000643 0.000000 0.026066 0.000000
# 6 0.000000 0.000000 0.000000 -0.299543 0.000000 0.354842
#
#
# Mechanical properties :
#
#
# Convention : Reuss Voigt Hill
#
# Bulk Modulus (GPa) = 59.01609 67.05904 63.03756
# Shear Modulus (GPa) = 6.49478 29.32125 17.90802
#
# Velocity S-wave (km/s) = 1.75279 3.72425 2.91052
# Velocity P-wave (km/s) = 5.65802 7.08624 6.41202
#
# Compressibility (1/GPa) = 0.01694453
#
# Stress axis : x y z
#
# Youngs Moduli (GPa) = 159.28673 73.38782 68.34439
#
# Poissons Ratio (x) = 0.19989 0.09663
# Poissons Ratio (y) = 0.43386 0.31835
# Poissons Ratio (z) = 0.22521 0.34185
#
# Static dielectric constant tensor:
#      x y z
#    x 1.753830 0.000000 0.015960 
#    y 0.000000 1.840800 0.000000 
#    z 0.015960 0.000000 1.826630 
# 
# From -- ./inp_files/81169.got.cif
#   From: 2010.05.17/outbox.cif.g08.bks.cpg/sg15_41_cif.got.tgz:81169.got - 2010.06.03 18:47:42.
