data_PCOD9291826
_publ_section_title
;
Structure prediction by ZEFSAII (Michael W. Deem and Ramdas Pophale) SiO2 
 PCOD9291826
Probable space group: C 2/C
;
_chemical_formula_sum "Si O2"
_cell_formula_units_Z 60
_cell_length_a 16.047574
_cell_length_b 9.623445
_cell_length_c 19.433303
_cell_angle_alpha 90.000000
_cell_angle_beta 111.415335
_cell_angle_gamma 90.000000
_cell_volume 2793.937741
_symmetry_space_group_name_H-M "C 2/C"
_symmetry_group_IT_number 15
_symmetry_cell_setting 'monoclinic'
loop_
_space_group_symop_operation_xyz
x,y,z
-x,y,1/2-z
-x,-y,-z
x,-y,1/2+z
1/2+x,1/2+y,z
1/2-x,1/2+y,1/2-z
1/2-x,1/2-y,-z
1/2+x,1/2-y,1/2+z
loop_
_atom_site_type_symbol
_atom_site_label
_atom_site_fract_x
_atom_site_fract_y
_atom_site_fract_z
Si Si1 0.696011 0.743868 0.172966
Si Si2 0.394271 0.893530 0.537075
Si Si3 0.000000 0.233987 0.750000
Si Si4 0.927433 0.536886 0.894046
Si Si5 0.224107 0.909597 0.994162
Si Si6 0.591382 0.483210 0.074906
Si Si7 0.135003 0.721694 0.178918
Si Si8 0.155210 0.865660 0.385453
O O1 0.625057 0.862135 0.172223
O O2 0.635665 0.616486 0.126848
O O3 0.767832 0.723549 0.256037
O O4 0.758957 0.803734 0.129547
O O5 0.425650 0.886308 0.467220
O O6 0.370924 0.743546 0.561679
O O7 0.474651 0.982840 0.594074
O O8 0.308552 0.988489 0.521112
O O9 0.935465 0.318000 0.781859
O O10 0.929123 0.140829 0.689174
O O11 0.869311 0.396140 0.880411
O O12 0.165006 0.934636 0.042894
O O13 0.250000 0.750000 0.000000
O O14 0.169851 0.978504 0.915056
O O15 0.593631 0.361059 0.133058
O O16 0.500000 0.500000 0.000000
#
# Coordination Sequence:
#
# PCOD9291826 Si02
#       8
#     8   8   4   8   8   8   8   8
#     4  11  24  43  70  95 140 182 223 283 344 421
#     4  11  22  40  67  99 134 172 226 282 330 401
#     4  10  22  42  72  92 130 178 222 274 328 434
#     4  11  23  39  69 100 132 173 230 279 330 403
#     4  12  25  41  65 100 139 171 224 286 345 397
#     4  12  27  42  69 103 140 177 234 289 341 415
#     4  11  24  44  68 100 134 179 229 275 351 409
#     4  11  21  44  69  99 126 182 227 269 348 410
#
# _framework density 21.475066999999999
#
# number of rings (size 3 to 8) (size 9 to 14) (size 15 to 20)
#    0.000    0.800    4.000    3.600    5.600    0.000 
#    0.000    0.000    0.000    1.600    0.000    0.000 
#    0.000    0.000    0.000    0.000    0.000    0.000 
#
# Total GULP energy -167356.822339 kJ/mol
# GULP energy per Si atom -5578.560745 kJ/mol
# Density = 2.142619 g / cm^3
# Si number density = 21.475067 Si / 1000 Ang^3
#
#
#
# Elastic Constant Matrix: (Units=GPa)
#
#
# Indices 1 2 3 4 5 6 
#
# 1 32.8016 -10.1514 11.1283 0.0000 18.9348 0.0000
# 2 -10.1514 107.8576 28.9088 0.0000 9.8580 0.0000
# 3 11.1283 28.9088 103.8136 0.0000 30.9590 0.0000
# 4 0.0000 0.0000 0.0000 11.1436 0.0000 0.9082
# 5 18.9348 9.8580 30.9590 0.0000 39.4164 0.0000
# 6 0.0000 0.0000 0.0000 0.9082 0.0000 24.9711
#
#
#
# Elastic Compliance Matrix: (Units=1/GPa)
#
#
# Indices 1 2 3 4 5 6 
#
# 1 0.046306 0.006448 0.000464 0.000000 -0.024222 0.000000
# 2 0.006448 0.010922 -0.002604 0.000000 -0.003783 0.000000
# 3 0.000464 -0.002604 0.013294 0.000000 -0.010013 0.000000
# 4 0.000000 0.000000 0.000000 0.090004 0.000000 -0.003274
# 5 -0.024222 -0.003783 -0.010013 0.000000 0.045817 0.000000
# 6 0.000000 0.000000 0.000000 -0.003274 0.000000 0.040165
#
#
# Mechanical properties :
#
#
# Convention : Reuss Voigt Hill
#
# Bulk Modulus (GPa) = 12.63619 33.80488 23.22053
# Shear Modulus (GPa) = 18.91976 29.41201 24.16589
#
# Velocity S-wave (km/s) = 2.97140 3.70481 3.35819
# Velocity P-wave (km/s) = 4.20348 5.83750 5.08653
#
# Compressibility (1/GPa) = 0.07913779
#
# Stress axis : x y z
#
# Youngs Moduli (GPa) = 21.59528 91.55680 75.22021
#
# Poissons Ratio (x) = -0.59034 -0.03491
# Poissons Ratio (y) = -0.13924 0.19590
# Poissons Ratio (z) = -0.01002 0.23845
#
# Static dielectric constant tensor:
#      x y z
#    x 1.852510 0.000000 0.006590 
#    y 0.000000 1.847590 0.000000 
#    z 0.006590 0.000000 1.910010 
# 
# From -- ./inp_files/276590.got.cif
#   From: 2010.05.17/outbox.cif.g08.bks.cpg/sg15_139_cif.got.tgz:276590.got - 2010.06.03 18:47:42.
