data_PCOD9291167
_publ_section_title
;
Structure prediction by ZEFSAII (Michael W. Deem and Ramdas Pophale) SiO2 
 PCOD9291167
Probable space group: C 2/C
;
_chemical_formula_sum "Si O2"
_cell_formula_units_Z 32
_cell_length_a 22.271944
_cell_length_b 6.976652
_cell_length_c 20.108840
_cell_angle_alpha 90.000000
_cell_angle_beta 25.507129
_cell_angle_gamma 90.000000
_cell_volume 1345.518979
_symmetry_space_group_name_H-M "C 2/C"
_symmetry_group_IT_number 15
_symmetry_cell_setting 'monoclinic'
loop_
_space_group_symop_operation_xyz
x,y,z
-x,y,1/2-z
-x,-y,-z
x,-y,1/2+z
1/2+x,1/2+y,z
1/2-x,1/2+y,1/2-z
1/2-x,1/2-y,-z
1/2+x,1/2-y,1/2+z
loop_
_atom_site_type_symbol
_atom_site_label
_atom_site_fract_x
_atom_site_fract_y
_atom_site_fract_z
Si Si1 0.297582 0.934580 0.819331
Si Si2 0.620149 0.743321 0.178091
Si Si3 0.218939 0.842792 0.715085
Si Si4 0.419812 0.802853 0.015765
O O1 0.386739 0.037120 0.788094
O O2 0.234402 0.125166 0.847550
O O3 0.416232 0.824570 0.658799
O O4 0.166049 0.797332 0.958318
O O5 0.500000 0.679559 0.250000
O O6 0.637611 0.616474 0.227102
O O7 0.750000 0.750000 0.000000
O O8 0.121406 0.815582 0.876724
O O9 0.345947 0.988800 0.596074
#
# Coordination Sequence:
#
# PCOD9291167 Si02
#       4
#     8   8   8   8
#     4  10  26  39  68  97 136 172 221 275 333 397
#     4  10  22  42  65  90 129 175 223 267 325 389
#     4  10  23  38  70  92 139 171 218 278 328 398
#     4  12  22  44  65 108 131 173 222 275 347 393
#
# _framework density 23.782646
#
# number of rings (size 3 to 8) (size 9 to 14) (size 15 to 20)
#    1.500    0.000    2.500    2.250    0.000    5.000 
#    0.000    6.250    0.000    0.000    0.000    0.000 
#    0.000    0.000    0.000    0.000    0.000    0.000 
#
# Total GULP energy -89185.959499 kJ/mol
# GULP energy per Si atom -5574.122469 kJ/mol
# Density = 2.372852 g / cm^3
# Si number density = 23.782646 Si / 1000 Ang^3
#
#
#
# Elastic Constant Matrix: (Units=GPa)
#
#
# Indices 1 2 3 4 5 6 
#
# 1 109.8143 -4.1755 7.6067 -0.0008 -4.1922 0.0002
# 2 -4.1755 68.3152 6.1291 -0.0075 -6.6776 0.0032
# 3 7.6067 6.1291 75.7078 -0.0015 -11.0221 0.0018
# 4 -0.0008 -0.0075 -0.0015 31.8426 0.0008 -4.3830
# 5 -4.1922 -6.6776 -11.0221 0.0008 29.4023 0.0002
# 6 0.0002 0.0032 0.0018 -4.3830 0.0002 14.8106
#
#
#
# Elastic Compliance Matrix: (Units=1/GPa)
#
#
# Indices 1 2 3 4 5 6 
#
# 1 0.009237 0.000753 -0.000817 0.000000 0.001182 0.000000
# 2 0.000753 0.015073 -0.000827 0.000003 0.003221 -0.000002
# 3 -0.000817 -0.000827 0.014082 0.000000 0.004975 -0.000002
# 4 0.000000 0.000003 0.000000 0.032738 0.000000 0.009688
# 5 0.001182 0.003221 0.004975 0.000000 0.036776 -0.000002
# 6 0.000000 -0.000002 -0.000002 0.009688 -0.000002 0.070386
#
#
# Mechanical properties :
#
#
# Convention : Reuss Voigt Hill
#
# Bulk Modulus (GPa) = 27.31472 30.32865 28.82168
# Shear Modulus (GPa) = 26.00418 31.49622 28.75020
#
# Velocity S-wave (km/s) = 3.31026 3.64309 3.48066
# Velocity P-wave (km/s) = 5.11082 5.52053 5.31962
#
# Compressibility (1/GPa) = 0.03661030
#
# Stress axis : x y z
#
# Youngs Moduli (GPa) = 108.26451 66.34338 71.01280
#
# Poissons Ratio (x) = -0.04998 0.05802
# Poissons Ratio (y) = -0.08156 0.05873
# Poissons Ratio (z) = 0.08845 0.05487
#
# Static dielectric constant tensor:
#      x y z
#    x 2.018110 0.000000 0.054100 
#    y 0.000000 1.993280 0.000000 
#    z 0.054100 0.000000 1.852500 
# 
# From -- ./inp_files/59670.got.cif
#   From: 2010.05.17/outbox.cif.g08.bks.cpg/sg15_30_cif.got.tgz:59670.got - 2010.06.03 18:47:42.
