data_PCOD9291003
_publ_section_title
;
Structure prediction by ZEFSAII (Michael W. Deem and Ramdas Pophale) SiO2 
 PCOD9291003
Probable space group: C 2/C
;
_chemical_formula_sum "Si O2"
_cell_formula_units_Z 56
_cell_length_a 14.492862
_cell_length_b 6.527702
_cell_length_c 28.305192
_cell_angle_alpha 90.000000
_cell_angle_beta 67.280793
_cell_angle_gamma 90.000000
_cell_volume 2470.039847
_symmetry_space_group_name_H-M "C 2/C"
_symmetry_group_IT_number 15
_symmetry_cell_setting 'monoclinic'
loop_
_space_group_symop_operation_xyz
x,y,z
-x,y,1/2-z
-x,-y,-z
x,-y,1/2+z
1/2+x,1/2+y,z
1/2-x,1/2+y,1/2-z
1/2-x,1/2-y,-z
1/2+x,1/2-y,1/2+z
loop_
_atom_site_type_symbol
_atom_site_label
_atom_site_fract_x
_atom_site_fract_y
_atom_site_fract_z
Si Si1 0.152500 0.667020 0.956376
Si Si2 0.500000 0.500000 0.500000
Si Si3 0.004899 0.654356 0.332055
Si Si4 0.364413 0.774106 0.225061
Si Si5 0.500000 0.443793 0.250000
Si Si6 0.803224 0.236732 0.575324
Si Si7 0.188571 0.068721 0.826265
Si Si8 0.839110 0.531670 0.439394
O O1 0.179846 0.475620 0.918754
O O2 0.249132 0.810592 0.944937
O O3 0.130754 0.575687 0.013010
O O4 0.058585 0.806254 0.962420
O O5 0.404771 0.646879 0.533472
O O6 0.059976 0.459562 0.298399
O O7 0.088015 0.798841 0.339768
O O8 0.959608 0.795045 0.299256
O O9 0.927718 0.578595 0.386127
O O10 0.416713 0.592617 0.244501
O O11 0.269239 0.854528 0.272329
O O12 0.333326 0.666431 0.182121
O O13 0.775504 0.116598 0.628539
O O14 0.709889 0.190993 0.559156
#
# Coordination Sequence:
#
# PCOD9291003 Si02
#       8
#     8   4   8   8   4   8   8   8
#     4  10  22  44  65  97 138 170 227 284 328 410
#     4  10  22  42  62  98 126 174 216 272 334 402
#     4  11  24  43  66  96 133 180 219 282 337 408
#     4  11  24  44  64  94 136 173 224 289 326 407
#     4  10  26  40  68  94 126 176 226 272 334 402
#     4  11  24  38  69  95 131 175 221 276 338 406
#     4  11  25  42  64  98 131 178 225 272 345 398
#     4  10  24  40  65  98 131 173 225 278 343 398
#
# _framework density 22.671700000000001
#
# number of rings (size 3 to 8) (size 9 to 14) (size 15 to 20)
#    0.000    1.429    1.429    2.143    6.000    4.571 
#    0.000    0.000    0.000    0.000    0.000    0.000 
#    0.000    0.000    0.000    0.000    0.000    0.000 
#
# Total GULP energy -156127.918873 kJ/mol
# GULP energy per Si atom -5575.997103 kJ/mol
# Density = 2.262010 g / cm^3
# Si number density = 22.671700 Si / 1000 Ang^3
#
#
#
# Elastic Constant Matrix: (Units=GPa)
#
#
# Indices 1 2 3 4 5 6 
#
# 1 24.8181 3.8736 13.2732 -0.0001 -13.9841 -0.0002
# 2 3.8736 74.9644 -21.9982 -0.0003 -8.0727 -0.0005
# 3 13.2732 -21.9982 46.7744 -0.0002 -16.0405 -0.0002
# 4 -0.0001 -0.0003 -0.0002 26.8456 0.0000 -6.3925
# 5 -13.9841 -8.0727 -16.0405 0.0000 38.8814 -0.0001
# 6 -0.0002 -0.0005 -0.0002 -6.3925 -0.0001 26.3012
#
#
#
# Elastic Compliance Matrix: (Units=1/GPa)
#
#
# Indices 1 2 3 4 5 6 
#
# 1 0.056121 -0.005585 -0.014010 0.000000 0.013245 0.000000
# 2 -0.005585 0.018004 0.012399 0.000000 0.006845 0.000001
# 3 -0.014010 0.012399 0.035341 0.000000 0.012116 0.000001
# 4 0.000000 0.000000 0.000000 0.039538 0.000000 0.009610
# 5 0.013245 0.006845 0.012116 0.000000 0.036902 0.000001
# 6 0.000000 0.000001 0.000001 0.009610 0.000001 0.040357
#
#
# Mechanical properties :
#
#
# Convention : Reuss Voigt Hill
#
# Bulk Modulus (GPa) = 10.51796 15.20602 12.86199
# Shear Modulus (GPa) = 18.35903 28.49952 23.42927
#
# Velocity S-wave (km/s) = 2.84875 3.54934 3.21816
# Velocity P-wave (km/s) = 3.93317 4.84961 4.41523
#
# Compressibility (1/GPa) = 0.09507547
#
# Stress axis : x y z
#
# Youngs Moduli (GPa) = 17.81870 55.54343 28.29562
#
# Poissons Ratio (x) = 0.31020 0.39642
# Poissons Ratio (y) = 0.09951 -0.35085
# Poissons Ratio (z) = 0.24964 -0.68871
#
# Static dielectric constant tensor:
#      x y z
#    x 1.859450 0.000000 0.076980 
#    y 0.000000 1.861690 0.000000 
#    z 0.076980 0.000000 1.816550 
# 
# From -- ./inp_files/315045.got.cif
#   From: 2010.05.17/outbox.cif.g08.bks.cpg/sg15_158_cif.got.tgz:315045.got - 2010.06.03 18:47:42.
