data_PCOD9291884
_publ_section_title
;
Structure prediction by ZEFSAII (Michael W. Deem and Ramdas Pophale) SiO2 
 PCOD9291884
Probable space group: C 2/C
;
_chemical_formula_sum "Si O2"
_cell_formula_units_Z 52
_cell_length_a 30.676215
_cell_length_b 8.349473
_cell_length_c 20.882264
_cell_angle_alpha 90.000000
_cell_angle_beta 153.752350
_cell_angle_gamma 90.000000
_cell_volume 2365.419274
_symmetry_space_group_name_H-M "C 2/C"
_symmetry_group_IT_number 15
_symmetry_cell_setting 'monoclinic'
loop_
_space_group_symop_operation_xyz
x,y,z
-x,y,1/2-z
-x,-y,-z
x,-y,1/2+z
1/2+x,1/2+y,z
1/2-x,1/2+y,1/2-z
1/2-x,1/2-y,-z
1/2+x,1/2-y,1/2+z
loop_
_atom_site_type_symbol
_atom_site_label
_atom_site_fract_x
_atom_site_fract_y
_atom_site_fract_z
Si Si1 0.088148 0.787510 0.777417
Si Si2 0.330276 0.730206 0.311965
Si Si3 0.500000 0.467666 0.250000
Si Si4 0.285369 0.902082 0.735121
Si Si5 0.492934 0.172852 0.525976
Si Si6 0.798812 0.772865 0.995309
Si Si7 0.277781 0.907944 0.950448
O O1 0.040567 0.678786 0.659121
O O2 0.180191 0.882001 0.866220
O O3 0.135736 0.685278 0.898045
O O4 0.009260 0.912314 0.701608
O O5 0.311171 0.654267 0.355100
O O6 0.439850 0.710517 0.428332
O O7 0.252844 0.662369 0.158348
O O8 0.309171 0.918734 0.286598
O O9 0.595999 0.357978 0.369616
O O10 0.270784 0.882883 0.640542
O O11 0.377594 0.791153 0.876330
O O12 0.500000 0.000000 0.500000
O O13 0.803661 0.592819 0.975255
O O14 0.750000 0.750000 0.000000
#
# Coordination Sequence:
#
# PCOD9291884 Si02
#       7
#     8   8   4   8   8   8   8
#     4  10  22  42  75 102 135 183 244 290 350 427
#     4  10  22  44  69 102 135 181 232 285 354 417
#     4  12  26  46  70 112 138 186 246 304 348 428
#     4  11  24  43  68  99 140 181 231 289 350 424
#     4   9  22  41  69 100 137 180 228 284 353 417
#     4  12  27  45  68 102 145 186 236 297 356 419
#     4  10  22  45  71  98 138 188 228 291 364 409
#
# _framework density 21.983418
#
# number of rings (size 3 to 8) (size 9 to 14) (size 15 to 20)
#    0.000    1.538    1.538    1.846   10.769    1.846 
#    2.769    2.308    0.000    0.000    0.000    0.000 
#    0.000    0.000    0.000    0.000    0.000    0.000 
#
# Total GULP energy -145288.183050 kJ/mol
# GULP energy per Si atom -5588.007040 kJ/mol
# Density = 2.193338 g / cm^3
# Si number density = 21.983418 Si / 1000 Ang^3
#
#
#
# Elastic Constant Matrix: (Units=GPa)
#
#
# Indices 1 2 3 4 5 6 
#
# 1 98.0958 17.8338 27.5002 0.0000 4.5569 0.0000
# 2 17.8338 65.8763 12.0773 0.0000 12.5321 0.0000
# 3 27.5002 12.0773 80.9095 0.0000 10.9629 0.0000
# 4 0.0000 0.0000 0.0000 34.8293 0.0000 -1.7038
# 5 4.5569 12.5321 10.9629 0.0000 23.6719 0.0000
# 6 0.0000 0.0000 0.0000 -1.7038 0.0000 34.6823
#
#
#
# Elastic Compliance Matrix: (Units=1/GPa)
#
#
# Indices 1 2 3 4 5 6 
#
# 1 0.011669 -0.002647 -0.003688 0.000000 0.000863 0.000000
# 2 -0.002647 0.017630 -0.000572 0.000000 -0.008559 0.000000
# 3 -0.003688 -0.000572 0.014469 0.000000 -0.005688 0.000000
# 4 0.000000 0.000000 0.000000 0.028781 0.000000 0.001414
# 5 0.000863 -0.008559 -0.005688 0.000000 0.049243 0.000000
# 6 0.000000 0.000000 0.000000 0.001414 0.000000 0.028903
#
#
# Mechanical properties :
#
#
# Convention : Reuss Voigt Hill
#
# Bulk Modulus (GPa) = 33.38523 39.96713 36.67618
# Shear Modulus (GPa) = 28.65436 31.13471 29.89453
#
# Velocity S-wave (km/s) = 3.61425 3.76743 3.69164
# Velocity P-wave (km/s) = 5.71285 6.09465 5.90684
#
# Compressibility (1/GPa) = 0.02995337
#
# Stress axis : x y z
#
# Youngs Moduli (GPa) = 85.69596 56.72257 69.11266
#
# Poissons Ratio (x) = 0.15015 0.25489
# Poissons Ratio (y) = 0.22684 0.03955
# Poissons Ratio (z) = 0.31605 0.03246
#
# Static dielectric constant tensor:
#      x y z
#    x 1.834810 0.000000 0.028170 
#    y 0.000000 1.799370 0.000000 
#    z 0.028170 0.000000 1.840680 
# 
# From -- ./inp_files/258856.got.cif
#   From: 2010.05.17/outbox.cif.g08.bks.cpg/sg15_130_cif.got.tgz:258856.got - 2010.06.03 18:47:42.
