data_PCOD9291629
_publ_section_title
;
Structure prediction by ZEFSAII (Michael W. Deem and Ramdas Pophale) SiO2 
 PCOD9291629
Probable space group: C 2/C
;
_chemical_formula_sum "Si O2"
_cell_formula_units_Z 48
_cell_length_a 23.587074
_cell_length_b 9.120294
_cell_length_c 17.958382
_cell_angle_alpha 90.000000
_cell_angle_beta 148.020084
_cell_angle_gamma 90.000000
_cell_volume 2046.049331
_symmetry_space_group_name_H-M "C 2/C"
_symmetry_group_IT_number 15
_symmetry_cell_setting 'monoclinic'
loop_
_space_group_symop_operation_xyz
x,y,z
-x,y,1/2-z
-x,-y,-z
x,-y,1/2+z
1/2+x,1/2+y,z
1/2-x,1/2+y,1/2-z
1/2-x,1/2-y,-z
1/2+x,1/2-y,1/2+z
loop_
_atom_site_type_symbol
_atom_site_label
_atom_site_fract_x
_atom_site_fract_y
_atom_site_fract_z
Si Si1 0.447117 0.723422 0.981952
Si Si2 0.411401 0.905123 0.800306
Si Si3 0.904418 0.883686 0.201695
Si Si4 0.637903 0.540615 0.196953
Si Si5 0.785403 0.414103 0.062334
Si Si6 0.616635 0.939415 0.478710
O O1 0.407099 0.846999 0.879371
O O2 0.380886 0.578511 0.887947
O O3 0.428123 0.784048 0.042710
O O4 0.570770 0.684914 0.103243
O O5 0.374761 0.773302 0.704629
O O6 0.339973 0.046941 0.701335
O O7 0.534358 0.942260 0.918561
O O8 0.000000 0.867704 0.250000
O O9 0.923842 0.978976 0.298229
O O10 0.811720 0.974049 0.057582
O O11 0.761515 0.551540 0.355812
O O12 0.750000 0.250000 0.000000
O O13 0.874177 0.451450 0.099151
#
# Coordination Sequence:
#
# PCOD9291629 Si02
#       6
#     8   8   8   8   8   8
#     4  10  23  43  67  95 136 176 227 278 339 402
#     4  11  24  44  67 100 131 180 232 279 336 412
#     4  10  22  42  69  94 134 179 225 275 341 404
#     4   9  23  43  62 101 131 171 231 279 331 407
#     4  11  26  42  66 102 137 174 226 282 341 406
#     4  11  24  40  70  92 138 172 226 278 339 400
#
# _framework density 23.459845000000001
#
# number of rings (size 3 to 8) (size 9 to 14) (size 15 to 20)
#    0.000    1.667    0.000    2.500    9.333    4.000 
#    3.000    0.000    0.000    0.000    0.000    0.000 
#    0.000    0.000    0.000    0.000    0.000    0.000 
#
# Total GULP energy -134139.447567 kJ/mol
# GULP energy per Si atom -5589.143649 kJ/mol
# Density = 2.340645 g / cm^3
# Si number density = 23.459845 Si / 1000 Ang^3
#
#
#
# Elastic Constant Matrix: (Units=GPa)
#
#
# Indices 1 2 3 4 5 6 
#
# 1 41.4501 6.4105 -23.3488 0.0000 -5.7824 0.0000
# 2 6.4105 90.0395 42.6454 0.0000 -5.4563 0.0000
# 3 -23.3488 42.6454 92.2518 0.0000 -1.3558 0.0000
# 4 0.0000 0.0000 0.0000 48.2248 0.0000 -6.8080
# 5 -5.7824 -5.4563 -1.3558 0.0000 22.2250 0.0000
# 6 0.0000 0.0000 0.0000 -6.8080 0.0000 24.3225
#
#
#
# Elastic Compliance Matrix: (Units=1/GPa)
#
#
# Indices 1 2 3 4 5 6 
#
# 1 0.033097 -0.007583 0.011992 0.000000 0.007481 0.000000
# 2 -0.007583 0.016172 -0.009374 0.000000 0.001426 0.000000
# 3 0.011992 -0.009374 0.018237 0.000000 0.001931 0.000000
# 4 0.000000 0.000000 0.000000 0.021589 0.000000 0.006043
# 5 0.007481 0.001426 0.001931 0.000000 0.047409 0.000000
# 6 0.000000 0.000000 0.000000 0.006043 0.000000 0.042806
#
#
# Mechanical properties :
#
#
# Convention : Reuss Voigt Hill
#
# Bulk Modulus (GPa) = 17.36838 30.57285 23.97061
# Shear Modulus (GPa) = 23.98868 32.15676 28.07272
#
# Velocity S-wave (km/s) = 3.20119 3.70633 3.46298
# Velocity P-wave (km/s) = 4.59162 5.60144 5.12148
#
# Compressibility (1/GPa) = 0.05757589
#
# Stress axis : x y z
#
# Youngs Moduli (GPa) = 30.21445 61.83357 54.83387
#
# Poissons Ratio (x) = 0.46887 -0.65757
# Poissons Ratio (y) = 0.22911 0.51403
# Poissons Ratio (z) = -0.36233 0.57965
#
# Static dielectric constant tensor:
#      x y z
#    x 1.840300 0.000000 -0.015900 
#    y 0.000000 1.952950 0.000000 
#    z -0.015900 0.000000 1.929370 
# 
# From -- ./inp_files/257244.got.cif
#   From: 2010.05.17/outbox.cif.g08.bks.cpg/sg15_129_cif.got.tgz:257244.got - 2010.06.03 18:47:42.
