data_PCOD9291994
_publ_section_title
;
Structure prediction by ZEFSAII (Michael W. Deem and Ramdas Pophale) SiO2 
 PCOD9291994
Probable space group: C 2/C
;
_chemical_formula_sum "Si O2"
_cell_formula_units_Z 36
_cell_length_a 13.790854
_cell_length_b 11.565030
_cell_length_c 21.147074
_cell_angle_alpha 90.000000
_cell_angle_beta 151.766157
_cell_angle_gamma 90.000000
_cell_volume 1595.565947
_symmetry_space_group_name_H-M "C 2/C"
_symmetry_group_IT_number 15
_symmetry_cell_setting 'monoclinic'
loop_
_space_group_symop_operation_xyz
x,y,z
-x,y,1/2-z
-x,-y,-z
x,-y,1/2+z
1/2+x,1/2+y,z
1/2-x,1/2+y,1/2-z
1/2-x,1/2-y,-z
1/2+x,1/2-y,1/2+z
loop_
_atom_site_type_symbol
_atom_site_label
_atom_site_fract_x
_atom_site_fract_y
_atom_site_fract_z
Si Si1 0.500000 0.798948 0.250000
Si Si2 0.532806 0.797253 0.900087
Si Si3 0.584034 0.420994 0.228186
Si Si4 0.663356 0.959139 0.450596
Si Si5 0.150792 0.368480 0.582615
O O1 0.625839 0.878164 0.370117
O O2 0.655266 0.716883 0.301861
O O3 0.379511 0.697709 0.788307
O O4 0.516317 0.815318 0.966023
O O5 0.519411 0.926634 0.864788
O O6 0.750000 0.750000 0.000000
O O7 0.500000 0.392268 0.250000
O O8 0.771443 0.508433 0.345215
O O9 0.395972 0.492385 0.088497
O O10 0.620867 0.889639 0.491032
#
# Coordination Sequence:
#
# PCOD9291994 Si02
#       5
#     4   8   8   8   8
#     4  12  24  40  68 100 126 170 230 272 314 396
#     4  10  23  42  66  97 132 174 216 268 324 393
#     4   9  20  42  65  94 133 172 214 267 329 389
#     4  10  22  43  64  96 130 170 219 270 332 382
#     4  11  22  42  68  93 135 175 212 269 331 392
#
# _framework density 22.562528
#
# number of rings (size 3 to 8) (size 9 to 14) (size 15 to 20)
#    0.000    1.778    3.333    1.333    4.667    0.000 
#    0.000    4.444    0.000    0.000    0.000    0.000 
#    0.000    0.000    0.000    0.000    0.000    0.000 
#
# Total GULP energy -100604.877229 kJ/mol
# GULP energy per Si atom -5589.159846 kJ/mol
# Density = 2.251117 g / cm^3
# Si number density = 22.562528 Si / 1000 Ang^3
#
#
#
# Elastic Constant Matrix: (Units=GPa)
#
#
# Indices 1 2 3 4 5 6 
#
# 1 84.4651 25.4310 6.8539 0.0003 9.6743 -0.0001
# 2 25.4310 105.2520 26.9126 0.0018 -22.7657 0.0003
# 3 6.8539 26.9126 69.7409 0.0065 -15.0774 0.0010
# 4 0.0003 0.0018 0.0065 39.8792 0.0014 -13.0879
# 5 9.6743 -22.7657 -15.0774 0.0014 26.2551 0.0001
# 6 -0.0001 0.0003 0.0010 -13.0879 0.0001 35.3989
#
#
#
# Elastic Compliance Matrix: (Units=1/GPa)
#
#
# Indices 1 2 3 4 5 6 
#
# 1 0.014991 -0.005643 -0.001767 0.000001 -0.011431 0.000001
# 2 -0.005643 0.014263 -0.002085 -0.000001 0.013250 0.000000
# 3 -0.001767 -0.002085 0.017203 -0.000004 0.008722 -0.000002
# 4 0.000001 -0.000001 -0.000004 0.028539 -0.000005 0.010551
# 5 -0.011431 0.013250 0.008722 -0.000005 0.058798 -0.000002
# 6 0.000001 0.000000 -0.000002 0.010551 -0.000002 0.032151
#
#
# Mechanical properties :
#
#
# Convention : Reuss Voigt Hill
#
# Bulk Modulus (GPa) = 36.40750 41.98366 39.19558
# Shear Modulus (GPa) = 25.76129 33.65733 29.70931
#
# Velocity S-wave (km/s) = 3.38268 3.86649 3.63265
# Velocity P-wave (km/s) = 5.60607 6.21137 5.91646
#
# Compressibility (1/GPa) = 0.02746686
#
# Stress axis : x y z
#
# Youngs Moduli (GPa) = 66.70719 70.10925 58.13031
#
# Poissons Ratio (x) = 0.39562 0.10272
# Poissons Ratio (y) = 0.37642 0.12121
# Poissons Ratio (z) = 0.11788 0.14619
#
# Static dielectric constant tensor:
#      x y z
#    x 1.820550 0.000000 0.069130 
#    y 0.000000 1.841890 0.000000 
#    z 0.069130 0.000000 1.928340 
# 
# From -- ./inp_files/84432.got.cif
#   From: 2010.05.17/outbox.cif.g08.bks.cpg/sg15_43_cif.got.tgz:84432.got - 2010.06.03 18:47:42.
