data_PCOD9291650
_publ_section_title
;
Structure prediction by ZEFSAII (Michael W. Deem and Ramdas Pophale) SiO2 
 PCOD9291650
Probable space group: C 2/C
;
_chemical_formula_sum "Si O2"
_cell_formula_units_Z 48
_cell_length_a 12.347712
_cell_length_b 21.105724
_cell_length_c 8.632458
_cell_angle_alpha 90.000000
_cell_angle_beta 66.440609
_cell_angle_gamma 90.000000
_cell_volume 2062.162982
_symmetry_space_group_name_H-M "C 2/C"
_symmetry_group_IT_number 15
_symmetry_cell_setting 'monoclinic'
loop_
_space_group_symop_operation_xyz
x,y,z
-x,y,1/2-z
-x,-y,-z
x,-y,1/2+z
1/2+x,1/2+y,z
1/2-x,1/2+y,1/2-z
1/2-x,1/2-y,-z
1/2+x,1/2-y,1/2+z
loop_
_atom_site_type_symbol
_atom_site_label
_atom_site_fract_x
_atom_site_fract_y
_atom_site_fract_z
Si Si1 0.638359 0.051171 0.056184
Si Si2 0.907590 0.580923 0.060880
Si Si3 0.110080 0.746311 0.752976
Si Si4 0.123168 0.912597 0.234274
Si Si5 0.212908 0.151974 0.973327
Si Si6 0.386648 0.727035 0.905217
O O1 0.544588 0.097400 0.021439
O O2 0.640589 0.066069 0.237290
O O3 0.764232 0.053679 0.903332
O O4 0.590304 0.980976 0.049976
O O5 0.816429 0.626043 0.025757
O O6 0.131747 0.806173 0.630212
O O7 0.224845 0.702484 0.677479
O O8 0.000000 0.707556 0.750000
O O9 0.076371 0.770414 0.939033
O O10 0.147549 0.899440 0.402619
O O11 0.120672 0.843545 0.155763
O O12 0.000000 0.943391 0.250000
O O13 0.500000 0.758316 0.750000
O O14 0.250000 0.750000 0.000000
#
# Coordination Sequence:
#
# PCOD9291650 Si02
#       6
#     8   8   8   8   8   8
#     4  10  22  43  67  99 131 170 216 278 343 399
#     4  10  22  42  69  98 132 165 220 282 337 404
#     4  11  24  41  61  92 132 174 224 274 337 405
#     4  11  23  42  64  94 133 177 219 272 336 404
#     4  11  24  40  64  97 129 175 223 278 340 399
#     4  11  23  42  63  91 132 178 224 276 331 396
#
# _framework density 23.276527999999999
#
# number of rings (size 3 to 8) (size 9 to 14) (size 15 to 20)
#    0.000    1.333    1.667    4.000    4.667    1.333 
#    3.000    4.167    0.000    0.000    0.000    0.000 
#    0.000    0.000    0.000    0.000    0.000    0.000 
#
# Total GULP energy -133982.572660 kJ/mol
# GULP energy per Si atom -5582.607194 kJ/mol
# Density = 2.322355 g / cm^3
# Si number density = 23.276528 Si / 1000 Ang^3
#
#
#
# Elastic Constant Matrix: (Units=GPa)
#
#
# Indices 1 2 3 4 5 6 
#
# 1 152.3857 13.9053 70.9682 0.0000 -4.7049 0.0000
# 2 13.9053 18.5828 13.3855 0.0000 3.4979 0.0000
# 3 70.9682 13.3855 157.6736 0.0000 6.1169 0.0000
# 4 0.0000 0.0000 0.0000 26.4331 0.0000 2.3228
# 5 -4.7049 3.4979 6.1169 0.0000 54.0808 0.0000
# 6 0.0000 0.0000 0.0000 2.3228 0.0000 33.5325
#
#
#
# Elastic Compliance Matrix: (Units=1/GPa)
#
#
# Indices 1 2 3 4 5 6 
#
# 1 0.008663 -0.004157 -0.003602 0.000000 0.001430 0.000000
# 2 -0.004157 0.059860 -0.003060 0.000000 -0.003887 0.000000
# 3 -0.003602 -0.003060 0.008264 0.000000 -0.001050 0.000000
# 4 0.000000 0.000000 0.000000 0.038063 0.000000 -0.002637
# 5 0.001430 -0.003887 -0.001050 0.000000 0.018985 0.000000
# 6 0.000000 0.000000 0.000000 -0.002637 0.000000 0.030004
#
#
# Mechanical properties :
#
#
# Convention : Reuss Voigt Hill
#
# Bulk Modulus (GPa) = 18.13268 58.35114 38.24191
# Shear Modulus (GPa) = 24.52657 38.16815 31.34736
#
# Velocity S-wave (km/s) = 3.24960 4.05380 3.67377
# Velocity P-wave (km/s) = 4.67835 6.85814 5.87031
#
# Compressibility (1/GPa) = 0.05514903
#
# Stress axis : x y z
#
# Youngs Moduli (GPa) = 115.43050 16.70574 121.00870
#
# Poissons Ratio (x) = 0.06945 0.43585
# Poissons Ratio (y) = 0.47988 0.37025
# Poissons Ratio (z) = 0.41576 0.05112
#
# Static dielectric constant tensor:
#      x y z
#    x 2.040980 0.000000 -0.022690 
#    y 0.000000 1.888950 0.000000 
#    z -0.022690 0.000000 1.852330 
# 
# From -- ./inp_files/32518.got.cif
#   From: 2010.05.17/outbox.cif.g08.bks.cpg/sg15_17_cif.got.tgz:32518.got - 2010.06.03 18:47:42.
