data_PCOD9291630
_publ_section_title
;
Structure prediction by ZEFSAII (Michael W. Deem and Ramdas Pophale) SiO2 
 PCOD9291630
Probable space group: C 2/C
;
_chemical_formula_sum "Si O2"
_cell_formula_units_Z 60
_cell_length_a 17.686473
_cell_length_b 10.461386
_cell_length_c 14.905867
_cell_angle_alpha 90.000000
_cell_angle_beta 100.609542
_cell_angle_gamma 90.000000
_cell_volume 2710.810231
_symmetry_space_group_name_H-M "C 2/C"
_symmetry_group_IT_number 15
_symmetry_cell_setting 'monoclinic'
loop_
_space_group_symop_operation_xyz
x,y,z
-x,y,1/2-z
-x,-y,-z
x,-y,1/2+z
1/2+x,1/2+y,z
1/2-x,1/2+y,1/2-z
1/2-x,1/2-y,-z
1/2+x,1/2-y,1/2+z
loop_
_atom_site_type_symbol
_atom_site_label
_atom_site_fract_x
_atom_site_fract_y
_atom_site_fract_z
Si Si1 0.834024 0.800312 0.497267
Si Si2 0.500000 0.584060 0.750000
Si Si3 0.126231 0.273545 0.695411
Si Si4 0.944842 0.551986 0.851316
Si Si5 0.725943 0.876203 0.877677
Si Si6 0.112257 0.396836 0.348398
Si Si7 0.865963 0.270144 0.476201
Si Si8 0.434440 0.472563 0.058244
O O1 0.750000 0.750000 0.500000
O O2 0.847727 0.776938 0.395443
O O3 0.882756 0.716056 0.578618
O O4 0.858213 0.945188 0.523037
O O5 0.564627 0.675350 0.721606
O O6 0.535282 0.499852 0.836496
O O7 0.092157 0.413279 0.667571
O O8 0.189562 0.297418 0.786529
O O9 0.913489 0.633135 0.758804
O O10 0.915106 0.629617 0.930219
O O11 0.036256 0.528033 0.865954
O O12 0.813630 0.826359 0.904255
O O13 0.691254 0.020217 0.859213
O O14 0.689218 0.840822 0.965939
O O15 0.918455 0.177455 0.546822
O O16 0.500000 0.500000 0.000000
#
# Coordination Sequence:
#
# PCOD9291630 Si02
#       8
#     8   4   8   8   8   8   8   8
#     4  12  27  44  65  99 144 186 227 284 357 426
#     4  12  24  48  74 100 138 186 250 298 356 440
#     4  11  23  45  70  99 131 181 234 291 356 423
#     4  10  23  39  73 101 129 173 230 292 350 399
#     4  10  22  42  69  95 132 173 226 287 347 416
#     4  10  22  43  64  99 134 170 225 287 337 412
#     4  11  23  41  66 101 132 176 228 284 351 421
#     4  12  26  45  69 101 140 191 238 293 361 431
#
# _framework density 22.133603999999998
#
# number of rings (size 3 to 8) (size 9 to 14) (size 15 to 20)
#    0.000    1.067    2.667    4.000    1.867    4.267 
#    0.000    0.000    0.000    0.000    0.000    0.000 
#    0.000    0.000    0.000    0.000    0.000    0.000 
#
# Total GULP energy -167562.422790 kJ/mol
# GULP energy per Si atom -5585.414093 kJ/mol
# Density = 2.208323 g / cm^3
# Si number density = 22.133604 Si / 1000 Ang^3
#
#
#
# Elastic Constant Matrix: (Units=GPa)
#
#
# Indices 1 2 3 4 5 6 
#
# 1 56.0168 5.3610 21.8519 0.0000 -9.4028 0.0000
# 2 5.3610 43.7371 24.9468 0.0000 0.6748 0.0000
# 3 21.8519 24.9468 130.5887 0.0000 -12.8183 0.0000
# 4 0.0000 0.0000 0.0000 27.2928 0.0000 6.8277
# 5 -9.4028 0.6748 -12.8183 0.0000 38.7469 0.0000
# 6 0.0000 0.0000 0.0000 6.8277 0.0000 25.5452
#
#
#
# Elastic Compliance Matrix: (Units=1/GPa)
#
#
# Indices 1 2 3 4 5 6 
#
# 1 0.019657 -0.000910 -0.002735 0.000000 0.003881 0.000000
# 2 -0.000910 0.025874 -0.005020 0.000000 -0.002332 0.000000
# 3 -0.002735 -0.005020 0.009320 0.000000 0.002507 0.000000
# 4 0.000000 0.000000 0.000000 0.039265 0.000000 -0.010495
# 5 0.003881 -0.002332 0.002507 0.000000 0.027620 0.000000
# 6 0.000000 0.000000 0.000000 -0.010495 0.000000 0.041951
#
#
# Mechanical properties :
#
#
# Convention : Reuss Voigt Hill
#
# Bulk Modulus (GPa) = 26.64938 37.18467 31.91703
# Shear Modulus (GPa) = 25.83656 30.19583 28.01619
#
# Velocity S-wave (km/s) = 3.42028 3.69759 3.56163
# Velocity P-wave (km/s) = 5.25967 5.92166 5.60046
#
# Compressibility (1/GPa) = 0.03752432
#
# Stress axis : x y z
#
# Youngs Moduli (GPa) = 50.87222 38.64816 107.29368
#
# Poissons Ratio (x) = 0.03515 0.29340
# Poissons Ratio (y) = 0.04627 0.53857
# Poissons Ratio (z) = 0.13911 0.19400
#
# Static dielectric constant tensor:
#      x y z
#    x 1.816630 0.000000 0.040940 
#    y 0.000000 1.817940 0.000000 
#    z 0.040940 0.000000 1.854520 
# 
# From -- ./inp_files/160970.got.cif
#   From: 2010.05.17/outbox.cif.g08.bks.cpg/sg15_81_cif.got.tgz:160970.got - 2010.06.03 18:47:42.
