data_PCOD9291161
_publ_section_title
;
Structure prediction by ZEFSAII (Michael W. Deem and Ramdas Pophale) SiO2 
 PCOD9291161
Probable space group: C 2/C
;
_chemical_formula_sum "Si O2"
_cell_formula_units_Z 64
_cell_length_a 16.313355
_cell_length_b 7.494385
_cell_length_c 26.046881
_cell_angle_alpha 90.000000
_cell_angle_beta 101.045463
_cell_angle_gamma 90.000000
_cell_volume 3125.463729
_symmetry_space_group_name_H-M "C 2/C"
_symmetry_group_IT_number 15
_symmetry_cell_setting 'monoclinic'
loop_
_space_group_symop_operation_xyz
x,y,z
-x,y,1/2-z
-x,-y,-z
x,-y,1/2+z
1/2+x,1/2+y,z
1/2-x,1/2+y,1/2-z
1/2-x,1/2-y,-z
1/2+x,1/2-y,1/2+z
loop_
_atom_site_type_symbol
_atom_site_label
_atom_site_fract_x
_atom_site_fract_y
_atom_site_fract_z
Si Si1 0.527598 0.518258 0.444713
Si Si2 0.286843 0.435481 0.555390
Si Si3 0.727047 0.973196 0.439153
Si Si4 0.860883 0.090901 0.371589
Si Si5 0.413839 0.315243 0.223817
Si Si6 0.943694 0.344256 0.614372
Si Si7 0.248518 0.575780 0.660283
Si Si8 0.115824 0.303003 0.671685
O O1 0.500000 0.500000 0.500000
O O2 0.617853 0.604390 0.449375
O O3 0.453885 0.619500 0.405432
O O4 0.545573 0.323197 0.422573
O O5 0.254301 0.237923 0.563050
O O6 0.241149 0.518115 0.500667
O O7 0.277943 0.558548 0.604363
O O8 0.797491 0.056452 0.411228
O O9 0.633461 0.031507 0.411332
O O10 0.813789 0.256045 0.338745
O O11 0.874539 0.907347 0.341051
O O12 0.500000 0.413551 0.250000
O O13 0.424906 0.224511 0.169841
O O14 0.329086 0.421068 0.206081
O O15 0.400515 0.182131 0.269580
O O16 0.040413 0.401483 0.632264
O O17 0.199255 0.398323 0.666346
#
# Coordination Sequence:
#
# PCOD9291161 Si02
#       8
#     8   8   8   8   8   8   8   8
#     4  11  22  38  61  95 129 167 214 264 310 386
#     4  11  24  40  61  96 134 170 216 262 324 386
#     4  11  22  40  64  92 131 176 209 267 320 384
#     4  11  23  40  64  95 130 165 215 263 317 380
#     4  10  22  43  67  91 127 169 212 271 329 374
#     4  10  22  42  65  87 129 173 211 265 328 378
#     4  12  24  42  69  93 125 177 211 263 330 386
#     4  10  25  44  62  96 131 159 221 276 312 387
#
# _framework density 20.476959999999998
#
# number of rings (size 3 to 8) (size 9 to 14) (size 15 to 20)
#    0.000    1.250    5.000    0.000    5.250    1.000 
#    0.000    1.250    0.000    3.000    0.000    0.000 
#    0.000    0.000    0.000    0.000    0.000    0.000 
#
# Total GULP energy -178386.332792 kJ/mol
# GULP energy per Si atom -5574.572900 kJ/mol
# Density = 2.043035 g / cm^3
# Si number density = 20.476960 Si / 1000 Ang^3
#
#
#
# Elastic Constant Matrix: (Units=GPa)
#
#
# Indices 1 2 3 4 5 6 
#
# 1 109.1714 11.0388 41.7699 0.0000 25.0406 0.0000
# 2 11.0388 42.4557 22.6847 0.0000 5.7213 0.0000
# 3 41.7699 22.6847 102.2230 0.0000 16.3111 0.0000
# 4 0.0000 0.0000 0.0000 14.8615 0.0000 2.2721
# 5 25.0406 5.7213 16.3111 0.0000 44.6829 0.0000
# 6 0.0000 0.0000 0.0000 2.2721 0.0000 31.0661
#
#
#
# Elastic Compliance Matrix: (Units=1/GPa)
#
#
# Indices 1 2 3 4 5 6 
#
# 1 0.011896 -0.000272 -0.003974 0.000000 -0.005181 0.000000
# 2 -0.000272 0.026804 -0.005642 0.000000 -0.001220 0.000000
# 3 -0.003974 -0.005642 0.012942 0.000000 -0.001775 0.000000
# 4 0.000000 0.000000 0.000000 0.068049 0.000000 -0.004977
# 5 -0.005181 -0.001220 -0.001775 0.000000 0.026088 0.000000
# 6 0.000000 0.000000 0.000000 -0.004977 0.000000 0.032553
#
#
# Mechanical properties :
#
#
# Convention : Reuss Voigt Hill
#
# Bulk Modulus (GPa) = 31.38162 44.98187 38.18175
# Shear Modulus (GPa) = 23.95444 30.01256 26.98350
#
# Velocity S-wave (km/s) = 3.42398 3.83257 3.63402
# Velocity P-wave (km/s) = 5.56688 6.44977 6.02452
#
# Compressibility (1/GPa) = 0.03186578
#
# Stress axis : x y z
#
# Youngs Moduli (GPa) = 84.05978 37.30806 77.26965
#
# Poissons Ratio (x) = 0.01013 0.30707
# Poissons Ratio (y) = 0.02283 0.43599
# Poissons Ratio (z) = 0.33405 0.21051
#
# Static dielectric constant tensor:
#      x y z
#    x 1.778070 0.000000 0.021580 
#    y 0.000000 1.734120 0.000000 
#    z 0.021580 0.000000 1.749720 
# 
# From -- ./inp_files/295182.got.cif
#   From: 2010.05.17/outbox.cif.g08.bks.cpg/sg15_148_cif.got.tgz:295182.got - 2010.06.03 18:47:42.
