data_PCOD9291356
_publ_section_title
;
Structure prediction by ZEFSAII (Michael W. Deem and Ramdas Pophale) SiO2 
 PCOD9291356
Probable space group: C 2/C
;
_chemical_formula_sum "Si O2"
_cell_formula_units_Z 64
_cell_length_a 16.848518
_cell_length_b 9.430110
_cell_length_c 27.211405
_cell_angle_alpha 90.000000
_cell_angle_beta 134.869075
_cell_angle_gamma 90.000000
_cell_volume 3064.111490
_symmetry_space_group_name_H-M "C 2/C"
_symmetry_group_IT_number 15
_symmetry_cell_setting 'monoclinic'
loop_
_space_group_symop_operation_xyz
x,y,z
-x,y,1/2-z
-x,-y,-z
x,-y,1/2+z
1/2+x,1/2+y,z
1/2-x,1/2+y,1/2-z
1/2-x,1/2-y,-z
1/2+x,1/2-y,1/2+z
loop_
_atom_site_type_symbol
_atom_site_label
_atom_site_fract_x
_atom_site_fract_y
_atom_site_fract_z
Si Si1 0.878331 0.166596 0.697575
Si Si2 0.117125 0.632681 0.213236
Si Si3 0.981966 0.567702 0.065451
Si Si4 0.371184 0.536703 0.944334
Si Si5 0.278168 0.260830 0.954929
Si Si6 0.679932 0.811517 0.514838
Si Si7 0.251080 0.645266 0.797151
Si Si8 0.237804 0.589336 0.138636
O O1 0.893442 0.306503 0.737001
O O2 0.824516 0.204559 0.622141
O O3 0.000000 0.097460 0.750000
O O4 0.793263 0.052543 0.682725
O O5 0.173157 0.476764 0.240486
O O6 0.187616 0.756168 0.216231
O O7 0.006654 0.618041 0.131832
O O8 0.104201 0.579491 0.092879
O O9 0.892485 0.668723 0.999434
O O10 0.924341 0.413605 0.043252
O O11 0.304599 0.415146 0.944412
O O12 0.358440 0.679949 0.969301
O O13 0.330286 0.561832 0.870585
O O14 0.500000 0.500000 0.000000
O O15 0.250000 0.250000 0.000000
O O16 0.750000 0.750000 0.500000
O O17 0.752550 0.899809 0.586356
O O18 0.205367 0.772313 0.812183
#
# Coordination Sequence:
#
# PCOD9291356 Si02
#       8
#     8   8   8   8   8   8   8   8
#     4  12  26  44  69  97 142 187 233 292 354 426
#     4  11  22  43  65 100 135 178 235 278 361 418
#     4  11  23  43  73  98 133 186 232 290 349 423
#     4  11  24  40  68 105 138 175 236 292 345 415
#     4  12  24  44  71 104 139 186 234 292 364 422
#     4  11  23  41  65 101 139 172 225 287 353 410
#     4  10  22  42  66  97 136 176 225 297 341 419
#     4  10  23  45  69  96 137 183 240 286 349 421
#
# _framework density 20.886968
#
# number of rings (size 3 to 8) (size 9 to 14) (size 15 to 20)
#    0.000    1.000    2.500    5.625    1.750    1.000 
#    2.250    0.000    0.000    0.000    0.000    0.000 
#    0.000    0.000    0.000    0.000    0.000    0.000 
#
# Total GULP energy -178549.615975 kJ/mol
# GULP energy per Si atom -5579.675499 kJ/mol
# Density = 2.083943 g / cm^3
# Si number density = 20.886968 Si / 1000 Ang^3
#
#
#
# Elastic Constant Matrix: (Units=GPa)
#
#
# Indices 1 2 3 4 5 6 
#
# 1 76.7539 27.1946 31.7051 0.0000 -9.5696 0.0000
# 2 27.1946 122.5075 43.8832 0.0000 1.2730 0.0000
# 3 31.7051 43.8832 130.7787 0.0000 -14.0490 0.0000
# 4 0.0000 0.0000 0.0000 41.3514 0.0000 -6.8009
# 5 -9.5696 1.2730 -14.0490 0.0000 34.0795 0.0000
# 6 0.0000 0.0000 0.0000 -6.8009 0.0000 24.1742
#
#
#
# Elastic Compliance Matrix: (Units=1/GPa)
#
#
# Indices 1 2 3 4 5 6 
#
# 1 0.015392 -0.002552 -0.002512 0.000000 0.003382 0.000000
# 2 -0.002552 0.009797 -0.002914 0.000000 -0.002284 0.000000
# 3 -0.002512 -0.002914 0.009594 0.000000 0.003359 0.000000
# 4 0.000000 0.000000 0.000000 0.025356 0.000000 0.007133
# 5 0.003382 -0.002284 0.003359 0.000000 0.031763 0.000000
# 6 0.000000 0.000000 0.000000 0.007133 0.000000 0.043373
#
#
# Mechanical properties :
#
#
# Convention : Reuss Voigt Hill
#
# Bulk Modulus (GPa) = 53.11513 59.51178 56.31345
# Shear Modulus (GPa) = 31.74462 35.07148 33.40805
#
# Velocity S-wave (km/s) = 3.90273 4.10214 4.00367
# Velocity P-wave (km/s) = 6.76708 7.14079 6.95644
#
# Compressibility (1/GPa) = 0.01882703
#
# Stress axis : x y z
#
# Youngs Moduli (GPa) = 64.96812 102.07360 104.23113
#
# Poissons Ratio (x) = 0.26051 0.26181
# Poissons Ratio (y) = 0.16581 0.30373
# Poissons Ratio (z) = 0.16319 0.29744
#
# Static dielectric constant tensor:
#      x y z
#    x 1.875520 0.000000 0.012400 
#    y 0.000000 2.027860 0.000000 
#    z 0.012400 0.000000 1.821910 
# 
# From -- ./inp_files/315744.got.cif
#   From: 2010.05.17/outbox.cif.g08.bks.cpg/sg15_158_cif.got.tgz:315744.got - 2010.06.03 18:47:42.
