data_PCOD9291028
_publ_section_title
;
Structure prediction by ZEFSAII (Michael W. Deem and Ramdas Pophale) SiO2 
 PCOD9291028
Probable space group: C 2/C
;
_chemical_formula_sum "Si O2"
_cell_formula_units_Z 52
_cell_length_a 15.063695
_cell_length_b 6.081451
_cell_length_c 29.809514
_cell_angle_alpha 90.000000
_cell_angle_beta 121.219291
_cell_angle_gamma 90.000000
_cell_volume 2335.372338
_symmetry_space_group_name_H-M "C 2/C"
_symmetry_group_IT_number 15
_symmetry_cell_setting 'monoclinic'
loop_
_space_group_symop_operation_xyz
x,y,z
-x,y,1/2-z
-x,-y,-z
x,-y,1/2+z
1/2+x,1/2+y,z
1/2-x,1/2+y,1/2-z
1/2-x,1/2-y,-z
1/2+x,1/2-y,1/2+z
loop_
_atom_site_type_symbol
_atom_site_label
_atom_site_fract_x
_atom_site_fract_y
_atom_site_fract_z
Si Si1 0.155347 0.537891 0.663224
Si Si2 0.099086 0.224348 0.935447
Si Si3 0.915417 0.622308 0.444870
Si Si4 0.993499 0.771485 0.171454
Si Si5 0.854438 0.850924 0.761935
Si Si6 0.000000 0.489311 0.250000
Si Si7 0.232872 0.074141 0.533808
O O1 0.141112 0.541523 0.605649
O O2 0.056826 0.410917 0.659385
O O3 0.167402 0.766403 0.693187
O O4 0.253951 0.400197 0.706129
O O5 0.157231 0.445955 0.932671
O O6 0.989770 0.241059 0.931839
O O7 0.079183 0.101797 0.883038
O O8 0.164594 0.112127 0.991706
O O9 0.832641 0.787113 0.446525
O O10 0.000000 0.500000 0.500000
O O11 0.941775 0.641907 0.198567
O O12 0.075040 0.935665 0.214635
O O13 0.918746 0.663006 0.753911
O O14 0.250000 0.250000 0.500000
#
# Coordination Sequence:
#
# PCOD9291028 Si02
#       7
#     8   8   8   8   8   4   8
#     4  10  23  40  66  93 127 171 221 267 330 403
#     4  10  24  43  65  93 132 176 220 274 343 403
#     4  11  23  43  67  97 134 177 225 275 342 403
#     4  10  22  42  63  92 127 172 211 271 330 399
#     4  11  21  43  63  93 130 168 218 272 330 397
#     4  10  24  38  64  92 128 162 216 264 330 396
#     4  11  23  43  65  96 132 169 225 280 329 403
#
# _framework density 22.266257
#
# number of rings (size 3 to 8) (size 9 to 14) (size 15 to 20)
#    0.000    1.538    3.077    0.923    4.308    1.231 
#    2.769    0.000    0.000    0.000    0.000    0.000 
#    0.000    0.000    0.000    0.000    0.000    0.000 
#
# Total GULP energy -144794.832010 kJ/mol
# GULP energy per Si atom -5569.032000 kJ/mol
# Density = 2.221558 g / cm^3
# Si number density = 22.266257 Si / 1000 Ang^3
#
#
#
# Elastic Constant Matrix: (Units=GPa)
#
#
# Indices 1 2 3 4 5 6 
#
# 1 102.5389 23.9886 31.0710 0.0000 -10.1606 0.0000
# 2 23.9886 33.4310 12.6253 -0.0001 -10.2016 0.0001
# 3 31.0710 12.6253 129.4877 0.0000 -6.2584 0.0000
# 4 0.0000 -0.0001 0.0000 23.6134 0.0000 -3.0033
# 5 -10.1606 -10.2016 -6.2584 0.0000 26.4055 0.0000
# 6 0.0000 0.0001 0.0000 -3.0033 0.0000 29.5072
#
#
#
# Elastic Compliance Matrix: (Units=1/GPa)
#
#
# Indices 1 2 3 4 5 6 
#
# 1 0.012317 -0.007636 -0.002149 0.000000 0.001280 0.000000
# 2 -0.007636 0.039607 -0.001449 0.000000 0.012020 0.000000
# 3 -0.002149 -0.001449 0.008409 0.000000 0.000606 0.000000
# 4 0.000000 0.000000 0.000000 0.042904 0.000000 0.004367
# 5 0.001280 0.012020 0.000606 0.000000 0.043151 0.000000
# 6 0.000000 0.000000 0.000000 0.004367 0.000000 0.034335
#
#
# Mechanical properties :
#
#
# Convention : Reuss Voigt Hill
#
# Bulk Modulus (GPa) = 26.40926 44.53637 35.47282
# Shear Modulus (GPa) = 23.16844 29.09007 26.12926
#
# Velocity S-wave (km/s) = 3.22921 3.61843 3.42934
# Velocity P-wave (km/s) = 5.07840 6.12393 5.62550
#
# Compressibility (1/GPa) = 0.03786551
#
# Stress axis : x y z
#
# Youngs Moduli (GPa) = 81.18985 25.24835 118.92072
#
# Poissons Ratio (x) = 0.19279 0.25557
# Poissons Ratio (y) = 0.61995 0.17226
# Poissons Ratio (z) = 0.17448 0.03657
#
# Static dielectric constant tensor:
#      x y z
#    x 2.010150 0.000000 0.164120 
#    y 0.000000 1.780980 0.000000 
#    z 0.164120 0.000000 2.024220 
# 
# From -- ./inp_files/297847.got.cif
#   From: 2010.05.17/outbox.cif.g08.bks.cpg/sg15_149_cif.got.tgz:297847.got - 2010.06.03 18:47:42.
