data_PCOD9291002
_publ_section_title
;
Structure prediction by ZEFSAII (Michael W. Deem and Ramdas Pophale) SiO2 
 PCOD9291002
Probable space group: C 2/C
;
_chemical_formula_sum "Si O2"
_cell_formula_units_Z 40
_cell_length_a 23.273543
_cell_length_b 7.873593
_cell_length_c 17.074946
_cell_angle_alpha 90.000000
_cell_angle_beta 30.615972
_cell_angle_gamma 90.000000
_cell_volume 1593.501830
_symmetry_space_group_name_H-M "C 2/C"
_symmetry_group_IT_number 15
_symmetry_cell_setting 'monoclinic'
loop_
_space_group_symop_operation_xyz
x,y,z
-x,y,1/2-z
-x,-y,-z
x,-y,1/2+z
1/2+x,1/2+y,z
1/2-x,1/2+y,1/2-z
1/2-x,1/2-y,-z
1/2+x,1/2-y,1/2+z
loop_
_atom_site_type_symbol
_atom_site_label
_atom_site_fract_x
_atom_site_fract_y
_atom_site_fract_z
Si Si1 0.631470 0.650813 0.415155
Si Si2 0.939103 0.624354 0.738858
Si Si3 0.562728 0.506560 0.760647
Si Si4 0.305121 0.818324 0.838944
Si Si5 0.634165 0.966551 0.888925
O O1 0.524441 0.540929 0.565180
O O2 0.683388 0.692607 0.441671
O O3 0.617993 0.833919 0.391863
O O4 0.731427 0.554174 0.251755
O O5 0.043961 0.591237 0.557361
O O6 0.000000 0.603589 0.750000
O O7 0.840011 0.488607 0.843305
O O8 0.894393 0.815163 0.782626
O O9 0.500000 0.516892 0.750000
O O10 0.653906 0.655248 0.662724
O O11 0.376660 0.849350 0.674835
#
# Coordination Sequence:
#
# PCOD9291002 Si02
#       5
#     8   8   8   8   8
#     4  10  23  40  67  94 131 165 216 269 312 385
#     4  11  23  43  66  94 133 171 213 265 322 383
#     4  11  24  44  65  97 133 171 215 265 323 382
#     4  10  24  42  67  95 130 172 214 265 322 386
#     4  10  22  42  62  98 124 171 213 266 315 380
#
# _framework density 25.101948
#
# number of rings (size 3 to 8) (size 9 to 14) (size 15 to 20)
#    1.200    0.400    2.000    2.400    0.000    3.200 
#    0.000    2.000    0.000    0.000    0.000    0.000 
#    0.000    0.000    0.000    0.000    0.000    0.000 
#
# Total GULP energy -111806.951177 kJ/mol
# GULP energy per Si atom -5590.347559 kJ/mol
# Density = 2.504481 g / cm^3
# Si number density = 25.101948 Si / 1000 Ang^3
#
#
#
# Elastic Constant Matrix: (Units=GPa)
#
#
# Indices 1 2 3 4 5 6 
#
# 1 66.0169 26.2382 -4.7378 0.0009 12.1953 -0.0012
# 2 26.2382 138.9373 32.0366 0.0017 6.1500 -0.0032
# 3 -4.7378 32.0366 92.3229 0.0021 10.4957 -0.0012
# 4 0.0009 0.0017 0.0021 23.9743 -0.0008 8.6346
# 5 12.1953 6.1500 10.4957 -0.0008 35.3881 0.0004
# 6 -0.0012 -0.0032 -0.0012 8.6346 0.0004 33.5789
#
#
#
# Elastic Compliance Matrix: (Units=1/GPa)
#
#
# Indices 1 2 3 4 5 6 
#
# 1 0.018069 -0.003815 0.002984 -0.000001 -0.006449 0.000001
# 2 -0.003815 0.008640 -0.003283 0.000000 0.000787 0.000001
# 3 0.002984 -0.003283 0.012601 -0.000001 -0.004195 0.000001
# 4 -0.000001 0.000000 -0.000001 0.045969 0.000002 -0.011821
# 5 -0.006449 0.000787 -0.004195 0.000002 0.031588 -0.000001
# 6 0.000001 0.000001 0.000001 -0.011821 -0.000001 0.032820
#
#
# Mechanical properties :
#
#
# Convention : Reuss Voigt Hill
#
# Bulk Modulus (GPa) = 32.17277 44.92791 38.55034
# Shear Modulus (GPa) = 29.71298 34.83760 32.27529
#
# Velocity S-wave (km/s) = 3.44422 3.72942 3.58965
# Velocity P-wave (km/s) = 5.35364 6.04002 5.70716
#
# Compressibility (1/GPa) = 0.03108219
#
# Stress axis : x y z
#
# Youngs Moduli (GPa) = 55.34209 115.73750 79.35878
#
# Poissons Ratio (x) = 0.44155 -0.23683
# Poissons Ratio (y) = 0.21113 0.26057
# Poissons Ratio (z) = -0.16516 0.38002
#
# Static dielectric constant tensor:
#      x y z
#    x 2.080390 0.000000 -0.003120 
#    y 0.000000 1.917080 0.000000 
#    z -0.003120 0.000000 2.021560 
# 
# From -- ./inp_files/218103.got.cif
#   From: 2010.05.17/outbox.cif.g08.bks.cpg/sg15_110_cif.got.tgz:218103.got - 2010.06.03 18:47:42.
