data_PCOD9291844
_publ_section_title
;
Structure prediction by ZEFSAII (Michael W. Deem and Ramdas Pophale) SiO2 
 PCOD9291844
Probable space group: C 2/C
;
_chemical_formula_sum "Si O2"
_cell_formula_units_Z 52
_cell_length_a 12.205514
_cell_length_b 25.310854
_cell_length_c 8.738154
_cell_angle_alpha 90.000000
_cell_angle_beta 55.251361
_cell_angle_gamma 90.000000
_cell_volume 2218.068549
_symmetry_space_group_name_H-M "C 2/C"
_symmetry_group_IT_number 15
_symmetry_cell_setting 'monoclinic'
loop_
_space_group_symop_operation_xyz
x,y,z
-x,y,1/2-z
-x,-y,-z
x,-y,1/2+z
1/2+x,1/2+y,z
1/2-x,1/2+y,1/2-z
1/2-x,1/2-y,-z
1/2+x,1/2-y,1/2+z
loop_
_atom_site_type_symbol
_atom_site_label
_atom_site_fract_x
_atom_site_fract_y
_atom_site_fract_z
Si Si1 0.566001 0.947564 0.528097
Si Si2 0.411156 0.847851 0.558468
Si Si3 0.840833 0.013589 0.907013
Si Si4 0.500000 0.630405 0.250000
Si Si5 0.252867 0.692341 0.569235
Si Si6 0.137065 0.761104 0.217723
Si Si7 0.682257 0.574023 0.278423
O O1 0.500000 0.947392 0.750000
O O2 0.527456 0.891111 0.484193
O O3 0.726158 0.952300 0.413830
O O4 0.500000 0.000000 0.500000
O O5 0.371264 0.835947 0.414413
O O6 0.412527 0.792535 0.651597
O O7 0.287530 0.881269 0.728212
O O8 0.000000 0.020048 0.750000
O O9 0.795761 0.954257 0.901728
O O10 0.820403 0.028240 0.098037
O O11 0.376322 0.664830 0.391030
O O12 0.537294 0.597951 0.371222
O O13 0.250000 0.750000 0.500000
O O14 0.288956 0.701013 0.717644
O O15 0.000000 0.782528 0.250000
O O16 0.250000 0.750000 0.000000
#
# Coordination Sequence:
#
# PCOD9291844 Si02
#       7
#     8   8   8   4   8   8   8
#     4  12  23  44  73 102 149 205 253 310 376 445
#     4  10  22  47  71 103 144 200 246 300 374 457
#     4  12  24  42  67 102 147 194 255 305 369 421
#     4  10  22  42  72  98 142 188 246 302 386 438
#     4   9  22  44  76 100 140 193 245 306 378 464
#     4  11  26  47  77 109 149 188 244 315 394 453
#     4  11  23  41  71  96 144 194 244 306 361 435
#
# _framework density 23.443818
#
# number of rings (size 3 to 8) (size 9 to 14) (size 15 to 20)
#    0.000    1.231    3.846    0.923    6.462    0.000 
#    2.769    3.077    0.000    0.000    0.000    0.000 
#    0.000    0.000    0.000    0.000    0.000    0.000 
#
# Total GULP energy -144986.778803 kJ/mol
# GULP energy per Si atom -5576.414569 kJ/mol
# Density = 2.339046 g / cm^3
# Si number density = 23.443818 Si / 1000 Ang^3
#
#
#
# Elastic Constant Matrix: (Units=GPa)
#
#
# Indices 1 2 3 4 5 6 
#
# 1 164.8669 46.0552 53.1745 0.0000 -1.6304 0.0000
# 2 46.0552 94.8303 13.3735 0.0000 10.9981 0.0000
# 3 53.1745 13.3735 76.9247 0.0000 10.4735 0.0000
# 4 0.0000 0.0000 0.0000 8.9477 0.0000 11.7424
# 5 -1.6304 10.9981 10.4735 0.0000 42.1594 0.0000
# 6 0.0000 0.0000 0.0000 11.7424 0.0000 62.7593
#
#
#
# Elastic Compliance Matrix: (Units=1/GPa)
#
#
# Indices 1 2 3 4 5 6 
#
# 1 0.009130 -0.003918 -0.006021 0.000000 0.002871 0.000000
# 2 -0.003918 0.012739 0.001001 0.000000 -0.003723 0.000000
# 3 -0.006021 0.001001 0.017652 0.000000 -0.004879 0.000000
# 4 0.000000 0.000000 0.000000 0.148133 0.000000 -0.027716
# 5 0.002871 -0.003723 -0.004879 0.000000 0.026014 0.000000
# 6 0.000000 0.000000 0.000000 -0.027716 0.000000 0.021120
#
#
# Mechanical properties :
#
#
# Convention : Reuss Voigt Hill
#
# Bulk Modulus (GPa) = 46.20182 62.42538 54.31360
# Shear Modulus (GPa) = 19.23967 37.70787 28.47377
#
# Velocity S-wave (km/s) = 2.86784 4.01488 3.48883
# Velocity P-wave (km/s) = 5.54223 6.94102 6.28069
#
# Compressibility (1/GPa) = 0.02164417
#
# Stress axis : x y z
#
# Youngs Moduli (GPa) = 109.52419 78.50098 56.65012
#
# Poissons Ratio (x) = 0.30757 0.34110
# Poissons Ratio (y) = 0.42913 -0.05669
# Poissons Ratio (z) = 0.65946 -0.07855
#
# Static dielectric constant tensor:
#      x y z
#    x 1.997970 0.000000 0.050370 
#    y 0.000000 1.872580 0.000000 
#    z 0.050370 0.000000 1.841150 
# 
# From -- ./inp_files/34084.got.cif
#   From: 2010.05.17/outbox.cif.g08.bks.cpg/sg15_18_cif.got.tgz:34084.got - 2010.06.03 18:47:42.
