data_PCOD9291840
_publ_section_title
;
Structure prediction by ZEFSAII (Michael W. Deem and Ramdas Pophale) SiO2 
 PCOD9291840
Probable space group: C 2/C
;
_chemical_formula_sum "Si O2"
_cell_formula_units_Z 48
_cell_length_a 29.268539
_cell_length_b 14.052137
_cell_length_c 14.394840
_cell_angle_alpha 90.000000
_cell_angle_beta 156.106575
_cell_angle_gamma 90.000000
_cell_volume 2397.974739
_symmetry_space_group_name_H-M "C 2/C"
_symmetry_group_IT_number 15
_symmetry_cell_setting 'monoclinic'
loop_
_space_group_symop_operation_xyz
x,y,z
-x,y,1/2-z
-x,-y,-z
x,-y,1/2+z
1/2+x,1/2+y,z
1/2-x,1/2+y,1/2-z
1/2-x,1/2-y,-z
1/2+x,1/2-y,1/2+z
loop_
_atom_site_type_symbol
_atom_site_label
_atom_site_fract_x
_atom_site_fract_y
_atom_site_fract_z
Si Si1 0.270013 0.498513 0.199016
Si Si2 0.639462 0.205216 0.248459
Si Si3 0.046682 0.616661 0.240081
Si Si4 0.838333 0.504437 0.304751
Si Si5 0.471981 0.355354 0.589206
Si Si6 0.712437 0.640600 0.437835
O O1 0.231448 0.523810 0.231361
O O2 0.389577 0.445465 0.424647
O O3 0.273964 0.585566 0.134631
O O4 0.172700 0.423800 0.986763
O O5 0.750000 0.250000 0.500000
O O6 0.547835 0.192844 0.160057
O O7 0.662659 0.099012 0.257072
O O8 0.594245 0.266946 0.079289
O O9 0.000000 0.657029 0.250000
O O10 0.964969 0.528145 0.065173
O O11 0.786581 0.417450 0.150566
O O12 0.500000 0.341268 0.750000
O O13 0.585834 0.366399 0.741904
O O14 0.750000 0.750000 0.500000
#
# Coordination Sequence:
#
# PCOD9291840 Si02
#       6
#     8   8   8   8   8   8
#     4  11  24  46  69  98 138 186 226 285 350 412
#     4  12  24  44  71 104 139 180 233 286 349 415
#     4  10  22  42  72  96 135 176 230 283 342 404
#     4  11  24  43  72  99 136 179 229 289 346 411
#     4  12  26  45  72 101 145 181 232 288 353 422
#     4  12  26  44  71 104 138 179 235 289 349 419
#
# _framework density 20.016891999999999
#
# number of rings (size 3 to 8) (size 9 to 14) (size 15 to 20)
#    0.000    0.667    5.000    2.000    4.667    0.667 
#    3.000    0.000    0.000    0.000    0.000    0.000 
#    0.000    0.000    0.000    0.000    0.000    0.000 
#
# Total GULP energy -134202.603017 kJ/mol
# GULP energy per Si atom -5591.775126 kJ/mol
# Density = 1.997133 g / cm^3
# Si number density = 20.016892 Si / 1000 Ang^3
#
#
#
# Elastic Constant Matrix: (Units=GPa)
#
#
# Indices 1 2 3 4 5 6 
#
# 1 174.6586 68.0151 49.2763 0.0000 -13.2141 0.0000
# 2 68.0151 73.6711 33.7774 0.0000 -11.2988 0.0000
# 3 49.2763 33.7774 111.9611 0.0000 0.8342 0.0000
# 4 0.0000 0.0000 0.0000 27.8297 0.0000 -9.2359
# 5 -13.2141 -11.2988 0.8342 0.0000 36.1155 0.0000
# 6 0.0000 0.0000 0.0000 -9.2359 0.0000 16.0390
#
#
#
# Elastic Compliance Matrix: (Units=1/GPa)
#
#
# Indices 1 2 3 4 5 6 
#
# 1 0.009257 -0.007557 -0.001802 0.000000 0.001065 0.000000
# 2 -0.007557 0.022895 -0.003615 0.000000 0.004481 0.000000
# 3 -0.001802 -0.003615 0.010831 0.000000 -0.002040 0.000000
# 4 0.000000 0.000000 0.000000 0.044422 0.000000 0.025580
# 5 0.001065 0.004481 -0.002040 0.000000 0.029528 0.000000
# 6 0.000000 0.000000 0.000000 0.025580 0.000000 0.077078
#
#
# Mechanical properties :
#
#
# Convention : Reuss Voigt Hill
#
# Bulk Modulus (GPa) = 58.70216 73.60315 66.15265
# Shear Modulus (GPa) = 22.15943 29.94498 26.05220
#
# Velocity S-wave (km/s) = 3.33083 3.87199 3.61156
# Velocity P-wave (km/s) = 6.64699 7.53924 7.10713
#
# Compressibility (1/GPa) = 0.01703515
#
# Stress axis : x y z
#
# Youngs Moduli (GPa) = 108.02279 43.67728 92.33048
#
# Poissons Ratio (x) = 0.33007 0.16642
# Poissons Ratio (y) = 0.81632 0.33374
# Poissons Ratio (z) = 0.19470 0.15788
#
# Static dielectric constant tensor:
#      x y z
#    x 1.733030 0.000000 -0.025590 
#    y 0.000000 1.665860 0.000000 
#    z -0.025590 0.000000 1.727590 
# 
# From -- ./inp_files/182422.got.cif
#   From: 2010.05.17/outbox.cif.g08.bks.cpg/sg15_92_cif.got.tgz:182422.got - 2010.06.03 18:47:42.
