data_PCOD9291505
_publ_section_title
;
Structure prediction by ZEFSAII (Michael W. Deem and Ramdas Pophale) SiO2 
 PCOD9291505
Probable space group: C 2/C
;
_chemical_formula_sum "Si O2"
_cell_formula_units_Z 56
_cell_length_a 9.468379
_cell_length_b 21.849406
_cell_length_c 13.799361
_cell_angle_alpha 90.000000
_cell_angle_beta 71.406540
_cell_angle_gamma 90.000000
_cell_volume 2705.784181
_symmetry_space_group_name_H-M "C 2/C"
_symmetry_group_IT_number 15
_symmetry_cell_setting 'monoclinic'
loop_
_space_group_symop_operation_xyz
x,y,z
-x,y,1/2-z
-x,-y,-z
x,-y,1/2+z
1/2+x,1/2+y,z
1/2-x,1/2+y,1/2-z
1/2-x,1/2-y,-z
1/2+x,1/2-y,1/2+z
loop_
_atom_site_type_symbol
_atom_site_label
_atom_site_fract_x
_atom_site_fract_y
_atom_site_fract_z
Si Si1 0.643573 0.180212 0.463333
Si Si2 0.427401 0.112826 0.364023
Si Si3 0.328447 0.980049 0.042262
Si Si4 0.658405 0.417762 0.469766
Si Si5 0.842267 0.012596 0.732399
Si Si6 0.628832 0.622213 0.364819
Si Si7 0.445522 0.740072 0.355728
O O1 0.554721 0.143358 0.401209
O O2 0.731536 0.137098 0.521474
O O3 0.534632 0.222289 0.550214
O O4 0.771761 0.222192 0.389186
O O5 0.500000 0.084890 0.250000
O O6 0.333656 0.070424 0.457678
O O7 0.288673 0.151846 0.354996
O O8 0.283754 0.968404 0.162530
O O9 0.500000 0.000000 0.000000
O O10 0.209077 0.030130 0.034237
O O11 0.675030 0.447086 0.360580
O O12 0.487666 0.399321 0.526557
O O13 0.840868 0.939828 0.704476
O O14 0.000000 0.024559 0.750000
O O15 0.536457 0.676986 0.337845
O O16 0.500000 0.776025 0.250000
#
# Coordination Sequence:
#
# PCOD9291505 Si02
#       7
#     8   8   8   8   8   8   8
#     4  10  24  43  63  95 126 166 221 267 324 387
#     4  12  24  40  64  96 132 168 214 271 328 390
#     4  12  24  37  60  95 132 168 210 261 323 389
#     4  11  23  41  63  91 132 171 212 260 322 400
#     4  12  23  38  63  94 132 172 215 260 322 396
#     4  11  22  39  66  92 126 171 218 262 320 388
#     4  10  22  42  68  89 121 169 219 270 320 381
#
# _framework density 20.696403
#
# number of rings (size 3 to 8) (size 9 to 14) (size 15 to 20)
#    0.000    0.857    4.286    3.429    2.000    1.714 
#    0.000    0.000    0.000    6.000    0.000    0.000 
#    0.000    0.000    0.000    0.000    0.000    0.000 
#
# Total GULP energy -156141.223548 kJ/mol
# GULP energy per Si atom -5576.472270 kJ/mol
# Density = 2.064930 g / cm^3
# Si number density = 20.696403 Si / 1000 Ang^3
#
#
#
# Elastic Constant Matrix: (Units=GPa)
#
#
# Indices 1 2 3 4 5 6 
#
# 1 104.3688 8.3554 33.0696 0.0000 1.0378 0.0000
# 2 8.3554 47.5315 32.4683 0.0000 10.0395 0.0000
# 3 33.0696 32.4683 159.7616 0.0000 6.2761 0.0000
# 4 0.0000 0.0000 0.0000 6.2829 0.0000 10.4264
# 5 1.0378 10.0395 6.2761 0.0000 26.9582 0.0000
# 6 0.0000 0.0000 0.0000 10.4264 0.0000 -4.3380
#
#
#
# Elastic Compliance Matrix: (Units=1/GPa)
#
#
# Indices 1 2 3 4 5 6 
#
# 1 0.010262 -0.000464 -0.002040 0.000000 0.000253 0.000000
# 2 -0.000464 0.026297 -0.004909 0.000000 -0.008632 0.000000
# 3 -0.002040 -0.004909 0.007675 0.000000 0.000120 0.000000
# 4 0.000000 0.000000 0.000000 0.031905 0.000000 0.076684
# 5 0.000253 -0.008632 0.000120 0.000000 0.040272 0.000000
# 6 0.000000 0.000000 0.000000 0.076684 0.000000 -0.046210
#
#
# Mechanical properties :
#
#
# Convention : Reuss Voigt Hill
#
# Bulk Modulus (GPa) = 34.00444 51.04984 42.52714
# Shear Modulus (GPa) = 52.72618 21.63187 37.17903
#
# Velocity S-wave (km/s) = 5.05285 3.23646 4.24299
# Velocity P-wave (km/s) = 7.10687 6.21979 6.67808
#
# Compressibility (1/GPa) = 0.02940792
#
# Stress axis : x y z
#
# Youngs Moduli (GPa) = 97.44327 38.02720 130.30091
#
# Poissons Ratio (x) = 0.01764 0.26580
# Poissons Ratio (y) = 0.04521 0.63967
# Poissons Ratio (z) = 0.19877 0.18668
#
# Static dielectric constant tensor:
#      x y z
#    x 1.815480 0.000000 0.013630 
#    y 0.000000 1.795630 0.000000 
#    z 0.013630 0.000000 1.698080 
# 
# From -- ./inp_files/81258.got.cif
#   From: 2010.05.17/outbox.cif.g08.bks.cpg/sg15_41_cif.got.tgz:81258.got - 2010.06.03 18:47:42.
