data_PCOD9291948
_publ_section_title
;
Structure prediction by ZEFSAII (Michael W. Deem and Ramdas Pophale) SiO2 
 PCOD9291948
Probable space group: C 2/C
;
_chemical_formula_sum "Si O2"
_cell_formula_units_Z 56
_cell_length_a 14.426199
_cell_length_b 12.328629
_cell_length_c 28.001836
_cell_angle_alpha 90.000000
_cell_angle_beta 28.545734
_cell_angle_gamma 90.000000
_cell_volume 2379.874024
_symmetry_space_group_name_H-M "C 2/C"
_symmetry_group_IT_number 15
_symmetry_cell_setting 'monoclinic'
loop_
_space_group_symop_operation_xyz
x,y,z
-x,y,1/2-z
-x,-y,-z
x,-y,1/2+z
1/2+x,1/2+y,z
1/2-x,1/2+y,1/2-z
1/2-x,1/2-y,-z
1/2+x,1/2-y,1/2+z
loop_
_atom_site_type_symbol
_atom_site_label
_atom_site_fract_x
_atom_site_fract_y
_atom_site_fract_z
Si Si1 0.502465 0.109446 0.030457
Si Si2 0.345022 0.419129 0.742723
Si Si3 0.842818 0.281692 0.195653
Si Si4 0.966971 0.188890 0.485555
Si Si5 0.457724 0.357769 0.323739
Si Si6 0.357497 0.008032 0.746850
Si Si7 0.748827 0.511667 0.400708
O O1 0.405833 0.211303 0.046676
O O2 0.727564 0.142409 0.938361
O O3 0.363460 0.083647 0.137579
O O4 0.500000 0.000000 0.000000
O O5 0.411188 0.296265 0.707971
O O6 0.475346 0.515098 0.703724
O O7 0.309442 0.441204 0.702661
O O8 0.942343 0.249884 0.100973
O O9 0.610023 0.294859 0.289429
O O10 0.896086 0.398254 0.191908
O O11 0.821905 0.091443 0.536906
O O12 0.113625 0.113430 0.450570
O O13 0.500000 0.321540 0.250000
O O14 0.553606 0.943748 0.667160
O O15 0.288893 0.041095 0.830349
#
# Coordination Sequence:
#
# PCOD9291948 Si02
#       7
#     8   8   8   8   8   8   8
#     4  12  24  42  69 100 131 177 229 273 331 408
#     4  11  24  41  65 101 133 165 226 280 323 395
#     4  11  23  41  67  96 134 170 221 277 330 384
#     4  11  23  41  68  96 131 179 228 270 332 410
#     4  11  23  44  68  93 131 178 213 269 341 392
#     4  10  22  43  63  95 132 176 221 280 333 395
#     4  10  23  42  67  92 133 182 223 268 344 405
#
# _framework density 23.530657999999999
#
# number of rings (size 3 to 8) (size 9 to 14) (size 15 to 20)
#    0.000    1.143    4.286    1.714    2.000    3.429 
#    5.143    0.000    0.000    0.000    0.000    0.000 
#    0.000    0.000    0.000    0.000    0.000    0.000 
#
# Total GULP energy -156151.856856 kJ/mol
# GULP energy per Si atom -5576.852031 kJ/mol
# Density = 2.347710 g / cm^3
# Si number density = 23.530658 Si / 1000 Ang^3
#
#
#
# Elastic Constant Matrix: (Units=GPa)
#
#
# Indices 1 2 3 4 5 6 
#
# 1 49.0731 2.4178 1.6480 0.0010 -2.4157 -0.0002
# 2 2.4178 104.2768 -0.7264 0.0004 19.1656 -0.0004
# 3 1.6480 -0.7264 55.4567 0.0042 3.3554 0.0012
# 4 0.0010 0.0004 0.0042 33.8647 0.0002 13.2941
# 5 -2.4157 19.1656 3.3554 0.0002 27.9619 0.0004
# 6 -0.0002 -0.0004 0.0012 13.2941 0.0004 18.9360
#
#
#
# Elastic Compliance Matrix: (Units=1/GPa)
#
#
# Indices 1 2 3 4 5 6 
#
# 1 0.020574 -0.000945 -0.000776 -0.000001 0.002519 0.000001
# 2 -0.000945 0.011036 0.000640 0.000000 -0.007722 0.000001
# 3 -0.000776 0.000640 0.018226 -0.000003 -0.002693 0.000001
# 4 -0.000001 0.000000 -0.000003 0.040764 0.000001 -0.028619
# 5 0.002519 -0.007722 -0.002693 0.000001 0.041597 -0.000001
# 6 0.000001 0.000001 0.000001 -0.028619 -0.000001 0.072901
#
#
# Mechanical properties :
#
#
# Convention : Reuss Voigt Hill
#
# Bulk Modulus (GPa) = 20.97613 23.94279 22.45946
# Shear Modulus (GPa) = 22.40617 29.85032 26.12824
#
# Velocity S-wave (km/s) = 3.08914 3.56556 3.33587
# Velocity P-wave (km/s) = 4.65376 5.21040 4.93992
#
# Compressibility (1/GPa) = 0.04767323
#
# Stress axis : x y z
#
# Youngs Moduli (GPa) = 48.60413 90.61591 54.86525
#
# Poissons Ratio (x) = 0.08566 0.04258
# Poissons Ratio (y) = 0.04595 -0.03511
# Poissons Ratio (z) = 0.03772 -0.05798
#
# Static dielectric constant tensor:
#      x y z
#    x 1.888990 0.000000 -0.043950 
#    y 0.000000 1.944190 0.000000 
#    z -0.043950 0.000000 1.949050 
# 
# From -- ./inp_files/313738.got.cif
#   From: 2010.05.17/outbox.cif.g08.bks.cpg/sg15_157_cif.got.tgz:313738.got - 2010.06.03 18:47:42.
