data_PCOD9291044
_publ_section_title
;
Structure prediction by ZEFSAII (Michael W. Deem and Ramdas Pophale) SiO2 
 PCOD9291044
Probable space group: C 2/C
;
_chemical_formula_sum "Si O2"
_cell_formula_units_Z 40
_cell_length_a 10.435864
_cell_length_b 11.751347
_cell_length_c 14.064899
_cell_angle_alpha 90.000000
_cell_angle_beta 98.167705
_cell_angle_gamma 90.000000
_cell_volume 1707.359219
_symmetry_space_group_name_H-M "C 2/C"
_symmetry_group_IT_number 15
_symmetry_cell_setting 'monoclinic'
loop_
_space_group_symop_operation_xyz
x,y,z
-x,y,1/2-z
-x,-y,-z
x,-y,1/2+z
1/2+x,1/2+y,z
1/2-x,1/2+y,1/2-z
1/2-x,1/2-y,-z
1/2+x,1/2-y,1/2+z
loop_
_atom_site_type_symbol
_atom_site_label
_atom_site_fract_x
_atom_site_fract_y
_atom_site_fract_z
Si Si1 0.156556 0.476536 0.300394
Si Si2 0.166418 0.670509 0.618645
Si Si3 0.125415 0.888256 0.724530
Si Si4 0.730263 0.254766 0.109380
Si Si5 0.568524 0.198440 0.396513
O O1 0.145064 0.434084 0.189034
O O2 0.299267 0.525559 0.331623
O O3 0.170993 0.356874 0.353295
O O4 0.076729 0.582160 0.335187
O O5 0.094922 0.777083 0.660423
O O6 0.317527 0.714272 0.627527
O O7 0.111276 0.659580 0.507195
O O8 0.215360 0.848220 0.820859
O O9 0.000000 0.945956 0.750000
O O10 0.575220 0.253664 0.116742
O O11 0.750000 0.250000 0.000000
#
# Coordination Sequence:
#
# PCOD9291044 Si02
#       5
#     8   8   8   8   8
#     4  10  24  41  71 100 133 187 231 286 358 418
#     4   9  21  43  66 101 141 179 225 296 350 416
#     4  10  22  42  63  97 134 177 228 282 352 417
#     4  11  25  44  66 104 139 182 239 295 349 427
#     4  10  22  45  70 101 142 186 236 292 356 428
#
# _framework density 23.427994999999999
#
# number of rings (size 3 to 8) (size 9 to 14) (size 15 to 20)
#    0.000    2.000    0.000    1.200    5.600    7.200 
#   18.000    4.000    0.000    0.000    0.000    0.000 
#    0.000    0.000    0.000    0.000    0.000    0.000 
#
# Total GULP energy -111483.747312 kJ/mol
# GULP energy per Si atom -5574.187366 kJ/mol
# Density = 2.337467 g / cm^3
# Si number density = 23.427995 Si / 1000 Ang^3
#
#
#
# Elastic Constant Matrix: (Units=GPa)
#
#
# Indices 1 2 3 4 5 6 
#
# 1 112.1210 -14.2530 12.1800 0.0000 9.4013 0.0000
# 2 -14.2530 35.0962 20.1686 0.0000 10.7292 0.0000
# 3 12.1800 20.1686 152.7650 0.0000 6.0251 0.0000
# 4 0.0000 0.0000 0.0000 11.9843 0.0000 -14.0954
# 5 9.4013 10.7292 6.0251 0.0000 28.3799 0.0000
# 6 0.0000 0.0000 0.0000 -14.0954 0.0000 11.5467
#
#
#
# Elastic Compliance Matrix: (Units=1/GPa)
#
#
# Indices 1 2 3 4 5 6 
#
# 1 0.010435 0.006858 -0.001511 0.000000 -0.005729 0.000000
# 2 0.006858 0.039076 -0.005076 0.000000 -0.015967 0.000000
# 3 -0.001511 -0.005076 0.007302 0.000000 0.000869 0.000000
# 4 0.000000 0.000000 0.000000 -0.191487 0.000000 -0.233753
# 5 -0.005729 -0.015967 0.000869 0.000000 0.042986 0.000000
# 6 0.000000 0.000000 0.000000 -0.233753 0.000000 -0.198744
#
#
# Mechanical properties :
#
#
# Convention : Reuss Voigt Hill
#
# Bulk Modulus (GPa) = 17.43539 37.35260 27.39399
# Shear Modulus (GPa) = -18.39228 29.17463 5.39117
#
# Velocity S-wave (km/s) = -2.80492 3.53269 1.51861
# Velocity P-wave (km/s) = 1.74122 5.71122 3.84618
#
# Compressibility (1/GPa) = 0.05735462
#
# Stress axis : x y z
#
# Youngs Moduli (GPa) = 95.82919 25.59083 136.94172
#
# Poissons Ratio (x) = -0.17550 0.20698
# Poissons Ratio (y) = -0.65717 0.69512
# Poissons Ratio (z) = 0.14484 0.12990
#
# Static dielectric constant tensor:
#      x y z
#    x 1.525230 0.000000 -0.654590 
#    y 0.000000 1.889440 0.000000 
#    z -0.654590 0.000000 0.982560 
# 
# From -- ./inp_files/141898.got.cif
#   From: 2010.05.17/outbox.cif.g08.bks.cpg/sg15_71_cif.got.tgz:141898.got - 2010.06.03 18:47:42.
