data_PCOD9291565
_publ_section_title
;
Structure prediction by ZEFSAII (Michael W. Deem and Ramdas Pophale) SiO2 
 PCOD9291565
Probable space group: C 2/C
;
_chemical_formula_sum "Si O2"
_cell_formula_units_Z 56
_cell_length_a 12.580990
_cell_length_b 13.803159
_cell_length_c 32.916955
_cell_angle_alpha 90.000000
_cell_angle_beta 25.778913
_cell_angle_gamma 90.000000
_cell_volume 2486.005519
_symmetry_space_group_name_H-M "C 2/C"
_symmetry_group_IT_number 15
_symmetry_cell_setting 'monoclinic'
loop_
_space_group_symop_operation_xyz
x,y,z
-x,y,1/2-z
-x,-y,-z
x,-y,1/2+z
1/2+x,1/2+y,z
1/2-x,1/2+y,1/2-z
1/2-x,1/2-y,-z
1/2+x,1/2-y,1/2+z
loop_
_atom_site_type_symbol
_atom_site_label
_atom_site_fract_x
_atom_site_fract_y
_atom_site_fract_z
Si Si1 0.713316 0.338173 0.264369
Si Si2 0.948706 0.203522 0.402233
Si Si3 0.136981 0.521986 0.493685
Si Si4 0.392925 0.165195 0.388900
Si Si5 0.749958 0.431495 0.856220
Si Si6 0.760247 0.015980 0.304645
Si Si7 0.483876 0.386105 0.420555
O O1 0.491103 0.262943 0.334939
O O2 0.684770 0.439384 0.250395
O O3 0.703950 0.349461 0.316530
O O4 0.942704 0.280954 0.166468
O O5 0.750000 0.250000 0.500000
O O6 0.816291 0.112780 0.426679
O O7 0.152785 0.156035 0.361379
O O8 0.293205 0.429858 0.453865
O O9 0.000000 0.500000 0.500000
O O10 0.937542 0.536283 0.597871
O O11 0.300038 0.099083 0.384507
O O12 0.167126 0.181409 0.497214
O O13 0.615916 0.108565 0.335145
O O14 0.563657 0.519732 0.918080
O O15 0.000000 0.464985 0.750000
O O16 0.000000 0.037215 0.250000
#
# Coordination Sequence:
#
# PCOD9291565 Si02
#       7
#     8   8   8   8   8   8   8
#     4  12  24  42  73 101 141 178 241 285 348 415
#     4  11  24  43  67 108 137 179 239 290 343 419
#     4  10  22  42  68  97 139 180 230 288 348 410
#     4  11  25  46  72 102 144 186 232 288 352 423
#     4  11  22  43  74 100 137 185 236 288 349 418
#     4  11  25  43  72 104 138 187 235 288 352 412
#     4  10  24  44  67 101 139 183 229 288 354 411
#
# _framework density 22.526095999999999
#
# number of rings (size 3 to 8) (size 9 to 14) (size 15 to 20)
#    0.000    1.143    2.857    2.571    6.000    1.143 
#    2.571    2.143    0.000    0.000    0.000    0.000 
#    0.000    0.000    0.000    0.000    0.000    0.000 
#
# Total GULP energy -156527.015209 kJ/mol
# GULP energy per Si atom -5590.250543 kJ/mol
# Density = 2.247483 g / cm^3
# Si number density = 22.526096 Si / 1000 Ang^3
#
#
#
# Elastic Constant Matrix: (Units=GPa)
#
#
# Indices 1 2 3 4 5 6 
#
# 1 100.2913 19.4203 19.0826 -0.0888 -3.9977 0.0457
# 2 19.4203 58.9038 29.5876 -0.0085 4.4699 -0.0050
# 3 19.0826 29.5876 123.3138 0.2293 29.9450 -0.1117
# 4 -0.0888 -0.0085 0.2293 15.6161 -0.0175 25.1251
# 5 -3.9977 4.4699 29.9450 -0.0175 35.8339 -0.0319
# 6 0.0457 -0.0050 -0.1117 25.1251 -0.0319 -5.0809
#
#
#
# Elastic Compliance Matrix: (Units=1/GPa)
#
#
# Indices 1 2 3 4 5 6 
#
# 1 0.010999 -0.002992 -0.001722 -0.000012 0.003040 0.000063
# 2 -0.002992 0.020214 -0.004634 -0.000002 0.001017 0.000040
# 3 -0.001722 -0.004634 0.011786 0.000016 -0.009463 -0.000132
# 4 -0.000012 -0.000002 0.000016 0.007150 0.000021 0.035357
# 5 0.003040 0.001017 -0.009463 0.000021 0.036027 0.000110
# 6 0.000063 0.000040 -0.000132 0.035357 0.000110 -0.021974
#
#
# Mechanical properties :
#
#
# Convention : Reuss Voigt Hill
#
# Bulk Modulus (GPa) = 41.14878 46.52108 43.83493
# Shear Modulus (GPa) = 54.94597 23.56838 39.25717
#
# Velocity S-wave (km/s) = 4.94420 3.23812 4.17915
# Velocity P-wave (km/s) = 7.13444 5.88876 6.54132
#
# Compressibility (1/GPa) = 0.02430206
#
# Stress axis : x y z
#
# Youngs Moduli (GPa) = 90.91639 49.47128 84.84955
#
# Poissons Ratio (x) = 0.14801 0.14613
# Poissons Ratio (y) = 0.27201 0.39319
# Poissons Ratio (z) = 0.15658 0.22925
#
# Static dielectric constant tensor:
#      x y z
#    x 2.080310 0.000270 0.089370 
#    y 0.000270 1.823270 0.000060 
#    z 0.089370 0.000060 1.922050 
# 
# From -- ./inp_files/311315.got.cif
#   From: 2010.05.17/outbox.cif.g08.bks.cpg/sg15_156_cif.got.tgz:311315.got - 2010.06.03 18:47:42.
