data_PCOD9291621
_publ_section_title
;
Structure prediction by ZEFSAII (Michael W. Deem and Ramdas Pophale) SiO2 
 PCOD9291621
Probable space group: C 2/C
;
_chemical_formula_sum "Si O2"
_cell_formula_units_Z 40
_cell_length_a 22.292465
_cell_length_b 14.669877
_cell_length_c 13.780267
_cell_angle_alpha 90.000000
_cell_angle_beta 20.854477
_cell_angle_gamma 90.000000
_cell_volume 1604.304765
_symmetry_space_group_name_H-M "C 2/C"
_symmetry_group_IT_number 15
_symmetry_cell_setting 'monoclinic'
loop_
_space_group_symop_operation_xyz
x,y,z
-x,y,1/2-z
-x,-y,-z
x,-y,1/2+z
1/2+x,1/2+y,z
1/2-x,1/2+y,1/2-z
1/2-x,1/2-y,-z
1/2+x,1/2-y,1/2+z
loop_
_atom_site_type_symbol
_atom_site_label
_atom_site_fract_x
_atom_site_fract_y
_atom_site_fract_z
Si Si1 0.632323 0.543712 0.179727
Si Si2 0.034101 0.396013 0.301583
Si Si3 0.280943 0.514510 0.676667
Si Si4 0.831752 0.292671 0.067105
Si Si5 0.960528 0.230301 0.072613
O O1 0.460404 0.486590 0.454052
O O2 0.583729 0.642706 0.295431
O O3 0.819051 0.529025 0.940569
O O4 0.672369 0.535880 0.005031
O O5 0.000000 0.349958 0.250000
O O6 0.866693 0.442003 0.594465
O O7 0.092709 0.320410 0.288253
O O8 0.210364 0.606160 0.831329
O O9 0.000000 0.290573 0.750000
O O10 0.870286 0.233131 0.105232
O O11 0.664601 0.263752 0.260867
#
# Coordination Sequence:
#
# PCOD9291621 Si02
#       5
#     8   8   8   8   8
#     4  10  22  42  69  91 135 177 221 277 336 396
#     4  12  24  39  67 103 134 174 229 282 331 405
#     4  10  23  42  65  96 133 178 216 276 349 394
#     4  11  23  43  65  94 137 178 222 280 345 400
#     4  11  24  41  71 100 131 178 236 275 333 406
#
# _framework density 24.932918999999998
#
# number of rings (size 3 to 8) (size 9 to 14) (size 15 to 20)
#    0.000    1.200    2.000    3.600    5.600    0.800 
#    3.600    2.000    0.000    0.000    0.000    0.000 
#    0.000    0.000    0.000    0.000    0.000    0.000 
#
# Total GULP energy -111913.278196 kJ/mol
# GULP energy per Si atom -5595.663910 kJ/mol
# Density = 2.487617 g / cm^3
# Si number density = 24.932919 Si / 1000 Ang^3
#
#
#
# Elastic Constant Matrix: (Units=GPa)
#
#
# Indices 1 2 3 4 5 6 
#
# 1 94.1109 9.8556 31.6157 -0.0002 -0.3781 0.0001
# 2 9.8556 73.2509 38.4822 -0.0003 8.6263 0.0002
# 3 31.6157 38.4822 215.8066 -0.0002 -14.9121 0.0001
# 4 -0.0002 -0.0003 -0.0002 44.2932 0.0002 -4.2148
# 5 -0.3781 8.6263 -14.9121 0.0002 40.2803 -0.0001
# 6 0.0001 0.0002 0.0001 -4.2148 -0.0001 27.6743
#
#
#
# Elastic Compliance Matrix: (Units=1/GPa)
#
#
# Indices 1 2 3 4 5 6 
#
# 1 0.011213 -0.000657 -0.001548 0.000000 -0.000327 0.000000
# 2 -0.000657 0.015875 -0.003048 0.000000 -0.004534 0.000000
# 3 -0.001548 -0.003048 0.005591 0.000000 0.002708 0.000000
# 4 0.000000 0.000000 0.000000 0.022909 0.000000 0.003489
# 5 -0.000327 -0.004534 0.002708 0.000000 0.026797 0.000000
# 6 0.000000 0.000000 0.000000 0.003489 0.000000 0.036666
#
#
# Mechanical properties :
#
#
# Convention : Reuss Voigt Hill
#
# Bulk Modulus (GPa) = 45.09813 60.34172 52.71993
# Shear Modulus (GPa) = 36.51005 42.66388 39.58696
#
# Velocity S-wave (km/s) = 3.83081 4.14109 3.98897
# Velocity P-wave (km/s) = 6.13953 6.86433 6.51202
#
# Compressibility (1/GPa) = 0.02217387
#
# Stress axis : x y z
#
# Youngs Moduli (GPa) = 89.17938 62.99098 178.85148
#
# Poissons Ratio (x) = 0.04137 0.27691
# Poissons Ratio (y) = 0.05857 0.54513
# Poissons Ratio (z) = 0.13807 0.19199
#
# Static dielectric constant tensor:
#      x y z
#    x 2.010960 0.000000 -0.069720 
#    y 0.000000 1.930300 0.000000 
#    z -0.069720 0.000000 2.015450 
# 
# From -- ./inp_files/174048.got.cif
#   From: 2010.05.17/outbox.cif.g08.bks.cpg/sg15_88_cif.got.tgz:174048.got - 2010.06.03 18:47:42.
