data_PCOD9291308
_publ_section_title
;
Structure prediction by ZEFSAII (Michael W. Deem and Ramdas Pophale) SiO2 
 PCOD9291308
Probable space group: C 2/C
;
_chemical_formula_sum "Si O2"
_cell_formula_units_Z 64
_cell_length_a 12.161526
_cell_length_b 14.903185
_cell_length_c 15.542043
_cell_angle_alpha 90.000000
_cell_angle_beta 97.736117
_cell_angle_gamma 90.000000
_cell_volume 2791.286797
_symmetry_space_group_name_H-M "C 2/C"
_symmetry_group_IT_number 15
_symmetry_cell_setting 'monoclinic'
loop_
_space_group_symop_operation_xyz
x,y,z
-x,y,1/2-z
-x,-y,-z
x,-y,1/2+z
1/2+x,1/2+y,z
1/2-x,1/2+y,1/2-z
1/2-x,1/2-y,-z
1/2+x,1/2-y,1/2+z
loop_
_atom_site_type_symbol
_atom_site_label
_atom_site_fract_x
_atom_site_fract_y
_atom_site_fract_z
Si Si1 0.573532 0.876479 0.587759
Si Si2 0.571388 0.196325 0.893835
Si Si3 0.922567 0.502978 0.659531
Si Si4 0.986442 0.948611 0.145318
Si Si5 0.339876 0.755364 0.408149
Si Si6 0.330772 0.613292 0.155290
Si Si7 0.821497 0.067796 0.352267
Si Si8 0.599392 0.256186 0.396398
O O1 0.583034 0.827608 0.496287
O O2 0.699186 0.895772 0.627733
O O3 0.502738 0.807262 0.640047
O O4 0.498602 0.965803 0.589641
O O5 0.610969 0.106877 0.851357
O O6 0.438903 0.203747 0.863643
O O7 0.627602 0.290020 0.874058
O O8 0.808347 0.449162 0.652931
O O9 0.000000 0.490595 0.750000
O O10 0.000000 0.935272 0.250000
O O11 0.947944 0.855560 0.102421
O O12 0.104919 0.981004 0.123003
O O13 0.899696 0.030347 0.122152
O O14 0.358262 0.649178 0.415138
O O15 0.357170 0.786713 0.508342
O O16 0.216108 0.766855 0.358762
O O17 0.349964 0.602290 0.259295
#
# Coordination Sequence:
#
# PCOD9291308 Si02
#       8
#     8   8   8   8   8   8   8   8
#     4  11  24  46  64  99 136 172 222 280 329 393
#     4  11  26  43  70  95 133 179 223 268 339 400
#     4  12  26  43  66 101 131 179 221 273 332 397
#     4  10  24  41  65  95 130 175 225 273 331 393
#     4  10  22  42  66  94 130 172 220 271 328 397
#     4  11  24  44  66  96 135 173 220 284 328 393
#     4  11  23  44  64  93 135 168 219 280 329 386
#     4  10  23  41  66  97 129 175 219 268 340 392
#
# _framework density 22.928491999999999
#
# number of rings (size 3 to 8) (size 9 to 14) (size 15 to 20)
#    0.000    1.250    3.750    0.750    5.250    3.000 
#    0.000    0.000    0.000    0.000    0.000    0.000 
#    0.000    0.000    0.000    0.000    0.000    0.000 
#
# Total GULP energy -178728.904571 kJ/mol
# GULP energy per Si atom -5585.278268 kJ/mol
# Density = 2.287631 g / cm^3
# Si number density = 22.928492 Si / 1000 Ang^3
#
#
#
# Elastic Constant Matrix: (Units=GPa)
#
#
# Indices 1 2 3 4 5 6 
#
# 1 111.8783 7.3224 9.6473 0.0000 2.9565 0.0000
# 2 7.3224 91.6041 12.8150 0.0000 4.6111 0.0000
# 3 9.6473 12.8150 42.9283 0.0000 -1.4188 0.0000
# 4 0.0000 0.0000 0.0000 16.7177 0.0000 2.2648
# 5 2.9565 4.6111 -1.4188 0.0000 18.2517 0.0000
# 6 0.0000 0.0000 0.0000 2.2648 0.0000 34.4158
#
#
#
# Elastic Compliance Matrix: (Units=1/GPa)
#
#
# Indices 1 2 3 4 5 6 
#
# 1 0.009176 -0.000376 -0.002001 0.000000 -0.001547 0.000000
# 2 -0.000376 0.011591 -0.003480 0.000000 -0.003138 0.000000
# 3 -0.002001 -0.003480 0.024887 0.000000 0.003138 0.000000
# 4 0.000000 0.000000 0.000000 0.060355 0.000000 -0.003972
# 5 -0.001547 -0.003138 0.003138 0.000000 0.056077 0.000000
# 6 0.000000 0.000000 0.000000 -0.003972 0.000000 0.029318
#
#
# Mechanical properties :
#
#
# Convention : Reuss Voigt Hill
#
# Bulk Modulus (GPa) = 29.46233 33.99778 31.73005
# Shear Modulus (GPa) = 23.31758 28.31877 25.81817
#
# Velocity S-wave (km/s) = 3.19246 3.51820 3.35928
# Velocity P-wave (km/s) = 5.14457 5.60032 5.37727
#
# Compressibility (1/GPa) = 0.03394165
#
# Stress axis : x y z
#
# Youngs Moduli (GPa) = 108.97619 86.27151 40.18195
#
# Poissons Ratio (x) = 0.03241 0.08041
# Poissons Ratio (y) = 0.04094 0.13981
# Poissons Ratio (z) = 0.21808 0.30018
#
# Static dielectric constant tensor:
#      x y z
#    x 1.867160 0.000000 -0.035090 
#    y 0.000000 1.831630 0.000000 
#    z -0.035090 0.000000 1.922540 
# 
# From -- ./inp_files/198351.got.cif
#   From: 2010.05.17/outbox.cif.g08.bks.cpg/sg15_100_cif.got.tgz:198351.got - 2010.06.03 18:47:42.
