data_PCOD9291349
_publ_section_title
;
Structure prediction by ZEFSAII (Michael W. Deem and Ramdas Pophale) SiO2 
 PCOD9291349
Probable space group: C 2/C
;
_chemical_formula_sum "Si O2"
_cell_formula_units_Z 36
_cell_length_a 18.210448
_cell_length_b 19.158404
_cell_length_c 5.023945
_cell_angle_alpha 90.000000
_cell_angle_beta 99.685104
_cell_angle_gamma 90.000000
_cell_volume 1727.787801
_symmetry_space_group_name_H-M "C 2/C"
_symmetry_group_IT_number 15
_symmetry_cell_setting 'monoclinic'
loop_
_space_group_symop_operation_xyz
x,y,z
-x,y,1/2-z
-x,-y,-z
x,-y,1/2+z
1/2+x,1/2+y,z
1/2-x,1/2+y,1/2-z
1/2-x,1/2-y,-z
1/2+x,1/2-y,1/2+z
loop_
_atom_site_type_symbol
_atom_site_label
_atom_site_fract_x
_atom_site_fract_y
_atom_site_fract_z
Si Si1 0.173480 0.205481 0.471666
Si Si2 0.426496 0.271558 0.098882
Si Si3 0.000000 0.662030 0.750000
Si Si4 0.108619 0.542691 0.845917
Si Si5 0.286907 0.546272 0.959478
O O1 0.250000 0.250000 0.500000
O O2 0.122902 0.240577 0.669498
O O3 0.185740 0.124978 0.561869
O O4 0.129645 0.201251 0.163951
O O5 0.500000 0.313354 0.250000
O O6 0.464585 0.207683 0.963318
O O7 0.064756 0.611544 0.893546
O O8 0.089048 0.518890 0.537261
O O9 0.197010 0.552761 0.911421
O O10 0.309065 0.492270 0.743537
#
# Coordination Sequence:
#
# PCOD9291349 Si02
#       5
#     8   8   4   8   8
#     4  12  25  45  72 103 134 182 237 284 341 406
#     4  12  26  43  65  99 139 177 218 291 342 400
#     4  12  24  40  64  92 142 180 222 260 346 404
#     4  10  23  37  60  93 133 177 221 262 323 414
#     4  10  22  42  66  97 131 172 223 285 338 399
#
# _framework density 20.835892999999999
#
# number of rings (size 3 to 8) (size 9 to 14) (size 15 to 20)
#    0.000    0.889    2.222    4.000    3.111    3.556 
#    0.000    0.000    0.000   13.333    0.000    0.000 
#    0.000    0.000    0.000    0.000    0.000    0.000 
#
# Total GULP energy -100500.748471 kJ/mol
# GULP energy per Si atom -5583.374915 kJ/mol
# Density = 2.078847 g / cm^3
# Si number density = 20.835893 Si / 1000 Ang^3
#
#
#
# Elastic Constant Matrix: (Units=GPa)
#
#
# Indices 1 2 3 4 5 6 
#
# 1 105.1275 32.5985 43.1233 0.0000 -13.5255 0.0000
# 2 32.5985 106.0035 6.8203 0.0000 -9.5325 0.0000
# 3 43.1233 6.8203 104.4582 0.0000 -6.7698 0.0000
# 4 0.0000 0.0000 0.0000 20.4814 0.0000 -1.7282
# 5 -13.5255 -9.5325 -6.7698 0.0000 36.6491 0.0000
# 6 0.0000 0.0000 0.0000 -1.7282 0.0000 27.1168
#
#
#
# Elastic Compliance Matrix: (Units=1/GPa)
#
#
# Indices 1 2 3 4 5 6 
#
# 1 0.012980 -0.003405 -0.004942 0.000000 0.002992 0.000000
# 2 -0.003405 0.010576 0.000822 0.000000 0.001646 0.000000
# 3 -0.004942 0.000822 0.011594 0.000000 0.000531 0.000000
# 4 0.000000 0.000000 0.000000 0.049089 0.000000 0.003128
# 5 0.002992 0.001646 0.000531 0.000000 0.028916 0.000000
# 6 0.000000 0.000000 0.000000 0.003128 0.000000 0.037077
#
#
# Mechanical properties :
#
#
# Convention : Reuss Voigt Hill
#
# Bulk Modulus (GPa) = 49.75206 53.40817 51.58011
# Shear Modulus (GPa) = 29.07262 32.38594 30.72928
#
# Velocity S-wave (km/s) = 3.73944 3.94678 3.84451
# Velocity P-wave (km/s) = 6.52491 6.81600 6.67204
#
# Compressibility (1/GPa) = 0.02009967
#
# Stress axis : x y z
#
# Youngs Moduli (GPa) = 77.03957 94.55520 86.24873
#
# Poissons Ratio (x) = 0.32193 0.42628
# Poissons Ratio (y) = 0.26230 -0.07087
# Poissons Ratio (z) = 0.38076 -0.07770
#
# Static dielectric constant tensor:
#      x y z
#    x 1.768610 0.000000 0.036190 
#    y 0.000000 1.720220 0.000000 
#    z 0.036190 0.000000 1.773760 
# 
# From -- ./inp_files/9729.got.cif
#   From: 2010.05.17/outbox.cif.g08.bks.cpg/sg15_5_cif.got.tgz:9729.got - 2010.06.03 18:47:42.
