data_PCOD9291125
_publ_section_title
;
Structure prediction by ZEFSAII (Michael W. Deem and Ramdas Pophale) SiO2 
 PCOD9291125
Probable space group: C 2/C
;
_chemical_formula_sum "Si O2"
_cell_formula_units_Z 52
_cell_length_a 11.775127
_cell_length_b 26.446035
_cell_length_c 7.532934
_cell_angle_alpha 90.000000
_cell_angle_beta 122.019084
_cell_angle_gamma 90.000000
_cell_volume 1988.934086
_symmetry_space_group_name_H-M "C 2/C"
_symmetry_group_IT_number 15
_symmetry_cell_setting 'monoclinic'
loop_
_space_group_symop_operation_xyz
x,y,z
-x,y,1/2-z
-x,-y,-z
x,-y,1/2+z
1/2+x,1/2+y,z
1/2-x,1/2+y,1/2-z
1/2-x,1/2-y,-z
1/2+x,1/2-y,1/2+z
loop_
_atom_site_type_symbol
_atom_site_label
_atom_site_fract_x
_atom_site_fract_y
_atom_site_fract_z
Si Si1 0.416575 0.934558 0.474701
Si Si2 0.618273 0.780316 0.212500
Si Si3 0.699236 0.834079 0.951163
Si Si4 0.282554 0.329237 0.640716
Si Si5 0.500000 0.627261 0.750000
Si Si6 0.313512 0.008895 0.193856
Si Si7 0.430252 0.568206 0.359919
O O1 0.374000 0.882187 0.520438
O O2 0.566726 0.953116 0.635445
O O3 0.323640 0.976736 0.493651
O O4 0.363748 0.950473 0.238978
O O5 0.500000 0.795029 0.250000
O O6 0.637018 0.790169 0.019573
O O7 0.630840 0.720236 0.241987
O O8 0.733021 0.814018 0.403999
O O9 0.860246 0.842390 0.107622
O O10 0.677702 0.830142 0.721026
O O11 0.354917 0.382601 0.714104
O O12 0.517210 0.592351 0.590124
O O13 0.172858 0.030223 0.137138
O O14 0.500000 0.543522 0.250000
#
# Coordination Sequence:
#
# PCOD9291125 Si02
#       7
#     8   8   8   8   4   8   8
#     4  10  22  43  66  96 131 170 226 270 346 398
#     4  11  25  40  66 106 132 170 230 278 331 408
#     4  11  23  44  70  92 137 180 222 276 337 401
#     4  10  23  44  64  96 138 175 220 276 341 387
#     4  10  22  42  64  96 128 180 232 262 326 412
#     4  10  22  42  66  94 131 170 216 282 328 400
#     4  11  22  42  71  93 134 180 216 276 340 393
#
# _framework density 26.144656999999999
#
# number of rings (size 3 to 8) (size 9 to 14) (size 15 to 20)
#    0.000    1.538    3.077    1.846    2.154    6.769 
#    4.154    1.538    0.000    0.000    0.000    0.000 
#    0.000    0.000    0.000    0.000    0.000    0.000 
#
# Total GULP energy -145189.465196 kJ/mol
# GULP energy per Si atom -5584.210200 kJ/mol
# Density = 2.608515 g / cm^3
# Si number density = 26.144657 Si / 1000 Ang^3
#
#
#
# Elastic Constant Matrix: (Units=GPa)
#
#
# Indices 1 2 3 4 5 6 
#
# 1 145.5651 5.1137 8.5803 0.0000 -17.5610 0.0000
# 2 5.1137 68.4156 9.7906 0.0000 7.7856 0.0000
# 3 8.5803 9.7906 59.7954 0.0000 -5.5238 0.0000
# 4 0.0000 0.0000 0.0000 26.3182 0.0000 -20.4224
# 5 -17.5610 7.7856 -5.5238 0.0000 31.5059 0.0000
# 6 0.0000 0.0000 0.0000 -20.4224 0.0000 53.5892
#
#
#
# Elastic Compliance Matrix: (Units=1/GPa)
#
#
# Indices 1 2 3 4 5 6 
#
# 1 0.007454 -0.000974 -0.000512 0.000000 0.004305 0.000000
# 2 -0.000974 0.015661 -0.002879 0.000000 -0.004918 0.000000
# 3 -0.000512 -0.002879 0.017593 0.000000 0.003510 0.000000
# 4 0.000000 0.000000 0.000000 0.053951 0.000000 0.020560
# 5 0.004305 -0.004918 0.003510 0.000000 0.035970 0.000000
# 6 0.000000 0.000000 0.000000 0.020560 0.000000 0.026496
#
#
# Mechanical properties :
#
#
# Convention : Reuss Voigt Hill
#
# Bulk Modulus (GPa) = 31.27196 35.63837 33.45517
# Shear Modulus (GPa) = 28.32645 38.96876 33.64761
#
# Velocity S-wave (km/s) = 3.29515 3.86490 3.59134
# Velocity P-wave (km/s) = 5.14436 5.79460 5.47913
#
# Compressibility (1/GPa) = 0.03197753
#
# Stress axis : x y z
#
# Youngs Moduli (GPa) = 134.16372 63.85327 56.84126
#
# Poissons Ratio (x) = 0.06218 0.02913
# Poissons Ratio (y) = 0.13064 0.16363
# Poissons Ratio (z) = 0.06875 0.18382
#
# Static dielectric constant tensor:
#      x y z
#    x 2.098810 0.000000 -0.039620 
#    y 0.000000 2.432030 0.000000 
#    z -0.039620 0.000000 2.233310 
# 
# From -- ./inp_files/34430.got.cif
#   From: 2010.05.17/outbox.cif.g08.bks.cpg/sg15_18_cif.got.tgz:34430.got - 2010.06.03 18:47:42.
