data_PCOD9291233
_publ_section_title
;
Structure prediction by ZEFSAII (Michael W. Deem and Ramdas Pophale) SiO2 
 PCOD9291233
Probable space group: C 2/C
;
_chemical_formula_sum "Si O2"
_cell_formula_units_Z 36
_cell_length_a 24.291330
_cell_length_b 8.642557
_cell_length_c 7.668787
_cell_angle_alpha 90.000000
_cell_angle_beta 100.355921
_cell_angle_gamma 90.000000
_cell_volume 1583.752573
_symmetry_space_group_name_H-M "C 2/C"
_symmetry_group_IT_number 15
_symmetry_cell_setting 'monoclinic'
loop_
_space_group_symop_operation_xyz
x,y,z
-x,y,1/2-z
-x,-y,-z
x,-y,1/2+z
1/2+x,1/2+y,z
1/2-x,1/2+y,1/2-z
1/2-x,1/2-y,-z
1/2+x,1/2-y,1/2+z
loop_
_atom_site_type_symbol
_atom_site_label
_atom_site_fract_x
_atom_site_fract_y
_atom_site_fract_z
Si Si1 0.348767 0.842368 0.635809
Si Si2 0.000000 0.109375 0.250000
Si Si3 0.307156 0.145911 0.727220
Si Si4 0.684220 0.386112 0.073861
Si Si5 0.579522 0.380246 0.503390
O O1 0.312944 0.829333 0.436411
O O2 0.325644 0.743330 0.783629
O O3 0.405897 0.759494 0.615211
O O4 0.352332 0.019161 0.694309
O O5 0.038792 0.000291 0.388837
O O6 0.046409 0.185743 0.151546
O O7 0.314546 0.297625 0.611712
O O8 0.247983 0.064610 0.646737
O O9 0.636556 0.517134 0.061037
#
# Coordination Sequence:
#
# PCOD9291233 Si02
#       5
#     8   4   8   8   8
#     4  12  24  42  65  98 137 178 217 268 322 406
#     4  10  22  42  66 100 118 166 230 306 328 372
#     4  11  26  40  64  98 147 178 213 256 334 408
#     4  11  25  42  64 102 136 185 214 266 330 404
#     4  11  23  41  71  94 127 168 234 282 334 380
#
# _framework density 22.730823999999998
#
# number of rings (size 3 to 8) (size 9 to 14) (size 15 to 20)
#    0.000    0.889    4.444    2.000    6.222    0.000 
#    0.000    0.000    0.000   22.667    0.000    0.000 
#    0.000    0.000    0.000    0.000    0.000    0.000 
#
# Total GULP energy -100562.035900 kJ/mol
# GULP energy per Si atom -5586.779772 kJ/mol
# Density = 2.267909 g / cm^3
# Si number density = 22.730824 Si / 1000 Ang^3
#
#
#
# Elastic Constant Matrix: (Units=GPa)
#
#
# Indices 1 2 3 4 5 6 
#
# 1 92.1761 19.5687 14.4678 0.0000 -14.2470 0.0000
# 2 19.5687 48.9922 7.1024 0.0000 3.6199 0.0000
# 3 14.4678 7.1024 114.6934 0.0000 -10.9303 0.0000
# 4 0.0000 0.0000 0.0000 25.5947 0.0000 11.8840
# 5 -14.2470 3.6199 -10.9303 0.0000 37.3929 0.0000
# 6 0.0000 0.0000 0.0000 11.8840 0.0000 44.6075
#
#
#
# Elastic Compliance Matrix: (Units=1/GPa)
#
#
# Indices 1 2 3 4 5 6 
#
# 1 0.012935 -0.005437 -0.000797 0.000000 0.005222 0.000000
# 2 -0.005437 0.023099 -0.001188 0.000000 -0.004655 0.000000
# 3 -0.000797 -0.001188 0.009129 0.000000 0.002480 0.000000
# 4 0.000000 0.000000 0.000000 0.044586 0.000000 -0.011878
# 5 0.005222 -0.004655 0.002480 0.000000 0.029908 0.000000
# 6 0.000000 0.000000 0.000000 -0.011878 0.000000 0.025582
#
#
# Mechanical properties :
#
#
# Convention : Reuss Voigt Hill
#
# Bulk Modulus (GPa) = 32.98272 37.57105 35.27689
# Shear Modulus (GPa) = 29.37870 35.83389 32.60630
#
# Velocity S-wave (km/s) = 3.59898 3.97475 3.79153
# Velocity P-wave (km/s) = 5.64020 6.13429 5.89242
#
# Compressibility (1/GPa) = 0.03031891
#
# Stress axis : x y z
#
# Youngs Moduli (GPa) = 77.30801 43.29147 109.53638
#
# Poissons Ratio (x) = 0.23537 0.08734
# Poissons Ratio (y) = 0.42032 0.13015
# Poissons Ratio (z) = 0.06164 0.05144
#
# Static dielectric constant tensor:
#      x y z
#    x 1.915360 0.000000 -0.028570 
#    y 0.000000 1.843100 0.000000 
#    z -0.028570 0.000000 1.887870 
# 
# From -- ./inp_files/53618.got.cif
#   From: 2010.05.17/outbox.cif.g08.bks.cpg/sg15_27_cif.got.tgz:53618.got - 2010.06.03 18:47:42.
