data_PCOD9291638
_publ_section_title
;
Structure prediction by ZEFSAII (Michael W. Deem and Ramdas Pophale) SiO2 
 PCOD9291638
Probable space group: C 2/C
;
_chemical_formula_sum "Si O2"
_cell_formula_units_Z 56
_cell_length_a 21.456991
_cell_length_b 25.027384
_cell_length_c 11.938509
_cell_angle_alpha 90.000000
_cell_angle_beta 154.087309
_cell_angle_gamma 90.000000
_cell_volume 2801.669017
_symmetry_space_group_name_H-M "C 2/C"
_symmetry_group_IT_number 15
_symmetry_cell_setting 'monoclinic'
loop_
_space_group_symop_operation_xyz
x,y,z
-x,y,1/2-z
-x,-y,-z
x,-y,1/2+z
1/2+x,1/2+y,z
1/2-x,1/2+y,1/2-z
1/2-x,1/2-y,-z
1/2+x,1/2-y,1/2+z
loop_
_atom_site_type_symbol
_atom_site_label
_atom_site_fract_x
_atom_site_fract_y
_atom_site_fract_z
Si Si1 0.500000 0.795716 0.250000
Si Si2 0.100241 0.633856 0.518940
Si Si3 0.721044 0.242308 0.820426
Si Si4 0.272850 0.458071 0.178250
Si Si5 0.514263 0.448813 0.404691
Si Si6 0.934900 0.620196 0.472606
Si Si7 0.500000 0.971384 0.250000
Si Si8 0.874973 0.157075 0.457457
O O1 0.627681 0.757587 0.488881
O O2 0.470498 0.836163 0.305073
O O3 0.168300 0.686469 0.685505
O O4 0.218351 0.590818 0.667595
O O5 0.000000 0.646551 0.250000
O O6 0.997050 0.611672 0.450129
O O7 0.624688 0.290767 0.619173
O O8 0.750000 0.250000 0.000000
O O9 0.357525 0.442227 0.203614
O O10 0.393731 0.498164 0.423132
O O11 0.131645 0.492100 0.926202
O O12 0.500000 0.447004 0.250000
O O13 0.599840 0.395652 0.577286
O O14 0.775888 0.644703 0.225052
O O15 0.946427 0.566233 0.562805
O O16 0.000000 0.162920 0.750000
#
# Coordination Sequence:
#
# PCOD9291638 Si02
#       8
#     4   8   8   8   8   8   4   8
#     4   9  20  44  68  96 120 176 229 268 326 404
#     4  12  27  42  64 106 146 169 226 291 345 399
#     4  11  23  45  67  98 132 177 224 279 337 409
#     4  11  25  42  64 103 137 178 224 285 340 396
#     4  10  24  45  66  94 136 181 232 269 334 416
#     4  10  22  42  69  97 131 176 231 276 333 416
#     4  11  22  42  72  96 132 188 235 274 344 406
#     4  10  22  42  72  93 126 182 223 275 337 406
#
# _framework density 19.988085000000002
#
# number of rings (size 3 to 8) (size 9 to 14) (size 15 to 20)
#    0.000    1.429    3.571    0.429    6.000    1.714 
#    3.857    2.143    0.000    0.000    0.000    0.000 
#    0.000    0.000    0.000    0.000    0.000    0.000 
#
# Total GULP energy -156077.064239 kJ/mol
# GULP energy per Si atom -5574.180866 kJ/mol
# Density = 1.994259 g / cm^3
# Si number density = 19.988085 Si / 1000 Ang^3
#
#
#
# Elastic Constant Matrix: (Units=GPa)
#
#
# Indices 1 2 3 4 5 6 
#
# 1 152.5489 64.8526 53.9933 0.0000 9.0408 0.0000
# 2 64.8526 139.0154 51.8265 0.0000 1.4751 0.0000
# 3 53.9933 51.8265 84.9749 0.0000 3.3750 0.0000
# 4 0.0000 0.0000 0.0000 37.1079 0.0000 4.2823
# 5 9.0408 1.4751 3.3750 0.0000 39.0198 0.0000
# 6 0.0000 0.0000 0.0000 4.2823 0.0000 18.1988
#
#
#
# Elastic Compliance Matrix: (Units=1/GPa)
#
#
# Indices 1 2 3 4 5 6 
#
# 1 0.009305 -0.002775 -0.004153 0.000000 -0.001692 0.000000
# 2 -0.002775 0.010139 -0.004446 0.000000 0.000644 0.000000
# 3 -0.004153 -0.004446 0.017133 0.000000 -0.000352 0.000000
# 4 0.000000 0.000000 0.000000 0.027701 0.000000 -0.006518
# 5 -0.001692 0.000644 -0.000352 0.000000 0.026026 0.000000
# 6 0.000000 0.000000 0.000000 -0.006518 0.000000 0.056483
#
#
# Mechanical properties :
#
#
# Convention : Reuss Voigt Hill
#
# Bulk Modulus (GPa) = 72.31301 79.76487 76.03894
# Shear Modulus (GPa) = 28.71208 32.58974 30.65091
#
# Velocity S-wave (km/s) = 3.79418 4.04227 3.92019
# Velocity P-wave (km/s) = 7.44654 7.85999 7.65606
#
# Compressibility (1/GPa) = 0.01382877
#
# Stress axis : x y z
#
# Youngs Moduli (GPa) = 107.46853 98.63285 58.36813
#
# Poissons Ratio (x) = 0.27368 0.24240
# Poissons Ratio (y) = 0.29819 0.25951
# Poissons Ratio (z) = 0.44631 0.43853
#
# Static dielectric constant tensor:
#      x y z
#    x 1.755280 0.000000 0.013130 
#    y 0.000000 1.802420 0.000000 
#    z 0.013130 0.000000 1.734570 
# 
# From -- ./inp_files/114775.got.cif
#   From: 2010.05.17/outbox.cif.g08.bks.cpg/sg15_58_cif.got.tgz:114775.got - 2010.06.03 18:47:42.
