data_PCOD9291539
_publ_section_title
;
Structure prediction by ZEFSAII (Michael W. Deem and Ramdas Pophale) SiO2 
 PCOD9291539
Probable space group: C 2/C
;
_chemical_formula_sum "Si O2"
_cell_formula_units_Z 44
_cell_length_a 11.829740
_cell_length_b 11.698869
_cell_length_c 21.217337
_cell_angle_alpha 90.000000
_cell_angle_beta 39.974265
_cell_angle_gamma 90.000000
_cell_volume 1886.448136
_symmetry_space_group_name_H-M "C 2/C"
_symmetry_group_IT_number 15
_symmetry_cell_setting 'monoclinic'
loop_
_space_group_symop_operation_xyz
x,y,z
-x,y,1/2-z
-x,-y,-z
x,-y,1/2+z
1/2+x,1/2+y,z
1/2-x,1/2+y,1/2-z
1/2-x,1/2-y,-z
1/2+x,1/2-y,1/2+z
loop_
_atom_site_type_symbol
_atom_site_label
_atom_site_fract_x
_atom_site_fract_y
_atom_site_fract_z
Si Si1 0.938822 0.412865 0.839900
Si Si2 0.500000 0.477897 0.750000
Si Si3 0.344489 0.262905 0.527479
Si Si4 0.038104 0.637124 0.617369
Si Si5 0.175178 0.184757 0.729250
Si Si6 0.281301 0.789364 0.590329
O O1 0.731661 0.387323 0.922615
O O2 0.973743 0.500300 0.880021
O O3 0.000000 0.472104 0.750000
O O4 0.054246 0.296259 0.791481
O O5 0.566304 0.566741 0.775813
O O6 0.661758 0.394719 0.664132
O O7 0.250000 0.250000 0.500000
O O8 0.261342 0.190231 0.621293
O O9 0.551998 0.245185 0.438073
O O10 0.154855 0.685289 0.624360
O O11 0.128293 0.675618 0.514356
O O12 0.841289 0.685799 0.703925
#
# Coordination Sequence:
#
# PCOD9291539 Si02
#       6
#     8   4   8   8   8   8
#     4  10  22  43  66  98 137 178 222 279 332 404
#     4  12  24  44  66  98 140 174 228 284 332 410
#     4  10  22  42  68  95 133 177 231 270 339 403
#     4  10  24  45  70  98 141 172 226 286 338 407
#     4  10  23  44  66 104 132 175 229 276 338 409
#     4  10  26  44  66 103 135 180 227 281 344 400
#
# _framework density 23.324255000000001
#
# number of rings (size 3 to 8) (size 9 to 14) (size 15 to 20)
#    0.000    1.818    2.727    0.000    8.909    2.182 
#    0.000    0.000    0.000    0.000    0.000    0.000 
#    0.000    0.000    0.000    0.000    0.000    0.000 
#
# Total GULP energy -122729.181669 kJ/mol
# GULP energy per Si atom -5578.599167 kJ/mol
# Density = 2.327117 g / cm^3
# Si number density = 23.324255 Si / 1000 Ang^3
#
#
#
# Elastic Constant Matrix: (Units=GPa)
#
#
# Indices 1 2 3 4 5 6 
#
# 1 157.4515 51.4624 59.8264 0.0000 -43.1374 0.0000
# 2 51.4624 129.9760 55.6136 0.0000 -34.9046 0.0000
# 3 59.8264 55.6136 102.3284 0.0000 -35.5983 0.0000
# 4 0.0000 0.0000 0.0000 21.6403 0.0000 3.8362
# 5 -43.1374 -34.9046 -35.5983 0.0000 47.0194 0.0000
# 6 0.0000 0.0000 0.0000 3.8362 0.0000 18.2381
#
#
#
# Elastic Compliance Matrix: (Units=1/GPa)
#
#
# Indices 1 2 3 4 5 6 
#
# 1 0.009326 -0.000897 -0.003014 0.000000 0.005608 0.000000
# 2 -0.000897 0.010866 -0.003884 0.000000 0.004303 0.000000
# 3 -0.003014 -0.003884 0.015857 0.000000 0.006357 0.000000
# 4 0.000000 0.000000 0.000000 0.048000 0.000000 -0.010096
# 5 0.005608 0.004303 0.006357 0.000000 0.034420 0.000000
# 6 0.000000 0.000000 0.000000 -0.010096 0.000000 0.056954
#
#
# Mechanical properties :
#
#
# Convention : Reuss Voigt Hill
#
# Bulk Modulus (GPa) = 48.87815 80.39563 64.63689
# Shear Modulus (GPa) = 25.27377 32.23647 28.75512
#
# Velocity S-wave (km/s) = 3.29535 3.72169 3.51499
# Velocity P-wave (km/s) = 5.95656 7.28090 6.65177
#
# Compressibility (1/GPa) = 0.02045904
#
# Stress axis : x y z
#
# Youngs Moduli (GPa) = 107.22638 92.02680 63.06329
#
# Poissons Ratio (x) = 0.08253 0.19007
# Poissons Ratio (y) = 0.09616 0.24497
# Poissons Ratio (z) = 0.32318 0.35747
#
# Static dielectric constant tensor:
#      x y z
#    x 1.947460 0.000000 0.050700 
#    y 0.000000 1.870800 0.000000 
#    z 0.050700 0.000000 1.978650 
# 
# From -- ./inp_files/269148.got.cif
#   From: 2010.05.17/outbox.cif.g08.bks.cpg/sg15_135_cif.got.tgz:269148.got - 2010.06.03 18:47:42.
