data_PCOD9291378
_publ_section_title
;
Structure prediction by ZEFSAII (Michael W. Deem and Ramdas Pophale) SiO2 
 PCOD9291378
Probable space group: C 2/C
;
_chemical_formula_sum "Si O2"
_cell_formula_units_Z 60
_cell_length_a 9.161685
_cell_length_b 20.991315
_cell_length_c 16.935250
_cell_angle_alpha 90.000000
_cell_angle_beta 122.060206
_cell_angle_gamma 90.000000
_cell_volume 2760.206677
_symmetry_space_group_name_H-M "C 2/C"
_symmetry_group_IT_number 15
_symmetry_cell_setting 'monoclinic'
loop_
_space_group_symop_operation_xyz
x,y,z
-x,y,1/2-z
-x,-y,-z
x,-y,1/2+z
1/2+x,1/2+y,z
1/2-x,1/2+y,1/2-z
1/2-x,1/2-y,-z
1/2+x,1/2-y,1/2+z
loop_
_atom_site_type_symbol
_atom_site_label
_atom_site_fract_x
_atom_site_fract_y
_atom_site_fract_z
Si Si1 0.676161 0.161887 0.627113
Si Si2 0.583787 0.763478 0.861121
Si Si3 0.426526 0.271182 0.590276
Si Si4 0.478105 0.517520 0.086222
Si Si5 0.000000 0.073391 0.750000
Si Si6 0.187273 0.137845 0.134679
Si Si7 0.396811 0.065547 0.476382
Si Si8 0.711519 0.827199 0.662462
O O1 0.776525 0.207279 0.592037
O O2 0.564211 0.214481 0.642760
O O3 0.829004 0.118032 0.706291
O O4 0.527223 0.114501 0.555631
O O5 0.500000 0.750906 0.750000
O O6 0.667082 0.834531 0.880216
O O7 0.434756 0.772382 0.881753
O O8 0.250000 0.250000 0.500000
O O9 0.516248 0.324227 0.561382
O O10 0.364742 0.306329 0.650780
O O11 0.486440 0.468277 0.163959
O O12 0.637175 0.566450 0.138352
O O13 0.500000 0.500000 0.000000
O O14 0.289294 0.550043 0.039412
O O15 0.237440 0.166797 0.233067
O O16 0.352269 0.103754 0.384036
O O17 0.500000 0.000000 0.500000
#
# Coordination Sequence:
#
# PCOD9291378 Si02
#       8
#     8   8   8   8   4   8   8   8
#     4  11  23  45  68 103 146 192 239 297 386 430
#     4   9  21  40  65  99 137 173 234 295 353 435
#     4  11  21  41  66 104 140 182 244 300 366 435
#     4  12  27  49  74 106 143 196 255 298 366 450
#     4  12  26  50  76 102 158 198 234 316 376 440
#     4  10  22  42  67 101 136 183 246 293 357 437
#     4  12  25  44  68 100 145 193 244 303 366 438
#     4  11  22  42  73 102 137 197 240 302 367 437
#
# _framework density 21.737503
#
# number of rings (size 3 to 8) (size 9 to 14) (size 15 to 20)
#    0.000    1.067    4.667    1.200    1.867    0.533 
#    4.800    3.333    0.000    0.000    0.000    0.000 
#    0.000    0.000    0.000    0.000    0.000    0.000 
#
# Total GULP energy -167129.416850 kJ/mol
# GULP energy per Si atom -5570.980562 kJ/mol
# Density = 2.168803 g / cm^3
# Si number density = 21.737503 Si / 1000 Ang^3
#
#
#
# Elastic Constant Matrix: (Units=GPa)
#
#
# Indices 1 2 3 4 5 6 
#
# 1 106.3327 42.5214 30.1862 0.0000 5.2119 0.0000
# 2 42.5214 131.9751 36.8039 0.0000 1.7020 0.0000
# 3 30.1862 36.8039 79.4917 0.0000 9.3417 0.0000
# 4 0.0000 0.0000 0.0000 37.4236 0.0000 17.2993
# 5 5.2119 1.7020 9.3417 0.0000 30.6693 0.0000
# 6 0.0000 0.0000 0.0000 17.2993 0.0000 56.3908
#
#
#
# Elastic Compliance Matrix: (Units=1/GPa)
#
#
# Indices 1 2 3 4 5 6 
#
# 1 0.011416 -0.002856 -0.002908 0.000000 -0.000896 0.000000
# 2 -0.002856 0.009433 -0.003400 0.000000 0.000997 0.000000
# 3 -0.002908 -0.003400 0.015741 0.000000 -0.004112 0.000000
# 4 0.000000 0.000000 0.000000 0.031137 0.000000 -0.009552
# 5 -0.000896 0.000997 -0.004112 0.000000 0.033955 0.000000
# 6 0.000000 0.000000 0.000000 -0.009552 0.000000 0.020664
#
#
# Mechanical properties :
#
#
# Convention : Reuss Voigt Hill
#
# Bulk Modulus (GPa) = 54.75480 59.64696 57.20088
# Shear Modulus (GPa) = 34.06938 38.78262 36.42600
#
# Velocity S-wave (km/s) = 3.96322 4.22848 4.09800
# Velocity P-wave (km/s) = 6.79607 7.16515 6.98305
#
# Compressibility (1/GPa) = 0.01826324
#
# Stress axis : x y z
#
# Youngs Moduli (GPa) = 87.59839 106.01584 63.52660
#
# Poissons Ratio (x) = 0.30275 0.18471
# Poissons Ratio (y) = 0.25015 0.21599
# Poissons Ratio (z) = 0.25470 0.36045
#
# Static dielectric constant tensor:
#      x y z
#    x 1.817350 0.000000 0.048420 
#    y 0.000000 1.861160 0.000000 
#    z 0.048420 0.000000 1.901400 
# 
# From -- ./inp_files/192554.got.cif
#   From: 2010.05.17/outbox.cif.g08.bks.cpg/sg15_97_cif.got.tgz:192554.got - 2010.06.03 18:47:42.
