data_PCOD9291677
_publ_section_title
;
Structure prediction by ZEFSAII (Michael W. Deem and Ramdas Pophale) SiO2 
 PCOD9291677
Probable space group: C 2/C
;
_chemical_formula_sum "Si O2"
_cell_formula_units_Z 36
_cell_length_a 8.655534
_cell_length_b 17.023757
_cell_length_c 19.965291
_cell_angle_alpha 90.000000
_cell_angle_beta 148.470064
_cell_angle_gamma 90.000000
_cell_volume 1538.438333
_symmetry_space_group_name_H-M "C 2/C"
_symmetry_group_IT_number 15
_symmetry_cell_setting 'monoclinic'
loop_
_space_group_symop_operation_xyz
x,y,z
-x,y,1/2-z
-x,-y,-z
x,-y,1/2+z
1/2+x,1/2+y,z
1/2-x,1/2+y,1/2-z
1/2-x,1/2-y,-z
1/2+x,1/2-y,1/2+z
loop_
_atom_site_type_symbol
_atom_site_label
_atom_site_fract_x
_atom_site_fract_y
_atom_site_fract_z
Si Si1 0.728895 0.530342 0.946160
Si Si2 0.180445 0.899088 0.645415
Si Si3 0.000000 0.131084 0.750000
Si Si4 0.798947 0.645431 0.332302
Si Si5 0.969138 0.748410 0.517841
O O1 0.567786 0.462159 0.927680
O O2 0.490694 0.574597 0.811313
O O3 0.000000 0.500000 0.000000
O O4 0.910403 0.592652 0.056587
O O5 0.500000 0.936426 0.750000
O O6 0.232521 0.843398 0.730109
O O7 0.082379 0.837199 0.553493
O O8 0.722697 0.186706 0.632513
O O9 0.500000 0.604016 0.250000
O O10 0.843386 0.716831 0.400608
O O11 0.750000 0.750000 0.500000
#
# Coordination Sequence:
#
# PCOD9291677 Si02
#       5
#     8   8   4   8   8
#     4  11  21  41  73 101 135 189 240 283 355 439
#     4  12  25  43  69 108 152 176 238 312 361 409
#     4  10  22  42  70 102 134 186 242 280 344 444
#     4  11  22  42  73 102 137 191 242 284 354 435
#     4  11  22  42  71 104 137 186 239 295 351 432
#
# _framework density 23.400354
#
# number of rings (size 3 to 8) (size 9 to 14) (size 15 to 20)
#    0.000    0.889    5.556    2.667    0.000    1.778 
#    0.000    0.000    0.000    0.000    0.000    0.000 
#    0.000    0.000    0.000    0.000    0.000    0.000 
#
# Total GULP energy -100593.563791 kJ/mol
# GULP energy per Si atom -5588.531322 kJ/mol
# Density = 2.334709 g / cm^3
# Si number density = 23.400354 Si / 1000 Ang^3
#
#
#
# Elastic Constant Matrix: (Units=GPa)
#
#
# Indices 1 2 3 4 5 6 
#
# 1 98.6795 46.9404 33.4271 0.0023 16.5777 0.0006
# 2 46.9404 131.5586 54.2293 0.0051 6.3728 0.0024
# 3 33.4271 54.2293 118.5948 0.0127 -3.7407 0.0050
# 4 0.0023 0.0051 0.0127 21.7287 0.0041 8.3527
# 5 16.5777 6.3728 -3.7407 0.0041 42.7218 0.0012
# 6 0.0006 0.0024 0.0050 8.3527 0.0012 37.7356
#
#
#
# Elastic Compliance Matrix: (Units=1/GPa)
#
#
# Indices 1 2 3 4 5 6 
#
# 1 0.013451 -0.003619 -0.002290 0.000002 -0.004880 0.000000
# 2 -0.003619 0.010477 -0.003786 0.000000 -0.000490 0.000000
# 3 -0.002290 -0.003786 0.010885 -0.000006 0.002407 0.000000
# 4 0.000002 0.000000 -0.000006 0.050302 -0.000006 -0.011134
# 5 -0.004880 -0.000490 0.002407 -0.000006 0.025585 0.000000
# 6 0.000000 0.000000 0.000000 -0.011134 0.000000 0.028965
#
#
# Mechanical properties :
#
#
# Convention : Reuss Voigt Hill
#
# Bulk Modulus (GPa) = 64.84329 68.66963 66.75646
# Shear Modulus (GPa) = 30.45145 34.71961 32.58553
#
# Velocity S-wave (km/s) = 3.61130 3.85609 3.73570
# Velocity P-wave (km/s) = 6.72006 7.01678 6.87002
#
# Compressibility (1/GPa) = 0.01542180
#
# Stress axis : x y z
#
# Youngs Moduli (GPa) = 74.34413 95.44913 91.87077
#
# Poissons Ratio (x) = 0.34541 0.21043
# Poissons Ratio (y) = 0.26904 0.34784
# Poissons Ratio (z) = 0.17028 0.36138
#
# Static dielectric constant tensor:
#      x y z
#    x 1.946310 0.000000 -0.059230 
#    y 0.000000 1.931620 0.000000 
#    z -0.059230 0.000000 2.057390 
# 
# From -- ./inp_files/233148.got.cif
#   From: 2010.05.17/outbox.cif.g08.bks.cpg/sg15_117_cif.got.tgz:233148.got - 2010.06.03 18:47:42.
