data_PCOD9291649
_publ_section_title
;
Structure prediction by ZEFSAII (Michael W. Deem and Ramdas Pophale) SiO2 
 PCOD9291649
Probable space group: C 2/C
;
_chemical_formula_sum "Si O2"
_cell_formula_units_Z 48
_cell_length_a 14.807413
_cell_length_b 9.202124
_cell_length_c 15.209843
_cell_angle_alpha 90.000000
_cell_angle_beta 106.016741
_cell_angle_gamma 90.000000
_cell_volume 1992.036228
_symmetry_space_group_name_H-M "C 2/C"
_symmetry_group_IT_number 15
_symmetry_cell_setting 'monoclinic'
loop_
_space_group_symop_operation_xyz
x,y,z
-x,y,1/2-z
-x,-y,-z
x,-y,1/2+z
1/2+x,1/2+y,z
1/2-x,1/2+y,1/2-z
1/2-x,1/2-y,-z
1/2+x,1/2-y,1/2+z
loop_
_atom_site_type_symbol
_atom_site_label
_atom_site_fract_x
_atom_site_fract_y
_atom_site_fract_z
Si Si1 0.246815 0.472185 0.504538
Si Si2 0.244093 0.228516 0.650719
Si Si3 0.087120 0.581522 0.567178
Si Si4 0.038042 0.938148 0.420102
Si Si5 0.430443 0.315491 0.799579
Si Si6 0.061851 0.319036 0.679264
O O1 0.221652 0.337180 0.563144
O O2 0.237525 0.419550 0.400437
O O3 0.171556 0.586073 0.520400
O O4 0.352019 0.524248 0.553208
O O5 0.330143 0.299150 0.726521
O O6 0.157010 0.222197 0.694764
O O7 0.071025 0.734076 0.608316
O O8 0.099893 0.473712 0.655313
O O9 0.000000 0.500000 0.500000
O O10 0.979343 0.030564 0.332442
O O11 0.000000 0.000000 0.500000
O O12 0.009603 0.771095 0.401939
O O13 0.500000 0.237230 0.750000
O O14 0.000000 0.333090 0.750000
#
# Coordination Sequence:
#
# PCOD9291649 Si02
#       6
#     8   8   8   8   8   8
#     4  10  22  44  70  94 136 180 226 270 340 406
#     4  10  22  42  69  98 130 181 224 270 338 410
#     4  11  25  45  68  98 137 179 223 280 344 400
#     4  12  24  45  70 100 132 184 229 279 333 410
#     4  12  24  42  72  99 132 179 236 273 335 418
#     4  11  25  42  67  99 142 168 221 290 340 385
#
# _framework density 24.095949000000001
#
# number of rings (size 3 to 8) (size 9 to 14) (size 15 to 20)
#    0.000    1.000    3.333    3.000    4.667    1.333 
#    3.000    1.667    0.000    0.000    0.000    0.000 
#    0.000    0.000    0.000    0.000    0.000    0.000 
#
# Total GULP energy -134008.042744 kJ/mol
# GULP energy per Si atom -5583.668448 kJ/mol
# Density = 2.404111 g / cm^3
# Si number density = 24.095949 Si / 1000 Ang^3
#
#
#
# Elastic Constant Matrix: (Units=GPa)
#
#
# Indices 1 2 3 4 5 6 
#
# 1 198.5767 16.2262 50.8263 0.0000 -28.1823 0.0000
# 2 16.2262 72.2081 9.9723 0.0000 -4.4844 0.0000
# 3 50.8263 9.9723 96.0373 0.0000 -4.2391 0.0000
# 4 0.0000 0.0000 0.0000 32.4973 0.0000 0.6887
# 5 -28.1823 -4.4844 -4.2391 0.0000 45.5002 0.0000
# 6 0.0000 0.0000 0.0000 0.6887 0.0000 20.1694
#
#
#
# Elastic Compliance Matrix: (Units=1/GPa)
#
#
# Indices 1 2 3 4 5 6 
#
# 1 0.006419 -0.000783 -0.003157 0.000000 0.003605 0.000000
# 2 -0.000783 0.014217 -0.001026 0.000000 0.000821 0.000000
# 3 -0.003157 -0.001026 0.012149 0.000000 -0.000925 0.000000
# 4 0.000000 0.000000 0.000000 0.030794 0.000000 -0.001052
# 5 0.003605 0.000821 -0.000925 0.000000 0.024205 0.000000
# 6 0.000000 0.000000 0.000000 -0.001052 0.000000 0.049616
#
#
# Mechanical properties :
#
#
# Convention : Reuss Voigt Hill
#
# Bulk Modulus (GPa) = 43.75425 57.87464 50.81445
# Shear Modulus (GPa) = 32.26831 38.95320 35.61075
#
# Velocity S-wave (km/s) = 3.66342 4.02504 3.84848
# Velocity P-wave (km/s) = 6.00766 6.75809 6.39390
#
# Compressibility (1/GPa) = 0.02285492
#
# Stress axis : x y z
#
# Youngs Moduli (GPa) = 155.77670 70.33636 82.31038
#
# Poissons Ratio (x) = 0.05505 0.25985
# Poissons Ratio (y) = 0.12192 0.08444
# Poissons Ratio (z) = 0.49179 0.07215
#
# Static dielectric constant tensor:
#      x y z
#    x 1.921220 0.000000 0.038280 
#    y 0.000000 2.626730 0.000000 
#    z 0.038280 0.000000 1.982420 
# 
# From -- ./inp_files/152040.got.cif
#   From: 2010.05.17/outbox.cif.g08.bks.cpg/sg15_77_cif.got.tgz:152040.got - 2010.06.03 18:47:42.
