data_PCOD9291283
_publ_section_title
;
Structure prediction by ZEFSAII (Michael W. Deem and Ramdas Pophale) SiO2 
 PCOD9291283
Probable space group: C 2/C
;
_chemical_formula_sum "Si O2"
_cell_formula_units_Z 60
_cell_length_a 15.374917
_cell_length_b 15.530876
_cell_length_c 11.953748
_cell_angle_alpha 90.000000
_cell_angle_beta 98.834515
_cell_angle_gamma 90.000000
_cell_volume 2820.522505
_symmetry_space_group_name_H-M "C 2/C"
_symmetry_group_IT_number 15
_symmetry_cell_setting 'monoclinic'
loop_
_space_group_symop_operation_xyz
x,y,z
-x,y,1/2-z
-x,-y,-z
x,-y,1/2+z
1/2+x,1/2+y,z
1/2-x,1/2+y,1/2-z
1/2-x,1/2-y,-z
1/2+x,1/2-y,1/2+z
loop_
_atom_site_type_symbol
_atom_site_label
_atom_site_fract_x
_atom_site_fract_y
_atom_site_fract_z
Si Si1 0.648869 0.973495 0.299086
Si Si2 0.000000 0.382257 0.750000
Si Si3 0.495799 0.752943 0.538417
Si Si4 0.678349 0.457770 0.556153
Si Si5 0.215714 0.112612 0.831392
Si Si6 0.324267 0.267055 0.857388
Si Si7 0.413532 0.789433 0.162339
Si Si8 0.552887 0.420928 0.154185
O O1 0.585098 0.054544 0.268689
O O2 0.730752 0.995122 0.395165
O O3 0.697764 0.936252 0.198179
O O4 0.595352 0.892618 0.337151
O O5 0.000873 0.321291 0.640206
O O6 0.407440 0.764853 0.447588
O O7 0.574132 0.760390 0.462353
O O8 0.499157 0.656763 0.588585
O O9 0.677505 0.441331 0.425183
O O10 0.684332 0.367102 0.621347
O O11 0.592207 0.508110 0.579606
O O12 0.242935 0.207436 0.875724
O O13 0.142061 0.120355 0.722793
O O14 0.337917 0.248982 0.727256
O O15 0.500000 0.764081 0.250000
O O16 0.500000 0.457528 0.250000
#
# Coordination Sequence:
#
# PCOD9291283 Si02
#       8
#     8   4   8   8   8   8   8   8
#     4  10  23  40  61 100 129 160 212 267 322 388
#     4  12  24  38  68  98 128 168 210 264 332 388
#     4  11  24  39  67  95 128 174 216 265 324 381
#     4  11  24  39  67  91 124 181 217 259 323 382
#     4  10  23  43  64  92 136 163 212 274 325 382
#     4  10  22  42  66  92 128 177 217 262 320 387
#     4   9  20  42  63  94 132 162 211 267 322 381
#     4  11  25  44  62  95 133 165 221 278 314 376
#
# _framework density 21.272653999999999
#
# number of rings (size 3 to 8) (size 9 to 14) (size 15 to 20)
#    0.000    1.600    1.333    2.000    3.733    6.400 
#    0.000    6.000    0.000    0.000    0.000    0.000 
#    0.000    0.000    0.000    0.000    0.000    0.000 
#
# Total GULP energy -167609.063949 kJ/mol
# GULP energy per Si atom -5586.968798 kJ/mol
# Density = 2.122424 g / cm^3
# Si number density = 21.272654 Si / 1000 Ang^3
#
#
#
# Elastic Constant Matrix: (Units=GPa)
#
#
# Indices 1 2 3 4 5 6 
#
# 1 62.1556 0.3318 15.7547 0.0000 -5.3111 0.0000
# 2 0.3318 53.3957 17.9643 0.0000 -9.7675 0.0000
# 3 15.7547 17.9643 88.4022 0.0000 -21.2750 0.0000
# 4 0.0000 0.0000 0.0000 -102.1222 0.0000 -215.3371
# 5 -5.3111 -9.7675 -21.2750 0.0000 36.7578 0.0000
# 6 0.0000 0.0000 0.0000 -215.3371 0.0000 -313.2955
#
#
#
# Elastic Compliance Matrix: (Units=1/GPa)
#
#
# Indices 1 2 3 4 5 6 
#
# 1 0.016928 0.001086 -0.002997 0.000000 0.001000 0.000000
# 2 0.001086 0.020558 -0.003507 0.000000 0.003590 0.000000
# 3 -0.002997 -0.003507 0.014209 0.000000 0.006859 0.000000
# 4 0.000000 0.000000 0.000000 0.021794 0.000000 -0.014979
# 5 0.001000 0.003590 0.006859 0.000000 0.032274 0.000000
# 6 0.000000 0.000000 0.000000 -0.014979 0.000000 0.007104
#
#
# Mechanical properties :
#
#
# Convention : Reuss Voigt Hill
#
# Bulk Modulus (GPa) = 24.47430 30.22833 27.35131
# Shear Modulus (GPa) = 36.41071 -64.40512 -13.99721
#
# Velocity S-wave (km/s) = 4.14166 -5.50833 -2.56792
# Velocity P-wave (km/s) = 5.86525 5.12005 2.02316
#
# Compressibility (1/GPa) = 0.04085919
#
# Stress axis : x y z
#
# Youngs Moduli (GPa) = 59.07397 48.64296 70.37548
#
# Poissons Ratio (x) = -0.05283 0.21091
# Poissons Ratio (y) = -0.06415 0.24682
# Poissons Ratio (z) = 0.17704 0.17060
#
# Static dielectric constant tensor:
#      x y z
#    x 1.812410 0.000000 -0.030880 
#    y 0.000000 1.749950 0.000000 
#    z -0.030880 0.000000 1.767320 
# 
# From -- ./inp_files/105382.got.cif
#   From: 2010.05.17/outbox.cif.g08.bks.cpg/sg15_53_cif.got.tgz:105382.got - 2010.06.03 18:47:42.
