data_PCOD9291067
_publ_section_title
;
Structure prediction by ZEFSAII (Michael W. Deem and Ramdas Pophale) SiO2 
 PCOD9291067
Probable space group: C 2/C
;
_chemical_formula_sum "Si O2"
_cell_formula_units_Z 56
_cell_length_a 14.480110
_cell_length_b 24.504792
_cell_length_c 9.068674
_cell_angle_alpha 90.000000
_cell_angle_beta 62.754536
_cell_angle_gamma 90.000000
_cell_volume 2860.846215
_symmetry_space_group_name_H-M "C 2/C"
_symmetry_group_IT_number 15
_symmetry_cell_setting 'monoclinic'
loop_
_space_group_symop_operation_xyz
x,y,z
-x,y,1/2-z
-x,-y,-z
x,-y,1/2+z
1/2+x,1/2+y,z
1/2-x,1/2+y,1/2-z
1/2-x,1/2-y,-z
1/2+x,1/2-y,1/2+z
loop_
_atom_site_type_symbol
_atom_site_label
_atom_site_fract_x
_atom_site_fract_y
_atom_site_fract_z
Si Si1 0.477524 0.834879 0.095558
Si Si2 0.605789 0.115051 0.268588
Si Si3 0.714348 0.305769 0.954932
Si Si4 0.525212 0.708971 0.405656
Si Si5 0.877383 0.493897 0.872084
Si Si6 0.410764 0.372957 0.213400
Si Si7 0.303627 0.075320 0.708426
O O1 0.500000 0.831353 0.250000
O O2 0.487150 0.772365 0.031970
O O3 0.370507 0.868368 0.148580
O O4 0.567250 0.870934 0.957645
O O5 0.500000 0.117141 0.250000
O O6 0.686203 0.158160 0.150421
O O7 0.652859 0.055665 0.215050
O O8 0.645553 0.301559 0.857574
O O9 0.750000 0.250000 0.000000
O O10 0.641961 0.332775 0.130486
O O11 0.500000 0.705468 0.250000
O O12 0.458330 0.664744 0.547699
O O13 0.820618 0.547417 0.854912
O O14 0.000000 0.503482 0.750000
O O15 0.850860 0.466543 0.049742
O O16 0.500000 0.400710 0.250000
O O17 0.317137 0.411792 0.230305
#
# Coordination Sequence:
#
# PCOD9291067 Si02
#       7
#     8   8   8   8   8   8   8
#     4  11  23  37  59  92 130 162 197 246 319 384
#     4  11  20  37  58  89 122 155 204 257 307 378
#     4  11  20  36  65  89 119 167 212 257 316 378
#     4  10  23  41  60  92 129 165 206 262 314 371
#     4  11  23  39  63  90 128 155 203 259 313 371
#     4  10  22  42  64  87 122 164 213 259 304 372
#     4  12  23  42  62  92 124 163 207 257 312 366
#
# _framework density 19.574627
#
# number of rings (size 3 to 8) (size 9 to 14) (size 15 to 20)
#    0.000    1.143    4.286    3.429    2.000    2.286 
#    0.000    4.286    0.000    0.000    0.000    0.000 
#    0.000    0.000    0.000    0.000    0.000    0.000 
#
# Total GULP energy -156183.732952 kJ/mol
# GULP energy per Si atom -5577.990463 kJ/mol
# Density = 1.953007 g / cm^3
# Si number density = 19.574627 Si / 1000 Ang^3
#
#
#
# Elastic Constant Matrix: (Units=GPa)
#
#
# Indices 1 2 3 4 5 6 
#
# 1 126.5319 45.6361 26.8894 0.0000 -1.1756 0.0000
# 2 45.6361 60.6829 12.2729 0.0000 4.4538 0.0000
# 3 26.8894 12.2729 57.8411 0.0000 4.6131 0.0000
# 4 0.0000 0.0000 0.0000 21.5398 0.0000 2.6261
# 5 -1.1756 4.4538 4.6131 0.0000 25.5117 0.0000
# 6 0.0000 0.0000 0.0000 2.6261 0.0000 36.5088
#
#
#
# Elastic Compliance Matrix: (Units=1/GPa)
#
#
# Indices 1 2 3 4 5 6 
#
# 1 0.011727 -0.008223 -0.003921 0.000000 0.002685 0.000000
# 2 -0.008223 0.023128 -0.000743 0.000000 -0.004282 0.000000
# 3 -0.003921 -0.000743 0.019555 0.000000 -0.003587 0.000000
# 4 0.000000 0.000000 0.000000 0.046836 0.000000 -0.003369
# 5 0.002685 -0.004282 -0.003587 0.000000 0.040718 0.000000
# 6 0.000000 0.000000 0.000000 -0.003369 0.000000 0.027633
#
#
# Mechanical properties :
#
#
# Convention : Reuss Voigt Hill
#
# Bulk Modulus (GPa) = 34.92140 46.07252 40.49696
# Shear Modulus (GPa) = 24.39999 27.39588 25.89794
#
# Velocity S-wave (km/s) = 3.53443 3.74513 3.64130
# Velocity P-wave (km/s) = 5.87666 6.50302 6.19776
#
# Compressibility (1/GPa) = 0.02863574
#
# Stress axis : x y z
#
# Youngs Moduli (GPa) = 85.27088 43.23748 51.13704
#
# Poissons Ratio (x) = 0.35556 0.20051
# Poissons Ratio (y) = 0.70123 0.03799
# Poissons Ratio (z) = 0.33436 0.03212
#
# Static dielectric constant tensor:
#      x y z
#    x 1.753670 0.000000 0.091250 
#    y 0.000000 1.713520 0.000000 
#    z 0.091250 0.000000 2.048540 
# 
# From -- ./inp_files/42521.got.cif
#   From: 2010.05.17/outbox.cif.g08.bks.cpg/sg15_22_cif.got.tgz:42521.got - 2010.06.03 18:47:42.
