data_PCOD9291709
_publ_section_title
;
Structure prediction by ZEFSAII (Michael W. Deem and Ramdas Pophale) SiO2 
 PCOD9291709
Probable space group: C 2/C
;
_chemical_formula_sum "Si O2"
_cell_formula_units_Z 48
_cell_length_a 22.353688
_cell_length_b 10.800861
_cell_length_c 29.344021
_cell_angle_alpha 90.000000
_cell_angle_beta 161.671180
_cell_angle_gamma 90.000000
_cell_volume 2227.954828
_symmetry_space_group_name_H-M "C 2/C"
_symmetry_group_IT_number 15
_symmetry_cell_setting 'monoclinic'
loop_
_space_group_symop_operation_xyz
x,y,z
-x,y,1/2-z
-x,-y,-z
x,-y,1/2+z
1/2+x,1/2+y,z
1/2-x,1/2+y,1/2-z
1/2-x,1/2-y,-z
1/2+x,1/2-y,1/2+z
loop_
_atom_site_type_symbol
_atom_site_label
_atom_site_fract_x
_atom_site_fract_y
_atom_site_fract_z
Si Si1 0.524279 0.745262 0.654178
Si Si2 0.299771 0.995828 0.745341
Si Si3 0.304014 0.844444 0.078869
Si Si4 0.419203 0.125505 0.920144
Si Si5 0.666361 0.886876 0.903394
Si Si6 0.398551 0.629485 0.974467
O O1 0.570661 0.873342 0.662454
O O2 0.719485 0.669493 0.797679
O O3 0.434016 0.786355 0.636966
O O4 0.349679 0.664706 0.509117
O O5 0.092201 0.949127 0.611164
O O6 0.375251 0.094363 0.835704
O O7 0.265576 0.054848 0.670975
O O8 0.500000 0.818844 0.250000
O O9 0.152535 0.846577 0.010487
O O10 0.287693 0.979717 0.042558
O O11 0.250000 0.750000 0.000000
O O12 0.560686 0.242257 0.022818
O O13 0.500000 0.000000 0.000000
O O14 0.500000 0.922563 0.750000
#
# Coordination Sequence:
#
# PCOD9291709 Si02
#       6
#     8   8   8   8   8   8
#     4  10  23  41  66  98 129 175 231 283 351 411
#     4  10  22  43  68  96 134 176 226 289 343 422
#     4  11  25  43  68  98 139 184 232 288 355 426
#     4  11  26  39  68 101 140 175 233 294 348 422
#     4  10  22  42  70  93 133 178 230 287 344 423
#     4  10  24  42  69  94 133 182 226 282 358 414
#
# _framework density 21.544422999999998
#
# number of rings (size 3 to 8) (size 9 to 14) (size 15 to 20)
#    0.000    1.667    0.000    3.000   11.667    2.667 
#    0.000    3.333    0.000    0.000    0.000    0.000 
#    0.000    0.000    0.000    0.000    0.000    0.000 
#
# Total GULP energy -133937.276395 kJ/mol
# GULP energy per Si atom -5580.719850 kJ/mol
# Density = 2.149539 g / cm^3
# Si number density = 21.544423 Si / 1000 Ang^3
#
#
#
# Elastic Constant Matrix: (Units=GPa)
#
#
# Indices 1 2 3 4 5 6 
#
# 1 94.7117 23.9001 31.6750 0.0057 12.2045 0.0013
# 2 23.9001 117.7826 52.9949 0.0349 10.8782 0.0157
# 3 31.6750 52.9949 68.2821 0.0422 11.1298 0.0116
# 4 0.0057 0.0349 0.0422 21.6894 0.0065 -8.9674
# 5 12.2045 10.8782 11.1298 0.0065 33.4734 0.0037
# 6 0.0013 0.0157 0.0116 -8.9674 0.0037 33.8315
#
#
#
# Elastic Compliance Matrix: (Units=1/GPa)
#
#
# Indices 1 2 3 4 5 6 
#
# 1 0.012750 0.000197 -0.005603 0.000010 -0.002850 0.000004
# 2 0.000197 0.013076 -0.010082 -0.000003 -0.000969 -0.000003
# 3 -0.005603 -0.010082 0.025589 -0.000037 -0.003189 -0.000013
# 4 0.000010 -0.000003 -0.000037 0.051780 -0.000002 0.013725
# 5 -0.002850 -0.000969 -0.003189 -0.000002 0.032289 -0.000002
# 6 0.000004 -0.000003 -0.000013 0.013725 -0.000002 0.033196
#
#
# Mechanical properties :
#
#
# Convention : Reuss Voigt Hill
#
# Bulk Modulus (GPa) = 48.92619 55.32403 52.12511
# Shear Modulus (GPa) = 24.21686 29.27928 26.74807
#
# Velocity S-wave (km/s) = 3.35631 3.69049 3.52736
# Velocity P-wave (km/s) = 6.14642 6.62528 6.39034
#
# Compressibility (1/GPa) = 0.02043895
#
# Stress axis : x y z
#
# Youngs Moduli (GPa) = 78.43369 76.47602 39.07975
#
# Poissons Ratio (x) = -0.01506 0.21895
# Poissons Ratio (y) = -0.01545 0.39400
# Poissons Ratio (z) = 0.43944 0.77102
#
# Static dielectric constant tensor:
#      x y z
#    x 1.817400 0.000080 -0.001900 
#    y 0.000080 1.953110 -0.000050 
#    z -0.001900 -0.000050 1.824050 
# 
# From -- ./inp_files/300972.got.cif
#   From: 2010.05.17/outbox.cif.g08.bks.cpg/sg15_151_cif.got.tgz:300972.got - 2010.06.03 18:47:42.
