data_PCOD9291036
_publ_section_title
;
Structure prediction by ZEFSAII (Michael W. Deem and Ramdas Pophale) SiO2 
 PCOD9291036
Probable space group: C 2/C
;
_chemical_formula_sum "Si O2"
_cell_formula_units_Z 44
_cell_length_a 8.644506
_cell_length_b 23.233669
_cell_length_c 13.522638
_cell_angle_alpha 90.000000
_cell_angle_beta 131.012336
_cell_angle_gamma 90.000000
_cell_volume 2049.358618
_symmetry_space_group_name_H-M "C 2/C"
_symmetry_group_IT_number 15
_symmetry_cell_setting 'monoclinic'
loop_
_space_group_symop_operation_xyz
x,y,z
-x,y,1/2-z
-x,-y,-z
x,-y,1/2+z
1/2+x,1/2+y,z
1/2-x,1/2+y,1/2-z
1/2-x,1/2-y,-z
1/2+x,1/2-y,1/2+z
loop_
_atom_site_type_symbol
_atom_site_label
_atom_site_fract_x
_atom_site_fract_y
_atom_site_fract_z
Si Si1 0.448259 0.718280 0.538074
Si Si2 0.126770 0.583148 0.581016
Si Si3 0.368490 0.027394 0.294215
Si Si4 0.000000 0.160358 0.750000
Si Si5 0.183106 0.676969 0.063163
Si Si6 0.375826 0.361849 0.834605
O O1 0.250000 0.750000 0.500000
O O2 0.572774 0.697724 0.687023
O O3 0.582196 0.759997 0.523153
O O4 0.368996 0.664859 0.439957
O O5 0.185828 0.535277 0.686226
O O6 0.323272 0.619680 0.635151
O O7 0.015070 0.553751 0.441140
O O8 0.967173 0.631300 0.550803
O O9 0.500000 0.023645 0.250000
O O10 0.175811 0.070255 0.195433
O O11 0.404703 0.659442 0.114353
O O12 0.205474 0.665017 0.190400
#
# Coordination Sequence:
#
# PCOD9291036 Si02
#       6
#     8   8   8   4   8   8
#     4  12  23  40  66  94 131 170 211 264 322 390
#     4  10  23  41  63  93 130 163 215 273 319 374
#     4  10  22  42  68  91 124 173 221 267 319 383
#     4  12  24  40  62 100 128 170 214 264 324 390
#     4  10  22  42  63  95 131 166 212 267 327 381
#     4  10  23  41  67  93 128 174 214 263 328 386
#
# _framework density 21.470130999999999
#
# number of rings (size 3 to 8) (size 9 to 14) (size 15 to 20)
#    0.000    1.455    1.818    2.727    2.545    5.818 
#    0.000    2.727    0.000    0.000    0.000    0.000 
#    0.000    0.000    0.000    0.000    0.000    0.000 
#
# Total GULP energy -122715.829649 kJ/mol
# GULP energy per Si atom -5577.992257 kJ/mol
# Density = 2.142126 g / cm^3
# Si number density = 21.470131 Si / 1000 Ang^3
#
#
#
# Elastic Constant Matrix: (Units=GPa)
#
#
# Indices 1 2 3 4 5 6 
#
# 1 88.8379 51.2156 29.4769 0.0000 -1.8582 0.0000
# 2 51.2156 148.4185 51.2713 0.0000 -9.2937 0.0000
# 3 29.4769 51.2713 61.0276 0.0000 -9.8299 0.0000
# 4 0.0000 0.0000 0.0000 31.8655 0.0000 1.1812
# 5 -1.8582 -9.2937 -9.8299 0.0000 33.6602 0.0000
# 6 0.0000 0.0000 0.0000 1.1812 0.0000 17.0485
#
#
#
# Elastic Compliance Matrix: (Units=1/GPa)
#
#
# Indices 1 2 3 4 5 6 
#
# 1 0.014782 -0.003726 -0.004243 0.000000 -0.001452 0.000000
# 2 -0.003726 0.010435 -0.006859 0.000000 0.000672 0.000000
# 3 -0.004243 -0.006859 0.025033 0.000000 0.005182 0.000000
# 4 0.000000 0.000000 0.000000 0.031463 0.000000 -0.002180
# 5 -0.001452 0.000672 0.005182 0.000000 0.031328 0.000000
# 6 0.000000 0.000000 0.000000 -0.002180 0.000000 0.058807
#
#
# Mechanical properties :
#
#
# Convention : Reuss Voigt Hill
#
# Bulk Modulus (GPa) = 48.55933 62.46794 55.51363
# Shear Modulus (GPa) = 23.99602 27.60286 25.79944
#
# Velocity S-wave (km/s) = 3.34675 3.58947 3.47023
# Velocity P-wave (km/s) = 6.13193 6.80717 6.47835
#
# Compressibility (1/GPa) = 0.02059337
#
# Stress axis : x y z
#
# Youngs Moduli (GPa) = 67.64928 95.83232 39.94785
#
# Poissons Ratio (x) = 0.35707 0.16952
# Poissons Ratio (y) = 0.25206 0.27399
# Poissons Ratio (z) = 0.28707 0.65729
#
# Static dielectric constant tensor:
#      x y z
#    x 1.785290 0.000000 0.001810 
#    y 0.000000 1.818550 0.000000 
#    z 0.001810 0.000000 1.822190 
# 
# From -- ./inp_files/137574.got.cif
#   From: 2010.05.17/outbox.cif.g08.bks.cpg/sg15_69_cif.got.tgz:137574.got - 2010.06.03 18:47:42.
