data_PCOD9291906
_publ_section_title
;
Structure prediction by ZEFSAII (Michael W. Deem and Ramdas Pophale) SiO2 
 PCOD9291906
Probable space group: C 2/C
;
_chemical_formula_sum "Si O2"
_cell_formula_units_Z 64
_cell_length_a 25.331641
_cell_length_b 6.695398
_cell_length_c 26.413489
_cell_angle_alpha 90.000000
_cell_angle_beta 140.595814
_cell_angle_gamma 90.000000
_cell_volume 2843.763633
_symmetry_space_group_name_H-M "C 2/C"
_symmetry_group_IT_number 15
_symmetry_cell_setting 'monoclinic'
loop_
_space_group_symop_operation_xyz
x,y,z
-x,y,1/2-z
-x,-y,-z
x,-y,1/2+z
1/2+x,1/2+y,z
1/2-x,1/2+y,1/2-z
1/2-x,1/2-y,-z
1/2+x,1/2-y,1/2+z
loop_
_atom_site_type_symbol
_atom_site_label
_atom_site_fract_x
_atom_site_fract_y
_atom_site_fract_z
Si Si1 0.859320 0.606383 0.470613
Si Si2 0.192352 0.045599 0.636450
Si Si3 0.565111 0.285178 0.727026
Si Si4 0.059809 0.785422 0.479488
Si Si5 0.689084 0.542541 0.885480
Si Si6 0.606524 0.549952 0.422283
Si Si7 0.389463 0.446320 0.326720
Si Si8 0.136637 0.618821 0.279744
O O1 0.933029 0.452514 0.514102
O O2 0.780918 0.477225 0.431217
O O3 0.876575 0.766709 0.527406
O O4 0.834618 0.737852 0.403985
O O5 0.125443 0.884200 0.566409
O O6 0.279860 0.993525 0.676004
O O7 0.188634 0.039108 0.694226
O O8 0.633611 0.378270 0.814918
O O9 0.476313 0.388271 0.669577
O O10 0.590362 0.351411 0.688581
O O11 0.566211 0.047801 0.732553
O O12 0.968332 0.876270 0.418401
O O13 0.086023 0.863772 0.443068
O O14 0.679470 0.498671 0.937467
O O15 0.652972 0.757288 0.842816
O O16 0.380433 0.281549 0.276258
#
# Coordination Sequence:
#
# PCOD9291906 Si02
#       8
#     8   8   8   8   8   8   8   8
#     4  11  22  39  62  89 127 159 206 254 304 368
#     4  11  23  39  62  91 125 165 204 259 308 362
#     4  10  22  43  61  90 125 158 204 259 305 368
#     4  10  22  43  60  92 125 156 208 258 305 371
#     4  11  22  40  62  91 125 160 202 256 309 367
#     4  10  23  40  64  88 121 161 205 253 311 368
#     4  10  24  39  65  90 123 166 207 252 309 366
#     4  11  23  39  62  92 127 161 212 255 304 372
#
# _framework density 22.505386000000001
#
# number of rings (size 3 to 8) (size 9 to 14) (size 15 to 20)
#    0.000    1.500    2.500    1.875    1.750    3.000 
#    0.000    3.750    0.000    0.000    0.000    0.000 
#    0.000    0.000    0.000    0.000    0.000    0.000 
#
# Total GULP energy -179012.275392 kJ/mol
# GULP energy per Si atom -5594.133606 kJ/mol
# Density = 2.245416 g / cm^3
# Si number density = 22.505386 Si / 1000 Ang^3
#
#
#
# Elastic Constant Matrix: (Units=GPa)
#
#
# Indices 1 2 3 4 5 6 
#
# 1 63.0531 4.0776 -12.2636 -0.0003 -19.0118 -0.0009
# 2 4.0776 104.2108 0.3225 -0.0011 -9.7766 -0.0025
# 3 -12.2636 0.3225 33.2375 -0.0007 5.8969 -0.0001
# 4 -0.0003 -0.0011 -0.0007 30.8142 0.0000 12.8260
# 5 -19.0118 -9.7766 5.8969 0.0000 16.6871 -0.0010
# 6 -0.0009 -0.0025 -0.0001 12.8260 -0.0010 9.8258
#
#
#
# Elastic Compliance Matrix: (Units=1/GPa)
#
#
# Indices 1 2 3 4 5 6 
#
# 1 0.025007 0.001630 0.004254 -0.000004 0.027942 0.000011
# 2 0.001630 0.010308 -0.000960 -0.000002 0.008235 0.000007
# 3 0.004254 -0.000960 0.032972 0.000002 -0.007368 -0.000003
# 4 -0.000004 -0.000002 0.000002 0.071064 -0.000012 -0.092762
# 5 0.027942 0.008235 -0.007368 -0.000012 0.099190 0.000030
# 6 0.000011 0.000007 -0.000003 -0.092762 0.000030 0.222860
#
#
# Mechanical properties :
#
#
# Convention : Reuss Voigt Hill
#
# Bulk Modulus (GPa) = 12.79850 20.53046 16.66448
# Shear Modulus (GPa) = 10.46906 25.35640 17.91273
#
# Velocity S-wave (km/s) = 2.15914 3.36025 2.82429
# Velocity P-wave (km/s) = 3.45182 4.91908 4.24926
#
# Compressibility (1/GPa) = 0.07813413
#
# Stress axis : x y z
#
# Youngs Moduli (GPa) = 39.98924 97.01467 30.32836
#
# Poissons Ratio (x) = -0.15812 -0.12900
# Poissons Ratio (y) = -0.06517 0.02911
# Poissons Ratio (z) = -0.17009 0.09310
#
# Static dielectric constant tensor:
#      x y z
#    x 1.808820 0.000000 0.016760 
#    y 0.000000 1.817860 0.000000 
#    z 0.016760 0.000000 1.850250 
# 
# From -- ./inp_files/304108.got.cif
#   From: 2010.05.17/outbox.cif.g08.bks.cpg/sg15_153_cif.got.tgz:304108.got - 2010.06.03 18:47:42.
