data_PCOD9291483
_publ_section_title
;
Structure prediction by ZEFSAII (Michael W. Deem and Ramdas Pophale) SiO2 
 PCOD9291483
Probable space group: C 2/C
;
_chemical_formula_sum "Si O2"
_cell_formula_units_Z 32
_cell_length_a 26.916294
_cell_length_b 7.873890
_cell_length_c 19.704682
_cell_angle_alpha 90.000000
_cell_angle_beta 159.486443
_cell_angle_gamma 90.000000
_cell_volume 1463.437159
_symmetry_space_group_name_H-M "C 2/C"
_symmetry_group_IT_number 15
_symmetry_cell_setting 'monoclinic'
loop_
_space_group_symop_operation_xyz
x,y,z
-x,y,1/2-z
-x,-y,-z
x,-y,1/2+z
1/2+x,1/2+y,z
1/2-x,1/2+y,1/2-z
1/2-x,1/2-y,-z
1/2+x,1/2-y,1/2+z
loop_
_atom_site_type_symbol
_atom_site_label
_atom_site_fract_x
_atom_site_fract_y
_atom_site_fract_z
Si Si1 0.119202 0.376718 0.623329
Si Si2 0.332129 0.209466 0.534846
Si Si3 0.884735 0.923947 0.481574
Si Si4 0.884124 0.062263 0.794935
O O1 0.076520 0.254574 0.506135
O O2 0.252841 0.490657 0.774754
O O3 0.159850 0.246056 0.735530
O O4 0.000000 0.500000 0.500000
O O5 0.500000 0.163573 0.750000
O O6 0.250000 0.250000 0.500000
O O7 0.332028 0.377742 0.488347
O O8 0.243040 0.065335 0.381825
O O9 0.017500 0.048965 0.646090
O O10 0.000000 0.000000 0.000000
#
# Coordination Sequence:
#
# PCOD9291483 Si02
#       4
#     8   8   8   8
#     4  11  22  39  71 105 140 183 248 314 363 428
#     4  12  25  46  74 103 152 199 238 299 383 445
#     4  11  21  41  66 100 143 183 244 304 366 434
#     4  10  22  42  68 103 136 188 246 294 358 440
#
# _framework density 21.866330000000001
#
# number of rings (size 3 to 8) (size 9 to 14) (size 15 to 20)
#    0.000    1.000    2.500    7.500    0.000    0.000 
#    0.000    2.500    0.000    0.000    0.000    0.000 
#    0.000    0.000    0.000    0.000    0.000    0.000 
#
# Total GULP energy -89271.801238 kJ/mol
# GULP energy per Si atom -5579.487577 kJ/mol
# Density = 2.181656 g / cm^3
# Si number density = 21.866330 Si / 1000 Ang^3
#
#
#
# Elastic Constant Matrix: (Units=GPa)
#
#
# Indices 1 2 3 4 5 6 
#
# 1 144.9188 43.4347 26.0029 0.0000 18.9661 0.0000
# 2 43.4347 85.4605 36.2138 0.0000 3.1538 0.0000
# 3 26.0029 36.2138 138.7406 0.0000 15.6156 0.0000
# 4 0.0000 0.0000 0.0000 39.9233 0.0000 10.9202
# 5 18.9661 3.1538 15.6156 0.0000 37.5191 0.0000
# 6 0.0000 0.0000 0.0000 10.9202 0.0000 36.1637
#
#
#
# Elastic Compliance Matrix: (Units=1/GPa)
#
#
# Indices 1 2 3 4 5 6 
#
# 1 0.008713 -0.004250 -0.000072 0.000000 -0.004017 0.000000
# 2 -0.004250 0.015233 -0.003438 0.000000 0.002299 0.000000
# 3 -0.000072 -0.003438 0.008479 0.000000 -0.003204 0.000000
# 4 0.000000 0.000000 0.000000 0.027303 0.000000 -0.008245
# 5 -0.004017 0.002299 -0.003204 0.000000 0.029824 0.000000
# 6 0.000000 0.000000 0.000000 -0.008245 0.000000 0.030142
#
#
# Mechanical properties :
#
#
# Convention : Reuss Voigt Hill
#
# Bulk Modulus (GPa) = 59.15044 64.49140 61.82092
# Shear Modulus (GPa) = 35.49910 40.28581 37.89245
#
# Velocity S-wave (km/s) = 4.03359 4.29694 4.16734
# Velocity P-wave (km/s) = 6.98590 7.36042 7.17560
#
# Compressibility (1/GPa) = 0.01690605
#
# Stress axis : x y z
#
# Youngs Moduli (GPa) = 114.77506 65.64552 117.93547
#
# Poissons Ratio (x) = 0.27897 0.00844
# Poissons Ratio (y) = 0.48775 0.40552
# Poissons Ratio (z) = 0.00821 0.22572
#
# Static dielectric constant tensor:
#      x y z
#    x 1.975970 0.000000 -0.003490 
#    y 0.000000 1.794750 0.000000 
#    z -0.003490 0.000000 1.824730 
# 
# From -- ./inp_files/247714.got.cif
#   From: 2010.05.17/outbox.cif.g08.bks.cpg/sg15_124_cif.got.tgz:247714.got - 2010.06.03 18:47:42.
