data_PCOD9291894
_publ_section_title
;
Structure prediction by ZEFSAII (Michael W. Deem and Ramdas Pophale) SiO2 
 PCOD9291894
Probable space group: C 2/C
;
_chemical_formula_sum "Si O2"
_cell_formula_units_Z 28
_cell_length_a 10.917674
_cell_length_b 16.763903
_cell_length_c 7.836862
_cell_angle_alpha 90.000000
_cell_angle_beta 121.843075
_cell_angle_gamma 90.000000
_cell_volume 1218.453461
_symmetry_space_group_name_H-M "C 2/C"
_symmetry_group_IT_number 15
_symmetry_cell_setting 'monoclinic'
loop_
_space_group_symop_operation_xyz
x,y,z
-x,y,1/2-z
-x,-y,-z
x,-y,1/2+z
1/2+x,1/2+y,z
1/2-x,1/2+y,1/2-z
1/2-x,1/2-y,-z
1/2+x,1/2-y,1/2+z
loop_
_atom_site_type_symbol
_atom_site_label
_atom_site_fract_x
_atom_site_fract_y
_atom_site_fract_z
Si Si1 0.500000 0.546398 0.750000
Si Si2 0.670793 0.325540 0.217138
Si Si3 0.663612 0.392888 0.877460
Si Si4 0.350995 0.850946 0.694815
O O1 0.452599 0.606830 0.861437
O O2 0.629613 0.486197 0.887849
O O3 0.613792 0.236296 0.197085
O O4 0.766486 0.339158 0.455316
O O5 0.741749 0.346003 0.088294
O O6 0.500000 0.356512 0.750000
O O7 0.751960 0.388643 0.768003
O O8 0.500000 0.891922 0.750000
#
# Coordination Sequence:
#
# PCOD9291894 Si02
#       4
#     4   8   8   8
#     4  10  22  42  76  98 126 178 234 270 318 402
#     4  11  22  42  67  96 136 175 224 275 320 400
#     4  10  24  40  71 100 126 173 232 272 323 391
#     4  11  25  41  65 100 138 175 218 273 343 388
#
# _framework density 22.979949000000001
#
# number of rings (size 3 to 8) (size 9 to 14) (size 15 to 20)
#    0.857    0.571    1.429    3.429    8.000    1.143 
#    0.000    1.429    0.000    0.000    0.000    0.000 
#    0.000    0.000    0.000    0.000    0.000    0.000 
#
# Total GULP energy -78090.891257 kJ/mol
# GULP energy per Si atom -5577.920804 kJ/mol
# Density = 2.292765 g / cm^3
# Si number density = 22.979949 Si / 1000 Ang^3
#
#
#
# Elastic Constant Matrix: (Units=GPa)
#
#
# Indices 1 2 3 4 5 6 
#
# 1 142.1327 20.6862 55.4791 0.0000 -17.2701 0.0000
# 2 20.6862 93.7427 22.4524 0.0000 -1.6343 0.0000
# 3 55.4791 22.4524 120.7634 0.0000 -39.5315 0.0000
# 4 0.0000 0.0000 0.0000 -26.1104 0.0000 -25.3402
# 5 -17.2701 -1.6343 -39.5315 0.0000 24.2503 0.0000
# 6 0.0000 0.0000 0.0000 -25.3402 0.0000 15.1473
#
#
#
# Elastic Compliance Matrix: (Units=1/GPa)
#
#
# Indices 1 2 3 4 5 6 
#
# 1 0.008663 -0.000992 -0.003855 0.000000 -0.000181 0.000000
# 2 -0.000992 0.011650 -0.003612 0.000000 -0.005809 0.000000
# 3 -0.003855 -0.003612 0.020895 0.000000 0.031073 0.000000
# 4 0.000000 0.000000 0.000000 -0.014598 0.000000 -0.024421
# 5 -0.000181 -0.005809 0.031073 0.000000 0.091369 0.000000
# 6 0.000000 0.000000 0.000000 -0.024421 0.000000 0.025164
#
#
# Mechanical properties :
#
#
# Convention : Reuss Voigt Hill
#
# Bulk Modulus (GPa) = 41.16791 61.54159 51.35475
# Shear Modulus (GPa) = 29.73440 19.85884 24.79662
#
# Velocity S-wave (km/s) = 3.60102 2.94289 3.28846
# Velocity P-wave (km/s) = 5.93662 6.19565 6.06752
#
# Compressibility (1/GPa) = 0.02429077
#
# Stress axis : x y z
#
# Youngs Moduli (GPa) = 115.43961 85.83567 47.85924
#
# Poissons Ratio (x) = 0.08511 0.18448
# Poissons Ratio (y) = 0.11446 0.17288
# Poissons Ratio (z) = 0.44497 0.31005
#
# Static dielectric constant tensor:
#      x y z
#    x 1.962380 0.000000 -0.025040 
#    y 0.000000 1.873950 0.000000 
#    z -0.025040 0.000000 1.917170 
# 
# From -- ./inp_files/28260.got.cif
#   From: 2010.05.17/outbox.cif.g08.bks.cpg/sg15_15_cif.got.tgz:28260.got - 2010.06.03 18:47:42.
