data_PCOD9291950
_publ_section_title
;
Structure prediction by ZEFSAII (Michael W. Deem and Ramdas Pophale) SiO2 
 PCOD9291950
Probable space group: C 2/C
;
_chemical_formula_sum "Si O2"
_cell_formula_units_Z 40
_cell_length_a 12.313352
_cell_length_b 16.493014
_cell_length_c 8.193700
_cell_angle_alpha 90.000000
_cell_angle_beta 91.062031
_cell_angle_gamma 90.000000
_cell_volume 1663.725869
_symmetry_space_group_name_H-M "C 2/C"
_symmetry_group_IT_number 15
_symmetry_cell_setting 'monoclinic'
loop_
_space_group_symop_operation_xyz
x,y,z
-x,y,1/2-z
-x,-y,-z
x,-y,1/2+z
1/2+x,1/2+y,z
1/2-x,1/2+y,1/2-z
1/2-x,1/2-y,-z
1/2+x,1/2-y,1/2+z
loop_
_atom_site_type_symbol
_atom_site_label
_atom_site_fract_x
_atom_site_fract_y
_atom_site_fract_z
Si Si1 0.000000 0.880476 0.750000
Si Si2 0.877098 0.250315 0.447125
Si Si3 0.775087 0.450982 0.758773
Si Si4 0.500000 0.323434 0.250000
Si Si5 0.912109 0.427951 0.464734
Si Si6 0.138750 0.936464 0.040448
O O1 0.906572 0.819107 0.815180
O O2 0.955510 0.934801 0.599655
O O3 0.750000 0.250000 0.500000
O O4 0.923839 0.337737 0.396431
O O5 0.948959 0.226617 0.604136
O O6 0.860227 0.410479 0.641507
O O7 0.830078 0.531198 0.834603
O O8 0.681635 0.483570 0.632993
O O9 0.736997 0.407835 0.923811
O O10 0.595885 0.378106 0.178376
O O11 0.000000 0.500000 0.500000
#
# Coordination Sequence:
#
# PCOD9291950 Si02
#       6
#     4   8   8   4   8   8
#     4  10  24  43  67  98 132 184 236 286 344 432
#     4  11  24  45  69  98 142 186 234 291 353 422
#     4  10  23  41  66  96 132 182 220 292 350 418
#     4  10  24  43  67  98 132 184 236 286 344 432
#     4  11  24  41  68  97 139 178 236 288 347 420
#     4  10  22  43  63  98 130 171 232 281 349 417
#
# _framework density 24.042421999999998
#
# number of rings (size 3 to 8) (size 9 to 14) (size 15 to 20)
#    0.000    1.600    0.000    3.000    5.600    7.200 
#    0.000    4.000    0.000    0.000    0.000    0.000 
#    0.000    0.000    0.000    0.000    0.000    0.000 
#
# Total GULP energy -111575.303403 kJ/mol
# GULP energy per Si atom -5578.765170 kJ/mol
# Density = 2.398770 g / cm^3
# Si number density = 24.042422 Si / 1000 Ang^3
#
#
#
# Elastic Constant Matrix: (Units=GPa)
#
#
# Indices 1 2 3 4 5 6 
#
# 1 92.0903 42.9149 16.9869 0.0000 -17.2543 0.0000
# 2 42.9149 129.0399 40.5480 0.0000 -2.0262 0.0000
# 3 16.9869 40.5480 96.6795 0.0000 -23.2983 0.0000
# 4 0.0000 0.0000 0.0000 28.6889 0.0000 1.5645
# 5 -17.2543 -2.0262 -23.2983 0.0000 55.1217 0.0000
# 6 0.0000 0.0000 0.0000 1.5645 0.0000 25.9284
#
#
#
# Elastic Compliance Matrix: (Units=1/GPa)
#
#
# Indices 1 2 3 4 5 6 
#
# 1 0.013759 -0.004699 0.000612 0.000000 0.004393 0.000000
# 2 -0.004699 0.010628 -0.004334 0.000000 -0.002912 0.000000
# 3 0.000612 -0.004334 0.013429 0.000000 0.005708 0.000000
# 4 0.000000 0.000000 0.000000 0.034972 0.000000 -0.002110
# 5 0.004393 -0.002912 0.005708 0.000000 0.021822 0.000000
# 6 0.000000 0.000000 0.000000 -0.002110 0.000000 0.038695
#
#
# Mechanical properties :
#
#
# Convention : Reuss Voigt Hill
#
# Bulk Modulus (GPa) = 47.67656 57.63437 52.65547
# Shear Modulus (GPa) = 31.81899 36.43848 34.12873
#
# Velocity S-wave (km/s) = 3.64187 3.89728 3.77174
# Velocity P-wave (km/s) = 6.12842 6.65400 6.39661
#
# Compressibility (1/GPa) = 0.02097467
#
# Stress axis : x y z
#
# Youngs Moduli (GPa) = 72.68028 94.08777 74.46496
#
# Poissons Ratio (x) = 0.44213 -0.04557
# Poissons Ratio (y) = 0.34153 0.32271
# Poissons Ratio (z) = -0.04448 0.40775
#
# Static dielectric constant tensor:
#      x y z
#    x 2.114950 0.000000 -0.060820 
#    y 0.000000 1.887850 0.000000 
#    z -0.060820 0.000000 1.898950 
# 
# From -- ./inp_files/29255.got.cif
#   From: 2010.05.17/outbox.cif.g08.bks.cpg/sg15_15_cif.got.tgz:29255.got - 2010.06.03 18:47:42.
