data_PCOD9291787
_publ_section_title
;
Structure prediction by ZEFSAII (Michael W. Deem and Ramdas Pophale) SiO2 
 PCOD9291787
Probable space group: C 2/C
;
_chemical_formula_sum "Si O2"
_cell_formula_units_Z 60
_cell_length_a 17.300081
_cell_length_b 11.020673
_cell_length_c 21.748739
_cell_angle_alpha 90.000000
_cell_angle_beta 137.085276
_cell_angle_gamma 90.000000
_cell_volume 2823.445901
_symmetry_space_group_name_H-M "C 2/C"
_symmetry_group_IT_number 15
_symmetry_cell_setting 'monoclinic'
loop_
_space_group_symop_operation_xyz
x,y,z
-x,y,1/2-z
-x,-y,-z
x,-y,1/2+z
1/2+x,1/2+y,z
1/2-x,1/2+y,1/2-z
1/2-x,1/2-y,-z
1/2+x,1/2-y,1/2+z
loop_
_atom_site_type_symbol
_atom_site_label
_atom_site_fract_x
_atom_site_fract_y
_atom_site_fract_z
Si Si1 0.000000 0.984581 0.250000
Si Si2 0.305235 0.678006 0.589278
Si Si3 0.113431 0.019822 0.100900
Si Si4 0.361979 0.249338 0.344272
Si Si5 0.318438 0.852079 0.693996
Si Si6 0.936675 0.564762 0.022463
Si Si7 0.527018 0.071905 0.691783
Si Si8 0.129107 0.839312 0.735909
O O1 0.920476 0.071703 0.242972
O O2 0.913367 0.912895 0.153389
O O3 0.250000 0.750000 0.500000
O O4 0.363261 0.788646 0.660594
O O5 0.195066 0.611426 0.557463
O O6 0.150281 0.885003 0.139735
O O7 0.195749 0.097591 0.106056
O O8 0.104214 0.099681 0.156237
O O9 0.000000 0.000000 0.000000
O O10 0.324547 0.246357 0.251246
O O11 0.483602 0.184409 0.420871
O O12 0.264605 0.172731 0.321658
O O13 0.377220 0.969192 0.756183
O O14 0.944958 0.476268 0.088376
O O15 0.000000 0.500000 0.000000
O O16 0.500000 0.069908 0.750000
O O17 0.572030 0.206548 0.704753
#
# Coordination Sequence:
#
# PCOD9291787 Si02
#       8
#     4   8   8   8   8   8   8   8
#     4  12  28  48  70  98 148 184 232 290 360 446
#     4  12  28  46  72 105 140 186 243 300 366 432
#     4  11  23  38  67 100 135 171 230 297 343 411
#     4  10  22  42  71  99 135 178 239 292 350 419
#     4  10  23  41  70  93 131 181 230 289 347 417
#     4  11  26  44  72 104 143 188 244 304 362 437
#     4  11  23  45  68 102 143 190 234 288 367 439
#     4  11  24  44  67 103 137 192 231 284 363 429
#
# _framework density 21.250629
#
# number of rings (size 3 to 8) (size 9 to 14) (size 15 to 20)
#    0.000    1.067    2.000    3.200   14.000    0.000 
#    0.000    0.667    0.000    0.000    0.000    0.000 
#    0.000    0.000    0.000    0.000    0.000    0.000 
#
# Total GULP energy -167139.194334 kJ/mol
# GULP energy per Si atom -5571.306478 kJ/mol
# Density = 2.120226 g / cm^3
# Si number density = 21.250629 Si / 1000 Ang^3
#
#
#
# Elastic Constant Matrix: (Units=GPa)
#
#
# Indices 1 2 3 4 5 6 
#
# 1 58.7620 29.1579 25.6785 0.0000 0.3491 0.0000
# 2 29.1579 98.3619 40.1637 0.0000 -2.8197 0.0000
# 3 25.6785 40.1637 87.0055 0.0000 20.9288 0.0000
# 4 0.0000 0.0000 0.0000 23.1006 0.0000 -4.7006
# 5 0.3491 -2.8197 20.9288 0.0000 23.6907 0.0000
# 6 0.0000 0.0000 0.0000 -4.7006 0.0000 22.4228
#
#
#
# Elastic Compliance Matrix: (Units=1/GPa)
#
#
# Indices 1 2 3 4 5 6 
#
# 1 0.021345 -0.004004 -0.005411 0.000000 0.003989 0.000000
# 2 -0.004004 0.014742 -0.007695 0.000000 0.008612 0.000000
# 3 -0.005411 -0.007695 0.021389 0.000000 -0.019732 0.000000
# 4 0.000000 0.000000 0.000000 0.045218 0.000000 0.009479
# 5 0.003989 0.008612 -0.019732 0.000000 0.060609 0.000000
# 6 0.000000 0.000000 0.000000 0.009479 0.000000 0.046585
#
#
# Mechanical properties :
#
#
# Convention : Reuss Voigt Hill
#
# Bulk Modulus (GPa) = 42.99839 48.23664 45.61751
# Shear Modulus (GPa) = 19.85220 23.78477 21.81849
#
# Velocity S-wave (km/s) = 3.05977 3.34915 3.20773
# Velocity P-wave (km/s) = 5.72371 6.14035 5.93569
#
# Compressibility (1/GPa) = 0.02325669
#
# Stress axis : x y z
#
# Youngs Moduli (GPa) = 46.84847 67.83132 46.75202
#
# Poissons Ratio (x) = 0.27157 0.25299
# Poissons Ratio (y) = 0.18756 0.35978
# Poissons Ratio (z) = 0.25351 0.52199
#
# Static dielectric constant tensor:
#      x y z
#    x 1.636960 0.000000 0.199020 
#    y 0.000000 1.786060 0.000000 
#    z 0.199020 0.000000 1.686030 
# 
# From -- ./inp_files/248787.got.cif
#   From: 2010.05.17/outbox.cif.g08.bks.cpg/sg15_125_cif.got.tgz:248787.got - 2010.06.03 18:47:42.
