data_PCOD9291997
_publ_section_title
;
Structure prediction by ZEFSAII (Michael W. Deem and Ramdas Pophale) SiO2 
 PCOD9291997
Probable space group: C 2/C
;
_chemical_formula_sum "Si O2"
_cell_formula_units_Z 44
_cell_length_a 16.587060
_cell_length_b 17.584355
_cell_length_c 7.273679
_cell_angle_alpha 90.000000
_cell_angle_beta 116.920012
_cell_angle_gamma 90.000000
_cell_volume 1891.643382
_symmetry_space_group_name_H-M "C 2/C"
_symmetry_group_IT_number 15
_symmetry_cell_setting 'monoclinic'
loop_
_space_group_symop_operation_xyz
x,y,z
-x,y,1/2-z
-x,-y,-z
x,-y,1/2+z
1/2+x,1/2+y,z
1/2-x,1/2+y,1/2-z
1/2-x,1/2-y,-z
1/2+x,1/2-y,1/2+z
loop_
_atom_site_type_symbol
_atom_site_label
_atom_site_fract_x
_atom_site_fract_y
_atom_site_fract_z
Si Si1 0.397438 0.245194 0.714509
Si Si2 0.861384 0.901830 0.596562
Si Si3 0.615051 0.083266 0.692801
Si Si4 0.916834 0.856103 0.024903
Si Si5 0.500000 0.953013 0.750000
Si Si6 0.798420 0.051791 0.671004
O O1 0.500000 0.253735 0.750000
O O2 0.340328 0.311811 0.555084
O O3 0.374643 0.157529 0.671774
O O4 0.393929 0.272055 0.924639
O O5 0.873986 0.935023 0.407534
O O6 0.792280 0.964240 0.605309
O O7 0.931399 0.897103 0.840310
O O8 0.534846 0.093930 0.459637
O O9 0.705833 0.075080 0.669819
O O10 0.580858 0.009324 0.767701
O O11 0.833147 0.897026 0.038753
O O12 0.000000 0.856553 0.250000
#
# Coordination Sequence:
#
# PCOD9291997 Si02
#       6
#     8   8   8   8   4   8
#     4  10  22  43  64  98 133 175 220 280 331 392
#     4  10  23  39  65  93 135 178 215 273 328 389
#     4  11  24  43  71  96 134 170 225 279 334 399
#     4  10  24  40  64  96 134 178 221 269 327 396
#     4  10  24  44  68 100 122 182 220 272 340 402
#     4  12  22  44  64 101 135 179 226 272 327 399
#
# _framework density 23.260196000000001
#
# number of rings (size 3 to 8) (size 9 to 14) (size 15 to 20)
#    1.091    0.364    2.727    2.182    1.273    2.909 
#    0.000    0.000    0.000    0.000    0.000    0.000 
#    0.000    0.000    0.000    0.000    0.000    0.000 
#
# Total GULP energy -122503.220047 kJ/mol
# GULP energy per Si atom -5568.328184 kJ/mol
# Density = 2.320725 g / cm^3
# Si number density = 23.260196 Si / 1000 Ang^3
#
#
#
# Elastic Constant Matrix: (Units=GPa)
#
#
# Indices 1 2 3 4 5 6 
#
# 1 90.1626 21.5314 -23.6417 0.0000 -4.7823 0.0000
# 2 21.5314 122.2426 -17.6979 0.0000 -2.4937 0.0000
# 3 -23.6417 -17.6979 78.4136 0.0000 -13.6068 0.0000
# 4 0.0000 0.0000 0.0000 14.9882 0.0000 -7.5694
# 5 -4.7823 -2.4937 -13.6068 0.0000 33.4855 0.0000
# 6 0.0000 0.0000 0.0000 -7.5694 0.0000 31.3918
#
#
#
# Elastic Compliance Matrix: (Units=1/GPa)
#
#
# Indices 1 2 3 4 5 6 
#
# 1 0.012710 -0.001583 0.004055 0.000000 0.003345 0.000000
# 2 -0.001583 0.008726 0.001684 0.000000 0.001108 0.000000
# 3 0.004055 0.001684 0.015576 0.000000 0.007034 0.000000
# 4 0.000000 0.000000 0.000000 0.075970 0.000000 0.018318
# 5 0.003345 0.001108 0.007034 0.000000 0.033282 0.000000
# 6 0.000000 0.000000 0.000000 0.018318 0.000000 0.036273
#
#
# Mechanical properties :
#
#
# Convention : Reuss Voigt Hill
#
# Bulk Modulus (GPa) = 22.06329 27.91137 24.98733
# Shear Modulus (GPa) = 26.40853 36.68158 31.54505
#
# Velocity S-wave (km/s) = 3.37316 3.97547 3.68663
# Velocity P-wave (km/s) = 4.96759 5.75310 5.37471
#
# Compressibility (1/GPa) = 0.04532415
#
# Stress axis : x y z
#
# Youngs Moduli (GPa) = 78.67873 114.60274 64.20033
#
# Poissons Ratio (x) = 0.18146 -0.26034
# Poissons Ratio (y) = 0.12458 -0.10813
# Poissons Ratio (z) = -0.31905 -0.19303
#
# Static dielectric constant tensor:
#      x y z
#    x 1.873980 0.000000 0.043610 
#    y 0.000000 1.901530 0.000000 
#    z 0.043610 0.000000 1.928400 
# 
# From -- ./inp_files/39335.got.cif
#   From: 2010.05.17/outbox.cif.g08.bks.cpg/sg15_20_cif.got.tgz:39335.got - 2010.06.03 18:47:42.
