data_PCOD9291130
_publ_section_title
;
Structure prediction by ZEFSAII (Michael W. Deem and Ramdas Pophale) SiO2 
 PCOD9291130
Probable space group: C 2/C
;
_chemical_formula_sum "Si O2"
_cell_formula_units_Z 44
_cell_length_a 26.243138
_cell_length_b 5.745668
_cell_length_c 15.583443
_cell_angle_alpha 90.000000
_cell_angle_beta 62.540909
_cell_angle_gamma 90.000000
_cell_volume 2085.018496
_symmetry_space_group_name_H-M "C 2/C"
_symmetry_group_IT_number 15
_symmetry_cell_setting 'monoclinic'
loop_
_space_group_symop_operation_xyz
x,y,z
-x,y,1/2-z
-x,-y,-z
x,-y,1/2+z
1/2+x,1/2+y,z
1/2-x,1/2+y,1/2-z
1/2-x,1/2-y,-z
1/2+x,1/2-y,1/2+z
loop_
_atom_site_type_symbol
_atom_site_label
_atom_site_fract_x
_atom_site_fract_y
_atom_site_fract_z
Si Si1 0.221053 0.560355 0.253274
Si Si2 0.500000 0.733917 0.250000
Si Si3 0.351800 0.207390 0.032710
Si Si4 0.907718 0.907536 0.397541
Si Si5 0.475258 0.028606 0.425646
Si Si6 0.303648 0.097360 0.425380
O O1 0.241033 0.302153 0.270611
O O2 0.171313 0.640218 0.356926
O O3 0.206917 0.524882 0.164268
O O4 0.441943 0.586543 0.310624
O O5 0.509759 0.895889 0.325160
O O6 0.366279 0.473244 0.000360
O O7 0.412723 0.085607 0.975307
O O8 0.311598 0.109837 0.988009
O O9 0.960597 0.786212 0.405737
O O10 0.864037 0.739819 0.381512
O O11 0.500000 0.000000 0.500000
O O12 0.250000 0.250000 0.500000
#
# Coordination Sequence:
#
# PCOD9291130 Si02
#       6
#     8   4   8   8   8   8
#     4  12  27  43  69 102 136 185 235 286 349 423
#     4  10  22  42  64  96 132 178 234 282 360 426
#     4  10  24  42  65 100 131 181 230 282 355 416
#     4  10  23  41  68  96 136 183 232 288 357 427
#     4  10  23  42  66  96 134 173 227 294 349 426
#     4  11  23  44  68  96 141 181 228 295 348 425
#
# _framework density 21.102929
#
# number of rings (size 3 to 8) (size 9 to 14) (size 15 to 20)
#    0.000    1.455    1.818    1.636    5.091   11.636 
#    0.000    0.000    0.000    0.000    0.000    0.000 
#    0.000    0.000    0.000    0.000    0.000    0.000 
#
# Total GULP energy -122700.599106 kJ/mol
# GULP energy per Si atom -5577.299959 kJ/mol
# Density = 2.105490 g / cm^3
# Si number density = 21.102929 Si / 1000 Ang^3
#
#
#
# Elastic Constant Matrix: (Units=GPa)
#
#
# Indices 1 2 3 4 5 6 
#
# 1 93.4172 27.1087 39.6780 0.0000 27.5518 0.0002
# 2 27.1087 65.3268 19.2818 -0.0011 6.3214 -0.0014
# 3 39.6780 19.2818 134.3495 -0.0003 21.2348 -0.0002
# 4 0.0000 -0.0011 -0.0003 29.0344 0.0002 -9.7688
# 5 27.5518 6.3214 21.2348 0.0002 43.8384 0.0001
# 6 0.0002 -0.0014 -0.0002 -9.7688 0.0001 18.5993
#
#
#
# Elastic Compliance Matrix: (Units=1/GPa)
#
#
# Indices 1 2 3 4 5 6 
#
# 1 0.015555 -0.004917 -0.002659 0.000000 -0.007779 -0.000001
# 2 -0.004917 0.017607 -0.001258 0.000001 0.001161 0.000002
# 3 -0.002659 -0.001258 0.008789 0.000000 -0.002405 0.000000
# 4 0.000000 0.000001 0.000000 0.041835 0.000000 0.021972
# 5 -0.007779 0.001161 -0.002405 0.000000 0.028698 0.000000
# 6 -0.000001 0.000002 0.000000 0.021972 0.000000 0.065306
#
#
# Mechanical properties :
#
#
# Convention : Reuss Voigt Hill
#
# Bulk Modulus (GPa) = 41.18106 51.69229 46.43667
# Shear Modulus (GPa) = 24.56362 32.09609 28.32986
#
# Velocity S-wave (km/s) = 3.41543 3.90414 3.66794
# Velocity P-wave (km/s) = 5.92540 6.69863 6.32384
#
# Compressibility (1/GPa) = 0.02428301
#
# Stress axis : x y z
#
# Youngs Moduli (GPa) = 64.28678 56.79464 113.77632
#
# Poissons Ratio (x) = 0.27929 0.30249
# Poissons Ratio (y) = 0.31613 0.14315
# Poissons Ratio (z) = 0.17092 0.07146
#
# Static dielectric constant tensor:
#      x y z
#    x 1.753230 0.000000 -0.008360 
#    y 0.000000 1.969230 0.000000 
#    z -0.008360 0.000000 1.756370 
# 
# From -- ./inp_files/175359.got.cif
#   From: 2010.05.17/outbox.cif.g08.bks.cpg/sg15_88_cif.got.tgz:175359.got - 2010.06.03 18:47:42.
