data_PCOD9291105
_publ_section_title
;
Structure prediction by ZEFSAII (Michael W. Deem and Ramdas Pophale) SiO2 
 PCOD9291105
Probable space group: C 2/C
;
_chemical_formula_sum "Si O2"
_cell_formula_units_Z 40
_cell_length_a 9.897545
_cell_length_b 13.677745
_cell_length_c 15.373526
_cell_angle_alpha 90.000000
_cell_angle_beta 116.585209
_cell_angle_gamma 90.000000
_cell_volume 1861.161403
_symmetry_space_group_name_H-M "C 2/C"
_symmetry_group_IT_number 15
_symmetry_cell_setting 'monoclinic'
loop_
_space_group_symop_operation_xyz
x,y,z
-x,y,1/2-z
-x,-y,-z
x,-y,1/2+z
1/2+x,1/2+y,z
1/2-x,1/2+y,1/2-z
1/2-x,1/2-y,-z
1/2+x,1/2-y,1/2+z
loop_
_atom_site_type_symbol
_atom_site_label
_atom_site_fract_x
_atom_site_fract_y
_atom_site_fract_z
Si Si1 0.663357 0.819493 0.723671
Si Si2 0.857938 0.213479 0.107565
Si Si3 0.406868 0.501757 0.562859
Si Si4 0.500000 0.129712 0.750000
Si Si5 0.000000 0.862527 0.250000
Si Si6 0.351360 0.945702 0.630018
O O1 0.758421 0.802956 0.665416
O O2 0.624540 0.713474 0.750856
O O3 0.509114 0.884876 0.660279
O O4 0.735073 0.879980 0.823812
O O5 0.986110 0.293956 0.166139
O O6 0.914236 0.107335 0.099948
O O7 0.750000 0.250000 0.000000
O O8 0.500000 0.500000 0.500000
O O9 0.456842 0.572716 0.654662
O O10 0.239529 0.534550 0.483420
O O11 0.374286 0.050231 0.684985
#
# Coordination Sequence:
#
# PCOD9291105 Si02
#       6
#     8   8   8   4   4   8
#     4   9  23  44  69  95 131 175 224 272 341 402
#     4  12  24  42  66 101 129 172 228 278 335 398
#     4  12  26  42  67 102 138 177 226 279 337 400
#     4  10  22  42  64  94 126 166 212 274 326 390
#     4  10  24  44  64 100 134 176 218 286 336 386
#     4   9  22  47  66  94 132 177 220 268 335 409
#
# _framework density 21.491955999999998
#
# number of rings (size 3 to 8) (size 9 to 14) (size 15 to 20)
#    0.000    2.000    2.000    1.800    5.600    5.600 
#    3.600    0.000    0.000    0.000    0.000    0.000 
#    0.000    0.000    0.000    0.000    0.000    0.000 
#
# Total GULP energy -111493.499586 kJ/mol
# GULP energy per Si atom -5574.674979 kJ/mol
# Density = 2.144304 g / cm^3
# Si number density = 21.491956 Si / 1000 Ang^3
#
#
#
# Elastic Constant Matrix: (Units=GPa)
#
#
# Indices 1 2 3 4 5 6 
#
# 1 81.9435 40.1533 38.3407 0.0000 -22.3734 0.0000
# 2 40.1533 219.5381 99.2830 0.0000 -5.9370 0.0000
# 3 38.3407 99.2830 157.4350 0.0000 3.2813 0.0000
# 4 0.0000 0.0000 0.0000 52.8958 0.0000 -4.5321
# 5 -22.3734 -5.9370 3.2813 0.0000 48.6657 0.0000
# 6 0.0000 0.0000 0.0000 -4.5321 0.0000 7.0148
#
#
#
# Elastic Compliance Matrix: (Units=1/GPa)
#
#
# Indices 1 2 3 4 5 6 
#
# 1 0.016500 -0.001289 -0.003365 0.000000 0.007655 0.000000
# 2 -0.001289 0.006527 -0.003812 0.000000 0.000461 0.000000
# 3 -0.003365 -0.003812 0.009631 0.000000 -0.002661 0.000000
# 4 0.000000 0.000000 0.000000 0.020013 0.000000 0.012930
# 5 0.007655 0.000461 -0.002661 0.000000 0.024303 0.000000
# 6 0.000000 0.000000 0.000000 0.012930 0.000000 0.150909
#
#
# Mechanical properties :
#
#
# Convention : Reuss Voigt Hill
#
# Bulk Modulus (GPa) = 63.58945 90.49674 77.04309
# Shear Modulus (GPa) = 19.99550 40.45789 30.22669
#
# Velocity S-wave (km/s) = 3.05351 4.34345 3.75429
# Velocity P-wave (km/s) = 6.48719 8.20687 7.39717
#
# Compressibility (1/GPa) = 0.01572588
#
# Stress axis : x y z
#
# Youngs Moduli (GPa) = 60.60719 153.20743 103.83552
#
# Poissons Ratio (x) = 0.19749 0.34939
# Poissons Ratio (y) = 0.07813 0.39581
# Poissons Ratio (z) = 0.20394 0.58400
#
# Static dielectric constant tensor:
#      x y z
#    x 1.881780 0.000000 0.078900 
#    y 0.000000 1.831920 0.000000 
#    z 0.078900 0.000000 1.745080 
# 
# From -- ./inp_files/142405.got.cif
#   From: 2010.05.17/outbox.cif.g08.bks.cpg/sg15_72_cif.got.tgz:142405.got - 2010.06.03 18:47:42.
