data_PCOD9291096
_publ_section_title
;
Structure prediction by ZEFSAII (Michael W. Deem and Ramdas Pophale) SiO2 
 PCOD9291096
Probable space group: C 2/C
;
_chemical_formula_sum "Si O2"
_cell_formula_units_Z 48
_cell_length_a 19.293284
_cell_length_b 6.404828
_cell_length_c 17.079462
_cell_angle_alpha 90.000000
_cell_angle_beta 78.715493
_cell_angle_gamma 90.000000
_cell_volume 2069.710701
_symmetry_space_group_name_H-M "C 2/C"
_symmetry_group_IT_number 15
_symmetry_cell_setting 'monoclinic'
loop_
_space_group_symop_operation_xyz
x,y,z
-x,y,1/2-z
-x,-y,-z
x,-y,1/2+z
1/2+x,1/2+y,z
1/2-x,1/2+y,1/2-z
1/2-x,1/2-y,-z
1/2+x,1/2-y,1/2+z
loop_
_atom_site_type_symbol
_atom_site_label
_atom_site_fract_x
_atom_site_fract_y
_atom_site_fract_z
Si Si1 0.473863 0.833507 0.390172
Si Si2 0.904703 0.905695 0.029878
Si Si3 0.204808 0.528086 0.444016
Si Si4 0.373083 0.727222 0.161210
Si Si5 0.127276 0.285515 0.581055
Si Si6 0.850625 0.077629 0.332532
O O1 0.470589 0.716099 0.475730
O O2 0.553148 0.848808 0.342652
O O3 0.420255 0.697794 0.348490
O O4 0.437494 0.056858 0.404985
O O5 0.845862 0.726638 0.043607
O O6 0.901367 0.013901 0.114513
O O7 0.886942 0.095367 0.975103
O O8 0.175865 0.363744 0.385350
O O9 0.193280 0.413766 0.530422
O O10 0.281994 0.602962 0.402447
O O11 0.336557 0.664903 0.249854
O O12 0.136854 0.171652 0.661835
#
# Coordination Sequence:
#
# PCOD9291096 Si02
#       6
#     8   8   8   8   8   8
#     4  10  22  42  64  92 124 169 219 271 312 387
#     4   9  21  40  67  93 126 168 218 263 322 385
#     4  10  23  40  64  96 128 169 216 269 317 390
#     4  11  24  40  62  94 134 166 214 263 335 384
#     4   9  21  42  68  92 124 170 223 265 318 381
#     4  11  24  40  64  93 134 170 214 262 332 387
#
# _framework density 23.191645999999999
#
# number of rings (size 3 to 8) (size 9 to 14) (size 15 to 20)
#    0.000    2.000    0.000    1.500    2.333   18.667 
#    0.000    3.333    0.000    0.000    0.000    0.000 
#    0.000    0.000    0.000    0.000    0.000    0.000 
#
# Total GULP energy -134089.323832 kJ/mol
# GULP energy per Si atom -5587.055160 kJ/mol
# Density = 2.313886 g / cm^3
# Si number density = 23.191646 Si / 1000 Ang^3
#
#
#
# Elastic Constant Matrix: (Units=GPa)
#
#
# Indices 1 2 3 4 5 6 
#
# 1 74.0589 10.4412 22.8353 0.0000 -12.4394 0.0000
# 2 10.4412 107.5291 32.9551 0.0000 5.1687 0.0000
# 3 22.8353 32.9551 81.7811 0.0000 0.1739 0.0000
# 4 0.0000 0.0000 0.0000 20.1527 0.0000 3.2684
# 5 -12.4394 5.1687 0.1739 0.0000 30.3044 0.0000
# 6 0.0000 0.0000 0.0000 3.2684 0.0000 28.9827
#
#
#
# Elastic Compliance Matrix: (Units=1/GPa)
#
#
# Indices 1 2 3 4 5 6 
#
# 1 0.016021 -0.000573 -0.004257 0.000000 0.006699 0.000000
# 2 -0.000573 0.010728 -0.004159 0.000000 -0.002041 0.000000
# 3 -0.004257 -0.004159 0.015095 0.000000 -0.001125 0.000000
# 4 0.000000 0.000000 0.000000 0.050546 0.000000 -0.005700
# 5 0.006699 -0.002041 -0.001125 0.000000 0.036103 0.000000
# 6 0.000000 0.000000 0.000000 -0.005700 0.000000 0.035146
#
#
# Mechanical properties :
#
#
# Convention : Reuss Voigt Hill
#
# Bulk Modulus (GPa) = 41.89934 43.98134 42.94034
# Shear Modulus (GPa) = 26.37530 29.03045 27.70288
#
# Velocity S-wave (km/s) = 3.37601 3.54187 3.45993
# Velocity P-wave (km/s) = 5.77082 5.97762 5.87513
#
# Compressibility (1/GPa) = 0.02386672
#
# Stress axis : x y z
#
# Youngs Moduli (GPa) = 62.41715 93.21301 66.24882
#
# Poissons Ratio (x) = 0.05341 0.28201
# Poissons Ratio (y) = 0.03577 0.27551
# Poissons Ratio (z) = 0.26570 0.38765
#
# Static dielectric constant tensor:
#      x y z
#    x 1.930650 0.000000 0.036570 
#    y 0.000000 1.884470 0.000000 
#    z 0.036570 0.000000 1.902250 
# 
# From -- ./inp_files/253967.got.cif
#   From: 2010.05.17/outbox.cif.g08.bks.cpg/sg15_127_cif.got.tgz:253967.got - 2010.06.03 18:47:42.
