data_PCOD9291339
_publ_section_title
;
Structure prediction by ZEFSAII (Michael W. Deem and Ramdas Pophale) SiO2 
 PCOD9291339
Probable space group: C 2/C
;
_chemical_formula_sum "Si O2"
_cell_formula_units_Z 60
_cell_length_a 21.034359
_cell_length_b 9.464132
_cell_length_c 24.061182
_cell_angle_alpha 90.000000
_cell_angle_beta 36.404991
_cell_angle_gamma 90.000000
_cell_volume 2842.756764
_symmetry_space_group_name_H-M "C 2/C"
_symmetry_group_IT_number 15
_symmetry_cell_setting 'monoclinic'
loop_
_space_group_symop_operation_xyz
x,y,z
-x,y,1/2-z
-x,-y,-z
x,-y,1/2+z
1/2+x,1/2+y,z
1/2-x,1/2+y,1/2-z
1/2-x,1/2-y,-z
1/2+x,1/2-y,1/2+z
loop_
_atom_site_type_symbol
_atom_site_label
_atom_site_fract_x
_atom_site_fract_y
_atom_site_fract_z
Si Si1 0.805815 0.536731 0.400395
Si Si2 0.923490 0.166802 0.920298
Si Si3 0.000000 0.254381 0.750000
Si Si4 0.221034 0.527313 0.354339
Si Si5 0.911390 0.018267 0.132362
Si Si6 0.262729 0.640803 0.655392
Si Si7 0.924398 0.350339 0.122800
Si Si8 0.877538 0.485163 0.970787
O O1 0.700672 0.625230 0.490635
O O2 0.771084 0.419934 0.380319
O O3 0.849664 0.475351 0.427499
O O4 0.897678 0.641824 0.312505
O O5 0.972075 0.163629 0.824047
O O6 0.930392 0.330549 0.932417
O O7 0.986626 0.066245 0.917653
O O8 0.325021 0.501726 0.243446
O O9 0.204971 0.695617 0.365452
O O10 0.125574 0.438244 0.393017
O O11 0.223941 0.481293 0.416504
O O12 0.929767 0.183328 0.108604
O O13 0.856964 0.949352 0.116978
O O14 0.159527 0.626167 0.767940
O O15 0.037723 0.408734 0.062364
#
# Coordination Sequence:
#
# PCOD9291339 Si02
#       8
#     8   8   4   8   8   8   8   8
#     4  11  25  41  69  99 129 175 216 267 321 388
#     4  11  25  41  67 101 127 173 220 264 326 384
#     4  10  22  44  68  94 136 172 214 272 320 396
#     4  10  23  41  67  94 130 172 214 270 328 387
#     4  10  24  42  67  95 129 171 217 273 323 377
#     4  10  22  43  65  95 131 171 220 261 328 384
#     4  10  22  42  66  96 124 175 216 268 328 380
#     4  11  23  42  64  94 131 166 220 261 331 384
#
# _framework density 21.106273000000002
#
# number of rings (size 3 to 8) (size 9 to 14) (size 15 to 20)
#    0.000    1.600    0.000    4.400    7.467    4.267 
#    0.000    0.000    0.000    0.000    0.000    0.000 
#    0.000    0.000    0.000    0.000    0.000    0.000 
#
# Total GULP energy -167809.757815 kJ/mol
# GULP energy per Si atom -5593.658594 kJ/mol
# Density = 2.105823 g / cm^3
# Si number density = 21.106273 Si / 1000 Ang^3
#
#
#
# Elastic Constant Matrix: (Units=GPa)
#
#
# Indices 1 2 3 4 5 6 
#
# 1 96.2748 50.8551 39.3367 0.0000 1.1046 -0.0001
# 2 50.8551 72.0881 30.5309 0.0001 7.2076 -0.0003
# 3 39.3367 30.5309 109.3816 0.0000 8.3018 0.0000
# 4 0.0000 0.0001 0.0000 16.2963 0.0000 6.9179
# 5 1.1046 7.2076 8.3018 0.0000 40.3568 0.0000
# 6 -0.0001 -0.0003 0.0000 6.9179 0.0000 26.1698
#
#
#
# Elastic Compliance Matrix: (Units=1/GPa)
#
#
# Indices 1 2 3 4 5 6 
#
# 1 0.017702 -0.011276 -0.003388 0.000000 0.002226 0.000000
# 2 -0.011276 0.023064 -0.002127 0.000000 -0.003373 0.000000
# 3 -0.003388 -0.002127 0.011092 0.000000 -0.001809 0.000000
# 4 0.000000 0.000000 0.000000 0.069120 0.000000 -0.018272
# 5 0.002226 -0.003373 -0.001809 0.000000 0.025693 0.000000
# 6 0.000000 0.000000 0.000000 -0.018272 0.000000 0.043042
#
#
# Mechanical properties :
#
#
# Convention : Reuss Voigt Hill
#
# Bulk Modulus (GPa) = 54.71217 57.68776 56.19996
# Shear Modulus (GPa) = 21.79747 27.03271 24.41509
#
# Velocity S-wave (km/s) = 3.21713 3.58270 3.40482
# Velocity P-wave (km/s) = 6.30701 6.67126 6.49169
#
# Compressibility (1/GPa) = 0.01827747
#
# Stress axis : x y z
#
# Youngs Moduli (GPa) = 56.49193 43.35701 90.15871
#
# Poissons Ratio (x) = 0.48887 0.30543
# Poissons Ratio (y) = 0.63698 0.19175
# Poissons Ratio (z) = 0.19138 0.09221
#
# Static dielectric constant tensor:
#      x y z
#    x 1.727680 0.000000 0.008310 
#    y 0.000000 1.717090 0.000000 
#    z 0.008310 0.000000 1.812180 
# 
# From -- ./inp_files/279680.got.cif
#   From: 2010.05.17/outbox.cif.g08.bks.cpg/sg15_140_cif.got.tgz:279680.got - 2010.06.03 18:47:42.
