data_PCOD9291970
_publ_section_title
;
Structure prediction by ZEFSAII (Michael W. Deem and Ramdas Pophale) SiO2 
 PCOD9291970
Probable space group: C 2/C
;
_chemical_formula_sum "Si O2"
_cell_formula_units_Z 56
_cell_length_a 5.561226
_cell_length_b 21.767506
_cell_length_c 22.166976
_cell_angle_alpha 90.000000
_cell_angle_beta 79.601485
_cell_angle_gamma 90.000000
_cell_volume 2639.329776
_symmetry_space_group_name_H-M "C 2/C"
_symmetry_group_IT_number 15
_symmetry_cell_setting 'monoclinic'
loop_
_space_group_symop_operation_xyz
x,y,z
-x,y,1/2-z
-x,-y,-z
x,-y,1/2+z
1/2+x,1/2+y,z
1/2-x,1/2+y,1/2-z
1/2-x,1/2-y,-z
1/2+x,1/2-y,1/2+z
loop_
_atom_site_type_symbol
_atom_site_label
_atom_site_fract_x
_atom_site_fract_y
_atom_site_fract_z
Si Si1 0.949311 0.651910 0.822184
Si Si2 0.729074 0.667490 0.058855
Si Si3 0.042269 0.495161 0.177106
Si Si4 0.434285 0.446236 0.865608
Si Si5 0.500000 0.789083 0.750000
Si Si6 0.984912 0.241516 0.626014
Si Si7 0.500000 0.640986 0.250000
Si Si8 0.426054 0.792558 0.061004
O O1 0.943104 0.578556 0.822008
O O2 0.708571 0.688983 0.851637
O O3 0.000000 0.670717 0.750000
O O4 0.103060 0.670685 0.874495
O O5 0.628072 0.599746 0.076263
O O6 0.534695 0.723793 0.065071
O O7 0.888703 0.692242 0.107878
O O8 0.901850 0.672037 0.992610
O O9 0.308038 0.517423 0.140494
O O10 0.000000 0.515288 0.250000
O O11 0.808574 0.516996 0.147108
O O12 0.493686 0.400163 0.808957
O O13 0.592618 0.753793 0.686964
O O14 0.745892 0.822996 0.758995
O O15 0.142105 0.218992 0.561541
#
# Coordination Sequence:
#
# PCOD9291970 Si02
#       8
#     8   8   8   8   4   8   4   8
#     4  10  24  42  64  93 126 172 220 270 319 382
#     4  10  23  40  65  95 129 170 211 268 329 399
#     4  11  24  43  65  93 130 174 221 270 324 378
#     4  12  23  41  65  95 128 170 214 267 323 388
#     4  12  24  34  63 100 137 158 210 270 332 390
#     4  11  22  37  64  93 129 170 211 271 326 394
#     4  12  22  38  59  96 139 162 204 264 332 390
#     4  10  22  43  64  93 130 168 218 262 332 390
#
# _framework density 21.217507999999999
#
# number of rings (size 3 to 8) (size 9 to 14) (size 15 to 20)
#    0.000    1.143    2.857    3.000    7.000    0.000 
#    0.000    1.429    0.000    0.000    0.000    0.000 
#    0.000    0.000    0.000    0.000    0.000    0.000 
#
# Total GULP energy -155917.315511 kJ/mol
# GULP energy per Si atom -5568.475554 kJ/mol
# Density = 2.116922 g / cm^3
# Si number density = 21.217508 Si / 1000 Ang^3
#
#
#
# Elastic Constant Matrix: (Units=GPa)
#
#
# Indices 1 2 3 4 5 6 
#
# 1 80.6437 28.3776 31.3540 0.0000 -20.7989 0.0000
# 2 28.3776 77.2912 37.8248 0.0000 -14.3025 0.0000
# 3 31.3540 37.8248 93.3835 0.0000 -14.1588 0.0000
# 4 0.0000 0.0000 0.0000 40.5423 0.0000 21.2513
# 5 -20.7989 -14.3025 -14.1588 0.0000 35.7931 0.0000
# 6 0.0000 0.0000 0.0000 21.2513 0.0000 10.1946
#
#
#
# Elastic Compliance Matrix: (Units=1/GPa)
#
#
# Indices 1 2 3 4 5 6 
#
# 1 0.016606 -0.003220 -0.003195 0.000000 0.007099 0.000000
# 2 -0.003220 0.017350 -0.005509 0.000000 0.002882 0.000000
# 3 -0.003195 -0.005509 0.014252 0.000000 0.001580 0.000000
# 4 0.000000 0.000000 0.000000 -0.266142 0.000000 0.554791
# 5 0.007099 0.002882 0.001580 0.000000 0.033840 0.000000
# 6 0.000000 0.000000 0.000000 0.554791 0.000000 -1.058407
#
#
# Mechanical properties :
#
#
# Convention : Reuss Voigt Hill
#
# Bulk Modulus (GPa) = 41.05084 49.60347 45.32716
# Shear Modulus (GPa) = -4.13042 27.55678 11.71318
#
# Velocity S-wave (km/s) = -1.39676 3.60776 2.35213
# Velocity P-wave (km/s) = 4.09736 6.38623 5.36527
#
# Compressibility (1/GPa) = 0.02436004
#
# Stress axis : x y z
#
# Youngs Moduli (GPa) = 60.21749 57.63751 70.16352
#
# Poissons Ratio (x) = 0.18558 0.22418
# Poissons Ratio (y) = 0.19389 0.38656
# Poissons Ratio (z) = 0.19240 0.31755
#
# Static dielectric constant tensor:
#      x y z
#    x 4.863160 0.000000 0.312170 
#    y 0.000000 1.740330 0.000000 
#    z 0.312170 0.000000 1.862610 
# 
# From -- ./inp_files/261363.got.cif
#   From: 2010.05.17/outbox.cif.g08.bks.cpg/sg15_131_cif.got.tgz:261363.got - 2010.06.03 18:47:42.
