data_PCOD9291572
_publ_section_title
;
Structure prediction by ZEFSAII (Michael W. Deem and Ramdas Pophale) SiO2 
 PCOD9291572
Probable space group: C 2/C
;
_chemical_formula_sum "Si O2"
_cell_formula_units_Z 44
_cell_length_a 12.128667
_cell_length_b 12.399519
_cell_length_c 16.557934
_cell_angle_alpha 90.000000
_cell_angle_beta 62.016881
_cell_angle_gamma 90.000000
_cell_volume 2199.008945
_symmetry_space_group_name_H-M "C 2/C"
_symmetry_group_IT_number 15
_symmetry_cell_setting 'monoclinic'
loop_
_space_group_symop_operation_xyz
x,y,z
-x,y,1/2-z
-x,-y,-z
x,-y,1/2+z
1/2+x,1/2+y,z
1/2-x,1/2+y,1/2-z
1/2-x,1/2-y,-z
1/2+x,1/2-y,1/2+z
loop_
_atom_site_type_symbol
_atom_site_label
_atom_site_fract_x
_atom_site_fract_y
_atom_site_fract_z
Si Si1 0.500000 0.074465 0.250000
Si Si2 0.639257 0.045421 0.935625
Si Si3 0.130777 0.220773 0.359779
Si Si4 0.258096 0.033914 0.422145
Si Si5 0.833058 0.664115 0.167186
Si Si6 0.864010 0.191170 0.505959
O O1 0.387147 0.009548 0.329845
O O2 0.435853 0.144490 0.201509
O O3 0.638626 0.158037 0.890042
O O4 0.699400 0.951353 0.860957
O O5 0.705784 0.059635 0.998404
O O6 0.500000 0.000000 0.000000
O O7 0.194008 0.134527 0.399468
O O8 0.209837 0.211847 0.250851
O O9 0.985065 0.191948 0.407825
O O10 0.173188 0.928445 0.454753
O O11 0.887559 0.739320 0.078497
O O12 0.750000 0.250000 0.500000
#
# Coordination Sequence:
#
# PCOD9291572 Si02
#       6
#     4   8   8   8   8   8
#     4  10  22  42  68  98 130 184 226 276 334 430
#     4  12  21  45  71  96 133 182 233 275 344 426
#     4  11  26  42  68  99 139 176 228 288 344 413
#     4  11  23  41  69  99 137 177 226 285 350 406
#     4  11  25  42  69 102 132 176 234 274 347 409
#     4  12  24  44  68  99 137 178 223 291 342 409
#
# _framework density 20.009014000000001
#
# number of rings (size 3 to 8) (size 9 to 14) (size 15 to 20)
#    0.000    0.727    5.455    1.091    5.091    2.182 
#    0.000    0.000    0.000    0.000    0.000    0.000 
#    0.000    0.000    0.000    0.000    0.000    0.000 
#
# Total GULP energy -123010.549032 kJ/mol
# GULP energy per Si atom -5591.388592 kJ/mol
# Density = 1.996347 g / cm^3
# Si number density = 20.009014 Si / 1000 Ang^3
#
#
#
# Elastic Constant Matrix: (Units=GPa)
#
#
# Indices 1 2 3 4 5 6 
#
# 1 38.3756 -24.0754 4.1508 0.0000 -6.5230 0.0000
# 2 -24.0754 104.1300 14.6726 0.0000 -18.6702 0.0000
# 3 4.1508 14.6726 78.4463 0.0000 -16.1665 0.0000
# 4 0.0000 0.0000 0.0000 42.0103 0.0000 -0.8802
# 5 -6.5230 -18.6702 -16.1665 0.0000 36.9183 0.0000
# 6 0.0000 0.0000 0.0000 -0.8802 0.0000 19.1159
#
#
#
# Elastic Compliance Matrix: (Units=1/GPa)
#
#
# Indices 1 2 3 4 5 6 
#
# 1 0.034285 0.010017 -0.001534 0.000000 0.010452 0.000000
# 2 0.010017 0.013554 -0.001416 0.000000 0.008004 0.000000
# 3 -0.001534 -0.001416 0.014169 0.000000 0.005218 0.000000
# 4 0.000000 0.000000 0.000000 0.023827 0.000000 0.001097
# 5 0.010452 0.008004 0.005218 0.000000 0.035266 0.000000
# 6 0.000000 0.000000 0.000000 0.001097 0.000000 0.052363
#
#
# Mechanical properties :
#
#
# Convention : Reuss Voigt Hill
#
# Bulk Modulus (GPa) = 13.13320 23.38310 18.25815
# Shear Modulus (GPa) = 27.06958 34.68918 30.87938
#
# Velocity S-wave (km/s) = 3.68213 4.16826 3.93271
# Velocity P-wave (km/s) = 4.96541 5.90572 5.45586
#
# Compressibility (1/GPa) = 0.07614288
#
# Stress axis : x y z
#
# Youngs Moduli (GPa) = 29.16736 73.77908 70.57783
#
# Poissons Ratio (x) = -0.73904 0.10825
# Poissons Ratio (y) = -0.29217 0.09991
# Poissons Ratio (z) = 0.04473 0.10444
#
# Static dielectric constant tensor:
#      x y z
#    x 1.713450 0.000000 -0.008360 
#    y 0.000000 1.679370 0.000000 
#    z -0.008360 0.000000 1.709000 
# 
# From -- ./inp_files/142219.got.cif
#   From: 2010.05.17/outbox.cif.g08.bks.cpg/sg15_72_cif.got.tgz:142219.got - 2010.06.03 18:47:42.
