data_PCOD9291060
_publ_section_title
;
Structure prediction by ZEFSAII (Michael W. Deem and Ramdas Pophale) SiO2 
 PCOD9291060
Probable space group: C 2/C
;
_chemical_formula_sum "Si O2"
_cell_formula_units_Z 48
_cell_length_a 7.888900
_cell_length_b 23.366574
_cell_length_c 11.381238
_cell_angle_alpha 90.000000
_cell_angle_beta 58.370475
_cell_angle_gamma 90.000000
_cell_volume 1786.337926
_symmetry_space_group_name_H-M "C 2/C"
_symmetry_group_IT_number 15
_symmetry_cell_setting 'monoclinic'
loop_
_space_group_symop_operation_xyz
x,y,z
-x,y,1/2-z
-x,-y,-z
x,-y,1/2+z
1/2+x,1/2+y,z
1/2-x,1/2+y,1/2-z
1/2-x,1/2-y,-z
1/2+x,1/2-y,1/2+z
loop_
_atom_site_type_symbol
_atom_site_label
_atom_site_fract_x
_atom_site_fract_y
_atom_site_fract_z
Si Si1 0.500000 0.873316 0.250000
Si Si2 0.049252 0.089553 0.404865
Si Si3 0.000000 0.181605 0.250000
Si Si4 0.000000 0.571870 0.250000
Si Si5 0.903606 0.422635 0.046158
Si Si6 0.000000 0.987549 0.250000
Si Si7 0.108824 0.840102 0.088272
Si Si8 0.298635 0.270286 0.113683
O O1 0.524302 0.911156 0.122581
O O2 0.682178 0.828498 0.188335
O O3 0.934268 0.137611 0.374090
O O4 0.286793 0.100707 0.305315
O O5 0.022868 0.104136 0.549508
O O6 0.007848 0.029310 0.361333
O O7 0.182576 0.220744 0.225750
O O8 0.969817 0.547616 0.397820
O O9 0.705585 0.453893 0.164589
O O10 0.835366 0.358486 0.028712
O O11 0.000000 0.834149 0.250000
O O12 0.029957 0.784416 0.048856
O O13 0.250000 0.250000 0.000000
#
# Coordination Sequence:
#
# PCOD9291060 Si02
#       8
#     4   8   4   4   8   4   8   8
#     4  11  24  42  74 106 152 189 248 312 366 450
#     4  10  24  45  71 101 148 186 246 301 371 440
#     4  10  22  42  64 107 136 191 236 298 356 440
#     4  10  26  43  70 108 150 188 240 313 380 428
#     4  11  24  48  74 111 148 197 248 309 378 446
#     4  11  24  47  82 101 140 202 248 303 374 450
#     4  11  21  45  70 102 144 189 244 305 364 443
#     4  11  22  40  70 105 140 187 246 299 374 435
#
# _framework density 26.870616999999999
#
# number of rings (size 3 to 8) (size 9 to 14) (size 15 to 20)
#    0.000    1.333    4.167    0.000    2.333    4.000 
#    1.500    1.667    0.000    0.000    0.000    0.000 
#    0.000    0.000    0.000    0.000    0.000    0.000 
#
# Total GULP energy -133865.508800 kJ/mol
# GULP energy per Si atom -5577.729533 kJ/mol
# Density = 2.680946 g / cm^3
# Si number density = 26.870617 Si / 1000 Ang^3
#
#
#
# Elastic Constant Matrix: (Units=GPa)
#
#
# Indices 1 2 3 4 5 6 
#
# 1 90.0570 35.9106 9.3016 0.0000 5.3152 0.0000
# 2 35.9106 108.5044 18.0307 0.0000 1.0364 0.0000
# 3 9.3016 18.0307 176.3988 0.0000 27.6372 0.0000
# 4 0.0000 0.0000 0.0000 24.8812 0.0000 1.4092
# 5 5.3152 1.0364 27.6372 0.0000 57.0180 0.0000
# 6 0.0000 0.0000 0.0000 1.4092 0.0000 32.9085
#
#
#
# Elastic Compliance Matrix: (Units=1/GPa)
#
#
# Indices 1 2 3 4 5 6 
#
# 1 0.012865 -0.004235 -0.000075 0.000000 -0.001086 0.000000
# 2 -0.004235 0.010775 -0.000984 0.000000 0.000676 0.000000
# 3 -0.000075 -0.000984 0.006244 0.000000 -0.003002 0.000000
# 4 0.000000 0.000000 0.000000 0.040289 0.000000 -0.001725
# 5 -0.001086 0.000676 -0.003002 0.000000 0.019082 0.000000
# 6 0.000000 0.000000 0.000000 -0.001725 0.000000 0.030461
#
#
# Mechanical properties :
#
#
# Convention : Reuss Voigt Hill
#
# Bulk Modulus (GPa) = 51.82699 55.71624 53.77161
# Shear Modulus (GPa) = 36.56709 43.74270 40.15490
#
# Velocity S-wave (km/s) = 3.69298 4.03910 3.86991
# Velocity P-wave (km/s) = 6.12484 6.52169 6.32638
#
# Compressibility (1/GPa) = 0.01929497
#
# Stress axis : x y z
#
# Youngs Moduli (GPa) = 77.73291 92.80918 160.15930
#
# Poissons Ratio (x) = 0.39302 0.01208
# Poissons Ratio (y) = 0.32918 0.15759
# Poissons Ratio (z) = 0.00586 0.09132
#
# Static dielectric constant tensor:
#      x y z
#    x 2.204450 0.000000 0.040490 
#    y 0.000000 2.094730 0.000000 
#    z 0.040490 0.000000 2.228170 
# 
# From -- ./inp_files/79219.got.cif
#   From: 2010.05.17/outbox.cif.g08.bks.cpg/sg15_40_cif.got.tgz:79219.got - 2010.06.03 18:47:42.
