data_PCOD9291464
_publ_section_title
;
Structure prediction by ZEFSAII (Michael W. Deem and Ramdas Pophale) SiO2 
 PCOD9291464
Probable space group: C 2/C
;
_chemical_formula_sum "Si O2"
_cell_formula_units_Z 64
_cell_length_a 27.987633
_cell_length_b 9.431603
_cell_length_c 20.819947
_cell_angle_alpha 90.000000
_cell_angle_beta 31.391087
_cell_angle_gamma 90.000000
_cell_volume 2862.637490
_symmetry_space_group_name_H-M "C 2/C"
_symmetry_group_IT_number 15
_symmetry_cell_setting 'monoclinic'
loop_
_space_group_symop_operation_xyz
x,y,z
-x,y,1/2-z
-x,-y,-z
x,-y,1/2+z
1/2+x,1/2+y,z
1/2-x,1/2+y,1/2-z
1/2-x,1/2-y,-z
1/2+x,1/2-y,1/2+z
loop_
_atom_site_type_symbol
_atom_site_label
_atom_site_fract_x
_atom_site_fract_y
_atom_site_fract_z
Si Si1 0.041585 0.460657 0.884261
Si Si2 0.532665 0.743672 0.800265
Si Si3 0.296261 0.058327 0.439096
Si Si4 0.170476 0.239768 0.500703
Si Si5 0.458384 0.454086 0.653531
Si Si6 0.780404 0.368608 0.761294
Si Si7 0.360798 0.430899 0.137553
Si Si8 0.059065 0.333608 0.248899
O O1 0.013034 0.304303 0.894517
O O2 0.150539 0.455699 0.771909
O O3 0.016766 0.561306 0.852558
O O4 0.000000 0.500000 0.000000
O O5 0.620791 0.834919 0.678779
O O6 0.551057 0.579809 0.784862
O O7 0.437654 0.761144 0.872662
O O8 0.209624 0.106951 0.496944
O O9 0.282199 0.117228 0.527002
O O10 0.342217 0.905359 0.381102
O O11 0.202567 0.206381 0.392842
O O12 0.562053 0.446210 0.506455
O O13 0.399636 0.500949 0.658763
O O14 0.433085 0.312409 0.721230
O O15 0.730293 0.479710 0.773659
O O16 0.837559 0.236492 0.667976
O O17 0.000000 0.327812 0.250000
#
# Coordination Sequence:
#
# PCOD9291464 Si02
#       8
#     8   8   8   8   8   8   8   8
#     4  11  24  43  73 106 138 188 251 303 360 436
#     4  11  21  42  68  94 133 184 235 293 358 433
#     4  10  22  42  67  99 136 176 247 291 346 431
#     4  11  21  38  69  98 130 182 237 290 347 433
#     4  11  24  45  68  97 148 180 237 288 372 440
#     4  12  24  43  69 105 139 181 243 298 378 423
#     4  11  26  44  69 106 137 185 233 308 363 443
#     4  11  24  43  68 104 144 190 235 305 364 434
#
# _framework density 22.357004
#
# number of rings (size 3 to 8) (size 9 to 14) (size 15 to 20)
#    0.000    1.000    5.000    2.625    5.250    1.000 
#    2.250    0.000    0.000    9.750    0.000    0.000 
#    0.000    0.000    0.000    0.000    0.000    0.000 
#
# Total GULP energy -178624.624381 kJ/mol
# GULP energy per Si atom -5582.019512 kJ/mol
# Density = 2.230612 g / cm^3
# Si number density = 22.357004 Si / 1000 Ang^3
#
#
#
# Elastic Constant Matrix: (Units=GPa)
#
#
# Indices 1 2 3 4 5 6 
#
# 1 112.5398 30.2874 22.1204 0.0002 -20.7851 0.0001
# 2 30.2874 122.9686 2.3334 -0.0022 -0.7060 -0.0007
# 3 22.1204 2.3334 59.4322 -0.0013 -7.5317 -0.0002
# 4 0.0002 -0.0022 -0.0013 38.8618 0.0005 3.2536
# 5 -20.7851 -0.7060 -7.5317 0.0005 39.2229 0.0003
# 6 0.0001 -0.0007 -0.0002 3.2536 0.0003 25.1289
#
#
#
# Elastic Compliance Matrix: (Units=1/GPa)
#
#
# Indices 1 2 3 4 5 6 
#
# 1 0.011248 -0.002675 -0.003415 0.000000 0.005257 0.000000
# 2 -0.002675 0.008775 0.000504 0.000001 -0.001163 0.000000
# 3 -0.003415 0.000504 0.018294 0.000001 0.001712 0.000000
# 4 0.000000 0.000001 0.000001 0.026014 0.000000 -0.003368
# 5 0.005257 -0.001163 0.001712 0.000000 0.028589 0.000000
# 6 0.000000 0.000000 0.000000 -0.003368 0.000000 0.040231
#
#
# Mechanical properties :
#
#
# Convention : Reuss Voigt Hill
#
# Bulk Modulus (GPa) = 36.84129 44.93592 40.88860
# Shear Modulus (GPa) = 32.60045 36.65602 34.62823
#
# Velocity S-wave (km/s) = 3.82275 4.05356 3.93985
# Velocity P-wave (km/s) = 5.99991 6.48470 6.24701
#
# Compressibility (1/GPa) = 0.02714346
#
# Stress axis : x y z
#
# Youngs Moduli (GPa) = 88.90557 113.96177 54.66207
#
# Poissons Ratio (x) = 0.30489 0.18668
# Poissons Ratio (y) = 0.23786 -0.02754
# Poissons Ratio (z) = 0.30363 -0.05742
#
# Static dielectric constant tensor:
#      x y z
#    x 1.909930 0.000000 0.076530 
#    y 0.000000 1.850020 0.000000 
#    z 0.076530 0.000000 1.925860 
# 
# From -- ./inp_files/284406.got.cif
#   From: 2010.05.17/outbox.cif.g08.bks.cpg/sg15_143_cif.got.tgz:284406.got - 2010.06.03 18:47:42.
