data_PCOD9291918
_publ_section_title
;
Structure prediction by ZEFSAII (Michael W. Deem and Ramdas Pophale) SiO2 
 PCOD9291918
Probable space group: C 2/C
;
_chemical_formula_sum "Si O2"
_cell_formula_units_Z 48
_cell_length_a 17.642055
_cell_length_b 18.267657
_cell_length_c 7.734564
_cell_angle_alpha 90.000000
_cell_angle_beta 51.909585
_cell_angle_gamma 90.000000
_cell_volume 1961.840468
_symmetry_space_group_name_H-M "C 2/C"
_symmetry_group_IT_number 15
_symmetry_cell_setting 'monoclinic'
loop_
_space_group_symop_operation_xyz
x,y,z
-x,y,1/2-z
-x,-y,-z
x,-y,1/2+z
1/2+x,1/2+y,z
1/2-x,1/2+y,1/2-z
1/2-x,1/2-y,-z
1/2+x,1/2-y,1/2+z
loop_
_atom_site_type_symbol
_atom_site_label
_atom_site_fract_x
_atom_site_fract_y
_atom_site_fract_z
Si Si1 0.235351 0.613549 0.034444
Si Si2 0.198812 0.348928 0.224042
Si Si3 0.245807 0.953284 0.632234
Si Si4 0.388608 0.255918 0.936450
Si Si5 0.585052 0.714532 0.747071
Si Si6 0.527319 0.581298 0.410180
O O1 0.172038 0.646481 0.963807
O O2 0.271263 0.539694 0.877546
O O3 0.317549 0.675193 0.956918
O O4 0.206135 0.577209 0.258898
O O5 0.197591 0.422830 0.114009
O O6 0.308940 0.319377 0.063536
O O7 0.141760 0.292590 0.183292
O O8 0.140932 0.915728 0.782946
O O9 0.500000 0.271796 0.750000
O O10 0.387199 0.229334 0.137887
O O11 0.500000 0.745912 0.750000
O O12 0.529133 0.643489 0.907271
O O13 0.500000 0.584945 0.250000
O O14 0.500000 0.500000 0.500000
#
# Coordination Sequence:
#
# PCOD9291918 Si02
#       6
#     8   8   8   8   8   8
#     4  11  21  33  56  87 121 155 192 240 305 360
#     4  10  23  41  60  89 119 156 205 244 299 354
#     4  12  20  34  55  85 123 158 187 244 300 361
#     4  10  22  43  62  80 117 163 202 252 288 345
#     4  11  20  33  50  85 119 153 197 234 284 364
#     4  12  20  28  47  81 120 154 187 227 288 363
#
# _framework density 24.466820999999999
#
# number of rings (size 3 to 8) (size 9 to 14) (size 15 to 20)
#    0.000    1.000    5.000    5.000    0.000    0.000 
#    3.000    2.500    0.000    1.000    0.000    0.000 
#    0.000    0.000    0.000    0.000    0.000    0.000 
#
# Total GULP energy -133912.644629 kJ/mol
# GULP energy per Si atom -5579.693526 kJ/mol
# Density = 2.441113 g / cm^3
# Si number density = 24.466821 Si / 1000 Ang^3
#
#
#
# Elastic Constant Matrix: (Units=GPa)
#
#
# Indices 1 2 3 4 5 6 
#
# 1 135.1740 43.3974 44.2916 0.0000 43.9541 0.0000
# 2 43.3974 54.9539 4.8844 0.0000 5.5029 0.0000
# 3 44.2916 4.8844 77.8010 0.0000 33.6939 0.0000
# 4 0.0000 0.0000 0.0000 25.1105 0.0000 15.9524
# 5 43.9541 5.5029 33.6939 0.0000 53.5139 0.0000
# 6 0.0000 0.0000 0.0000 15.9524 0.0000 29.1561
#
#
#
# Elastic Compliance Matrix: (Units=1/GPa)
#
#
# Indices 1 2 3 4 5 6 
#
# 1 0.014931 -0.010565 -0.004119 0.000000 -0.008583 0.000000
# 2 -0.010565 0.025875 0.002453 0.000000 0.004472 0.000000
# 3 -0.004119 0.002453 0.018820 0.000000 -0.008719 0.000000
# 4 0.000000 0.000000 0.000000 0.061042 0.000000 -0.033398
# 5 -0.008583 0.004472 -0.008719 0.000000 0.030766 0.000000
# 6 0.000000 0.000000 0.000000 -0.033398 0.000000 0.052572
#
#
# Mechanical properties :
#
#
# Convention : Reuss Voigt Hill
#
# Bulk Modulus (GPa) = 28.43893 50.34174 39.39034
# Shear Modulus (GPa) = 20.81704 33.24646 27.03175
#
# Velocity S-wave (km/s) = 2.92006 3.69024 3.32751
# Velocity P-wave (km/s) = 4.79768 6.22715 5.55855
#
# Compressibility (1/GPa) = 0.03516307
#
# Stress axis : x y z
#
# Youngs Moduli (GPa) = 66.97689 38.64808 53.13431
#
# Poissons Ratio (x) = 0.40832 0.21888
# Poissons Ratio (y) = 0.70762 -0.13036
# Poissons Ratio (z) = 0.27590 -0.09482
#
# Static dielectric constant tensor:
#      x y z
#    x 1.969410 0.000000 0.054440 
#    y 0.000000 2.063780 0.000000 
#    z 0.054440 0.000000 2.049380 
# 
# From -- ./inp_files/40693.got.cif
#   From: 2010.05.17/outbox.cif.g08.bks.cpg/sg15_21_cif.got.tgz:40693.got - 2010.06.03 18:47:42.
