data_PCOD9291721
_publ_section_title
;
Structure prediction by ZEFSAII (Michael W. Deem and Ramdas Pophale) SiO2 
 PCOD9291721
Probable space group: C 2/C
;
_chemical_formula_sum "Si O2"
_cell_formula_units_Z 52
_cell_length_a 17.415803
_cell_length_b 13.992936
_cell_length_c 14.004866
_cell_angle_alpha 90.000000
_cell_angle_beta 134.018652
_cell_angle_gamma 90.000000
_cell_volume 2454.306660
_symmetry_space_group_name_H-M "C 2/C"
_symmetry_group_IT_number 15
_symmetry_cell_setting 'monoclinic'
loop_
_space_group_symop_operation_xyz
x,y,z
-x,y,1/2-z
-x,-y,-z
x,-y,1/2+z
1/2+x,1/2+y,z
1/2-x,1/2+y,1/2-z
1/2-x,1/2-y,-z
1/2+x,1/2-y,1/2+z
loop_
_atom_site_type_symbol
_atom_site_label
_atom_site_fract_x
_atom_site_fract_y
_atom_site_fract_z
Si Si1 0.322763 0.074812 0.515646
Si Si2 0.173535 0.176825 0.057957
Si Si3 0.514710 0.665258 0.454485
Si Si4 0.427865 0.131486 0.096434
Si Si5 0.376100 0.163126 0.359294
Si Si6 0.500000 0.211885 0.750000
Si Si7 0.603618 0.487563 0.905247
O O1 0.334025 0.108455 0.416007
O O2 0.396990 0.144700 0.643206
O O3 0.200646 0.072780 0.443981
O O4 0.369737 0.968225 0.563667
O O5 0.290736 0.163130 0.201279
O O6 0.091219 0.161242 0.074427
O O7 0.150815 0.281531 0.996345
O O8 0.145055 0.093782 0.959580
O O9 0.598486 0.728971 0.586103
O O10 0.490628 0.722839 0.335759
O O11 0.566273 0.565352 0.469307
O O12 0.500000 0.157382 0.250000
O O13 0.511875 0.121466 0.081643
O O14 0.500000 0.490395 0.750000
#
# Coordination Sequence:
#
# PCOD9291721 Si02
#       7
#     8   8   8   8   8   4   8
#     4  11  24  41  71  97 131 168 223 279 319 383
#     4  11  25  41  64  96 137 177 214 263 328 393
#     4  10  23  42  66  94 133 170 220 274 318 394
#     4  11  23  44  66  94 130 173 221 270 320 388
#     4  10  24  41  65  99 128 171 220 275 328 376
#     4  10  22  42  70  96 126 166 228 272 336 366
#     4  12  25  42  66  98 134 179 215 262 328 396
#
# _framework density 21.187246999999999
#
# number of rings (size 3 to 8) (size 9 to 14) (size 15 to 20)
#    0.000    1.231    1.538    3.231    2.154    7.385 
#    0.000    0.000    0.000    0.000    0.000    0.000 
#    0.000    0.000    0.000    0.000    0.000    0.000 
#
# Total GULP energy -145518.029725 kJ/mol
# GULP energy per Si atom -5596.847297 kJ/mol
# Density = 2.113902 g / cm^3
# Si number density = 21.187247 Si / 1000 Ang^3
#
#
#
# Elastic Constant Matrix: (Units=GPa)
#
#
# Indices 1 2 3 4 5 6 
#
# 1 68.6146 0.2889 6.4604 0.0000 10.3229 0.0000
# 2 0.2889 76.3644 20.1814 0.0000 10.8139 0.0000
# 3 6.4604 20.1814 108.3165 0.0000 20.7228 0.0000
# 4 0.0000 0.0000 0.0000 -9.1414 0.0000 -2.9103
# 5 10.3229 10.8139 20.7228 0.0000 24.4281 0.0000
# 6 0.0000 0.0000 0.0000 -2.9103 0.0000 23.0001
#
#
#
# Elastic Compliance Matrix: (Units=1/GPa)
#
#
# Indices 1 2 3 4 5 6 
#
# 1 0.015633 0.000891 0.000288 0.000000 -0.007245 0.000000
# 2 0.000891 0.014287 -0.001711 0.000000 -0.005250 0.000000
# 3 0.000288 -0.001711 0.011236 0.000000 -0.008896 0.000000
# 4 0.000000 0.000000 0.000000 -0.105156 0.000000 -0.013306
# 5 -0.007245 -0.005250 -0.008896 0.000000 0.053868 0.000000
# 6 0.000000 0.000000 0.000000 -0.013306 0.000000 0.041795
#
#
# Mechanical properties :
#
#
# Convention : Reuss Voigt Hill
#
# Bulk Modulus (GPa) = 24.94292 34.12856 29.53574
# Shear Modulus (GPa) = 108.47970 22.74833 65.61401
#
# Velocity S-wave (km/s) = 7.16321 3.28026 5.57098
# Velocity P-wave (km/s) = 8.95621 5.52176 7.43988
#
# Compressibility (1/GPa) = 0.04009154
#
# Stress axis : x y z
#
# Youngs Moduli (GPa) = 63.96618 69.99235 89.00222
#
# Poissons Ratio (x) = -0.06235 -0.02560
# Poissons Ratio (y) = -0.05698 0.15226
# Poissons Ratio (z) = -0.01840 0.11974
#
# Static dielectric constant tensor:
#      x y z
#    x 1.777760 0.000000 0.002290 
#    y 0.000000 1.731190 0.000000 
#    z 0.002290 0.000000 1.725750 
# 
# From -- ./inp_files/162620.got.cif
#   From: 2010.05.17/outbox.cif.g08.bks.cpg/sg15_82_cif.got.tgz:162620.got - 2010.06.03 18:47:42.
