data_PCOD9291708
_publ_section_title
;
Structure prediction by ZEFSAII (Michael W. Deem and Ramdas Pophale) SiO2 
 PCOD9291708
Probable space group: C 2/C
;
_chemical_formula_sum "Si O2"
_cell_formula_units_Z 56
_cell_length_a 12.392775
_cell_length_b 8.349061
_cell_length_c 25.966956
_cell_angle_alpha 90.000000
_cell_angle_beta 61.871073
_cell_angle_gamma 90.000000
_cell_volume 2369.415055
_symmetry_space_group_name_H-M "C 2/C"
_symmetry_group_IT_number 15
_symmetry_cell_setting 'monoclinic'
loop_
_space_group_symop_operation_xyz
x,y,z
-x,y,1/2-z
-x,-y,-z
x,-y,1/2+z
1/2+x,1/2+y,z
1/2-x,1/2+y,1/2-z
1/2-x,1/2-y,-z
1/2+x,1/2-y,1/2+z
loop_
_atom_site_type_symbol
_atom_site_label
_atom_site_fract_x
_atom_site_fract_y
_atom_site_fract_z
Si Si1 0.121419 0.741335 0.094686
Si Si2 0.000000 0.434064 0.750000
Si Si3 0.190588 0.172952 0.694708
Si Si4 0.443927 0.980253 0.112861
Si Si5 0.160023 0.311150 0.950339
Si Si6 0.000000 0.924107 0.750000
Si Si7 0.597433 0.806986 0.147405
Si Si8 0.681836 0.498597 0.000780
O O1 0.156167 0.812681 0.141818
O O2 0.108242 0.874684 0.053323
O O3 0.995911 0.642872 0.126414
O O4 0.230554 0.616686 0.053874
O O5 0.880643 0.324161 0.764278
O O6 0.941446 0.547279 0.806846
O O7 0.330370 0.116258 0.662567
O O8 0.118095 0.026956 0.734814
O O9 0.416277 0.052152 0.062735
O O10 0.551566 0.853031 0.100733
O O11 0.262325 0.244283 0.887324
O O12 0.232071 0.409263 0.977746
O O13 0.113258 0.142042 0.985354
O O14 0.973616 0.832275 0.808309
#
# Coordination Sequence:
#
# PCOD9291708 Si02
#       8
#     8   4   8   8   8   4   8   8
#     4  11  22  44  67 100 135 175 222 283 328 396
#     4  10  22  42  72  88 140 172 212 282 342 376
#     4  11  22  44  65 100 132 171 220 283 321 405
#     4  12  24  40  74  93 134 179 218 269 346 384
#     4  11  22  44  67 100 135 175 222 283 328 396
#     4  10  22  42  72  88 140 172 212 282 342 376
#     4  11  22  44  65 100 132 171 220 283 321 405
#     4  10  22  42  70  92 144 174 220 288 332 386
#
# _framework density 23.634523999999999
#
# number of rings (size 3 to 8) (size 9 to 14) (size 15 to 20)
#    0.000    1.143    5.714    0.000    0.000    2.286 
#    0.000    5.714    0.000    0.000    0.000    0.000 
#    0.000    0.000    0.000    0.000    0.000    0.000 
#
# Total GULP energy -156020.648659 kJ/mol
# GULP energy per Si atom -5572.166024 kJ/mol
# Density = 2.358073 g / cm^3
# Si number density = 23.634524 Si / 1000 Ang^3
#
#
#
# Elastic Constant Matrix: (Units=GPa)
#
#
# Indices 1 2 3 4 5 6 
#
# 1 44.1091 5.0183 8.2518 0.0000 -4.6390 0.0000
# 2 5.0183 101.1361 39.6600 0.0000 -7.6102 0.0000
# 3 8.2518 39.6600 114.1474 0.0000 -14.8498 0.0000
# 4 0.0000 0.0000 0.0000 70.0943 0.0000 -10.1371
# 5 -4.6390 -7.6102 -14.8498 0.0000 28.2774 0.0000
# 6 0.0000 0.0000 0.0000 -10.1371 0.0000 21.2137
#
#
#
# Elastic Compliance Matrix: (Units=1/GPa)
#
#
# Indices 1 2 3 4 5 6 
#
# 1 0.023260 -0.000486 -0.001109 0.000000 0.003103 0.000000
# 2 -0.000486 0.011487 -0.003826 0.000000 0.001003 0.000000
# 3 -0.001109 -0.003826 0.010747 0.000000 0.004432 0.000000
# 4 0.000000 0.000000 0.000000 0.015326 0.000000 0.007323
# 5 0.003103 0.001003 0.004432 0.000000 0.038470 0.000000
# 6 0.000000 0.000000 0.000000 0.007323 0.000000 0.050639
#
#
# Mechanical properties :
#
#
# Convention : Reuss Voigt Hill
#
# Bulk Modulus (GPa) = 28.85743 40.58363 34.72053
# Shear Modulus (GPa) = 29.01563 37.68126 33.34845
#
# Velocity S-wave (km/s) = 3.50763 3.99724 3.76041
# Velocity P-wave (km/s) = 5.35173 6.20585 5.79454
#
# Compressibility (1/GPa) = 0.03465312
#
# Stress axis : x y z
#
# Youngs Moduli (GPa) = 42.99202 87.05152 93.05302
#
# Poissons Ratio (x) = 0.04229 0.10320
# Poissons Ratio (y) = 0.02088 0.35599
# Poissons Ratio (z) = 0.04768 0.33303
#
# Static dielectric constant tensor:
#      x y z
#    x 1.941070 0.000000 0.012250 
#    y 0.000000 1.949380 0.000000 
#    z 0.012250 0.000000 1.948010 
# 
# From -- ./inp_files/291542.got.cif
#   From: 2010.05.17/outbox.cif.g08.bks.cpg/sg15_146_cif.got.tgz:291542.got - 2010.06.03 18:47:42.
