data_PCOD9291624
_publ_section_title
;
Structure prediction by ZEFSAII (Michael W. Deem and Ramdas Pophale) SiO2 
 PCOD9291624
Probable space group: C 2/C
;
_chemical_formula_sum "Si O2"
_cell_formula_units_Z 40
_cell_length_a 16.325563
_cell_length_b 7.570136
_cell_length_c 15.144983
_cell_angle_alpha 90.000000
_cell_angle_beta 97.210940
_cell_angle_gamma 90.000000
_cell_volume 1856.915069
_symmetry_space_group_name_H-M "C 2/C"
_symmetry_group_IT_number 15
_symmetry_cell_setting 'monoclinic'
loop_
_space_group_symop_operation_xyz
x,y,z
-x,y,1/2-z
-x,-y,-z
x,-y,1/2+z
1/2+x,1/2+y,z
1/2-x,1/2+y,1/2-z
1/2-x,1/2-y,-z
1/2+x,1/2-y,1/2+z
loop_
_atom_site_type_symbol
_atom_site_label
_atom_site_fract_x
_atom_site_fract_y
_atom_site_fract_z
Si Si1 0.463073 0.694878 0.490179
Si Si2 0.315898 0.507691 0.702234
Si Si3 0.787057 0.798951 0.878993
Si Si4 0.108468 0.344543 0.851313
Si Si5 0.938561 0.272838 0.166077
O O1 0.500000 0.500000 0.500000
O O2 0.368826 0.681363 0.445245
O O3 0.457542 0.786553 0.584530
O O4 0.515293 0.789321 0.420782
O O5 0.233579 0.596254 0.651036
O O6 0.299190 0.414189 0.792128
O O7 0.375500 0.680834 0.712751
O O8 0.362153 0.361741 0.649677
O O9 0.700111 0.863223 0.907929
O O10 0.088225 0.532363 0.807818
O O11 0.000000 0.200544 0.250000
#
# Coordination Sequence:
#
# PCOD9291624 Si02
#       5
#     8   8   8   8   8
#     4  12  23  43  68  97 141 172 213 279 334 385
#     4  10  22  43  67  95 130 173 223 277 319 386
#     4  10  22  42  69  92 132 174 223 264 328 391
#     4  10  25  42  66  97 133 176 218 267 336 393
#     4  12  24  43  67  98 132 173 224 272 325 396
#
# _framework density 21.541103
#
# number of rings (size 3 to 8) (size 9 to 14) (size 15 to 20)
#    1.200    0.000    4.000    2.400    0.000    2.400 
#    0.000    8.000    0.000    0.000    0.000    0.000 
#    0.000    0.000    0.000    0.000    0.000    0.000 
#
# Total GULP energy -111557.307495 kJ/mol
# GULP energy per Si atom -5577.865375 kJ/mol
# Density = 2.149207 g / cm^3
# Si number density = 21.541103 Si / 1000 Ang^3
#
#
#
# Elastic Constant Matrix: (Units=GPa)
#
#
# Indices 1 2 3 4 5 6 
#
# 1 81.4035 51.0337 34.8784 0.0000 -11.1095 0.0000
# 2 51.0337 124.2237 13.5525 0.0000 -0.0437 0.0000
# 3 34.8784 13.5525 42.0962 0.0000 -17.7380 0.0000
# 4 0.0000 0.0000 0.0000 -63.8357 0.0000 -66.2405
# 5 -11.1095 -0.0437 -17.7380 0.0000 42.6501 0.0000
# 6 0.0000 0.0000 0.0000 -66.2405 0.0000 7.9358
#
#
#
# Elastic Compliance Matrix: (Units=1/GPa)
#
#
# Indices 1 2 3 4 5 6 
#
# 1 0.025508 -0.008412 -0.018951 0.000000 -0.001246 0.000000
# 2 -0.008412 0.011181 0.002973 0.000000 -0.000943 0.000000
# 3 -0.018951 0.002973 0.044160 0.000000 0.013433 0.000000
# 4 0.000000 0.000000 0.000000 -0.001621 0.000000 -0.013534
# 5 -0.001246 -0.000943 0.013433 0.000000 0.028708 0.000000
# 6 0.000000 0.000000 0.000000 -0.013534 0.000000 0.013043
#
#
# Mechanical properties :
#
#
# Convention : Reuss Voigt Hill
#
# Bulk Modulus (GPa) = 31.18406 49.62806 40.40606
# Shear Modulus (GPa) = 27.70857 7.23396 17.47126
#
# Velocity S-wave (km/s) = 3.59041 1.83453 2.85101
# Velocity P-wave (km/s) = 5.62992 5.25130 5.44390
#
# Compressibility (1/GPa) = 0.03206767
#
# Stress axis : x y z
#
# Youngs Moduli (GPa) = 39.20312 89.43534 22.64485
#
# Poissons Ratio (x) = 0.75235 0.42915
# Poissons Ratio (y) = 0.32978 -0.06731
# Poissons Ratio (z) = 0.74295 -0.26585
#
# Static dielectric constant tensor:
#      x y z
#    x 1.818080 0.000000 -0.019600 
#    y 0.000000 1.761860 0.000000 
#    z -0.019600 0.000000 1.817920 
# 
# From -- ./inp_files/208035.got.cif
#   From: 2010.05.17/outbox.cif.g08.bks.cpg/sg15_105_cif.got.tgz:208035.got - 2010.06.03 18:47:42.
