data_PCOD9291449
_publ_section_title
;
Structure prediction by ZEFSAII (Michael W. Deem and Ramdas Pophale) SiO2 
 PCOD9291449
Probable space group: C 2/C
;
_chemical_formula_sum "Si O2"
_cell_formula_units_Z 52
_cell_length_a 8.156179
_cell_length_b 27.980466
_cell_length_c 10.839119
_cell_angle_alpha 90.000000
_cell_angle_beta 111.059702
_cell_angle_gamma 90.000000
_cell_volume 2308.412577
_symmetry_space_group_name_H-M "C 2/C"
_symmetry_group_IT_number 15
_symmetry_cell_setting 'monoclinic'
loop_
_space_group_symop_operation_xyz
x,y,z
-x,y,1/2-z
-x,-y,-z
x,-y,1/2+z
1/2+x,1/2+y,z
1/2-x,1/2+y,1/2-z
1/2-x,1/2-y,-z
1/2+x,1/2-y,1/2+z
loop_
_atom_site_type_symbol
_atom_site_label
_atom_site_fract_x
_atom_site_fract_y
_atom_site_fract_z
Si Si1 0.584030 0.084555 0.906112
Si Si2 0.000000 0.052189 0.750000
Si Si3 0.514314 0.243272 0.607824
Si Si4 0.294456 0.812651 0.675384
Si Si5 0.261610 0.903644 0.506543
Si Si6 0.247464 0.171970 0.439984
Si Si7 0.693602 0.503142 0.113404
O O1 0.500000 0.096807 0.750000
O O2 0.671348 0.032635 0.916157
O O3 0.433715 0.088510 0.968926
O O4 0.735007 0.122266 0.985239
O O5 0.907687 0.084564 0.622689
O O6 0.846320 0.018408 0.762988
O O7 0.500000 0.232625 0.750000
O O8 0.708149 0.261068 0.631669
O O9 0.432197 0.199482 0.513064
O O10 0.395419 0.290381 0.549463
O O11 0.500000 0.808560 0.750000
O O12 0.255304 0.851369 0.561275
O O13 0.219658 0.832151 0.786397
O O14 0.260180 0.943205 0.615259
O O15 0.500000 0.500000 0.000000
#
# Coordination Sequence:
#
# PCOD9291449 Si02
#       7
#     8   4   8   8   8   8   8
#     4  12  23  41  69  96 132 178 231 274 333 405
#     4  10  22  46  62  98 130 174 232 272 336 402
#     4   9  21  42  68  94 134 176 225 277 334 404
#     4  11  23  41  64 102 136 174 219 274 341 409
#     4  11  24  43  65  98 140 176 227 277 337 402
#     4  10  22  42  67  98 130 176 227 275 338 401
#     4  10  24  41  65  93 132 177 221 273 332 392
#
# _framework density 22.526305000000001
#
# number of rings (size 3 to 8) (size 9 to 14) (size 15 to 20)
#    0.000    1.538    3.077    0.923    4.308    3.692 
#    1.385    0.000    0.000    0.000    0.000    0.000 
#    0.000    0.000    0.000    0.000    0.000    0.000 
#
# Total GULP energy -145399.571884 kJ/mol
# GULP energy per Si atom -5592.291226 kJ/mol
# Density = 2.247503 g / cm^3
# Si number density = 22.526305 Si / 1000 Ang^3
#
#
#
# Elastic Constant Matrix: (Units=GPa)
#
#
# Indices 1 2 3 4 5 6 
#
# 1 66.3852 18.5200 12.2897 0.0000 -15.5471 0.0000
# 2 18.5200 58.4498 16.6861 0.0000 -4.8602 0.0000
# 3 12.2897 16.6861 76.0673 0.0000 -3.9429 0.0000
# 4 0.0000 0.0000 0.0000 36.4091 0.0000 4.8891
# 5 -15.5471 -4.8602 -3.9429 0.0000 24.3828 0.0000
# 6 0.0000 0.0000 0.0000 4.8891 0.0000 31.5342
#
#
#
# Elastic Compliance Matrix: (Units=1/GPa)
#
#
# Indices 1 2 3 4 5 6 
#
# 1 0.019265 -0.004755 -0.001494 0.000000 0.011094 0.000000
# 2 -0.004755 0.019648 -0.003525 0.000000 0.000314 0.000000
# 3 -0.001494 -0.003525 0.014194 0.000000 0.000640 0.000000
# 4 0.000000 0.000000 0.000000 0.028050 0.000000 -0.004349
# 5 0.011094 0.000314 0.000640 0.000000 0.048253 0.000000
# 6 0.000000 0.000000 0.000000 -0.004349 0.000000 0.032386
#
#
# Mechanical properties :
#
#
# Convention : Reuss Voigt Hill
#
# Bulk Modulus (GPa) = 29.79966 32.87712 31.33839
# Shear Modulus (GPa) = 25.96984 28.69231 27.33108
#
# Velocity S-wave (km/s) = 3.39907 3.57280 3.48702
# Velocity P-wave (km/s) = 5.35374 5.62553 5.49131
#
# Compressibility (1/GPa) = 0.03355743
#
# Stress axis : x y z
#
# Youngs Moduli (GPa) = 51.90738 50.89593 70.45139
#
# Poissons Ratio (x) = 0.24201 0.10528
# Poissons Ratio (y) = 0.24682 0.24837
# Poissons Ratio (z) = 0.07757 0.17943
#
# Static dielectric constant tensor:
#      x y z
#    x 1.893010 0.000000 -0.013940 
#    y 0.000000 1.797710 0.000000 
#    z -0.013940 0.000000 1.858240 
# 
# From -- ./inp_files/81489.got.cif
#   From: 2010.05.17/outbox.cif.g08.bks.cpg/sg15_41_cif.got.tgz:81489.got - 2010.06.03 18:47:42.
