data_PCOD9291043
_publ_section_title
;
Structure prediction by ZEFSAII (Michael W. Deem and Ramdas Pophale) SiO2 
 PCOD9291043
Probable space group: C 2/C
;
_chemical_formula_sum "Si O2"
_cell_formula_units_Z 56
_cell_length_a 7.396634
_cell_length_b 32.721786
_cell_length_c 18.072044
_cell_angle_alpha 90.000000
_cell_angle_beta 34.939457
_cell_angle_gamma 90.000000
_cell_volume 2505.033741
_symmetry_space_group_name_H-M "C 2/C"
_symmetry_group_IT_number 15
_symmetry_cell_setting 'monoclinic'
loop_
_space_group_symop_operation_xyz
x,y,z
-x,y,1/2-z
-x,-y,-z
x,-y,1/2+z
1/2+x,1/2+y,z
1/2-x,1/2+y,1/2-z
1/2-x,1/2-y,-z
1/2+x,1/2-y,1/2+z
loop_
_atom_site_type_symbol
_atom_site_label
_atom_site_fract_x
_atom_site_fract_y
_atom_site_fract_z
Si Si1 0.722304 0.797338 0.102430
Si Si2 0.194486 0.570949 0.252775
Si Si3 0.448785 0.423286 0.451897
Si Si4 0.675286 0.618559 0.011463
Si Si5 0.377043 0.505355 0.868368
Si Si6 0.712090 0.357397 0.107149
Si Si7 0.191807 0.731716 0.898872
O O1 0.500000 0.798357 0.250000
O O2 0.834471 0.841581 0.036693
O O3 0.521701 0.782336 0.098949
O O4 0.012262 0.765660 0.006768
O O5 0.460851 0.538785 0.183351
O O6 0.000000 0.552206 0.250000
O O7 0.924008 0.578873 0.402396
O O8 0.366094 0.611365 0.165185
O O9 0.656012 0.417590 0.456422
O O10 0.495064 0.465656 0.394540
O O11 0.477059 0.385514 0.386245
O O12 0.968102 0.621709 0.969178
O O13 0.500000 0.524499 0.750000
O O14 0.000000 0.500000 0.000000
O O15 0.500000 0.353338 0.250000
O O16 0.762391 0.310010 0.068849
O O17 0.500000 0.746402 0.750000
#
# Coordination Sequence:
#
# PCOD9291043 Si02
#       7
#     8   8   8   8   8   8   8
#     4  10  22  42  63  98 134 171 220 275 330 389
#     4  10  24  46  63  94 133 171 224 272 331 404
#     4  11  24  43  67  98 129 173 221 273 340 391
#     4  10  24  41  67  92 134 173 215 281 327 394
#     4  12  24  45  71  98 132 174 222 276 337 402
#     4  10  22  42  63  97 131 169 226 276 327 399
#     4   9  21  41  64  92 134 172 218 273 326 400
#
# _framework density 22.354987000000001
#
# number of rings (size 3 to 8) (size 9 to 14) (size 15 to 20)
#    0.000    1.714    1.429    1.286    6.000    4.571 
#   12.857    0.000    0.000    0.000    0.000    0.000 
#    0.000    0.000    0.000    0.000    0.000    0.000 
#
# Total GULP energy -156351.231886 kJ/mol
# GULP energy per Si atom -5583.972567 kJ/mol
# Density = 2.230411 g / cm^3
# Si number density = 22.354987 Si / 1000 Ang^3
#
#
#
# Elastic Constant Matrix: (Units=GPa)
#
#
# Indices 1 2 3 4 5 6 
#
# 1 54.0987 10.4594 3.9597 0.0000 0.0691 0.0000
# 2 10.4594 64.1457 40.0228 0.0000 11.4445 0.0000
# 3 3.9597 40.0228 92.4395 0.0000 4.5855 0.0000
# 4 0.0000 0.0000 0.0000 13.6180 0.0000 13.3509
# 5 0.0691 11.4445 4.5855 0.0000 34.3384 0.0000
# 6 0.0000 0.0000 0.0000 13.3509 0.0000 13.7626
#
#
#
# Elastic Compliance Matrix: (Units=1/GPa)
#
#
# Indices 1 2 3 4 5 6 
#
# 1 0.019163 -0.003807 0.000772 0.000000 0.001127 0.000000
# 2 -0.003807 0.023384 -0.009639 0.000000 -0.006499 0.000000
# 3 0.000772 -0.009639 0.014898 0.000000 0.001222 0.000000
# 4 0.000000 0.000000 0.000000 1.500404 0.000000 -1.455520
# 5 0.001127 -0.006499 0.001222 0.000000 0.031122 0.000000
# 6 0.000000 0.000000 0.000000 -1.455520 0.000000 1.484639
#
#
# Mechanical properties :
#
#
# Convention : Reuss Voigt Hill
#
# Bulk Modulus (GPa) = 31.15723 35.50754 33.33238
# Shear Modulus (GPa) = 1.60789 22.75995 12.18392
#
# Velocity S-wave (km/s) = 0.84901 3.19425 2.33710
# Velocity P-wave (km/s) = 3.86378 5.43344 4.71440
#
# Compressibility (1/GPa) = 0.03209528
#
# Stress axis : x y z
#
# Youngs Moduli (GPa) = 52.18422 42.76468 67.12533
#
# Poissons Ratio (x) = 0.16281 -0.05179
# Poissons Ratio (y) = 0.19867 0.64701
# Poissons Ratio (z) = -0.04026 0.41220
#
# Static dielectric constant tensor:
#      x y z
#    x 1.838750 0.000000 -0.071260 
#    y 0.000000 1.853540 0.000000 
#    z -0.071260 0.000000 1.818660 
# 
# From -- ./inp_files/234911.got.cif
#   From: 2010.05.17/outbox.cif.g08.bks.cpg/sg15_118_cif.got.tgz:234911.got - 2010.06.03 18:47:42.
