data_PCOD9291794
_publ_section_title
;
Structure prediction by ZEFSAII (Michael W. Deem and Ramdas Pophale) SiO2 
 PCOD9291794
Probable space group: C 2/C
;
_chemical_formula_sum "Si O2"
_cell_formula_units_Z 52
_cell_length_a 17.786587
_cell_length_b 8.656637
_cell_length_c 19.009312
_cell_angle_alpha 90.000000
_cell_angle_beta 129.341995
_cell_angle_gamma 90.000000
_cell_volume 2263.595307
_symmetry_space_group_name_H-M "C 2/C"
_symmetry_group_IT_number 15
_symmetry_cell_setting 'monoclinic'
loop_
_space_group_symop_operation_xyz
x,y,z
-x,y,1/2-z
-x,-y,-z
x,-y,1/2+z
1/2+x,1/2+y,z
1/2-x,1/2+y,1/2-z
1/2-x,1/2-y,-z
1/2+x,1/2-y,1/2+z
loop_
_atom_site_type_symbol
_atom_site_label
_atom_site_fract_x
_atom_site_fract_y
_atom_site_fract_z
Si Si1 0.500000 0.456248 0.750000
Si Si2 0.296556 0.395076 0.680764
Si Si3 0.322052 0.884489 0.022153
Si Si4 0.581405 0.709865 0.894243
Si Si5 0.764669 0.361877 0.598681
Si Si6 0.512907 0.987662 0.091887
Si Si7 0.232288 0.430620 0.267620
O O1 0.401862 0.364373 0.709599
O O2 0.522590 0.562647 0.831973
O O3 0.222644 0.449240 0.576576
O O4 0.298841 0.526491 0.741234
O O5 0.254631 0.236042 0.688915
O O6 0.250000 0.750000 0.000000
O O7 0.308056 0.001705 0.076640
O O8 0.435208 0.861629 0.074384
O O9 0.649254 0.741358 0.865223
O O10 0.517070 0.852705 0.885153
O O11 0.661987 0.681942 0.002756
O O12 0.752105 0.431404 0.667517
O O13 0.621502 0.941599 0.175358
O O14 0.500000 0.000000 0.000000
#
# Coordination Sequence:
#
# PCOD9291794 Si02
#       7
#     4   8   8   8   8   8   8
#     4  12  26  46  72 102 142 188 242 290 352 442
#     4  12  29  45  73 105 146 188 237 299 364 424
#     4  11  22  46  69  98 139 185 234 293 350 427
#     4  10  23  40  72 103 139 188 235 290 357 427
#     4  10  22  42  72 101 140 183 235 290 359 422
#     4  11  25  43  70 103 143 190 241 292 359 429
#     4  12  28  46  71 106 146 187 239 303 363 421
#
# _framework density 22.972304000000001
#
# number of rings (size 3 to 8) (size 9 to 14) (size 15 to 20)
#    0.000    0.923    4.615    0.923    8.615    1.846 
#    0.000    0.769    0.000    0.000    0.000    0.000 
#    0.000    0.000    0.000    0.000    0.000    0.000 
#
# Total GULP energy -145360.057960 kJ/mol
# GULP energy per Si atom -5590.771460 kJ/mol
# Density = 2.292002 g / cm^3
# Si number density = 22.972304 Si / 1000 Ang^3
#
#
#
# Elastic Constant Matrix: (Units=GPa)
#
#
# Indices 1 2 3 4 5 6 
#
# 1 109.9313 11.1757 19.5616 0.0000 -0.6974 0.0000
# 2 11.1757 33.8687 -17.2509 0.0000 -3.9921 0.0000
# 3 19.5616 -17.2509 54.9666 0.0000 -10.3054 0.0000
# 4 0.0000 0.0000 0.0000 33.1506 0.0000 0.2711
# 5 -0.6974 -3.9921 -10.3054 0.0000 43.6395 0.0000
# 6 0.0000 0.0000 0.0000 0.2711 0.0000 33.8533
#
#
#
# Elastic Compliance Matrix: (Units=1/GPa)
#
#
# Indices 1 2 3 4 5 6 
#
# 1 0.010980 -0.007197 -0.006547 0.000000 -0.002029 0.000000
# 2 -0.007197 0.041478 0.017022 0.000000 0.007699 0.000000
# 3 -0.006547 0.017022 0.027348 0.000000 0.007911 0.000000
# 4 0.000000 0.000000 0.000000 0.030167 0.000000 -0.000242
# 5 -0.002029 0.007699 0.007911 0.000000 0.025455 0.000000
# 6 0.000000 0.000000 0.000000 -0.000242 0.000000 0.029541
#
#
# Mechanical properties :
#
#
# Convention : Reuss Voigt Hill
#
# Bulk Modulus (GPa) = 11.57885 25.08217 18.33051
# Shear Modulus (GPa) = 26.70922 34.48068 30.59495
#
# Velocity S-wave (km/s) = 3.41349 3.87843 3.65337
# Velocity P-wave (km/s) = 4.53731 5.56763 5.07867
#
# Compressibility (1/GPa) = 0.08636438
#
# Stress axis : x y z
#
# Youngs Moduli (GPa) = 91.07192 24.10894 36.56541
#
# Poissons Ratio (x) = 0.17351 0.23939
# Poissons Ratio (y) = 0.65544 -0.62243
# Poissons Ratio (z) = 0.59623 -0.41039
#
# Static dielectric constant tensor:
#      x y z
#    x 2.005990 0.000000 0.081780 
#    y 0.000000 2.082400 0.000000 
#    z 0.081780 0.000000 1.891050 
# 
# From -- ./inp_files/247883.got.cif
#   From: 2010.05.17/outbox.cif.g08.bks.cpg/sg15_124_cif.got.tgz:247883.got - 2010.06.03 18:47:42.
