data_PCOD9291607
_publ_section_title
;
Structure prediction by ZEFSAII (Michael W. Deem and Ramdas Pophale) SiO2 
 PCOD9291607
Probable space group: C 2/C
;
_chemical_formula_sum "Si O2"
_cell_formula_units_Z 40
_cell_length_a 4.846624
_cell_length_b 13.860785
_cell_length_c 23.703704
_cell_angle_alpha 90.000000
_cell_angle_beta 98.827675
_cell_angle_gamma 90.000000
_cell_volume 1573.505144
_symmetry_space_group_name_H-M "C 2/C"
_symmetry_group_IT_number 15
_symmetry_cell_setting 'monoclinic'
loop_
_space_group_symop_operation_xyz
x,y,z
-x,y,1/2-z
-x,-y,-z
x,-y,1/2+z
1/2+x,1/2+y,z
1/2-x,1/2+y,1/2-z
1/2-x,1/2-y,-z
1/2+x,1/2-y,1/2+z
loop_
_atom_site_type_symbol
_atom_site_label
_atom_site_fract_x
_atom_site_fract_y
_atom_site_fract_z
Si Si1 0.910949 0.718961 0.855775
Si Si2 0.191839 0.409144 0.520726
Si Si3 0.100298 0.936793 0.638812
Si Si4 0.375604 0.026761 0.805644
Si Si5 0.479503 0.711179 0.933179
O O1 0.836335 0.641436 0.806702
O O2 0.240034 0.720183 0.877963
O O3 0.760662 0.686512 0.909213
O O4 0.816019 0.827783 0.843370
O O5 0.412897 0.434006 0.576951
O O6 0.372325 0.366215 0.474730
O O7 0.000000 0.500000 0.500000
O O8 0.012715 0.316790 0.537657
O O9 0.904591 0.978413 0.681752
O O10 0.379031 0.999268 0.642554
O O11 0.500000 0.995406 0.750000
#
# Coordination Sequence:
#
# PCOD9291607 Si02
#       5
#     8   8   8   8   8
#     4  11  24  46  68  97 139 178 224 286 335 394
#     4  10  22  42  69 102 143 184 220 270 332 401
#     4  11  25  46  71 103 139 177 227 282 338 407
#     4  12  27  47  72  99 130 176 233 289 348 406
#     4  10  23  41  67  99 136 183 228 262 325 413
#
# _framework density 25.420952
#
# number of rings (size 3 to 8) (size 9 to 14) (size 15 to 20)
#    0.000    1.200    0.000    5.400    0.000   12.000 
#    0.000   17.000    0.000    0.000    0.000    0.000 
#    0.000    0.000    0.000    0.000    0.000    0.000 
#
# Total GULP energy -112282.426127 kJ/mol
# GULP energy per Si atom -5614.121306 kJ/mol
# Density = 2.536309 g / cm^3
# Si number density = 25.420952 Si / 1000 Ang^3
#
#
#
# Elastic Constant Matrix: (Units=GPa)
#
#
# Indices 1 2 3 4 5 6 
#
# 1 126.4537 30.7258 12.7906 0.0000 -13.0556 0.0000
# 2 30.7258 161.0590 22.4400 0.0000 -9.4476 0.0000
# 3 12.7906 22.4400 46.2308 0.0000 -6.0981 0.0000
# 4 0.0000 0.0000 0.0000 4.2972 0.0000 -17.7253
# 5 -13.0556 -9.4476 -6.0981 0.0000 27.6846 0.0000
# 6 0.0000 0.0000 0.0000 -17.7253 0.0000 31.0033
#
#
#
# Elastic Compliance Matrix: (Units=1/GPa)
#
#
# Indices 1 2 3 4 5 6 
#
# 1 0.008702 -0.001275 -0.001344 0.000000 0.003373 0.000000
# 2 -0.001275 0.006916 -0.002855 0.000000 0.001130 0.000000
# 3 -0.001344 -0.002855 0.023870 0.000000 0.003650 0.000000
# 4 0.000000 0.000000 0.000000 -0.171328 0.000000 -0.097952
# 5 0.003373 0.001130 0.003650 0.000000 0.038901 0.000000
# 6 0.000000 0.000000 0.000000 -0.097952 0.000000 -0.023747
#
#
# Mechanical properties :
#
#
# Convention : Reuss Voigt Hill
#
# Bulk Modulus (GPa) = 35.03890 51.73958 43.38924
# Shear Modulus (GPa) = -51.96227 30.44949 -10.75639
#
# Velocity S-wave (km/s) = -4.52605 3.46469 -2.05925
# Velocity P-wave (km/s) = 3.67424 6.03347 3.38399
#
# Compressibility (1/GPa) = 0.02853971
#
# Stress axis : x y z
#
# Youngs Moduli (GPa) = 114.91650 144.58698 41.89411
#
# Poissons Ratio (x) = 0.18435 0.05630
# Poissons Ratio (y) = 0.14652 0.11962
# Poissons Ratio (z) = 0.15442 0.41283
#
# Static dielectric constant tensor:
#      x y z
#    x 2.147260 0.000000 0.356420 
#    y 0.000000 1.995590 0.000000 
#    z 0.356420 0.000000 2.522370 
# 
# From -- ./inp_files/304822.got.cif
#   From: 2010.05.17/outbox.cif.g08.bks.cpg/sg15_153_cif.got.tgz:304822.got - 2010.06.03 18:47:42.
