data_PCOD9291470
_publ_section_title
;
Structure prediction by ZEFSAII (Michael W. Deem and Ramdas Pophale) SiO2 
 PCOD9291470
Probable space group: C 2/C
;
_chemical_formula_sum "Si O2"
_cell_formula_units_Z 60
_cell_length_a 22.862480
_cell_length_b 8.216349
_cell_length_c 20.169229
_cell_angle_alpha 90.000000
_cell_angle_beta 139.589338
_cell_angle_gamma 90.000000
_cell_volume 2456.076060
_symmetry_space_group_name_H-M "C 2/C"
_symmetry_group_IT_number 15
_symmetry_cell_setting 'monoclinic'
loop_
_space_group_symop_operation_xyz
x,y,z
-x,y,1/2-z
-x,-y,-z
x,-y,1/2+z
1/2+x,1/2+y,z
1/2-x,1/2+y,1/2-z
1/2-x,1/2-y,-z
1/2+x,1/2-y,1/2+z
loop_
_atom_site_type_symbol
_atom_site_label
_atom_site_fract_x
_atom_site_fract_y
_atom_site_fract_z
Si Si1 0.819709 0.139510 0.595754
Si Si2 0.688298 0.993157 0.777174
Si Si3 0.489614 0.486957 0.391243
Si Si4 0.499751 0.117327 0.065383
Si Si5 0.688203 0.970979 0.564790
Si Si6 0.500000 0.637541 0.750000
Si Si7 0.806293 0.164608 0.280057
Si Si8 0.327201 0.627803 0.994729
O O1 0.750000 0.250000 0.500000
O O2 0.910605 0.240280 0.669101
O O3 0.772710 0.085459 0.621711
O O4 0.840488 0.974776 0.572950
O O5 0.681532 0.145978 0.721454
O O6 0.732824 0.064895 0.881994
O O7 0.588510 0.919614 0.686549
O O8 0.767189 0.876784 0.817787
O O9 0.499109 0.314480 0.437975
O O10 0.480576 0.454164 0.303421
O O11 0.399817 0.577220 0.340187
O O12 0.584660 0.585788 0.475090
O O13 0.500000 0.000000 0.000000
O O14 0.404043 0.068264 0.013706
O O15 0.720761 0.883085 0.659724
O O16 0.677894 0.821599 0.504379
#
# Coordination Sequence:
#
# PCOD9291470 Si02
#       8
#     8   8   8   8   8   4   8   8
#     4  11  23  42  71  97 135 173 224 272 334 405
#     4  11  25  42  64  97 136 167 228 270 338 397
#     4  11  24  43  70  98 135 175 226 273 337 403
#     4  12  26  42  66  96 133 176 221 277 330 397
#     4  11  22  45  66  96 133 168 221 271 338 392
#     4  10  22  42  68 100 130 174 222 270 328 390
#     4  11  23  41  70  94 129 181 211 282 329 398
#     4  10  25  42  67 100 128 174 215 278 337 399
#
# _framework density 24.429210000000001
#
# number of rings (size 3 to 8) (size 9 to 14) (size 15 to 20)
#    0.000    1.067    2.667    3.600    5.600    2.667 
#    0.000    0.000    0.000    0.000    0.000    0.000 
#    0.000    0.000    0.000    0.000    0.000    0.000 
#
# Total GULP energy -167550.770310 kJ/mol
# GULP energy per Si atom -5585.025677 kJ/mol
# Density = 2.437361 g / cm^3
# Si number density = 24.429210 Si / 1000 Ang^3
#
#
#
# Elastic Constant Matrix: (Units=GPa)
#
#
# Indices 1 2 3 4 5 6 
#
# 1 100.0329 37.1830 47.5668 0.0000 31.3122 0.0000
# 2 37.1830 96.2434 10.4029 0.0000 11.9555 0.0000
# 3 47.5668 10.4029 118.5928 0.0000 50.9185 0.0000
# 4 0.0000 0.0000 0.0000 37.1520 0.0000 2.4398
# 5 31.3122 11.9555 50.9185 0.0000 63.9832 0.0000
# 6 0.0000 0.0000 0.0000 2.4398 0.0000 38.5855
#
#
#
# Elastic Compliance Matrix: (Units=1/GPa)
#
#
# Indices 1 2 3 4 5 6 
#
# 1 0.014735 -0.004871 -0.004219 0.000000 -0.002943 0.000000
# 2 -0.004871 0.012249 0.001274 0.000000 -0.000918 0.000000
# 3 -0.004219 0.001274 0.014018 0.000000 -0.009329 0.000000
# 4 0.000000 0.000000 0.000000 0.027029 0.000000 -0.001709
# 5 -0.002943 -0.000918 -0.009329 0.000000 0.024665 0.000000
# 6 0.000000 0.000000 0.000000 -0.001709 0.000000 0.026025
#
#
# Mechanical properties :
#
#
# Convention : Reuss Voigt Hill
#
# Bulk Modulus (GPa) = 39.41853 56.13049 47.77451
# Shear Modulus (GPa) = 35.01172 42.59192 38.80182
#
# Velocity S-wave (km/s) = 3.78986 4.18003 3.98972
# Velocity P-wave (km/s) = 5.94319 6.80614 6.38925
#
# Compressibility (1/GPa) = 0.02536878
#
# Stress axis : x y z
#
# Youngs Moduli (GPa) = 67.86653 81.64171 71.33566
#
# Poissons Ratio (x) = 0.39768 0.30097
# Poissons Ratio (y) = 0.33058 -0.09086
# Poissons Ratio (z) = 0.28633 -0.10398
#
# Static dielectric constant tensor:
#      x y z
#    x 1.693960 0.000000 0.030420 
#    y 0.000000 1.911760 0.000000 
#    z 0.030420 0.000000 2.027970 
# 
# From -- ./inp_files/281699.got.cif
#   From: 2010.05.17/outbox.cif.g08.bks.cpg/sg15_141_cif.got.tgz:281699.got - 2010.06.03 18:47:42.
