data_PCOD9291714
_publ_section_title
;
Structure prediction by ZEFSAII (Michael W. Deem and Ramdas Pophale) SiO2 
 PCOD9291714
Probable space group: C 2/C
;
_chemical_formula_sum "Si O2"
_cell_formula_units_Z 48
_cell_length_a 20.671810
_cell_length_b 4.990782
_cell_length_c 25.155844
_cell_angle_alpha 90.000000
_cell_angle_beta 131.690414
_cell_angle_gamma 90.000000
_cell_volume 1938.031896
_symmetry_space_group_name_H-M "C 2/C"
_symmetry_group_IT_number 15
_symmetry_cell_setting 'monoclinic'
loop_
_space_group_symop_operation_xyz
x,y,z
-x,y,1/2-z
-x,-y,-z
x,-y,1/2+z
1/2+x,1/2+y,z
1/2-x,1/2+y,1/2-z
1/2-x,1/2-y,-z
1/2+x,1/2-y,1/2+z
loop_
_atom_site_type_symbol
_atom_site_label
_atom_site_fract_x
_atom_site_fract_y
_atom_site_fract_z
Si Si1 0.833676 0.908517 0.715994
Si Si2 0.500000 0.484121 0.750000
Si Si3 0.150245 0.524775 0.585282
Si Si4 0.875776 0.441487 0.805458
Si Si5 0.250000 0.750000 0.500000
Si Si6 0.946082 0.306944 0.617890
Si Si7 0.115699 0.973453 0.002126
O O1 0.753825 0.987681 0.634870
O O2 0.814961 0.660757 0.744269
O O3 0.916729 0.830674 0.726274
O O4 0.856610 0.162309 0.765424
O O5 0.461818 0.667800 0.682584
O O6 0.135104 0.449436 0.637717
O O7 0.122646 0.822669 0.555487
O O8 0.106166 0.320215 0.520284
O O9 0.976325 0.511118 0.848618
O O10 0.153527 0.607825 0.440016
O O11 0.202237 0.969033 0.514529
O O12 0.957299 0.085988 0.577069
#
# Coordination Sequence:
#
# PCOD9291714 Si02
#       7
#     8   4   8   8   4   8   8
#     4  11  24  41  66 100 131 177 216 280 315 397
#     4  10  22  42  70  94 132 170 228 260 348 372
#     4  12  23  42  67  97 132 182 212 268 334 390
#     4  11  24  42  66  96 137 169 227 266 325 388
#     4   8  20  46  60  98 132 162 214 270 320 382
#     4   9  22  44  66 100 129 177 209 288 309 403
#     4  10  24  40  67  94 131 172 219 269 324 394
#
# _framework density 24.767395
#
# number of rings (size 3 to 8) (size 9 to 14) (size 15 to 20)
#    1.000    0.667    0.000    4.000    0.000   10.000 
#    0.000    0.000    0.000    0.000    0.000    0.000 
#    0.000    0.000    0.000    0.000    0.000    0.000 
#
# Total GULP energy -133743.777630 kJ/mol
# GULP energy per Si atom -5572.657401 kJ/mol
# Density = 2.471102 g / cm^3
# Si number density = 24.767395 Si / 1000 Ang^3
#
#
#
# Elastic Constant Matrix: (Units=GPa)
#
#
# Indices 1 2 3 4 5 6 
#
# 1 55.2653 -0.0863 3.5461 -0.0107 -2.9171 0.0118
# 2 -0.0863 48.9747 4.4870 -0.0373 -4.1798 0.0362
# 3 3.5461 4.4870 92.3480 -0.0054 -2.2580 0.0045
# 4 -0.0107 -0.0373 -0.0054 27.1210 -0.0004 -12.0066
# 5 -2.9171 -4.1798 -2.2580 -0.0004 40.1971 -0.0030
# 6 0.0118 0.0362 0.0045 -12.0066 -0.0030 17.2719
#
#
#
# Elastic Compliance Matrix: (Units=1/GPa)
#
#
# Indices 1 2 3 4 5 6 
#
# 1 0.018207 0.000205 -0.000677 0.000003 0.001305 -0.000011
# 2 0.000205 0.020687 -0.000961 0.000014 0.002112 -0.000033
# 3 -0.000677 -0.000961 0.010913 0.000001 0.000464 0.000000
# 4 0.000003 0.000014 0.000001 0.053264 0.000005 0.037026
# 5 0.001305 0.002112 0.000464 0.000005 0.025218 0.000002
# 6 -0.000011 -0.000033 0.000000 0.037026 0.000002 0.083637
#
#
# Mechanical properties :
#
#
# Convention : Reuss Voigt Hill
#
# Bulk Modulus (GPa) = 21.30335 23.60908 22.45622
# Shear Modulus (GPa) = 21.69772 29.49406 25.59589
#
# Velocity S-wave (km/s) = 2.96304 3.45460 3.21822
# Velocity P-wave (km/s) = 4.50846 5.04632 4.78495
#
# Compressibility (1/GPa) = 0.04694097
#
# Stress axis : x y z
#
# Youngs Moduli (GPa) = 54.92336 48.33846 91.63664
#
# Poissons Ratio (x) = -0.00993 0.06206
# Poissons Ratio (y) = -0.01128 0.08810
# Poissons Ratio (z) = 0.03720 0.04647
#
# Static dielectric constant tensor:
#      x y z
#    x 2.014580 0.000000 0.020840 
#    y 0.000000 1.972890 0.000010 
#    z 0.020840 0.000010 1.976210 
# 
# From -- ./inp_files/317122.got.cif
#   From: 2010.05.17/outbox.cif.g08.bks.cpg/sg15_159_cif.got.tgz:317122.got - 2010.06.03 18:47:42.
