data_PCOD9291019
_publ_section_title
;
Structure prediction by ZEFSAII (Michael W. Deem and Ramdas Pophale) SiO2 
 PCOD9291019
Probable space group: C 2/C
;
_chemical_formula_sum "Si O2"
_cell_formula_units_Z 48
_cell_length_a 15.326239
_cell_length_b 27.150382
_cell_length_c 8.603596
_cell_angle_alpha 90.000000
_cell_angle_beta 38.239862
_cell_angle_gamma 90.000000
_cell_volume 2215.902318
_symmetry_space_group_name_H-M "C 2/C"
_symmetry_group_IT_number 15
_symmetry_cell_setting 'monoclinic'
loop_
_space_group_symop_operation_xyz
x,y,z
-x,y,1/2-z
-x,-y,-z
x,-y,1/2+z
1/2+x,1/2+y,z
1/2-x,1/2+y,1/2-z
1/2-x,1/2-y,-z
1/2+x,1/2-y,1/2+z
loop_
_atom_site_type_symbol
_atom_site_label
_atom_site_fract_x
_atom_site_fract_y
_atom_site_fract_z
Si Si1 0.702035 0.705456 0.736497
Si Si2 0.386934 0.933127 0.694018
Si Si3 0.500000 0.008287 0.750000
Si Si4 0.318034 0.616892 0.234387
Si Si5 0.334496 0.213679 0.996635
Si Si6 0.000000 0.139006 0.250000
Si Si7 0.500000 0.682341 0.750000
Si Si8 0.500000 0.847394 0.750000
O O1 0.605971 0.708298 0.718763
O O2 0.857976 0.682204 0.497317
O O3 0.710607 0.761319 0.780969
O O4 0.608090 0.673254 0.995254
O O5 0.480734 0.957594 0.427337
O O6 0.248682 0.923274 0.785113
O O7 0.449726 0.882768 0.677714
O O8 0.381489 0.970002 0.850075
O O9 0.203778 0.656559 0.456827
O O10 0.411283 0.605815 0.254437
O O11 0.412784 0.648307 0.987070
O O12 0.500000 0.219553 0.750000
O O13 0.250000 0.250000 0.000000
#
# Coordination Sequence:
#
# PCOD9291019 Si02
#       8
#     8   8   4   8   8   4   4   4
#     4  11  22  43  60  95 137 181 232 279 329 381
#     4  10  22  43  65 107 127 169 217 277 356 401
#     4   9  22  42  72  96 142 160 204 294 352 419
#     4  11  23  40  67  93 131 177 231 273 329 409
#     4  12  25  40  60  92 134 183 236 279 316 387
#     4  10  22  42  63  89 129 193 216 270 326 396
#     4  10  22  43  59  89 132 180 206 286 340 381
#     4  11  24  39  68 108 133 171 234 288 320 416
#
# _framework density 21.661605999999999
#
# number of rings (size 3 to 8) (size 9 to 14) (size 15 to 20)
#    0.000    1.333    4.167    1.000    5.833    1.333 
#    0.000    0.833    0.000    3.000    0.000    0.000 
#    0.000    0.000    0.000    0.000    0.000    0.000 
#
# Total GULP energy -133782.468714 kJ/mol
# GULP energy per Si atom -5574.269530 kJ/mol
# Density = 2.161230 g / cm^3
# Si number density = 21.661606 Si / 1000 Ang^3
#
#
#
# Elastic Constant Matrix: (Units=GPa)
#
#
# Indices 1 2 3 4 5 6 
#
# 1 178.6332 24.2758 26.9463 0.0000 1.0454 0.0000
# 2 24.2758 41.9261 21.5287 0.0000 -6.9340 0.0000
# 3 26.9463 21.5287 99.6573 0.0000 -9.4068 0.0000
# 4 0.0000 0.0000 0.0000 10.5484 0.0000 -14.6384
# 5 1.0454 -6.9340 -9.4068 0.0000 33.8803 0.0000
# 6 0.0000 0.0000 0.0000 -14.6384 0.0000 10.9425
#
#
#
# Elastic Compliance Matrix: (Units=1/GPa)
#
#
# Indices 1 2 3 4 5 6 
#
# 1 0.006208 -0.003225 -0.001091 0.000000 -0.001154 0.000000
# 2 -0.003225 0.029038 -0.004961 0.000000 0.004665 0.000000
# 3 -0.001091 -0.004961 0.011613 0.000000 0.002243 0.000000
# 4 0.000000 0.000000 0.000000 -0.110691 0.000000 -0.148078
# 5 -0.001154 0.004665 0.002243 0.000000 0.031129 0.000000
# 6 0.000000 0.000000 0.000000 -0.148078 0.000000 -0.106704
#
#
# Mechanical properties :
#
#
# Convention : Reuss Voigt Hill
#
# Bulk Modulus (GPa) = 35.32942 51.74649 43.53795
# Shear Modulus (GPa) = -44.87469 27.57197 -8.65136
#
# Velocity S-wave (km/s) = -4.55645 3.57157 -2.00063
# Velocity P-wave (km/s) = 3.36697 6.39911 3.84786
#
# Compressibility (1/GPa) = 0.02830502
#
# Stress axis : x y z
#
# Youngs Moduli (GPa) = 161.09168 34.43806 86.11334
#
# Poissons Ratio (x) = 0.11107 0.09393
# Poissons Ratio (y) = 0.51955 0.42717
# Poissons Ratio (z) = 0.17571 0.17083
#
# Static dielectric constant tensor:
#      x y z
#    x 1.778260 0.000000 0.076890 
#    y 0.000000 2.605380 0.000000 
#    z 0.076890 0.000000 1.816060 
# 
# From -- ./inp_files/33871.got.cif
#   From: 2010.05.17/outbox.cif.g08.bks.cpg/sg15_17_cif.got.tgz:33871.got - 2010.06.03 18:47:42.
