data_PCOD9291398
_publ_section_title
;
Structure prediction by ZEFSAII (Michael W. Deem and Ramdas Pophale) SiO2 
 PCOD9291398
Probable space group: C 2/C
;
_chemical_formula_sum "Si O2"
_cell_formula_units_Z 40
_cell_length_a 31.716530
_cell_length_b 10.452420
_cell_length_c 13.270455
_cell_angle_alpha 90.000000
_cell_angle_beta 154.055748
_cell_angle_gamma 90.000000
_cell_volume 1924.699091
_symmetry_space_group_name_H-M "C 2/C"
_symmetry_group_IT_number 15
_symmetry_cell_setting 'monoclinic'
loop_
_space_group_symop_operation_xyz
x,y,z
-x,y,1/2-z
-x,-y,-z
x,-y,1/2+z
1/2+x,1/2+y,z
1/2-x,1/2+y,1/2-z
1/2-x,1/2-y,-z
1/2+x,1/2-y,1/2+z
loop_
_atom_site_type_symbol
_atom_site_label
_atom_site_fract_x
_atom_site_fract_y
_atom_site_fract_z
Si Si1 0.770054 0.107172 0.915196
Si Si2 0.903878 0.419209 0.610571
Si Si3 0.660912 0.124302 0.869627
Si Si4 0.510702 0.436840 0.659861
Si Si5 0.506282 0.294292 0.076031
O O1 0.689927 0.077540 0.660923
O O2 0.733270 0.061216 0.945454
O O3 0.785132 0.260710 0.956927
O O4 0.875082 0.053427 0.116548
O O5 0.890261 0.528017 0.665141
O O6 0.915502 0.283922 0.693266
O O7 0.000000 0.437521 0.750000
O O8 0.580565 0.196002 0.629648
O O9 0.500000 0.388070 0.750000
O O10 0.467808 0.347175 0.479834
O O11 0.471824 0.580482 0.562568
#
# Coordination Sequence:
#
# PCOD9291398 Si02
#       5
#     8   8   8   8   8
#     4  10  24  42  65  94 126 177 207 273 318 387
#     4  12  24  40  70  97 133 172 215 263 329 385
#     4  10  23  44  63  94 133 164 221 263 325 381
#     4  10  23  43  69  94 129 172 223 264 320 387
#     4  10  22  42  67  92 128 175 211 267 325 382
#
# _framework density 20.78247
#
# number of rings (size 3 to 8) (size 9 to 14) (size 15 to 20)
#    0.000    1.600    2.000    1.200    2.800    8.000 
#    0.000    2.000    0.000    0.000    0.000    0.000 
#    0.000    0.000    0.000    0.000    0.000    0.000 
#
# Total GULP energy -111733.806976 kJ/mol
# GULP energy per Si atom -5586.690349 kJ/mol
# Density = 2.073517 g / cm^3
# Si number density = 20.782470 Si / 1000 Ang^3
#
#
#
# Elastic Constant Matrix: (Units=GPa)
#
#
# Indices 1 2 3 4 5 6 
#
# 1 124.2314 34.4053 25.5364 0.0000 2.2897 0.0000
# 2 34.4053 48.5092 12.5418 0.0000 8.0933 0.0000
# 3 25.5364 12.5418 93.9424 0.0000 -1.5356 0.0000
# 4 0.0000 0.0000 0.0000 32.9080 0.0000 -7.1933
# 5 2.2897 8.0933 -1.5356 0.0000 11.2258 0.0000
# 6 0.0000 0.0000 0.0000 -7.1933 0.0000 17.1811
#
#
#
# Elastic Compliance Matrix: (Units=1/GPa)
#
#
# Indices 1 2 3 4 5 6 
#
# 1 0.010419 -0.007424 -0.001792 0.000000 0.002982 0.000000
# 2 -0.007424 0.029868 -0.002302 0.000000 -0.020334 0.000000
# 3 -0.001792 -0.002302 0.011498 0.000000 0.003598 0.000000
# 4 0.000000 0.000000 0.000000 0.033449 0.000000 0.014004
# 5 0.002982 -0.020334 0.003598 0.000000 0.103624 0.000000
# 6 0.000000 0.000000 0.000000 0.014004 0.000000 0.064067
#
#
# Mechanical properties :
#
#
# Convention : Reuss Voigt Hill
#
# Bulk Modulus (GPa) = 34.78407 45.73889 40.26148
# Shear Modulus (GPa) = 17.51045 25.20962 21.36004
#
# Velocity S-wave (km/s) = 2.90584 3.48663 3.20940
# Velocity P-wave (km/s) = 5.29453 6.18587 5.75747
#
# Compressibility (1/GPa) = 0.02874880
#
# Stress axis : x y z
#
# Youngs Moduli (GPa) = 95.97914 33.48110 86.97046
#
# Poissons Ratio (x) = 0.24856 0.15588
# Poissons Ratio (y) = 0.71253 0.20019
# Poissons Ratio (z) = 0.17203 0.07707
#
# Static dielectric constant tensor:
#      x y z
#    x 1.751970 0.000000 -0.008830 
#    y 0.000000 1.736650 0.000000 
#    z -0.008830 0.000000 1.761430 
# 
# From -- ./inp_files/122363.got.cif
#   From: 2010.05.17/outbox.cif.g08.bks.cpg/sg15_62_cif.got.tgz:122363.got - 2010.06.03 18:47:42.
