data_PCOD9291493
_publ_section_title
;
Structure prediction by ZEFSAII (Michael W. Deem and Ramdas Pophale) SiO2 
 PCOD9291493
Probable space group: C 2/C
;
_chemical_formula_sum "Si O2"
_cell_formula_units_Z 44
_cell_length_a 16.876847
_cell_length_b 11.628114
_cell_length_c 23.157927
_cell_angle_alpha 90.000000
_cell_angle_beta 155.270049
_cell_angle_gamma 90.000000
_cell_volume 1901.216934
_symmetry_space_group_name_H-M "C 2/C"
_symmetry_group_IT_number 15
_symmetry_cell_setting 'monoclinic'
loop_
_space_group_symop_operation_xyz
x,y,z
-x,y,1/2-z
-x,-y,-z
x,-y,1/2+z
1/2+x,1/2+y,z
1/2-x,1/2+y,1/2-z
1/2-x,1/2-y,-z
1/2+x,1/2-y,1/2+z
loop_
_atom_site_type_symbol
_atom_site_label
_atom_site_fract_x
_atom_site_fract_y
_atom_site_fract_z
Si Si1 0.500000 0.705073 0.750000
Si Si2 0.500000 0.917915 0.250000
Si Si3 0.000000 0.500000 0.000000
Si Si4 0.988847 0.754229 0.832732
Si Si5 0.451414 0.515669 0.814144
Si Si6 0.052883 0.755752 0.010323
Si Si7 0.702220 0.601840 0.083408
O O1 0.509076 0.617979 0.809440
O O2 0.681192 0.788862 0.864398
O O3 0.405572 0.833427 0.140376
O O4 0.359415 0.002478 0.191268
O O5 0.226506 0.496641 0.167785
O O6 0.004325 0.360398 0.995203
O O7 0.769119 0.725205 0.672460
O O8 0.030603 0.732780 0.927394
O O9 0.019333 0.888752 0.839162
O O10 0.547848 0.551832 0.937459
O O11 0.909374 0.855651 0.934307
#
# Coordination Sequence:
#
# PCOD9291493 Si02
#       7
#     4   4   4   8   8   8   8
#     4  11  23  44  70 108 149 193 248 310 382 461
#     4  11  27  48  70 110 153 201 250 308 394 447
#     4  10  22  42  68 104 142 184 244 306 362 448
#     4  11  26  45  75 104 149 197 251 313 371 459
#     4  11  23  43  70 104 146 196 251 309 378 448
#     4  11  24  45  72 108 144 194 252 305 378 443
#     4  11  25  45  73 108 151 197 247 319 376 457
#
# _framework density 23.143073000000001
#
# number of rings (size 3 to 8) (size 9 to 14) (size 15 to 20)
#    0.000    1.091    1.818    3.273    0.000   11.636 
#    3.273    0.000    0.000    0.000    0.000    0.000 
#    0.000    0.000    0.000    0.000    0.000    0.000 
#
# Total GULP energy -122530.860563 kJ/mol
# GULP energy per Si atom -5569.584571 kJ/mol
# Density = 2.309040 g / cm^3
# Si number density = 23.143073 Si / 1000 Ang^3
#
#
#
# Elastic Constant Matrix: (Units=GPa)
#
#
# Indices 1 2 3 4 5 6 
#
# 1 74.8775 28.6363 31.5747 -0.0011 4.7587 -0.0005
# 2 28.6363 140.6451 6.1154 -0.0040 28.7525 0.0007
# 3 31.5747 6.1154 106.6707 -0.0027 24.0852 0.0008
# 4 -0.0011 -0.0040 -0.0027 36.2455 0.0003 10.5325
# 5 4.7587 28.7525 24.0852 0.0003 23.0057 -0.0002
# 6 -0.0005 0.0007 0.0008 10.5325 -0.0002 33.2230
#
#
#
# Elastic Compliance Matrix: (Units=1/GPa)
#
#
# Indices 1 2 3 4 5 6 
#
# 1 0.017962 -0.005614 -0.007517 -0.000001 0.011171 0.000001
# 2 -0.005614 0.011996 0.005365 0.000002 -0.019448 -0.000001
# 3 -0.007517 0.005365 0.016311 0.000002 -0.022227 -0.000001
# 4 -0.000001 0.000002 0.000002 0.030389 -0.000005 -0.009634
# 5 0.011171 -0.019448 -0.022227 -0.000005 0.088732 0.000003
# 6 0.000001 -0.000001 -0.000001 -0.009634 0.000003 0.033154
#
#
# Mechanical properties :
#
#
# Convention : Reuss Voigt Hill
#
# Bulk Modulus (GPa) = 32.53496 50.53845 41.53671
# Shear Modulus (GPa) = 22.28946 35.55264 28.92105
#
# Velocity S-wave (km/s) = 3.10678 3.92370 3.53889
# Velocity P-wave (km/s) = 5.19212 6.51246 5.88941
#
# Compressibility (1/GPa) = 0.03073617
#
# Stress axis : x y z
#
# Youngs Moduli (GPa) = 55.67256 83.36358 61.30941
#
# Poissons Ratio (x) = 0.46801 0.46088
# Poissons Ratio (y) = 0.31255 -0.32894
# Poissons Ratio (z) = 0.41851 -0.44726
#
# Static dielectric constant tensor:
#      x y z
#    x 1.950820 0.000000 0.071490 
#    y 0.000000 1.884610 0.000000 
#    z 0.071490 0.000000 1.879740 
# 
# From -- ./inp_files/318682.got.cif
#   From: 2010.05.17/outbox.cif.g08.bks.cpg/sg15_160_cif.got.tgz:318682.got - 2010.06.03 18:47:42.
