data_PCOD9291012
_publ_section_title
;
Structure prediction by ZEFSAII (Michael W. Deem and Ramdas Pophale) SiO2 
 PCOD9291012
Probable space group: C 2/C
;
_chemical_formula_sum "Si O2"
_cell_formula_units_Z 60
_cell_length_a 19.112652
_cell_length_b 25.457405
_cell_length_c 12.256054
_cell_angle_alpha 90.000000
_cell_angle_beta 28.587218
_cell_angle_gamma 90.000000
_cell_volume 2853.409101
_symmetry_space_group_name_H-M "C 2/C"
_symmetry_group_IT_number 15
_symmetry_cell_setting 'monoclinic'
loop_
_space_group_symop_operation_xyz
x,y,z
-x,y,1/2-z
-x,-y,-z
x,-y,1/2+z
1/2+x,1/2+y,z
1/2-x,1/2+y,1/2-z
1/2-x,1/2-y,-z
1/2+x,1/2-y,1/2+z
loop_
_atom_site_type_symbol
_atom_site_label
_atom_site_fract_x
_atom_site_fract_y
_atom_site_fract_z
Si Si1 0.349030 0.894584 0.497045
Si Si2 0.122289 0.568282 0.988942
Si Si3 0.560760 0.854755 0.893628
Si Si4 0.796780 0.153635 0.882477
Si Si5 0.449298 0.740640 0.540257
Si Si6 0.354460 0.522775 0.143230
Si Si7 0.765442 0.715583 0.085146
Si Si8 0.000000 0.082519 0.750000
O O1 0.361190 0.873381 0.603821
O O2 0.212244 0.932725 0.685865
O O3 0.332528 0.840000 0.456648
O O4 0.500000 0.920083 0.250000
O O5 0.000000 0.555847 0.250000
O O6 0.037772 0.596624 0.006994
O O7 0.227058 0.614205 0.890562
O O8 0.224442 0.520002 0.815978
O O9 0.675551 0.841670 0.641843
O O10 0.490220 0.797838 0.007270
O O11 0.840778 0.208791 0.768277
O O12 0.924077 0.120943 0.767111
O O13 0.595614 0.705425 0.346424
O O14 0.362252 0.755242 0.546529
O O15 0.500000 0.500000 0.000000
O O16 0.394573 0.546172 0.969034
O O17 0.750000 0.750000 0.000000
#
# Coordination Sequence:
#
# PCOD9291012 Si02
#       8
#     8   8   8   8   8   8   8   4
#     4  11  24  43  70  97 134 180 235 279 343 420
#     4  10  23  43  68  96 138 173 223 286 343 412
#     4  10  22  42  63 102 134 178 222 276 345 413
#     4  11  22  41  66  94 137 175 221 286 341 411
#     4  11  23  39  69 100 138 185 231 272 348 418
#     4  12  25  44  69  97 132 176 229 285 352 412
#     4  11  23  43  66 100 141 188 227 288 339 408
#     4  12  24  44  66  96 136 172 224 294 348 396
#
# _framework density 21.027479
#
# number of rings (size 3 to 8) (size 9 to 14) (size 15 to 20)
#    0.000    1.067    2.667    4.400    1.867    1.600 
#    3.600    0.000    0.000    0.000    0.000    0.000 
#    0.000    0.000    0.000    0.000    0.000    0.000 
#
# Total GULP energy -167375.754956 kJ/mol
# GULP energy per Si atom -5579.191832 kJ/mol
# Density = 2.097962 g / cm^3
# Si number density = 21.027479 Si / 1000 Ang^3
#
#
#
# Elastic Constant Matrix: (Units=GPa)
#
#
# Indices 1 2 3 4 5 6 
#
# 1 37.8616 28.8384 16.1809 0.0061 -3.1787 -0.0038
# 2 28.8384 113.4544 45.3500 0.0021 -2.8185 0.0029
# 3 16.1809 45.3500 86.4357 -0.0040 -10.1018 0.0084
# 4 0.0061 0.0021 -0.0040 22.5828 -0.0094 -13.5172
# 5 -3.1787 -2.8185 -10.1018 -0.0094 28.9816 -0.0013
# 6 -0.0038 0.0029 0.0084 -13.5172 -0.0013 23.8699
#
#
#
# Elastic Compliance Matrix: (Units=1/GPa)
#
#
# Indices 1 2 3 4 5 6 
#
# 1 0.033233 -0.007604 -0.001973 -0.000005 0.002218 0.000004
# 2 -0.007604 0.012921 -0.005531 -0.000002 -0.001505 -0.000002
# 3 -0.001973 -0.005531 0.015379 0.000004 0.004606 -0.000002
# 4 -0.000005 -0.000002 0.000004 0.066988 0.000024 0.037934
# 5 0.002218 -0.001505 0.004606 0.000024 0.036207 0.000015
# 6 0.000004 -0.000002 -0.000002 0.037934 0.000015 0.063376
#
#
# Mechanical properties :
#
#
# Convention : Reuss Voigt Hill
#
# Bulk Modulus (GPa) = 31.93173 46.49894 39.21534
# Shear Modulus (GPa) = 18.60414 24.91234 21.75824
#
# Velocity S-wave (km/s) = 2.97771 3.44576 3.22025
# Velocity P-wave (km/s) = 5.20010 6.16380 5.70234
#
# Compressibility (1/GPa) = 0.03131681
#
# Stress axis : x y z
#
# Youngs Moduli (GPa) = 30.09071 77.39632 65.02328
#
# Poissons Ratio (x) = 0.58850 0.12827
# Poissons Ratio (y) = 0.22880 0.35968
# Poissons Ratio (z) = 0.05936 0.42812
#
# Static dielectric constant tensor:
#      x y z
#    x 1.435860 0.000040 0.200580 
#    y 0.000040 1.791990 -0.000010 
#    z 0.200580 -0.000010 1.740290 
# 
# From -- ./inp_files/108407.got.cif
#   From: 2010.05.17/outbox.cif.g08.bks.cpg/sg15_55_cif.got.tgz:108407.got - 2010.06.03 18:47:42.
