data_PCOD9291442
_publ_section_title
;
Structure prediction by ZEFSAII (Michael W. Deem and Ramdas Pophale) SiO2 
 PCOD9291442
Probable space group: C 2/C
;
_chemical_formula_sum "Si O2"
_cell_formula_units_Z 60
_cell_length_a 18.815424
_cell_length_b 25.816542
_cell_length_c 12.107684
_cell_angle_alpha 90.000000
_cell_angle_beta 26.990512
_cell_angle_gamma 90.000000
_cell_volume 2669.185437
_symmetry_space_group_name_H-M "C 2/C"
_symmetry_group_IT_number 15
_symmetry_cell_setting 'monoclinic'
loop_
_space_group_symop_operation_xyz
x,y,z
-x,y,1/2-z
-x,-y,-z
x,-y,1/2+z
1/2+x,1/2+y,z
1/2-x,1/2+y,1/2-z
1/2-x,1/2-y,-z
1/2+x,1/2-y,1/2+z
loop_
_atom_site_type_symbol
_atom_site_label
_atom_site_fract_x
_atom_site_fract_y
_atom_site_fract_z
Si Si1 0.156281 0.366492 0.489067
Si Si2 0.990556 0.636329 0.544615
Si Si3 0.832533 0.703401 0.942774
Si Si4 0.397608 0.535573 0.292990
Si Si5 0.500000 0.236079 0.250000
Si Si6 0.819522 0.825737 0.620911
Si Si7 0.966950 0.470887 0.164428
Si Si8 0.518900 0.579510 0.898191
O O1 0.117916 0.367346 0.412582
O O2 0.139671 0.307610 0.559940
O O3 0.314855 0.393682 0.303892
O O4 0.000000 0.394894 0.750000
O O5 0.880789 0.660884 0.788381
O O6 0.048531 0.583665 0.522256
O O7 0.148654 0.668953 0.299168
O O8 0.000000 0.723920 0.750000
O O9 0.750000 0.750000 0.000000
O O10 0.730348 0.681792 0.183432
O O11 0.500000 0.558070 0.250000
O O12 0.218682 0.536388 0.575545
O O13 0.448751 0.475722 0.202684
O O14 0.431328 0.565476 0.133396
O O15 0.427587 0.277073 0.437320
O O16 0.915025 0.878889 0.476791
O O17 0.000000 0.485732 0.250000
O O18 0.000000 0.500000 0.000000
#
# Coordination Sequence:
#
# PCOD9291442 Si02
#       8
#     8   8   8   8   4   8   8   8
#     4  10  26  43  68 105 147 192 245 310 373 462
#     4  11  24  45  70  98 144 188 249 301 370 446
#     4  10  22  42  67  97 132 179 237 289 357 431
#     4  11  27  47  73 107 146 194 256 324 381 470
#     4  10  26  42  68 108 152 186 256 294 390 448
#     4  11  25  42  70 101 141 189 235 307 363 462
#     4  12  29  46  78 110 150 200 255 317 387 461
#     4  11  26  45  71 102 146 186 255 302 398 444
#
# _framework density 22.478767999999999
#
# number of rings (size 3 to 8) (size 9 to 14) (size 15 to 20)
#    0.400    0.800    0.000    4.400   12.133    5.333 
#    0.000    0.667    0.000    0.000    0.000    0.000 
#    0.000    0.000    0.000    0.000    0.000    0.000 
#
# Total GULP energy -167334.555959 kJ/mol
# GULP energy per Si atom -5577.818532 kJ/mol
# Density = 2.242761 g / cm^3
# Si number density = 22.478768 Si / 1000 Ang^3
#
#
#
# Elastic Constant Matrix: (Units=GPa)
#
#
# Indices 1 2 3 4 5 6 
#
# 1 76.0662 -2.3545 39.7568 -0.0052 57.3197 0.0276
# 2 -2.3545 95.9312 24.2684 -0.0032 47.7857 0.0199
# 3 39.7568 24.2684 149.2540 -0.0072 21.0546 0.0174
# 4 -0.0052 -0.0032 -0.0072 18.5641 0.0194 -27.4469
# 5 57.3197 47.7857 21.0546 0.0194 -21.6034 -0.0118
# 6 0.0276 0.0199 0.0174 -27.4469 -0.0118 5.7279
#
#
#
# Elastic Compliance Matrix: (Units=1/GPa)
#
#
# Indices 1 2 3 4 5 6 
#
# 1 0.007532 -0.003700 -0.002698 0.000001 0.009170 0.000007
# 2 -0.003700 0.007629 -0.001099 -0.000001 0.005986 0.000004
# 3 -0.002698 -0.001099 0.007869 0.000002 -0.001922 -0.000001
# 4 0.000001 -0.000001 0.000002 -0.008853 0.000017 -0.042422
# 5 0.009170 0.005986 -0.001922 0.000017 -0.010590 0.000002
# 6 0.000007 0.000004 -0.000001 -0.042422 0.000002 -0.028693
#
#
# Mechanical properties :
#
#
# Convention : Reuss Voigt Hill
#
# Bulk Modulus (GPa) = 124.46687 49.39919 86.93303
# Shear Modulus (GPa) = -672.79024 17.84311 -327.47356
#
# Velocity S-wave (km/s) = -17.31907 2.82046 -12.08294
# Velocity P-wave (km/s) = 18.55916 5.71229 12.48623
#
# Compressibility (1/GPa) = 0.00803427
#
# Stress axis : x y z
#
# Youngs Moduli (GPa) = 132.76527 131.07155 127.08723
#
# Poissons Ratio (x) = 0.48501 0.34291
# Poissons Ratio (y) = 0.49128 0.13971
# Poissons Ratio (z) = 0.35823 0.14409
#
# Static dielectric constant tensor:
#      x y z
#    x 1.909040 0.000360 0.100210 
#    y 0.000360 2.491210 0.000780 
#    z 0.100210 0.000780 1.913230 
# 
# From -- ./inp_files/108409.got.cif
#   From: 2010.05.17/outbox.cif.g08.bks.cpg/sg15_55_cif.got.tgz:108409.got - 2010.06.03 18:47:42.
