data_PCOD9291048
_publ_section_title
;
Structure prediction by ZEFSAII (Michael W. Deem and Ramdas Pophale) SiO2 
 PCOD9291048
Probable space group: C 2/C
;
_chemical_formula_sum "Si O2"
_cell_formula_units_Z 48
_cell_length_a 9.368390
_cell_length_b 13.983161
_cell_length_c 29.472711
_cell_angle_alpha 90.000000
_cell_angle_beta 142.544775
_cell_angle_gamma 90.000000
_cell_volume 2347.982606
_symmetry_space_group_name_H-M "C 2/C"
_symmetry_group_IT_number 15
_symmetry_cell_setting 'monoclinic'
loop_
_space_group_symop_operation_xyz
x,y,z
-x,y,1/2-z
-x,-y,-z
x,-y,1/2+z
1/2+x,1/2+y,z
1/2-x,1/2+y,1/2-z
1/2-x,1/2-y,-z
1/2+x,1/2-y,1/2+z
loop_
_atom_site_type_symbol
_atom_site_label
_atom_site_fract_x
_atom_site_fract_y
_atom_site_fract_z
Si Si1 0.820303 0.644770 0.506650
Si Si2 0.021570 0.974306 0.089825
Si Si3 0.280152 0.862474 0.822792
Si Si4 0.958558 0.402367 0.520008
Si Si5 0.472387 0.053783 0.639439
Si Si6 0.761417 0.654941 0.719166
O O1 0.750000 0.750000 0.500000
O O2 0.590763 0.580259 0.435308
O O3 0.006617 0.665241 0.513519
O O4 0.924944 0.589286 0.576471
O O5 0.228403 0.958803 0.105702
O O6 0.108755 0.931144 0.159668
O O7 0.794311 0.909625 0.021148
O O8 0.344997 0.759443 0.817471
O O9 0.000000 0.871760 0.750000
O O10 0.403747 0.950951 0.829371
O O11 0.360127 0.874231 0.895339
O O12 0.000000 0.500000 0.500000
O O13 0.646069 0.128782 0.707817
O O14 0.000000 0.654918 0.750000
#
# Coordination Sequence:
#
# PCOD9291048 Si02
#       6
#     8   8   8   8   8   8
#     4  11  25  39  65  97 136 164 217 278 328 385
#     4  10  22  44  64  93 131 167 222 268 321 396
#     4  11  24  41  68  93 133 175 215 264 338 409
#     4  10  22  42  63  98 126 176 215 267 338 388
#     4  11  23  43  66 100 125 172 220 276 324 383
#     4   9  23  40  63  94 129 173 214 265 329 398
#
# _framework density 20.443082
#
# number of rings (size 3 to 8) (size 9 to 14) (size 15 to 20)
#    0.000    1.667    3.333    0.500   11.667    2.000 
#    0.000    0.000    0.000    0.000    0.000    0.000 
#    0.000    0.000    0.000    0.000    0.000    0.000 
#
# Total GULP energy -133661.969224 kJ/mol
# GULP energy per Si atom -5569.248718 kJ/mol
# Density = 2.039655 g / cm^3
# Si number density = 20.443082 Si / 1000 Ang^3
#
#
#
# Elastic Constant Matrix: (Units=GPa)
#
#
# Indices 1 2 3 4 5 6 
#
# 1 87.1256 33.4910 46.5128 0.0000 -3.2170 0.0000
# 2 33.4910 135.7700 54.8428 0.0000 3.4332 0.0000
# 3 46.5128 54.8428 134.1446 -0.0001 -4.7454 0.0000
# 4 0.0000 0.0000 -0.0001 10.8221 0.0000 2.3635
# 5 -3.2170 3.4332 -4.7454 0.0000 24.7718 0.0000
# 6 0.0000 0.0000 0.0000 2.3635 0.0000 30.0476
#
#
#
# Elastic Compliance Matrix: (Units=1/GPa)
#
#
# Indices 1 2 3 4 5 6 
#
# 1 0.014505 -0.001916 -0.004199 0.000000 0.001345 0.000000
# 2 -0.001916 0.009168 -0.003159 0.000000 -0.002125 0.000000
# 3 -0.004199 -0.003159 0.010268 0.000000 0.001859 0.000000
# 4 0.000000 0.000000 0.000000 0.094019 0.000000 -0.007395
# 5 0.001345 -0.002125 0.001859 0.000000 0.041194 0.000000
# 6 0.000000 0.000000 0.000000 -0.007395 0.000000 0.033862
#
#
# Mechanical properties :
#
#
# Convention : Reuss Voigt Hill
#
# Bulk Modulus (GPa) = 64.96184 69.63706 67.29945
# Shear Modulus (GPa) = 22.05616 27.94121 24.99868
#
# Velocity S-wave (km/s) = 3.28823 3.70101 3.50071
# Velocity P-wave (km/s) = 6.80166 7.23886 7.02366
#
# Compressibility (1/GPa) = 0.01539365
#
# Stress axis : x y z
#
# Youngs Moduli (GPa) = 68.94005 109.07781 97.39321
#
# Poissons Ratio (x) = 0.20901 0.40891
# Poissons Ratio (y) = 0.13210 0.30765
# Poissons Ratio (z) = 0.28945 0.34456
#
# Static dielectric constant tensor:
#      x y z
#    x 1.092980 0.000000 0.043370 
#    y 0.000000 1.783210 0.000000 
#    z 0.043370 0.000000 1.773230 
# 
# From -- ./inp_files/289134.got.cif
#   From: 2010.05.17/outbox.cif.g08.bks.cpg/sg15_145_cif.got.tgz:289134.got - 2010.06.03 18:47:42.
