data_PCOD9291238
_publ_section_title
;
Structure prediction by ZEFSAII (Michael W. Deem and Ramdas Pophale) SiO2 
 PCOD9291238
Probable space group: C 2/C
;
_chemical_formula_sum "Si O2"
_cell_formula_units_Z 48
_cell_length_a 21.157580
_cell_length_b 12.251769
_cell_length_c 8.753953
_cell_angle_alpha 90.000000
_cell_angle_beta 71.717007
_cell_angle_gamma 90.000000
_cell_volume 2154.628975
_symmetry_space_group_name_H-M "C 2/C"
_symmetry_group_IT_number 15
_symmetry_cell_setting 'monoclinic'
loop_
_space_group_symop_operation_xyz
x,y,z
-x,y,1/2-z
-x,-y,-z
x,-y,1/2+z
1/2+x,1/2+y,z
1/2-x,1/2+y,1/2-z
1/2-x,1/2-y,-z
1/2+x,1/2-y,1/2+z
loop_
_atom_site_type_symbol
_atom_site_label
_atom_site_fract_x
_atom_site_fract_y
_atom_site_fract_z
Si Si1 0.571824 0.308863 0.615119
Si Si2 0.181217 0.035984 0.175724
Si Si3 0.559675 0.924878 0.081724
Si Si4 0.435837 0.634935 0.722854
Si Si5 0.596036 0.872334 0.723453
Si Si6 0.746464 0.129599 0.085833
O O1 0.500000 0.319144 0.750000
O O2 0.633618 0.382648 0.617599
O O3 0.598273 0.184629 0.600573
O O4 0.550513 0.334549 0.459801
O O5 0.204092 0.099674 0.311050
O O6 0.129427 0.937039 0.237994
O O7 0.240077 0.971344 0.042168
O O8 0.500000 0.920086 0.250000
O O9 0.591487 0.040851 0.091992
O O10 0.552282 0.908791 0.904397
O O11 0.500000 0.579894 0.750000
O O12 0.423067 0.750871 0.814675
O O13 0.672814 0.872280 0.712435
O O14 0.750000 0.250000 0.000000
#
# Coordination Sequence:
#
# PCOD9291238 Si02
#       6
#     8   8   8   8   8   8
#     4  10  24  42  66 103 141 184 233 299 367 428
#     4  12  25  46  70 102 143 187 243 293 359 440
#     4  10  22  42  66 100 139 182 240 296 363 426
#     4  11  24  42  70 104 142 183 238 301 365 430
#     4  11  23  44  67 102 141 190 240 297 363 427
#     4  12  27  47  72 105 147 196 245 298 362 439
#
# _framework density 22.277616999999999
#
# number of rings (size 3 to 8) (size 9 to 14) (size 15 to 20)
#    0.000    1.000    3.333    2.500    2.333    6.667 
#    0.000    3.333    0.000    0.000    0.000    0.000 
#    0.000    0.000    0.000    0.000    0.000    0.000 
#
# Total GULP energy -133774.594241 kJ/mol
# GULP energy per Si atom -5573.941427 kJ/mol
# Density = 2.222691 g / cm^3
# Si number density = 22.277617 Si / 1000 Ang^3
#
#
#
# Elastic Constant Matrix: (Units=GPa)
#
#
# Indices 1 2 3 4 5 6 
#
# 1 104.7297 33.6820 25.4322 0.0000 1.5146 0.0000
# 2 33.6820 138.0744 35.2369 0.0000 18.6084 0.0000
# 3 25.4322 35.2369 62.7902 0.0000 0.7010 0.0000
# 4 0.0000 0.0000 0.0000 20.8420 0.0000 7.0022
# 5 1.5146 18.6084 0.7010 0.0000 35.6638 0.0000
# 6 0.0000 0.0000 0.0000 7.0022 0.0000 39.4148
#
#
#
# Elastic Compliance Matrix: (Units=1/GPa)
#
#
# Indices 1 2 3 4 5 6 
#
# 1 0.010971 -0.001890 -0.003389 0.000000 0.000587 0.000000
# 2 -0.001890 0.009500 -0.004512 0.000000 -0.004788 0.000000
# 3 -0.003389 -0.004512 0.019808 0.000000 0.002109 0.000000
# 4 0.000000 0.000000 0.000000 0.051026 0.000000 -0.009065
# 5 0.000587 -0.004788 0.002109 0.000000 0.030472 0.000000
# 6 0.000000 0.000000 0.000000 -0.009065 0.000000 0.026982
#
#
# Mechanical properties :
#
#
# Convention : Reuss Voigt Hill
#
# Bulk Modulus (GPa) = 48.32135 54.92184 51.62160
# Shear Modulus (GPa) = 28.53229 33.26701 30.89965
#
# Velocity S-wave (km/s) = 3.58265 3.86851 3.72832
# Velocity P-wave (km/s) = 6.23310 6.68287 6.46190
#
# Compressibility (1/GPa) = 0.02069479
#
# Stress axis : x y z
#
# Youngs Moduli (GPa) = 91.15000 105.25781 50.48579
#
# Poissons Ratio (x) = 0.19898 0.17111
# Poissons Ratio (y) = 0.17231 0.22781
# Poissons Ratio (z) = 0.30893 0.47496
#
# Static dielectric constant tensor:
#      x y z
#    x 1.841160 0.000000 -0.059180 
#    y 0.000000 1.893490 0.000000 
#    z -0.059180 0.000000 1.876270 
# 
# From -- ./inp_files/60841.got.cif
#   From: 2010.05.17/outbox.cif.g08.bks.cpg/sg15_31_cif.got.tgz:60841.got - 2010.06.03 18:47:42.
