data_PCOD9291154
_publ_section_title
;
Structure prediction by ZEFSAII (Michael W. Deem and Ramdas Pophale) SiO2 
 PCOD9291154
Probable space group: C 2/C
;
_chemical_formula_sum "Si O2"
_cell_formula_units_Z 64
_cell_length_a 14.682471
_cell_length_b 20.901277
_cell_length_c 8.974670
_cell_angle_alpha 90.000000
_cell_angle_beta 80.189950
_cell_angle_gamma 90.000000
_cell_volume 2713.896838
_symmetry_space_group_name_H-M "C 2/C"
_symmetry_group_IT_number 15
_symmetry_cell_setting 'monoclinic'
loop_
_space_group_symop_operation_xyz
x,y,z
-x,y,1/2-z
-x,-y,-z
x,-y,1/2+z
1/2+x,1/2+y,z
1/2-x,1/2+y,1/2-z
1/2-x,1/2-y,-z
1/2+x,1/2-y,1/2+z
loop_
_atom_site_type_symbol
_atom_site_label
_atom_site_fract_x
_atom_site_fract_y
_atom_site_fract_z
Si Si1 0.564756 0.963347 0.861913
Si Si2 0.397947 0.405095 0.938963
Si Si3 0.278299 0.409902 0.482111
Si Si4 0.347935 0.495771 0.706137
Si Si5 0.481543 0.209577 0.923515
Si Si6 0.882480 0.601359 0.664412
Si Si7 0.688496 0.860434 0.001217
Si Si8 0.043533 0.176488 0.573407
O O1 0.500000 0.934369 0.750000
O O2 0.610879 0.028127 0.786446
O O3 0.638424 0.916613 0.919291
O O4 0.500000 0.000000 0.000000
O O5 0.405818 0.445000 0.785091
O O6 0.395525 0.458640 0.071410
O O7 0.298527 0.368567 0.952998
O O8 0.476815 0.357566 0.971095
O O9 0.280090 0.451907 0.628966
O O10 0.305739 0.457367 0.339851
O O11 0.177036 0.388879 0.467003
O O12 0.356049 0.355539 0.464127
O O13 0.500000 0.235641 0.750000
O O14 0.522324 0.137639 0.896404
O O15 0.375461 0.202536 0.009151
O O16 0.539793 0.250235 0.024009
O O17 0.829978 0.633352 0.816761
O O18 0.000000 0.167450 0.750000
#
# Coordination Sequence:
#
# PCOD9291154 Si02
#       8
#     8   8   8   8   8   8   8   8
#     4  12  21  35  63  96 132 167 204 256 327 398
#     4  11  24  42  68  98 136 167 212 268 328 392
#     4  11  24  41  69  99 135 167 212 270 325 391
#     4  10  22  42  65 102 131 166 206 262 332 401
#     4  10  25  45  68  87 128 177 231 262 321 377
#     4  11  21  42  63  98 134 171 207 266 326 390
#     4  11  22  42  63  99 133 172 204 271 325 388
#     4  12  26  47  65  95 126 176 225 278 311 370
#
# _framework density 23.582326999999999
#
# number of rings (size 3 to 8) (size 9 to 14) (size 15 to 20)
#    0.000    1.000    5.000    1.875    1.750    5.500 
#    2.250    0.000    0.000    0.000    0.000    0.000 
#    0.000    0.000    0.000    0.000    0.000    0.000 
#
# Total GULP energy -178779.785360 kJ/mol
# GULP energy per Si atom -5586.868293 kJ/mol
# Density = 2.352865 g / cm^3
# Si number density = 23.582327 Si / 1000 Ang^3
#
#
#
# Elastic Constant Matrix: (Units=GPa)
#
#
# Indices 1 2 3 4 5 6 
#
# 1 111.8620 20.1485 21.7602 0.0000 15.3510 0.0000
# 2 20.1485 72.0814 23.6808 0.0000 8.0461 0.0000
# 3 21.7602 23.6808 84.3315 0.0000 26.7196 0.0000
# 4 0.0000 0.0000 0.0000 34.6109 0.0000 12.5000
# 5 15.3510 8.0461 26.7196 0.0000 31.5186 0.0000
# 6 0.0000 0.0000 0.0000 12.5000 0.0000 12.6909
#
#
#
# Elastic Compliance Matrix: (Units=1/GPa)
#
#
# Indices 1 2 3 4 5 6 
#
# 1 0.009978 -0.002111 -0.000838 0.000000 -0.003611 0.000000
# 2 -0.002111 0.015733 -0.004001 0.000000 0.000404 0.000000
# 3 -0.000838 -0.004001 0.017425 0.000000 -0.013342 0.000000
# 4 0.000000 0.000000 0.000000 0.044845 0.000000 -0.044170
# 5 -0.003611 0.000404 -0.013342 0.000000 0.044694 0.000000
# 6 0.000000 0.000000 0.000000 -0.044170 0.000000 0.122302
#
#
# Mechanical properties :
#
#
# Convention : Reuss Voigt Hill
#
# Bulk Modulus (GPa) = 34.20403 44.38375 39.29389
# Shear Modulus (GPa) = 17.94543 29.27644 23.61094
#
# Velocity S-wave (km/s) = 2.76156 3.52725 3.16763
# Velocity P-wave (km/s) = 4.97030 5.95402 5.48426
#
# Compressibility (1/GPa) = 0.02923632
#
# Stress axis : x y z
#
# Youngs Moduli (GPa) = 100.21754 63.56216 57.38835
#
# Poissons Ratio (x) = 0.13417 0.04809
# Poissons Ratio (y) = 0.21154 0.22961
# Poissons Ratio (z) = 0.08398 0.25432
#
# Static dielectric constant tensor:
#      x y z
#    x 2.021770 0.000000 -0.057410 
#    y 0.000000 1.952900 0.000000 
#    z -0.057410 0.000000 1.927730 
# 
# From -- ./inp_files/42623.got.cif
#   From: 2010.05.17/outbox.cif.g08.bks.cpg/sg15_22_cif.got.tgz:42623.got - 2010.06.03 18:47:42.
