data_PCOD9291559
_publ_section_title
;
Structure prediction by ZEFSAII (Michael W. Deem and Ramdas Pophale) SiO2 
 PCOD9291559
Probable space group: C 2/C
;
_chemical_formula_sum "Si O2"
_cell_formula_units_Z 40
_cell_length_a 13.805570
_cell_length_b 17.983539
_cell_length_c 8.647208
_cell_angle_alpha 90.000000
_cell_angle_beta 56.879927
_cell_angle_gamma 90.000000
_cell_volume 1798.060929
_symmetry_space_group_name_H-M "C 2/C"
_symmetry_group_IT_number 15
_symmetry_cell_setting 'monoclinic'
loop_
_space_group_symop_operation_xyz
x,y,z
-x,y,1/2-z
-x,-y,-z
x,-y,1/2+z
1/2+x,1/2+y,z
1/2-x,1/2+y,1/2-z
1/2-x,1/2-y,-z
1/2+x,1/2-y,1/2+z
loop_
_atom_site_type_symbol
_atom_site_label
_atom_site_fract_x
_atom_site_fract_y
_atom_site_fract_z
Si Si1 0.000000 0.175194 0.250000
Si Si2 0.840314 0.284151 0.549413
Si Si3 0.291490 0.584194 0.796945
Si Si4 0.274330 0.579763 0.446053
Si Si5 0.126141 0.304813 0.624029
Si Si6 0.500000 0.664649 0.750000
O O1 0.950702 0.232947 0.419785
O O2 0.893055 0.122707 0.293243
O O3 0.750000 0.250000 0.500000
O O4 0.834108 0.371143 0.515333
O O5 0.824372 0.285412 0.748347
O O6 0.272222 0.580802 0.632250
O O7 0.275211 0.503106 0.882780
O O8 0.421641 0.612775 0.712940
O O9 0.206092 0.642957 0.952931
O O10 0.088064 0.223480 0.593473
O O11 0.000000 0.343103 0.750000
#
# Coordination Sequence:
#
# PCOD9291559 Si02
#       6
#     4   8   8   8   8   4
#     4  10  23  42  69 102 132 172 234 270 357 390
#     4  10  22  42  68  97 135 177 224 283 333 408
#     4  12  25  46  66 103 140 177 236 276 353 406
#     4  11  26  42  70  97 139 182 221 293 336 414
#     4  10  25  43  69 103 134 181 229 283 342 408
#     4  10  23  38  73  96 130 172 218 290 329 400
#
# _framework density 22.246186000000002
#
# number of rings (size 3 to 8) (size 9 to 14) (size 15 to 20)
#    0.600    0.800    0.000    4.800    2.800   11.200 
#    1.800    2.000    0.000    0.000    0.000    0.000 
#    0.000    0.000    0.000    0.000    0.000    0.000 
#
# Total GULP energy -111582.910724 kJ/mol
# GULP energy per Si atom -5579.145536 kJ/mol
# Density = 2.219555 g / cm^3
# Si number density = 22.246186 Si / 1000 Ang^3
#
#
#
# Elastic Constant Matrix: (Units=GPa)
#
#
# Indices 1 2 3 4 5 6 
#
# 1 97.4046 47.3393 60.3786 0.0000 21.3161 0.0000
# 2 47.3393 192.4943 71.3565 0.0000 2.2805 0.0000
# 3 60.3786 71.3565 127.3083 0.0000 2.9351 0.0000
# 4 0.0000 0.0000 0.0000 43.9481 0.0000 5.2301
# 5 21.3161 2.2805 2.9351 0.0000 30.5339 0.0000
# 6 0.0000 0.0000 0.0000 5.2301 0.0000 24.1565
#
#
#
# Elastic Compliance Matrix: (Units=1/GPa)
#
#
# Indices 1 2 3 4 5 6 
#
# 1 0.018309 -0.001571 -0.007528 0.000000 -0.011941 0.000000
# 2 -0.001571 0.006693 -0.003027 0.000000 0.000888 0.000000
# 3 -0.007528 -0.003027 0.013024 0.000000 0.004229 0.000000
# 4 0.000000 0.000000 0.000000 0.023356 0.000000 -0.005057
# 5 -0.011941 0.000888 0.004229 0.000000 0.040614 0.000000
# 6 0.000000 0.000000 0.000000 -0.005057 0.000000 0.042492
#
#
# Mechanical properties :
#
#
# Convention : Reuss Voigt Hill
#
# Bulk Modulus (GPa) = 72.59275 86.15067 79.37171
# Shear Modulus (GPa) = 28.84662 35.60321 32.22491
#
# Velocity S-wave (km/s) = 3.60488 4.00486 3.81012
# Velocity P-wave (km/s) = 7.07314 7.75857 7.42377
#
# Compressibility (1/GPa) = 0.01377548
#
# Stress axis : x y z
#
# Youngs Moduli (GPa) = 54.61676 149.41547 76.77993
#
# Poissons Ratio (x) = 0.23469 0.57799
# Poissons Ratio (y) = 0.08579 0.23240
# Poissons Ratio (z) = 0.41115 0.45225
#
# Static dielectric constant tensor:
#      x y z
#    x 1.877760 0.000000 -0.044150 
#    y 0.000000 1.807330 0.000000 
#    z -0.044150 0.000000 1.869670 
# 
# From -- ./inp_files/40589.got.cif
#   From: 2010.05.17/outbox.cif.g08.bks.cpg/sg15_21_cif.got.tgz:40589.got - 2010.06.03 18:47:42.
