data_PCOD9291432
_publ_section_title
;
Structure prediction by ZEFSAII (Michael W. Deem and Ramdas Pophale) SiO2 
 PCOD9291432
Probable space group: C 2/C
;
_chemical_formula_sum "Si O2"
_cell_formula_units_Z 48
_cell_length_a 19.833883
_cell_length_b 6.684237
_cell_length_c 17.083878
_cell_angle_alpha 90.000000
_cell_angle_beta 127.095235
_cell_angle_gamma 90.000000
_cell_volume 1806.549045
_symmetry_space_group_name_H-M "C 2/C"
_symmetry_group_IT_number 15
_symmetry_cell_setting 'monoclinic'
loop_
_space_group_symop_operation_xyz
x,y,z
-x,y,1/2-z
-x,-y,-z
x,-y,1/2+z
1/2+x,1/2+y,z
1/2-x,1/2+y,1/2-z
1/2-x,1/2-y,-z
1/2+x,1/2-y,1/2+z
loop_
_atom_site_type_symbol
_atom_site_label
_atom_site_fract_x
_atom_site_fract_y
_atom_site_fract_z
Si Si1 0.075034 0.852074 0.478827
Si Si2 0.127640 0.568408 0.395311
Si Si3 0.588694 0.415774 0.239660
Si Si4 0.000000 0.729080 0.750000
Si Si5 0.734697 0.603807 0.611426
Si Si6 0.000000 0.500000 0.500000
Si Si7 0.675069 0.851449 0.690560
O O1 0.133006 0.674643 0.482135
O O2 0.138626 0.032674 0.532439
O O3 0.028883 0.744651 0.517995
O O4 0.003369 0.890117 0.364431
O O5 0.108569 0.743836 0.318267
O O6 0.209281 0.444947 0.425204
O O7 0.047339 0.419328 0.342998
O O8 0.574890 0.633078 0.267877
O O9 0.652501 0.362350 0.215128
O O10 0.726292 0.818248 0.646279
O O11 0.779066 0.472850 0.709904
O O12 0.085521 0.447970 0.607959
#
# Coordination Sequence:
#
# PCOD9291432 Si02
#       7
#     8   8   8   4   8   4   8
#     4  11  21  44  64  97 140 170 221 281 333 391
#     4  11  23  43  65 100 138 177 222 283 332 402
#     4  10  22  42  67  96 132 175 225 281 327 390
#     4  12  20  38  74  94 124 180 232 262 334 402
#     4  11  25  42  67  95 140 177 214 289 346 385
#     4  10  24  42  72  94 130 180 226 270 324 410
#     4  10  24  45  64  97 133 176 226 273 338 400
#
# _framework density 26.569993
#
# number of rings (size 3 to 8) (size 9 to 14) (size 15 to 20)
#    0.000    1.333    3.333    1.500    2.333    5.333 
#    0.000    1.667    0.000    0.000    0.000    0.000 
#    0.000    0.000    0.000    0.000    0.000    0.000 
#
# Total GULP energy -133759.626599 kJ/mol
# GULP energy per Si atom -5573.317775 kJ/mol
# Density = 2.650952 g / cm^3
# Si number density = 26.569993 Si / 1000 Ang^3
#
#
#
# Elastic Constant Matrix: (Units=GPa)
#
#
# Indices 1 2 3 4 5 6 
#
# 1 88.3855 1.0580 11.7699 0.0000 4.5193 0.0000
# 2 1.0580 59.0137 8.6628 0.0000 -2.3257 0.0000
# 3 11.7699 8.6628 46.7688 0.0000 13.1686 0.0000
# 4 0.0000 0.0000 0.0000 48.7592 0.0000 2.0613
# 5 4.5193 -2.3257 13.1686 0.0000 25.9320 0.0000
# 6 0.0000 0.0000 0.0000 2.0613 0.0000 40.5822
#
#
#
# Elastic Compliance Matrix: (Units=1/GPa)
#
#
# Indices 1 2 3 4 5 6 
#
# 1 0.011717 0.000179 -0.002814 0.000000 -0.000597 0.000000
# 2 0.000179 0.017737 -0.004399 0.000000 0.003793 0.000000
# 3 -0.002814 -0.004399 0.026695 0.000000 -0.013460 0.000000
# 4 0.000000 0.000000 0.000000 0.020553 0.000000 -0.001044
# 5 -0.000597 0.003793 -0.013460 0.000000 0.045842 0.000000
# 6 0.000000 0.000000 0.000000 -0.001044 0.000000 0.024694
#
#
# Mechanical properties :
#
#
# Convention : Reuss Voigt Hill
#
# Bulk Modulus (GPa) = 23.76265 26.34993 25.05629
# Shear Modulus (GPa) = 28.51737 34.56648 31.54193
#
# Velocity S-wave (km/s) = 3.27967 3.61079 3.44921
# Velocity P-wave (km/s) = 4.82747 5.22709 5.03125
#
# Compressibility (1/GPa) = 0.04208284
#
# Stress axis : x y z
#
# Youngs Moduli (GPa) = 85.34487 56.37878 37.46089
#
# Poissons Ratio (x) = -0.01012 0.10541
# Poissons Ratio (y) = -0.01532 0.16477
# Poissons Ratio (z) = 0.24015 0.24799
#
# Static dielectric constant tensor:
#      x y z
#    x 2.259290 0.000000 -0.043330 
#    y 0.000000 2.381960 0.000000 
#    z -0.043330 0.000000 2.224200 
# 
# From -- ./inp_files/254505.got.cif
#   From: 2010.05.17/outbox.cif.g08.bks.cpg/sg15_128_cif.got.tgz:254505.got - 2010.06.03 18:47:42.
