data_PCOD9291960
_publ_section_title
;
Structure prediction by ZEFSAII (Michael W. Deem and Ramdas Pophale) SiO2 
 PCOD9291960
Probable space group: C 2/C
;
_chemical_formula_sum "Si O2"
_cell_formula_units_Z 32
_cell_length_a 18.537127
_cell_length_b 5.165271
_cell_length_c 13.720251
_cell_angle_alpha 90.000000
_cell_angle_beta 116.409799
_cell_angle_gamma 90.000000
_cell_volume 1176.600400
_symmetry_space_group_name_H-M "C 2/C"
_symmetry_group_IT_number 15
_symmetry_cell_setting 'monoclinic'
loop_
_space_group_symop_operation_xyz
x,y,z
-x,y,1/2-z
-x,-y,-z
x,-y,1/2+z
1/2+x,1/2+y,z
1/2-x,1/2+y,1/2-z
1/2-x,1/2-y,-z
1/2+x,1/2-y,1/2+z
loop_
_atom_site_type_symbol
_atom_site_label
_atom_site_fract_x
_atom_site_fract_y
_atom_site_fract_z
Si Si1 0.695838 0.328064 0.822719
Si Si2 0.176630 0.446285 0.975138
Si Si3 0.092952 0.680018 0.601284
Si Si4 0.555963 0.333303 0.190949
O O1 0.783483 0.353863 0.921322
O O2 0.681583 0.226785 0.705244
O O3 0.643669 0.590068 0.789407
O O4 0.653068 0.122648 0.869874
O O5 0.106935 0.309914 0.994813
O O6 0.250000 0.250000 0.000000
O O7 0.063257 0.406861 0.623135
O O8 0.040489 0.905140 0.619335
O O9 0.500000 0.294484 0.250000
#
# Coordination Sequence:
#
# PCOD9291960 Si02
#       4
#     8   8   8   8
#     4   9  24  36  66  91 130 162 204 258 310 369
#     4  11  23  40  63  99 129 158 210 257 318 375
#     4  10  24  39  68  91 124 168 202 258 318 359
#     4  10  22  43  64  90 125 170 214 253 303 367
#
# _framework density 27.196999000000002
#
# number of rings (size 3 to 8) (size 9 to 14) (size 15 to 20)
#    1.500    0.500    0.000    2.250   14.000    0.000 
#    0.000    2.500    0.000    0.000    0.000    0.000 
#    0.000    0.000    0.000    0.000    0.000    0.000 
#
# Total GULP energy -89541.851154 kJ/mol
# GULP energy per Si atom -5596.365697 kJ/mol
# Density = 2.713510 g / cm^3
# Si number density = 27.196999 Si / 1000 Ang^3
#
#
#
# Elastic Constant Matrix: (Units=GPa)
#
#
# Indices 1 2 3 4 5 6 
#
# 1 96.6939 26.3383 21.9180 0.0000 -30.1447 0.0000
# 2 26.3383 173.0520 19.5980 0.0000 -34.2497 0.0001
# 3 21.9180 19.5980 116.7998 0.0000 -17.4411 0.0000
# 4 0.0000 0.0000 0.0000 39.3601 0.0000 -5.4465
# 5 -30.1447 -34.2497 -17.4411 0.0000 61.7058 0.0000
# 6 0.0000 0.0001 0.0000 -5.4465 0.0000 33.4305
#
#
#
# Elastic Compliance Matrix: (Units=1/GPa)
#
#
# Indices 1 2 3 4 5 6 
#
# 1 0.012516 -0.000688 -0.001438 0.000000 0.005326 0.000000
# 2 -0.000688 0.006567 -0.000500 0.000000 0.003168 0.000000
# 3 -0.001438 -0.000500 0.009155 0.000000 0.001608 0.000000
# 4 0.000000 0.000000 0.000000 0.025992 0.000000 0.004235
# 5 0.005326 0.003168 0.001608 0.000000 0.021020 0.000000
# 6 0.000000 0.000000 0.000000 0.004235 0.000000 0.030603
#
#
# Mechanical properties :
#
#
# Convention : Reuss Voigt Hill
#
# Bulk Modulus (GPa) = 43.50346 58.02825 50.76586
# Shear Modulus (GPa) = 42.09931 48.14538 45.12234
#
# Velocity S-wave (km/s) = 3.93865 4.21199 4.07762
# Velocity P-wave (km/s) = 6.05924 6.71097 6.39342
#
# Compressibility (1/GPa) = 0.02298668
#
# Stress axis : x y z
#
# Youngs Moduli (GPa) = 79.90030 152.28070 109.22463
#
# Poissons Ratio (x) = 0.10476 0.15705
# Poissons Ratio (y) = 0.05497 0.05459
# Poissons Ratio (z) = 0.11489 0.07610
#
# Static dielectric constant tensor:
#      x y z
#    x 2.152690 0.000000 0.108450 
#    y 0.000000 2.162840 0.000000 
#    z 0.108450 0.000000 2.217830 
# 
# From -- ./inp_files/115383.got.cif
#   From: 2010.05.17/outbox.cif.g08.bks.cpg/sg15_58_cif.got.tgz:115383.got - 2010.06.03 18:47:42.
