data_PCOD9291945
_publ_section_title
;
Structure prediction by ZEFSAII (Michael W. Deem and Ramdas Pophale) SiO2 
 PCOD9291945
Probable space group: C 2/C
;
_chemical_formula_sum "Si O2"
_cell_formula_units_Z 48
_cell_length_a 11.871851
_cell_length_b 7.406618
_cell_length_c 22.963655
_cell_angle_alpha 90.000000
_cell_angle_beta 71.982870
_cell_angle_gamma 90.000000
_cell_volume 1920.186944
_symmetry_space_group_name_H-M "C 2/C"
_symmetry_group_IT_number 15
_symmetry_cell_setting 'monoclinic'
loop_
_space_group_symop_operation_xyz
x,y,z
-x,y,1/2-z
-x,-y,-z
x,-y,1/2+z
1/2+x,1/2+y,z
1/2-x,1/2+y,1/2-z
1/2-x,1/2-y,-z
1/2+x,1/2-y,1/2+z
loop_
_atom_site_type_symbol
_atom_site_label
_atom_site_fract_x
_atom_site_fract_y
_atom_site_fract_z
Si Si1 0.791601 0.573379 0.874174
Si Si2 0.969951 0.057188 0.098943
Si Si3 0.657351 0.854626 0.317019
Si Si4 0.904523 0.614139 0.979499
Si Si5 0.708578 0.469337 0.603257
Si Si6 0.878698 0.324984 0.754281
O O1 0.649254 0.540716 0.902570
O O2 0.862832 0.541465 0.922990
O O3 0.812561 0.785008 0.857420
O O4 0.838157 0.443991 0.816144
O O5 0.926674 0.185937 0.159061
O O6 0.030565 0.194681 0.043167
O O7 0.083865 0.946907 0.103119
O O8 0.770077 0.805839 0.259301
O O9 0.713026 0.898712 0.371041
O O10 0.599674 0.032571 0.300394
O O11 0.786292 0.603097 0.037082
O O12 0.000000 0.500000 0.000000
O O13 0.000000 0.226265 0.750000
#
# Coordination Sequence:
#
# PCOD9291945 Si02
#       6
#     8   8   8   8   8   8
#     4  10  23  42  63  95 125 168 211 256 315 367
#     4  10  22  43  63  95 125 163 214 252 312 376
#     4  11  24  42  63  94 124 163 210 255 316 367
#     4  11  22  40  65  93 129 167 206 259 313 371
#     4  11  23  40  65  91 129 166 205 259 310 369
#     4  11  24  42  65  91 125 163 209 259 310 373
#
# _framework density 24.997565000000002
#
# number of rings (size 3 to 8) (size 9 to 14) (size 15 to 20)
#    0.000    1.333    1.667    5.000    0.000    7.333 
#    3.000    0.833    0.000    0.000    0.000    0.000 
#    0.000    0.000    0.000    0.000    0.000    0.000 
#
# Total GULP energy -134293.450939 kJ/mol
# GULP energy per Si atom -5595.560456 kJ/mol
# Density = 2.494067 g / cm^3
# Si number density = 24.997565 Si / 1000 Ang^3
#
#
#
# Elastic Constant Matrix: (Units=GPa)
#
#
# Indices 1 2 3 4 5 6 
#
# 1 186.8245 11.6265 22.4869 0.0000 -8.5140 0.0000
# 2 11.6265 29.4224 -9.9471 0.0000 2.8529 0.0000
# 3 22.4869 -9.9471 54.4407 0.0000 6.9990 0.0000
# 4 0.0000 0.0000 0.0000 35.4622 0.0000 -0.1737
# 5 -8.5140 2.8529 6.9990 0.0000 43.8817 0.0000
# 6 0.0000 0.0000 0.0000 -0.1737 0.0000 29.2136
#
#
#
# Elastic Compliance Matrix: (Units=1/GPa)
#
#
# Indices 1 2 3 4 5 6 
#
# 1 0.006094 -0.003770 -0.003460 0.000000 0.001979 0.000000
# 2 -0.003770 0.039086 0.009310 0.000000 -0.004758 0.000000
# 3 -0.003460 0.009310 0.022117 0.000000 -0.004804 0.000000
# 4 0.000000 0.000000 0.000000 0.028200 0.000000 0.000168
# 5 0.001979 -0.004758 -0.004804 0.000000 0.024248 0.000000
# 6 0.000000 0.000000 0.000000 0.000168 0.000000 0.034232
#
#
# Mechanical properties :
#
#
# Convention : Reuss Voigt Hill
#
# Bulk Modulus (GPa) = 13.99438 35.44669 24.72053
# Shear Modulus (GPa) = 28.79596 38.14624 33.47110
#
# Velocity S-wave (km/s) = 3.39772 3.91064 3.66317
# Velocity P-wave (km/s) = 4.58292 5.88232 5.27280
#
# Compressibility (1/GPa) = 0.07145727
#
# Stress axis : x y z
#
# Youngs Moduli (GPa) = 164.09760 25.58439 45.21469
#
# Poissons Ratio (x) = 0.09645 0.15646
# Poissons Ratio (y) = 0.61863 -0.42097
# Poissons Ratio (z) = 0.56784 -0.23820
#
# Static dielectric constant tensor:
#      x y z
#    x 1.991730 0.000000 -0.028010 
#    y 0.000000 1.979020 0.000000 
#    z -0.028010 0.000000 2.003670 
# 
# From -- ./inp_files/267796.got.cif
#   From: 2010.05.17/outbox.cif.g08.bks.cpg/sg15_134_cif.got.tgz:267796.got - 2010.06.03 18:47:42.
