data_PCOD9291808
_publ_section_title
;
Structure prediction by ZEFSAII (Michael W. Deem and Ramdas Pophale) SiO2 
 PCOD9291808
Probable space group: C 2/C
;
_chemical_formula_sum "Si O2"
_cell_formula_units_Z 44
_cell_length_a 6.758073
_cell_length_b 24.681804
_cell_length_c 13.634394
_cell_angle_alpha 90.000000
_cell_angle_beta 118.663417
_cell_angle_gamma 90.000000
_cell_volume 1995.534705
_symmetry_space_group_name_H-M "C 2/C"
_symmetry_group_IT_number 15
_symmetry_cell_setting 'monoclinic'
loop_
_space_group_symop_operation_xyz
x,y,z
-x,y,1/2-z
-x,-y,-z
x,-y,1/2+z
1/2+x,1/2+y,z
1/2-x,1/2+y,1/2-z
1/2-x,1/2-y,-z
1/2+x,1/2-y,1/2+z
loop_
_atom_site_type_symbol
_atom_site_label
_atom_site_fract_x
_atom_site_fract_y
_atom_site_fract_z
Si Si1 0.030689 0.714680 0.465964
Si Si2 0.396205 0.402130 0.447681
Si Si3 0.339073 0.205591 0.628512
Si Si4 0.000000 0.932000 0.250000
Si Si5 0.984794 0.516305 0.864216
Si Si6 0.394974 0.900514 0.617079
O O1 0.250000 0.750000 0.500000
O O2 0.061992 0.653615 0.435715
O O3 0.809857 0.744376 0.368858
O O4 0.989999 0.719629 0.572038
O O5 0.323097 0.341000 0.449399
O O6 0.445494 0.403671 0.341507
O O7 0.194695 0.442708 0.430148
O O8 0.627952 0.412582 0.558983
O O9 0.500000 0.182401 0.750000
O O10 0.234059 0.963037 0.326843
O O11 0.011133 0.455405 0.910308
O O12 0.000000 0.509199 0.750000
O O13 0.500000 0.892240 0.750000
#
# Coordination Sequence:
#
# PCOD9291808 Si02
#       6
#     8   8   8   4   8   8
#     4  11  26  47  67  99 136 179 236 277 348 410
#     4  11  23  42  70 102 142 176 234 285 346 410
#     4  11  26  44  71 101 137 179 229 295 342 408
#     4  10  22  42  72 106 134 184 222 284 344 426
#     4   9  21  43  66 103 139 174 228 284 351 415
#     4  11  25  45  69  98 140 187 227 287 346 415
#
# _framework density 22.049229
#
# number of rings (size 3 to 8) (size 9 to 14) (size 15 to 20)
#    0.000    1.455    1.818    2.182    7.636    0.727 
#   11.455    0.000    0.000    0.000    0.000    0.000 
#    0.000    0.000    0.000    0.000    0.000    0.000 
#
# Total GULP energy -122905.169038 kJ/mol
# GULP energy per Si atom -5586.598593 kJ/mol
# Density = 2.199904 g / cm^3
# Si number density = 22.049229 Si / 1000 Ang^3
#
#
#
# Elastic Constant Matrix: (Units=GPa)
#
#
# Indices 1 2 3 4 5 6 
#
# 1 160.9830 63.3558 32.0880 0.0000 12.2017 0.0000
# 2 63.3558 135.4511 5.8016 0.0000 12.1740 0.0000
# 3 32.0880 5.8016 90.9954 0.0000 21.4932 0.0000
# 4 0.0000 0.0000 0.0000 24.1200 0.0000 9.9760
# 5 12.2017 12.1740 21.4932 0.0000 30.2671 0.0000
# 6 0.0000 0.0000 0.0000 9.9760 0.0000 9.0030
#
#
#
# Elastic Compliance Matrix: (Units=1/GPa)
#
#
# Indices 1 2 3 4 5 6 
#
# 1 0.008208 -0.003733 -0.002679 0.000000 0.000095 0.000000
# 2 -0.003733 0.009364 0.001506 0.000000 -0.003331 0.000000
# 3 -0.002679 0.001506 0.014089 0.000000 -0.009531 0.000000
# 4 0.000000 0.000000 0.000000 0.076536 0.000000 -0.084808
# 5 0.000095 -0.003331 -0.009531 0.000000 0.041109 0.000000
# 6 0.000000 0.000000 0.000000 -0.084808 0.000000 0.205049
#
#
# Mechanical properties :
#
#
# Convention : Reuss Voigt Hill
#
# Bulk Modulus (GPa) = 45.76714 65.54669 55.65692
# Shear Modulus (GPa) = 13.46081 31.75697 22.60889
#
# Velocity S-wave (km/s) = 2.47349 3.79921 3.20563
# Velocity P-wave (km/s) = 5.38139 7.00267 6.24487
#
# Compressibility (1/GPa) = 0.02184974
#
# Stress axis : x y z
#
# Youngs Moduli (GPa) = 121.83742 106.79658 70.97547
#
# Poissons Ratio (x) = 0.39865 0.19012
# Poissons Ratio (y) = 0.45480 -0.10689
# Poissons Ratio (z) = 0.32637 -0.16084
#
# Static dielectric constant tensor:
#      x y z
#    x 1.824970 0.000000 0.018050 
#    y 0.000000 1.845840 0.000000 
#    z 0.018050 0.000000 1.871600 
# 
# From -- ./inp_files/130126.got.cif
#   From: 2010.05.17/outbox.cif.g08.bks.cpg/sg15_66_cif.got.tgz:130126.got - 2010.06.03 18:47:42.
