data_PCOD9291301
_publ_section_title
;
Structure prediction by ZEFSAII (Michael W. Deem and Ramdas Pophale) SiO2 
 PCOD9291301
Probable space group: C 2/C
;
_chemical_formula_sum "Si O2"
_cell_formula_units_Z 60
_cell_length_a 12.521580
_cell_length_b 18.006978
_cell_length_c 14.483857
_cell_angle_alpha 90.000000
_cell_angle_beta 65.487591
_cell_angle_gamma 90.000000
_cell_volume 2971.421259
_symmetry_space_group_name_H-M "C 2/C"
_symmetry_group_IT_number 15
_symmetry_cell_setting 'monoclinic'
loop_
_space_group_symop_operation_xyz
x,y,z
-x,y,1/2-z
-x,-y,-z
x,-y,1/2+z
1/2+x,1/2+y,z
1/2-x,1/2+y,1/2-z
1/2-x,1/2-y,-z
1/2+x,1/2-y,1/2+z
loop_
_atom_site_type_symbol
_atom_site_label
_atom_site_fract_x
_atom_site_fract_y
_atom_site_fract_z
Si Si1 0.451592 0.437398 0.126708
Si Si2 0.757929 0.566038 0.945256
Si Si3 0.732769 0.338960 0.635934
Si Si4 0.633063 0.815743 0.208624
Si Si5 0.214361 0.097981 0.489495
Si Si6 0.299941 0.670340 0.812350
Si Si7 0.369214 0.837976 0.771676
Si Si8 0.500000 0.431829 0.750000
O O1 0.358618 0.440780 0.076836
O O2 0.572559 0.406088 0.041853
O O3 0.386484 0.387391 0.228456
O O4 0.486641 0.513616 0.166256
O O5 0.851401 0.604171 0.844114
O O6 0.756308 0.622994 0.030270
O O7 0.770534 0.483741 0.980138
O O8 0.711238 0.250549 0.636964
O O9 0.829785 0.352675 0.680461
O O10 0.613482 0.379957 0.709592
O O11 0.500000 0.791975 0.250000
O O12 0.683240 0.822327 0.293154
O O13 0.236512 0.145548 0.573043
O O14 0.271968 0.129326 0.376228
O O15 0.362740 0.749543 0.789339
O O16 0.500000 0.864626 0.750000
#
# Coordination Sequence:
#
# PCOD9291301 Si02
#       8
#     8   8   8   8   8   8   8   4
#     4  11  21  38  65 100 129 158 207 282 322 372
#     4  11  24  38  63  95 132 165 211 263 327 377
#     4  11  23  41  65  93 126 171 211 269 320 374
#     4  10  23  42  63  91 129 169 215 254 318 389
#     4  12  22  38  64  92 121 167 214 258 325 369
#     4  10  22  42  66  94 125 166 213 270 324 371
#     4  11  26  43  61  91 132 172 219 260 310 388
#     4  12  20  38  72  98 132 152 216 276 328 362
#
# _framework density 20.192356
#
# number of rings (size 3 to 8) (size 9 to 14) (size 15 to 20)
#    0.000    1.067    3.333    2.800    1.867    2.667 
#    0.000    1.333    0.000    0.000    0.000    0.000 
#    0.000    0.000    0.000    0.000    0.000    0.000 
#
# Total GULP energy -167485.092286 kJ/mol
# GULP energy per Si atom -5582.836410 kJ/mol
# Density = 2.014640 g / cm^3
# Si number density = 20.192356 Si / 1000 Ang^3
#
#
#
# Elastic Constant Matrix: (Units=GPa)
#
#
# Indices 1 2 3 4 5 6 
#
# 1 92.3833 9.2621 25.1875 0.0000 12.7348 0.0000
# 2 9.2621 48.6053 0.0425 0.0000 15.6671 0.0000
# 3 25.1875 0.0425 68.3356 0.0000 19.1415 0.0000
# 4 0.0000 0.0000 0.0000 33.8020 0.0000 0.1937
# 5 12.7348 15.6671 19.1415 0.0000 30.0043 0.0000
# 6 0.0000 0.0000 0.0000 0.1937 0.0000 14.9056
#
#
#
# Elastic Compliance Matrix: (Units=1/GPa)
#
#
# Indices 1 2 3 4 5 6 
#
# 1 0.012351 -0.001801 -0.004074 0.000000 -0.001702 0.000000
# 2 -0.001801 0.026129 0.005181 0.000000 -0.016185 0.000000
# 3 -0.004074 0.005181 0.019975 0.000000 -0.013719 0.000000
# 4 0.000000 0.000000 0.000000 0.029586 0.000000 -0.000384
# 5 -0.001702 -0.016185 -0.013719 0.000000 0.051254 0.000000
# 6 0.000000 0.000000 0.000000 -0.000384 0.000000 0.067094
#
#
# Mechanical properties :
#
#
# Convention : Reuss Voigt Hill
#
# Bulk Modulus (GPa) = 17.52348 30.92315 24.22331
# Shear Modulus (GPa) = 22.04582 27.39787 24.72184
#
# Velocity S-wave (km/s) = 3.30781 3.68753 3.50282
# Velocity P-wave (km/s) = 4.82555 5.78602 5.32747
#
# Compressibility (1/GPa) = 0.05706629
#
# Stress axis : x y z
#
# Youngs Moduli (GPa) = 80.96825 38.27095 50.06228
#
# Poissons Ratio (x) = 0.06894 0.20397
# Poissons Ratio (y) = 0.14585 -0.25938
# Poissons Ratio (z) = 0.32989 -0.19829
#
# Static dielectric constant tensor:
#      x y z
#    x 1.710630 0.000000 0.012520 
#    y 0.000000 1.738490 0.000000 
#    z 0.012520 0.000000 1.730730 
# 
# From -- ./inp_files/146035.got.cif
#   From: 2010.05.17/outbox.cif.g08.bks.cpg/sg15_74_cif.got.tgz:146035.got - 2010.06.03 18:47:42.
