data_PCOD9291034
_publ_section_title
;
Structure prediction by ZEFSAII (Michael W. Deem and Ramdas Pophale) SiO2 
 PCOD9291034
Probable space group: C 2/C
;
_chemical_formula_sum "Si O2"
_cell_formula_units_Z 40
_cell_length_a 7.676340
_cell_length_b 27.466044
_cell_length_c 13.189502
_cell_angle_alpha 90.000000
_cell_angle_beta 52.240179
_cell_angle_gamma 90.000000
_cell_volume 2198.503061
_symmetry_space_group_name_H-M "C 2/C"
_symmetry_group_IT_number 15
_symmetry_cell_setting 'monoclinic'
loop_
_space_group_symop_operation_xyz
x,y,z
-x,y,1/2-z
-x,-y,-z
x,-y,1/2+z
1/2+x,1/2+y,z
1/2-x,1/2+y,1/2-z
1/2-x,1/2-y,-z
1/2+x,1/2-y,1/2+z
loop_
_atom_site_type_symbol
_atom_site_label
_atom_site_fract_x
_atom_site_fract_y
_atom_site_fract_z
Si Si1 0.561732 0.368920 0.947479
Si Si2 0.905444 0.709208 0.394508
Si Si3 0.531743 0.463264 0.855407
Si Si4 0.684675 0.709165 0.105165
Si Si5 0.251559 0.557805 0.634648
O O1 0.750588 0.336763 0.928035
O O2 0.657747 0.416753 0.857454
O O3 0.422782 0.336183 0.917292
O O4 0.392591 0.392551 0.088613
O O5 0.750000 0.750000 0.500000
O O6 0.000000 0.724513 0.250000
O O7 0.103673 0.697473 0.400963
O O8 0.500000 0.455387 0.750000
O O9 0.646896 0.514480 0.835055
O O10 0.303882 0.460423 0.000922
O O11 0.500000 0.727533 0.250000
O O12 0.750000 0.750000 0.000000
O O13 0.000000 0.565329 0.750000
#
# Coordination Sequence:
#
# PCOD9291034 Si02
#       5
#     8   8   8   8   8
#     4  10  22  42  63  95 130 163 222 251 323 379
#     4  12  24  43  65  93 128 171 216 263 317 376
#     4   9  20  41  63  90 125 162 213 262 322 381
#     4  12  23  42  67  92 129 172 214 264 318 375
#     4   9  21  42  60  92 128 162 208 271 316 377
#
# _framework density 18.194196999999999
#
# number of rings (size 3 to 8) (size 9 to 14) (size 15 to 20)
#    1.200    0.400    4.000    0.600    0.000    2.400 
#    7.200    0.000    0.000    0.000    0.000    0.000 
#    0.000    0.000    0.000    0.000    0.000    0.000 
#
# Total GULP energy -111386.895070 kJ/mol
# GULP energy per Si atom -5569.344753 kJ/mol
# Density = 1.815279 g / cm^3
# Si number density = 18.194197 Si / 1000 Ang^3
#
#
#
# Elastic Constant Matrix: (Units=GPa)
#
#
# Indices 1 2 3 4 5 6 
#
# 1 139.3153 47.0667 55.7560 0.0000 -3.8192 0.0000
# 2 47.0667 90.6446 63.8638 0.0000 3.1931 0.0000
# 3 55.7560 63.8638 90.9533 0.0000 -20.5005 0.0000
# 4 0.0000 0.0000 0.0000 30.5795 0.0000 14.7475
# 5 -3.8192 3.1931 -20.5005 0.0000 23.6430 0.0000
# 6 0.0000 0.0000 0.0000 14.7475 0.0000 37.6020
#
#
#
# Elastic Compliance Matrix: (Units=1/GPa)
#
#
# Indices 1 2 3 4 5 6 
#
# 1 0.009890 0.000057 -0.007140 0.000000 -0.004601 0.000000
# 2 0.000057 0.033852 -0.030865 0.000000 -0.031325 0.000000
# 3 -0.007140 -0.030865 0.046887 0.000000 0.043670 0.000000
# 4 0.000000 0.000000 0.000000 0.040330 0.000000 -0.015817
# 5 -0.004601 -0.031325 0.043670 0.000000 0.083648 0.000000
# 6 0.000000 0.000000 0.000000 -0.015817 0.000000 0.032798
#
#
# Mechanical properties :
#
#
# Convention : Reuss Voigt Hill
#
# Bulk Modulus (GPa) = 67.87477 72.69844 70.28661
# Shear Modulus (GPa) = 15.23408 28.64668 21.94038
#
# Velocity S-wave (km/s) = 2.89676 3.97230 3.47637
# Velocity P-wave (km/s) = 6.96958 7.81553 7.40464
#
# Compressibility (1/GPa) = 0.01473301
#
# Stress axis : x y z
#
# Youngs Moduli (GPa) = 101.11197 29.54049 21.32795
#
# Poissons Ratio (x) = -0.00169 0.15228
# Poissons Ratio (y) = -0.00579 0.65829
# Poissons Ratio (z) = 0.72195 0.91177
#
# Static dielectric constant tensor:
#      x y z
#    x 1.612110 0.000000 -0.004670 
#    y 0.000000 1.635550 0.000000 
#    z -0.004670 0.000000 1.636370 
# 
# From -- ./inp_files/136775.got.cif
#   From: 2010.05.17/outbox.cif.g08.bks.cpg/sg15_69_cif.got.tgz:136775.got - 2010.06.03 18:47:42.
