data_PCOD9291245
_publ_section_title
;
Structure prediction by ZEFSAII (Michael W. Deem and Ramdas Pophale) SiO2 
 PCOD9291245
Probable space group: C 2/C
;
_chemical_formula_sum "Si O2"
_cell_formula_units_Z 52
_cell_length_a 12.029802
_cell_length_b 7.607340
_cell_length_c 27.048863
_cell_angle_alpha 90.000000
_cell_angle_beta 124.121284
_cell_angle_gamma 90.000000
_cell_volume 2049.240969
_symmetry_space_group_name_H-M "C 2/C"
_symmetry_group_IT_number 15
_symmetry_cell_setting 'monoclinic'
loop_
_space_group_symop_operation_xyz
x,y,z
-x,y,1/2-z
-x,-y,-z
x,-y,1/2+z
1/2+x,1/2+y,z
1/2-x,1/2+y,1/2-z
1/2-x,1/2-y,-z
1/2+x,1/2-y,1/2+z
loop_
_atom_site_type_symbol
_atom_site_label
_atom_site_fract_x
_atom_site_fract_y
_atom_site_fract_z
Si Si1 0.562224 0.397202 0.103519
Si Si2 0.750614 0.206079 0.227729
Si Si3 0.870794 0.609671 0.026901
Si Si4 0.000000 0.418277 0.250000
Si Si5 0.808785 0.960498 0.594756
Si Si6 0.340775 0.649057 0.701597
Si Si7 0.677202 0.054540 0.880329
O O1 0.638216 0.316207 0.170114
O O2 0.501319 0.231246 0.058672
O O3 0.438722 0.512837 0.092142
O O4 0.671322 0.495427 0.097020
O O5 0.716586 0.198695 0.277144
O O6 0.891323 0.298183 0.250617
O O7 0.763929 0.014491 0.208338
O O8 0.867744 0.503515 0.077233
O O9 0.750000 0.750000 0.000000
O O10 0.825299 0.485880 0.970924
O O11 0.075435 0.516443 0.313417
O O12 0.821081 0.767867 0.621608
O O13 0.813141 0.113821 0.637115
O O14 0.500000 0.630877 0.750000
#
# Coordination Sequence:
#
# PCOD9291245 Si02
#       7
#     8   8   8   4   8   8   8
#     4  10  23  44  65  97 137 178 224 283 342 394
#     4  11  23  43  70  95 141 178 217 291 346 404
#     4  10  25  46  66 100 140 177 235 286 328 412
#     4  10  22  42  66 102 132 172 228 278 334 414
#     4  11  22  44  70  96 138 179 228 282 338 414
#     4  12  23  46  66 102 138 179 227 287 350 417
#     4  11  23  45  71  98 138 182 227 282 344 404
#
# _framework density 25.375249
#
# number of rings (size 3 to 8) (size 9 to 14) (size 15 to 20)
#    0.000    1.231    5.385    0.462    2.154    3.077 
#   12.462    6.154    0.000    0.000    0.000    0.000 
#    0.000    0.000    0.000    0.000    0.000    0.000 
#
# Total GULP energy -145734.285493 kJ/mol
# GULP energy per Si atom -5605.164827 kJ/mol
# Density = 2.531749 g / cm^3
# Si number density = 25.375249 Si / 1000 Ang^3
#
#
#
# Elastic Constant Matrix: (Units=GPa)
#
#
# Indices 1 2 3 4 5 6 
#
# 1 70.2799 -0.8471 15.3239 0.0000 1.9218 0.0000
# 2 -0.8471 54.5327 2.6964 0.0000 -1.3038 0.0000
# 3 15.3239 2.6964 146.2536 0.0000 -2.7090 0.0000
# 4 0.0000 0.0000 0.0000 33.7350 0.0000 -10.1404
# 5 1.9218 -1.3038 -2.7090 0.0000 35.4921 0.0000
# 6 0.0000 0.0000 0.0000 -10.1404 0.0000 29.1230
#
#
#
# Elastic Compliance Matrix: (Units=1/GPa)
#
#
# Indices 1 2 3 4 5 6 
#
# 1 0.014595 0.000282 -0.001551 0.000000 -0.000898 0.000000
# 2 0.000282 0.018375 -0.000357 0.000000 0.000633 0.000000
# 3 -0.001551 -0.000357 0.007018 0.000000 0.000607 0.000000
# 4 0.000000 0.000000 0.000000 0.033108 0.000000 0.011528
# 5 -0.000898 0.000633 0.000607 0.000000 0.028293 0.000000
# 6 0.000000 0.000000 0.000000 0.011528 0.000000 0.038351
#
#
# Mechanical properties :
#
#
# Convention : Reuss Voigt Hill
#
# Bulk Modulus (GPa) = 27.22120 33.93474 30.57797
# Shear Modulus (GPa) = 32.20885 36.59621 34.40253
#
# Velocity S-wave (km/s) = 3.56659 3.80175 3.68605
# Velocity P-wave (km/s) = 5.26417 5.71606 5.49476
#
# Compressibility (1/GPa) = 0.03673608
#
# Stress axis : x y z
#
# Youngs Moduli (GPa) = 68.51675 54.42250 142.49560
#
# Poissons Ratio (x) = -0.01534 0.22102
# Poissons Ratio (y) = -0.01932 0.05081
# Poissons Ratio (z) = 0.10627 0.01941
#
# Static dielectric constant tensor:
#      x y z
#    x 1.971560 0.000000 -0.001640 
#    y 0.000000 2.110120 0.000000 
#    z -0.001640 0.000000 2.026030 
# 
# From -- ./inp_files/291708.got.cif
#   From: 2010.05.17/outbox.cif.g08.bks.cpg/sg15_146_cif.got.tgz:291708.got - 2010.06.03 18:47:42.
