data_PCOD9291108
_publ_section_title
;
Structure prediction by ZEFSAII (Michael W. Deem and Ramdas Pophale) SiO2 
 PCOD9291108
Probable space group: C 2/C
;
_chemical_formula_sum "Si O2"
_cell_formula_units_Z 32
_cell_length_a 13.131612
_cell_length_b 7.328145
_cell_length_c 24.570390
_cell_angle_alpha 90.000000
_cell_angle_beta 43.043952
_cell_angle_gamma 90.000000
_cell_volume 1613.854814
_symmetry_space_group_name_H-M "C 2/C"
_symmetry_group_IT_number 15
_symmetry_cell_setting 'monoclinic'
loop_
_space_group_symop_operation_xyz
x,y,z
-x,y,1/2-z
-x,-y,-z
x,-y,1/2+z
1/2+x,1/2+y,z
1/2-x,1/2+y,1/2-z
1/2-x,1/2-y,-z
1/2+x,1/2-y,1/2+z
loop_
_atom_site_type_symbol
_atom_site_label
_atom_site_fract_x
_atom_site_fract_y
_atom_site_fract_z
Si Si1 0.903773 0.524227 0.693837
Si Si2 0.589457 0.595716 0.351279
Si Si3 0.363767 0.282315 0.405774
Si Si4 0.880389 0.393921 0.082350
O O1 0.762704 0.461107 0.783468
O O2 0.932247 0.740873 0.684361
O O3 0.855696 0.501324 0.648884
O O4 0.048428 0.400696 0.645382
O O5 0.486727 0.426798 0.377576
O O6 0.556616 0.698885 0.420882
O O7 0.250000 0.250000 0.500000
O O8 0.268127 0.361224 0.393534
O O9 0.000000 0.500000 0.000000
#
# Coordination Sequence:
#
# PCOD9291108 Si02
#       4
#     8   8   8   8
#     4  10  22  42  64  94 132 169 222 277 322 392
#     4  10  23  42  65  93 134 171 221 273 330 389
#     4  12  22  42  68  94 132 174 217 273 333 390
#     4  10  23  42  64  98 133 164 224 276 319 390
#
# _framework density 19.828302999999998
#
# number of rings (size 3 to 8) (size 9 to 14) (size 15 to 20)
#    1.500    0.000    5.000    0.000    0.000    9.000 
#    4.500    2.500    0.000    0.000    0.000    0.000 
#    0.000    0.000    0.000    0.000    0.000    0.000 
#
# Total GULP energy -89193.754990 kJ/mol
# GULP energy per Si atom -5574.609687 kJ/mol
# Density = 1.978317 g / cm^3
# Si number density = 19.828303 Si / 1000 Ang^3
#
#
#
# Elastic Constant Matrix: (Units=GPa)
#
#
# Indices 1 2 3 4 5 6 
#
# 1 58.4538 -23.6839 1.3572 0.0000 -6.9337 -0.0001
# 2 -23.6839 67.2926 30.5416 0.0000 -16.9246 -0.0004
# 3 1.3572 30.5416 53.0294 -0.0001 -15.3402 0.0000
# 4 0.0000 0.0000 -0.0001 41.0453 0.0000 -12.6799
# 5 -6.9337 -16.9246 -15.3402 0.0000 33.0828 0.0000
# 6 -0.0001 -0.0004 0.0000 -12.6799 0.0000 26.5057
#
#
#
# Elastic Compliance Matrix: (Units=1/GPa)
#
#
# Indices 1 2 3 4 5 6 
#
# 1 0.023627 0.013111 -0.005524 0.000000 0.009098 0.000000
# 2 0.013111 0.028364 -0.013488 0.000000 0.011004 0.000001
# 3 -0.005524 -0.013488 0.028222 0.000000 0.005028 0.000000
# 4 0.000000 0.000000 0.000000 0.028588 0.000000 0.013676
# 5 0.009098 0.011004 0.005028 0.000000 0.040095 0.000000
# 6 0.000000 0.000001 0.000000 0.013676 0.000000 0.044270
#
#
# Mechanical properties :
#
#
# Convention : Reuss Voigt Hill
#
# Bulk Modulus (GPa) = 14.61763 21.68949 18.15356
# Shear Modulus (GPa) = 21.95168 31.49751 26.72459
#
# Velocity S-wave (km/s) = 3.33090 3.98994 3.67522
# Velocity P-wave (km/s) = 4.70971 5.67350 5.21392
#
# Compressibility (1/GPa) = 0.06841054
#
# Stress axis : x y z
#
# Youngs Moduli (GPa) = 42.32413 35.25539 35.43359
#
# Poissons Ratio (x) = -0.46223 0.19574
# Poissons Ratio (y) = -0.55491 0.47794
# Poissons Ratio (z) = 0.23380 0.47554
#
# Static dielectric constant tensor:
#      x y z
#    x 1.685730 0.000000 0.035090 
#    y 0.000000 1.729100 0.000000 
#    z 0.035090 0.000000 1.692820 
# 
# From -- ./inp_files/180632.got.cif
#   From: 2010.05.17/outbox.cif.g08.bks.cpg/sg15_91_cif.got.tgz:180632.got - 2010.06.03 18:47:42.
