data_PCOD9291135
_publ_section_title
;
Structure prediction by ZEFSAII (Michael W. Deem and Ramdas Pophale) SiO2 
 PCOD9291135
Probable space group: C 2/C
;
_chemical_formula_sum "Si O2"
_cell_formula_units_Z 32
_cell_length_a 13.162851
_cell_length_b 5.244073
_cell_length_c 20.628344
_cell_angle_alpha 90.000000
_cell_angle_beta 96.786476
_cell_angle_gamma 90.000000
_cell_volume 1413.934962
_symmetry_space_group_name_H-M "C 2/C"
_symmetry_group_IT_number 15
_symmetry_cell_setting 'monoclinic'
loop_
_space_group_symop_operation_xyz
x,y,z
-x,y,1/2-z
-x,-y,-z
x,-y,1/2+z
1/2+x,1/2+y,z
1/2-x,1/2+y,1/2-z
1/2-x,1/2-y,-z
1/2+x,1/2-y,1/2+z
loop_
_atom_site_type_symbol
_atom_site_label
_atom_site_fract_x
_atom_site_fract_y
_atom_site_fract_z
Si Si1 0.436729 0.962802 0.657539
Si Si2 0.751212 0.500132 0.044069
Si Si3 0.125933 0.123683 0.654208
Si Si4 0.861384 0.626466 0.791723
O O1 0.352030 0.986080 0.596844
O O2 0.508516 0.710937 0.657377
O O3 0.387601 0.006955 0.724293
O O4 0.528368 0.167352 0.663054
O O5 0.655751 0.479543 0.086248
O O6 0.750000 0.750000 0.000000
O O7 0.750000 0.250000 0.000000
O O8 0.185101 0.396917 0.669280
O O9 0.172063 0.918266 0.708292
#
# Coordination Sequence:
#
# PCOD9291135 Si02
#       4
#     8   8   8   8
#     4   9  24  40  70  93 133 160 217 272 330 395
#     4  12  28  43  61  94 133 180 223 257 316 396
#     4  10  22  42  64  98 125 166 214 270 331 378
#     4   9  21  40  69  97 121 160 211 275 345 375
#
# _framework density 22.631874
#
# number of rings (size 3 to 8) (size 9 to 14) (size 15 to 20)
#    1.500    0.500    0.000    1.500   10.500    4.000 
#    0.000    0.000    0.000    0.000    0.000    0.000 
#    0.000    0.000    0.000    0.000    0.000    0.000 
#
# Total GULP energy -89072.521580 kJ/mol
# GULP energy per Si atom -5567.032599 kJ/mol
# Density = 2.258036 g / cm^3
# Si number density = 22.631874 Si / 1000 Ang^3
#
#
#
# Elastic Constant Matrix: (Units=GPa)
#
#
# Indices 1 2 3 4 5 6 
#
# 1 107.0774 39.6354 58.4556 0.0000 2.3387 0.0000
# 2 39.6354 186.1139 73.2414 0.0000 -10.7498 0.0000
# 3 58.4556 73.2414 162.1434 0.0000 -0.3655 0.0000
# 4 0.0000 0.0000 0.0000 24.5326 0.0000 -23.7081
# 5 2.3387 -10.7498 -0.3655 0.0000 50.8691 0.0000
# 6 0.0000 0.0000 0.0000 -23.7081 0.0000 1.4281
#
#
#
# Elastic Compliance Matrix: (Units=1/GPa)
#
#
# Indices 1 2 3 4 5 6 
#
# 1 0.011816 -0.001077 -0.003775 0.000000 -0.000798 0.000000
# 2 -0.001077 0.006728 -0.002648 0.000000 0.001452 0.000000
# 3 -0.003775 -0.002648 0.008724 0.000000 -0.000323 0.000000
# 4 0.000000 0.000000 0.000000 -0.002710 0.000000 -0.044984
# 5 -0.000798 0.001452 -0.000323 0.000000 0.020000 0.000000
# 6 0.000000 0.000000 0.000000 -0.044984 0.000000 -0.046548
#
#
# Mechanical properties :
#
#
# Convention : Reuss Voigt Hill
#
# Bulk Modulus (GPa) = 81.51036 88.66661 85.08848
# Shear Modulus (GPa) = 292.41401 34.29943 163.35672
#
# Velocity S-wave (km/s) = 11.37915 3.89721 8.50509
# Velocity P-wave (km/s) = 14.44786 7.71452 11.58133
#
# Compressibility (1/GPa) = 0.01226838
#
# Stress axis : x y z
#
# Youngs Moduli (GPa) = 84.63055 148.62805 114.63009
#
# Poissons Ratio (x) = 0.16004 0.43276
# Poissons Ratio (y) = 0.09113 0.30351
# Poissons Ratio (z) = 0.31951 0.39352
#
# Static dielectric constant tensor:
#      x y z
#    x 2.035360 0.000000 -0.050730 
#    y 0.000000 1.995990 0.000000 
#    z -0.050730 0.000000 1.916690 
# 
# From -- ./inp_files/201715.got.cif
#   From: 2010.05.17/outbox.cif.g08.bks.cpg/sg15_101_cif.got.tgz:201715.got - 2010.06.03 18:47:42.
