data_PCOD9291026
_publ_section_title
;
Structure prediction by ZEFSAII (Michael W. Deem and Ramdas Pophale) SiO2 
 PCOD9291026
Probable space group: C 2/C
;
_chemical_formula_sum "Si O2"
_cell_formula_units_Z 40
_cell_length_a 11.147801
_cell_length_b 12.737705
_cell_length_c 26.094806
_cell_angle_alpha 90.000000
_cell_angle_beta 149.107523
_cell_angle_gamma 90.000000
_cell_volume 1902.455508
_symmetry_space_group_name_H-M "C 2/C"
_symmetry_group_IT_number 15
_symmetry_cell_setting 'monoclinic'
loop_
_space_group_symop_operation_xyz
x,y,z
-x,y,1/2-z
-x,-y,-z
x,-y,1/2+z
1/2+x,1/2+y,z
1/2-x,1/2+y,1/2-z
1/2-x,1/2-y,-z
1/2+x,1/2-y,1/2+z
loop_
_atom_site_type_symbol
_atom_site_label
_atom_site_fract_x
_atom_site_fract_y
_atom_site_fract_z
Si Si1 0.237226 0.064818 0.818323
Si Si2 0.297326 0.845146 0.234041
Si Si3 0.337763 0.595262 0.922445
Si Si4 0.177595 0.730137 0.559434
Si Si5 0.974544 0.647158 0.380070
O O1 0.192593 0.131532 0.750907
O O2 0.296754 0.146344 0.885642
O O3 0.000000 0.010534 0.750000
O O4 0.411965 0.973879 0.864546
O O5 0.151964 0.901269 0.135740
O O6 0.560790 0.889376 0.330257
O O7 0.255218 0.722231 0.206258
O O8 0.500000 0.500000 0.000000
O O9 0.455035 0.697819 0.989748
O O10 0.378002 0.814868 0.615767
O O11 0.119817 0.673695 0.484546
#
# Coordination Sequence:
#
# PCOD9291026 Si02
#       5
#     8   8   8   8   8
#     4  12  24  40  68 103 134 183 235 287 356 421
#     4  10  23  43  65 101 137 178 238 289 348 424
#     4  10  22  43  69  95 138 189 229 289 360 418
#     4  10  22  42  65  95 135 177 236 291 351 423
#     4  10  22  42  63  91 139 179 225 295 353 418
#
# _framework density 21.025459000000001
#
# number of rings (size 3 to 8) (size 9 to 14) (size 15 to 20)
#    0.000    1.600    2.000    1.800    5.600    2.400 
#    7.200    0.000    0.000    0.000    0.000    0.000 
#    0.000    0.000    0.000    0.000    0.000    0.000 
#
# Total GULP energy -111383.604227 kJ/mol
# GULP energy per Si atom -5569.180211 kJ/mol
# Density = 2.097760 g / cm^3
# Si number density = 21.025459 Si / 1000 Ang^3
#
#
#
# Elastic Constant Matrix: (Units=GPa)
#
#
# Indices 1 2 3 4 5 6 
#
# 1 92.2405 65.0037 45.7071 0.0000 -18.4713 0.0000
# 2 65.0037 126.0925 71.3319 -0.0001 -14.2318 0.0001
# 3 45.7071 71.3319 89.2115 -0.0005 -2.0541 0.0001
# 4 0.0000 -0.0001 -0.0005 32.0876 0.0001 -4.6963
# 5 -18.4713 -14.2318 -2.0541 0.0001 30.0480 0.0000
# 6 0.0000 0.0001 0.0001 -4.6963 0.0000 27.1351
#
#
#
# Elastic Compliance Matrix: (Units=1/GPa)
#
#
# Indices 1 2 3 4 5 6 
#
# 1 0.019344 -0.006414 -0.004585 0.000000 0.008540 0.000000
# 2 -0.006414 0.017807 -0.010866 0.000000 0.003748 0.000000
# 3 -0.004585 -0.010866 0.022098 0.000000 -0.006454 0.000000
# 4 0.000000 0.000000 0.000000 0.031975 0.000000 0.005534
# 5 0.008540 0.003748 -0.006454 0.000000 0.039864 0.000000
# 6 0.000000 0.000000 0.000000 0.005534 0.000000 0.037810
#
#
# Mechanical properties :
#
#
# Convention : Reuss Voigt Hill
#
# Bulk Modulus (GPa) = 64.43987 74.62555 69.53271
# Shear Modulus (GPa) = 22.95669 26.22092 24.58881
#
# Velocity S-wave (km/s) = 3.30790 3.53527 3.42347
# Velocity P-wave (km/s) = 6.73087 7.22732 6.98351
#
# Compressibility (1/GPa) = 0.01551834
#
# Stress axis : x y z
#
# Youngs Moduli (GPa) = 51.69641 56.15620 45.25291
#
# Poissons Ratio (x) = 0.36021 0.20749
# Poissons Ratio (y) = 0.33160 0.49171
# Poissons Ratio (z) = 0.23704 0.61018
#
# Static dielectric constant tensor:
#      x y z
#    x 1.809470 0.000000 0.047760 
#    y 0.000000 1.786250 0.000000 
#    z 0.047760 0.000000 1.769540 
# 
# From -- ./inp_files/292415.got.cif
#   From: 2010.05.17/outbox.cif.g08.bks.cpg/sg15_147_cif.got.tgz:292415.got - 2010.06.03 18:47:42.
