data_PCOD9291187
_publ_section_title
;
Structure prediction by ZEFSAII (Michael W. Deem and Ramdas Pophale) SiO2 
 PCOD9291187
Probable space group: C 2/C
;
_chemical_formula_sum "Si O2"
_cell_formula_units_Z 44
_cell_length_a 19.078197
_cell_length_b 8.283531
_cell_length_c 12.558904
_cell_angle_alpha 90.000000
_cell_angle_beta 112.398984
_cell_angle_gamma 90.000000
_cell_volume 1835.000916
_symmetry_space_group_name_H-M "C 2/C"
_symmetry_group_IT_number 15
_symmetry_cell_setting 'monoclinic'
loop_
_space_group_symop_operation_xyz
x,y,z
-x,y,1/2-z
-x,-y,-z
x,-y,1/2+z
1/2+x,1/2+y,z
1/2-x,1/2+y,1/2-z
1/2-x,1/2-y,-z
1/2+x,1/2-y,1/2+z
loop_
_atom_site_type_symbol
_atom_site_label
_atom_site_fract_x
_atom_site_fract_y
_atom_site_fract_z
Si Si1 0.000000 0.469608 0.250000
Si Si2 0.706328 0.718739 0.208626
Si Si3 0.042628 0.252519 0.473728
Si Si4 0.588124 0.607291 0.982033
Si Si5 0.694305 0.054181 0.092942
Si Si6 0.156151 0.648612 0.367026
O O1 0.008072 0.358865 0.359354
O O2 0.076630 0.572789 0.285943
O O3 0.639295 0.613824 0.118568
O O4 0.731105 0.660332 0.339234
O O5 0.782666 0.684980 0.186249
O O6 0.688852 0.904710 0.173448
O O7 0.119669 0.336328 0.555161
O O8 0.982200 0.225788 0.532894
O O9 0.060516 0.071774 0.444390
O O10 0.636425 0.686283 0.917023
O O11 0.692072 0.970498 0.976314
#
# Coordination Sequence:
#
# PCOD9291187 Si02
#       6
#     4   8   8   8   8   8
#     4  10  24  42  64  98 128 176 214 268 322 388
#     4  11  23  42  66  97 127 175 214 268 329 376
#     4  10  23  44  65  96 131 170 219 260 325 383
#     4  10  22  43  67  93 131 171 215 271 312 387
#     4  10  22  42  65  93 132 165 215 263 320 383
#     4  10  24  41  67  94 131 171 221 267 321 384
#
# _framework density 23.978189
#
# number of rings (size 3 to 8) (size 9 to 14) (size 15 to 20)
#    0.000    1.818    0.000    3.273    7.636    4.364 
#    9.818    5.455    0.000    0.000    0.000    0.000 
#    0.000    0.000    0.000    0.000    0.000    0.000 
#
# Total GULP energy -123297.573103 kJ/mol
# GULP energy per Si atom -5604.435141 kJ/mol
# Density = 2.392361 g / cm^3
# Si number density = 23.978189 Si / 1000 Ang^3
#
#
#
# Elastic Constant Matrix: (Units=GPa)
#
#
# Indices 1 2 3 4 5 6 
#
# 1 78.9941 36.6661 5.5939 0.0000 5.5501 0.0000
# 2 36.6661 72.7092 37.1928 0.0000 15.7152 0.0000
# 3 5.5939 37.1928 87.3023 0.0000 33.6084 0.0000
# 4 0.0000 0.0000 0.0000 29.9997 0.0000 16.6789
# 5 5.5501 15.7152 33.6084 0.0000 37.7065 0.0000
# 6 0.0000 0.0000 0.0000 16.6789 0.0000 37.4771
#
#
#
# Elastic Compliance Matrix: (Units=1/GPa)
#
#
# Indices 1 2 3 4 5 6 
#
# 1 0.017330 -0.010404 0.004011 0.000000 -0.001790 0.000000
# 2 -0.010404 0.023856 -0.009528 0.000000 0.000081 0.000000
# 3 0.004011 -0.009528 0.021245 0.000000 -0.015555 0.000000
# 4 0.000000 0.000000 0.000000 0.044293 0.000000 -0.019712
# 5 -0.001790 0.000081 -0.015555 0.000000 0.040615 0.000000
# 6 0.000000 0.000000 0.000000 -0.019712 0.000000 0.035456
#
#
# Mechanical properties :
#
#
# Convention : Reuss Voigt Hill
#
# Bulk Modulus (GPa) = 32.69150 44.21234 38.45192
# Shear Modulus (GPa) = 22.23866 31.67350 26.95608
#
# Velocity S-wave (km/s) = 3.04872 3.63840 3.35653
# Velocity P-wave (km/s) = 5.10454 6.01076 5.57609
#
# Compressibility (1/GPa) = 0.03058899
#
# Stress axis : x y z
#
# Youngs Moduli (GPa) = 57.70300 41.91752 47.07038
#
# Poissons Ratio (x) = 0.43612 -0.18880
# Poissons Ratio (y) = 0.60035 0.44848
# Poissons Ratio (z) = -0.23144 0.39939
#
# Static dielectric constant tensor:
#      x y z
#    x 1.890350 0.000000 -0.010580 
#    y 0.000000 1.900930 0.000000 
#    z -0.010580 0.000000 1.951350 
# 
# From -- ./inp_files/159434.got.cif
#   From: 2010.05.17/outbox.cif.g08.bks.cpg/sg15_80_cif.got.tgz:159434.got - 2010.06.03 18:47:42.
