data_PCOD9291542
_publ_section_title
;
Structure prediction by ZEFSAII (Michael W. Deem and Ramdas Pophale) SiO2 
 PCOD9291542
Probable space group: C 2/C
;
_chemical_formula_sum "Si O2"
_cell_formula_units_Z 52
_cell_length_a 22.408020
_cell_length_b 12.108728
_cell_length_c 11.731105
_cell_angle_alpha 90.000000
_cell_angle_beta 49.592992
_cell_angle_gamma 90.000000
_cell_volume 2423.748033
_symmetry_space_group_name_H-M "C 2/C"
_symmetry_group_IT_number 15
_symmetry_cell_setting 'monoclinic'
loop_
_space_group_symop_operation_xyz
x,y,z
-x,y,1/2-z
-x,-y,-z
x,-y,1/2+z
1/2+x,1/2+y,z
1/2-x,1/2+y,1/2-z
1/2-x,1/2-y,-z
1/2+x,1/2-y,1/2+z
loop_
_atom_site_type_symbol
_atom_site_label
_atom_site_fract_x
_atom_site_fract_y
_atom_site_fract_z
Si Si1 0.258507 0.388337 0.378684
Si Si2 0.035779 0.947484 0.575935
Si Si3 0.396356 0.040490 0.558317
Si Si4 0.046674 0.737059 0.874102
Si Si5 0.311038 0.848156 0.786764
Si Si6 0.834547 0.083067 0.181958
Si Si7 0.500000 0.086161 0.750000
O O1 0.186600 0.406200 0.378765
O O2 0.316128 0.285252 0.281897
O O3 0.217797 0.374238 0.550470
O O4 0.308843 0.498790 0.311191
O O5 0.000000 0.964008 0.750000
O O6 0.027133 0.817048 0.559517
O O7 0.118749 0.009068 0.468825
O O8 0.000000 0.000000 0.500000
O O9 0.375722 0.938338 0.669081
O O10 0.445037 0.986449 0.396907
O O11 0.450217 0.139672 0.537919
O O12 0.113526 0.821585 0.827947
O O13 0.057935 0.666784 0.746797
O O14 0.240616 0.868042 0.785845
#
# Coordination Sequence:
#
# PCOD9291542 Si02
#       7
#     8   8   8   8   8   8   4
#     4  10  22  42  68  96 128 176 221 283 344 408
#     4  10  23  42  67 102 140 179 227 284 343 413
#     4  11  24  46  62 102 127 179 225 282 347 410
#     4  11  23  44  63  97 135 174 230 277 343 416
#     4  10  22  42  69  91 132 169 227 284 338 416
#     4  10  23  42  66  97 133 172 224 287 341 410
#     4  12  26  42  70  90 142 178 226 284 342 430
#
# _framework density 21.454374999999999
#
# number of rings (size 3 to 8) (size 9 to 14) (size 15 to 20)
#    0.000    1.538    2.308    1.385    6.462    0.000 
#   11.077    2.308    0.000    0.000    0.000    0.000 
#    0.000    0.000    0.000    0.000    0.000    0.000 
#
# Total GULP energy -144829.901383 kJ/mol
# GULP energy per Si atom -5570.380822 kJ/mol
# Density = 2.140554 g / cm^3
# Si number density = 21.454375 Si / 1000 Ang^3
#
#
#
# Elastic Constant Matrix: (Units=GPa)
#
#
# Indices 1 2 3 4 5 6 
#
# 1 37.4703 36.0317 17.1023 0.0000 11.9065 0.0000
# 2 36.0317 165.7784 54.0978 0.0000 10.6195 0.0000
# 3 17.1023 54.0978 93.1390 0.0000 6.8449 0.0000
# 4 0.0000 0.0000 0.0000 -2.1714 0.0000 26.9271
# 5 11.9065 10.6195 6.8449 0.0000 26.7447 0.0000
# 6 0.0000 0.0000 0.0000 26.9271 0.0000 10.2518
#
#
#
# Elastic Compliance Matrix: (Units=1/GPa)
#
#
# Indices 1 2 3 4 5 6 
#
# 1 0.038640 -0.006815 -0.002111 0.000000 -0.013956 0.000000
# 2 -0.006815 0.008739 -0.003865 0.000000 0.000553 0.000000
# 3 -0.002111 -0.003865 0.013440 0.000000 -0.000965 0.000000
# 4 0.000000 0.000000 0.000000 -0.013718 0.000000 0.036031
# 5 -0.013956 0.000553 -0.000965 0.000000 0.043631 0.000000
# 6 0.000000 0.000000 0.000000 0.036031 0.000000 0.002906
#
#
# Mechanical properties :
#
#
# Convention : Reuss Voigt Hill
#
# Bulk Modulus (GPa) = 28.38006 56.76126 42.57066
# Shear Modulus (GPa) = 38.17781 19.57541 28.87661
#
# Velocity S-wave (km/s) = 4.22297 3.02391 3.67270
# Velocity P-wave (km/s) = 6.08563 6.22143 6.15390
#
# Compressibility (1/GPa) = 0.03523600
#
# Stress axis : x y z
#
# Youngs Moduli (GPa) = 25.88023 114.42467 74.40343
#
# Poissons Ratio (x) = 0.77986 0.15705
# Poissons Ratio (y) = 0.17639 0.28759
# Poissons Ratio (z) = 0.05463 0.44228
#
# Static dielectric constant tensor:
#      x y z
#    x 1.886620 0.000000 -0.017230 
#    y 0.000000 1.783470 0.000000 
#    z -0.017230 0.000000 1.773120 
# 
# From -- ./inp_files/117962.got.cif
#   From: 2010.05.17/outbox.cif.g08.bks.cpg/sg15_59_cif.got.tgz:117962.got - 2010.06.03 18:47:42.
