data_PCOD9291074
_publ_section_title
;
Structure prediction by ZEFSAII (Michael W. Deem and Ramdas Pophale) SiO2 
 PCOD9291074
Probable space group: C 2/C
;
_chemical_formula_sum "Si O2"
_cell_formula_units_Z 44
_cell_length_a 9.456541
_cell_length_b 15.205582
_cell_length_c 19.712164
_cell_angle_alpha 90.000000
_cell_angle_beta 43.669052
_cell_angle_gamma 90.000000
_cell_volume 1957.168372
_symmetry_space_group_name_H-M "C 2/C"
_symmetry_group_IT_number 15
_symmetry_cell_setting 'monoclinic'
loop_
_space_group_symop_operation_xyz
x,y,z
-x,y,1/2-z
-x,-y,-z
x,-y,1/2+z
1/2+x,1/2+y,z
1/2-x,1/2+y,1/2-z
1/2-x,1/2-y,-z
1/2+x,1/2-y,1/2+z
loop_
_atom_site_type_symbol
_atom_site_label
_atom_site_fract_x
_atom_site_fract_y
_atom_site_fract_z
Si Si1 0.559428 0.522462 0.402639
Si Si2 0.446907 0.802963 0.013286
Si Si3 0.645465 0.368854 0.640029
Si Si4 0.000000 0.477492 0.250000
Si Si5 0.042488 0.687926 0.831564
Si Si6 0.010745 0.828413 0.373075
O O1 0.500000 0.500000 0.500000
O O2 0.423278 0.590538 0.408005
O O3 0.801926 0.539202 0.317194
O O4 0.540544 0.431383 0.369467
O O5 0.492640 0.804833 0.076602
O O6 0.205434 0.817007 0.088672
O O7 0.612705 0.874176 0.927649
O O8 0.487313 0.715584 0.955288
O O9 0.500000 0.406054 0.750000
O O10 0.593491 0.265168 0.652950
O O11 0.009060 0.407009 0.184097
O O12 0.282688 0.707083 0.733114
#
# Coordination Sequence:
#
# PCOD9291074 Si02
#       6
#     8   8   8   4   8   8
#     4  11  24  41  62  92 130 168 209 265 331 386
#     4  11  22  39  67  90 124 169 211 270 312 383
#     4  12  23  39  62  96 129 163 214 269 322 382
#     4  10  22  42  64  88 128 166 222 258 312 400
#     4  11  20  42  67  87 123 169 218 260 315 383
#     4  10  23  42  62  95 125 162 225 255 320 394
#
# _framework density 22.481459000000001
#
# number of rings (size 3 to 8) (size 9 to 14) (size 15 to 20)
#    0.000    1.091    2.727    4.364    0.000    5.091 
#    3.273    0.000    0.000    0.000    0.000    0.000 
#    0.000    0.000    0.000    0.000    0.000    0.000 
#
# Total GULP energy -122873.117237 kJ/mol
# GULP energy per Si atom -5585.141693 kJ/mol
# Density = 2.243029 g / cm^3
# Si number density = 22.481459 Si / 1000 Ang^3
#
#
#
# Elastic Constant Matrix: (Units=GPa)
#
#
# Indices 1 2 3 4 5 6 
#
# 1 110.9177 13.8795 26.0282 -0.0003 -14.8208 0.0002
# 2 13.8795 12.7160 -7.1610 -0.0002 -9.6281 0.0000
# 3 26.0282 -7.1610 73.9715 -0.0004 0.2655 0.0003
# 4 -0.0003 -0.0002 -0.0004 10.6828 0.0002 -0.0772
# 5 -14.8208 -9.6281 0.2655 0.0002 57.7761 -0.0001
# 6 0.0002 0.0000 0.0003 -0.0772 -0.0001 28.4880
#
#
#
# Elastic Compliance Matrix: (Units=1/GPa)
#
#
# Indices 1 2 3 4 5 6 
#
# 1 0.012606 -0.016830 -0.006067 0.000000 0.000457 0.000000
# 2 -0.016830 0.118376 0.017327 0.000002 0.015330 0.000000
# 3 -0.006067 0.017327 0.017326 0.000001 0.001252 0.000000
# 4 0.000000 0.000002 0.000001 0.093610 0.000000 0.000254
# 5 0.000457 0.015330 0.001252 0.000000 0.019974 0.000000
# 6 0.000000 0.000000 0.000000 0.000254 0.000000 0.035103
#
#
# Mechanical properties :
#
#
# Convention : Reuss Voigt Hill
#
# Bulk Modulus (GPa) = 7.29032 29.23320 18.26176
# Shear Modulus (GPa) = 14.12988 30.37994 22.25491
#
# Velocity S-wave (km/s) = 2.50974 3.68004 3.14972
# Velocity P-wave (km/s) = 3.41295 5.57569 4.62258
#
# Compressibility (1/GPa) = 0.13716826
#
# Stress axis : x y z
#
# Youngs Moduli (GPa) = 79.32463 8.44763 57.71588
#
# Poissons Ratio (x) = 0.14218 0.35015
# Poissons Ratio (y) = 1.33506 -1.00003
# Poissons Ratio (z) = 0.48124 -0.14637
#
# Static dielectric constant tensor:
#      x y z
#    x 1.903290 0.000000 -0.062540 
#    y 0.000000 1.795460 0.000000 
#    z -0.062540 0.000000 1.894250 
# 
# From -- ./inp_files/134276.got.cif
#   From: 2010.05.17/outbox.cif.g08.bks.cpg/sg15_68_cif.got.tgz:134276.got - 2010.06.03 18:47:42.
