data_PCOD9291071
_publ_section_title
;
Structure prediction by ZEFSAII (Michael W. Deem and Ramdas Pophale) SiO2 
 PCOD9291071
Probable space group: C 2/C
;
_chemical_formula_sum "Si O2"
_cell_formula_units_Z 64
_cell_length_a 15.145239
_cell_length_b 27.972739
_cell_length_c 8.958574
_cell_angle_alpha 90.000000
_cell_angle_beta 115.725051
_cell_angle_gamma 90.000000
_cell_volume 3419.168381
_symmetry_space_group_name_H-M "C 2/C"
_symmetry_group_IT_number 15
_symmetry_cell_setting 'monoclinic'
loop_
_space_group_symop_operation_xyz
x,y,z
-x,y,1/2-z
-x,-y,-z
x,-y,1/2+z
1/2+x,1/2+y,z
1/2-x,1/2+y,1/2-z
1/2-x,1/2-y,-z
1/2+x,1/2-y,1/2+z
loop_
_atom_site_type_symbol
_atom_site_label
_atom_site_fract_x
_atom_site_fract_y
_atom_site_fract_z
Si Si1 0.419527 0.373443 0.071744
Si Si2 0.106983 0.621197 0.899754
Si Si3 0.394754 0.114849 0.245941
Si Si4 0.235750 0.942828 0.151152
Si Si5 0.766417 0.046301 0.492732
Si Si6 0.228081 0.801324 0.919266
Si Si7 0.933150 0.870626 0.573122
Si Si8 0.756661 0.801386 0.924755
O O1 0.500000 0.387484 0.250000
O O2 0.352677 0.419539 0.992148
O O3 0.485896 0.354883 0.985968
O O4 0.343844 0.332202 0.063871
O O5 0.166745 0.581976 0.846471
O O6 0.000000 0.629517 0.750000
O O7 0.097703 0.609787 0.069385
O O8 0.180337 0.666261 0.960797
O O9 0.500000 0.115267 0.250000
O O10 0.331870 0.070324 0.141716
O O11 0.337700 0.163213 0.149931
O O12 0.237813 0.950418 0.330769
O O13 0.221775 0.992968 0.057369
O O14 0.144712 0.907876 0.049322
O O15 0.130700 0.827009 0.909553
O O16 0.220668 0.797257 0.734921
O O17 0.250000 0.750000 0.000000
O O18 0.000000 0.893968 0.750000
O O19 0.750000 0.750000 0.000000
#
# Coordination Sequence:
#
# PCOD9291071 Si02
#       8
#     8   8   8   8   8   8   8   8
#     4  11  23  42  62  92 125 164 205 249 307 362
#     4  10  22  42  64  89 122 163 205 257 311 364
#     4  10  22  42  64  88 123 161 207 257 309 364
#     4  11  24  40  63  93 124 162 205 255 306 366
#     4  11  24  40  63  93 125 161 206 254 306 366
#     4  10  23  40  61  90 122 160 205 251 306 361
#     4  11  23  42  64  88 127 166 204 251 304 366
#     4  10  23  40  61  90 124 159 202 256 303 362
#
# _framework density 18.718003
#
# number of rings (size 3 to 8) (size 9 to 14) (size 15 to 20)
#    0.000    1.500    2.500    1.500    5.250    4.500 
#    2.250    2.500    0.000    0.000    0.000    0.000 
#    0.000    0.000    0.000    0.000    0.000    0.000 
#
# Total GULP energy -178533.323248 kJ/mol
# GULP energy per Si atom -5579.166351 kJ/mol
# Density = 1.867540 g / cm^3
# Si number density = 18.718003 Si / 1000 Ang^3
#
#
#
# Elastic Constant Matrix: (Units=GPa)
#
#
# Indices 1 2 3 4 5 6 
#
# 1 141.8970 48.2330 48.7141 0.0000 5.5666 0.0000
# 2 48.2330 116.0299 28.5362 0.0000 -7.6234 0.0000
# 3 48.7141 28.5362 83.0053 0.0000 3.8577 0.0000
# 4 0.0000 0.0000 0.0000 30.9303 0.0000 -9.2831
# 5 5.5666 -7.6234 3.8577 0.0000 26.1509 0.0000
# 6 0.0000 0.0000 0.0000 -9.2831 0.0000 6.9158
#
#
#
# Elastic Compliance Matrix: (Units=1/GPa)
#
#
# Indices 1 2 3 4 5 6 
#
# 1 0.009750 -0.003084 -0.004555 0.000000 -0.002303 0.000000
# 2 -0.003084 0.010672 -0.002048 0.000000 0.004069 0.000000
# 3 -0.004555 -0.002048 0.015514 0.000000 -0.001916 0.000000
# 4 0.000000 0.000000 0.000000 0.054143 0.000000 0.072676
# 5 -0.002303 0.004069 -0.001916 0.000000 0.040199 0.000000
# 6 0.000000 0.000000 0.000000 0.072676 0.000000 0.242150
#
#
# Mechanical properties :
#
#
# Convention : Reuss Voigt Hill
#
# Bulk Modulus (GPa) = 60.38062 65.76653 63.07357
# Shear Modulus (GPa) = 12.58433 27.16266 19.87349
#
# Velocity S-wave (km/s) = 2.59571 3.81353 3.26196
# Velocity P-wave (km/s) = 6.42742 7.38934 6.92510
#
# Compressibility (1/GPa) = 0.01656160
#
# Stress axis : x y z
#
# Youngs Moduli (GPa) = 102.56820 93.70745 64.45987
#
# Poissons Ratio (x) = 0.28899 0.29359
# Poissons Ratio (y) = 0.31632 0.13201
# Poissons Ratio (z) = 0.46716 0.19191
#
# Static dielectric constant tensor:
#      x y z
#    x 1.632310 0.000000 -0.019110 
#    y 0.000000 1.660180 0.000000 
#    z -0.019110 0.000000 1.672850 
# 
# From -- ./inp_files/43569.got.cif
#   From: 2010.05.17/outbox.cif.g08.bks.cpg/sg15_22_cif.got.tgz:43569.got - 2010.06.03 18:47:42.
