data_PCOD9291865
_publ_section_title
;
Structure prediction by ZEFSAII (Michael W. Deem and Ramdas Pophale) SiO2 
 PCOD9291865
Probable space group: C 2/C
;
_chemical_formula_sum "Si O2"
_cell_formula_units_Z 40
_cell_length_a 16.555436
_cell_length_b 9.746043
_cell_length_c 16.488038
_cell_angle_alpha 90.000000
_cell_angle_beta 142.268296
_cell_angle_gamma 90.000000
_cell_volume 1628.037262
_symmetry_space_group_name_H-M "C 2/C"
_symmetry_group_IT_number 15
_symmetry_cell_setting 'monoclinic'
loop_
_space_group_symop_operation_xyz
x,y,z
-x,y,1/2-z
-x,-y,-z
x,-y,1/2+z
1/2+x,1/2+y,z
1/2-x,1/2+y,1/2-z
1/2-x,1/2-y,-z
1/2+x,1/2-y,1/2+z
loop_
_atom_site_type_symbol
_atom_site_label
_atom_site_fract_x
_atom_site_fract_y
_atom_site_fract_z
Si Si1 0.776681 0.805144 0.221635
Si Si2 0.126685 0.566982 0.903972
Si Si3 0.479725 0.493192 0.822028
Si Si4 0.340228 0.692411 0.955083
Si Si5 0.058497 0.283092 0.920041
O O1 0.772083 0.815338 0.314377
O O2 0.837326 0.945475 0.231354
O O3 0.899939 0.699559 0.304804
O O4 0.641729 0.775331 0.068846
O O5 0.249570 0.615834 0.948828
O O6 0.116837 0.406156 0.914592
O O7 0.000000 0.603803 0.750000
O O8 0.131023 0.655603 0.989743
O O9 0.500000 0.426384 0.750000
O O10 0.566959 0.632823 0.887395
O O11 0.526258 0.395444 0.930919
#
# Coordination Sequence:
#
# PCOD9291865 Si02
#       5
#     8   8   8   8   8
#     4  10  25  44  72 102 136 181 233 285 343 409
#     4  11  26  43  69 100 141 182 231 285 347 411
#     4  10  22  42  73  96 136 177 232 277 343 407
#     4  11  25  44  67  99 142 185 226 280 350 419
#     4  10  25  44  71 103 136 178 234 289 341 406
#
# _framework density 24.569462000000001
#
# number of rings (size 3 to 8) (size 9 to 14) (size 15 to 20)
#    1.200    0.400    0.000    3.000    5.600    5.600 
#    0.000    0.000    0.000    0.000    0.000    0.000 
#    0.000    0.000    0.000    0.000    0.000    0.000 
#
# Total GULP energy -111864.936630 kJ/mol
# GULP energy per Si atom -5593.246831 kJ/mol
# Density = 2.451354 g / cm^3
# Si number density = 24.569462 Si / 1000 Ang^3
#
#
#
# Elastic Constant Matrix: (Units=GPa)
#
#
# Indices 1 2 3 4 5 6 
#
# 1 41.3886 41.6803 -0.0860 0.0000 -21.6737 0.0000
# 2 41.6803 37.8495 91.7846 0.0000 33.4796 0.0000
# 3 -0.0860 91.7846 118.4422 0.0000 -47.2431 0.0000
# 4 0.0000 0.0000 0.0000 32.2710 0.0000 -10.6259
# 5 -21.6737 33.4796 -47.2431 0.0000 26.0213 0.0000
# 6 0.0000 0.0000 0.0000 -10.6259 0.0000 7.8439
#
#
#
# Elastic Compliance Matrix: (Units=1/GPa)
#
#
# Indices 1 2 3 4 5 6 
#
# 1 0.015283 0.005403 -0.006783 0.000000 -0.006538 0.000000
# 2 0.005403 0.000517 0.004109 0.000000 0.011295 0.000000
# 3 -0.006783 0.004109 0.003234 0.000000 -0.005065 0.000000
# 4 0.000000 0.000000 0.000000 0.055940 0.000000 0.075781
# 5 -0.006538 0.011295 -0.005065 0.000000 0.009256 0.000000
# 6 0.000000 0.000000 0.000000 0.075781 0.000000 0.230147
#
#
# Mechanical properties :
#
#
# Convention : Reuss Voigt Hill
#
# Bulk Modulus (GPa) = 40.83405 51.60423 46.21914
# Shear Modulus (GPa) = 15.76873 17.51398 16.64136
#
# Velocity S-wave (km/s) = 2.53613 2.67279 2.60536
# Velocity P-wave (km/s) = 5.02313 5.52939 5.28233
#
# Compressibility (1/GPa) = 0.02448937
#
# Stress axis : x y z
#
# Youngs Moduli (GPa) = 65.43318 1935.23401 309.24080
#
# Poissons Ratio (x) = -10.45571 2.09769
# Poissons Ratio (y) = -0.35352 -1.27055
# Poissons Ratio (z) = 0.44386 -7.95115
#
# Static dielectric constant tensor:
#      x y z
#    x 1.998760 0.000000 0.075650 
#    y 0.000000 1.933730 0.000000 
#    z 0.075650 0.000000 2.043780 
# 
# From -- ./inp_files/161148.got.cif
#   From: 2010.05.17/outbox.cif.g08.bks.cpg/sg15_81_cif.got.tgz:161148.got - 2010.06.03 18:47:42.
