data_PCOD9291001
_publ_section_title
;
Structure prediction by ZEFSAII (Michael W. Deem and Ramdas Pophale) SiO2 
 PCOD9291001
Probable space group: C 2/C
;
_chemical_formula_sum "Si O2"
_cell_formula_units_Z 44
_cell_length_a 26.367353
_cell_length_b 9.543092
_cell_length_c 8.855167
_cell_angle_alpha 90.000000
_cell_angle_beta 57.767467
_cell_angle_gamma 90.000000
_cell_volume 1884.805438
_symmetry_space_group_name_H-M "C 2/C"
_symmetry_group_IT_number 15
_symmetry_cell_setting 'monoclinic'
loop_
_space_group_symop_operation_xyz
x,y,z
-x,y,1/2-z
-x,-y,-z
x,-y,1/2+z
1/2+x,1/2+y,z
1/2-x,1/2+y,1/2-z
1/2-x,1/2-y,-z
1/2+x,1/2-y,1/2+z
loop_
_atom_site_type_symbol
_atom_site_label
_atom_site_fract_x
_atom_site_fract_y
_atom_site_fract_z
Si Si1 0.211202 0.148558 0.671764
Si Si2 0.439996 0.090785 0.299641
Si Si3 0.500000 0.567957 0.250000
Si Si4 0.068782 0.857092 0.358342
Si Si5 0.216224 0.631097 0.410013
Si Si6 0.357962 0.927413 0.196228
O O1 0.250000 0.250000 0.500000
O O2 0.140969 0.151994 0.741565
O O3 0.224120 0.222170 0.812100
O O4 0.233167 0.987143 0.637707
O O5 0.500000 0.010203 0.250000
O O6 0.460363 0.223865 0.174107
O O7 0.400623 0.003678 0.247324
O O8 0.399397 0.143175 0.503982
O O9 0.542351 0.483067 0.300254
O O10 0.453764 0.643209 0.434405
O O11 0.176750 0.543918 0.348008
O O12 0.183534 0.657148 0.621928
#
# Coordination Sequence:
#
# PCOD9291001 Si02
#       6
#     8   8   4   8   8   8
#     4  12  25  46  73 106 146 188 241 307 365 434
#     4  11  21  41  68  98 133 180 224 286 351 420
#     4  10  26  48  74 102 138 200 236 294 364 430
#     4  11  24  48  70 101 142 180 245 293 357 432
#     4  11  23  44  68 102 141 188 234 290 372 424
#     4  10  22  42  62  97 143 176 227 287 351 437
#
# _framework density 23.344584000000001
#
# number of rings (size 3 to 8) (size 9 to 14) (size 15 to 20)
#    0.000    1.091    4.545    1.636    2.545    2.182 
#    1.636    0.000    0.000    0.000    0.000    0.000 
#    0.000    0.000    0.000    0.000    0.000    0.000 
#
# Total GULP energy -122860.650377 kJ/mol
# GULP energy per Si atom -5584.575017 kJ/mol
# Density = 2.329145 g / cm^3
# Si number density = 23.344584 Si / 1000 Ang^3
#
#
#
# Elastic Constant Matrix: (Units=GPa)
#
#
# Indices 1 2 3 4 5 6 
#
# 1 145.7823 0.3213 41.6470 0.0000 -5.8691 0.0000
# 2 0.3213 40.4414 25.8516 0.0000 0.7741 0.0000
# 3 41.6470 25.8516 161.3079 0.0000 27.0070 0.0000
# 4 0.0000 0.0000 0.0000 26.9910 0.0000 8.5030
# 5 -5.8691 0.7741 27.0070 0.0000 41.3295 0.0000
# 6 0.0000 0.0000 0.0000 8.5030 0.0000 24.5793
#
#
#
# Elastic Compliance Matrix: (Units=1/GPa)
#
#
# Indices 1 2 3 4 5 6 
#
# 1 0.007755 0.001638 -0.002744 0.000000 0.002864 0.000000
# 2 0.001638 0.028158 -0.005486 0.000000 0.003290 0.000000
# 3 -0.002744 -0.005486 0.008798 0.000000 -0.006036 0.000000
# 4 0.000000 0.000000 0.000000 0.041581 0.000000 -0.014385
# 5 0.002864 0.003290 -0.006036 0.000000 0.028485 0.000000
# 6 0.000000 0.000000 0.000000 -0.014385 0.000000 0.045661
#
#
# Mechanical properties :
#
#
# Convention : Reuss Voigt Hill
#
# Bulk Modulus (GPa) = 31.72049 53.68572 42.70310
# Shear Modulus (GPa) = 27.15439 37.22741 32.19090
#
# Velocity S-wave (km/s) = 3.41427 3.99769 3.71744
# Velocity P-wave (km/s) = 5.40004 6.66001 6.06284
#
# Compressibility (1/GPa) = 0.03152536
#
# Stress axis : x y z
#
# Youngs Moduli (GPa) = 128.94578 35.51352 113.66670
#
# Poissons Ratio (x) = -0.05816 0.31193
# Poissons Ratio (y) = -0.21118 0.62363
# Poissons Ratio (z) = 0.35386 0.19484
#
# Static dielectric constant tensor:
#      x y z
#    x 1.909270 0.000000 -0.055760 
#    y 0.000000 1.883170 0.000000 
#    z -0.055760 0.000000 1.925760 
# 
# From -- ./inp_files/65329.got.cif
#   From: 2010.05.17/outbox.cif.g08.bks.cpg/sg15_33_cif.got.tgz:65329.got - 2010.06.03 18:47:42.
