data_PCOD9291854
_publ_section_title
;
Structure prediction by ZEFSAII (Michael W. Deem and Ramdas Pophale) SiO2 
 PCOD9291854
Probable space group: C 2/C
;
_chemical_formula_sum "Si O2"
_cell_formula_units_Z 48
_cell_length_a 15.391590
_cell_length_b 16.045612
_cell_length_c 8.754904
_cell_angle_alpha 90.000000
_cell_angle_beta 113.720762
_cell_angle_gamma 90.000000
_cell_volume 1979.509168
_symmetry_space_group_name_H-M "C 2/C"
_symmetry_group_IT_number 15
_symmetry_cell_setting 'monoclinic'
loop_
_space_group_symop_operation_xyz
x,y,z
-x,y,1/2-z
-x,-y,-z
x,-y,1/2+z
1/2+x,1/2+y,z
1/2-x,1/2+y,1/2-z
1/2-x,1/2-y,-z
1/2+x,1/2-y,1/2+z
loop_
_atom_site_type_symbol
_atom_site_label
_atom_site_fract_x
_atom_site_fract_y
_atom_site_fract_z
Si Si1 0.772558 0.262585 0.696394
Si Si2 0.223815 0.559553 0.264819
Si Si3 0.858739 0.002422 0.108100
Si Si4 0.561983 0.746505 0.134988
Si Si5 0.078511 0.124681 0.598126
Si Si6 0.441994 0.065887 0.862499
O O1 0.750000 0.250000 0.500000
O O2 0.825736 0.351212 0.755562
O O3 0.674122 0.271897 0.721481
O O4 0.834046 0.187029 0.806725
O O5 0.275146 0.547773 0.141070
O O6 0.486894 0.682623 0.516661
O O7 0.305811 0.556330 0.449564
O O8 0.914304 0.945686 0.267477
O O9 0.913356 0.072435 0.052406
O O10 0.657770 0.020984 0.738261
O O11 0.500000 0.742209 0.250000
O O12 0.562893 0.841614 0.074411
O O13 0.500000 0.076066 0.750000
O O14 0.500000 0.000000 0.000000
#
# Coordination Sequence:
#
# PCOD9291854 Si02
#       6
#     8   8   8   8   8   8
#     4  12  26  45  73 108 152 197 245 311 378 440
#     4  11  22  42  68 103 147 187 251 296 376 444
#     4  10  22  42  73 103 136 196 237 310 369 439
#     4  11  26  48  73 109 151 198 253 306 377 449
#     4  11  24  48  77 107 152 191 252 309 375 451
#     4  11  24  40  68 102 141 192 241 303 367 441
#
# _framework density 24.248435000000001
#
# number of rings (size 3 to 8) (size 9 to 14) (size 15 to 20)
#    0.000    1.000    1.667    5.000    2.333    6.000 
#    0.000    9.167    0.000    0.000    0.000    0.000 
#    0.000    0.000    0.000    0.000    0.000    0.000 
#
# Total GULP energy -134391.953126 kJ/mol
# GULP energy per Si atom -5599.664714 kJ/mol
# Density = 2.419324 g / cm^3
# Si number density = 24.248435 Si / 1000 Ang^3
#
#
#
# Elastic Constant Matrix: (Units=GPa)
#
#
# Indices 1 2 3 4 5 6 
#
# 1 102.3934 44.2344 31.5212 0.0000 11.7260 0.0000
# 2 44.2344 211.2350 58.3135 0.0000 9.2742 0.0000
# 3 31.5212 58.3135 89.7844 0.0000 1.6118 0.0000
# 4 0.0000 0.0000 0.0000 69.1440 0.0000 19.5591
# 5 11.7260 9.2742 1.6118 0.0000 28.0474 0.0000
# 6 0.0000 0.0000 0.0000 19.5591 0.0000 39.2265
#
#
#
# Elastic Compliance Matrix: (Units=1/GPa)
#
#
# Indices 1 2 3 4 5 6 
#
# 1 0.011845 -0.001419 -0.003159 0.000000 -0.004301 0.000000
# 2 -0.001419 0.006020 -0.003390 0.000000 -0.001202 0.000000
# 3 -0.003159 -0.003390 0.014420 0.000000 0.001613 0.000000
# 4 0.000000 0.000000 0.000000 0.016837 0.000000 -0.008395
# 5 -0.004301 -0.001202 0.001613 0.000000 0.037757 0.000000
# 6 0.000000 0.000000 0.000000 -0.008395 0.000000 0.029679
#
#
# Mechanical properties :
#
#
# Convention : Reuss Voigt Hill
#
# Bulk Modulus (GPa) = 61.17337 74.61676 67.89507
# Shear Modulus (GPa) = 36.24663 45.23982 40.74322
#
# Velocity S-wave (km/s) = 3.87046 4.32404 4.10352
# Velocity P-wave (km/s) = 6.72730 7.46782 7.10721
#
# Compressibility (1/GPa) = 0.01634698
#
# Stress axis : x y z
#
# Youngs Moduli (GPa) = 84.42705 166.11549 69.34953
#
# Poissons Ratio (x) = 0.23578 0.21909
# Poissons Ratio (y) = 0.11983 0.23509
# Poissons Ratio (z) = 0.26673 0.56312
#
# Static dielectric constant tensor:
#      x y z
#    x 1.978930 0.000000 0.013220 
#    y 0.000000 1.993610 0.000000 
#    z 0.013220 0.000000 1.922110 
# 
# From -- ./inp_files/50394.got.cif
#   From: 2010.05.17/outbox.cif.g08.bks.cpg/sg15_26_cif.got.tgz:50394.got - 2010.06.03 18:47:42.
