data_PCOD9291815
_publ_section_title
;
Structure prediction by ZEFSAII (Michael W. Deem and Ramdas Pophale) SiO2 
 PCOD9291815
Probable space group: C 2/C
;
_chemical_formula_sum "Si O2"
_cell_formula_units_Z 48
_cell_length_a 20.222064
_cell_length_b 9.890602
_cell_length_c 12.919333
_cell_angle_alpha 90.000000
_cell_angle_beta 45.785688
_cell_angle_gamma 90.000000
_cell_volume 1852.029005
_symmetry_space_group_name_H-M "C 2/C"
_symmetry_group_IT_number 15
_symmetry_cell_setting 'monoclinic'
loop_
_space_group_symop_operation_xyz
x,y,z
-x,y,1/2-z
-x,-y,-z
x,-y,1/2+z
1/2+x,1/2+y,z
1/2-x,1/2+y,1/2-z
1/2-x,1/2-y,-z
1/2+x,1/2-y,1/2+z
loop_
_atom_site_type_symbol
_atom_site_label
_atom_site_fract_x
_atom_site_fract_y
_atom_site_fract_z
Si Si1 0.807125 0.702198 0.536862
Si Si2 0.189334 0.761492 0.748058
Si Si3 0.500000 0.299554 0.250000
Si Si4 0.500000 0.893625 0.250000
Si Si5 0.889288 0.760518 0.043813
Si Si6 0.590912 0.017574 0.332900
Si Si7 0.627127 0.536266 0.772750
O O1 0.750000 0.750000 0.500000
O O2 0.802614 0.801544 0.640201
O O3 0.737416 0.576629 0.641692
O O4 0.918062 0.712330 0.394885
O O5 0.291538 0.750826 0.593284
O O6 0.152546 0.609906 0.794275
O O7 0.127308 0.874699 0.763708
O O8 0.440467 0.392998 0.236236
O O9 0.458584 0.801077 0.385625
O O10 0.572076 0.987890 0.233313
O O11 0.882660 0.664531 0.154234
O O12 0.902471 0.905908 0.081980
O O13 0.500000 0.000000 0.500000
#
# Coordination Sequence:
#
# PCOD9291815 Si02
#       7
#     8   8   4   4   8   8   8
#     4   9  21  44  68 105 142 190 242 292 361 440
#     4  11  23  46  72 100 149 186 235 306 360 422
#     4  10  22  42  72 108 146 194 240 302 362 440
#     4  10  24  46  70 104 142 190 244 286 354 452
#     4  10  22  47  72 103 141 191 239 302 360 429
#     4  10  24  47  70  99 141 191 235 290 358 434
#     4  10  23  44  72 109 143 187 243 301 366 424
#
# _framework density 25.917521000000001
#
# number of rings (size 3 to 8) (size 9 to 14) (size 15 to 20)
#    0.000    2.000    0.000    2.000    4.667    2.667 
#   36.000    0.000    0.000    0.000    0.000    0.000 
#    0.000    0.000    0.000    0.000    0.000    0.000 
#
# Total GULP energy -133896.096810 kJ/mol
# GULP energy per Si atom -5579.004034 kJ/mol
# Density = 2.585853 g / cm^3
# Si number density = 25.917521 Si / 1000 Ang^3
#
#
#
# Elastic Constant Matrix: (Units=GPa)
#
#
# Indices 1 2 3 4 5 6 
#
# 1 137.8523 36.6892 29.3908 0.0000 -8.8974 0.0000
# 2 36.6892 88.1563 7.7475 0.0000 -7.6866 0.0000
# 3 29.3908 7.7475 96.3128 0.0000 -22.7089 0.0000
# 4 0.0000 0.0000 0.0000 13.0230 0.0000 -6.1707
# 5 -8.8974 -7.6866 -22.7089 0.0000 48.7708 0.0000
# 6 0.0000 0.0000 0.0000 -6.1707 0.0000 32.6669
#
#
#
# Elastic Compliance Matrix: (Units=1/GPa)
#
#
# Indices 1 2 3 4 5 6 
#
# 1 0.008664 -0.003402 -0.002386 0.000000 -0.000067 0.000000
# 2 -0.003402 0.012864 0.000376 0.000000 0.001582 0.000000
# 3 -0.002386 0.000376 0.012348 0.000000 0.005373 0.000000
# 4 0.000000 0.000000 0.000000 0.084335 0.000000 0.015931
# 5 -0.000067 0.001582 0.005373 0.000000 0.023243 0.000000
# 6 0.000000 0.000000 0.000000 0.015931 0.000000 0.033621
#
#
# Mechanical properties :
#
#
# Convention : Reuss Voigt Hill
#
# Bulk Modulus (GPa) = 43.37872 52.21958 47.79915
# Shear Modulus (GPa) = 25.82871 35.45840 30.64356
#
# Velocity S-wave (km/s) = 3.16028 3.70283 3.44226
# Velocity P-wave (km/s) = 5.48544 6.20269 5.85506
#
# Compressibility (1/GPa) = 0.02305278
#
# Stress axis : x y z
#
# Youngs Moduli (GPa) = 115.42078 77.73522 80.98739
#
# Poissons Ratio (x) = 0.26445 0.19323
# Poissons Ratio (y) = 0.39265 -0.03048
# Poissons Ratio (z) = 0.27538 -0.02926
#
# Static dielectric constant tensor:
#      x y z
#    x 2.098570 0.000000 -0.046850 
#    y 0.000000 2.134930 0.000000 
#    z -0.046850 0.000000 2.053500 
# 
# From -- ./inp_files/167872.got.cif
#   From: 2010.05.17/outbox.cif.g08.bks.cpg/sg15_84_cif.got.tgz:167872.got - 2010.06.03 18:47:42.
