data_PCOD9291459
_publ_section_title
;
Structure prediction by ZEFSAII (Michael W. Deem and Ramdas Pophale) SiO2 
 PCOD9291459
Probable space group: C 2/C
;
_chemical_formula_sum "Si O2"
_cell_formula_units_Z 36
_cell_length_a 14.758416
_cell_length_b 15.381368
_cell_length_c 9.075959
_cell_angle_alpha 90.000000
_cell_angle_beta 55.720129
_cell_angle_gamma 90.000000
_cell_volume 1702.405454
_symmetry_space_group_name_H-M "C 2/C"
_symmetry_group_IT_number 15
_symmetry_cell_setting 'monoclinic'
loop_
_space_group_symop_operation_xyz
x,y,z
-x,y,1/2-z
-x,-y,-z
x,-y,1/2+z
1/2+x,1/2+y,z
1/2-x,1/2+y,1/2-z
1/2-x,1/2-y,-z
1/2+x,1/2-y,1/2+z
loop_
_atom_site_type_symbol
_atom_site_label
_atom_site_fract_x
_atom_site_fract_y
_atom_site_fract_z
Si Si1 0.061907 0.381620 0.829848
Si Si2 0.628044 0.076076 0.762184
Si Si3 0.000000 0.031418 0.750000
Si Si4 0.647879 0.215742 0.499001
Si Si5 0.617210 0.602054 0.926353
O O1 0.111577 0.474770 0.739057
O O2 0.000000 0.338030 0.750000
O O3 0.154432 0.327198 0.831049
O O4 0.962608 0.399378 0.034567
O O5 0.612183 0.136382 0.634701
O O6 0.751130 0.094322 0.706204
O O7 0.935263 0.085295 0.685189
O O8 0.078638 0.969716 0.579977
O O9 0.750000 0.250000 0.500000
O O10 0.582274 0.304040 0.523881
#
# Coordination Sequence:
#
# PCOD9291459 Si02
#       5
#     8   8   4   8   8
#     4  11  23  38  68 105 132 169 219 278 330 404
#     4  10  22  42  67  98 137 172 216 271 349 398
#     4  10  24  44  66  96 128 184 232 282 326 398
#     4  10  23  43  65  96 134 178 214 267 338 403
#     4  10  24  43  69  94 132 179 228 279 333 395
#
# _framework density 21.146547000000002
#
# number of rings (size 3 to 8) (size 9 to 14) (size 15 to 20)
#    0.000    1.778    0.000    3.333   14.000    0.000 
#    0.000    4.444    0.000    0.000    0.000    0.000 
#    0.000    0.000    0.000    0.000    0.000    0.000 
#
# Total GULP energy -100353.331339 kJ/mol
# GULP energy per Si atom -5575.185074 kJ/mol
# Density = 2.109842 g / cm^3
# Si number density = 21.146547 Si / 1000 Ang^3
#
#
#
# Elastic Constant Matrix: (Units=GPa)
#
#
# Indices 1 2 3 4 5 6 
#
# 1 139.1530 58.6388 56.0059 0.0000 40.4818 0.0000
# 2 58.6388 117.3905 37.6087 0.0000 30.9092 0.0000
# 3 56.0059 37.6087 71.1269 0.0000 33.7476 0.0000
# 4 0.0000 0.0000 0.0000 36.2627 0.0000 6.8448
# 5 40.4818 30.9092 33.7476 0.0000 49.5106 0.0000
# 6 0.0000 0.0000 0.0000 6.8448 0.0000 79.7059
#
#
#
# Elastic Compliance Matrix: (Units=1/GPa)
#
#
# Indices 1 2 3 4 5 6 
#
# 1 0.012012 -0.003068 -0.006037 0.000000 -0.003791 0.000000
# 2 -0.003068 0.011605 -0.002177 0.000000 -0.003252 0.000000
# 3 -0.006037 -0.002177 0.025093 0.000000 -0.010808 0.000000
# 4 0.000000 0.000000 0.000000 0.028031 0.000000 -0.002407
# 5 -0.003791 -0.003252 -0.010808 0.000000 0.032695 0.000000
# 6 0.000000 0.000000 0.000000 -0.002407 0.000000 0.012753
#
#
# Mechanical properties :
#
#
# Convention : Reuss Voigt Hill
#
# Bulk Modulus (GPa) = 38.24938 70.24191 54.24564
# Shear Modulus (GPa) = 32.58008 44.79031 38.68520
#
# Velocity S-wave (km/s) = 3.92941 4.60726 4.28177
# Velocity P-wave (km/s) = 6.22206 7.84802 7.08186
#
# Compressibility (1/GPa) = 0.02614421
#
# Stress axis : x y z
#
# Youngs Moduli (GPa) = 83.25111 86.17031 39.85223
#
# Poissons Ratio (x) = 0.26435 0.24061
# Poissons Ratio (y) = 0.25539 0.08678
# Poissons Ratio (z) = 0.50263 0.18763
#
# Static dielectric constant tensor:
#      x y z
#    x 1.788170 0.000000 -0.037060 
#    y 0.000000 1.799870 0.000000 
#    z -0.037060 0.000000 1.655350 
# 
# From -- ./inp_files/37446.got.cif
#   From: 2010.05.17/outbox.cif.g08.bks.cpg/sg15_19_cif.got.tgz:37446.got - 2010.06.03 18:47:42.
