data_PCOD9291845
_publ_section_title
;
Structure prediction by ZEFSAII (Michael W. Deem and Ramdas Pophale) SiO2 
 PCOD9291845
Probable space group: C 2/C
;
_chemical_formula_sum "Si O2"
_cell_formula_units_Z 44
_cell_length_a 11.424681
_cell_length_b 8.532092
_cell_length_c 18.274910
_cell_angle_alpha 90.000000
_cell_angle_beta 102.335835
_cell_angle_gamma 90.000000
_cell_volume 1740.244894
_symmetry_space_group_name_H-M "C 2/C"
_symmetry_group_IT_number 15
_symmetry_cell_setting 'monoclinic'
loop_
_space_group_symop_operation_xyz
x,y,z
-x,y,1/2-z
-x,-y,-z
x,-y,1/2+z
1/2+x,1/2+y,z
1/2-x,1/2+y,1/2-z
1/2-x,1/2-y,-z
1/2+x,1/2-y,1/2+z
loop_
_atom_site_type_symbol
_atom_site_label
_atom_site_fract_x
_atom_site_fract_y
_atom_site_fract_z
Si Si1 0.500000 0.448295 0.750000
Si Si2 0.234334 0.356332 0.832237
Si Si3 0.492063 0.352375 0.590944
Si Si4 0.194696 0.838792 0.190186
Si Si5 0.192368 0.877859 0.439540
Si Si6 0.147263 0.328952 0.536063
O O1 0.455886 0.348937 0.672939
O O2 0.400966 0.559810 0.775445
O O3 0.364990 0.363202 0.887366
O O4 0.243671 0.288351 0.752453
O O5 0.203327 0.538372 0.822454
O O6 0.156457 0.233522 0.867090
O O7 0.418293 0.507754 0.554723
O O8 0.461577 0.207417 0.533287
O O9 0.137409 0.760009 0.111441
O O10 0.250000 0.750000 0.500000
O O11 0.300530 0.000321 0.439459
O O12 0.250000 0.250000 0.500000
#
# Coordination Sequence:
#
# PCOD9291845 Si02
#       6
#     4   8   8   8   8   8
#     4  10  22  42  72  98 150 180 246 294 374 448
#     4  11  23  41  72  99 143 190 239 304 370 439
#     4  10  23  43  68 104 134 189 234 301 368 430
#     4  11  23  43  72 107 139 194 237 301 371 437
#     4  11  23  44  69 102 144 187 241 304 370 439
#     4  10  23  42  72 101 144 182 245 307 361 443
#
# _framework density 25.283798000000001
#
# number of rings (size 3 to 8) (size 9 to 14) (size 15 to 20)
#    0.000    1.455    1.818    3.273    7.636    7.273 
#    0.000    3.636    8.000    1.091    0.000    0.000 
#    0.000    0.000    0.000    0.000    0.000    0.000 
#
# Total GULP energy -122828.704461 kJ/mol
# GULP energy per Si atom -5583.122930 kJ/mol
# Density = 2.522625 g / cm^3
# Si number density = 25.283798 Si / 1000 Ang^3
#
#
#
# Elastic Constant Matrix: (Units=GPa)
#
#
# Indices 1 2 3 4 5 6 
#
# 1 76.6133 32.7138 15.7056 0.0000 -3.5018 0.0000
# 2 32.7138 131.5919 54.4554 0.0000 -3.9031 0.0000
# 3 15.7056 54.4554 175.3881 0.0000 -3.2843 0.0000
# 4 0.0000 0.0000 0.0000 52.7311 0.0000 -1.7940
# 5 -3.5018 -3.9031 -3.2843 0.0000 41.9052 0.0000
# 6 0.0000 0.0000 0.0000 -1.7940 0.0000 37.1703
#
#
#
# Elastic Compliance Matrix: (Units=1/GPa)
#
#
# Indices 1 2 3 4 5 6 
#
# 1 0.014641 -0.003532 -0.000198 0.000000 0.000879 0.000000
# 2 -0.003532 0.009587 -0.002653 0.000000 0.000390 0.000000
# 3 -0.000198 -0.002653 0.006548 0.000000 0.000250 0.000000
# 4 0.000000 0.000000 0.000000 0.018995 0.000000 0.000917
# 5 0.000879 0.000390 0.000250 0.000000 0.023993 0.000000
# 6 0.000000 0.000000 0.000000 0.000917 0.000000 0.026947
#
#
# Mechanical properties :
#
#
# Convention : Reuss Voigt Hill
#
# Bulk Modulus (GPa) = 55.52420 65.48254 60.50337
# Shear Modulus (GPa) = 41.84786 45.07589 43.46187
#
# Velocity S-wave (km/s) = 4.07274 4.22690 4.15053
# Velocity P-wave (km/s) = 6.64261 7.05532 6.85207
#
# Compressibility (1/GPa) = 0.01801017
#
# Stress axis : x y z
#
# Youngs Moduli (GPa) = 68.29937 104.31143 152.72412
#
# Poissons Ratio (x) = 0.36841 0.03025
# Poissons Ratio (y) = 0.24122 0.40517
# Poissons Ratio (z) = 0.01353 0.27673
#
# Static dielectric constant tensor:
#      x y z
#    x 2.095470 0.000000 -0.001900 
#    y 0.000000 2.112220 0.000000 
#    z -0.001900 0.000000 2.134260 
# 
# From -- ./inp_files/202776.got.cif
#   From: 2010.05.17/outbox.cif.g08.bks.cpg/sg15_102_cif.got.tgz:202776.got - 2010.06.03 18:47:42.
