data_PCOD9291593
_publ_section_title
;
Structure prediction by ZEFSAII (Michael W. Deem and Ramdas Pophale) SiO2 
 PCOD9291593
Probable space group: C 2/C
;
_chemical_formula_sum "Si O2"
_cell_formula_units_Z 44
_cell_length_a 23.660503
_cell_length_b 10.522975
_cell_length_c 8.461643
_cell_angle_alpha 90.000000
_cell_angle_beta 125.051445
_cell_angle_gamma 90.000000
_cell_volume 1724.679595
_symmetry_space_group_name_H-M "C 2/C"
_symmetry_group_IT_number 15
_symmetry_cell_setting 'monoclinic'
loop_
_space_group_symop_operation_xyz
x,y,z
-x,y,1/2-z
-x,-y,-z
x,-y,1/2+z
1/2+x,1/2+y,z
1/2-x,1/2+y,1/2-z
1/2-x,1/2-y,-z
1/2+x,1/2-y,1/2+z
loop_
_atom_site_type_symbol
_atom_site_label
_atom_site_fract_x
_atom_site_fract_y
_atom_site_fract_z
Si Si1 0.500000 0.513014 0.750000
Si Si2 0.707403 0.813384 0.718455
Si Si3 0.419977 0.137561 0.313561
Si Si4 0.260010 0.448877 0.124151
Si Si5 0.583017 0.856445 0.061738
Si Si6 0.600417 0.398625 0.663128
O O1 0.542613 0.429891 0.696942
O O2 0.440996 0.592786 0.568242
O O3 0.628681 0.785046 0.646639
O O4 0.740200 0.672327 0.755407
O O5 0.717375 0.925172 0.606501
O O6 0.739382 0.884494 0.925176
O O7 0.500731 0.168583 0.453333
O O8 0.407832 0.994104 0.351214
O O9 0.400553 0.144524 0.098153
O O10 0.337292 0.504183 0.234169
O O11 0.624064 0.745865 0.215197
#
# Coordination Sequence:
#
# PCOD9291593 Si02
#       6
#     4   8   8   8   8   8
#     4  10  24  40  68 104 134 176 226 284 362 396
#     4  11  26  47  71 102 137 191 230 294 338 427
#     4  10  22  42  69 101 136 187 226 288 344 425
#     4  11  27  46  72 100 141 184 239 281 356 408
#     4  10  23  41  70 101 141 176 233 286 361 404
#     4  11  24  44  69 105 138 184 227 297 342 429
#
# _framework density 25.511986
#
# number of rings (size 3 to 8) (size 9 to 14) (size 15 to 20)
#    0.000    1.455    0.000    3.273   15.273    3.636 
#    6.545    0.000    0.000    0.000    0.000    0.000 
#    0.000    0.000    0.000    0.000    0.000    0.000 
#
# Total GULP energy -123189.490923 kJ/mol
# GULP energy per Si atom -5599.522315 kJ/mol
# Density = 2.545392 g / cm^3
# Si number density = 25.511986 Si / 1000 Ang^3
#
#
#
# Elastic Constant Matrix: (Units=GPa)
#
#
# Indices 1 2 3 4 5 6 
#
# 1 110.3962 27.3893 14.0312 0.0000 5.5756 0.0000
# 2 27.3893 152.0614 9.0926 0.0000 -14.4035 0.0000
# 3 14.0312 9.0926 38.9069 0.0000 3.0627 0.0000
# 4 0.0000 0.0000 0.0000 21.4231 0.0000 8.3794
# 5 5.5756 -14.4035 3.0627 0.0000 33.3142 0.0000
# 6 0.0000 0.0000 0.0000 8.3794 0.0000 -58.2014
#
#
#
# Elastic Compliance Matrix: (Units=1/GPa)
#
#
# Indices 1 2 3 4 5 6 
#
# 1 0.010005 -0.001830 -0.003008 0.000000 -0.002189 0.000000
# 2 -0.001830 0.007326 -0.001335 0.000000 0.003597 0.000000
# 3 -0.003008 -0.001335 0.027303 0.000000 -0.002584 0.000000
# 4 0.000000 0.000000 0.000000 0.044190 0.000000 0.006362
# 5 -0.002189 0.003597 -0.002584 0.000000 0.032176 0.000000
# 6 0.000000 0.000000 0.000000 0.006362 0.000000 -0.016266
#
#
# Mechanical properties :
#
#
# Convention : Reuss Voigt Hill
#
# Bulk Modulus (GPa) = 30.97172 44.71008 37.84090
# Shear Modulus (GPa) = 39.11019 16.03062 27.57041
#
# Velocity S-wave (km/s) = 3.91962 2.50942 3.29094
# Velocity P-wave (km/s) = 5.71410 5.09504 5.41343
#
# Compressibility (1/GPa) = 0.03228751
#
# Stress axis : x y z
#
# Youngs Moduli (GPa) = 99.94892 136.49339 36.62628
#
# Poissons Ratio (x) = 0.24973 0.11018
# Poissons Ratio (y) = 0.18286 0.04891
# Poissons Ratio (z) = 0.30068 0.18228
#
# Static dielectric constant tensor:
#      x y z
#    x 1.992860 0.000000 0.015120 
#    y 0.000000 1.984600 0.000000 
#    z 0.015120 0.000000 2.068120 
# 
# From -- ./inp_files/60937.got.cif
#   From: 2010.05.17/outbox.cif.g08.bks.cpg/sg15_31_cif.got.tgz:60937.got - 2010.06.03 18:47:42.
