data_PCOD9291768
_publ_section_title
;
Structure prediction by ZEFSAII (Michael W. Deem and Ramdas Pophale) SiO2 
 PCOD9291768
Probable space group: C 2/C
;
_chemical_formula_sum "Si O2"
_cell_formula_units_Z 48
_cell_length_a 7.097727
_cell_length_b 30.350835
_cell_length_c 12.092204
_cell_angle_alpha 90.000000
_cell_angle_beta 42.968574
_cell_angle_gamma 90.000000
_cell_volume 1775.510097
_symmetry_space_group_name_H-M "C 2/C"
_symmetry_group_IT_number 15
_symmetry_cell_setting 'monoclinic'
loop_
_space_group_symop_operation_xyz
x,y,z
-x,y,1/2-z
-x,-y,-z
x,-y,1/2+z
1/2+x,1/2+y,z
1/2-x,1/2+y,1/2-z
1/2-x,1/2-y,-z
1/2+x,1/2-y,1/2+z
loop_
_atom_site_type_symbol
_atom_site_label
_atom_site_fract_x
_atom_site_fract_y
_atom_site_fract_z
Si Si1 0.919221 0.804534 0.984247
Si Si2 0.744104 0.033188 0.084020
Si Si3 0.124339 0.873715 0.073016
Si Si4 0.171962 0.532062 0.393060
Si Si5 0.074008 0.250071 0.829758
Si Si6 0.315992 0.130151 0.075353
O O1 0.980154 0.840091 0.053789
O O2 0.801176 0.764824 0.106832
O O3 0.698850 0.830216 0.004582
O O4 0.207334 0.787646 0.804711
O O5 0.125939 0.921036 0.013085
O O6 0.353968 0.990878 0.998374
O O7 0.633634 0.959787 0.765684
O O8 0.000000 0.000000 0.000000
O O9 0.000000 0.877197 0.250000
O O10 0.443690 0.858930 0.942747
O O11 0.500000 0.530434 0.250000
O O12 0.105727 0.579026 0.484543
O O13 0.000000 0.222040 0.750000
O O14 0.750000 0.250000 0.000000
O O15 0.000000 0.127998 0.250000
#
# Coordination Sequence:
#
# PCOD9291768 Si02
#       6
#     8   8   8   8   8   8
#     4  11  24  48  81 108 170 209 275 341 433 496
#     4  11  26  45  76 120 159 221 285 340 425 502
#     4  11  28  51  80 115 165 221 276 348 415 503
#     4  10  22  42  71 110 163 203 274 337 400 487
#     4   9  21  40  76 119 152 212 267 339 420 499
#     4  10  26  44  76 121 154 215 280 335 418 508
#
# _framework density 27.034483999999999
#
# number of rings (size 3 to 8) (size 9 to 14) (size 15 to 20)
#    0.000    1.667    0.000    1.500   16.333    6.000 
#    0.000    2.500    0.000    0.000    0.000    0.000 
#    0.000    0.000    0.000    0.000    0.000    0.000 
#
# Total GULP energy -133773.100268 kJ/mol
# GULP energy per Si atom -5573.879178 kJ/mol
# Density = 2.697295 g / cm^3
# Si number density = 27.034484 Si / 1000 Ang^3
#
#
#
# Elastic Constant Matrix: (Units=GPa)
#
#
# Indices 1 2 3 4 5 6 
#
# 1 188.4373 49.5446 21.7568 0.0000 -9.3494 0.0000
# 2 49.5446 138.3649 82.3333 0.0000 27.6957 0.0000
# 3 21.7568 82.3333 129.2773 0.0000 8.7523 0.0000
# 4 0.0000 0.0000 0.0000 45.6459 0.0000 4.7761
# 5 -9.3494 27.6957 8.7523 0.0000 54.6727 0.0000
# 6 0.0000 0.0000 0.0000 4.7761 0.0000 55.0211
#
#
#
# Elastic Compliance Matrix: (Units=1/GPa)
#
#
# Indices 1 2 3 4 5 6 
#
# 1 0.006185 -0.003227 0.000841 0.000000 0.002558 0.000000
# 2 -0.003227 0.014691 -0.008363 0.000000 -0.006655 0.000000
# 3 0.000841 -0.008363 0.012761 0.000000 0.002337 0.000000
# 4 0.000000 0.000000 0.000000 0.022109 0.000000 -0.001919
# 5 0.002558 -0.006655 0.002337 0.000000 0.021725 0.000000
# 6 0.000000 0.000000 0.000000 -0.001919 0.000000 0.018341
#
#
# Mechanical properties :
#
#
# Convention : Reuss Voigt Hill
#
# Bulk Modulus (GPa) = 82.37019 84.81656 83.59338
# Shear Modulus (GPa) = 41.20057 51.23093 46.21575
#
# Velocity S-wave (km/s) = 3.90808 4.35791 4.13911
# Velocity P-wave (km/s) = 7.13434 7.53415 7.33697
#
# Compressibility (1/GPa) = 0.01214031
#
# Stress axis : x y z
#
# Youngs Moduli (GPa) = 161.67837 68.06774 78.36071
#
# Poissons Ratio (x) = 0.21968 -0.06592
# Poissons Ratio (y) = 0.52179 0.65531
# Poissons Ratio (z) = -0.13602 0.56923
#
# Static dielectric constant tensor:
#      x y z
#    x 2.328370 0.000000 0.150100 
#    y 0.000000 2.259470 0.000000 
#    z 0.150100 0.000000 1.869230 
# 
# From -- ./inp_files/130573.got.cif
#   From: 2010.05.17/outbox.cif.g08.bks.cpg/sg15_66_cif.got.tgz:130573.got - 2010.06.03 18:47:42.
