data_PCOD9291367
_publ_section_title
;
Structure prediction by ZEFSAII (Michael W. Deem and Ramdas Pophale) SiO2 
 PCOD9291367
Probable space group: C 2/C
;
_chemical_formula_sum "Si O2"
_cell_formula_units_Z 44
_cell_length_a 19.455045
_cell_length_b 8.918437
_cell_length_c 10.723192
_cell_angle_alpha 90.000000
_cell_angle_beta 85.148896
_cell_angle_gamma 90.000000
_cell_volume 1853.901091
_symmetry_space_group_name_H-M "C 2/C"
_symmetry_group_IT_number 15
_symmetry_cell_setting 'monoclinic'
loop_
_space_group_symop_operation_xyz
x,y,z
-x,y,1/2-z
-x,-y,-z
x,-y,1/2+z
1/2+x,1/2+y,z
1/2-x,1/2+y,1/2-z
1/2-x,1/2-y,-z
1/2+x,1/2-y,1/2+z
loop_
_atom_site_type_symbol
_atom_site_label
_atom_site_fract_x
_atom_site_fract_y
_atom_site_fract_z
Si Si1 0.063636 0.474161 0.669928
Si Si2 0.315847 0.290120 0.681098
Si Si3 0.300373 0.036687 0.182309
Si Si4 0.925106 0.990406 0.074364
Si Si5 0.500000 0.309012 0.250000
Si Si6 0.646715 0.785703 0.040502
O O1 0.126165 0.448187 0.758086
O O2 0.032110 0.309797 0.646387
O O3 0.090816 0.578084 0.556161
O O4 0.000000 0.554315 0.750000
O O5 0.290293 0.131402 0.632147
O O6 0.257302 0.415218 0.708991
O O7 0.380893 0.360715 0.601240
O O8 0.335374 0.241780 0.818933
O O9 0.298942 0.149875 0.066347
O O10 0.940814 0.913650 0.205327
O O11 0.882048 0.869115 0.005260
O O12 0.000000 0.000000 0.000000
#
# Coordination Sequence:
#
# PCOD9291367 Si02
#       6
#     8   8   8   8   4   8
#     4   9  22  38  69  98 133 174 233 277 338 409
#     4  11  27  45  68 105 141 181 235 286 342 423
#     4  11  23  45  70  98 143 182 227 289 348 407
#     4  12  26  42  71 100 143 182 229 287 349 406
#     4  10  22  42  66  98 140 166 238 278 338 404
#     4  11  23  44  71  97 139 181 236 279 353 403
#
# _framework density 23.733737000000001
#
# number of rings (size 3 to 8) (size 9 to 14) (size 15 to 20)
#    0.545    0.727    1.818    2.727    7.636    2.909 
#    0.000    4.545    0.000    0.000    0.000    0.000 
#    0.000    0.000    0.000    0.000    0.000    0.000 
#
# Total GULP energy -122925.219897 kJ/mol
# GULP energy per Si atom -5587.509995 kJ/mol
# Density = 2.367972 g / cm^3
# Si number density = 23.733737 Si / 1000 Ang^3
#
#
#
# Elastic Constant Matrix: (Units=GPa)
#
#
# Indices 1 2 3 4 5 6 
#
# 1 62.2496 29.4160 22.7466 0.0000 -29.8380 0.0000
# 2 29.4160 130.4577 24.9841 0.0000 -25.0292 0.0000
# 3 22.7466 24.9841 72.5495 0.0000 -23.6838 0.0000
# 4 0.0000 0.0000 0.0000 25.3971 0.0000 -3.6815
# 5 -29.8380 -25.0292 -23.6838 0.0000 51.8936 0.0000
# 6 0.0000 0.0000 0.0000 -3.6815 0.0000 29.7842
#
#
#
# Elastic Compliance Matrix: (Units=1/GPa)
#
#
# Indices 1 2 3 4 5 6 
#
# 1 0.023655 -0.002669 -0.002911 0.000000 0.010985 0.000000
# 2 -0.002669 0.008966 -0.001575 0.000000 0.002071 0.000000
# 3 -0.002911 -0.001575 0.016973 0.000000 0.005313 0.000000
# 4 0.000000 0.000000 0.000000 0.040093 0.000000 0.004956
# 5 0.010985 0.002071 0.005313 0.000000 0.029010 0.000000
# 6 0.000000 0.000000 0.000000 0.004956 0.000000 0.034187
#
#
# Mechanical properties :
#
#
# Convention : Reuss Voigt Hill
#
# Bulk Modulus (GPa) = 28.34102 46.61668 37.47885
# Shear Modulus (GPa) = 27.93983 33.95564 30.94773
#
# Velocity S-wave (km/s) = 3.43479 3.78655 3.61495
# Velocity P-wave (km/s) = 5.26284 6.22908 5.76624
#
# Compressibility (1/GPa) = 0.03528454
#
# Stress axis : x y z
#
# Youngs Moduli (GPa) = 42.27464 111.53208 58.91635
#
# Poissons Ratio (x) = 0.29763 0.17153
# Poissons Ratio (y) = 0.11281 0.09278
# Poissons Ratio (z) = 0.12308 0.17564
#
# Static dielectric constant tensor:
#      x y z
#    x 1.934890 0.000000 -0.004660 
#    y 0.000000 1.956630 0.000000 
#    z -0.004660 0.000000 1.973500 
# 
# From -- ./inp_files/109972.got.cif
#   From: 2010.05.17/outbox.cif.g08.bks.cpg/sg15_55_cif.got.tgz:109972.got - 2010.06.03 18:47:42.
