data_PCOD9291428
_publ_section_title
;
Structure prediction by ZEFSAII (Michael W. Deem and Ramdas Pophale) SiO2 
 PCOD9291428
Probable space group: C 2/C
;
_chemical_formula_sum "Si O2"
_cell_formula_units_Z 40
_cell_length_a 16.062848
_cell_length_b 11.969128
_cell_length_c 10.085440
_cell_angle_alpha 90.000000
_cell_angle_beta 71.319765
_cell_angle_gamma 90.000000
_cell_volume 1836.863964
_symmetry_space_group_name_H-M "C 2/C"
_symmetry_group_IT_number 15
_symmetry_cell_setting 'monoclinic'
loop_
_space_group_symop_operation_xyz
x,y,z
-x,y,1/2-z
-x,-y,-z
x,-y,1/2+z
1/2+x,1/2+y,z
1/2-x,1/2+y,1/2-z
1/2-x,1/2-y,-z
1/2+x,1/2-y,1/2+z
loop_
_atom_site_type_symbol
_atom_site_label
_atom_site_fract_x
_atom_site_fract_y
_atom_site_fract_z
Si Si1 0.667042 0.286278 0.457225
Si Si2 0.209785 0.134060 0.649375
Si Si3 0.950427 0.597912 0.103227
Si Si4 0.937865 0.985768 0.904038
Si Si5 0.370695 0.138148 0.404147
O O1 0.750000 0.250000 0.500000
O O2 0.692258 0.364946 0.316476
O O3 0.618187 0.173306 0.438852
O O4 0.600823 0.361589 0.574739
O O5 0.307938 0.098574 0.554969
O O6 0.185926 0.262818 0.630324
O O7 0.145240 0.065105 0.585595
O O8 0.901839 0.561138 0.264860
O O9 0.034228 0.678302 0.093431
O O10 0.000000 0.500000 0.000000
O O11 0.000000 0.007256 0.750000
O O12 0.000000 0.000000 0.000000
#
# Coordination Sequence:
#
# PCOD9291428 Si02
#       5
#     8   8   8   8   8
#     4  11  26  45  68 105 144 184 246 308 363 443
#     4  10  22  44  70  97 139 184 242 293 366 442
#     4  10  22  42  67  95 138 183 233 290 362 433
#     4  12  25  44  74 103 141 189 240 298 371 442
#     4   9  21  41  68  95 129 185 233 289 355 438
#
# _framework density 21.776246
#
# number of rings (size 3 to 8) (size 9 to 14) (size 15 to 20)
#    0.000    1.600    2.000    1.200    5.600    8.000 
#    7.200    0.000    0.000    0.000    0.000    0.000 
#    0.000    0.000    0.000    0.000    0.000    0.000 
#
# Total GULP energy -111443.836487 kJ/mol
# GULP energy per Si atom -5572.191824 kJ/mol
# Density = 2.172668 g / cm^3
# Si number density = 21.776246 Si / 1000 Ang^3
#
#
#
# Elastic Constant Matrix: (Units=GPa)
#
#
# Indices 1 2 3 4 5 6 
#
# 1 164.6779 15.9197 50.1902 0.0000 0.5288 0.0000
# 2 15.9197 48.2210 15.0930 0.0000 -2.2150 0.0000
# 3 50.1902 15.0930 79.5243 0.0000 -7.2644 0.0000
# 4 0.0000 0.0000 0.0000 29.3942 0.0000 3.9879
# 5 0.5288 -2.2150 -7.2644 0.0000 36.9335 0.0000
# 6 0.0000 0.0000 0.0000 3.9879 0.0000 27.6729
#
#
#
# Elastic Compliance Matrix: (Units=1/GPa)
#
#
# Indices 1 2 3 4 5 6 
#
# 1 0.007614 -0.001094 -0.004698 0.000000 -0.001099 0.000000
# 2 -0.001094 0.022214 -0.003465 0.000000 0.000666 0.000000
# 3 -0.004698 -0.003465 0.016481 0.000000 0.003101 0.000000
# 4 0.000000 0.000000 0.000000 0.034699 0.000000 -0.005000
# 5 -0.001099 0.000666 0.003101 0.000000 0.027741 0.000000
# 6 0.000000 0.000000 0.000000 -0.005000 0.000000 0.036857
#
#
# Mechanical properties :
#
#
# Convention : Reuss Voigt Hill
#
# Bulk Modulus (GPa) = 35.97733 50.53654 43.25694
# Shear Modulus (GPa) = 28.83783 32.88146 30.85964
#
# Velocity S-wave (km/s) = 3.64301 3.89005 3.76855
# Velocity P-wave (km/s) = 5.85257 6.59046 6.23245
#
# Compressibility (1/GPa) = 0.02779528
#
# Stress axis : x y z
#
# Youngs Moduli (GPa) = 131.34512 45.01663 60.67715
#
# Poissons Ratio (x) = 0.04923 0.28506
# Poissons Ratio (y) = 0.14363 0.21024
# Poissons Ratio (z) = 0.61705 0.15598
#
# Static dielectric constant tensor:
#      x y z
#    x 1.952490 0.000000 0.092010 
#    y 0.000000 1.803570 0.000000 
#    z 0.092010 0.000000 1.931580 
# 
# From -- ./inp_files/37856.got.cif
#   From: 2010.05.17/outbox.cif.g08.bks.cpg/sg15_19_cif.got.tgz:37856.got - 2010.06.03 18:47:42.
