data_PCOD9291410
_publ_section_title
;
Structure prediction by ZEFSAII (Michael W. Deem and Ramdas Pophale) SiO2 
 PCOD9291410
Probable space group: C 2/C
;
_chemical_formula_sum "Si O2"
_cell_formula_units_Z 52
_cell_length_a 20.360270
_cell_length_b 8.568914
_cell_length_c 21.848076
_cell_angle_alpha 90.000000
_cell_angle_beta 38.914199
_cell_angle_gamma 90.000000
_cell_volume 2394.362817
_symmetry_space_group_name_H-M "C 2/C"
_symmetry_group_IT_number 15
_symmetry_cell_setting 'monoclinic'
loop_
_space_group_symop_operation_xyz
x,y,z
-x,y,1/2-z
-x,-y,-z
x,-y,1/2+z
1/2+x,1/2+y,z
1/2-x,1/2+y,1/2-z
1/2-x,1/2-y,-z
1/2+x,1/2-y,1/2+z
loop_
_atom_site_type_symbol
_atom_site_label
_atom_site_fract_x
_atom_site_fract_y
_atom_site_fract_z
Si Si1 0.781445 0.694397 0.799373
Si Si2 0.846913 0.788000 0.885900
Si Si3 0.980091 0.381054 0.386377
Si Si4 0.045723 0.280360 0.832494
Si Si5 0.494404 0.809579 0.005348
Si Si6 0.777885 0.865893 0.684314
Si Si7 0.500000 0.564150 0.750000
O O1 0.803311 0.733323 0.852854
O O2 0.895891 0.634433 0.695765
O O3 0.759866 0.839310 0.770273
O O4 0.707558 0.546741 0.841805
O O5 0.939225 0.698176 0.854865
O O6 0.897953 0.956514 0.836173
O O7 0.750000 0.750000 0.000000
O O8 0.969616 0.566936 0.386029
O O9 0.943327 0.290459 0.474917
O O10 0.168989 0.314289 0.732286
O O11 0.013606 0.163524 0.802199
O O12 0.036892 0.239262 0.910989
O O13 0.377790 0.737101 0.093582
O O14 0.500000 0.000000 0.000000
#
# Coordination Sequence:
#
# PCOD9291410 Si02
#       7
#     8   8   8   8   8   8   4
#     4  10  22  42  67  93 136 175 225 286 340 406
#     4  12  27  44  67  94 141 191 228 278 354 415
#     4   9  20  45  69  93 134 184 222 277 353 409
#     4  10  24  41  71  99 137 174 231 296 333 409
#     4   9  20  42  71 102 134 177 228 283 344 412
#     4  10  23  40  70 100 128 177 232 274 351 408
#     4  12  28  44  64 104 140 178 238 290 342 408
#
# _framework density 21.717676999999998
#
# number of rings (size 3 to 8) (size 9 to 14) (size 15 to 20)
#    0.000    1.846    1.538    0.923   10.769    2.462 
#    0.000    3.077    0.000    0.000    0.000    0.000 
#    0.000    0.000    0.000    0.000    0.000    0.000 
#
# Total GULP energy -144787.205444 kJ/mol
# GULP energy per Si atom -5568.738671 kJ/mol
# Density = 2.166825 g / cm^3
# Si number density = 21.717677 Si / 1000 Ang^3
#
#
#
# Elastic Constant Matrix: (Units=GPa)
#
#
# Indices 1 2 3 4 5 6 
#
# 1 140.7599 99.7716 47.4085 0.0000 31.6707 0.0001
# 2 99.7716 119.0858 60.1499 0.0001 26.1860 -0.0001
# 3 47.4085 60.1499 96.3420 -0.0001 23.5675 0.0001
# 4 0.0000 0.0001 -0.0001 22.0394 0.0000 6.8995
# 5 31.6707 26.1860 23.5675 0.0000 45.0233 0.0000
# 6 0.0001 -0.0001 0.0001 6.8995 0.0000 42.6679
#
#
#
# Elastic Compliance Matrix: (Units=1/GPa)
#
#
# Indices 1 2 3 4 5 6 
#
# 1 0.018426 -0.015156 0.001617 0.000000 -0.004993 0.000000
# 2 -0.015156 0.025258 -0.008402 0.000000 0.000369 0.000000
# 3 0.001617 -0.008402 0.015955 0.000000 -0.004603 0.000000
# 4 0.000000 0.000000 0.000000 0.047792 0.000000 -0.007728
# 5 -0.004993 0.000369 -0.004603 0.000000 0.027917 0.000000
# 6 0.000000 0.000000 0.000000 -0.007728 0.000000 0.024686
#
#
# Mechanical properties :
#
#
# Convention : Reuss Voigt Hill
#
# Bulk Modulus (GPa) = 63.46278 85.64977 74.55628
# Shear Modulus (GPa) = 23.90395 31.86998 27.88697
#
# Velocity S-wave (km/s) = 3.32123 3.83491 3.58728
# Velocity P-wave (km/s) = 6.63269 7.68974 7.18069
#
# Compressibility (1/GPa) = 0.01575727
#
# Stress axis : x y z
#
# Youngs Moduli (GPa) = 54.27105 39.59140 62.67470
#
# Poissons Ratio (x) = 0.60006 -0.10133
# Poissons Ratio (y) = 0.82255 0.52656
# Poissons Ratio (z) = -0.08775 0.33263
#
# Static dielectric constant tensor:
#      x y z
#    x 1.928420 0.000000 -0.162810 
#    y 0.000000 1.833290 0.000000 
#    z -0.162810 0.000000 2.155200 
# 
# From -- ./inp_files/247757.got.cif
#   From: 2010.05.17/outbox.cif.g08.bks.cpg/sg15_124_cif.got.tgz:247757.got - 2010.06.03 18:47:42.
