data_PCOD9291433
_publ_section_title
;
Structure prediction by ZEFSAII (Michael W. Deem and Ramdas Pophale) SiO2 
 PCOD9291433
Probable space group: C 2/C
;
_chemical_formula_sum "Si O2"
_cell_formula_units_Z 60
_cell_length_a 21.779830
_cell_length_b 7.668928
_cell_length_c 25.432421
_cell_angle_alpha 90.000000
_cell_angle_beta 141.382662
_cell_angle_gamma 90.000000
_cell_volume 2651.198275
_symmetry_space_group_name_H-M "C 2/C"
_symmetry_group_IT_number 15
_symmetry_cell_setting 'monoclinic'
loop_
_space_group_symop_operation_xyz
x,y,z
-x,y,1/2-z
-x,-y,-z
x,-y,1/2+z
1/2+x,1/2+y,z
1/2-x,1/2+y,1/2-z
1/2-x,1/2-y,-z
1/2+x,1/2-y,1/2+z
loop_
_atom_site_type_symbol
_atom_site_label
_atom_site_fract_x
_atom_site_fract_y
_atom_site_fract_z
Si Si1 0.865024 0.722371 0.219174
Si Si2 0.651369 0.324231 0.411747
Si Si3 0.499156 0.677462 0.607913
Si Si4 0.132963 0.768894 0.912962
Si Si5 0.000000 0.452576 0.250000
Si Si6 0.696295 0.617307 0.187196
Si Si7 0.475236 0.707125 0.054036
Si Si8 0.641747 0.782494 0.626834
O O1 0.847819 0.788911 0.149254
O O2 0.941015 0.565958 0.254524
O O3 0.767888 0.672313 0.186959
O O4 0.917886 0.863614 0.292318
O O5 0.750000 0.250000 0.500000
O O6 0.581126 0.240249 0.408612
O O7 0.623526 0.525579 0.397547
O O8 0.464165 0.506741 0.552486
O O9 0.549146 0.816496 0.603093
O O10 0.085773 0.660595 0.834223
O O11 0.067379 0.724282 0.919838
O O12 0.250000 0.750000 0.000000
O O13 0.593260 0.724282 0.123313
O O14 0.666539 0.419998 0.154829
O O15 0.762912 0.622925 0.285074
O O16 0.403972 0.785652 0.961630
#
# Coordination Sequence:
#
# PCOD9291433 Si02
#       8
#     8   8   8   8   4   8   8   8
#     4  11  23  41  70 100 129 181 230 285 342 415
#     4  11  23  39  69  95 135 178 236 280 334 420
#     4   9  19  39  65  94 122 167 234 265 333 402
#     4  11  28  45  64 107 139 186 230 282 365 417
#     4  12  26  44  74  96 152 178 216 308 352 410
#     4  10  23  41  70  99 130 175 233 280 348 419
#     4  10  23  43  71  93 137 181 224 288 348 415
#     4  10  22  42  67  96 132 175 227 285 347 411
#
# _framework density 22.631277000000001
#
# number of rings (size 3 to 8) (size 9 to 14) (size 15 to 20)
#    0.000    1.600    1.333    2.400   13.067    0.000 
#    4.800    0.667    0.000    0.000    0.000    0.000 
#    0.000    0.000    0.000    0.000    0.000    0.000 
#
# Total GULP energy -167172.597522 kJ/mol
# GULP energy per Si atom -5572.419917 kJ/mol
# Density = 2.257977 g / cm^3
# Si number density = 22.631277 Si / 1000 Ang^3
#
#
#
# Elastic Constant Matrix: (Units=GPa)
#
#
# Indices 1 2 3 4 5 6 
#
# 1 155.3911 28.3705 59.8194 0.0000 21.1471 0.0000
# 2 28.3705 41.8618 30.7938 0.0000 -1.7775 0.0001
# 3 59.8194 30.7938 127.7395 0.0000 -7.9805 0.0000
# 4 0.0000 0.0000 0.0000 39.7153 0.0000 2.1136
# 5 21.1471 -1.7775 -7.9805 0.0000 41.3024 0.0000
# 6 0.0000 0.0001 0.0000 2.1136 0.0000 22.5124
#
#
#
# Elastic Compliance Matrix: (Units=1/GPa)
#
#
# Indices 1 2 3 4 5 6 
#
# 1 0.009379 -0.003775 -0.003839 0.000000 -0.005706 0.000000
# 2 -0.003775 0.030557 -0.005462 0.000000 0.002193 0.000000
# 3 -0.003839 -0.005462 0.011186 0.000000 0.003892 0.000000
# 4 0.000000 0.000000 0.000000 0.025306 0.000000 -0.002376
# 5 -0.005706 0.002193 0.003892 0.000000 0.027980 0.000000
# 6 0.000000 0.000000 0.000000 -0.002376 0.000000 0.044643
#
#
# Mechanical properties :
#
#
# Convention : Reuss Voigt Hill
#
# Bulk Modulus (GPa) = 40.04532 62.55109 51.29821
# Shear Modulus (GPa) = 27.24442 34.43991 30.84217
#
# Velocity S-wave (km/s) = 3.47340 3.90524 3.69563
# Velocity P-wave (km/s) = 5.81542 6.93064 6.39738
#
# Compressibility (1/GPa) = 0.02497170
#
# Stress axis : x y z
#
# Youngs Moduli (GPa) = 106.62360 32.72558 89.39970
#
# Poissons Ratio (x) = 0.12353 0.34316
# Poissons Ratio (y) = 0.40249 0.48827
# Poissons Ratio (z) = 0.40928 0.17873
#
# Static dielectric constant tensor:
#      x y z
#    x 1.825580 0.000000 -0.219900 
#    y 0.000000 1.740530 0.000000 
#    z -0.219900 0.000000 1.786240 
# 
# From -- ./inp_files/279713.got.cif
#   From: 2010.05.17/outbox.cif.g08.bks.cpg/sg15_140_cif.got.tgz:279713.got - 2010.06.03 18:47:42.
