data_PCOD9291059
_publ_section_title
;
Structure prediction by ZEFSAII (Michael W. Deem and Ramdas Pophale) SiO2 
 PCOD9291059
Probable space group: C 2/C
;
_chemical_formula_sum "Si O2"
_cell_formula_units_Z 44
_cell_length_a 7.982991
_cell_length_b 26.661461
_cell_length_c 12.407218
_cell_angle_alpha 90.000000
_cell_angle_beta 54.408796
_cell_angle_gamma 90.000000
_cell_volume 2147.415530
_symmetry_space_group_name_H-M "C 2/C"
_symmetry_group_IT_number 15
_symmetry_cell_setting 'monoclinic'
loop_
_space_group_symop_operation_xyz
x,y,z
-x,y,1/2-z
-x,-y,-z
x,-y,1/2+z
1/2+x,1/2+y,z
1/2-x,1/2+y,1/2-z
1/2-x,1/2-y,-z
1/2+x,1/2-y,1/2+z
loop_
_atom_site_type_symbol
_atom_site_label
_atom_site_fract_x
_atom_site_fract_y
_atom_site_fract_z
Si Si1 0.214753 0.893512 0.441706
Si Si2 0.196994 0.295015 0.600016
Si Si3 0.769297 0.907679 0.511789
Si Si4 0.097191 0.206184 0.095090
Si Si5 0.143342 0.429822 0.324392
Si Si6 0.000000 0.481824 0.750000
O O1 0.206920 0.845821 0.522710
O O2 0.393868 0.926842 0.430141
O O3 0.294468 0.887622 0.287514
O O4 0.982265 0.911099 0.500685
O O5 0.250000 0.250000 0.500000
O O6 0.187862 0.350208 0.549593
O O7 0.396465 0.295487 0.598224
O O8 0.000000 0.286464 0.750000
O O9 0.769060 0.922664 0.385948
O O10 0.613696 0.946022 0.624579
O O11 0.000000 0.210759 0.250000
O O12 0.250000 0.250000 0.000000
O O13 0.161203 0.482350 0.253827
#
# Coordination Sequence:
#
# PCOD9291059 Si02
#       6
#     8   8   8   8   8   4
#     4   9  23  41  60  96 128 169 231 270 342 408
#     4  11  25  43  65  99 131 178 229 273 339 412
#     4  11  22  42  69  89 139 176 221 284 340 404
#     4  11  25  40  66  95 133 180 224 286 344 401
#     4  10  23  40  68  94 132 177 221 288 343 398
#     4  10  22  42  64 104 130 176 236 276 348 408
#
# _framework density 20.489746
#
# number of rings (size 3 to 8) (size 9 to 14) (size 15 to 20)
#    0.000    1.818    0.909    2.182    7.636    5.818 
#    0.000    3.636    0.000    0.000    0.000    0.000 
#    0.000    0.000    0.000    0.000    0.000    0.000 
#
# Total GULP energy -122517.519444 kJ/mol
# GULP energy per Si atom -5568.978157 kJ/mol
# Density = 2.044311 g / cm^3
# Si number density = 20.489746 Si / 1000 Ang^3
#
#
#
# Elastic Constant Matrix: (Units=GPa)
#
#
# Indices 1 2 3 4 5 6 
#
# 1 35.1875 16.4498 5.4848 0.0000 4.4505 0.0000
# 2 16.4498 109.0278 62.0678 0.0000 9.4735 0.0000
# 3 5.4848 62.0678 118.3192 0.0000 6.7862 0.0000
# 4 0.0000 0.0000 0.0000 43.1436 0.0000 3.8775
# 5 4.4505 9.4735 6.7862 0.0000 38.3937 0.0000
# 6 0.0000 0.0000 0.0000 3.8775 0.0000 30.1413
#
#
#
# Elastic Compliance Matrix: (Units=1/GPa)
#
#
# Indices 1 2 3 4 5 6 
#
# 1 0.030988 -0.005303 0.001492 0.000000 -0.002547 0.000000
# 2 -0.005303 0.014144 -0.007081 0.000000 -0.001624 0.000000
# 3 0.001492 -0.007081 0.012130 0.000000 -0.000570 0.000000
# 4 0.000000 0.000000 0.000000 0.023450 0.000000 -0.003017
# 5 -0.002547 -0.001624 -0.000570 0.000000 0.026843 0.000000
# 6 0.000000 0.000000 0.000000 -0.003017 0.000000 0.033565
#
#
# Mechanical properties :
#
#
# Convention : Reuss Voigt Hill
#
# Bulk Modulus (GPa) = 28.18724 47.83769 38.01246
# Shear Modulus (GPa) = 28.61566 34.23785 31.42675
#
# Velocity S-wave (km/s) = 3.74114 4.09219 3.92060
# Velocity P-wave (km/s) = 5.69633 6.76209 6.25196
#
# Compressibility (1/GPa) = 0.03547705
#
# Stress axis : x y z
#
# Youngs Moduli (GPa) = 32.27058 70.70062 82.44254
#
# Poissons Ratio (x) = 0.37494 -0.12297
# Poissons Ratio (y) = 0.17114 0.58376
# Poissons Ratio (z) = -0.04813 0.50061
#
# Static dielectric constant tensor:
#      x y z
#    x 1.749450 0.000000 -0.053950 
#    y 0.000000 0.862550 0.000000 
#    z -0.053950 0.000000 1.801820 
# 
# From -- ./inp_files/81068.got.cif
#   From: 2010.05.17/outbox.cif.g08.bks.cpg/sg15_41_cif.got.tgz:81068.got - 2010.06.03 18:47:42.
