data_PCOD9291835
_publ_section_title
;
Structure prediction by ZEFSAII (Michael W. Deem and Ramdas Pophale) SiO2 
 PCOD9291835
Probable space group: C 2/C
;
_chemical_formula_sum "Si O2"
_cell_formula_units_Z 56
_cell_length_a 7.519940
_cell_length_b 27.313517
_cell_length_c 13.992260
_cell_angle_alpha 90.000000
_cell_angle_beta 55.741942
_cell_angle_gamma 90.000000
_cell_volume 2375.353711
_symmetry_space_group_name_H-M "C 2/C"
_symmetry_group_IT_number 15
_symmetry_cell_setting 'monoclinic'
loop_
_space_group_symop_operation_xyz
x,y,z
-x,y,1/2-z
-x,-y,-z
x,-y,1/2+z
1/2+x,1/2+y,z
1/2-x,1/2+y,1/2-z
1/2-x,1/2-y,-z
1/2+x,1/2-y,1/2+z
loop_
_atom_site_type_symbol
_atom_site_label
_atom_site_fract_x
_atom_site_fract_y
_atom_site_fract_z
Si Si1 0.767499 0.676883 0.582848
Si Si2 0.614518 0.021245 0.316365
Si Si3 0.593390 0.932028 0.439200
Si Si4 0.722500 0.696926 0.809014
Si Si5 0.793614 0.303419 0.627052
Si Si6 0.754330 0.882781 0.700403
Si Si7 0.802979 0.126603 0.519180
O O1 0.819125 0.695528 0.674000
O O2 0.534200 0.695299 0.627073
O O3 0.778681 0.618125 0.587076
O O4 0.946596 0.693722 0.454241
O O5 0.500000 0.011051 0.250000
O O6 0.449239 0.042884 0.445544
O O7 0.777334 0.065896 0.249600
O O8 0.698285 0.971354 0.337050
O O9 0.359339 0.916021 0.465995
O O10 0.774390 0.747675 0.844611
O O11 0.766914 0.649283 0.859129
O O12 0.717079 0.336460 0.738767
O O13 0.728801 0.330825 0.550131
O O14 0.500000 0.881890 0.750000
O O15 0.941102 0.883767 0.564506
#
# Coordination Sequence:
#
# PCOD9291835 Si02
#       7
#     8   8   8   8   8   8   8
#     4  10  23  44  64  95 136 179 226 269 337 407
#     4  10  22  42  72  96 127 183 224 270 356 393
#     4  10  23  45  68  99 140 170 227 292 332 411
#     4  11  25  39  65  97 134 183 224 266 342 409
#     4  11  23  41  65  95 135 174 222 284 324 400
#     4  11  23  42  69  97 133 174 225 281 335 403
#     4  11  24  42  66 100 135 172 227 283 339 399
#
# _framework density 23.575434999999999
#
# number of rings (size 3 to 8) (size 9 to 14) (size 15 to 20)
#    0.000    1.429    2.857    2.143    8.000    1.714 
#    5.143    8.571    0.000    0.000    0.000    0.000 
#    0.000    0.000    0.000    0.000    0.000    0.000 
#
# Total GULP energy -156611.692596 kJ/mol
# GULP energy per Si atom -5593.274736 kJ/mol
# Density = 2.352178 g / cm^3
# Si number density = 23.575435 Si / 1000 Ang^3
#
#
#
# Elastic Constant Matrix: (Units=GPa)
#
#
# Indices 1 2 3 4 5 6 
#
# 1 88.5388 6.2878 15.0430 0.0000 -16.4410 0.0000
# 2 6.2878 119.0694 22.7231 0.0000 1.9807 0.0000
# 3 15.0430 22.7231 75.6579 0.0000 -8.6334 0.0000
# 4 0.0000 0.0000 0.0000 -20.2646 0.0000 4.5354
# 5 -16.4410 1.9807 -8.6334 0.0000 46.2421 0.0000
# 6 0.0000 0.0000 0.0000 4.5354 0.0000 10.8969
#
#
#
# Elastic Compliance Matrix: (Units=1/GPa)
#
#
# Indices 1 2 3 4 5 6 
#
# 1 0.012397 -0.000361 -0.001892 0.000000 0.004070 0.000000
# 2 -0.000361 0.008956 -0.002735 0.000000 -0.001023 0.000000
# 3 -0.001892 -0.002735 0.014664 0.000000 0.002182 0.000000
# 4 0.000000 0.000000 0.000000 -0.045142 0.000000 0.018789
# 5 0.004070 -0.001023 0.002182 0.000000 0.023524 0.000000
# 6 0.000000 0.000000 0.000000 0.018789 0.000000 0.083949
#
#
# Mechanical properties :
#
#
# Convention : Reuss Voigt Hill
#
# Bulk Modulus (GPa) = 38.40026 41.26376 39.83201
# Shear Modulus (GPa) = 42.73317 23.32237 33.02777
#
# Velocity S-wave (km/s) = 4.26210 3.14867 3.74697
# Velocity P-wave (km/s) = 6.36744 5.54614 5.97093
#
# Compressibility (1/GPa) = 0.02604149
#
# Stress axis : x y z
#
# Youngs Moduli (GPa) = 80.66218 111.65118 68.19435
#
# Poissons Ratio (x) = 0.04034 0.12902
# Poissons Ratio (y) = 0.02914 0.18650
# Poissons Ratio (z) = 0.15261 0.30535
#
# Static dielectric constant tensor:
#      x y z
#    x 1.978640 0.000000 -0.009170 
#    y 0.000000 1.860200 0.000000 
#    z -0.009170 0.000000 1.880940 
# 
# From -- ./inp_files/139443.got.cif
#   From: 2010.05.17/outbox.cif.g08.bks.cpg/sg15_70_cif.got.tgz:139443.got - 2010.06.03 18:47:42.
