data_PCOD9291675
_publ_section_title
;
Structure prediction by ZEFSAII (Michael W. Deem and Ramdas Pophale) SiO2 
 PCOD9291675
Probable space group: C 2/C
;
_chemical_formula_sum "Si O2"
_cell_formula_units_Z 36
_cell_length_a 11.295630
_cell_length_b 24.761129
_cell_length_c 5.763760
_cell_angle_alpha 90.000000
_cell_angle_beta 81.240627
_cell_angle_gamma 90.000000
_cell_volume 1593.278417
_symmetry_space_group_name_H-M "C 2/C"
_symmetry_group_IT_number 15
_symmetry_cell_setting 'monoclinic'
loop_
_space_group_symop_operation_xyz
x,y,z
-x,y,1/2-z
-x,-y,-z
x,-y,1/2+z
1/2+x,1/2+y,z
1/2-x,1/2+y,1/2-z
1/2-x,1/2-y,-z
1/2+x,1/2-y,1/2+z
loop_
_atom_site_type_symbol
_atom_site_label
_atom_site_fract_x
_atom_site_fract_y
_atom_site_fract_z
Si Si1 0.233084 0.469090 0.060625
Si Si2 0.843456 0.679137 0.534979
Si Si3 0.500000 0.099257 0.750000
Si Si4 0.316414 0.713940 0.294095
Si Si5 0.385078 0.631165 0.620506
O O1 0.237962 0.502473 0.305020
O O2 0.342376 0.426792 0.043303
O O3 0.107279 0.437019 0.119521
O O4 0.791622 0.681377 0.294306
O O5 0.870662 0.741257 0.602415
O O6 0.728261 0.655547 0.705939
O O7 0.949120 0.639075 0.566916
O O8 0.250000 0.750000 0.500000
O O9 0.398098 0.672517 0.405817
O O10 0.500000 0.628874 0.750000
#
# Coordination Sequence:
#
# PCOD9291675 Si02
#       5
#     8   8   4   8   8
#     4  11  26  48  70 100 133 175 232 288 345 397
#     4   9  20  38  61  96 132 171 217 265 337 404
#     4  10  22  42  70 102 128 180 214 286 338 408
#     4   9  19  38  60  93 135 170 214 269 328 403
#     4  10  23  40  64  93 127 176 221 276 333 400
#
# _framework density 22.594923000000001
#
# number of rings (size 3 to 8) (size 9 to 14) (size 15 to 20)
#    0.000    2.222    0.000    0.667    6.222    7.111 
#    8.000    0.000    0.000    0.000    0.000    0.000 
#    0.000    0.000    0.000    0.000    0.000    0.000 
#
# Total GULP energy -100528.742185 kJ/mol
# GULP energy per Si atom -5584.930121 kJ/mol
# Density = 2.254350 g / cm^3
# Si number density = 22.594923 Si / 1000 Ang^3
#
#
#
# Elastic Constant Matrix: (Units=GPa)
#
#
# Indices 1 2 3 4 5 6 
#
# 1 111.2975 70.8004 56.4597 0.0000 29.5513 0.0000
# 2 70.8004 122.1213 52.5257 0.0000 21.8440 0.0000
# 3 56.4597 52.5257 118.0385 0.0000 20.9940 0.0000
# 4 0.0000 0.0000 0.0000 10.9043 0.0000 32.9596
# 5 29.5513 21.8440 20.9940 0.0000 32.4681 0.0000
# 6 0.0000 0.0000 0.0000 32.9596 0.0000 25.3899
#
#
#
# Elastic Compliance Matrix: (Units=1/GPa)
#
#
# Indices 1 2 3 4 5 6 
#
# 1 0.017786 -0.007089 -0.003754 0.000000 -0.008992 0.000000
# 2 -0.007089 0.013542 -0.002444 0.000000 -0.001079 0.000000
# 3 -0.003754 -0.002444 0.011813 0.000000 -0.002578 0.000000
# 4 0.000000 0.000000 0.000000 -0.031366 0.000000 0.040717
# 5 -0.008992 -0.001079 -0.002578 0.000000 0.041376 0.000000
# 6 0.000000 0.000000 0.000000 0.040717 0.000000 -0.013471
#
#
# Mechanical properties :
#
#
# Convention : Reuss Voigt Hill
#
# Bulk Modulus (GPa) = 60.35171 79.00323 69.67747
# Shear Modulus (GPa) = 69.66101 25.19723 47.42912
#
# Velocity S-wave (km/s) = 5.55854 3.34304 4.58657
# Velocity P-wave (km/s) = 8.24407 7.06698 7.67811
#
# Compressibility (1/GPa) = 0.01656954
#
# Stress axis : x y z
#
# Youngs Moduli (GPa) = 56.22427 73.84273 84.65140
#
# Poissons Ratio (x) = 0.52344 0.31776
# Poissons Ratio (y) = 0.39855 0.20686
# Poissons Ratio (z) = 0.21105 0.18044
#
# Static dielectric constant tensor:
#      x y z
#    x 2.013370 0.000000 -0.126880 
#    y 0.000000 1.868810 0.000000 
#    z -0.126880 0.000000 1.966050 
# 
# From -- ./inp_files/4263.got.cif
#   From: 2010.05.17/outbox.cif.g08.bks.cpg/sg15_3_cif.got.tgz:4263.got - 2010.06.03 18:47:42.
