data_PCOD9291732
_publ_section_title
;
Structure prediction by ZEFSAII (Michael W. Deem and Ramdas Pophale) SiO2 
 PCOD9291732
Probable space group: C 2/C
;
_chemical_formula_sum "Si O2"
_cell_formula_units_Z 48
_cell_length_a 11.001179
_cell_length_b 19.829168
_cell_length_c 11.074072
_cell_angle_alpha 90.000000
_cell_angle_beta 83.827894
_cell_angle_gamma 90.000000
_cell_volume 2401.741825
_symmetry_space_group_name_H-M "C 2/C"
_symmetry_group_IT_number 15
_symmetry_cell_setting 'monoclinic'
loop_
_space_group_symop_operation_xyz
x,y,z
-x,y,1/2-z
-x,-y,-z
x,-y,1/2+z
1/2+x,1/2+y,z
1/2-x,1/2+y,1/2-z
1/2-x,1/2-y,-z
1/2+x,1/2-y,1/2+z
loop_
_atom_site_type_symbol
_atom_site_label
_atom_site_fract_x
_atom_site_fract_y
_atom_site_fract_z
Si Si1 0.000000 0.216640 0.250000
Si Si2 0.689036 0.584350 0.829027
Si Si3 0.701285 0.848484 0.562279
Si Si4 0.579147 0.992471 0.618130
Si Si5 0.274181 0.784368 0.186728
Si Si6 0.521026 0.609696 0.453856
Si Si7 0.500000 0.501756 0.250000
O O1 0.880851 0.260368 0.260457
O O2 0.989511 0.171098 0.369159
O O3 0.805623 0.545247 0.876394
O O4 0.710544 0.655823 0.763977
O O5 0.626212 0.538905 0.731849
O O6 0.579549 0.597342 0.934885
O O7 0.629446 0.915176 0.609867
O O8 0.663333 0.816128 0.439404
O O9 0.703539 0.784093 0.653208
O O10 0.840810 0.873080 0.524024
O O11 0.500000 0.001401 0.750000
O O12 0.500000 0.000000 0.500000
O O13 0.517632 0.546082 0.366282
#
# Coordination Sequence:
#
# PCOD9291732 Si02
#       7
#     4   8   8   8   8   8   4
#     4   9  22  42  64  90 135 172 218 276 351 402
#     4  12  25  39  72 103 130 172 238 286 343 406
#     4  10  22  48  66  93 139 179 226 278 349 400
#     4  12  29  46  70 103 146 191 226 278 354 433
#     4  10  23  41  66  96 134 178 221 285 339 416
#     4  10  22  42  70  97 121 169 228 298 335 390
#     4  11  22  40  68  98 133 160 226 300 345 388
#
# _framework density 19.985493999999999
#
# number of rings (size 3 to 8) (size 9 to 14) (size 15 to 20)
#    0.000    1.333    1.667    2.500    8.167    0.667 
#   10.500    0.000    0.000    0.000    0.000    0.000 
#    0.000    0.000    0.000    0.000    0.000    0.000 
#
# Total GULP energy -133795.329528 kJ/mol
# GULP energy per Si atom -5574.805397 kJ/mol
# Density = 1.994001 g / cm^3
# Si number density = 19.985494 Si / 1000 Ang^3
#
#
#
# Elastic Constant Matrix: (Units=GPa)
#
#
# Indices 1 2 3 4 5 6 
#
# 1 77.7645 49.0319 21.8242 0.0000 8.9111 0.0000
# 2 49.0319 135.5810 30.0043 0.0000 -10.8110 0.0000
# 3 21.8242 30.0043 50.4543 0.0000 0.4297 0.0000
# 4 0.0000 0.0000 0.0000 -10.9732 0.0000 -9.9774
# 5 8.9111 -10.8110 0.4297 0.0000 27.9417 0.0000
# 6 0.0000 0.0000 0.0000 -9.9774 0.0000 47.3669
#
#
#
# Elastic Compliance Matrix: (Units=1/GPa)
#
#
# Indices 1 2 3 4 5 6 
#
# 1 0.019294 -0.006725 -0.004273 0.000000 -0.008690 0.000000
# 2 -0.006725 0.011166 -0.003787 0.000000 0.006523 0.000000
# 3 -0.004273 -0.003787 0.023924 0.000000 -0.000470 0.000000
# 4 0.000000 0.000000 0.000000 -0.076483 0.000000 -0.016110
# 5 -0.008690 0.006523 -0.000470 0.000000 0.041091 0.000000
# 6 0.000000 0.000000 0.000000 -0.016110 0.000000 0.017718
#
#
# Mechanical properties :
#
#
# Convention : Reuss Voigt Hill
#
# Bulk Modulus (GPa) = 40.29747 51.72452 46.01099
# Shear Modulus (GPa) = 67.06723 23.72969 45.39846
#
# Velocity S-wave (km/s) = 5.79921 3.44953 4.77127
# Velocity P-wave (km/s) = 8.06525 6.46551 7.30928
#
# Compressibility (1/GPa) = 0.02481546
#
# Stress axis : x y z
#
# Youngs Moduli (GPa) = 51.82840 89.55833 41.79903
#
# Poissons Ratio (x) = 0.60229 0.17859
# Poissons Ratio (y) = 0.34855 0.15828
# Poissons Ratio (z) = 0.22144 0.33914
#
# Static dielectric constant tensor:
#      x y z
#    x 1.385250 0.000000 0.195750 
#    y 0.000000 1.863910 0.000000 
#    z 0.195750 0.000000 1.598160 
# 
# From -- ./inp_files/87406.got.cif
#   From: 2010.05.17/outbox.cif.g08.bks.cpg/sg15_44_cif.got.tgz:87406.got - 2010.06.03 18:47:42.
