data_PCOD9291608
_publ_section_title
;
Structure prediction by ZEFSAII (Michael W. Deem and Ramdas Pophale) SiO2 
 PCOD9291608
Probable space group: C 2/C
;
_chemical_formula_sum "Si O2"
_cell_formula_units_Z 40
_cell_length_a 9.666898
_cell_length_b 20.242055
_cell_length_c 11.997466
_cell_angle_alpha 90.000000
_cell_angle_beta 133.753466
_cell_angle_gamma 90.000000
_cell_volume 1695.751401
_symmetry_space_group_name_H-M "C 2/C"
_symmetry_group_IT_number 15
_symmetry_cell_setting 'monoclinic'
loop_
_space_group_symop_operation_xyz
x,y,z
-x,y,1/2-z
-x,-y,-z
x,-y,1/2+z
1/2+x,1/2+y,z
1/2-x,1/2+y,1/2-z
1/2-x,1/2-y,-z
1/2+x,1/2-y,1/2+z
loop_
_atom_site_type_symbol
_atom_site_label
_atom_site_fract_x
_atom_site_fract_y
_atom_site_fract_z
Si Si1 0.516522 0.716079 0.124439
Si Si2 0.603137 0.166364 0.104854
Si Si3 0.313665 0.028882 0.458370
Si Si4 0.793571 0.111529 0.639943
Si Si5 0.708621 0.882692 0.352762
O O1 0.500000 0.715423 0.250000
O O2 0.741861 0.701333 0.229525
O O3 0.443218 0.780774 0.018625
O O4 0.382236 0.659085 0.999127
O O5 0.708627 0.099167 0.118828
O O6 0.389827 0.144156 0.023333
O O7 0.314833 0.051905 0.586590
O O8 0.500000 0.000000 0.500000
O O9 0.184719 0.963831 0.388081
O O10 0.739701 0.107402 0.740143
O O11 0.000000 0.146061 0.750000
O O12 0.500000 0.850276 0.250000
#
# Coordination Sequence:
#
# PCOD9291608 Si02
#       5
#     8   8   8   8   8
#     4  12  24  40  74 109 144 180 242 306 355 424
#     4  11  24  41  67 105 145 179 233 297 362 414
#     4  10  22  42  69 102 147 175 233 298 352 426
#     4  11  26  48  70 102 147 192 241 299 353 431
#     4  12  23  45  74 105 140 188 241 290 368 418
#
# _framework density 23.588363999999999
#
# number of rings (size 3 to 8) (size 9 to 14) (size 15 to 20)
#    0.000    0.800    6.000    1.800    5.600    0.800 
#    0.000    5.000    0.000    0.000    0.000    0.000 
#    0.000    0.000    0.000    0.000    0.000    0.000 
#
# Total GULP energy -111567.228313 kJ/mol
# GULP energy per Si atom -5578.361416 kJ/mol
# Density = 2.353468 g / cm^3
# Si number density = 23.588364 Si / 1000 Ang^3
#
#
#
# Elastic Constant Matrix: (Units=GPa)
#
#
# Indices 1 2 3 4 5 6 
#
# 1 69.0045 5.9488 29.6865 0.0000 16.9035 0.0000
# 2 5.9488 107.0343 63.2458 0.0000 3.0460 0.0000
# 3 29.6865 63.2458 163.8118 0.0000 40.3985 0.0000
# 4 0.0000 0.0000 0.0000 22.8945 0.0000 -2.0754
# 5 16.9035 3.0460 40.3985 0.0000 47.9399 0.0000
# 6 0.0000 0.0000 0.0000 -2.0754 0.0000 16.4918
#
#
#
# Elastic Compliance Matrix: (Units=1/GPa)
#
#
# Indices 1 2 3 4 5 6 
#
# 1 0.016357 0.000489 -0.002175 0.000000 -0.003966 0.000000
# 2 0.000489 0.012759 -0.006024 0.000000 0.004093 0.000000
# 3 -0.002175 -0.006024 0.010782 0.000000 -0.007936 0.000000
# 4 0.000000 0.000000 0.000000 0.044183 0.000000 0.005560
# 5 -0.003966 0.004093 -0.007936 0.000000 0.028685 0.000000
# 6 0.000000 0.000000 0.000000 0.005560 0.000000 0.061336
#
#
# Mechanical properties :
#
#
# Convention : Reuss Voigt Hill
#
# Bulk Modulus (GPa) = 40.85489 59.73476 50.29483
# Shear Modulus (GPa) = 25.29338 33.52987 29.41163
#
# Velocity S-wave (km/s) = 3.27812 3.77431 3.53494
# Velocity P-wave (km/s) = 5.62900 6.66129 6.16678
#
# Compressibility (1/GPa) = 0.02447688
#
# Stress axis : x y z
#
# Youngs Moduli (GPa) = 61.13670 78.37771 92.74979
#
# Poissons Ratio (x) = -0.03833 0.20174
# Poissons Ratio (y) = -0.02990 0.55873
# Poissons Ratio (z) = 0.13298 0.47215
#
# Static dielectric constant tensor:
#      x y z
#    x 1.955910 0.000000 0.079030 
#    y 0.000000 1.966960 0.000000 
#    z 0.079030 0.000000 1.942680 
# 
# From -- ./inp_files/145883.got.cif
#   From: 2010.05.17/outbox.cif.g08.bks.cpg/sg15_73_cif.got.tgz:145883.got - 2010.06.03 18:47:42.
