data_PCOD9291085
_publ_section_title
;
Structure prediction by ZEFSAII (Michael W. Deem and Ramdas Pophale) SiO2 
 PCOD9291085
Probable space group: C 2/C
;
_chemical_formula_sum "Si O2"
_cell_formula_units_Z 40
_cell_length_a 8.512970
_cell_length_b 13.926760
_cell_length_c 22.138576
_cell_angle_alpha 90.000000
_cell_angle_beta 48.088655
_cell_angle_gamma 90.000000
_cell_volume 1953.252821
_symmetry_space_group_name_H-M "C 2/C"
_symmetry_group_IT_number 15
_symmetry_cell_setting 'monoclinic'
loop_
_space_group_symop_operation_xyz
x,y,z
-x,y,1/2-z
-x,-y,-z
x,-y,1/2+z
1/2+x,1/2+y,z
1/2-x,1/2+y,1/2-z
1/2-x,1/2-y,-z
1/2+x,1/2-y,1/2+z
loop_
_atom_site_type_symbol
_atom_site_label
_atom_site_fract_x
_atom_site_fract_y
_atom_site_fract_z
Si Si1 0.519319 0.059461 0.055481
Si Si2 0.484309 0.592842 0.576293
Si Si3 0.399001 0.718980 0.841053
Si Si4 0.897818 0.548837 0.340594
Si Si5 0.574430 0.233194 0.495107
O O1 0.471363 0.014785 0.133461
O O2 0.398122 0.156097 0.066485
O O3 0.770434 0.071679 0.996464
O O4 0.500000 0.000000 0.000000
O O5 0.481744 0.653405 0.639807
O O6 0.330845 0.501865 0.608257
O O7 0.433305 0.666438 0.536710
O O8 0.500000 0.697670 0.750000
O O9 0.409468 0.835201 0.846160
O O10 0.147864 0.703420 0.916467
O O11 0.000000 0.526649 0.250000
O O12 0.750000 0.250000 0.500000
#
# Coordination Sequence:
#
# PCOD9291085 Si02
#       5
#     8   8   8   8   8
#     4  11  22  39  65  94 124 164 218 264 310 392
#     4  11  22  41  64  87 126 165 212 257 320 382
#     4  10  22  42  64  90 132 167 204 271 329 378
#     4  11  23  40  66  93 130 169 211 266 333 380
#     4  11  22  39  65  94 122 169 219 256 321 387
#
# _framework density 20.478660999999999
#
# number of rings (size 3 to 8) (size 9 to 14) (size 15 to 20)
#    0.000    1.200    4.000    3.000    2.800    4.800 
#    0.000    0.000    0.000    0.000    0.000    0.000 
#    0.000    0.000    0.000    0.000    0.000    0.000 
#
# Total GULP energy -111378.094287 kJ/mol
# GULP energy per Si atom -5568.904714 kJ/mol
# Density = 2.043205 g / cm^3
# Si number density = 20.478661 Si / 1000 Ang^3
#
#
#
# Elastic Constant Matrix: (Units=GPa)
#
#
# Indices 1 2 3 4 5 6 
#
# 1 162.7959 38.4398 47.0858 0.0001 44.3340 -0.0001
# 2 38.4398 71.8818 13.7527 0.0001 17.2319 -0.0001
# 3 47.0858 13.7527 106.5258 0.0001 45.2555 -0.0002
# 4 0.0001 0.0001 0.0001 25.5631 -0.0001 8.9843
# 5 44.3340 17.2319 45.2555 -0.0001 34.2740 0.0001
# 6 -0.0001 -0.0001 -0.0002 8.9843 0.0001 40.5877
#
#
#
# Elastic Compliance Matrix: (Units=1/GPa)
#
#
# Indices 1 2 3 4 5 6 
#
# 1 0.010052 -0.002280 0.002023 0.000000 -0.014527 0.000000
# 2 -0.002280 0.016781 0.002671 0.000000 -0.009014 0.000000
# 3 0.002023 0.002671 0.022390 0.000000 -0.033524 0.000000
# 4 0.000000 0.000000 0.000000 0.042419 0.000001 -0.009390
# 5 -0.014527 -0.009014 -0.033524 0.000001 0.096765 -0.000001
# 6 0.000000 0.000000 0.000000 -0.009390 -0.000001 0.026716
#
#
# Mechanical properties :
#
#
# Convention : Reuss Voigt Hill
#
# Bulk Modulus (GPa) = 18.50108 59.97335 39.23721
# Shear Modulus (GPa) = 21.89977 36.21332 29.05654
#
# Velocity S-wave (km/s) = 3.27371 4.20973 3.77087
# Velocity P-wave (km/s) = 4.83151 7.27863 6.17746
#
# Compressibility (1/GPa) = 0.05405091
#
# Stress axis : x y z
#
# Youngs Moduli (GPa) = 99.48140 59.59128 44.66210
#
# Poissons Ratio (x) = 0.13587 -0.09034
# Poissons Ratio (y) = 0.22682 -0.11929
# Poissons Ratio (z) = -0.20123 -0.15917
#
# Static dielectric constant tensor:
#      x y z
#    x 1.660240 0.000000 0.020590 
#    y 0.000000 1.825690 0.000000 
#    z 0.020590 0.000000 1.798140 
# 
# From -- ./inp_files/133267.got.cif
#   From: 2010.05.17/outbox.cif.g08.bks.cpg/sg15_67_cif.got.tgz:133267.got - 2010.06.03 18:47:42.
