data_PCOD9291395
_publ_section_title
;
Structure prediction by ZEFSAII (Michael W. Deem and Ramdas Pophale) SiO2 
 PCOD9291395
Probable space group: C 2/C
;
_chemical_formula_sum "Si O2"
_cell_formula_units_Z 36
_cell_length_a 23.086544
_cell_length_b 14.930211
_cell_length_c 15.391116
_cell_angle_alpha 90.000000
_cell_angle_beta 161.656997
_cell_angle_gamma 90.000000
_cell_volume 1669.546655
_symmetry_space_group_name_H-M "C 2/C"
_symmetry_group_IT_number 15
_symmetry_cell_setting 'monoclinic'
loop_
_space_group_symop_operation_xyz
x,y,z
-x,y,1/2-z
-x,-y,-z
x,-y,1/2+z
1/2+x,1/2+y,z
1/2-x,1/2+y,1/2-z
1/2-x,1/2-y,-z
1/2+x,1/2-y,1/2+z
loop_
_atom_site_type_symbol
_atom_site_label
_atom_site_fract_x
_atom_site_fract_y
_atom_site_fract_z
Si Si1 0.841858 0.534106 0.836339
Si Si2 0.941911 0.789554 0.840878
Si Si3 0.695550 0.851681 0.639747
Si Si4 0.652916 0.202358 0.541031
Si Si5 0.000000 0.099281 0.250000
O O1 0.807418 0.457967 0.860033
O O2 0.891635 0.630192 0.947654
O O3 0.663777 0.542796 0.523197
O O4 0.000000 0.500000 0.000000
O O5 0.767034 0.810518 0.650970
O O6 0.936366 0.842900 0.742626
O O7 0.000821 0.689734 0.894656
O O8 0.127508 0.818180 0.159838
O O9 0.835683 0.803813 0.907180
O O10 0.500000 0.193341 0.250000
#
# Coordination Sequence:
#
# PCOD9291395 Si02
#       5
#     8   8   8   8   4
#     4  11  24  42  64  97 129 171 218 266 322 387
#     4   9  22  42  63  94 126 169 215 263 325 380
#     4  10  22  42  67  90 129 171 214 266 324 379
#     4   9  22  40  59  94 127 161 220 268 311 389
#     4  10  24  42  64  92 136 162 222 268 318 394
#
# _framework density 21.562740000000002
#
# number of rings (size 3 to 8) (size 9 to 14) (size 15 to 20)
#    1.333    0.889    0.000    1.333    1.556    8.889 
#    2.000    0.000    0.000    0.000    0.000    0.000 
#    0.000    0.000    0.000    0.000    0.000    0.000 
#
# Total GULP energy -100272.261225 kJ/mol
# GULP energy per Si atom -5570.681179 kJ/mol
# Density = 2.151366 g / cm^3
# Si number density = 21.562740 Si / 1000 Ang^3
#
#
#
# Elastic Constant Matrix: (Units=GPa)
#
#
# Indices 1 2 3 4 5 6 
#
# 1 78.8573 -3.6514 27.9845 0.0000 1.1694 0.0000
# 2 -3.6514 53.1217 6.6676 0.0000 -0.0716 0.0000
# 3 27.9845 6.6676 110.0543 0.0000 -18.5053 0.0000
# 4 0.0000 0.0000 0.0000 7.5456 0.0000 -2.6776
# 5 1.1694 -0.0716 -18.5053 0.0000 16.0097 0.0000
# 6 0.0000 0.0000 0.0000 -2.6776 0.0000 28.9905
#
#
#
# Elastic Compliance Matrix: (Units=1/GPa)
#
#
# Indices 1 2 3 4 5 6 
#
# 1 0.014615 0.001618 -0.004956 0.000000 -0.006789 0.000000
# 2 0.001618 0.019179 -0.001960 0.000000 -0.002297 0.000000
# 3 -0.004956 -0.001960 0.013064 0.000000 0.015453 0.000000
# 4 0.000000 0.000000 0.000000 0.137018 0.000000 0.012655
# 5 -0.006789 -0.002297 0.015453 0.000000 0.080810 0.000000
# 6 0.000000 0.000000 0.000000 0.012655 0.000000 0.035663
#
#
# Mechanical properties :
#
#
# Convention : Reuss Voigt Hill
#
# Bulk Modulus (GPa) = 27.57701 33.78162 30.67931
# Shear Modulus (GPa) = 15.47832 24.57800 20.02816
#
# Velocity S-wave (km/s) = 2.68214 3.37981 3.05098
# Velocity P-wave (km/s) = 4.73379 5.56161 5.16431
#
# Compressibility (1/GPa) = 0.03626209
#
# Stress axis : x y z
#
# Youngs Moduli (GPa) = 68.42083 52.14113 76.54754
#
# Poissons Ratio (x) = -0.08434 0.37936
# Poissons Ratio (y) = -0.11067 0.15000
# Poissons Ratio (z) = 0.33909 0.10217
#
# Static dielectric constant tensor:
#      x y z
#    x 1.809680 0.000000 0.016400 
#    y 0.000000 1.793190 0.000000 
#    z 0.016400 0.000000 1.783950 
# 
# From -- ./inp_files/173747.got.cif
#   From: 2010.05.17/outbox.cif.g08.bks.cpg/sg15_87_cif.got.tgz:173747.got - 2010.06.03 18:47:42.
