data_PCOD9291816
_publ_section_title
;
Structure prediction by ZEFSAII (Michael W. Deem and Ramdas Pophale) SiO2 
 PCOD9291816
Probable space group: C 2/C
;
_chemical_formula_sum "Si O2"
_cell_formula_units_Z 60
_cell_length_a 23.681431
_cell_length_b 13.916050
_cell_length_c 20.537091
_cell_angle_alpha 90.000000
_cell_angle_beta 22.230587
_cell_angle_gamma 90.000000
_cell_volume 2560.586042
_symmetry_space_group_name_H-M "C 2/C"
_symmetry_group_IT_number 15
_symmetry_cell_setting 'monoclinic'
loop_
_space_group_symop_operation_xyz
x,y,z
-x,y,1/2-z
-x,-y,-z
x,-y,1/2+z
1/2+x,1/2+y,z
1/2-x,1/2+y,1/2-z
1/2-x,1/2-y,-z
1/2+x,1/2-y,1/2+z
loop_
_atom_site_type_symbol
_atom_site_label
_atom_site_fract_x
_atom_site_fract_y
_atom_site_fract_z
Si Si1 0.140489 0.306811 0.068698
Si Si2 0.830592 0.376559 0.191362
Si Si3 0.500000 0.540280 0.750000
Si Si4 0.600850 0.622204 0.037663
Si Si5 0.324832 0.578822 0.268371
Si Si6 0.665398 0.108843 0.312154
Si Si7 0.631928 0.317606 0.018732
Si Si8 0.811416 0.149029 0.790999
O O1 0.062591 0.223810 0.109341
O O2 0.000000 0.361056 0.250000
O O3 0.250000 0.250000 0.000000
O O4 0.243215 0.374103 0.916438
O O5 0.766299 0.362908 0.332577
O O6 0.836743 0.492777 0.180844
O O7 0.729627 0.331508 0.241390
O O8 0.001195 0.347884 0.996352
O O9 0.448727 0.462014 0.859943
O O10 0.378919 0.621923 0.902834
O O11 0.500690 0.596463 0.082650
O O12 0.263571 0.631075 0.270336
O O13 0.297746 0.465910 0.306227
O O14 0.743485 0.136499 0.161797
O O15 0.472982 0.327324 0.150109
O O16 0.686916 0.207934 0.964226
#
# Coordination Sequence:
#
# PCOD9291816 Si02
#       8
#     8   8   4   8   8   8   8   8
#     4  12  26  45  70 107 148 189 243 291 362 455
#     4  10  22  42  73 107 142 182 237 314 365 428
#     4  12  24  46  76 100 146 202 248 296 366 450
#     4  12  23  46  74 105 140 197 240 291 374 440
#     4  11  24  47  71 108 148 194 242 307 378 429
#     4  10  22  42  72 109 143 183 243 306 370 424
#     4  12  25  46  73 107 148 196 255 301 367 453
#     4  11  25  47  72 106 145 193 244 309 366 434
#
# _framework density 23.432137000000001
#
# number of rings (size 3 to 8) (size 9 to 14) (size 15 to 20)
#    0.000    0.800    4.667    1.600    3.733    2.667 
#    1.200    0.000    0.000    0.000    0.000    0.000 
#    0.000    0.000    0.000    0.000    0.000    0.000 
#
# Total GULP energy -167296.354648 kJ/mol
# GULP energy per Si atom -5576.545155 kJ/mol
# Density = 2.337880 g / cm^3
# Si number density = 23.432137 Si / 1000 Ang^3
#
#
#
# Elastic Constant Matrix: (Units=GPa)
#
#
# Indices 1 2 3 4 5 6 
#
# 1 48.7479 12.4489 28.1917 -0.0003 -7.7687 -0.0001
# 2 12.4489 100.0512 20.0266 -0.0008 -5.4258 0.0001
# 3 28.1917 20.0266 150.1471 -0.0009 11.5607 0.0003
# 4 -0.0003 -0.0008 -0.0009 47.9650 0.0009 5.3783
# 5 -7.7687 -5.4258 11.5607 0.0009 25.5361 -0.0003
# 6 -0.0001 0.0001 0.0003 5.3783 -0.0003 25.5327
#
#
#
# Elastic Compliance Matrix: (Units=1/GPa)
#
#
# Indices 1 2 3 4 5 6 
#
# 1 0.025586 -0.001576 -0.005354 0.000000 0.009873 0.000000
# 2 -0.001576 0.010578 -0.001296 0.000000 0.002355 0.000000
# 3 -0.005354 -0.001296 0.008273 0.000000 -0.005650 0.000000
# 4 0.000000 0.000000 0.000000 0.021353 -0.000001 -0.004498
# 5 0.009873 0.002355 -0.005650 -0.000001 0.045222 0.000001
# 6 0.000000 0.000000 0.000000 -0.004498 0.000001 0.040113
#
#
# Mechanical properties :
#
#
# Convention : Reuss Voigt Hill
#
# Bulk Modulus (GPa) = 35.73451 46.69784 41.21618
# Shear Modulus (GPa) = 28.26354 35.69202 31.97778
#
# Velocity S-wave (km/s) = 3.47679 3.90706 3.69819
# Velocity P-wave (km/s) = 5.60364 6.35026 5.98859
#
# Compressibility (1/GPa) = 0.02798415
#
# Stress axis : x y z
#
# Youngs Moduli (GPa) = 39.08404 94.53411 120.87099
#
# Poissons Ratio (x) = 0.14903 0.64713
# Poissons Ratio (y) = 0.06161 0.15668
# Poissons Ratio (z) = 0.20925 0.12254
#
# Static dielectric constant tensor:
#      x y z
#    x 2.012500 0.000000 0.039380 
#    y 0.000000 1.907040 0.000000 
#    z 0.039380 0.000000 1.942140 
# 
# From -- ./inp_files/257844.got.cif
#   From: 2010.05.17/outbox.cif.g08.bks.cpg/sg15_129_cif.got.tgz:257844.got - 2010.06.03 18:47:42.
