data_PCOD9291591
_publ_section_title
;
Structure prediction by ZEFSAII (Michael W. Deem and Ramdas Pophale) SiO2 
 PCOD9291591
Probable space group: C 2/C
;
_chemical_formula_sum "Si O2"
_cell_formula_units_Z 32
_cell_length_a 9.054393
_cell_length_b 12.840231
_cell_length_c 24.434970
_cell_angle_alpha 90.000000
_cell_angle_beta 152.197980
_cell_angle_gamma 90.000000
_cell_volume 1325.009917
_symmetry_space_group_name_H-M "C 2/C"
_symmetry_group_IT_number 15
_symmetry_cell_setting 'monoclinic'
loop_
_space_group_symop_operation_xyz
x,y,z
-x,y,1/2-z
-x,-y,-z
x,-y,1/2+z
1/2+x,1/2+y,z
1/2-x,1/2+y,1/2-z
1/2-x,1/2-y,-z
1/2+x,1/2-y,1/2+z
loop_
_atom_site_type_symbol
_atom_site_label
_atom_site_fract_x
_atom_site_fract_y
_atom_site_fract_z
Si Si1 0.957090 0.097957 0.852482
Si Si2 0.842834 0.297935 0.639943
Si Si3 0.544606 0.602860 0.203174
Si Si4 0.781373 0.336134 0.106551
O O1 0.875084 0.122767 0.888352
O O2 0.616086 0.107346 0.709587
O O3 0.167263 0.190221 0.896877
O O4 0.077728 0.983546 0.878945
O O5 0.491927 0.344244 0.527880
O O6 0.000000 0.280479 0.750000
O O7 0.087601 0.372039 0.688546
O O8 0.500000 0.563281 0.250000
O O9 0.377529 0.715120 0.144485
#
# Coordination Sequence:
#
# PCOD9291591 Si02
#       4
#     8   8   8   8
#     4  10  22  42  69 101 131 180 230 273 346 403
#     4  11  24  43  66  98 139 181 227 281 335 403
#     4  11  23  43  68 102 137 177 228 276 344 405
#     4  10  22  46  67  97 145 176 219 292 336 395
#
# _framework density 24.150762
#
# number of rings (size 3 to 8) (size 9 to 14) (size 15 to 20)
#    0.000    1.500    5.000    1.500    3.500    6.000 
#    4.500    0.000    0.000    0.000    0.000    0.000 
#    0.000    0.000    0.000    0.000    0.000    0.000 
#
# Total GULP energy -89562.783386 kJ/mol
# GULP energy per Si atom -5597.673962 kJ/mol
# Density = 2.409579 g / cm^3
# Si number density = 24.150762 Si / 1000 Ang^3
#
#
#
# Elastic Constant Matrix: (Units=GPa)
#
#
# Indices 1 2 3 4 5 6 
#
# 1 56.3019 32.0312 -9.0552 -0.0004 3.8593 -0.0003
# 2 32.0312 141.7984 -21.5913 0.0000 -12.1804 0.0000
# 3 -9.0552 -21.5913 78.6660 -0.0016 11.7453 -0.0009
# 4 -0.0004 0.0000 -0.0016 -16.7310 0.0003 -21.7029
# 5 3.8593 -12.1804 11.7453 0.0003 18.2146 0.0002
# 6 -0.0003 0.0000 -0.0009 -21.7029 0.0002 24.5637
#
#
#
# Elastic Compliance Matrix: (Units=1/GPa)
#
#
# Indices 1 2 3 4 5 6 
#
# 1 0.021927 -0.005420 0.002513 -0.000001 -0.009891 0.000000
# 2 -0.005420 0.008973 0.000854 0.000000 0.006599 0.000000
# 3 0.002513 0.000854 0.014639 -0.000001 -0.009401 0.000000
# 4 -0.000001 0.000000 -0.000001 -0.027850 0.000002 -0.024607
# 5 -0.009891 0.006599 -0.009401 0.000002 0.067472 0.000000
# 6 0.000000 0.000000 0.000000 -0.024607 0.000000 0.018970
#
#
# Mechanical properties :
#
#
# Convention : Reuss Voigt Hill
#
# Bulk Modulus (GPa) = 24.13502 31.05954 27.59728
# Shear Modulus (GPa) = 40.96730 23.56823 32.26777
#
# Velocity S-wave (km/s) = 4.12310 3.12730 3.65923
# Velocity P-wave (km/s) = 5.71680 5.09201 5.41343
#
# Compressibility (1/GPa) = 0.04143358
#
# Stress axis : x y z
#
# Youngs Moduli (GPa) = 45.60541 111.43972 68.30936
#
# Poissons Ratio (x) = 0.60402 -0.17167
# Poissons Ratio (y) = 0.24719 -0.05832
# Poissons Ratio (z) = -0.11461 -0.09515
#
# Static dielectric constant tensor:
#      x y z
#    x 1.890020 0.000000 -0.010480 
#    y 0.000000 1.940910 0.000000 
#    z -0.010480 0.000000 1.952900 
# 
# From -- ./inp_files/75536.got.cif
#   From: 2010.05.17/outbox.cif.g08.bks.cpg/sg15_38_cif.got.tgz:75536.got - 2010.06.03 18:47:42.
