data_PCOD9291552
_publ_section_title
;
Structure prediction by ZEFSAII (Michael W. Deem and Ramdas Pophale) SiO2 
 PCOD9291552
Probable space group: C 2/C
;
_chemical_formula_sum "Si O2"
_cell_formula_units_Z 48
_cell_length_a 29.426780
_cell_length_b 4.941968
_cell_length_c 14.258985
_cell_angle_alpha 90.000000
_cell_angle_beta 73.836514
_cell_angle_gamma 90.000000
_cell_volume 1991.662153
_symmetry_space_group_name_H-M "C 2/C"
_symmetry_group_IT_number 15
_symmetry_cell_setting 'monoclinic'
loop_
_space_group_symop_operation_xyz
x,y,z
-x,y,1/2-z
-x,-y,-z
x,-y,1/2+z
1/2+x,1/2+y,z
1/2-x,1/2+y,1/2-z
1/2-x,1/2-y,-z
1/2+x,1/2-y,1/2+z
loop_
_atom_site_type_symbol
_atom_site_label
_atom_site_fract_x
_atom_site_fract_y
_atom_site_fract_z
Si Si1 0.955824 0.688174 0.002196
Si Si2 0.478939 0.472926 0.169940
Si Si3 0.611553 0.617832 0.187698
Si Si4 0.690086 0.673521 0.759949
Si Si5 0.628221 0.109030 0.056868
Si Si6 0.790266 0.678378 0.630976
O O1 0.911636 0.521885 0.988186
O O2 0.948566 0.824978 0.107145
O O3 0.978516 0.889816 0.912064
O O4 0.000000 0.500000 0.000000
O O5 0.500000 0.319447 0.250000
O O6 0.440404 0.668192 0.239798
O O7 0.644300 0.460281 0.242028
O O8 0.631279 0.901649 0.141253
O O9 0.612221 0.403525 0.101056
O O10 0.733950 0.635446 0.662776
O O11 0.702237 0.486770 0.842328
O O12 0.689878 0.977484 0.799098
O O13 0.678437 0.123867 0.977291
#
# Coordination Sequence:
#
# PCOD9291552 Si02
#       6
#     8   8   8   8   8   8
#     4  11  26  41  70  94 132 183 223 284 344 398
#     4  11  24  45  65  97 133 175 229 281 337 407
#     4  12  26  42  68  98 138 176 226 285 339 406
#     4  10  22  42  68  98 131 184 221 282 342 395
#     4  12  26  43  66 102 135 177 228 282 342 407
#     4  10  22  42  68  96 137 174 232 276 337 414
#
# _framework density 24.100470999999999
#
# number of rings (size 3 to 8) (size 9 to 14) (size 15 to 20)
#    0.000    1.000    1.667    4.000    7.000    2.000 
#    0.000    0.000    0.000    0.000    0.000    0.000 
#    0.000    0.000    0.000    0.000    0.000    0.000 
#
# Total GULP energy -134215.526439 kJ/mol
# GULP energy per Si atom -5592.313602 kJ/mol
# Density = 2.404562 g / cm^3
# Si number density = 24.100471 Si / 1000 Ang^3
#
#
#
# Elastic Constant Matrix: (Units=GPa)
#
#
# Indices 1 2 3 4 5 6 
#
# 1 57.9517 -12.2955 24.0976 0.0000 -4.8111 0.0000
# 2 -12.2955 76.6646 16.2793 0.0000 -9.4055 0.0000
# 3 24.0976 16.2793 123.2824 0.0000 -28.2069 0.0000
# 4 0.0000 0.0000 0.0000 19.6188 0.0000 4.5608
# 5 -4.8111 -9.4055 -28.2069 0.0000 42.4590 0.0000
# 6 0.0000 0.0000 0.0000 4.5608 0.0000 31.0235
#
#
#
# Elastic Compliance Matrix: (Units=1/GPa)
#
#
# Indices 1 2 3 4 5 6 
#
# 1 0.019992 0.004173 -0.004397 0.000000 0.000268 0.000000
# 2 0.004173 0.014455 -0.002221 0.000000 0.002199 0.000000
# 3 -0.004397 -0.002221 0.010658 0.000000 0.006090 0.000000
# 4 0.000000 0.000000 0.000000 0.052775 0.000000 -0.007759
# 5 0.000268 0.002199 0.006090 0.000000 0.028115 0.000000
# 6 0.000000 0.000000 0.000000 -0.007759 0.000000 0.033374
#
#
# Mechanical properties :
#
#
# Convention : Reuss Voigt Hill
#
# Bulk Modulus (GPa) = 24.86761 34.89573 29.88167
# Shear Modulus (GPa) = 28.14292 33.94143 31.04217
#
# Velocity S-wave (km/s) = 3.42092 3.75684 3.59281
# Velocity P-wave (km/s) = 5.09355 5.77315 5.44396
#
# Compressibility (1/GPa) = 0.04021294
#
# Stress axis : x y z
#
# Youngs Moduli (GPa) = 50.02022 69.18233 93.82909
#
# Poissons Ratio (x) = -0.28870 0.41260
# Poissons Ratio (y) = -0.20873 0.20841
# Poissons Ratio (z) = 0.21996 0.15367
#
# Static dielectric constant tensor:
#      x y z
#    x 1.924850 0.000000 0.056200 
#    y 0.000000 1.917960 0.000000 
#    z 0.056200 0.000000 1.742510 
# 
# From -- ./inp_files/179795.got.cif
#   From: 2010.05.17/outbox.cif.g08.bks.cpg/sg15_90_cif.got.tgz:179795.got - 2010.06.03 18:47:42.
