data_PCOD9291774
_publ_section_title
;
Structure prediction by ZEFSAII (Michael W. Deem and Ramdas Pophale) SiO2 
 PCOD9291774
Probable space group: C 2/C
;
_chemical_formula_sum "Si O2"
_cell_formula_units_Z 40
_cell_length_a 29.244379
_cell_length_b 9.812990
_cell_length_c 9.610694
_cell_angle_alpha 90.000000
_cell_angle_beta 34.713588
_cell_angle_gamma 90.000000
_cell_volume 1570.625987
_symmetry_space_group_name_H-M "C 2/C"
_symmetry_group_IT_number 15
_symmetry_cell_setting 'monoclinic'
loop_
_space_group_symop_operation_xyz
x,y,z
-x,y,1/2-z
-x,-y,-z
x,-y,1/2+z
1/2+x,1/2+y,z
1/2-x,1/2+y,1/2-z
1/2-x,1/2-y,-z
1/2+x,1/2-y,1/2+z
loop_
_atom_site_type_symbol
_atom_site_label
_atom_site_fract_x
_atom_site_fract_y
_atom_site_fract_z
Si Si1 0.822215 0.947306 0.282444
Si Si2 0.139559 0.235977 0.174229
Si Si3 0.226140 0.432526 0.784337
Si Si4 0.029494 0.843762 0.453494
Si Si5 0.913755 0.627931 0.416890
O O1 0.845236 0.090991 0.295056
O O2 0.751503 0.901326 0.563522
O O3 0.793922 0.984813 0.199782
O O4 0.900542 0.854260 0.107342
O O5 0.130446 0.331894 0.330752
O O6 0.053815 0.233148 0.311021
O O7 0.210300 0.292237 0.903260
O O8 0.144539 0.518554 0.005758
O O9 0.067531 0.761362 0.226055
O O10 0.000000 0.000000 0.500000
O O11 0.000000 0.572396 0.250000
#
# Coordination Sequence:
#
# PCOD9291774 Si02
#       5
#     8   8   8   8   8
#     4  11  24  42  71  99 136 172 231 282 343 398
#     4  10  22  46  68  92 139 188 218 270 358 416
#     4  12  24  41  70 103 135 176 227 285 344 402
#     4   9  21  42  68  96 126 179 229 271 324 416
#     4  10  22  42  71  93 138 183 226 270 350 409
#
# _framework density 25.467552000000001
#
# number of rings (size 3 to 8) (size 9 to 14) (size 15 to 20)
#    0.000    1.600    2.000    1.800    2.800    5.600 
#    0.000    3.000    0.000    0.000    0.000    0.000 
#    0.000    0.000    0.000    0.000    0.000    0.000 
#
# Total GULP energy -111958.220036 kJ/mol
# GULP energy per Si atom -5597.911002 kJ/mol
# Density = 2.540959 g / cm^3
# Si number density = 25.467552 Si / 1000 Ang^3
#
#
#
# Elastic Constant Matrix: (Units=GPa)
#
#
# Indices 1 2 3 4 5 6 
#
# 1 129.9811 50.9849 15.7814 0.0000 -20.6738 0.0000
# 2 50.9849 64.5579 16.1538 0.0000 -4.8428 0.0000
# 3 15.7814 16.1538 53.0588 0.0000 13.0999 0.0000
# 4 0.0000 0.0000 0.0000 44.9618 0.0000 -4.9720
# 5 -20.6738 -4.8428 13.0999 0.0000 43.9875 0.0000
# 6 0.0000 0.0000 0.0000 -4.9720 0.0000 34.7877
#
#
#
# Elastic Compliance Matrix: (Units=1/GPa)
#
#
# Indices 1 2 3 4 5 6 
#
# 1 0.012261 -0.008678 -0.002366 0.000000 0.005512 0.000000
# 2 -0.008678 0.023465 -0.004527 0.000000 -0.000147 0.000000
# 3 -0.002366 -0.004527 0.023019 0.000000 -0.008465 0.000000
# 4 0.000000 0.000000 0.000000 0.022598 0.000000 0.003230
# 5 0.005512 -0.000147 -0.008465 0.000000 0.027829 0.000000
# 6 0.000000 0.000000 0.000000 0.003230 0.000000 0.029207
#
#
# Mechanical properties :
#
#
# Convention : Reuss Voigt Hill
#
# Bulk Modulus (GPa) = 36.22570 45.93757 41.08164
# Shear Modulus (GPa) = 27.97643 35.72592 31.85118
#
# Velocity S-wave (km/s) = 3.31798 3.74946 3.54030
# Velocity P-wave (km/s) = 5.37901 6.06807 5.73390
#
# Compressibility (1/GPa) = 0.02760471
#
# Stress axis : x y z
#
# Youngs Moduli (GPa) = 81.55784 42.61659 43.44267
#
# Poissons Ratio (x) = 0.36982 0.10277
# Poissons Ratio (y) = 0.70776 0.19665
# Poissons Ratio (z) = 0.19294 0.19291
#
# Static dielectric constant tensor:
#      x y z
#    x 2.019900 0.000000 -0.005990 
#    y 0.000000 2.009960 0.000000 
#    z -0.005990 0.000000 2.032570 
# 
# From -- ./inp_files/68945.got.cif
#   From: 2010.05.17/outbox.cif.g08.bks.cpg/sg15_35_cif.got.tgz:68945.got - 2010.06.03 18:47:42.
