data_PCOD9291911
_publ_section_title
;
Structure prediction by ZEFSAII (Michael W. Deem and Ramdas Pophale) SiO2 
 PCOD9291911
Probable space group: C 2/C
;
_chemical_formula_sum "Si O2"
_cell_formula_units_Z 48
_cell_length_a 15.241768
_cell_length_b 12.087474
_cell_length_c 22.361183
_cell_angle_alpha 90.000000
_cell_angle_beta 36.939162
_cell_angle_gamma 90.000000
_cell_volume 2475.802887
_symmetry_space_group_name_H-M "C 2/C"
_symmetry_group_IT_number 15
_symmetry_cell_setting 'monoclinic'
loop_
_space_group_symop_operation_xyz
x,y,z
-x,y,1/2-z
-x,-y,-z
x,-y,1/2+z
1/2+x,1/2+y,z
1/2-x,1/2+y,1/2-z
1/2-x,1/2-y,-z
1/2+x,1/2-y,1/2+z
loop_
_atom_site_type_symbol
_atom_site_label
_atom_site_fract_x
_atom_site_fract_y
_atom_site_fract_z
Si Si1 0.079641 0.740875 0.577790
Si Si2 0.686048 0.488607 0.323989
Si Si3 0.010442 0.843923 0.495572
Si Si4 0.004148 0.027537 0.319084
Si Si5 0.996623 0.515058 0.819530
Si Si6 0.213206 0.133862 0.490610
O O1 0.250000 0.750000 0.500000
O O2 0.011584 0.844246 0.651891
O O3 0.049623 0.752419 0.523112
O O4 0.025578 0.621715 0.627603
O O5 0.655456 0.378180 0.379477
O O6 0.557879 0.563398 0.422737
O O7 0.648921 0.482098 0.274324
O O8 0.845662 0.534457 0.249716
O O9 0.885237 0.836073 0.513646
O O10 0.000000 0.018214 0.250000
O O11 0.878430 0.950563 0.417459
O O12 0.000000 0.556077 0.750000
O O13 0.863380 0.429690 0.895036
O O14 0.250000 0.250000 0.500000
#
# Coordination Sequence:
#
# PCOD9291911 Si02
#       6
#     8   8   8   8   8   8
#     4  11  21  38  66  95 124 160 205 272 329 370
#     4   9  19  38  65  88 116 170 207 255 314 382
#     4   9  19  41  62  86 130 163 204 256 325 378
#     4  10  22  43  61  88 132 164 206 262 334 373
#     4  12  22  39  67  99 123 158 229 263 311 386
#     4  11  24  43  63  89 126 179 211 257 316 386
#
# _framework density 19.387651000000002
#
# number of rings (size 3 to 8) (size 9 to 14) (size 15 to 20)
#    0.000    1.667    3.333    2.500    0.000    2.000 
#   15.000    1.667    0.000    0.000    0.000    0.000 
#    0.000    0.000    0.000    0.000    0.000    0.000 
#
# Total GULP energy -133698.866738 kJ/mol
# GULP energy per Si atom -5570.786114 kJ/mol
# Density = 1.934352 g / cm^3
# Si number density = 19.387651 Si / 1000 Ang^3
#
#
#
# Elastic Constant Matrix: (Units=GPa)
#
#
# Indices 1 2 3 4 5 6 
#
# 1 160.8159 24.4745 62.2397 0.0000 22.2173 0.0000
# 2 24.4745 75.7050 12.1526 0.0000 12.5092 0.0000
# 3 62.2397 12.1526 56.5135 -0.0001 2.7091 0.0000
# 4 0.0000 0.0000 -0.0001 8.2655 0.0000 4.6024
# 5 22.2173 12.5092 2.7091 0.0000 43.9442 0.0000
# 6 0.0000 0.0000 0.0000 4.6024 0.0000 28.8625
#
#
#
# Elastic Compliance Matrix: (Units=1/GPa)
#
#
# Indices 1 2 3 4 5 6 
#
# 1 0.012000 -0.001006 -0.012760 0.000000 -0.004994 0.000000
# 2 -0.001006 0.014402 -0.001822 0.000000 -0.003479 0.000000
# 3 -0.012760 -0.001822 0.031900 0.000000 0.005003 0.000000
# 4 0.000000 0.000000 0.000000 0.132774 0.000000 -0.021172
# 5 -0.004994 -0.003479 0.005003 0.000000 0.025963 0.000000
# 6 0.000000 0.000000 0.000000 -0.021172 0.000000 0.038023
#
#
# Mechanical properties :
#
#
# Convention : Reuss Voigt Hill
#
# Bulk Modulus (GPa) = 36.86656 54.52977 45.69816
# Shear Modulus (GPa) = 16.93318 29.15895 23.04606
#
# Velocity S-wave (km/s) = 2.95854 3.88235 3.45149
# Velocity P-wave (km/s) = 5.54323 6.94866 6.28535
#
# Compressibility (1/GPa) = 0.02712485
#
# Stress axis : x y z
#
# Youngs Moduli (GPa) = 83.33570 69.43627 31.34837
#
# Poissons Ratio (x) = 0.06985 0.40000
# Poissons Ratio (y) = 0.08383 0.05713
# Poissons Ratio (z) = 1.06335 0.12654
#
# Static dielectric constant tensor:
#      x y z
#    x 1.725980 0.000000 -0.010450 
#    y 0.000000 1.730050 0.000000 
#    z -0.010450 0.000000 1.707480 
# 
# From -- ./inp_files/243930.got.cif
#   From: 2010.05.17/outbox.cif.g08.bks.cpg/sg15_122_cif.got.tgz:243930.got - 2010.06.03 18:47:42.
