data_PCOD9291327
_publ_section_title
;
Structure prediction by ZEFSAII (Michael W. Deem and Ramdas Pophale) SiO2 
 PCOD9291327
Probable space group: C 2/C
;
_chemical_formula_sum "Si O2"
_cell_formula_units_Z 52
_cell_length_a 16.335544
_cell_length_b 8.746089
_cell_length_c 18.359900
_cell_angle_alpha 90.000000
_cell_angle_beta 96.367393
_cell_angle_gamma 90.000000
_cell_volume 2606.936365
_symmetry_space_group_name_H-M "C 2/C"
_symmetry_group_IT_number 15
_symmetry_cell_setting 'monoclinic'
loop_
_space_group_symop_operation_xyz
x,y,z
-x,y,1/2-z
-x,-y,-z
x,-y,1/2+z
1/2+x,1/2+y,z
1/2-x,1/2+y,1/2-z
1/2-x,1/2-y,-z
1/2+x,1/2-y,1/2+z
loop_
_atom_site_type_symbol
_atom_site_label
_atom_site_fract_x
_atom_site_fract_y
_atom_site_fract_z
Si Si1 0.576827 0.010115 0.712702
Si Si2 0.720380 0.220861 0.777918
Si Si3 0.260066 0.575989 0.519424
Si Si4 0.190248 0.814083 0.058905
Si Si5 0.500000 0.703634 0.750000
Si Si6 0.415582 0.961542 0.952433
Si Si7 0.661077 0.447017 0.313819
O O1 0.500000 0.078060 0.750000
O O2 0.654833 0.084324 0.759536
O O3 0.557696 0.827838 0.714121
O O4 0.583081 0.037326 0.627447
O O5 0.765430 0.206930 0.859814
O O6 0.679395 0.389910 0.775854
O O7 0.785953 0.185158 0.721134
O O8 0.250000 0.750000 0.500000
O O9 0.312725 0.490237 0.462941
O O10 0.165374 0.521142 0.514657
O O11 0.304229 0.544570 0.600915
O O12 0.105811 0.719371 0.052568
O O13 0.250000 0.750000 0.000000
O O14 0.434828 0.600437 0.699915
O O15 0.500000 0.000000 0.000000
#
# Coordination Sequence:
#
# PCOD9291327 Si02
#       7
#     8   8   8   8   4   8   8
#     4  10  25  42  69 100 132 182 228 283 351 397
#     4  12  23  45  72  94 138 182 235 281 352 413
#     4  11  26  44  68 101 133 181 232 277 350 414
#     4  10  22  42  66  95 129 179 220 276 335 415
#     4  10  26  40  66 100 136 170 228 284 338 394
#     4  11  23  45  68 100 136 176 228 281 348 417
#     4  12  25  44  67 101 139 176 235 287 338 422
#
# _framework density 19.946784999999998
#
# number of rings (size 3 to 8) (size 9 to 14) (size 15 to 20)
#    0.462    0.615    4.615    1.846   11.846    0.000 
#    0.000    0.769    0.000    0.000    0.000    0.000 
#    0.000    0.000    0.000    0.000    0.000    0.000 
#
# Total GULP energy -144849.484925 kJ/mol
# GULP energy per Si atom -5571.134036 kJ/mol
# Density = 1.990138 g / cm^3
# Si number density = 19.946785 Si / 1000 Ang^3
#
#
#
# Elastic Constant Matrix: (Units=GPa)
#
#
# Indices 1 2 3 4 5 6 
#
# 1 131.9698 46.1891 33.2998 0.0000 34.5219 0.0000
# 2 46.1891 123.8339 24.1912 0.0000 16.7858 0.0000
# 3 33.2998 24.1912 63.1886 0.0000 23.5362 0.0000
# 4 0.0000 0.0000 0.0000 27.0743 0.0000 6.6648
# 5 34.5219 16.7858 23.5362 0.0000 35.9704 0.0000
# 6 0.0000 0.0000 0.0000 6.6648 0.0000 18.1490
#
#
#
# Elastic Compliance Matrix: (Units=1/GPa)
#
#
# Indices 1 2 3 4 5 6 
#
# 1 0.011125 -0.002685 -0.001751 0.000000 -0.008278 0.000000
# 2 -0.002685 0.009549 -0.002037 0.000000 -0.000546 0.000000
# 3 -0.001751 -0.002037 0.021881 0.000000 -0.011686 0.000000
# 4 0.000000 0.000000 0.000000 0.040606 0.000000 -0.014912
# 5 -0.008278 -0.000546 -0.011686 0.000000 0.043646 0.000000
# 6 0.000000 0.000000 0.000000 -0.014912 0.000000 0.060575
#
#
# Mechanical properties :
#
#
# Convention : Reuss Voigt Hill
#
# Bulk Modulus (GPa) = 33.77581 58.48360 46.12970
# Shear Modulus (GPa) = 23.78699 30.59288 27.18993
#
# Velocity S-wave (km/s) = 3.45704 3.92053 3.69606
# Velocity P-wave (km/s) = 5.73625 7.06240 6.43359
#
# Compressibility (1/GPa) = 0.02960699
#
# Stress axis : x y z
#
# Youngs Moduli (GPa) = 89.89136 104.72423 45.70127
#
# Poissons Ratio (x) = 0.28121 0.08004
# Poissons Ratio (y) = 0.24138 0.09311
# Poissons Ratio (z) = 0.15743 0.21335
#
# Static dielectric constant tensor:
#      x y z
#    x 1.676590 0.000000 -0.030890 
#    y 0.000000 2.060690 0.000000 
#    z -0.030890 0.000000 1.702230 
# 
# From -- ./inp_files/209181.got.cif
#   From: 2010.05.17/outbox.cif.g08.bks.cpg/sg15_105_cif.got.tgz:209181.got - 2010.06.03 18:47:42.
