data_PCOD9291366
_publ_section_title
;
Structure prediction by ZEFSAII (Michael W. Deem and Ramdas Pophale) SiO2 
 PCOD9291366
Probable space group: C 2/C
;
_chemical_formula_sum "Si O2"
_cell_formula_units_Z 48
_cell_length_a 12.478416
_cell_length_b 7.280009
_cell_length_c 25.691826
_cell_angle_alpha 90.000000
_cell_angle_beta 63.292085
_cell_angle_gamma 90.000000
_cell_volume 2084.914300
_symmetry_space_group_name_H-M "C 2/C"
_symmetry_group_IT_number 15
_symmetry_cell_setting 'monoclinic'
loop_
_space_group_symop_operation_xyz
x,y,z
-x,y,1/2-z
-x,-y,-z
x,-y,1/2+z
1/2+x,1/2+y,z
1/2-x,1/2+y,1/2-z
1/2-x,1/2-y,-z
1/2+x,1/2-y,1/2+z
loop_
_atom_site_type_symbol
_atom_site_label
_atom_site_fract_x
_atom_site_fract_y
_atom_site_fract_z
Si Si1 0.990542 0.509374 0.413430
Si Si2 0.202099 0.360503 0.310486
Si Si3 0.572118 0.483134 0.181328
Si Si4 0.344954 0.446234 0.176867
Si Si5 0.466440 0.285228 0.006184
Si Si6 0.285197 0.821606 0.398885
O O1 0.009404 0.330698 0.447082
O O2 0.872572 0.469871 0.405720
O O3 0.108752 0.510536 0.351587
O O4 0.983217 0.680549 0.453954
O O5 0.318271 0.360684 0.322093
O O6 0.250027 0.397569 0.242418
O O7 0.140045 0.165155 0.324449
O O8 0.500000 0.540303 0.250000
O O9 0.476664 0.380417 0.165649
O O10 0.633243 0.653055 0.138448
O O11 0.288459 0.394213 0.134674
O O12 0.322118 0.263724 0.039444
O O13 0.500000 0.500000 0.000000
#
# Coordination Sequence:
#
# PCOD9291366 Si02
#       6
#     8   8   8   8   8   8
#     4  11  25  46  72 104 139 186 237 292 353 412
#     4  11  22  44  67 100 141 183 233 283 345 421
#     4  10  22  42  66  98 139 182 224 275 340 418
#     4  11  24  41  67 103 142 182 229 281 356 422
#     4  11  26  48  73 102 136 185 244 291 347 415
#     4  12  24  44  73 100 141 183 225 300 350 415
#
# _framework density 23.022527
#
# number of rings (size 3 to 8) (size 9 to 14) (size 15 to 20)
#    0.000    1.000    3.333    3.500    0.000    2.000 
#    6.000    0.000    0.000    0.000    0.000    0.000 
#    0.000    0.000    0.000    0.000    0.000    0.000 
#
# Total GULP energy -134360.647842 kJ/mol
# GULP energy per Si atom -5598.360327 kJ/mol
# Density = 2.297013 g / cm^3
# Si number density = 23.022527 Si / 1000 Ang^3
#
#
#
# Elastic Constant Matrix: (Units=GPa)
#
#
# Indices 1 2 3 4 5 6 
#
# 1 141.5253 9.8433 32.5276 0.0000 14.1650 0.0000
# 2 9.8433 80.2447 4.1936 0.0000 10.8160 0.0000
# 3 32.5276 4.1936 70.6177 0.0000 -2.2013 0.0000
# 4 0.0000 0.0000 0.0000 21.1490 0.0000 7.8296
# 5 14.1650 10.8160 -2.2013 0.0000 41.9571 0.0000
# 6 0.0000 0.0000 0.0000 7.8296 0.0000 38.3134
#
#
#
# Elastic Compliance Matrix: (Units=1/GPa)
#
#
# Indices 1 2 3 4 5 6 
#
# 1 0.008275 -0.000423 -0.003877 0.000000 -0.002888 0.000000
# 2 -0.000423 0.012986 -0.000677 0.000000 -0.003240 0.000000
# 3 -0.003877 -0.000677 0.016059 0.000000 0.002326 0.000000
# 4 0.000000 0.000000 0.000000 0.051153 0.000000 -0.010453
# 5 -0.002888 -0.003240 0.002326 0.000000 0.025766 0.000000
# 6 0.000000 0.000000 0.000000 -0.010453 0.000000 0.028237
#
#
# Mechanical properties :
#
#
# Convention : Reuss Voigt Hill
#
# Bulk Modulus (GPa) = 36.54143 42.83520 39.68832
# Shear Modulus (GPa) = 30.94955 36.67212 33.81083
#
# Velocity S-wave (km/s) = 3.67047 3.99542 3.83639
# Velocity P-wave (km/s) = 5.81976 6.31907 6.07455
#
# Compressibility (1/GPa) = 0.02736620
#
# Stress axis : x y z
#
# Youngs Moduli (GPa) = 120.84042 77.00634 62.26990
#
# Poissons Ratio (x) = 0.03259 0.24140
# Poissons Ratio (y) = 0.05114 0.04217
# Poissons Ratio (z) = 0.46846 0.05215
#
# Static dielectric constant tensor:
#      x y z
#    x 1.826570 0.000000 0.004040 
#    y 0.000000 1.866190 0.000000 
#    z 0.004040 0.000000 1.873730 
# 
# From -- ./inp_files/291067.got.cif
#   From: 2010.05.17/outbox.cif.g08.bks.cpg/sg15_146_cif.got.tgz:291067.got - 2010.06.03 18:47:42.
