data_PCOD9291434
_publ_section_title
;
Structure prediction by ZEFSAII (Michael W. Deem and Ramdas Pophale) SiO2 
 PCOD9291434
Probable space group: C 2/C
;
_chemical_formula_sum "Si O2"
_cell_formula_units_Z 40
_cell_length_a 9.797600
_cell_length_b 21.646080
_cell_length_c 11.467970
_cell_angle_alpha 90.000000
_cell_angle_beta 135.263522
_cell_angle_gamma 90.000000
_cell_volume 1711.842628
_symmetry_space_group_name_H-M "C 2/C"
_symmetry_group_IT_number 15
_symmetry_cell_setting 'monoclinic'
loop_
_space_group_symop_operation_xyz
x,y,z
-x,y,1/2-z
-x,-y,-z
x,-y,1/2+z
1/2+x,1/2+y,z
1/2-x,1/2+y,1/2-z
1/2-x,1/2-y,-z
1/2+x,1/2-y,1/2+z
loop_
_atom_site_type_symbol
_atom_site_label
_atom_site_fract_x
_atom_site_fract_y
_atom_site_fract_z
Si Si1 0.366785 0.845276 0.885783
Si Si2 0.367969 0.768332 0.285641
Si Si3 0.684492 0.552470 0.441456
Si Si4 0.202033 0.418480 0.007269
Si Si5 0.403672 0.383415 0.370142
O O1 0.199953 0.801602 0.734475
O O2 0.287731 0.892321 0.934861
O O3 0.507105 0.797025 0.035399
O O4 0.496929 0.884573 0.877595
O O5 0.500000 0.769069 0.250000
O O6 0.188844 0.816063 0.164389
O O7 0.500000 0.535244 0.250000
O O8 0.809555 0.490644 0.528764
O O9 0.620517 0.576666 0.528248
O O10 0.275062 0.411795 0.186318
O O11 0.374986 0.387129 0.038780
#
# Coordination Sequence:
#
# PCOD9291434 Si02
#       5
#     8   8   8   8   8
#     4  11  25  41  68  99 131 178 227 273 336 386
#     4  11  22  42  68  94 135 173 228 280 320 398
#     4  12  23  40  71  99 135 172 223 275 331 404
#     4  10  23  44  66  97 137 174 218 277 335 399
#     4  10  22  42  67  96 133 176 215 276 339 381
#
# _framework density 23.366634000000001
#
# number of rings (size 3 to 8) (size 9 to 14) (size 15 to 20)
#    0.000    1.200    4.000    2.400    2.800    0.800 
#    0.000    1.000    0.000    0.000    0.000    0.000 
#    0.000    0.000    0.000    0.000    0.000    0.000 
#
# Total GULP energy -112051.993730 kJ/mol
# GULP energy per Si atom -5602.599686 kJ/mol
# Density = 2.331345 g / cm^3
# Si number density = 23.366634 Si / 1000 Ang^3
#
#
#
# Elastic Constant Matrix: (Units=GPa)
#
#
# Indices 1 2 3 4 5 6 
#
# 1 124.2544 71.7734 36.8474 0.0000 -18.8712 0.0000
# 2 71.7734 159.1984 29.8615 0.0000 0.0123 0.0000
# 3 36.8474 29.8615 64.3407 0.0000 -9.0712 0.0000
# 4 0.0000 0.0000 0.0000 976.7664 0.0000 316.6756
# 5 -18.8712 0.0123 -9.0712 0.0000 34.7765 0.0000
# 6 0.0000 0.0000 0.0000 316.6756 0.0000 155.3628
#
#
#
# Elastic Compliance Matrix: (Units=1/GPa)
#
#
# Indices 1 2 3 4 5 6 
#
# 1 0.013227 -0.005151 -0.004331 0.000000 0.006049 0.000000
# 2 -0.005151 0.008912 -0.001641 0.000000 -0.003226 0.000000
# 3 -0.004331 -0.001641 0.019158 0.000000 0.002647 0.000000
# 4 0.000000 0.000000 0.000000 0.003019 0.000000 -0.006153
# 5 0.006049 -0.003226 0.002647 0.000000 0.032729 0.000000
# 6 0.000000 0.000000 0.000000 -0.006153 0.000000 0.018978
#
#
# Mechanical properties :
#
#
# Convention : Reuss Voigt Hill
#
# Bulk Modulus (GPa) = 52.49509 69.41757 60.95633
# Shear Modulus (GPa) = 40.12262 247.33522 143.72892
#
# Velocity S-wave (km/s) = 4.14827 10.29949 7.85136
# Velocity P-wave (km/s) = 6.74232 13.08479 10.40843
#
# Compressibility (1/GPa) = 0.01904940
#
# Stress axis : x y z
#
# Youngs Moduli (GPa) = 75.60492 112.20954 52.19874
#
# Poissons Ratio (x) = 0.57801 0.22608
# Poissons Ratio (y) = 0.38945 0.08566
# Poissons Ratio (z) = 0.32746 0.18414
#
# Static dielectric constant tensor:
#      x y z
#    x 1.871010 0.000000 0.040250 
#    y 0.000000 1.853690 0.000000 
#    z 0.040250 0.000000 1.903280 
# 
# From -- ./inp_files/79528.got.cif
#   From: 2010.05.17/outbox.cif.g08.bks.cpg/sg15_40_cif.got.tgz:79528.got - 2010.06.03 18:47:42.
