data_PCOD9291021
_publ_section_title
;
Structure prediction by ZEFSAII (Michael W. Deem and Ramdas Pophale) SiO2 
 PCOD9291021
Probable space group: C 2/C
;
_chemical_formula_sum "Si O2"
_cell_formula_units_Z 56
_cell_length_a 27.704894
_cell_length_b 14.897993
_cell_length_c 14.988865
_cell_angle_alpha 90.000000
_cell_angle_beta 25.482629
_cell_angle_gamma 90.000000
_cell_volume 2661.712828
_symmetry_space_group_name_H-M "C 2/C"
_symmetry_group_IT_number 15
_symmetry_cell_setting 'monoclinic'
loop_
_space_group_symop_operation_xyz
x,y,z
-x,y,1/2-z
-x,-y,-z
x,-y,1/2+z
1/2+x,1/2+y,z
1/2-x,1/2+y,1/2-z
1/2-x,1/2-y,-z
1/2+x,1/2-y,1/2+z
loop_
_atom_site_type_symbol
_atom_site_label
_atom_site_fract_x
_atom_site_fract_y
_atom_site_fract_z
Si Si1 0.815193 0.401407 0.920656
Si Si2 0.972800 0.709562 0.038643
Si Si3 0.128645 0.880842 0.506432
Si Si4 0.623441 0.995939 0.512074
Si Si5 0.575911 0.412961 0.392662
Si Si6 0.339285 0.935507 0.249318
Si Si7 0.619766 0.816413 0.000756
O O1 0.886999 0.320008 0.760306
O O2 0.843709 0.417594 0.976191
O O3 0.854082 0.488780 0.799360
O O4 0.680027 0.400785 0.150075
O O5 0.988026 0.816786 0.005524
O O6 0.909358 0.678397 0.054792
O O7 0.087882 0.652815 0.850906
O O8 0.125047 0.920626 0.412209
O O9 0.207161 0.924430 0.449923
O O10 0.176332 0.779308 0.420870
O O11 0.000000 0.882117 0.750000
O O12 0.500000 0.018630 0.750000
O O13 0.683783 0.092872 0.421699
O O14 0.620729 0.967726 0.414706
O O15 0.500000 0.500000 0.500000
O O16 0.500000 0.807079 0.250000
#
# Coordination Sequence:
#
# PCOD9291021 Si02
#       7
#     8   8   8   8   8   8   8
#     4  12  23  40  68  98 135 172 214 274 333 387
#     4  11  23  41  66  99 129 171 221 271 329 388
#     4  10  22  42  63  89 131 170 217 264 325 388
#     4  11  20  36  63  95 129 161 217 267 330 379
#     4  11  25  45  66  92 134 178 219 267 328 396
#     4  12  22  39  67  98 129 168 219 272 323 390
#     4   9  19  37  60  90 128 168 208 269 322 387
#
# _framework density 21.039083999999999
#
# number of rings (size 3 to 8) (size 9 to 14) (size 15 to 20)
#    0.000    1.143    4.286    3.429    0.000    1.143 
#    0.000    7.857    6.286    0.000    0.000    0.000 
#    0.000    0.000    0.000    0.000    0.000    0.000 
#
# Total GULP energy -156083.550589 kJ/mol
# GULP energy per Si atom -5574.412521 kJ/mol
# Density = 2.099120 g / cm^3
# Si number density = 21.039084 Si / 1000 Ang^3
#
#
#
# Elastic Constant Matrix: (Units=GPa)
#
#
# Indices 1 2 3 4 5 6 
#
# 1 40.2062 10.5444 8.1706 0.0000 7.1484 0.0000
# 2 10.5444 83.5276 4.4874 0.0000 -5.6422 0.0000
# 3 8.1706 4.4874 68.5172 0.0000 3.7516 0.0000
# 4 0.0000 0.0000 0.0000 22.2887 0.0000 9.0972
# 5 7.1484 -5.6422 3.7516 0.0000 34.2976 0.0000
# 6 0.0000 0.0000 0.0000 9.0972 0.0000 -32.6006
#
#
#
# Elastic Compliance Matrix: (Units=1/GPa)
#
#
# Indices 1 2 3 4 5 6 
#
# 1 0.027474 -0.003731 -0.002701 0.000000 -0.006045 0.000000
# 2 -0.003731 0.012670 -0.000545 0.000000 0.002922 0.000000
# 3 -0.002701 -0.000545 0.015017 0.000000 -0.001169 0.000000
# 4 0.000000 0.000000 0.000000 0.040278 0.000000 0.011240
# 5 -0.006045 0.002922 -0.001169 0.000000 0.031025 0.000000
# 6 0.000000 0.000000 0.000000 0.011240 0.000000 -0.027538
#
#
# Mechanical properties :
#
#
# Convention : Reuss Voigt Hill
#
# Bulk Modulus (GPa) = 24.26827 26.51733 25.39280
# Shear Modulus (GPa) = 39.48969 16.06705 27.77837
#
# Velocity S-wave (km/s) = 4.33710 2.76647 3.63757
# Velocity P-wave (km/s) = 6.05314 4.77867 5.45326
#
# Compressibility (1/GPa) = 0.04120606
#
# Stress axis : x y z
#
# Youngs Moduli (GPa) = 36.39811 78.92801 66.59274
#
# Poissons Ratio (x) = 0.29452 0.17986
# Poissons Ratio (y) = 0.13582 0.03628
# Poissons Ratio (z) = 0.09831 0.04300
#
# Static dielectric constant tensor:
#      x y z
#    x 1.736000 0.000000 -0.008550 
#    y 0.000000 1.836130 0.000000 
#    z -0.008550 0.000000 1.807450 
# 
# From -- ./inp_files/178331.got.cif
#   From: 2010.05.17/outbox.cif.g08.bks.cpg/sg15_90_cif.got.tgz:178331.got - 2010.06.03 18:47:42.
