data_PCOD9291100
_publ_section_title
;
Structure prediction by ZEFSAII (Michael W. Deem and Ramdas Pophale) SiO2 
 PCOD9291100
Probable space group: C 2/C
;
_chemical_formula_sum "Si O2"
_cell_formula_units_Z 36
_cell_length_a 23.265605
_cell_length_b 7.874712
_cell_length_c 11.657479
_cell_angle_alpha 90.000000
_cell_angle_beta 40.809461
_cell_angle_gamma 90.000000
_cell_volume 1395.820470
_symmetry_space_group_name_H-M "C 2/C"
_symmetry_group_IT_number 15
_symmetry_cell_setting 'monoclinic'
loop_
_space_group_symop_operation_xyz
x,y,z
-x,y,1/2-z
-x,-y,-z
x,-y,1/2+z
1/2+x,1/2+y,z
1/2-x,1/2+y,1/2-z
1/2-x,1/2-y,-z
1/2+x,1/2-y,1/2+z
loop_
_atom_site_type_symbol
_atom_site_label
_atom_site_fract_x
_atom_site_fract_y
_atom_site_fract_z
Si Si1 0.818250 0.983755 0.975996
Si Si2 0.402927 0.785203 0.962530
Si Si3 0.309546 0.894887 0.522000
Si Si4 0.500000 0.362008 0.750000
Si Si5 0.464007 0.827901 0.106133
O O1 0.788636 0.804174 0.079869
O O2 0.923198 0.964103 0.808116
O O3 0.825055 0.160153 0.033468
O O4 0.770468 0.981728 0.926473
O O5 0.500000 0.801453 0.750000
O O6 0.354574 0.968621 0.037110
O O7 0.431152 0.724406 0.046264
O O8 0.383086 0.872842 0.310742
O O9 0.467810 0.255870 0.908264
O O10 0.500000 0.000000 0.000000
#
# Coordination Sequence:
#
# PCOD9291100 Si02
#       5
#     8   8   8   4   8
#     4  10  22  44  66  93 131 172 218 271 317 397
#     4  12  23  41  69  98 128 173 222 266 326 392
#     4  10  23  45  64  93 138 171 214 271 330 380
#     4  10  22  42  64  92 130 172 216 262 330 376
#     4  11  21  40  66  94 129 174 214 267 326 387
#
# _framework density 25.791283
#
# number of rings (size 3 to 8) (size 9 to 14) (size 15 to 20)
#    0.000    1.333    3.333    3.333    1.556    0.889 
#   16.000    0.000    0.000    0.000    0.000    0.000 
#    0.000    0.000    0.000    0.000    0.000    0.000 
#
# Total GULP energy -100281.002285 kJ/mol
# GULP energy per Si atom -5571.166794 kJ/mol
# Density = 2.573258 g / cm^3
# Si number density = 25.791283 Si / 1000 Ang^3
#
#
#
# Elastic Constant Matrix: (Units=GPa)
#
#
# Indices 1 2 3 4 5 6 
#
# 1 159.1797 29.3523 -0.4227 0.0000 -0.0221 0.0000
# 2 29.3523 133.3121 -7.5508 0.0000 -4.0676 0.0000
# 3 -0.4227 -7.5508 69.3312 0.0000 8.8137 0.0000
# 4 0.0000 0.0000 0.0000 0.3248 0.0000 -21.6428
# 5 -0.0221 -4.0676 8.8137 0.0000 31.1340 0.0000
# 6 0.0000 0.0000 0.0000 -21.6428 0.0000 45.0118
#
#
#
# Elastic Compliance Matrix: (Units=1/GPa)
#
#
# Indices 1 2 3 4 5 6 
#
# 1 0.006550 -0.001452 -0.000098 0.000000 -0.000157 0.000000
# 2 -0.001452 0.007888 0.000746 0.000000 0.000818 0.000000
# 3 -0.000098 0.000746 0.015033 0.000000 -0.004158 0.000000
# 4 0.000000 0.000000 0.000000 -0.099191 0.000000 -0.047693
# 5 -0.000157 0.000818 -0.004158 0.000000 0.033403 0.000000
# 6 0.000000 0.000000 0.000000 -0.047693 0.000000 -0.000716
#
#
# Mechanical properties :
#
#
# Convention : Reuss Voigt Hill
#
# Bulk Modulus (GPa) = 35.89150 44.95340 40.42245
# Shear Modulus (GPa) = -191.30625 37.99040 -76.65792
#
# Velocity S-wave (km/s) = -8.62182 3.84212 -5.45774
# Velocity P-wave (km/s) = 9.22865 6.09509 4.89990
#
# Compressibility (1/GPa) = 0.02786175
#
# Stress axis : x y z
#
# Youngs Moduli (GPa) = 152.67744 126.77120 66.52125
#
# Poissons Ratio (x) = 0.18413 0.00654
# Poissons Ratio (y) = 0.22176 -0.04964
# Poissons Ratio (z) = 0.01500 -0.09460
#
# Static dielectric constant tensor:
#      x y z
#    x 2.108040 0.000000 0.040470 
#    y 0.000000 2.381320 0.000000 
#    z 0.040470 0.000000 2.185660 
# 
# From -- ./inp_files/109508.got.cif
#   From: 2010.05.17/outbox.cif.g08.bks.cpg/sg15_55_cif.got.tgz:109508.got - 2010.06.03 18:47:42.
