data_PCOD9291030
_publ_section_title
;
Structure prediction by ZEFSAII (Michael W. Deem and Ramdas Pophale) SiO2 
 PCOD9291030
Probable space group: C 2/C
;
_chemical_formula_sum "Si O2"
_cell_formula_units_Z 52
_cell_length_a 9.506350
_cell_length_b 16.932093
_cell_length_c 15.625798
_cell_angle_alpha 90.000000
_cell_angle_beta 63.658479
_cell_angle_gamma 90.000000
_cell_volume 2254.004003
_symmetry_space_group_name_H-M "C 2/C"
_symmetry_group_IT_number 15
_symmetry_cell_setting 'monoclinic'
loop_
_space_group_symop_operation_xyz
x,y,z
-x,y,1/2-z
-x,-y,-z
x,-y,1/2+z
1/2+x,1/2+y,z
1/2-x,1/2+y,1/2-z
1/2-x,1/2-y,-z
1/2+x,1/2-y,1/2+z
loop_
_atom_site_type_symbol
_atom_site_label
_atom_site_fract_x
_atom_site_fract_y
_atom_site_fract_z
Si Si1 0.849553 0.045731 0.453626
Si Si2 0.966051 0.621693 0.957912
Si Si3 0.000000 0.356752 0.250000
Si Si4 0.000000 0.796545 0.250000
Si Si5 0.285406 0.277392 0.760118
Si Si6 0.194661 0.874129 0.050130
Si Si7 0.500000 0.410934 0.750000
Si Si8 0.999702 0.205185 0.033353
O O1 0.669257 0.062579 0.477299
O O2 0.974501 0.040924 0.342422
O O3 0.897578 0.125478 0.490829
O O4 0.847181 0.956330 0.487220
O O5 0.998557 0.606179 0.846475
O O6 0.125638 0.619376 0.969300
O O7 0.909807 0.712007 0.992837
O O8 0.151660 0.299548 0.208258
O O9 0.110856 0.740248 0.277544
O O10 0.104449 0.852816 0.162225
O O11 0.345180 0.355251 0.791489
O O12 0.395182 0.284792 0.646606
O O13 0.128595 0.807234 0.005406
#
# Coordination Sequence:
#
# PCOD9291030 Si02
#       8
#     8   8   4   4   8   8   4   8
#     4  11  24  41  65  93 133 174 204 261 325 374
#     4  11  23  41  68  94 122 173 216 261 311 373
#     4   9  18  40  57  93 122 151 222 258 297 380
#     4  12  23  36  63  95 127 168 204 272 329 356
#     4   9  20  37  62  92 118 162 212 271 303 364
#     4  12  25  40  61  99 134 162 210 264 327 382
#     4   9  21  42  62  88 131 161 224 254 308 388
#     4  10  22  42  63  93 123 166 216 258 308 384
#
# _framework density 23.070056000000001
#
# number of rings (size 3 to 8) (size 9 to 14) (size 15 to 20)
#    0.000    1.538    3.077    3.231    4.308    0.000 
#    0.000    1.538    0.000    0.000    0.000    0.000 
#    0.000    0.000    0.000    0.000    0.000    0.000 
#
# Total GULP energy -144979.677328 kJ/mol
# GULP energy per Si atom -5576.141436 kJ/mol
# Density = 2.301755 g / cm^3
# Si number density = 23.070056 Si / 1000 Ang^3
#
#
#
# Elastic Constant Matrix: (Units=GPa)
#
#
# Indices 1 2 3 4 5 6 
#
# 1 132.7287 24.7344 -2.3649 0.0000 -2.6888 0.0000
# 2 24.7344 87.0129 4.5264 0.0000 -1.3346 0.0000
# 3 -2.3649 4.5264 53.3187 0.0000 6.0578 0.0000
# 4 0.0000 0.0000 0.0000 1.6389 0.0000 9.7617
# 5 -2.6888 -1.3346 6.0578 0.0000 27.3683 0.0000
# 6 0.0000 0.0000 0.0000 9.7617 0.0000 23.2370
#
#
#
# Elastic Compliance Matrix: (Units=1/GPa)
#
#
# Indices 1 2 3 4 5 6 
#
# 1 0.007980 -0.002285 0.000484 0.000000 0.000566 0.000000
# 2 -0.002285 0.012215 -0.001211 0.000000 0.000639 0.000000
# 3 0.000484 -0.001211 0.019368 0.000000 -0.004298 0.000000
# 4 0.000000 0.000000 0.000000 -0.406189 0.000000 0.170636
# 5 0.000566 0.000639 -0.004298 0.000000 0.037577 0.000000
# 6 0.000000 0.000000 0.000000 0.170636 0.000000 -0.028648
#
#
# Mechanical properties :
#
#
# Convention : Reuss Voigt Hill
#
# Bulk Modulus (GPa) = 29.81661 36.31690 33.06675
# Shear Modulus (GPa) = -14.68457 26.85980 6.08762
#
# Velocity S-wave (km/s) = -2.52567 3.41584 1.62619
# Velocity P-wave (km/s) = 2.10881 5.59763 4.22969
#
# Compressibility (1/GPa) = 0.03353836
#
# Stress axis : x y z
#
# Youngs Moduli (GPa) = 125.31274 81.86759 51.63212
#
# Poissons Ratio (x) = 0.18706 -0.02497
# Poissons Ratio (y) = 0.28633 0.06252
# Poissons Ratio (z) = -0.06061 0.09914
#
# Static dielectric constant tensor:
#      x y z
#    x 1.899700 0.000000 0.078750 
#    y 0.000000 1.897130 0.000000 
#    z 0.078750 0.000000 1.949280 
# 
# From -- ./inp_files/190366.got.cif
#   From: 2010.05.17/outbox.cif.g08.bks.cpg/sg15_96_cif.got.tgz:190366.got - 2010.06.03 18:47:42.
