data_PCOD9291084
_publ_section_title
;
Structure prediction by ZEFSAII (Michael W. Deem and Ramdas Pophale) SiO2 
 PCOD9291084
Probable space group: C 2/C
;
_chemical_formula_sum "Si O2"
_cell_formula_units_Z 56
_cell_length_a 11.102652
_cell_length_b 9.095957
_cell_length_c 25.510709
_cell_angle_alpha 90.000000
_cell_angle_beta 112.276814
_cell_angle_gamma 90.000000
_cell_volume 2384.019912
_symmetry_space_group_name_H-M "C 2/C"
_symmetry_group_IT_number 15
_symmetry_cell_setting 'monoclinic'
loop_
_space_group_symop_operation_xyz
x,y,z
-x,y,1/2-z
-x,-y,-z
x,-y,1/2+z
1/2+x,1/2+y,z
1/2-x,1/2+y,1/2-z
1/2-x,1/2-y,-z
1/2+x,1/2-y,1/2+z
loop_
_atom_site_type_symbol
_atom_site_label
_atom_site_fract_x
_atom_site_fract_y
_atom_site_fract_z
Si Si1 0.505979 0.122384 0.172356
Si Si2 0.915319 0.263551 0.916508
Si Si3 0.609485 0.427507 0.620301
Si Si4 0.818641 0.856476 0.553702
Si Si5 0.805725 0.124522 0.252863
Si Si6 0.500000 0.373305 0.250000
Si Si7 0.500000 0.127075 0.750000
Si Si8 0.649595 0.353499 0.510950
O O1 0.499068 0.136956 0.108888
O O2 0.660914 0.122642 0.208453
O O3 0.459093 0.267161 0.195503
O O4 0.459487 0.977506 0.194781
O O5 0.784604 0.342936 0.915198
O O6 0.895300 0.106221 0.883957
O O7 0.006632 0.216928 0.980141
O O8 0.466548 0.348843 0.600461
O O9 0.688247 0.378979 0.683608
O O10 0.671450 0.381189 0.575396
O O11 0.750000 0.750000 0.500000
O O12 0.837406 0.002289 0.522115
O O13 0.881684 0.267607 0.245632
O O14 0.883535 0.980622 0.246837
O O15 0.750000 0.250000 0.500000
#
# Coordination Sequence:
#
# PCOD9291084 Si02
#       8
#     8   8   8   8   8   4   4   8
#     4  11  24  43  66  94 135 175 222 275 329 398
#     4  11  23  43  69  98 129 182 222 265 336 402
#     4  11  23  43  69  97 131 176 225 270 331 404
#     4  11  21  43  70  92 132 177 223 265 324 403
#     4  11  24  42  67  95 132 176 222 273 337 391
#     4  10  22  42  64  90 128 180 220 264 336 392
#     4  10  26  42  60 102 132 164 232 278 322 398
#     4  11  25  43  65 104 137 166 218 281 335 395
#
# _framework density 23.489737000000002
#
# number of rings (size 3 to 8) (size 9 to 14) (size 15 to 20)
#    0.000    1.143    4.286    1.714    4.000    4.000 
#    2.571    0.000    0.000    0.000    0.000    0.000 
#    0.000    0.000    0.000    0.000    0.000    0.000 
#
# Total GULP energy -156647.036843 kJ/mol
# GULP energy per Si atom -5594.537030 kJ/mol
# Density = 2.343627 g / cm^3
# Si number density = 23.489737 Si / 1000 Ang^3
#
#
#
# Elastic Constant Matrix: (Units=GPa)
#
#
# Indices 1 2 3 4 5 6 
#
# 1 133.0620 53.1311 21.7564 0.0000 -14.3595 0.0000
# 2 53.1311 49.3138 8.1894 0.0000 -11.4372 0.0000
# 3 21.7564 8.1894 70.3309 0.0000 -21.2926 0.0000
# 4 0.0000 0.0000 0.0000 20.1223 0.0000 -7.5601
# 5 -14.3595 -11.4372 -21.2926 0.0000 45.4993 0.0000
# 6 0.0000 0.0000 0.0000 -7.5601 0.0000 23.7023
#
#
#
# Elastic Compliance Matrix: (Units=1/GPa)
#
#
# Indices 1 2 3 4 5 6 
#
# 1 0.013638 -0.014377 -0.002721 0.000000 -0.000583 0.000000
# 2 -0.014377 0.036752 0.001854 0.000000 0.005569 0.000000
# 3 -0.002721 0.001854 0.017156 0.000000 0.007636 0.000000
# 4 0.000000 0.000000 0.000000 0.056462 0.000000 0.018009
# 5 -0.000583 0.005569 0.007636 0.000000 0.026767 0.000000
# 6 0.000000 0.000000 0.000000 0.018009 0.000000 0.047934
#
#
# Mechanical properties :
#
#
# Convention : Reuss Voigt Hill
#
# Bulk Modulus (GPa) = 26.98543 46.54006 36.76274
# Shear Modulus (GPa) = 20.69953 29.17344 24.93648
#
# Velocity S-wave (km/s) = 2.97175 3.52798 3.26174
# Velocity P-wave (km/s) = 4.82578 6.03750 5.46533
#
# Compressibility (1/GPa) = 0.03705704
#
# Stress axis : x y z
#
# Youngs Moduli (GPa) = 73.32472 27.20954 58.28787
#
# Poissons Ratio (x) = 0.39119 0.15862
# Poissons Ratio (y) = 1.05419 -0.10806
# Poissons Ratio (z) = 0.19954 -0.05044
#
# Static dielectric constant tensor:
#      x y z
#    x 1.954410 0.000000 0.026460 
#    y 0.000000 1.849620 0.000000 
#    z 0.026460 0.000000 1.877250 
# 
# From -- ./inp_files/291671.got.cif
#   From: 2010.05.17/outbox.cif.g08.bks.cpg/sg15_146_cif.got.tgz:291671.got - 2010.06.03 18:47:42.
