data_PCOD9291898
_publ_section_title
;
Structure prediction by ZEFSAII (Michael W. Deem and Ramdas Pophale) SiO2 
 PCOD9291898
Probable space group: C 2/C
;
_chemical_formula_sum "Si O2"
_cell_formula_units_Z 44
_cell_length_a 8.881363
_cell_length_b 21.280133
_cell_length_c 10.888492
_cell_angle_alpha 90.000000
_cell_angle_beta 109.139517
_cell_angle_gamma 90.000000
_cell_volume 1944.133958
_symmetry_space_group_name_H-M "C 2/C"
_symmetry_group_IT_number 15
_symmetry_cell_setting 'monoclinic'
loop_
_space_group_symop_operation_xyz
x,y,z
-x,y,1/2-z
-x,-y,-z
x,-y,1/2+z
1/2+x,1/2+y,z
1/2-x,1/2+y,1/2-z
1/2-x,1/2-y,-z
1/2+x,1/2-y,1/2+z
loop_
_atom_site_type_symbol
_atom_site_label
_atom_site_fract_x
_atom_site_fract_y
_atom_site_fract_z
Si Si1 0.500000 0.153813 0.750000
Si Si2 0.183752 0.428704 0.930424
Si Si3 0.569493 0.234720 0.997562
Si Si4 0.839502 0.384144 0.843150
Si Si5 0.716671 0.572304 0.558062
Si Si6 0.557101 0.645960 0.899920
O O1 0.519232 0.199641 0.637942
O O2 0.353587 0.109406 0.670677
O O3 0.219779 0.396310 0.808754
O O4 0.246021 0.499191 0.940977
O O5 0.994576 0.428565 0.900234
O O6 0.268229 0.383876 0.051170
O O7 0.595104 0.185488 0.114964
O O8 0.476690 0.295412 0.020210
O O9 0.750000 0.250000 0.000000
O O10 0.720009 0.400246 0.920722
O O11 0.553438 0.589338 0.580125
O O12 0.500000 0.663940 0.750000
#
# Coordination Sequence:
#
# PCOD9291898 Si02
#       6
#     4   8   8   8   8   8
#     4  10  22  42  82  92 132 180 240 280 340 416
#     4  11  26  44  72 105 139 178 233 301 339 417
#     4  11  24  46  69 101 137 182 237 281 349 422
#     4  10  24  45  72 100 132 181 240 283 353 402
#     4  11  24  47  70 102 136 189 228 280 353 422
#     4  12  29  43  68 104 148 184 228 288 354 412
#
# _framework density 22.632183999999999
#
# number of rings (size 3 to 8) (size 9 to 14) (size 15 to 20)
#    0.000    1.091    3.636    2.182   12.727    1.455 
#    0.000    0.000    0.000    0.000    0.000    0.000 
#    0.000    0.000    0.000    0.000    0.000    0.000 
#
# Total GULP energy -123114.097009 kJ/mol
# GULP energy per Si atom -5596.095319 kJ/mol
# Density = 2.258067 g / cm^3
# Si number density = 22.632184 Si / 1000 Ang^3
#
#
#
# Elastic Constant Matrix: (Units=GPa)
#
#
# Indices 1 2 3 4 5 6 
#
# 1 38.2911 -2.4840 1.3949 0.0000 -12.1339 0.0000
# 2 -2.4840 142.8831 22.9074 0.0000 0.5867 0.0000
# 3 1.3949 22.9074 101.4424 0.0000 -3.2083 0.0000
# 4 0.0000 0.0000 0.0000 18.3750 0.0000 1.8324
# 5 -12.1339 0.5867 -3.2083 0.0000 24.4366 0.0000
# 6 0.0000 0.0000 0.0000 1.8324 0.0000 26.7032
#
#
#
# Elastic Compliance Matrix: (Units=1/GPa)
#
#
# Indices 1 2 3 4 5 6 
#
# 1 0.031025 0.000484 -0.000049 0.000000 0.015387 0.000000
# 2 0.000484 0.007273 -0.001654 0.000000 -0.000151 0.000000
# 3 -0.000049 -0.001654 0.010275 0.000000 0.001364 0.000000
# 4 0.000000 0.000000 0.000000 0.054797 0.000000 -0.003760
# 5 0.015387 -0.000151 0.001364 0.000000 0.048745 0.000000
# 6 0.000000 0.000000 0.000000 -0.003760 0.000000 0.037707
#
#
# Mechanical properties :
#
#
# Convention : Reuss Voigt Hill
#
# Bulk Modulus (GPa) = 21.67556 36.25037 28.96297
# Shear Modulus (GPa) = 24.08036 31.28951 27.68494
#
# Velocity S-wave (km/s) = 3.26542 3.72226 3.50130
# Velocity P-wave (km/s) = 4.88010 5.87585 5.40097
#
# Compressibility (1/GPa) = 0.04613491
#
# Stress axis : x y z
#
# Youngs Moduli (GPa) = 32.23216 137.49665 97.32281
#
# Poissons Ratio (x) = -0.06656 0.00480
# Poissons Ratio (y) = -0.01560 0.16095
# Poissons Ratio (z) = 0.00159 0.22739
#
# Static dielectric constant tensor:
#      x y z
#    x 1.885660 0.000000 0.026680 
#    y 0.000000 1.821880 0.000000 
#    z 0.026680 0.000000 1.838160 
# 
# From -- ./inp_files/78384.got.cif
#   From: 2010.05.17/outbox.cif.g08.bks.cpg/sg15_40_cif.got.tgz:78384.got - 2010.06.03 18:47:42.
