data_PCOD9291798
_publ_section_title
;
Structure prediction by ZEFSAII (Michael W. Deem and Ramdas Pophale) SiO2 
 PCOD9291798
Probable space group: C 2/C
;
_chemical_formula_sum "Si O2"
_cell_formula_units_Z 52
_cell_length_a 18.941743
_cell_length_b 4.875300
_cell_length_c 21.661272
_cell_angle_alpha 90.000000
_cell_angle_beta 105.379972
_cell_angle_gamma 90.000000
_cell_volume 1928.710479
_symmetry_space_group_name_H-M "C 2/C"
_symmetry_group_IT_number 15
_symmetry_cell_setting 'monoclinic'
loop_
_space_group_symop_operation_xyz
x,y,z
-x,y,1/2-z
-x,-y,-z
x,-y,1/2+z
1/2+x,1/2+y,z
1/2-x,1/2+y,1/2-z
1/2-x,1/2-y,-z
1/2+x,1/2-y,1/2+z
loop_
_atom_site_type_symbol
_atom_site_label
_atom_site_fract_x
_atom_site_fract_y
_atom_site_fract_z
Si Si1 0.751341 0.535446 0.335422
Si Si2 0.500000 0.942982 0.750000
Si Si3 0.143640 0.236072 0.561714
Si Si4 0.369207 0.722900 0.279141
Si Si5 0.443408 0.267626 0.920063
Si Si6 0.831360 0.068930 0.066145
Si Si7 0.928683 0.433070 0.609068
O O1 0.797474 0.805707 0.368665
O O2 0.676406 0.543379 0.279350
O O3 0.806800 0.392126 0.301060
O O4 0.727412 0.443290 0.399193
O O5 0.571807 0.107286 0.745819
O O6 0.471483 0.819169 0.679103
O O7 0.113655 0.541668 0.566892
O O8 0.183080 0.173294 0.506550
O O9 0.072567 0.041967 0.546388
O O10 0.419309 0.620677 0.346656
O O11 0.516083 0.094578 0.923559
O O12 0.868074 0.332474 0.108074
O O13 0.889606 0.826336 0.071493
#
# Coordination Sequence:
#
# PCOD9291798 Si02
#       7
#     8   4   8   8   8   8   8
#     4  11  24  43  71 108 142 194 240 303 368 436
#     4  10  22  46  70 104 140 182 236 302 358 432
#     4  11  24  44  69 101 144 192 240 296 353 436
#     4  10  22  42  72 102 140 182 240 300 361 426
#     4  10  23  44  70 104 139 188 243 297 364 423
#     4  12  26  43  69 104 146 189 241 292 362 439
#     4  11  25  44  69 106 141 190 237 301 364 431
#
# _framework density 26.961022
#
# number of rings (size 3 to 8) (size 9 to 14) (size 15 to 20)
#    0.000    1.231    1.538    3.231    2.154    6.769 
#    2.769    5.385    0.000    0.000    0.000    0.000 
#    0.000    0.000    0.000    0.000    0.000    0.000 
#
# Total GULP energy -145187.808862 kJ/mol
# GULP energy per Si atom -5584.146495 kJ/mol
# Density = 2.689966 g / cm^3
# Si number density = 26.961022 Si / 1000 Ang^3
#
#
#
# Elastic Constant Matrix: (Units=GPa)
#
#
# Indices 1 2 3 4 5 6 
#
# 1 88.3565 6.7932 5.6133 -0.0002 -19.8150 0.0001
# 2 6.7932 80.1372 17.9123 -0.0003 -1.4191 0.0003
# 3 5.6133 17.9123 114.3459 -0.0001 -25.0221 0.0002
# 4 -0.0002 -0.0003 -0.0001 3.1574 0.0001 7.8980
# 5 -19.8150 -1.4191 -25.0221 0.0001 38.3222 0.0000
# 6 0.0001 0.0003 0.0002 7.8980 0.0000 5.0201
#
#
#
# Elastic Compliance Matrix: (Units=1/GPa)
#
#
# Indices 1 2 3 4 5 6 
#
# 1 0.013009 -0.001236 0.001186 0.000000 0.007456 0.000000
# 2 -0.001236 0.013081 -0.002359 -0.000001 -0.001695 0.000001
# 3 0.001186 -0.002359 0.010701 0.000000 0.007513 0.000000
# 4 0.000000 -0.000001 0.000000 -0.107896 0.000000 0.169749
# 5 0.007456 -0.001695 0.007513 0.000000 0.034792 0.000000
# 6 0.000000 0.000001 0.000000 0.169749 0.000000 -0.067861
#
#
# Mechanical properties :
#
#
# Convention : Reuss Voigt Hill
#
# Bulk Modulus (GPa) = 31.27619 38.16415 34.72017
# Shear Modulus (GPa) = -56.37111 26.13468 -15.11822
#
# Velocity S-wave (km/s) = -4.57753 3.11682 -2.37057
# Velocity P-wave (km/s) = 4.03889 5.20949 2.32660
#
# Compressibility (1/GPa) = 0.03197320
#
# Stress axis : x y z
#
# Youngs Moduli (GPa) = 76.86725 76.44840 93.45073
#
# Poissons Ratio (x) = 0.09449 -0.11088
# Poissons Ratio (y) = 0.09501 0.22049
# Poissons Ratio (z) = -0.09120 0.18037
#
# Static dielectric constant tensor:
#      x y z
#    x 2.265710 0.000000 0.021910 
#    y 0.000000 2.117950 0.000000 
#    z 0.021910 0.000000 2.167820 
# 
# From -- ./inp_files/251104.got.cif
#   From: 2010.05.17/outbox.cif.g08.bks.cpg/sg15_126_cif.got.tgz:251104.got - 2010.06.03 18:47:42.
