data_PCOD9291882
_publ_section_title
;
Structure prediction by ZEFSAII (Michael W. Deem and Ramdas Pophale) SiO2 
 PCOD9291882
Probable space group: C 2/C
;
_chemical_formula_sum "Si O2"
_cell_formula_units_Z 36
_cell_length_a 9.243510
_cell_length_b 13.778364
_cell_length_c 12.492102
_cell_angle_alpha 90.000000
_cell_angle_beta 79.216541
_cell_angle_gamma 90.000000
_cell_volume 1562.904698
_symmetry_space_group_name_H-M "C 2/C"
_symmetry_group_IT_number 15
_symmetry_cell_setting 'monoclinic'
loop_
_space_group_symop_operation_xyz
x,y,z
-x,y,1/2-z
-x,-y,-z
x,-y,1/2+z
1/2+x,1/2+y,z
1/2-x,1/2+y,1/2-z
1/2-x,1/2-y,-z
1/2+x,1/2-y,1/2+z
loop_
_atom_site_type_symbol
_atom_site_label
_atom_site_fract_x
_atom_site_fract_y
_atom_site_fract_z
Si Si1 0.578486 0.101698 0.010936
Si Si2 0.403452 0.570116 0.944235
Si Si3 0.500000 0.437727 0.750000
Si Si4 0.862985 0.756099 0.091542
Si Si5 0.628367 0.758341 0.303519
O O1 0.617754 0.180589 0.912046
O O2 0.755072 0.419374 0.978936
O O3 0.452872 0.157206 0.092826
O O4 0.500000 0.000000 0.000000
O O5 0.395894 0.509982 0.832543
O O6 0.506712 0.664655 0.927009
O O7 0.500000 0.500000 0.000000
O O8 0.413583 0.356710 0.689704
O O9 0.770351 0.771734 0.211467
O O10 0.750000 0.750000 0.000000
O O11 0.500000 0.804411 0.250000
#
# Coordination Sequence:
#
# PCOD9291882 Si02
#       5
#     8   8   4   8   8
#     4  12  25  44  72 108 144 194 245 297 371 443
#     4  12  25  42  70 104 144 189 243 299 362 435
#     4  10  22  44  70 102 140 192 242 296 368 424
#     4  12  23  44  70 100 144 191 234 301 359 426
#     4  10  22  42  75 100 146 187 243 297 372 433
#
# _framework density 23.034033999999998
#
# number of rings (size 3 to 8) (size 9 to 14) (size 15 to 20)
#    0.667    0.000    2.222    7.333    0.000    0.000 
#    0.000    0.000    7.333    0.000    0.000    0.000 
#    0.000    0.000    0.000    0.000    0.000    0.000 
#
# Total GULP energy -100237.874559 kJ/mol
# GULP energy per Si atom -5568.770809 kJ/mol
# Density = 2.298161 g / cm^3
# Si number density = 23.034034 Si / 1000 Ang^3
#
#
#
# Elastic Constant Matrix: (Units=GPa)
#
#
# Indices 1 2 3 4 5 6 
#
# 1 145.0675 46.9261 25.5207 0.0000 -33.8699 0.0000
# 2 46.9261 157.0176 17.7139 0.0000 -13.2730 0.0000
# 3 25.5207 17.7139 83.6880 0.0000 -24.1057 0.0000
# 4 0.0000 0.0000 0.0000 11.1319 0.0000 21.3171
# 5 -33.8699 -13.2730 -24.1057 0.0000 45.9570 0.0000
# 6 0.0000 0.0000 0.0000 21.3171 0.0000 17.0635
#
#
#
# Elastic Compliance Matrix: (Units=1/GPa)
#
#
# Indices 1 2 3 4 5 6 
#
# 1 0.009032 -0.002144 -0.000661 0.000000 0.005690 0.000000
# 2 -0.002144 0.007107 -0.000842 0.000000 0.000031 0.000000
# 3 -0.000661 -0.000842 0.014275 0.000000 0.006757 0.000000
# 4 0.000000 0.000000 0.000000 -0.064520 0.000000 0.080603
# 5 0.005690 0.000031 0.006757 0.000000 0.029506 0.000000
# 6 0.000000 0.000000 0.000000 0.080603 0.000000 -0.042091
#
#
# Mechanical properties :
#
#
# Convention : Reuss Voigt Hill
#
# Bulk Modulus (GPa) = 43.25130 62.89939 53.07534
# Shear Modulus (GPa) = -157.77433 34.53797 -61.61818
#
# Velocity S-wave (km/s) = -8.28522 3.87645 -5.17774
# Velocity P-wave (km/s) = 8.52693 6.88493 3.55713
#
# Compressibility (1/GPa) = 0.02312069
#
# Stress axis : x y z
#
# Youngs Moduli (GPa) = 110.72205 140.70775 70.05078
#
# Poissons Ratio (x) = 0.30162 0.04634
# Poissons Ratio (y) = 0.23734 0.05895
# Poissons Ratio (z) = 0.07324 0.11842
#
# Static dielectric constant tensor:
#      x y z
#    x 1.909800 0.000000 0.067250 
#    y 0.000000 1.784320 0.000000 
#    z 0.067250 0.000000 2.008450 
# 
# From -- ./inp_files/203153.got.cif
#   From: 2010.05.17/outbox.cif.g08.bks.cpg/sg15_102_cif.got.tgz:203153.got - 2010.06.03 18:47:42.
