data_PCOD9291332
_publ_section_title
;
Structure prediction by ZEFSAII (Michael W. Deem and Ramdas Pophale) SiO2 
 PCOD9291332
Probable space group: C 2/C
;
_chemical_formula_sum "Si O2"
_cell_formula_units_Z 48
_cell_length_a 24.128828
_cell_length_b 9.139011
_cell_length_c 12.516522
_cell_angle_alpha 90.000000
_cell_angle_beta 48.764909
_cell_angle_gamma 90.000000
_cell_volume 2075.599182
_symmetry_space_group_name_H-M "C 2/C"
_symmetry_group_IT_number 15
_symmetry_cell_setting 'monoclinic'
loop_
_space_group_symop_operation_xyz
x,y,z
-x,y,1/2-z
-x,-y,-z
x,-y,1/2+z
1/2+x,1/2+y,z
1/2-x,1/2+y,1/2-z
1/2-x,1/2-y,-z
1/2+x,1/2-y,1/2+z
loop_
_atom_site_type_symbol
_atom_site_label
_atom_site_fract_x
_atom_site_fract_y
_atom_site_fract_z
Si Si1 0.585466 0.616275 0.852527
Si Si2 0.278812 0.729171 0.584748
Si Si3 0.464370 0.662179 0.177640
Si Si4 0.665066 0.211209 0.083732
Si Si5 0.310739 0.423139 0.630971
Si Si6 0.088188 0.406112 0.153296
O O1 0.569569 0.497645 0.780821
O O2 0.624298 0.747796 0.744708
O O3 0.634394 0.519224 0.868396
O O4 0.516171 0.664531 0.009303
O O5 0.250000 0.750000 0.500000
O O6 0.270676 0.555980 0.619265
O O7 0.363544 0.792265 0.481661
O O8 0.236440 0.824287 0.727761
O O9 0.500000 0.675036 0.250000
O O10 0.414247 0.806553 0.236496
O O11 0.638909 0.048637 0.089971
O O12 0.750000 0.250000 0.000000
O O13 0.649137 0.315815 0.002943
O O14 0.000000 0.449620 0.250000
#
# Coordination Sequence:
#
# PCOD9291332 Si02
#       6
#     8   8   8   8   8   8
#     4  11  23  41  68  97 131 181 235 291 353 427
#     4  12  25  45  73 105 143 189 243 300 363 436
#     4  10  22  42  66  95 135 179 226 286 359 428
#     4  12  26  44  67 100 138 184 238 290 356 431
#     4  12  24  43  71  99 137 184 241 298 356 428
#     4  11  24  43  68 101 141 181 229 292 355 419
#
# _framework density 23.125851999999998
#
# number of rings (size 3 to 8) (size 9 to 14) (size 15 to 20)
#    0.000    0.667    0.000   10.000    0.000    4.000 
#    0.000    9.167    0.000    0.000    0.000    0.000 
#    0.000    0.000    0.000    0.000    0.000    0.000 
#
# Total GULP energy -133865.183478 kJ/mol
# GULP energy per Si atom -5577.715978 kJ/mol
# Density = 2.307322 g / cm^3
# Si number density = 23.125852 Si / 1000 Ang^3
#
#
#
# Elastic Constant Matrix: (Units=GPa)
#
#
# Indices 1 2 3 4 5 6 
#
# 1 47.7410 14.2583 18.1137 0.0000 3.2781 0.0000
# 2 14.2583 161.6346 64.3915 0.0000 1.3937 0.0000
# 3 18.1137 64.3915 108.0283 0.0000 -1.0706 0.0000
# 4 0.0000 0.0000 0.0000 66.8763 0.0000 -3.9821
# 5 3.2781 1.3937 -1.0706 0.0000 33.9589 0.0000
# 6 0.0000 0.0000 0.0000 -3.9821 0.0000 20.1750
#
#
#
# Elastic Compliance Matrix: (Units=1/GPa)
#
#
# Indices 1 2 3 4 5 6 
#
# 1 0.022591 -0.000597 -0.003454 0.000000 -0.002265 0.000000
# 2 -0.000597 0.008137 -0.004754 0.000000 -0.000426 0.000000
# 3 -0.003454 -0.004754 0.012679 0.000000 0.000928 0.000000
# 4 0.000000 0.000000 0.000000 0.015131 0.000000 0.002987
# 5 -0.002265 -0.000426 0.000928 0.000000 0.029713 0.000000
# 6 0.000000 0.000000 0.000000 0.002987 0.000000 0.050156
#
#
# Mechanical properties :
#
#
# Convention : Reuss Voigt Hill
#
# Bulk Modulus (GPa) = 38.76667 56.77009 47.76838
# Shear Modulus (GPa) = 30.37358 38.91142 34.64250
#
# Velocity S-wave (km/s) = 3.62802 4.10639 3.87460
# Velocity P-wave (km/s) = 5.86087 6.86184 6.38102
#
# Compressibility (1/GPa) = 0.02579536
#
# Stress axis : x y z
#
# Youngs Moduli (GPa) = 44.26562 122.89282 78.86961
#
# Poissons Ratio (x) = 0.07338 0.27245
# Poissons Ratio (y) = 0.02643 0.37497
# Poissons Ratio (z) = 0.15291 0.58428
#
# Static dielectric constant tensor:
#      x y z
#    x 2.077710 0.000000 -0.028920 
#    y 0.000000 1.997430 0.000000 
#    z -0.028920 0.000000 1.884260 
# 
# From -- ./inp_files/121365.got.cif
#   From: 2010.05.17/outbox.cif.g08.bks.cpg/sg15_61_cif.got.tgz:121365.got - 2010.06.03 18:47:42.
