data_PCOD9291190
_publ_section_title
;
Structure prediction by ZEFSAII (Michael W. Deem and Ramdas Pophale) SiO2 
 PCOD9291190
Probable space group: C 2/C
;
_chemical_formula_sum "Si O2"
_cell_formula_units_Z 40
_cell_length_a 13.485647
_cell_length_b 13.277071
_cell_length_c 10.670646
_cell_angle_alpha 90.000000
_cell_angle_beta 74.909802
_cell_angle_gamma 90.000000
_cell_volume 1844.695909
_symmetry_space_group_name_H-M "C 2/C"
_symmetry_group_IT_number 15
_symmetry_cell_setting 'monoclinic'
loop_
_space_group_symop_operation_xyz
x,y,z
-x,y,1/2-z
-x,-y,-z
x,-y,1/2+z
1/2+x,1/2+y,z
1/2-x,1/2+y,1/2-z
1/2-x,1/2-y,-z
1/2+x,1/2-y,1/2+z
loop_
_atom_site_type_symbol
_atom_site_label
_atom_site_fract_x
_atom_site_fract_y
_atom_site_fract_z
Si Si1 0.254691 0.894083 0.095014
Si Si2 0.531958 0.402920 0.114403
Si Si3 0.935648 0.484570 0.648070
Si Si4 0.070847 0.883492 0.839256
Si Si5 0.799741 0.327117 0.803460
O O1 0.147155 0.947153 0.094156
O O2 0.332723 0.950185 0.159305
O O3 0.216586 0.791132 0.171593
O O4 0.307356 0.870186 0.943515
O O5 0.500000 0.345150 0.250000
O O6 0.454554 0.497441 0.135216
O O7 0.536826 0.340241 0.985755
O O8 0.000000 0.515485 0.750000
O O9 0.000000 0.500000 0.500000
O O10 0.108502 0.372754 0.808240
O O11 0.190401 0.864237 0.784287
O O12 0.000000 0.846575 0.750000
#
# Coordination Sequence:
#
# PCOD9291190 Si02
#       5
#     8   8   8   8   8
#     4  10  22  42  65  94 132 176 223 272 334 409
#     4   9  17  32  56  88 116 156 205 258 318 383
#     4  12  24  44  70  98 137 182 229 278 341 407
#     4   9  17  32  57  86 120 153 200 264 321 372
#     4  10  22  42  65  93 133 177 220 274 336 406
#
# _framework density 21.683792
#
# number of rings (size 3 to 8) (size 9 to 14) (size 15 to 20)
#    0.000    2.000    2.000    2.400    0.000    1.600 
#    7.200    1.000    0.000    0.000    0.000    0.000 
#    0.000    0.000    0.000    0.000    0.000    0.000 
#
# Total GULP energy -111561.529822 kJ/mol
# GULP energy per Si atom -5578.076491 kJ/mol
# Density = 2.163444 g / cm^3
# Si number density = 21.683792 Si / 1000 Ang^3
#
#
#
# Elastic Constant Matrix: (Units=GPa)
#
#
# Indices 1 2 3 4 5 6 
#
# 1 136.5945 30.0261 47.6240 0.0000 28.4700 0.0000
# 2 30.0261 50.5146 13.0813 0.0000 -2.0518 0.0000
# 3 47.6240 13.0813 163.1050 0.0000 4.5456 0.0000
# 4 0.0000 0.0000 0.0000 19.8403 0.0000 0.1420
# 5 28.4700 -2.0518 4.5456 0.0000 49.1830 0.0000
# 6 0.0000 0.0000 0.0000 0.1420 0.0000 22.6861
#
#
#
# Elastic Compliance Matrix: (Units=1/GPa)
#
#
# Indices 1 2 3 4 5 6 
#
# 1 0.010835 -0.006047 -0.002503 0.000000 -0.006293 0.000000
# 2 -0.006047 0.023640 -0.000256 0.000000 0.004510 0.000000
# 3 -0.002503 -0.000256 0.006860 0.000000 0.000804 0.000000
# 4 0.000000 0.000000 0.000000 0.050405 0.000000 -0.000315
# 5 -0.006293 0.004510 0.000804 0.000000 0.024089 0.000000
# 6 0.000000 0.000000 0.000000 -0.000315 0.000000 0.044082
#
#
# Mechanical properties :
#
#
# Convention : Reuss Voigt Hill
#
# Bulk Modulus (GPa) = 42.15519 59.07521 50.61520
# Shear Modulus (GPa) = 26.96428 35.64073 31.30250
#
# Velocity S-wave (km/s) = 3.53019 4.05860 3.80358
# Velocity P-wave (km/s) = 6.00828 7.01898 6.53320
#
# Compressibility (1/GPa) = 0.02372187
#
# Stress axis : x y z
#
# Youngs Moduli (GPa) = 92.29718 42.30044 145.77247
#
# Poissons Ratio (x) = 0.25581 0.36489
# Poissons Ratio (y) = 0.55817 0.03731
# Poissons Ratio (z) = 0.23103 0.01083
#
# Static dielectric constant tensor:
#      x y z
#    x 1.813790 0.000000 0.015190 
#    y 0.000000 1.826120 0.000000 
#    z 0.015190 0.000000 1.894580 
# 
# From -- ./inp_files/85544.got.cif
#   From: 2010.05.17/outbox.cif.g08.bks.cpg/sg15_43_cif.got.tgz:85544.got - 2010.06.03 18:47:42.
