data_PCOD9291018
_publ_section_title
;
Structure prediction by ZEFSAII (Michael W. Deem and Ramdas Pophale) SiO2 
 PCOD9291018
Probable space group: C 2/C
;
_chemical_formula_sum "Si O2"
_cell_formula_units_Z 44
_cell_length_a 12.514012
_cell_length_b 13.564331
_cell_length_c 15.003769
_cell_angle_alpha 90.000000
_cell_angle_beta 126.254260
_cell_angle_gamma 90.000000
_cell_volume 2053.743385
_symmetry_space_group_name_H-M "C 2/C"
_symmetry_group_IT_number 15
_symmetry_cell_setting 'monoclinic'
loop_
_space_group_symop_operation_xyz
x,y,z
-x,y,1/2-z
-x,-y,-z
x,-y,1/2+z
1/2+x,1/2+y,z
1/2-x,1/2+y,1/2-z
1/2-x,1/2-y,-z
1/2+x,1/2-y,1/2+z
loop_
_atom_site_type_symbol
_atom_site_label
_atom_site_fract_x
_atom_site_fract_y
_atom_site_fract_z
Si Si1 0.685548 0.063803 0.356175
Si Si2 0.252974 0.356783 0.395379
Si Si3 0.500000 0.493006 0.250000
Si Si4 0.532923 0.635929 0.943604
Si Si5 0.016293 0.360398 0.617581
Si Si6 0.748690 0.366075 0.892490
O O1 0.605220 0.073335 0.409068
O O2 0.617817 0.134738 0.251047
O O3 0.835254 0.095684 0.445686
O O4 0.676954 0.951044 0.318841
O O5 0.405933 0.372221 0.444525
O O6 0.240403 0.363433 0.495515
O O7 0.214661 0.246923 0.346498
O O8 0.489914 0.425559 0.157551
O O9 0.368929 0.560761 0.191848
O O10 0.541338 0.751685 0.925555
O O11 0.109281 0.390250 0.581225
#
# Coordination Sequence:
#
# PCOD9291018 Si02
#       6
#     8   8   4   8   8   8
#     4  11  21  41  67  88 123 163 201 255 304 358
#     4  10  22  42  63  89 126 160 202 249 311 354
#     4  12  22  38  66  94 118 162 214 244 300 362
#     4  11  23  41  64  92 121 162 207 253 297 366
#     4  10  24  40  62  91 126 156 205 249 314 354
#     4  10  23  40  60  94 123 158 204 252 296 371
#
# _framework density 21.424291
#
# number of rings (size 3 to 8) (size 9 to 14) (size 15 to 20)
#    0.000    1.455    1.818    3.273    2.545    2.182 
#    0.000    0.000    0.000    0.000    0.000    0.000 
#    0.000    0.000    0.000    0.000    0.000    0.000 
#
# Total GULP energy -122966.540636 kJ/mol
# GULP energy per Si atom -5589.388211 kJ/mol
# Density = 2.137553 g / cm^3
# Si number density = 21.424291 Si / 1000 Ang^3
#
#
#
# Elastic Constant Matrix: (Units=GPa)
#
#
# Indices 1 2 3 4 5 6 
#
# 1 144.4842 26.8439 -6.4569 0.0000 -2.4713 0.0000
# 2 26.8439 63.1004 -11.1406 0.0000 8.8729 0.0000
# 3 -6.4569 -11.1406 13.4558 0.0000 -7.4868 0.0000
# 4 0.0000 0.0000 0.0000 89.2960 0.0000 -27.1594
# 5 -2.4713 8.8729 -7.4868 0.0000 22.4633 0.0000
# 6 0.0000 0.0000 0.0000 -27.1594 0.0000 46.3991
#
#
#
# Elastic Compliance Matrix: (Units=1/GPa)
#
#
# Indices 1 2 3 4 5 6 
#
# 1 0.007692 -0.003219 0.002706 0.000000 0.003020 0.000000
# 2 -0.003219 0.020044 0.012827 0.000000 -0.003996 0.000000
# 3 0.002706 0.012827 0.102611 0.000000 0.029430 0.000000
# 4 0.000000 0.000000 0.000000 0.013624 0.000000 0.007975
# 5 0.003020 -0.003996 0.029430 0.000000 0.056237 0.000000
# 6 0.000000 0.000000 0.000000 0.007975 0.000000 0.026220
#
#
# Mechanical properties :
#
#
# Convention : Reuss Voigt Hill
#
# Bulk Modulus (GPa) = 6.45271 26.61480 16.53375
# Shear Modulus (GPa) = 19.72712 45.75129 32.73920
#
# Velocity S-wave (km/s) = 3.03773 4.62615 3.91338
# Velocity P-wave (km/s) = 3.91435 6.40193 5.30598
#
# Compressibility (1/GPa) = 0.15497360
#
# Stress axis : x y z
#
# Youngs Moduli (GPa) = 130.00829 49.89081 9.74556
#
# Poissons Ratio (x) = 0.16060 -0.02637
# Poissons Ratio (y) = 0.41851 -0.12500
# Poissons Ratio (z) = -0.35179 -0.63994
#
# Static dielectric constant tensor:
#      x y z
#    x 1.789050 0.000000 -0.021010 
#    y 0.000000 1.800340 0.000000 
#    z -0.021010 0.000000 1.732590 
# 
# From -- ./inp_files/198074.got.cif
#   From: 2010.05.17/outbox.cif.g08.bks.cpg/sg15_100_cif.got.tgz:198074.got - 2010.06.03 18:47:42.
