data_PCOD9291778
_publ_section_title
;
Structure prediction by ZEFSAII (Michael W. Deem and Ramdas Pophale) SiO2 
 PCOD9291778
Probable space group: C 2/C
;
_chemical_formula_sum "Si O2"
_cell_formula_units_Z 64
_cell_length_a 8.831560
_cell_length_b 26.516558
_cell_length_c 14.000363
_cell_angle_alpha 90.000000
_cell_angle_beta 112.332227
_cell_angle_gamma 90.000000
_cell_volume 3032.730298
_symmetry_space_group_name_H-M "C 2/C"
_symmetry_group_IT_number 15
_symmetry_cell_setting 'monoclinic'
loop_
_space_group_symop_operation_xyz
x,y,z
-x,y,1/2-z
-x,-y,-z
x,-y,1/2+z
1/2+x,1/2+y,z
1/2-x,1/2+y,1/2-z
1/2-x,1/2-y,-z
1/2+x,1/2-y,1/2+z
loop_
_atom_site_type_symbol
_atom_site_label
_atom_site_fract_x
_atom_site_fract_y
_atom_site_fract_z
Si Si1 0.428306 0.530434 0.573961
Si Si2 0.329990 0.623663 0.262774
Si Si3 0.234782 0.098145 0.701737
Si Si4 0.529911 0.305598 0.144239
Si Si5 0.452607 0.808540 0.851026
Si Si6 0.493413 0.064440 0.605774
Si Si7 0.670577 0.036270 0.124681
Si Si8 0.769131 0.130862 0.468501
O O1 0.500000 0.500000 0.500000
O O2 0.576706 0.561216 0.660319
O O3 0.327940 0.492129 0.616565
O O4 0.301108 0.573451 0.508229
O O5 0.500000 0.617883 0.250000
O O6 0.226080 0.667575 0.187693
O O7 0.227221 0.572773 0.221517
O O8 0.338333 0.633809 0.376888
O O9 0.177984 0.154958 0.667411
O O10 0.354100 0.079739 0.646625
O O11 0.341891 0.094362 0.824264
O O12 0.500000 0.303231 0.250000
O O13 0.547209 0.248587 0.111717
O O14 0.377875 0.332564 0.058660
O O15 0.500000 0.806770 0.750000
O O16 0.587893 0.846024 0.926452
O O17 0.416571 0.066440 0.482299
O O18 0.547032 0.006368 0.630631
#
# Coordination Sequence:
#
# PCOD9291778 Si02
#       8
#     8   8   8   8   8   8   8   8
#     4  11  22  38  60  93 128 169 214 263 321 380
#     4  11  25  42  64  95 134 174 217 268 328 395
#     4  10  23  40  61  88 127 159 214 271 326 380
#     4  10  22  42  71  97 124 167 222 285 338 392
#     4   9  21  44  68  94 126 168 227 275 332 394
#     4  10  24  41  57  92 129 168 214 257 317 395
#     4  11  25  39  62  90 131 175 219 254 321 397
#     4  10  23  41  68  97 128 169 222 275 325 396
#
# _framework density 21.103096000000001
#
# number of rings (size 3 to 8) (size 9 to 14) (size 15 to 20)
#    0.000    1.750    1.250    1.125   12.250    0.000 
#    4.500    0.625    0.000    0.000    0.000    0.000 
#    0.000    0.000    0.000    0.000    0.000    0.000 
#
# Total GULP energy -178936.466553 kJ/mol
# GULP energy per Si atom -5591.764580 kJ/mol
# Density = 2.105506 g / cm^3
# Si number density = 21.103096 Si / 1000 Ang^3
#
#
#
# Elastic Constant Matrix: (Units=GPa)
#
#
# Indices 1 2 3 4 5 6 
#
# 1 80.0946 35.7429 28.7970 0.0000 6.6089 0.0000
# 2 35.7429 117.1417 31.1759 0.0000 1.1187 0.0000
# 3 28.7970 31.1759 79.3979 0.0000 19.4865 0.0000
# 4 0.0000 0.0000 0.0000 21.5407 0.0000 -0.4270
# 5 6.6089 1.1187 19.4865 0.0000 30.3181 0.0000
# 6 0.0000 0.0000 0.0000 -0.4270 0.0000 20.0884
#
#
#
# Elastic Compliance Matrix: (Units=1/GPa)
#
#
# Indices 1 2 3 4 5 6 
#
# 1 0.015646 -0.003686 -0.004065 0.000000 -0.000662 0.000000
# 2 -0.003686 0.010555 -0.003454 0.000000 0.002634 0.000000
# 3 -0.004065 -0.003454 0.018019 0.000000 -0.010568 0.000000
# 4 0.000000 0.000000 0.000000 0.046443 0.000000 0.000987
# 5 -0.000662 0.002634 -0.010568 0.000000 0.039823 0.000000
# 6 0.000000 0.000000 0.000000 0.000987 0.000000 0.049801
#
#
# Mechanical properties :
#
#
# Convention : Reuss Voigt Hill
#
# Bulk Modulus (GPa) = 45.84962 52.00731 48.92846
# Shear Modulus (GPa) = 23.81303 26.45065 25.13184
#
# Velocity S-wave (km/s) = 3.36283 3.54418 3.45470
# Velocity P-wave (km/s) = 6.07057 6.43787 6.25692
#
# Compressibility (1/GPa) = 0.02181043
#
# Stress axis : x y z
#
# Youngs Moduli (GPa) = 63.91310 94.73738 55.49632
#
# Poissons Ratio (x) = 0.34919 0.22560
# Poissons Ratio (y) = 0.23558 0.19170
# Poissons Ratio (z) = 0.25981 0.32725
#
# Static dielectric constant tensor:
#      x y z
#    x 1.751390 0.000000 0.017500 
#    y 0.000000 1.750330 0.000000 
#    z 0.017500 0.000000 1.794540 
# 
# From -- ./inp_files/138677.got.cif
#   From: 2010.05.17/outbox.cif.g08.bks.cpg/sg15_70_cif.got.tgz:138677.got - 2010.06.03 18:47:42.
