data_PCOD9291163
_publ_section_title
;
Structure prediction by ZEFSAII (Michael W. Deem and Ramdas Pophale) SiO2 
 PCOD9291163
Probable space group: C 2/C
;
_chemical_formula_sum "Si O2"
_cell_formula_units_Z 56
_cell_length_a 10.587994
_cell_length_b 8.930932
_cell_length_c 32.466002
_cell_angle_alpha 90.000000
_cell_angle_beta 71.028467
_cell_angle_gamma 90.000000
_cell_volume 2903.244309
_symmetry_space_group_name_H-M "C 2/C"
_symmetry_group_IT_number 15
_symmetry_cell_setting 'monoclinic'
loop_
_space_group_symop_operation_xyz
x,y,z
-x,y,1/2-z
-x,-y,-z
x,-y,1/2+z
1/2+x,1/2+y,z
1/2-x,1/2+y,1/2-z
1/2-x,1/2-y,-z
1/2+x,1/2-y,1/2+z
loop_
_atom_site_type_symbol
_atom_site_label
_atom_site_fract_x
_atom_site_fract_y
_atom_site_fract_z
Si Si1 0.455066 0.006369 0.438567
Si Si2 0.146916 0.941188 0.849633
Si Si3 0.831847 0.998490 0.560786
Si Si4 0.647122 0.918906 0.349321
Si Si5 0.043551 0.082057 0.698714
Si Si6 0.491253 0.249884 0.999740
Si Si7 0.456462 0.941731 0.800886
O O1 0.588031 0.989044 0.397420
O O2 0.442662 0.862823 0.469615
O O3 0.327422 0.013655 0.422579
O O4 0.458122 0.149033 0.467919
O O5 0.114896 0.004972 0.898316
O O6 0.136680 0.761073 0.853120
O O7 0.300863 0.980109 0.823410
O O8 0.050148 0.003270 0.824797
O O9 0.894564 0.854422 0.531667
O O10 0.878791 0.140523 0.529483
O O11 0.801464 0.957790 0.325082
O O12 0.553725 0.977234 0.322483
O O13 0.000000 0.044009 0.750000
O O14 0.030450 0.261919 0.695226
O O15 0.500000 0.979539 0.750000
#
# Coordination Sequence:
#
# PCOD9291163 Si02
#       7
#     8   8   8   8   8   8   8
#     4  11  22  42  62  90 123 160 208 250 303 361
#     4  11  23  39  63  92 128 158 202 259 299 367
#     4  11  22  41  61  91 123 160 206 249 308 359
#     4  11  23  39  63  93 125 158 205 255 300 367
#     4  10  24  43  63  92 125 162 205 248 308 370
#     4  10  24  40  61  89 122 163 200 255 305 362
#     4  10  22  42  65  89 120 161 204 253 309 366
#
# _framework density 19.288765000000001
#
# number of rings (size 3 to 8) (size 9 to 14) (size 15 to 20)
#    0.000    1.429    2.857    1.714    2.000    2.857 
#   10.286    0.000    0.000    0.000    0.000    0.000 
#    0.000    0.000    0.000    0.000    0.000    0.000 
#
# Total GULP energy -156489.552445 kJ/mol
# GULP energy per Si atom -5588.912587 kJ/mol
# Density = 1.924486 g / cm^3
# Si number density = 19.288765 Si / 1000 Ang^3
#
#
#
# Elastic Constant Matrix: (Units=GPa)
#
#
# Indices 1 2 3 4 5 6 
#
# 1 122.5178 22.1744 55.5688 0.0000 0.1429 0.0000
# 2 22.1744 42.3583 28.4973 0.0000 -2.2427 0.0000
# 3 55.5688 28.4973 140.1691 0.0000 -3.5125 0.0000
# 4 0.0000 0.0000 0.0000 -0.3377 0.0000 16.1112
# 5 0.1429 -2.2427 -3.5125 0.0000 37.8511 0.0000
# 6 0.0000 0.0000 0.0000 16.1112 0.0000 11.7572
#
#
#
# Elastic Compliance Matrix: (Units=1/GPa)
#
#
# Indices 1 2 3 4 5 6 
#
# 1 0.010294 -0.003085 -0.003467 0.000000 -0.000543 0.000000
# 2 -0.003085 0.028320 -0.004503 0.000000 0.001272 0.000000
# 3 -0.003467 -0.004503 0.009440 0.000000 0.000622 0.000000
# 4 0.000000 0.000000 0.000000 -0.044613 0.000000 0.061133
# 5 -0.000543 0.001272 0.000622 0.000000 0.026554 0.000000
# 6 0.000000 0.000000 0.000000 0.061133 0.000000 0.001282
#
#
# Mechanical properties :
#
#
# Convention : Reuss Voigt Hill
#
# Bulk Modulus (GPa) = 38.54536 57.50291 48.02414
# Shear Modulus (GPa) = 80.60103 23.10777 51.85440
#
# Velocity S-wave (km/s) = 6.47126 3.46496 5.19053
# Velocity P-wave (km/s) = 8.70994 6.77379 7.80215
#
# Compressibility (1/GPa) = 0.02594346
#
# Stress axis : x y z
#
# Youngs Moduli (GPa) = 97.14749 35.31124 105.93387
#
# Poissons Ratio (x) = 0.10893 0.36730
# Poissons Ratio (y) = 0.29968 0.47700
# Poissons Ratio (z) = 0.33684 0.15900
#
# Static dielectric constant tensor:
#      x y z
#    x 1.641570 0.000000 -0.012320 
#    y 0.000000 1.651400 0.000000 
#    z -0.012320 0.000000 1.655940 
# 
# From -- ./inp_files/291501.got.cif
#   From: 2010.05.17/outbox.cif.g08.bks.cpg/sg15_146_cif.got.tgz:291501.got - 2010.06.03 18:47:42.
