data_PCOD9291498
_publ_section_title
;
Structure prediction by ZEFSAII (Michael W. Deem and Ramdas Pophale) SiO2 
 PCOD9291498
Probable space group: C 2/C
;
_chemical_formula_sum "Si O2"
_cell_formula_units_Z 36
_cell_length_a 12.193840
_cell_length_b 5.459678
_cell_length_c 23.383692
_cell_angle_alpha 90.000000
_cell_angle_beta 128.004427
_cell_angle_gamma 90.000000
_cell_volume 1226.666568
_symmetry_space_group_name_H-M "C 2/C"
_symmetry_group_IT_number 15
_symmetry_cell_setting 'monoclinic'
loop_
_space_group_symop_operation_xyz
x,y,z
-x,y,1/2-z
-x,-y,-z
x,-y,1/2+z
1/2+x,1/2+y,z
1/2-x,1/2+y,1/2-z
1/2-x,1/2-y,-z
1/2+x,1/2-y,1/2+z
loop_
_atom_site_type_symbol
_atom_site_label
_atom_site_fract_x
_atom_site_fract_y
_atom_site_fract_z
Si Si1 0.102951 0.811286 0.000875
Si Si2 0.380097 0.934145 0.879733
Si Si3 0.160525 0.681390 0.307908
Si Si4 0.000000 0.770694 0.750000
Si Si5 0.587352 0.578946 0.886633
O O1 0.007019 0.607341 0.939862
O O2 0.161458 0.962718 0.965668
O O3 0.174382 0.682827 0.078050
O O4 0.000000 0.000000 0.000000
O O5 0.179490 0.280322 0.882084
O O6 0.449535 0.725314 0.863574
O O7 0.233974 0.379333 0.182878
O O8 0.864319 0.594087 0.718457
O O9 0.964041 0.875272 0.675271
O O10 0.500000 0.727320 0.750000
#
# Coordination Sequence:
#
# PCOD9291498 Si02
#       5
#     8   8   8   4   8
#     4   9  21  41  70 106 142 190 257 313 387 450
#     4  10  22  45  72 103 147 196 252 319 381 455
#     4  10  24  45  67 106 148 192 253 316 376 463
#     4  10  22  42  68 106 160 190 258 314 376 464
#     4  11  21  44  71 104 144 198 250 310 381 460
#
# _framework density 29.347829999999998
#
# number of rings (size 3 to 8) (size 9 to 14) (size 15 to 20)
#    0.667    1.333    1.111    1.333    0.000    4.444 
#    4.000   15.556    0.000    0.000    0.000    0.000 
#    0.000    0.000    0.000    0.000    0.000    0.000 
#
# Total GULP energy -100612.404581 kJ/mol
# GULP energy per Si atom -5589.578032 kJ/mol
# Density = 2.928103 g / cm^3
# Si number density = 29.347830 Si / 1000 Ang^3
#
#
#
# Elastic Constant Matrix: (Units=GPa)
#
#
# Indices 1 2 3 4 5 6 
#
# 1 109.9956 46.6407 53.4563 0.0000 -0.2305 0.0000
# 2 46.6407 123.4102 97.6416 0.0000 -2.0117 0.0000
# 3 53.4563 97.6416 155.8450 0.0000 -7.7644 0.0000
# 4 0.0000 0.0000 0.0000 63.9159 0.0000 4.9068
# 5 -0.2305 -2.0117 -7.7644 0.0000 75.0787 0.0000
# 6 0.0000 0.0000 0.0000 4.9068 0.0000 53.9471
#
#
#
# Elastic Compliance Matrix: (Units=1/GPa)
#
#
# Indices 1 2 3 4 5 6 
#
# 1 0.011257 -0.002366 -0.002393 0.000000 -0.000276 0.000000
# 2 -0.002366 0.016594 -0.009613 0.000000 -0.000557 0.000000
# 3 -0.002393 -0.009613 0.013315 0.000000 0.001112 0.000000
# 4 0.000000 0.000000 0.000000 0.015756 0.000000 -0.001433
# 5 -0.000276 -0.000557 0.001112 0.000000 0.013419 0.000000
# 6 0.000000 0.000000 0.000000 -0.001433 0.000000 0.018667
#
#
# Mechanical properties :
#
#
# Convention : Reuss Voigt Hill
#
# Bulk Modulus (GPa) = 80.49270 87.19201 83.84235
# Shear Modulus (GPa) = 41.02062 51.35584 46.18823
#
# Velocity S-wave (km/s) = 3.74269 4.18772 3.97145
# Velocity P-wave (km/s) = 6.79438 7.29089 7.04701
#
# Compressibility (1/GPa) = 0.01242349
#
# Stress axis : x y z
#
# Youngs Moduli (GPa) = 88.83666 60.26455 75.10093
#
# Poissons Ratio (x) = 0.14256 0.17970
# Poissons Ratio (y) = 0.21015 0.72192
# Poissons Ratio (z) = 0.21257 0.57930
#
# Static dielectric constant tensor:
#      x y z
#    x 2.365390 0.000000 -0.021000 
#    y 0.000000 2.765760 0.000000 
#    z -0.021000 0.000000 2.257470 
# 
# From -- ./inp_files/250657.got.cif
#   From: 2010.05.17/outbox.cif.g08.bks.cpg/sg15_126_cif.got.tgz:250657.got - 2010.06.03 18:47:42.
