data_PCOD9291614
_publ_section_title
;
Structure prediction by ZEFSAII (Michael W. Deem and Ramdas Pophale) SiO2 
 PCOD9291614
Probable space group: C 2/C
;
_chemical_formula_sum "Si O2"
_cell_formula_units_Z 48
_cell_length_a 21.042252
_cell_length_b 11.152327
_cell_length_c 26.488749
_cell_angle_alpha 90.000000
_cell_angle_beta 20.865943
_cell_angle_gamma 90.000000
_cell_volume 2214.072856
_symmetry_space_group_name_H-M "C 2/C"
_symmetry_group_IT_number 15
_symmetry_cell_setting 'monoclinic'
loop_
_space_group_symop_operation_xyz
x,y,z
-x,y,1/2-z
-x,-y,-z
x,-y,1/2+z
1/2+x,1/2+y,z
1/2-x,1/2+y,1/2-z
1/2-x,1/2-y,-z
1/2+x,1/2-y,1/2+z
loop_
_atom_site_type_symbol
_atom_site_label
_atom_site_fract_x
_atom_site_fract_y
_atom_site_fract_z
Si Si1 0.314058 0.185221 0.902742
Si Si2 0.362686 0.197805 0.494572
Si Si3 0.865469 0.260984 0.563278
Si Si4 0.173146 0.018709 0.712686
Si Si5 0.239760 0.926354 0.983947
Si Si6 0.223866 0.187574 0.760149
O O1 0.500000 0.243741 0.750000
O O2 0.185270 0.196622 0.950910
O O3 0.338097 0.046854 0.897260
O O4 0.250000 0.250000 0.000000
O O5 0.276124 0.117238 0.602314
O O6 0.329738 0.130890 0.466250
O O7 0.270195 0.327103 0.552984
O O8 0.568680 0.225491 0.353782
O O9 0.765069 0.390156 0.637563
O O10 0.799522 0.192180 0.662231
O O11 0.078187 0.276171 0.403738
O O12 0.189577 0.059908 0.758800
O O13 0.965060 0.032406 0.852997
#
# Coordination Sequence:
#
# PCOD9291614 Si02
#       6
#     8   8   8   8   8   8
#     4  12  26  47  72 103 138 185 237 293 356 414
#     4  10  22  42  69 104 141 179 231 287 351 426
#     4  12  25  47  70 102 143 180 238 290 351 431
#     4  11  22  44  71  98 138 188 236 277 359 418
#     4  10  23  42  69 106 135 182 235 297 342 407
#     4  11  24  42  68 105 137 186 227 280 356 416
#
# _framework density 21.679503
#
# number of rings (size 3 to 8) (size 9 to 14) (size 15 to 20)
#    0.000    1.000    1.667    5.000    0.000    4.000 
#    3.000    2.500    0.000    0.000    0.000    0.000 
#    0.000    0.000    0.000    0.000    0.000    0.000 
#
# Total GULP energy -134243.457398 kJ/mol
# GULP energy per Si atom -5593.477392 kJ/mol
# Density = 2.163016 g / cm^3
# Si number density = 21.679503 Si / 1000 Ang^3
#
#
#
# Elastic Constant Matrix: (Units=GPa)
#
#
# Indices 1 2 3 4 5 6 
#
# 1 111.4620 30.1798 3.4778 0.0013 16.6775 -0.0005
# 2 30.1798 78.3682 0.0106 0.0671 27.9551 0.0107
# 3 3.4778 0.0106 81.3365 0.0199 11.8058 0.0056
# 4 0.0013 0.0671 0.0199 25.5948 0.0052 2.0393
# 5 16.6775 27.9551 11.8058 0.0052 32.8004 -0.0002
# 6 -0.0005 0.0107 0.0056 2.0393 -0.0002 16.6436
#
#
#
# Elastic Compliance Matrix: (Units=1/GPa)
#
#
# Indices 1 2 3 4 5 6 
#
# 1 0.010172 -0.002988 -0.000056 0.000008 -0.002605 0.000001
# 2 -0.002988 0.019663 0.002466 -0.000049 -0.016127 -0.000008
# 3 -0.000056 0.002466 0.013292 -0.000015 -0.006857 -0.000004
# 4 0.000008 -0.000049 -0.000015 0.039456 0.000037 -0.004834
# 5 -0.002605 -0.016127 -0.006857 0.000037 0.048025 0.000009
# 6 0.000001 -0.000008 -0.000004 -0.004834 0.000009 0.060675
#
#
# Mechanical properties :
#
#
# Convention : Reuss Voigt Hill
#
# Bulk Modulus (GPa) = 23.82613 37.61147 30.71880
# Shear Modulus (GPa) = 24.22115 30.84099 27.53107
#
# Velocity S-wave (km/s) = 3.34614 3.77581 3.56745
# Velocity P-wave (km/s) = 5.09341 6.03287 5.58294
#
# Compressibility (1/GPa) = 0.04197073
#
# Stress axis : x y z
#
# Youngs Moduli (GPa) = 98.30628 50.85571 75.23324
#
# Poissons Ratio (x) = 0.15196 0.00425
# Poissons Ratio (y) = 0.29375 -0.18553
# Poissons Ratio (z) = 0.00555 -0.12541
#
# Static dielectric constant tensor:
#      x y z
#    x 2.031620 -0.000020 0.096760 
#    y -0.000020 1.775460 -0.000010 
#    z 0.096760 -0.000010 1.808170 
# 
# From -- ./inp_files/300921.got.cif
#   From: 2010.05.17/outbox.cif.g08.bks.cpg/sg15_151_cif.got.tgz:300921.got - 2010.06.03 18:47:42.
