data_PCOD9291405
_publ_section_title
;
Structure prediction by ZEFSAII (Michael W. Deem and Ramdas Pophale) SiO2 
 PCOD9291405
Probable space group: C 2/C
;
_chemical_formula_sum "Si O2"
_cell_formula_units_Z 48
_cell_length_a 12.525818
_cell_length_b 18.762353
_cell_length_c 16.891014
_cell_angle_alpha 90.000000
_cell_angle_beta 36.263144
_cell_angle_gamma 90.000000
_cell_volume 2348.009946
_symmetry_space_group_name_H-M "C 2/C"
_symmetry_group_IT_number 15
_symmetry_cell_setting 'monoclinic'
loop_
_space_group_symop_operation_xyz
x,y,z
-x,y,1/2-z
-x,-y,-z
x,-y,1/2+z
1/2+x,1/2+y,z
1/2-x,1/2+y,1/2-z
1/2-x,1/2-y,-z
1/2+x,1/2-y,1/2+z
loop_
_atom_site_type_symbol
_atom_site_label
_atom_site_fract_x
_atom_site_fract_y
_atom_site_fract_z
Si Si1 0.517792 0.078981 0.645262
Si Si2 0.272518 0.554334 0.967373
Si Si3 0.232819 0.249658 0.767536
Si Si4 0.594209 0.195139 0.114587
Si Si5 0.818917 0.087340 0.754820
Si Si6 0.126692 0.727014 0.502141
O O1 0.500000 0.096213 0.750000
O O2 0.325808 0.056451 0.721078
O O3 0.575847 0.145777 0.555371
O O4 0.666141 0.017879 0.546438
O O5 0.260469 0.576134 0.881336
O O6 0.482015 0.553559 0.866979
O O7 0.178031 0.617742 0.071898
O O8 0.172347 0.171821 0.771700
O O9 0.430042 0.264826 0.614348
O O10 0.071491 0.304119 0.846688
O O11 0.240850 0.253249 0.856892
O O12 0.500000 0.221013 0.250000
O O13 0.750000 0.250000 0.000000
O O14 0.250000 0.750000 0.500000
#
# Coordination Sequence:
#
# PCOD9291405 Si02
#       6
#     8   8   8   8   8   8
#     4  11  24  45  66  93 136 179 222 278 335 399
#     4  11  23  42  66  97 134 177 222 274 340 408
#     4  11  22  39  66  96 127 172 213 276 335 384
#     4  12  22  37  62  96 130 164 216 270 332 399
#     4  10  22  42  67  92 135 175 215 277 342 388
#     4  11  23  44  66  93 129 174 225 274 326 391
#
# _framework density 20.442843
#
# number of rings (size 3 to 8) (size 9 to 14) (size 15 to 20)
#    0.000    1.000    1.667    7.500    0.000    0.667 
#    9.000    0.000    0.000    0.000    0.000    0.000 
#    0.000    0.000    0.000    0.000    0.000    0.000 
#
# Total GULP energy -134008.349189 kJ/mol
# GULP energy per Si atom -5583.681216 kJ/mol
# Density = 2.039631 g / cm^3
# Si number density = 20.442843 Si / 1000 Ang^3
#
#
#
# Elastic Constant Matrix: (Units=GPa)
#
#
# Indices 1 2 3 4 5 6 
#
# 1 99.7003 4.8132 2.2905 0.0031 -12.8467 -0.0013
# 2 4.8132 62.4904 30.2021 0.0080 -12.8813 -0.0048
# 3 2.2905 30.2021 81.6784 0.0081 -2.1344 -0.0058
# 4 0.0031 0.0080 0.0081 17.2703 -0.0053 -2.0956
# 5 -12.8467 -12.8813 -2.1344 -0.0053 50.3924 0.0034
# 6 -0.0013 -0.0048 -0.0058 -2.0956 0.0034 29.2588
#
#
#
# Elastic Compliance Matrix: (Units=1/GPa)
#
#
# Indices 1 2 3 4 5 6 
#
# 1 0.010377 -0.000192 -0.000152 -0.000001 0.002590 0.000000
# 2 -0.000192 0.020657 -0.007505 -0.000004 0.004914 0.000001
# 3 -0.000152 -0.007505 0.014988 -0.000004 -0.001322 0.000002
# 4 -0.000001 -0.000004 -0.000004 0.058411 0.000004 0.004184
# 5 0.002590 0.004914 -0.001322 0.000004 0.021705 -0.000002
# 6 0.000000 0.000001 0.000002 0.004184 -0.000002 0.034477
#
#
# Mechanical properties :
#
#
# Convention : Reuss Voigt Hill
#
# Bulk Modulus (GPa) = 32.97715 35.38676 34.18195
# Shear Modulus (GPa) = 26.82123 33.15517 29.98820
#
# Velocity S-wave (km/s) = 3.62610 4.03159 3.83421
# Velocity P-wave (km/s) = 5.80499 6.24654 6.02981
#
# Compressibility (1/GPa) = 0.03032403
#
# Stress axis : x y z
#
# Youngs Moduli (GPa) = 96.37134 48.40950 66.72085
#
# Poissons Ratio (x) = 0.00928 0.01017
# Poissons Ratio (y) = 0.01848 0.50071
# Poissons Ratio (z) = 0.01469 0.36329
#
# Static dielectric constant tensor:
#      x y z
#    x 1.778720 0.000000 -0.002920 
#    y 0.000000 1.730520 0.000000 
#    z -0.002920 0.000000 1.728230 
# 
# From -- ./inp_files/147361.got.cif
#   From: 2010.05.17/outbox.cif.g08.bks.cpg/sg15_74_cif.got.tgz:147361.got - 2010.06.03 18:47:42.
