data_PCOD9291848
_publ_section_title
;
Structure prediction by ZEFSAII (Michael W. Deem and Ramdas Pophale) SiO2 
 PCOD9291848
Probable space group: C 2/C
;
_chemical_formula_sum "Si O2"
_cell_formula_units_Z 48
_cell_length_a 16.371363
_cell_length_b 14.151743
_cell_length_c 17.057373
_cell_angle_alpha 90.000000
_cell_angle_beta 147.455440
_cell_angle_gamma 90.000000
_cell_volume 2125.950569
_symmetry_space_group_name_H-M "C 2/C"
_symmetry_group_IT_number 15
_symmetry_cell_setting 'monoclinic'
loop_
_space_group_symop_operation_xyz
x,y,z
-x,y,1/2-z
-x,-y,-z
x,-y,1/2+z
1/2+x,1/2+y,z
1/2-x,1/2+y,1/2-z
1/2-x,1/2-y,-z
1/2+x,1/2-y,1/2+z
loop_
_atom_site_type_symbol
_atom_site_label
_atom_site_fract_x
_atom_site_fract_y
_atom_site_fract_z
Si Si1 0.405370 0.166338 0.372031
Si Si2 0.597196 0.494895 0.965308
Si Si3 0.850751 0.296523 0.321490
Si Si4 0.180895 0.331917 0.387961
Si Si5 0.905542 0.792143 0.095565
Si Si6 0.722194 0.491403 0.241894
O O1 0.237506 0.205660 0.220880
O O2 0.476435 0.202628 0.511414
O O3 0.511353 0.215117 0.392895
O O4 0.370453 0.056299 0.352294
O O5 0.615212 0.605064 0.959748
O O6 0.415689 0.473549 0.814385
O O7 0.709141 0.423040 0.011050
O O8 0.649525 0.483126 0.097234
O O9 0.819876 0.304015 0.204697
O O10 0.775729 0.385972 0.305215
O O11 0.250000 0.250000 0.500000
O O12 0.000000 0.352672 0.250000
O O13 0.000000 0.808855 0.250000
O O14 0.750000 0.750000 0.000000
#
# Coordination Sequence:
#
# PCOD9291848 Si02
#       6
#     8   8   8   8   8   8
#     4  12  24  43  72 102 135 182 235 291 341 419
#     4  10  23  45  69 101 138 182 227 290 350 410
#     4  11  24  43  70 102 134 180 234 281 348 413
#     4  11  26  46  68 103 142 183 226 284 354 417
#     4  12  26  45  69 102 140 183 228 287 357 414
#     4  10  22  42  73 100 134 177 237 289 338 412
#
# _framework density 22.578133999999999
#
# number of rings (size 3 to 8) (size 9 to 14) (size 15 to 20)
#    0.000    1.000    1.667    4.500    7.000    4.000 
#    3.000    0.000    0.000    0.000    0.000    0.000 
#    0.000    0.000    0.000    0.000    0.000    0.000 
#
# Total GULP energy -134003.021975 kJ/mol
# GULP energy per Si atom -5583.459249 kJ/mol
# Density = 2.252675 g / cm^3
# Si number density = 22.578134 Si / 1000 Ang^3
#
#
#
# Elastic Constant Matrix: (Units=GPa)
#
#
# Indices 1 2 3 4 5 6 
#
# 1 81.8274 42.5047 17.6147 0.0002 28.6645 0.0001
# 2 42.5047 103.4658 18.9059 0.0002 19.5688 0.0001
# 3 17.6147 18.9059 75.3399 0.0003 7.2630 0.0003
# 4 0.0002 0.0002 0.0003 33.9204 0.0004 -3.1711
# 5 28.6645 19.5688 7.2630 0.0004 39.0266 0.0003
# 6 0.0001 0.0001 0.0003 -3.1711 0.0003 24.1206
#
#
#
# Elastic Compliance Matrix: (Units=1/GPa)
#
#
# Indices 1 2 3 4 5 6 
#
# 1 0.019419 -0.005493 -0.002090 0.000000 -0.011120 0.000000
# 2 -0.005493 0.012603 -0.001688 0.000000 -0.001971 0.000000
# 3 -0.002090 -0.001688 0.014211 0.000000 -0.000263 0.000000
# 4 0.000000 0.000000 0.000000 0.029848 0.000000 0.003924
# 5 -0.011120 -0.001971 -0.000263 0.000000 0.034828 0.000000
# 6 0.000000 0.000000 0.000000 0.003924 0.000000 0.041974
#
#
# Mechanical properties :
#
#
# Convention : Reuss Voigt Hill
#
# Bulk Modulus (GPa) = 36.11274 46.52040 41.31657
# Shear Modulus (GPa) = 27.67707 31.52070 29.59888
#
# Velocity S-wave (km/s) = 3.50499 3.74046 3.62464
# Velocity P-wave (km/s) = 5.69291 6.26926 5.98802
#
# Compressibility (1/GPa) = 0.02769106
#
# Stress axis : x y z
#
# Youngs Moduli (GPa) = 51.49533 79.34824 70.36872
#
# Poissons Ratio (x) = 0.43582 0.14707
# Poissons Ratio (y) = 0.28284 0.11881
# Poissons Ratio (z) = 0.10762 0.13397
#
# Static dielectric constant tensor:
#      x y z
#    x 1.875150 0.000000 0.030550 
#    y 0.000000 1.834810 0.000000 
#    z 0.030550 0.000000 1.866480 
# 
# From -- ./inp_files/66491.got.cif
#   From: 2010.05.17/outbox.cif.g08.bks.cpg/sg15_34_cif.got.tgz:66491.got - 2010.06.03 18:47:42.
