data_PCOD9291736
_publ_section_title
;
Structure prediction by ZEFSAII (Michael W. Deem and Ramdas Pophale) SiO2 
 PCOD9291736
Probable space group: C 2/C
;
_chemical_formula_sum "Si O2"
_cell_formula_units_Z 32
_cell_length_a 7.429865
_cell_length_b 18.314480
_cell_length_c 12.228984
_cell_angle_alpha 90.000000
_cell_angle_beta 53.006141
_cell_angle_gamma 90.000000
_cell_volume 1329.075281
_symmetry_space_group_name_H-M "C 2/C"
_symmetry_group_IT_number 15
_symmetry_cell_setting 'monoclinic'
loop_
_space_group_symop_operation_xyz
x,y,z
-x,y,1/2-z
-x,-y,-z
x,-y,1/2+z
1/2+x,1/2+y,z
1/2-x,1/2+y,1/2-z
1/2-x,1/2-y,-z
1/2+x,1/2-y,1/2+z
loop_
_atom_site_type_symbol
_atom_site_label
_atom_site_fract_x
_atom_site_fract_y
_atom_site_fract_z
Si Si1 0.030307 0.074472 0.613903
Si Si2 0.555888 0.164301 0.020429
Si Si3 0.136390 0.223947 0.301136
Si Si4 0.187511 0.910477 0.518186
O O1 0.242980 0.121593 0.495396
O O2 0.000000 0.096049 0.750000
O O3 0.821848 0.089054 0.610102
O O4 0.092548 0.989279 0.586471
O O5 0.378323 0.200007 0.168139
O O6 0.418309 0.106813 0.995156
O O7 0.641177 0.225662 0.905374
O O8 0.000000 0.261248 0.250000
O O9 0.982122 0.153330 0.382306
#
# Coordination Sequence:
#
# PCOD9291736 Si02
#       4
#     8   8   8   8
#     4  11  25  41  68 102 131 172 231 274 327 407
#     4  11  24  43  70  98 134 180 219 276 338 393
#     4  10  22  42  70  97 137 176 223 274 338 397
#     4  10  23  45  66  96 138 174 217 281 335 396
#
# _framework density 24.076891
#
# number of rings (size 3 to 8) (size 9 to 14) (size 15 to 20)
#    0.000    1.500    0.000    6.000    7.000    2.000 
#    0.000    5.000    0.000    0.000    0.000    0.000 
#    0.000    0.000    0.000    0.000    0.000    0.000 
#
# Total GULP energy -89673.961553 kJ/mol
# GULP energy per Si atom -5604.622597 kJ/mol
# Density = 2.402209 g / cm^3
# Si number density = 24.076891 Si / 1000 Ang^3
#
#
#
# Elastic Constant Matrix: (Units=GPa)
#
#
# Indices 1 2 3 4 5 6 
#
# 1 87.5060 3.3876 -18.6313 0.0000 9.6221 0.0000
# 2 3.3876 104.0989 -15.5320 0.0000 -6.7141 0.0000
# 3 -18.6313 -15.5320 36.7294 0.0000 13.9591 0.0000
# 4 0.0000 0.0000 0.0000 -15.3311 0.0000 61.3913
# 5 9.6221 -6.7141 13.9591 0.0000 26.8406 0.0000
# 6 0.0000 0.0000 0.0000 61.3913 0.0000 -90.5633
#
#
#
# Elastic Compliance Matrix: (Units=1/GPa)
#
#
# Indices 1 2 3 4 5 6 
#
# 1 0.015397 0.000610 0.012598 0.000000 -0.011919 0.000000
# 2 0.000610 0.010281 0.004689 0.000000 -0.000086 0.000000
# 3 0.012598 0.004689 0.045953 0.000000 -0.027242 0.000000
# 4 0.000000 0.000000 0.000000 0.038045 0.000000 0.025790
# 5 -0.011919 -0.000086 -0.027242 0.000000 0.055676 0.000000
# 6 0.000000 0.000000 0.000000 0.025790 0.000000 0.006440
#
#
# Mechanical properties :
#
#
# Convention : Reuss Voigt Hill
#
# Bulk Modulus (GPa) = 9.30879 18.53145 13.92012
# Shear Modulus (GPa) = 29.10260 1.46321 15.28291
#
# Velocity S-wave (km/s) = 3.48046 0.78041 2.52217
# Velocity P-wave (km/s) = 4.47506 2.91985 3.77834
#
# Compressibility (1/GPa) = 0.10742535
#
# Stress axis : x y z
#
# Youngs Moduli (GPa) = 64.94737 97.27116 21.76131
#
# Poissons Ratio (x) = -0.05932 -0.27415
# Poissons Ratio (y) = -0.03961 -0.10205
# Poissons Ratio (z) = -0.81821 -0.45614
#
# Static dielectric constant tensor:
#      x y z
#    x 1.916320 0.000000 0.043250 
#    y 0.000000 1.881920 0.000000 
#    z 0.043250 0.000000 1.938390 
# 
# From -- ./inp_files/22057.got.cif
#   From: 2010.05.17/outbox.cif.g08.bks.cpg/sg15_12_cif.got.tgz:22057.got - 2010.06.03 18:47:42.
