data_PCOD9291127
_publ_section_title
;
Structure prediction by ZEFSAII (Michael W. Deem and Ramdas Pophale) SiO2 
 PCOD9291127
Probable space group: C 2/C
;
_chemical_formula_sum "Si O2"
_cell_formula_units_Z 60
_cell_length_a 10.476705
_cell_length_b 9.261306
_cell_length_c 29.419642
_cell_angle_alpha 90.000000
_cell_angle_beta 122.906505
_cell_angle_gamma 90.000000
_cell_volume 2396.542503
_symmetry_space_group_name_H-M "C 2/C"
_symmetry_group_IT_number 15
_symmetry_cell_setting 'monoclinic'
loop_
_space_group_symop_operation_xyz
x,y,z
-x,y,1/2-z
-x,-y,-z
x,-y,1/2+z
1/2+x,1/2+y,z
1/2-x,1/2+y,1/2-z
1/2-x,1/2-y,-z
1/2+x,1/2-y,1/2+z
loop_
_atom_site_type_symbol
_atom_site_label
_atom_site_fract_x
_atom_site_fract_y
_atom_site_fract_z
Si Si1 0.000000 0.963605 0.750000
Si Si2 0.173278 0.625380 0.424655
Si Si3 0.499352 0.922834 0.695809
Si Si4 0.639398 0.638930 0.702195
Si Si5 0.135275 0.950025 0.416395
Si Si6 0.130117 0.134267 0.497179
Si Si7 0.895808 0.339822 0.933940
Si Si8 0.637138 0.199463 0.826938
O O1 0.073289 0.852752 0.799749
O O2 0.120166 0.063898 0.746964
O O3 0.286761 0.498755 0.461136
O O4 0.143203 0.623702 0.364280
O O5 0.016193 0.596196 0.422113
O O6 0.193573 0.792540 0.442120
O O7 0.500000 0.895483 0.750000
O O8 0.627632 0.812333 0.703674
O O9 0.495954 0.092936 0.682959
O O10 0.493913 0.582451 0.645668
O O11 0.788013 0.614694 0.701142
O O12 0.060036 0.051183 0.440601
O O13 0.285987 0.034866 0.430598
O O14 0.250000 0.250000 0.500000
O O15 0.037372 0.237853 0.513184
O O16 0.777052 0.231334 0.886628
#
# Coordination Sequence:
#
# PCOD9291127 Si02
#       8
#     4   8   8   8   8   8   8   8
#     4  12  26  40  72  92 128 172 218 266 318 398
#     4  11  23  43  67  93 133 174 212 272 322 384
#     4  11  23  42  64  95 133 165 213 265 316 381
#     4  11  25  43  64  96 130 169 214 266 323 385
#     4  10  22  42  64  96 130 166 216 267 320 387
#     4  10  23  42  68  95 131 169 218 276 320 385
#     4  11  22  42  67  95 131 168 216 264 323 383
#     4  12  24  42  65  96 127 170 212 262 326 380
#
# _framework density 25.036066999999999
#
# number of rings (size 3 to 8) (size 9 to 14) (size 15 to 20)
#    0.000    1.067    6.667    0.400    1.867    2.667 
#    0.000   10.667    0.000    0.000    0.000    0.000 
#    0.000    0.000    0.000    0.000    0.000    0.000 
#
# Total GULP energy -167537.516992 kJ/mol
# GULP energy per Si atom -5584.583900 kJ/mol
# Density = 2.497908 g / cm^3
# Si number density = 25.036067 Si / 1000 Ang^3
#
#
#
# Elastic Constant Matrix: (Units=GPa)
#
#
# Indices 1 2 3 4 5 6 
#
# 1 75.5951 34.0471 3.4994 0.0000 -6.6758 0.0000
# 2 34.0471 110.3748 3.6002 0.0000 -6.1326 0.0000
# 3 3.4994 3.6002 50.7568 0.0000 -13.6515 0.0000
# 4 0.0000 0.0000 0.0000 31.6633 0.0000 -9.0330
# 5 -6.6758 -6.1326 -13.6515 0.0000 22.4541 0.0000
# 6 0.0000 0.0000 0.0000 -9.0330 0.0000 39.6679
#
#
#
# Elastic Compliance Matrix: (Units=1/GPa)
#
#
# Indices 1 2 3 4 5 6 
#
# 1 0.015612 -0.004628 0.000192 0.000000 0.003494 0.000000
# 2 -0.004628 0.010572 -0.000029 0.000000 0.001494 0.000000
# 3 0.000192 -0.000029 0.023556 0.000000 0.014370 0.000000
# 4 0.000000 0.000000 0.000000 0.033777 0.000000 0.007691
# 5 0.003494 0.001494 0.014370 0.000000 0.054719 0.000000
# 6 0.000000 0.000000 0.000000 0.007691 0.000000 0.026961
#
#
# Mechanical properties :
#
#
# Convention : Reuss Voigt Hill
#
# Bulk Modulus (GPa) = 24.50443 35.44667 29.97555
# Shear Modulus (GPa) = 26.63403 31.79573 29.21488
#
# Velocity S-wave (km/s) = 3.26517 3.56757 3.41971
# Velocity P-wave (km/s) = 4.90143 5.58203 5.25276
#
# Compressibility (1/GPa) = 0.04080895
#
# Stress axis : x y z
#
# Youngs Moduli (GPa) = 64.05127 94.59314 42.45266
#
# Poissons Ratio (x) = 0.43778 -0.00814
# Poissons Ratio (y) = 0.29643 0.00123
# Poissons Ratio (z) = -0.01228 0.00275
#
# Static dielectric constant tensor:
#      x y z
#    x 1.945390 0.000000 -0.017660 
#    y 0.000000 1.965470 0.000000 
#    z -0.017660 0.000000 2.132870 
# 
# From -- ./inp_files/310289.got.cif
#   From: 2010.05.17/outbox.cif.g08.bks.cpg/sg15_156_cif.got.tgz:310289.got - 2010.06.03 18:47:42.
