data_PCOD9291558
_publ_section_title
;
Structure prediction by ZEFSAII (Michael W. Deem and Ramdas Pophale) SiO2 
 PCOD9291558
Probable space group: C 2/C
;
_chemical_formula_sum "Si O2"
_cell_formula_units_Z 52
_cell_length_a 9.983512
_cell_length_b 18.314485
_cell_length_c 12.568797
_cell_angle_alpha 90.000000
_cell_angle_beta 89.053203
_cell_angle_gamma 90.000000
_cell_volume 2297.801289
_symmetry_space_group_name_H-M "C 2/C"
_symmetry_group_IT_number 15
_symmetry_cell_setting 'monoclinic'
loop_
_space_group_symop_operation_xyz
x,y,z
-x,y,1/2-z
-x,-y,-z
x,-y,1/2+z
1/2+x,1/2+y,z
1/2-x,1/2+y,1/2-z
1/2-x,1/2-y,-z
1/2+x,1/2-y,1/2+z
loop_
_atom_site_type_symbol
_atom_site_label
_atom_site_fract_x
_atom_site_fract_y
_atom_site_fract_z
Si Si1 0.862444 0.325080 0.201699
Si Si2 0.000000 0.486899 0.750000
Si Si3 0.228117 0.838426 0.002942
Si Si4 0.850790 0.152156 0.225119
Si Si5 0.288656 0.933715 0.600248
Si Si6 0.950062 0.954790 0.398920
Si Si7 0.756143 0.071487 0.650498
O O1 0.844880 0.358353 0.084598
O O2 0.863715 0.238098 0.203346
O O3 0.750948 0.353342 0.283637
O O4 0.000000 0.349695 0.250000
O O5 0.934917 0.447848 0.647232
O O6 0.864953 0.524086 0.799295
O O7 0.097584 0.873334 0.063471
O O8 0.250000 0.750000 0.000000
O O9 0.217687 0.872527 0.885223
O O10 0.765838 0.133435 0.329092
O O11 0.000000 0.123487 0.250000
O O12 0.275497 0.920788 0.474556
O O13 0.184894 0.000446 0.627470
O O14 0.909593 0.953398 0.165617
O O15 0.000000 0.000000 0.500000
#
# Coordination Sequence:
#
# PCOD9291558 Si02
#       7
#     8   4   8   8   8   8   8
#     4  10  22  42  68  97 134 190 230 286 350 425
#     4  12  26  40  64  96 142 182 216 290 358 426
#     4  10  22  43  70 103 140 188 237 292 363 430
#     4  10  22  42  69  98 136 180 234 287 357 426
#     4  11  26  41  67 102 136 179 226 296 356 427
#     4  10  23  43  71 103 135 181 237 295 347 432
#     4  11  24  45  67  98 135 179 239 284 355 422
#
# _framework density 22.630329
#
# number of rings (size 3 to 8) (size 9 to 14) (size 15 to 20)
#    0.000    1.538    0.769    3.231    6.462    3.692 
#    0.000    3.077    0.000    0.000    0.000    0.000 
#    0.000    0.000    0.000    0.000    0.000    0.000 
#
# Total GULP energy -144809.565783 kJ/mol
# GULP energy per Si atom -5569.598684 kJ/mol
# Density = 2.257882 g / cm^3
# Si number density = 22.630329 Si / 1000 Ang^3
#
#
#
# Elastic Constant Matrix: (Units=GPa)
#
#
# Indices 1 2 3 4 5 6 
#
# 1 97.1027 17.0244 47.0833 0.0000 29.8872 0.0000
# 2 17.0244 41.5945 5.6198 0.0000 8.6804 0.0000
# 3 47.0833 5.6198 202.7030 0.0000 35.3179 0.0000
# 4 0.0000 0.0000 0.0000 23.4228 0.0000 -13.4162
# 5 29.8872 8.6804 35.3179 0.0000 51.0849 0.0000
# 6 0.0000 0.0000 0.0000 -13.4162 0.0000 26.4711
#
#
#
# Elastic Compliance Matrix: (Units=1/GPa)
#
#
# Indices 1 2 3 4 5 6 
#
# 1 0.013868 -0.004149 -0.002064 0.000000 -0.005981 0.000000
# 2 -0.004149 0.026167 0.000671 0.000000 -0.002483 0.000000
# 3 -0.002064 0.000671 0.005916 0.000000 -0.002997 0.000000
# 4 0.000000 0.000000 0.000000 0.060157 0.000000 0.030489
# 5 -0.005981 -0.002483 -0.002997 0.000000 0.025568 0.000000
# 6 0.000000 0.000000 0.000000 0.030489 0.000000 0.053230
#
#
# Mechanical properties :
#
#
# Convention : Reuss Voigt Hill
#
# Bulk Modulus (GPa) = 28.68024 53.42835 41.05430
# Shear Modulus (GPa) = 24.08332 38.30727 31.19529
#
# Velocity S-wave (km/s) = 3.26576 4.11876 3.71681
# Velocity P-wave (km/s) = 5.18855 6.80289 6.04981
#
# Compressibility (1/GPa) = 0.03486721
#
# Stress axis : x y z
#
# Youngs Moduli (GPa) = 72.11100 38.21567 169.02550
#
# Poissons Ratio (x) = 0.15855 0.34886
# Poissons Ratio (y) = 0.29917 -0.11338
# Poissons Ratio (z) = 0.14883 -0.02564
#
# Static dielectric constant tensor:
#      x y z
#    x 1.923420 0.000000 0.083240 
#    y 0.000000 1.892550 0.000000 
#    z 0.083240 0.000000 2.013940 
# 
# From -- ./inp_files/89085.got.cif
#   From: 2010.05.17/outbox.cif.g08.bks.cpg/sg15_45_cif.got.tgz:89085.got - 2010.06.03 18:47:42.
