data_PCOD9291247
_publ_section_title
;
Structure prediction by ZEFSAII (Michael W. Deem and Ramdas Pophale) SiO2 
 PCOD9291247
Probable space group: C 2/C
;
_chemical_formula_sum "Si O2"
_cell_formula_units_Z 44
_cell_length_a 7.061529
_cell_length_b 28.376822
_cell_length_c 9.126287
_cell_angle_alpha 90.000000
_cell_angle_beta 69.318369
_cell_angle_gamma 90.000000
_cell_volume 1710.909430
_symmetry_space_group_name_H-M "C 2/C"
_symmetry_group_IT_number 15
_symmetry_cell_setting 'monoclinic'
loop_
_space_group_symop_operation_xyz
x,y,z
-x,y,1/2-z
-x,-y,-z
x,-y,1/2+z
1/2+x,1/2+y,z
1/2-x,1/2+y,1/2-z
1/2-x,1/2-y,-z
1/2+x,1/2-y,1/2+z
loop_
_atom_site_type_symbol
_atom_site_label
_atom_site_fract_x
_atom_site_fract_y
_atom_site_fract_z
Si Si1 0.083936 0.870766 0.401777
Si Si2 0.736969 0.194964 0.032767
Si Si3 0.699544 0.152345 0.356282
Si Si4 0.161629 0.969091 0.038482
Si Si5 0.500000 0.087138 0.750000
Si Si6 0.891098 0.548514 0.107661
O O1 0.157488 0.852867 0.542820
O O2 0.299228 0.882968 0.269833
O O3 0.923160 0.831035 0.406644
O O4 0.952069 0.918978 0.422133
O O5 0.523466 0.171817 0.043017
O O6 0.245236 0.183938 0.297957
O O7 0.750000 0.250000 0.000000
O O8 0.689016 0.097777 0.310345
O O9 0.237979 0.004137 0.149683
O O10 0.380076 0.961289 0.904006
O O11 0.000000 0.000000 0.000000
O O12 0.432024 0.060715 0.919153
#
# Coordination Sequence:
#
# PCOD9291247 Si02
#       6
#     8   8   8   8   4   8
#     4  11  23  46  71 108 149 196 248 305 385 448
#     4  11  25  48  74 105 143 195 259 325 390 444
#     4  10  22  47  74 105 146 190 245 318 375 465
#     4  11  20  41  69 103 151 198 245 295 363 457
#     4  10  22  42  66 102 150 192 238 300 358 458
#     4  10  22  42  68 108 151 192 250 292 375 463
#
# _framework density 25.717313999999998
#
# number of rings (size 3 to 8) (size 9 to 14) (size 15 to 20)
#    0.000    1.455    5.455    0.545    0.000    1.455 
#   19.636    0.000    0.000    0.000    0.000    0.000 
#    0.000    0.000    0.000    0.000    0.000    0.000 
#
# Total GULP energy -122935.925168 kJ/mol
# GULP energy per Si atom -5587.996599 kJ/mol
# Density = 2.565878 g / cm^3
# Si number density = 25.717314 Si / 1000 Ang^3
#
#
#
# Elastic Constant Matrix: (Units=GPa)
#
#
# Indices 1 2 3 4 5 6 
#
# 1 234.1553 81.0229 56.1060 0.0000 -15.0186 0.0000
# 2 81.0229 221.1321 56.8323 0.0000 -5.2602 0.0000
# 3 56.1060 56.8323 137.7264 0.0000 -12.7455 0.0000
# 4 0.0000 0.0000 0.0000 21.6039 0.0000 22.9582
# 5 -15.0186 -5.2602 -12.7455 0.0000 51.2574 0.0000
# 6 0.0000 0.0000 0.0000 22.9582 0.0000 23.5887
#
#
#
# Elastic Compliance Matrix: (Units=1/GPa)
#
#
# Indices 1 2 3 4 5 6 
#
# 1 0.005197 -0.001521 -0.001395 0.000000 0.001020 0.000000
# 2 -0.001521 0.005504 -0.001679 0.000000 -0.000298 0.000000
# 3 -0.001395 -0.001679 0.008668 0.000000 0.001574 0.000000
# 4 0.000000 0.000000 0.000000 -1.350263 0.000000 1.314169
# 5 0.001020 -0.000298 0.001574 0.000000 0.020169 0.000000
# 6 0.000000 0.000000 0.000000 1.314169 0.000000 -1.236647
#
#
# Mechanical properties :
#
#
# Convention : Reuss Voigt Hill
#
# Bulk Modulus (GPa) = 98.25368 108.99289 103.62329
# Shear Modulus (GPa) = -1.97255 45.89350 21.96047
#
# Velocity S-wave (km/s) = -0.87674 4.22896 2.92536
# Velocity P-wave (km/s) = 6.10437 8.14362 7.19659
#
# Compressibility (1/GPa) = 0.01017774
#
# Stress axis : x y z
#
# Youngs Moduli (GPa) = 192.42947 181.68479 115.37279
#
# Poissons Ratio (x) = 0.27640 0.16093
# Poissons Ratio (y) = 0.29275 0.19372
# Poissons Ratio (z) = 0.26841 0.30507
#
# Static dielectric constant tensor:
#      x y z
#    x 2.726480 0.000000 0.606640 
#    y 0.000000 1.945670 0.000000 
#    z 0.606640 0.000000 2.676410 
# 
# From -- ./inp_files/129727.got.cif
#   From: 2010.05.17/outbox.cif.g08.bks.cpg/sg15_65_cif.got.tgz:129727.got - 2010.06.03 18:47:42.
