data_PCOD9291694
_publ_section_title
;
Structure prediction by ZEFSAII (Michael W. Deem and Ramdas Pophale) SiO2 
 PCOD9291694
Probable space group: C 2/C
;
_chemical_formula_sum "Si O2"
_cell_formula_units_Z 40
_cell_length_a 19.656087
_cell_length_b 17.864803
_cell_length_c 8.820966
_cell_angle_alpha 90.000000
_cell_angle_beta 32.116978
_cell_angle_gamma 90.000000
_cell_volume 1646.785059
_symmetry_space_group_name_H-M "C 2/C"
_symmetry_group_IT_number 15
_symmetry_cell_setting 'monoclinic'
loop_
_space_group_symop_operation_xyz
x,y,z
-x,y,1/2-z
-x,-y,-z
x,-y,1/2+z
1/2+x,1/2+y,z
1/2-x,1/2+y,1/2-z
1/2-x,1/2-y,-z
1/2+x,1/2-y,1/2+z
loop_
_atom_site_type_symbol
_atom_site_label
_atom_site_fract_x
_atom_site_fract_y
_atom_site_fract_z
Si Si1 0.500000 0.989415 0.250000
Si Si2 0.894649 0.773595 0.678871
Si Si3 0.758913 0.237130 0.165744
Si Si4 0.500000 0.381959 0.750000
Si Si5 0.233592 0.409452 0.348992
Si Si6 0.436211 0.862953 0.564891
O O1 0.520348 0.931055 0.347707
O O2 0.679417 0.098880 0.122303
O O3 0.869011 0.802288 0.555665
O O4 0.958550 0.829912 0.681772
O O5 0.983346 0.699716 0.499877
O O6 0.750000 0.750000 0.000000
O O7 0.634318 0.186527 0.430615
O O8 0.750000 0.250000 0.000000
O O9 0.764757 0.323041 0.205598
O O10 0.621165 0.430469 0.463408
O O11 0.123580 0.460406 0.485874
#
# Coordination Sequence:
#
# PCOD9291694 Si02
#       6
#     4   8   8   4   8   8
#     4  12  25  46  78 105 152 204 258 308 381 468
#     4  12  21  40  74 109 149 191 246 323 371 446
#     4  10  22  42  70 108 146 185 257 312 373 429
#     4  12  25  44  68 111 152 192 246 314 393 442
#     4  11  24  45  69 109 152 197 246 321 380 451
#     4  11  24  46  72 113 145 201 266 306 376 470
#
# _framework density 24.289750000000002
#
# number of rings (size 3 to 8) (size 9 to 14) (size 15 to 20)
#    0.000    0.800    4.000    3.600    0.000    2.400 
#    3.600    1.000    0.000    0.000    0.000    0.000 
#    0.000    0.000    0.000    0.000    0.000    0.000 
#
# Total GULP energy -111374.307985 kJ/mol
# GULP energy per Si atom -5568.715399 kJ/mol
# Density = 2.423447 g / cm^3
# Si number density = 24.289750 Si / 1000 Ang^3
#
#
#
# Elastic Constant Matrix: (Units=GPa)
#
#
# Indices 1 2 3 4 5 6 
#
# 1 175.1252 38.8068 32.7252 0.0000 -15.1182 0.0000
# 2 38.8068 88.3429 29.5041 0.0000 -10.8932 0.0000
# 3 32.7252 29.5041 171.2591 -0.0001 -29.1823 0.0000
# 4 0.0000 0.0000 -0.0001 35.9634 0.0000 -10.0664
# 5 -15.1182 -10.8932 -29.1823 0.0000 42.6527 0.0000
# 6 0.0000 0.0000 0.0000 -10.0664 0.0000 18.8009
#
#
#
# Elastic Compliance Matrix: (Units=1/GPa)
#
#
# Indices 1 2 3 4 5 6 
#
# 1 0.006482 -0.002494 -0.000595 0.000000 0.001253 0.000000
# 2 -0.002494 0.013103 -0.001541 0.000000 0.001408 0.000000
# 3 -0.000595 -0.001541 0.006922 0.000000 0.004132 0.000000
# 4 0.000000 0.000000 0.000000 0.032708 0.000000 0.017512
# 5 0.001253 0.001408 0.004132 0.000000 0.027076 0.000000
# 6 0.000000 0.000000 0.000000 0.017512 0.000000 0.062565
#
#
# Mechanical properties :
#
#
# Convention : Reuss Voigt Hill
#
# Bulk Modulus (GPa) = 57.98037 70.75549 64.36793
# Shear Modulus (GPa) = 30.51253 41.72947 36.12100
#
# Velocity S-wave (km/s) = 3.54812 4.14936 3.86046
# Velocity P-wave (km/s) = 6.38026 7.22144 6.81384
#
# Compressibility (1/GPa) = 0.01724722
#
# Stress axis : x y z
#
# Youngs Moduli (GPa) = 154.26509 76.31614 144.45937
#
# Poissons Ratio (x) = 0.19034 0.08602
# Poissons Ratio (y) = 0.38476 0.22259
# Poissons Ratio (z) = 0.09186 0.11759
#
# Static dielectric constant tensor:
#      x y z
#    x 2.112040 0.000000 0.065690 
#    y 0.000000 1.928350 0.000000 
#    z 0.065690 0.000000 2.160010 
# 
# From -- ./inp_files/50005.got.cif
#   From: 2010.05.17/outbox.cif.g08.bks.cpg/sg15_26_cif.got.tgz:50005.got - 2010.06.03 18:47:42.
