data_PCOD9291556
_publ_section_title
;
Structure prediction by ZEFSAII (Michael W. Deem and Ramdas Pophale) SiO2 
 PCOD9291556
Probable space group: C 2/C
;
_chemical_formula_sum "Si O2"
_cell_formula_units_Z 44
_cell_length_a 9.090078
_cell_length_b 7.909270
_cell_length_c 28.625768
_cell_angle_alpha 90.000000
_cell_angle_beta 114.003489
_cell_angle_gamma 90.000000
_cell_volume 1880.093922
_symmetry_space_group_name_H-M "C 2/C"
_symmetry_group_IT_number 15
_symmetry_cell_setting 'monoclinic'
loop_
_space_group_symop_operation_xyz
x,y,z
-x,y,1/2-z
-x,-y,-z
x,-y,1/2+z
1/2+x,1/2+y,z
1/2-x,1/2+y,1/2-z
1/2-x,1/2-y,-z
1/2+x,1/2-y,1/2+z
loop_
_atom_site_type_symbol
_atom_site_label
_atom_site_fract_x
_atom_site_fract_y
_atom_site_fract_z
Si Si1 0.748673 0.613816 0.069344
Si Si2 0.055281 0.282500 0.659899
Si Si3 0.692633 0.011041 0.522165
Si Si4 0.093076 0.752781 0.805889
Si Si5 0.500000 0.075285 0.250000
Si Si6 0.481672 0.409568 0.614683
O O1 0.732639 0.801435 0.046025
O O2 0.608512 0.591621 0.088875
O O3 0.918980 0.606125 0.117582
O O4 0.749811 0.495348 0.024077
O O5 0.230778 0.324820 0.662988
O O6 0.066698 0.315401 0.716607
O O7 0.004132 0.090599 0.642707
O O8 0.500000 0.000000 0.500000
O O9 0.804704 0.894032 0.568761
O O10 0.995749 0.773234 0.841172
O O11 0.000000 0.835282 0.750000
O O12 0.117447 0.560609 0.790397
#
# Coordination Sequence:
#
# PCOD9291556 Si02
#       6
#     8   8   8   8   4   8
#     4  10  23  41  65  99 130 166 221 265 328 388
#     4  11  24  42  65  90 129 173 216 272 324 387
#     4  10  22  42  68  97 133 173 210 268 329 393
#     4  10  26  40  62  95 130 168 221 268 326 386
#     4  10  26  40  66  90 130 174 220 270 324 382
#     4  11  24  42  68  99 131 173 220 271 325 392
#
# _framework density 23.403085000000001
#
# number of rings (size 3 to 8) (size 9 to 14) (size 15 to 20)
#    0.545    1.091    0.000    2.727    6.364    6.545 
#    0.000    0.000    0.000    0.000    0.000    0.000 
#    0.000    0.000    0.000    0.000    0.000    0.000 
#
# Total GULP energy -122897.908369 kJ/mol
# GULP energy per Si atom -5586.268562 kJ/mol
# Density = 2.334982 g / cm^3
# Si number density = 23.403085 Si / 1000 Ang^3
#
#
#
# Elastic Constant Matrix: (Units=GPa)
#
#
# Indices 1 2 3 4 5 6 
#
# 1 132.2326 4.2632 83.4868 0.0000 -5.4877 0.0000
# 2 4.2632 42.3585 53.7558 0.0000 -12.4269 0.0000
# 3 83.4868 53.7558 167.9234 0.0000 -23.3146 0.0000
# 4 0.0000 0.0000 0.0000 32.0455 0.0000 1.6052
# 5 -5.4877 -12.4269 -23.3146 0.0000 62.8185 0.0000
# 6 0.0000 0.0000 0.0000 1.6052 0.0000 11.5406
#
#
#
# Elastic Compliance Matrix: (Units=1/GPa)
#
#
# Indices 1 2 3 4 5 6 
#
# 1 0.014161 0.012568 -0.011120 0.000000 -0.000404 0.000000
# 2 0.012568 0.051581 -0.022343 0.000000 0.003009 0.000000
# 3 -0.011120 -0.022343 0.018859 0.000000 0.001608 0.000000
# 4 0.000000 0.000000 0.000000 0.031425 0.000000 -0.004371
# 5 -0.000404 0.003009 0.001608 0.000000 0.017076 0.000000
# 6 0.000000 0.000000 0.000000 -0.004371 0.000000 0.087259
#
#
# Mechanical properties :
#
#
# Convention : Reuss Voigt Hill
#
# Bulk Modulus (GPa) = 23.35787 69.50289 46.43038
# Shear Modulus (GPa) = 18.08843 34.68151 26.38497
#
# Velocity S-wave (km/s) = 2.78314 3.85375 3.36134
# Velocity P-wave (km/s) = 4.50890 7.04020 5.91163
#
# Compressibility (1/GPa) = 0.04281213
#
# Stress axis : x y z
#
# Youngs Moduli (GPa) = 70.61529 19.38717 53.02412
#
# Poissons Ratio (x) = -0.24366 0.58963
# Poissons Ratio (y) = -0.88752 1.18471
# Poissons Ratio (z) = 0.78524 0.43316
#
# Static dielectric constant tensor:
#      x y z
#    x 1.894910 0.000000 0.004280 
#    y 0.000000 1.908350 0.000000 
#    z 0.004280 0.000000 1.906310 
# 
# From -- ./inp_files/306547.got.cif
#   From: 2010.05.17/outbox.cif.g08.bks.cpg/sg15_154_cif.got.tgz:306547.got - 2010.06.03 18:47:42.
