data_PCOD9291480
_publ_section_title
;
Structure prediction by ZEFSAII (Michael W. Deem and Ramdas Pophale) SiO2 
 PCOD9291480
Probable space group: C 2/C
;
_chemical_formula_sum "Si O2"
_cell_formula_units_Z 48
_cell_length_a 15.641049
_cell_length_b 23.698330
_cell_length_c 9.651891
_cell_angle_alpha 90.000000
_cell_angle_beta 142.703620
_cell_angle_gamma 90.000000
_cell_volume 2167.825486
_symmetry_space_group_name_H-M "C 2/C"
_symmetry_group_IT_number 15
_symmetry_cell_setting 'monoclinic'
loop_
_space_group_symop_operation_xyz
x,y,z
-x,y,1/2-z
-x,-y,-z
x,-y,1/2+z
1/2+x,1/2+y,z
1/2-x,1/2+y,1/2-z
1/2-x,1/2-y,-z
1/2+x,1/2-y,1/2+z
loop_
_atom_site_type_symbol
_atom_site_label
_atom_site_fract_x
_atom_site_fract_y
_atom_site_fract_z
Si Si1 0.043428 0.817706 0.049855
Si Si2 0.210285 0.533111 0.952915
Si Si3 0.000000 0.908387 0.750000
Si Si4 0.000000 0.118647 0.750000
Si Si5 0.277048 0.932418 0.719225
Si Si6 0.976827 0.360718 0.375338
Si Si7 0.712406 0.760639 0.290823
O O1 0.086795 0.844650 0.250855
O O2 0.149867 0.771600 0.123623
O O3 0.027978 0.866555 0.915035
O O4 0.891250 0.789897 0.881384
O O5 0.175092 0.473097 0.842462
O O6 0.106362 0.581049 0.760339
O O7 0.365210 0.553158 0.105636
O O8 0.208292 0.534900 0.116140
O O9 0.885089 0.083261 0.517137
O O10 0.376511 0.877928 0.865711
O O11 0.879216 0.318014 0.332473
O O12 0.000000 0.336325 0.250000
O O13 0.750000 0.750000 0.500000
#
# Coordination Sequence:
#
# PCOD9291480 Si02
#       7
#     8   8   4   4   8   8   8
#     4  12  26  44  72 103 141 183 236 290 351 421
#     4  11  23  42  69 100 137 177 239 289 361 413
#     4  12  21  42  72 102 132 178 235 296 340 422
#     4  12  29  48  64 104 148 184 237 288 368 422
#     4  11  26  43  69 100 137 191 230 301 350 428
#     4  10  22  42  68 102 143 177 235 295 351 420
#     4  12  23  43  76 108 136 185 237 290 346 426
#
# _framework density 22.142005000000001
#
# number of rings (size 3 to 8) (size 9 to 14) (size 15 to 20)
#    0.000    0.667    5.000    2.000    7.000    2.000 
#    0.000    1.667    0.000    0.000    0.000    0.000 
#    0.000    0.000    0.000    0.000    0.000    0.000 
#
# Total GULP energy -134352.930067 kJ/mol
# GULP energy per Si atom -5598.038753 kJ/mol
# Density = 2.209161 g / cm^3
# Si number density = 22.142005 Si / 1000 Ang^3
#
#
#
# Elastic Constant Matrix: (Units=GPa)
#
#
# Indices 1 2 3 4 5 6 
#
# 1 81.5609 17.4038 26.0632 0.0000 -5.2985 0.0000
# 2 17.4038 51.7372 23.5084 0.0000 -10.2078 0.0000
# 3 26.0632 23.5084 95.6604 0.0000 2.5530 0.0000
# 4 0.0000 0.0000 0.0000 -6.2223 0.0000 0.9449
# 5 -5.2985 -10.2078 2.5530 0.0000 39.0860 0.0000
# 6 0.0000 0.0000 0.0000 0.9449 0.0000 45.4250
#
#
#
# Elastic Compliance Matrix: (Units=1/GPa)
#
#
# Indices 1 2 3 4 5 6 
#
# 1 0.013984 -0.003039 -0.003098 0.000000 0.001304 0.000000
# 2 -0.003039 0.023943 -0.005221 0.000000 0.006182 0.000000
# 3 -0.003098 -0.005221 0.012650 0.000000 -0.002610 0.000000
# 4 0.000000 0.000000 0.000000 -0.160206 0.000000 0.003333
# 5 0.001304 0.006182 -0.002610 0.000000 0.027546 0.000000
# 6 0.000000 0.000000 0.000000 0.003333 0.000000 0.021945
#
#
# Mechanical properties :
#
#
# Convention : Reuss Voigt Hill
#
# Bulk Modulus (GPa) = 35.89206 40.32325 38.10765
# Shear Modulus (GPa) = -177.71464 26.45661 -75.62902
#
# Velocity S-wave (km/s) = -8.96859 3.46043 -5.85068
# Velocity P-wave (km/s) = 9.53951 5.84951 5.32848
#
# Compressibility (1/GPa) = 0.02786131
#
# Stress axis : x y z
#
# Youngs Moduli (GPa) = 71.51053 41.76632 79.04900
#
# Poissons Ratio (x) = 0.12693 0.24489
# Poissons Ratio (y) = 0.21732 0.41271
# Poissons Ratio (z) = 0.22154 0.21806
#
# Static dielectric constant tensor:
#      x y z
#    x 1.819380 0.000000 0.018970 
#    y 0.000000 1.830480 0.000000 
#    z 0.018970 0.000000 1.826850 
# 
# From -- ./inp_files/33828.got.cif
#   From: 2010.05.17/outbox.cif.g08.bks.cpg/sg15_17_cif.got.tgz:33828.got - 2010.06.03 18:47:42.
