data_PCOD9291846
_publ_section_title
;
Structure prediction by ZEFSAII (Michael W. Deem and Ramdas Pophale) SiO2 
 PCOD9291846
Probable space group: C 2/C
;
_chemical_formula_sum "Si O2"
_cell_formula_units_Z 40
_cell_length_a 7.906867
_cell_length_b 15.253683
_cell_length_c 16.587082
_cell_angle_alpha 90.000000
_cell_angle_beta 54.627772
_cell_angle_gamma 90.000000
_cell_volume 1631.264437
_symmetry_space_group_name_H-M "C 2/C"
_symmetry_group_IT_number 15
_symmetry_cell_setting 'monoclinic'
loop_
_space_group_symop_operation_xyz
x,y,z
-x,y,1/2-z
-x,-y,-z
x,-y,1/2+z
1/2+x,1/2+y,z
1/2-x,1/2+y,1/2-z
1/2-x,1/2-y,-z
1/2+x,1/2-y,1/2+z
loop_
_atom_site_type_symbol
_atom_site_label
_atom_site_fract_x
_atom_site_fract_y
_atom_site_fract_z
Si Si1 0.500000 0.500000 0.000000
Si Si2 0.000000 0.335162 0.750000
Si Si3 0.839309 0.615757 0.981625
Si Si4 0.590638 0.941157 0.864033
Si Si5 0.110933 0.273730 0.295056
Si Si6 0.385054 0.563655 0.700414
O O1 0.375442 0.412512 0.999382
O O2 0.519861 0.454350 0.085147
O O3 0.063642 0.393384 0.655029
O O4 0.802832 0.280196 0.776502
O O5 0.986508 0.531731 0.919939
O O6 0.949409 0.697959 0.908733
O O7 0.845523 0.615476 0.076784
O O8 0.778624 0.972383 0.755636
O O9 0.211922 0.363519 0.231609
O O10 0.000000 0.229567 0.250000
O O11 0.500000 0.593137 0.750000
#
# Coordination Sequence:
#
# PCOD9291846 Si02
#       6
#     4   4   8   8   8   8
#     4  12  20  36  72 108 130 172 232 302 340 400
#     4  12  26  44  68  98 146 188 220 294 358 408
#     4  10  22  42  72  99 134 180 236 287 349 416
#     4  10  23  43  65 100 132 176 239 292 338 414
#     4  11  24  44  66  99 143 188 226 280 360 434
#     4  11  21  40  71 101 135 183 239 290 353 418
#
# _framework density 24.520854
#
# number of rings (size 3 to 8) (size 9 to 14) (size 15 to 20)
#    0.000    1.200    5.000    1.200    2.800    1.600 
#    3.600    3.000    0.000    0.000    0.000    0.000 
#    0.000    0.000    0.000    0.000    0.000    0.000 
#
# Total GULP energy -111431.670736 kJ/mol
# GULP energy per Si atom -5571.583537 kJ/mol
# Density = 2.446504 g / cm^3
# Si number density = 24.520854 Si / 1000 Ang^3
#
#
#
# Elastic Constant Matrix: (Units=GPa)
#
#
# Indices 1 2 3 4 5 6 
#
# 1 158.8242 15.7129 32.9872 0.0000 39.3104 0.0000
# 2 15.7129 40.3425 13.5139 0.0000 7.1399 0.0000
# 3 32.9872 13.5139 76.9860 0.0000 28.7301 0.0000
# 4 0.0000 0.0000 0.0000 12.4633 0.0000 -5.4047
# 5 39.3104 7.1399 28.7301 0.0000 46.4538 0.0000
# 6 0.0000 0.0000 0.0000 -5.4047 0.0000 37.1082
#
#
#
# Elastic Compliance Matrix: (Units=1/GPa)
#
#
# Indices 1 2 3 4 5 6 
#
# 1 0.008167 -0.001799 -0.000920 0.000000 -0.006065 0.000000
# 2 -0.001799 0.026818 -0.003857 0.000000 -0.000214 0.000000
# 3 -0.000920 -0.003857 0.017614 0.000000 -0.009523 0.000000
# 4 0.000000 0.000000 0.000000 0.085645 0.000000 0.012474
# 5 -0.006065 -0.000214 -0.009523 0.000000 0.032582 0.000000
# 6 0.000000 0.000000 0.000000 0.012474 0.000000 0.028765
#
#
# Mechanical properties :
#
#
# Convention : Reuss Voigt Hill
#
# Bulk Modulus (GPa) = 25.35023 44.50896 34.92960
# Shear Modulus (GPa) = 22.13450 33.46764 27.80107
#
# Velocity S-wave (km/s) = 3.00772 3.69842 3.37081
# Velocity P-wave (km/s) = 4.73525 6.03561 5.42453
#
# Compressibility (1/GPa) = 0.03944737
#
# Stress axis : x y z
#
# Youngs Moduli (GPa) = 122.45097 37.28791 56.77228
#
# Poissons Ratio (x) = 0.06709 0.05223
# Poissons Ratio (y) = 0.22031 0.21896
# Poissons Ratio (z) = 0.11265 0.14381
#
# Static dielectric constant tensor:
#      x y z
#    x 2.024830 0.000000 -0.088090 
#    y 0.000000 1.952210 0.000000 
#    z -0.088090 0.000000 2.123980 
# 
# From -- ./inp_files/134243.got.cif
#   From: 2010.05.17/outbox.cif.g08.bks.cpg/sg15_68_cif.got.tgz:134243.got - 2010.06.03 18:47:42.
