data_PCOD9291850
_publ_section_title
;
Structure prediction by ZEFSAII (Michael W. Deem and Ramdas Pophale) SiO2 
 PCOD9291850
Probable space group: C 2/C
;
_chemical_formula_sum "Si O2"
_cell_formula_units_Z 36
_cell_length_a 18.021322
_cell_length_b 16.827810
_cell_length_c 5.236497
_cell_angle_alpha 90.000000
_cell_angle_beta 71.678460
_cell_angle_gamma 90.000000
_cell_volume 1507.516092
_symmetry_space_group_name_H-M "C 2/C"
_symmetry_group_IT_number 15
_symmetry_cell_setting 'monoclinic'
loop_
_space_group_symop_operation_xyz
x,y,z
-x,y,1/2-z
-x,-y,-z
x,-y,1/2+z
1/2+x,1/2+y,z
1/2-x,1/2+y,1/2-z
1/2-x,1/2-y,-z
1/2+x,1/2-y,1/2+z
loop_
_atom_site_type_symbol
_atom_site_label
_atom_site_fract_x
_atom_site_fract_y
_atom_site_fract_z
Si Si1 0.942053 0.573059 0.494752
Si Si2 0.500000 0.325817 0.250000
Si Si3 0.838840 0.814284 0.285581
Si Si4 0.270443 0.956795 0.006719
Si Si5 0.608039 0.231422 0.783727
O O1 0.864557 0.546776 0.428779
O O2 0.910470 0.637791 0.729787
O O3 0.000000 0.622509 0.250000
O O4 0.000000 0.500000 0.500000
O O5 0.419408 0.365114 0.248486
O O6 0.470328 0.274665 0.525900
O O7 0.769274 0.875868 0.364930
O O8 0.661679 0.746151 0.473165
O O9 0.852592 0.767510 0.008856
O O10 0.247333 0.021597 0.244724
#
# Coordination Sequence:
#
# PCOD9291850 Si02
#       5
#     8   4   8   8   8
#     4  12  25  45  72 106 148 193 243 295 369 438
#     4   8  20  38  68 100 132 170 232 292 346 412
#     4  10  22  44  70 101 143 185 242 300 355 428
#     4  12  27  47  69 102 148 190 241 300 362 436
#     4  10  22  42  73 101 141 189 240 298 353 435
#
# _framework density 23.880341000000001
#
# number of rings (size 3 to 8) (size 9 to 14) (size 15 to 20)
#    1.333    0.000    3.333    2.000    0.000    7.111 
#    0.000    1.111    0.000    0.000    0.000    0.000 
#    0.000    0.000    0.000    0.000    0.000    0.000 
#
# Total GULP energy -100369.811974 kJ/mol
# GULP energy per Si atom -5576.100665 kJ/mol
# Density = 2.382599 g / cm^3
# Si number density = 23.880341 Si / 1000 Ang^3
#
#
#
# Elastic Constant Matrix: (Units=GPa)
#
#
# Indices 1 2 3 4 5 6 
#
# 1 101.1306 60.1990 24.7815 0.0000 -9.2708 0.0000
# 2 60.1990 84.9866 39.9063 0.0000 -22.3378 0.0000
# 3 24.7815 39.9063 160.9120 0.0000 -3.0747 0.0000
# 4 0.0000 0.0000 0.0000 30.4071 0.0000 -1.3182
# 5 -9.2708 -22.3378 -3.0747 0.0000 24.1888 0.0000
# 6 0.0000 0.0000 0.0000 -1.3182 0.0000 35.7463
#
#
#
# Elastic Compliance Matrix: (Units=1/GPa)
#
#
# Indices 1 2 3 4 5 6 
#
# 1 0.017897 -0.014814 0.000789 0.000000 -0.006721 0.000000
# 2 -0.014814 0.030184 -0.004792 0.000000 0.021587 0.000000
# 3 0.000789 -0.004792 0.007220 0.000000 -0.003205 0.000000
# 4 0.000000 0.000000 0.000000 0.032940 0.000000 0.001215
# 5 -0.006721 0.021587 -0.003205 0.000000 0.058294 0.000000
# 6 0.000000 0.000000 0.000000 0.001215 0.000000 0.028020
#
#
# Mechanical properties :
#
#
# Convention : Reuss Voigt Hill
#
# Bulk Modulus (GPa) = 56.60000 66.31140 61.45570
# Shear Modulus (GPa) = 22.92776 32.87792 27.90284
#
# Velocity S-wave (km/s) = 3.10193 3.71452 3.42196
# Velocity P-wave (km/s) = 6.04832 6.79892 6.43458
#
# Compressibility (1/GPa) = 0.01766784
#
# Stress axis : x y z
#
# Youngs Moduli (GPa) = 55.87542 33.13031 138.50168
#
# Poissons Ratio (x) = 0.49080 -0.10931
# Poissons Ratio (y) = 0.82775 0.66365
# Poissons Ratio (z) = -0.04410 0.15875
#
# Static dielectric constant tensor:
#      x y z
#    x 2.002400 0.000000 0.072680 
#    y 0.000000 1.879240 0.000000 
#    z 0.072680 0.000000 2.116440 
# 
# From -- ./inp_files/10062.got.cif
#   From: 2010.05.17/outbox.cif.g08.bks.cpg/sg15_6_cif.got.tgz:10062.got - 2010.06.03 18:47:42.
