data_PCOD9291320
_publ_section_title
;
Structure prediction by ZEFSAII (Michael W. Deem and Ramdas Pophale) SiO2 
 PCOD9291320
Probable space group: C 2/C
;
_chemical_formula_sum "Si O2"
_cell_formula_units_Z 52
_cell_length_a 12.525403
_cell_length_b 31.233998
_cell_length_c 8.161981
_cell_angle_alpha 90.000000
_cell_angle_beta 46.144198
_cell_angle_gamma 90.000000
_cell_volume 2302.511466
_symmetry_space_group_name_H-M "C 2/C"
_symmetry_group_IT_number 15
_symmetry_cell_setting 'monoclinic'
loop_
_space_group_symop_operation_xyz
x,y,z
-x,y,1/2-z
-x,-y,-z
x,-y,1/2+z
1/2+x,1/2+y,z
1/2-x,1/2+y,1/2-z
1/2-x,1/2-y,-z
1/2+x,1/2-y,1/2+z
loop_
_atom_site_type_symbol
_atom_site_label
_atom_site_fract_x
_atom_site_fract_y
_atom_site_fract_z
Si Si1 0.000000 0.007928 0.750000
Si Si2 0.737006 0.698491 0.844673
Si Si3 0.554198 0.868965 0.510041
Si Si4 0.741126 0.345641 0.689223
Si Si5 0.937516 0.774267 0.494273
Si Si6 0.480413 0.952500 0.464725
Si Si7 0.146678 0.940065 0.805204
O O1 0.124744 0.973553 0.677910
O O2 0.043368 0.039352 0.554934
O O3 0.801476 0.657809 0.680931
O O4 0.848991 0.736344 0.676308
O O5 0.576174 0.712165 0.956874
O O6 0.737497 0.683639 0.031572
O O7 0.500000 0.862323 0.750000
O O8 0.413336 0.856002 0.545157
O O9 0.584528 0.918643 0.442799
O O10 0.643065 0.389136 0.770101
O O11 0.669667 0.315613 0.904815
O O12 0.000000 0.761249 0.250000
O O13 0.500000 0.947412 0.250000
O O14 0.313015 0.942670 0.692827
O O15 0.500000 0.000000 0.500000
#
# Coordination Sequence:
#
# PCOD9291320 Si02
#       7
#     4   8   8   8   8   8   8
#     4  10  22  42  66  94 138 182 224 288 342 410
#     4  12  25  45  71 101 137 182 225 288 346 418
#     4  11  23  43  67  97 135 181 228 291 346 411
#     4  11  25  44  67 101 138 178 236 280 349 419
#     4  12  26  45  71 104 136 179 226 285 351 421
#     4  11  22  40  64  98 134 179 233 287 349 416
#     4  10  23  41  65  97 135 180 230 281 347 406
#
# _framework density 22.584036000000001
#
# number of rings (size 3 to 8) (size 9 to 14) (size 15 to 20)
#    0.000    0.923    0.000    7.385    3.231    2.462 
#    2.769    0.000    0.000    0.000    0.000    0.000 
#    0.000    0.000    0.000    0.000    0.000    0.000 
#
# Total GULP energy -145382.885447 kJ/mol
# GULP energy per Si atom -5591.649440 kJ/mol
# Density = 2.253263 g / cm^3
# Si number density = 22.584036 Si / 1000 Ang^3
#
#
#
# Elastic Constant Matrix: (Units=GPa)
#
#
# Indices 1 2 3 4 5 6 
#
# 1 44.9567 11.2516 -2.8708 0.0000 7.0616 0.0000
# 2 11.2516 147.9796 33.6006 0.0000 -12.6637 0.0000
# 3 -2.8708 33.6006 75.8641 0.0000 9.8133 0.0000
# 4 0.0000 0.0000 0.0000 195.3921 0.0000 -48.1914
# 5 7.0616 -12.6637 9.8133 0.0000 31.3978 0.0000
# 6 0.0000 0.0000 0.0000 -48.1914 0.0000 40.0933
#
#
#
# Elastic Compliance Matrix: (Units=1/GPa)
#
#
# Indices 1 2 3 4 5 6 
#
# 1 0.024539 -0.003322 0.003426 0.000000 -0.007930 0.000000
# 2 -0.003322 0.008547 -0.004642 0.000000 0.005645 0.000000
# 3 0.003426 -0.004642 0.016371 0.000000 -0.007759 0.000000
# 4 0.000000 0.000000 0.000000 0.007274 0.000000 0.008744
# 5 -0.007930 0.005645 -0.007759 0.000000 0.038335 0.000000
# 6 0.000000 0.000000 0.000000 0.008744 0.000000 0.035452
#
#
# Mechanical properties :
#
#
# Convention : Reuss Voigt Hill
#
# Bulk Modulus (GPa) = 24.76403 39.19592 31.97998
# Shear Modulus (GPa) = 32.66795 68.49790 50.58292
#
# Velocity S-wave (km/s) = 3.80742 5.51326 4.73775
# Velocity P-wave (km/s) = 5.50615 7.61061 6.64225
#
# Compressibility (1/GPa) = 0.04038114
#
# Stress axis : x y z
#
# Youngs Moduli (GPa) = 40.75066 116.99519 61.08517
#
# Poissons Ratio (x) = 0.38870 -0.20927
# Poissons Ratio (y) = 0.13539 0.28354
# Poissons Ratio (z) = -0.13961 0.54305
#
# Static dielectric constant tensor:
#      x y z
#    x 1.848160 0.000000 0.019330 
#    y 0.000000 1.895040 0.000000 
#    z 0.019330 0.000000 1.909440 
# 
# From -- ./inp_files/44791.got.cif
#   From: 2010.05.17/outbox.cif.g08.bks.cpg/sg15_23_cif.got.tgz:44791.got - 2010.06.03 18:47:42.
