data_PCOD9291907
_publ_section_title
;
Structure prediction by ZEFSAII (Michael W. Deem and Ramdas Pophale) SiO2 
 PCOD9291907
Probable space group: C 2/C
;
_chemical_formula_sum "Si O2"
_cell_formula_units_Z 48
_cell_length_a 11.049709
_cell_length_b 22.539949
_cell_length_c 12.264999
_cell_angle_alpha 90.000000
_cell_angle_beta 133.857318
_cell_angle_gamma 90.000000
_cell_volume 2202.658562
_symmetry_space_group_name_H-M "C 2/C"
_symmetry_group_IT_number 15
_symmetry_cell_setting 'monoclinic'
loop_
_space_group_symop_operation_xyz
x,y,z
-x,y,1/2-z
-x,-y,-z
x,-y,1/2+z
1/2+x,1/2+y,z
1/2-x,1/2+y,1/2-z
1/2-x,1/2-y,-z
1/2+x,1/2-y,1/2+z
loop_
_atom_site_type_symbol
_atom_site_label
_atom_site_fract_x
_atom_site_fract_y
_atom_site_fract_z
Si Si1 0.068463 0.090706 0.059684
Si Si2 0.771826 0.409080 0.472465
Si Si3 0.774549 0.976666 0.274445
Si Si4 0.614062 0.291552 0.027536
Si Si5 0.579190 0.785696 0.916877
Si Si6 0.000000 0.499256 0.750000
Si Si7 0.000000 0.713968 0.750000
O O1 0.194807 0.048108 0.205790
O O2 0.138222 0.106497 0.982889
O O3 0.906023 0.050408 0.940616
O O4 0.003584 0.151552 0.066512
O O5 0.704568 0.444266 0.326474
O O6 0.869688 0.349359 0.500497
O O7 0.883664 0.456178 0.607217
O O8 0.597197 0.964288 0.219473
O O9 0.547996 0.254011 0.090981
O O10 0.811108 0.311080 0.164044
O O11 0.565257 0.250725 0.894706
O O12 0.500000 0.799614 0.750000
O O13 0.750000 0.750000 0.000000
#
# Coordination Sequence:
#
# PCOD9291907 Si02
#       7
#     8   8   8   8   8   4   4
#     4  10  23  43  67  97 135 173 238 280 347 416
#     4  11  22  42  69 100 137 172 229 300 348 409
#     4  10  23  41  65  96 132 184 221 289 344 416
#     4  11  24  46  71 101 143 187 233 284 351 426
#     4  12  25  41  73 111 139 182 233 297 365 413
#     4  10  22  43  60  94 136 175 236 274 346 426
#     4  10  26  47  66 100 144 189 232 276 344 434
#
# _framework density 21.791848000000002
#
# number of rings (size 3 to 8) (size 9 to 14) (size 15 to 20)
#    0.000    1.333    2.500    2.000    4.667    0.667 
#   12.000    0.000    0.000    0.000    0.000    0.000 
#    0.000    0.000    0.000    0.000    0.000    0.000 
#
# Total GULP energy -133785.291338 kJ/mol
# GULP energy per Si atom -5574.387139 kJ/mol
# Density = 2.174225 g / cm^3
# Si number density = 21.791848 Si / 1000 Ang^3
#
#
#
# Elastic Constant Matrix: (Units=GPa)
#
#
# Indices 1 2 3 4 5 6 
#
# 1 85.7346 14.0668 7.4973 0.0000 14.7323 0.0000
# 2 14.0668 78.4933 4.8902 0.0000 -11.6358 0.0000
# 3 7.4973 4.8902 65.1448 0.0000 -2.5975 0.0000
# 4 0.0000 0.0000 0.0000 -2.2853 0.0000 -1.6517
# 5 14.7323 -11.6358 -2.5975 0.0000 24.6500 0.0000
# 6 0.0000 0.0000 0.0000 -1.6517 0.0000 25.1516
#
#
#
# Elastic Compliance Matrix: (Units=1/GPa)
#
#
# Indices 1 2 3 4 5 6 
#
# 1 0.014309 -0.004031 -0.001768 0.000000 -0.010641 0.000000
# 2 -0.004031 0.014873 -0.000278 0.000000 0.009401 0.000000
# 3 -0.001768 -0.000278 0.015678 0.000000 0.002578 0.000000
# 4 0.000000 0.000000 0.000000 -0.417754 0.000000 -0.027434
# 5 -0.010641 0.009401 0.002578 0.000000 0.051637 0.000000
# 6 0.000000 0.000000 0.000000 -0.027434 0.000000 0.037957
#
#
# Mechanical properties :
#
#
# Convention : Reuss Voigt Hill
#
# Bulk Modulus (GPa) = 30.57699 31.36459 30.97079
# Shear Modulus (GPa) = -19.21278 23.03114 1.90918
#
# Velocity S-wave (km/s) = -2.97248 3.25448 0.93702
# Velocity P-wave (km/s) = 1.51030 5.34287 3.92602
#
# Compressibility (1/GPa) = 0.03270433
#
# Stress axis : x y z
#
# Youngs Moduli (GPa) = 69.88845 67.23454 63.78543
#
# Poissons Ratio (x) = 0.27105 0.11280
# Poissons Ratio (y) = 0.28175 0.01771
# Poissons Ratio (z) = 0.12359 0.01867
#
# Static dielectric constant tensor:
#      x y z
#    x 1.905850 0.000000 0.036390 
#    y 0.000000 1.828420 0.000000 
#    z 0.036390 0.000000 1.801110 
# 
# From -- ./inp_files/89806.got.cif
#   From: 2010.05.17/outbox.cif.g08.bks.cpg/sg15_45_cif.got.tgz:89806.got - 2010.06.03 18:47:42.
