data_PCOD9291927
_publ_section_title
;
Structure prediction by ZEFSAII (Michael W. Deem and Ramdas Pophale) SiO2 
 PCOD9291927
Probable space group: C 2/C
;
_chemical_formula_sum "Si O2"
_cell_formula_units_Z 60
_cell_length_a 15.279866
_cell_length_b 9.716146
_cell_length_c 20.655746
_cell_angle_alpha 90.000000
_cell_angle_beta 98.954263
_cell_angle_gamma 90.000000
_cell_volume 3029.208427
_symmetry_space_group_name_H-M "C 2/C"
_symmetry_group_IT_number 15
_symmetry_cell_setting 'monoclinic'
loop_
_space_group_symop_operation_xyz
x,y,z
-x,y,1/2-z
-x,-y,-z
x,-y,1/2+z
1/2+x,1/2+y,z
1/2-x,1/2+y,1/2-z
1/2-x,1/2-y,-z
1/2+x,1/2-y,1/2+z
loop_
_atom_site_type_symbol
_atom_site_label
_atom_site_fract_x
_atom_site_fract_y
_atom_site_fract_z
Si Si1 0.641238 0.630342 0.730990
Si Si2 0.150997 0.758978 0.460637
Si Si3 0.271511 0.537939 0.625514
Si Si4 0.209224 0.269430 0.336371
Si Si5 0.000000 0.361325 0.750000
Si Si6 0.078078 0.509159 0.882525
Si Si7 0.078964 0.668901 0.580040
Si Si8 0.080755 0.829587 0.713544
O O1 0.702259 0.590713 0.799735
O O2 0.699493 0.661618 0.674681
O O3 0.581700 0.761560 0.741611
O O4 0.584011 0.494329 0.711199
O O5 0.250000 0.750000 0.500000
O O6 0.157642 0.889515 0.414092
O O7 0.128157 0.622258 0.417638
O O8 0.086065 0.755290 0.514683
O O9 0.278718 0.373711 0.624889
O O10 0.171439 0.584365 0.597152
O O11 0.147019 0.375032 0.367260
O O12 0.165005 0.225724 0.262716
O O13 0.025187 0.455028 0.813708
O O14 0.006637 0.571780 0.924001
O O15 0.074630 0.765825 0.642376
O O16 0.000000 0.787450 0.750000
#
# Coordination Sequence:
#
# PCOD9291927 Si02
#       8
#     8   8   8   8   4   8   8   8
#     4  11  23  37  63  95 135 165 204 270 337 383
#     4  10  24  43  68  89 131 184 220 261 317 398
#     4  10  22  43  62  94 131 169 218 260 325 388
#     4  11  24  37  66  96 128 162 209 278 324 382
#     4  12  24  38  66  98 132 164 214 274 330 388
#     4  12  24  41  67 100 127 168 224 269 329 384
#     4  11  22  42  67  92 129 176 218 265 322 391
#     4  11  21  39  62  97 129 161 211 270 327 375
#
# _framework density 19.807155000000002
#
# number of rings (size 3 to 8) (size 9 to 14) (size 15 to 20)
#    0.000    1.067    4.667    2.000    7.467    0.000 
#    0.000    3.333    2.933    0.000    0.000    0.000 
#    0.000    0.000    0.000    0.000    0.000    0.000 
#
# Total GULP energy -167623.536902 kJ/mol
# GULP energy per Si atom -5587.451230 kJ/mol
# Density = 1.976207 g / cm^3
# Si number density = 19.807155 Si / 1000 Ang^3
#
#
#
# Elastic Constant Matrix: (Units=GPa)
#
#
# Indices 1 2 3 4 5 6 
#
# 1 75.6157 24.0079 18.1991 0.0000 -23.2703 0.0000
# 2 24.0079 71.4323 42.1598 0.0000 -18.1690 0.0000
# 3 18.1991 42.1598 88.5968 0.0000 -23.5813 0.0000
# 4 0.0000 0.0000 0.0000 12.8125 0.0000 -5.5187
# 5 -23.2703 -18.1690 -23.5813 0.0000 30.2504 0.0000
# 6 0.0000 0.0000 0.0000 -5.5187 0.0000 32.5614
#
#
#
# Elastic Compliance Matrix: (Units=1/GPa)
#
#
# Indices 1 2 3 4 5 6 
#
# 1 0.017958 -0.003641 0.001437 0.000000 0.012747 0.000000
# 2 -0.003641 0.020999 -0.008370 0.000000 0.003287 0.000000
# 3 0.001437 -0.008370 0.017578 0.000000 0.009781 0.000000
# 4 0.000000 0.000000 0.000000 0.084195 0.000000 0.014270
# 5 0.012747 0.003287 0.009781 0.000000 0.052462 0.000000
# 6 0.000000 0.000000 0.000000 0.014270 0.000000 0.033130
#
#
# Mechanical properties :
#
#
# Convention : Reuss Voigt Hill
#
# Bulk Modulus (GPa) = 28.25930 44.93094 36.59512
# Shear Modulus (GPa) = 19.28519 25.21006 22.24762
#
# Velocity S-wave (km/s) = 3.12372 3.57147 3.35507
# Velocity P-wave (km/s) = 5.22574 6.30402 5.79003
#
# Compressibility (1/GPa) = 0.03538658
#
# Stress axis : x y z
#
# Youngs Moduli (GPa) = 55.68559 47.62129 56.88873
#
# Poissons Ratio (x) = 0.17340 -0.08174
# Poissons Ratio (y) = 0.20276 0.47615
# Poissons Ratio (z) = -0.08001 0.39858
#
# Static dielectric constant tensor:
#      x y z
#    x 1.731770 0.000000 0.005160 
#    y 0.000000 1.676360 0.000000 
#    z 0.005160 0.000000 1.697900 
# 
# From -- ./inp_files/272762.got.cif
#   From: 2010.05.17/outbox.cif.g08.bks.cpg/sg15_137_cif.got.tgz:272762.got - 2010.06.03 18:47:42.
