data_PCOD9291296
_publ_section_title
;
Structure prediction by ZEFSAII (Michael W. Deem and Ramdas Pophale) SiO2 
 PCOD9291296
Probable space group: C 2/C
;
_chemical_formula_sum "Si O2"
_cell_formula_units_Z 48
_cell_length_a 10.009474
_cell_length_b 22.993935
_cell_length_c 8.456766
_cell_angle_alpha 90.000000
_cell_angle_beta 84.226682
_cell_angle_gamma 90.000000
_cell_volume 1936.512812
_symmetry_space_group_name_H-M "C 2/C"
_symmetry_group_IT_number 15
_symmetry_cell_setting 'monoclinic'
loop_
_space_group_symop_operation_xyz
x,y,z
-x,y,1/2-z
-x,-y,-z
x,-y,1/2+z
1/2+x,1/2+y,z
1/2-x,1/2+y,1/2-z
1/2-x,1/2-y,-z
1/2+x,1/2-y,1/2+z
loop_
_atom_site_type_symbol
_atom_site_label
_atom_site_fract_x
_atom_site_fract_y
_atom_site_fract_z
Si Si1 0.384807 0.051659 0.137745
Si Si2 0.047228 0.782102 0.576367
Si Si3 0.156918 0.324207 0.880071
Si Si4 0.857511 0.089858 0.805556
Si Si5 0.718970 0.490181 0.919141
Si Si6 0.235215 0.181560 0.471723
O O1 0.500000 0.040241 0.250000
O O2 0.399854 0.114297 0.057180
O O3 0.252657 0.051151 0.267617
O O4 0.348127 0.003147 0.014940
O O5 0.072434 0.730831 0.448494
O O6 0.190481 0.813527 0.578046
O O7 0.000000 0.755153 0.750000
O O8 0.922903 0.823962 0.553721
O O9 0.170256 0.329572 0.689060
O O10 0.816789 0.051252 0.658913
O O11 0.000000 0.118220 0.750000
O O12 0.752468 0.137800 0.882227
O O13 0.875810 0.043541 0.947680
O O14 0.250000 0.250000 0.500000
#
# Coordination Sequence:
#
# PCOD9291296 Si02
#       6
#     8   8   8   8   8   8
#     4  11  23  42  69  95 132 176 222 287 346 406
#     4   9  22  42  64  96 134 180 228 280 343 412
#     4  10  22  42  66  93 134 175 230 281 343 412
#     4  11  24  43  69 101 137 183 230 286 349 413
#     4  10  24  45  65 101 135 175 234 284 344 417
#     4  11  25  40  66 100 139 178 228 285 350 419
#
# _framework density 24.786822999999998
#
# number of rings (size 3 to 8) (size 9 to 14) (size 15 to 20)
#    0.000    1.667    1.667    1.000    7.000    2.667 
#    0.000    2.500    0.000    0.000    0.000    0.000 
#    0.000    0.000    0.000    0.000    0.000    0.000 
#
# Total GULP energy -134056.883762 kJ/mol
# GULP energy per Si atom -5585.703490 kJ/mol
# Density = 2.473041 g / cm^3
# Si number density = 24.786823 Si / 1000 Ang^3
#
#
#
# Elastic Constant Matrix: (Units=GPa)
#
#
# Indices 1 2 3 4 5 6 
#
# 1 61.0661 -3.2975 18.5738 0.0000 -2.7435 0.0000
# 2 -3.2975 106.6806 44.8066 0.0000 0.8592 0.0000
# 3 18.5738 44.8066 99.4324 0.0000 -18.7930 0.0000
# 4 0.0000 0.0000 0.0000 55.3553 0.0000 -5.3504
# 5 -2.7435 0.8592 -18.7930 0.0000 27.2721 0.0000
# 6 0.0000 0.0000 0.0000 -5.3504 0.0000 24.3474
#
#
#
# Elastic Compliance Matrix: (Units=1/GPa)
#
#
# Indices 1 2 3 4 5 6 
#
# 1 0.017908 0.002588 -0.004813 0.000000 -0.001597 0.000000
# 2 0.002588 0.012448 -0.007034 0.000000 -0.004979 0.000000
# 3 -0.004813 -0.007034 0.016184 0.000000 0.010890 0.000000
# 4 0.000000 0.000000 0.000000 0.018457 0.000000 0.004056
# 5 -0.001597 -0.004979 0.010890 0.000000 0.044168 0.000000
# 6 0.000000 0.000000 0.000000 0.004056 0.000000 0.041964
#
#
# Mechanical properties :
#
#
# Convention : Reuss Voigt Hill
#
# Bulk Modulus (GPa) = 35.68665 43.03833 39.36249
# Shear Modulus (GPa) = 27.93505 35.20137 31.56821
#
# Velocity S-wave (km/s) = 3.36074 3.77260 3.57261
# Velocity P-wave (km/s) = 5.43030 6.03139 5.73872
#
# Compressibility (1/GPa) = 0.02802168
#
# Stress axis : x y z
#
# Youngs Moduli (GPa) = 55.84210 80.33333 61.78963
#
# Poissons Ratio (x) = -0.20790 0.29740
# Poissons Ratio (y) = -0.14451 0.43462
# Poissons Ratio (z) = 0.26877 0.56505
#
# Static dielectric constant tensor:
#      x y z
#    x 2.060470 0.000000 -0.018790 
#    y 0.000000 1.960690 0.000000 
#    z -0.018790 0.000000 2.016240 
# 
# From -- ./inp_files/31902.got.cif
#   From: 2010.05.17/outbox.cif.g08.bks.cpg/sg15_16_cif.got.tgz:31902.got - 2010.06.03 18:47:42.
