data_PCOD9291345
_publ_section_title
;
Structure prediction by ZEFSAII (Michael W. Deem and Ramdas Pophale) SiO2 
 PCOD9291345
Probable space group: C 2/C
;
_chemical_formula_sum "Si O2"
_cell_formula_units_Z 60
_cell_length_a 15.043715
_cell_length_b 17.024840
_cell_length_c 12.688307
_cell_angle_alpha 90.000000
_cell_angle_beta 56.022808
_cell_angle_gamma 90.000000
_cell_volume 2694.837536
_symmetry_space_group_name_H-M "C 2/C"
_symmetry_group_IT_number 15
_symmetry_cell_setting 'monoclinic'
loop_
_space_group_symop_operation_xyz
x,y,z
-x,y,1/2-z
-x,-y,-z
x,-y,1/2+z
1/2+x,1/2+y,z
1/2-x,1/2+y,1/2-z
1/2-x,1/2-y,-z
1/2+x,1/2-y,1/2+z
loop_
_atom_site_type_symbol
_atom_site_label
_atom_site_fract_x
_atom_site_fract_y
_atom_site_fract_z
Si Si1 0.000000 0.500000 0.500000
Si Si2 0.241331 0.155072 0.149697
Si Si3 0.982435 0.166869 0.641882
Si Si4 0.894263 0.694362 0.755835
Si Si5 0.684498 0.581351 0.409220
Si Si6 0.698483 0.005114 0.975499
Si Si7 0.524916 0.820936 0.964628
Si Si8 0.772675 0.081714 0.711836
O O1 0.075261 0.520896 0.555548
O O2 0.022588 0.588006 0.438063
O O3 0.156102 0.221989 0.180468
O O4 0.232667 0.130424 0.279407
O O5 0.359027 0.192043 0.058915
O O6 0.232224 0.074174 0.089460
O O7 0.074868 0.122708 0.515621
O O8 0.000000 0.144154 0.750000
O O9 0.989885 0.259700 0.619075
O O10 0.863926 0.140507 0.688038
O O11 0.807027 0.624993 0.815061
O O12 0.000000 0.677306 0.750000
O O13 0.931878 0.697745 0.609488
O O14 0.759493 0.562552 0.461469
O O15 0.669320 0.493754 0.374502
O O16 0.703576 0.049112 0.857006
#
# Coordination Sequence:
#
# PCOD9291345 Si02
#       8
#     4   8   8   8   8   8   8   8
#     4  10  22  42  66  96 138 180 228 288 338 414
#     4  10  24  46  68 101 142 181 239 291 354 424
#     4  12  24  44  73 106 141 189 229 293 370 418
#     4  12  26  45  71 102 140 192 237 293 359 421
#     4  11  24  44  72 102 140 189 232 291 366 419
#     4  10  22  43  70  99 141 183 230 299 349 425
#     4  11  24  45  68 103 144 178 236 294 341 434
#     4  11  24  44  66 103 144 181 238 291 345 435
#
# _framework density 22.264793000000001
#
# number of rings (size 3 to 8) (size 9 to 14) (size 15 to 20)
#    0.000    1.067    5.333    0.400    3.733    2.667 
#    4.800    8.000    0.000    0.000    0.000    0.000 
#    0.000    0.000    0.000    0.000    0.000    0.000 
#
# Total GULP energy -167138.865046 kJ/mol
# GULP energy per Si atom -5571.295502 kJ/mol
# Density = 2.221412 g / cm^3
# Si number density = 22.264793 Si / 1000 Ang^3
#
#
#
# Elastic Constant Matrix: (Units=GPa)
#
#
# Indices 1 2 3 4 5 6 
#
# 1 69.6970 32.8972 10.0733 0.0000 0.2162 0.0000
# 2 32.8972 124.5355 17.9059 0.0000 0.9557 0.0000
# 3 10.0733 17.9059 52.9551 0.0000 4.7889 0.0000
# 4 0.0000 0.0000 0.0000 27.1696 0.0000 0.4339
# 5 0.2162 0.9557 4.7889 0.0000 27.2929 0.0000
# 6 0.0000 0.0000 0.0000 0.4339 0.0000 30.1430
#
#
#
# Elastic Compliance Matrix: (Units=1/GPa)
#
#
# Indices 1 2 3 4 5 6 
#
# 1 0.016548 -0.004117 -0.001785 0.000000 0.000326 0.000000
# 2 -0.004117 0.009466 -0.002429 0.000000 0.000127 0.000000
# 3 -0.001785 -0.002429 0.020359 0.000000 -0.003473 0.000000
# 4 0.000000 0.000000 0.000000 0.036814 0.000000 -0.000530
# 5 0.000326 0.000127 -0.003473 0.000000 0.037242 0.000000
# 6 0.000000 0.000000 0.000000 -0.000530 0.000000 0.033183
#
#
# Mechanical properties :
#
#
# Convention : Reuss Voigt Hill
#
# Bulk Modulus (GPa) = 33.65869 40.99339 37.32604
# Shear Modulus (GPa) = 27.75033 29.34183 28.54608
#
# Velocity S-wave (km/s) = 3.53424 3.63417 3.58455
# Velocity P-wave (km/s) = 5.63957 6.00511 5.82520
#
# Compressibility (1/GPa) = 0.02971001
#
# Stress axis : x y z
#
# Youngs Moduli (GPa) = 60.42979 105.64463 49.11850
#
# Poissons Ratio (x) = 0.43496 0.08769
# Poissons Ratio (y) = 0.24880 0.11931
# Poissons Ratio (z) = 0.10788 0.25661
#
# Static dielectric constant tensor:
#      x y z
#    x 1.842830 0.000000 0.015840 
#    y 0.000000 1.606660 0.000000 
#    z 0.015840 0.000000 1.779690 
# 
# From -- ./inp_files/98745.got.cif
#   From: 2010.05.17/outbox.cif.g08.bks.cpg/sg15_50_cif.got.tgz:98745.got - 2010.06.03 18:47:42.
