data_PCOD9291463
_publ_section_title
;
Structure prediction by ZEFSAII (Michael W. Deem and Ramdas Pophale) SiO2 
 PCOD9291463
Probable space group: C 2/C
;
_chemical_formula_sum "Si O2"
_cell_formula_units_Z 56
_cell_length_a 25.272314
_cell_length_b 14.149453
_cell_length_c 15.357689
_cell_angle_alpha 90.000000
_cell_angle_beta 26.224846
_cell_angle_gamma 90.000000
_cell_volume 2426.775044
_symmetry_space_group_name_H-M "C 2/C"
_symmetry_group_IT_number 15
_symmetry_cell_setting 'monoclinic'
loop_
_space_group_symop_operation_xyz
x,y,z
-x,y,1/2-z
-x,-y,-z
x,-y,1/2+z
1/2+x,1/2+y,z
1/2-x,1/2+y,1/2-z
1/2-x,1/2-y,-z
1/2+x,1/2-y,1/2+z
loop_
_atom_site_type_symbol
_atom_site_label
_atom_site_fract_x
_atom_site_fract_y
_atom_site_fract_z
Si Si1 0.658430 0.695686 0.196949
Si Si2 0.073299 0.822052 0.270540
Si Si3 0.237099 0.552563 0.114649
Si Si4 0.104121 0.143065 0.922388
Si Si5 0.298494 0.139081 0.758571
Si Si6 0.320320 0.423898 0.675953
Si Si7 0.982360 0.393811 0.678945
O O1 0.534374 0.653194 0.346106
O O2 0.621175 0.784440 0.312081
O O3 0.716786 0.619549 0.176402
O O4 0.750000 0.750000 0.000000
O O5 0.121122 0.819121 0.299472
O O6 0.057488 0.716717 0.257399
O O7 0.943937 0.871349 0.467522
O O8 0.160938 0.887761 0.084642
O O9 0.258133 0.440053 0.095393
O O10 0.234933 0.587156 0.218420
O O11 0.117178 0.560730 0.235805
O O12 0.192437 0.188958 0.862059
O O13 0.142514 0.033031 0.865906
O O14 0.389871 0.094945 0.555316
O O15 0.000000 0.431325 0.750000
#
# Coordination Sequence:
#
# PCOD9291463 Si02
#       7
#     8   8   8   8   8   8   8
#     4  11  24  41  67  98 138 176 231 287 350 414
#     4  11  21  39  69 101 132 175 236 286 352 407
#     4  11  25  40  69  97 138 179 228 295 353 418
#     4  10  23  43  68  97 136 185 228 294 337 418
#     4  11  25  44  65  98 139 180 232 286 358 419
#     4  10  22  42  67  99 135 181 240 286 344 414
#     4  12  24  43  67 100 136 179 238 292 359 418
#
# _framework density 23.075893000000001
#
# number of rings (size 3 to 8) (size 9 to 14) (size 15 to 20)
#    0.000    1.143    2.857    4.714    6.000    0.571 
#    0.000    0.000    0.000    0.000    0.000    0.000 
#    0.000    0.000    0.000    0.000    0.000    0.000 
#
# Total GULP energy -156504.582428 kJ/mol
# GULP energy per Si atom -5589.449372 kJ/mol
# Density = 2.302337 g / cm^3
# Si number density = 23.075893 Si / 1000 Ang^3
#
#
#
# Elastic Constant Matrix: (Units=GPa)
#
#
# Indices 1 2 3 4 5 6 
#
# 1 157.8863 23.4668 56.5977 0.0000 -24.5863 0.0000
# 2 23.4668 70.2274 20.9574 0.0000 -3.1841 0.0000
# 3 56.5977 20.9574 102.8905 0.0000 11.8992 0.0000
# 4 0.0000 0.0000 0.0000 20.7128 0.0000 16.9495
# 5 -24.5863 -3.1841 11.8992 0.0000 20.8940 0.0000
# 6 0.0000 0.0000 0.0000 16.9495 0.0000 13.5428
#
#
#
# Elastic Compliance Matrix: (Units=1/GPa)
#
#
# Indices 1 2 3 4 5 6 
#
# 1 0.012994 -0.000605 -0.009402 -0.000001 0.020553 0.000001
# 2 -0.000605 0.015569 -0.003244 0.000000 0.003509 0.000000
# 3 -0.009402 -0.003244 0.018079 0.000001 -0.021853 -0.000001
# 4 -0.000001 0.000000 0.000001 -1.998666 -0.000002 2.501425
# 5 0.020553 0.003509 -0.021853 -0.000002 0.085025 0.000002
# 6 0.000001 0.000000 -0.000001 2.501425 0.000002 -3.056812
#
#
# Mechanical properties :
#
#
# Convention : Reuss Voigt Hill
#
# Bulk Modulus (GPa) = 49.65063 59.22757 54.43910
# Shear Modulus (GPa) = -1.02237 26.36206 12.66985
#
# Velocity S-wave (km/s) = -0.66634 3.38362 2.34573
# Velocity P-wave (km/s) = 4.57940 6.40213 5.56589
#
# Compressibility (1/GPa) = 0.02014073
#
# Stress axis : x y z
#
# Youngs Moduli (GPa) = 76.95744 64.23120 55.31340
#
# Poissons Ratio (x) = 0.03883 0.52003
# Poissons Ratio (y) = 0.04653 0.17946
# Poissons Ratio (z) = 0.72352 0.20839
#
# Static dielectric constant tensor:
#      x y z
#    x 1.929960 0.000000 0.053960 
#    y 0.000000 1.881110 0.000000 
#    z 0.053960 0.000000 1.867060 
# 
# From -- ./inp_files/173796.got.cif
#   From: 2010.05.17/outbox.cif.g08.bks.cpg/sg15_87_cif.got.tgz:173796.got - 2010.06.03 18:47:42.
