data_PCOD9291302
_publ_section_title
;
Structure prediction by ZEFSAII (Michael W. Deem and Ramdas Pophale) SiO2 
 PCOD9291302
Probable space group: C 2/C
;
_chemical_formula_sum "Si O2"
_cell_formula_units_Z 52
_cell_length_a 11.775879
_cell_length_b 24.744839
_cell_length_c 9.703776
_cell_angle_alpha 90.000000
_cell_angle_beta 106.935608
_cell_angle_gamma 90.000000
_cell_volume 2704.979434
_symmetry_space_group_name_H-M "C 2/C"
_symmetry_group_IT_number 15
_symmetry_cell_setting 'monoclinic'
loop_
_space_group_symop_operation_xyz
x,y,z
-x,y,1/2-z
-x,-y,-z
x,-y,1/2+z
1/2+x,1/2+y,z
1/2-x,1/2+y,1/2-z
1/2-x,1/2-y,-z
1/2+x,1/2-y,1/2+z
loop_
_atom_site_type_symbol
_atom_site_label
_atom_site_fract_x
_atom_site_fract_y
_atom_site_fract_z
Si Si1 0.234834 0.583111 0.946535
Si Si2 0.992587 0.435829 0.478446
Si Si3 0.873930 0.026730 0.485592
Si Si4 0.756085 0.690826 0.067041
Si Si5 0.500000 0.136293 0.250000
Si Si6 0.723603 0.600221 0.833082
Si Si7 0.867108 0.877362 0.761500
O O1 0.277752 0.520950 0.950899
O O2 0.292121 0.610848 0.833033
O O3 0.093056 0.582698 0.906637
O O4 0.285125 0.609995 0.101967
O O5 0.022668 0.403482 0.629355
O O6 0.000000 0.500000 0.500000
O O7 0.857787 0.422124 0.393359
O O8 0.862706 0.055945 0.629483
O O9 0.852369 0.072320 0.362346
O O10 0.000000 0.000000 0.500000
O O11 0.886750 0.672479 0.166616
O O12 0.670855 0.675451 0.165268
O O13 0.750000 0.750000 0.000000
O O14 0.718543 0.651837 0.928350
O O15 0.000000 0.875078 0.750000
#
# Coordination Sequence:
#
# PCOD9291302 Si02
#       7
#     8   8   8   8   4   8   8
#     4  12  22  36  59  92 133 167 207 259 316 385
#     4  11  22  34  60  93 133 169 205 246 321 394
#     4  11  22  37  56  86 138 178 208 243 314 394
#     4  10  23  49  68  87 121 165 222 274 332 373
#     4  10  22  42  66  94 126 172 214 272 322 392
#     4  10  24  38  59  93 123 166 213 264 313 387
#     4  11  23  42  62  93 127 172 215 264 317 394
#
# _framework density 19.223804999999999
#
# number of rings (size 3 to 8) (size 9 to 14) (size 15 to 20)
#    0.000    1.231    4.615    1.385    2.154    0.000 
#    2.769    3.846    0.000    0.000    0.000    0.000 
#    0.000    0.000    0.000    0.000    0.000    0.000 
#
# Total GULP energy -145232.582388 kJ/mol
# GULP energy per Si atom -5585.868553 kJ/mol
# Density = 1.918005 g / cm^3
# Si number density = 19.223805 Si / 1000 Ang^3
#
#
#
# Elastic Constant Matrix: (Units=GPa)
#
#
# Indices 1 2 3 4 5 6 
#
# 1 104.8544 33.4421 35.6215 0.0000 -20.3118 0.0000
# 2 33.4421 102.7428 42.3537 0.0000 -7.5878 0.0000
# 3 35.6215 42.3537 130.5563 0.0000 -23.4683 0.0000
# 4 0.0000 0.0000 0.0000 21.3216 0.0000 -4.4677
# 5 -20.3118 -7.5878 -23.4683 0.0000 33.0894 0.0000
# 6 0.0000 0.0000 0.0000 -4.4677 0.0000 18.5729
#
#
#
# Elastic Compliance Matrix: (Units=1/GPa)
#
#
# Indices 1 2 3 4 5 6 
#
# 1 0.012041 -0.002963 -0.001281 0.000000 0.005804 0.000000
# 2 -0.002963 0.011965 -0.003332 0.000000 -0.001438 0.000000
# 3 -0.001281 -0.003332 0.010099 0.000000 0.005612 0.000000
# 4 0.000000 0.000000 0.000000 0.049390 0.000000 0.011881
# 5 0.005804 -0.001438 0.005612 0.000000 0.037434 0.000000
# 6 0.000000 0.000000 0.000000 0.011881 0.000000 0.056700
#
#
# Mechanical properties :
#
#
# Convention : Reuss Voigt Hill
#
# Bulk Modulus (GPa) = 52.75928 62.33201 57.54564
# Shear Modulus (GPa) = 25.11330 29.71252 27.41291
#
# Velocity S-wave (km/s) = 3.61829 3.93569 3.78032
# Velocity P-wave (km/s) = 6.70525 7.29024 7.00386
#
# Compressibility (1/GPa) = 0.01895401
#
# Stress axis : x y z
#
# Youngs Moduli (GPa) = 83.04679 83.58025 99.02333
#
# Poissons Ratio (x) = 0.24762 0.12685
# Poissons Ratio (y) = 0.24604 0.32990
# Poissons Ratio (z) = 0.10639 0.27845
#
# Static dielectric constant tensor:
#      x y z
#    x 1.715520 0.000000 -0.000740 
#    y 0.000000 1.556600 0.000000 
#    z -0.000740 0.000000 1.713610 
# 
# From -- ./inp_files/33645.got.cif
#   From: 2010.05.17/outbox.cif.g08.bks.cpg/sg15_17_cif.got.tgz:33645.got - 2010.06.03 18:47:42.
