data_PCOD9291476
_publ_section_title
;
Structure prediction by ZEFSAII (Michael W. Deem and Ramdas Pophale) SiO2 
 PCOD9291476
Probable space group: C 2/C
;
_chemical_formula_sum "Si O2"
_cell_formula_units_Z 36
_cell_length_a 12.819669
_cell_length_b 6.795059
_cell_length_c 16.224275
_cell_angle_alpha 90.000000
_cell_angle_beta 102.245892
_cell_angle_gamma 90.000000
_cell_volume 1381.145349
_symmetry_space_group_name_H-M "C 2/C"
_symmetry_group_IT_number 15
_symmetry_cell_setting 'monoclinic'
loop_
_space_group_symop_operation_xyz
x,y,z
-x,y,1/2-z
-x,-y,-z
x,-y,1/2+z
1/2+x,1/2+y,z
1/2-x,1/2+y,1/2-z
1/2-x,1/2-y,-z
1/2+x,1/2-y,1/2+z
loop_
_atom_site_type_symbol
_atom_site_label
_atom_site_fract_x
_atom_site_fract_y
_atom_site_fract_z
Si Si1 0.000000 0.000000 0.500000
Si Si2 0.279536 0.449049 0.683383
Si Si3 0.144012 0.681301 0.934361
Si Si4 0.919449 0.209889 0.812445
Si Si5 0.372882 0.281506 0.061589
O O1 0.952760 0.799116 0.542596
O O2 0.128035 0.899794 0.522218
O O3 0.338367 0.258610 0.655663
O O4 0.157914 0.388657 0.678147
O O5 0.343214 0.533589 0.771605
O O6 0.300136 0.617024 0.617740
O O7 0.128262 0.449031 0.937354
O O8 0.250000 0.750000 0.000000
O O9 0.000000 0.254135 0.750000
O O10 0.000700 0.149726 0.899354
#
# Coordination Sequence:
#
# PCOD9291476 Si02
#       5
#     4   8   8   8   8
#     4  10  22  42  68 102 132 184 226 282 352 416
#     4  10  24  43  66 100 133 187 232 293 352 423
#     4  11  24  43  70 103 141 183 233 291 359 422
#     4  10  23  46  63  96 136 177 237 284 355 416
#     4  10  23  45  65 102 139 180 232 293 350 426
#
# _framework density 26.065324
#
# number of rings (size 3 to 8) (size 9 to 14) (size 15 to 20)
#    0.000    1.778    0.000    2.000    6.222    5.333 
#   20.000    0.000    0.000    0.000    0.000    0.000 
#    0.000    0.000    0.000    0.000    0.000    0.000 
#
# Total GULP energy -100446.628896 kJ/mol
# GULP energy per Si atom -5580.368272 kJ/mol
# Density = 2.600600 g / cm^3
# Si number density = 26.065324 Si / 1000 Ang^3
#
#
#
# Elastic Constant Matrix: (Units=GPa)
#
#
# Indices 1 2 3 4 5 6 
#
# 1 166.7765 84.1866 74.1676 0.0000 -5.9386 0.0000
# 2 84.1866 274.4343 48.5445 0.0000 -16.0639 0.0000
# 3 74.1676 48.5445 98.3053 0.0000 -14.4591 0.0000
# 4 0.0000 0.0000 0.0000 32.8163 0.0000 -10.5253
# 5 -5.9386 -16.0639 -14.4591 0.0000 49.6896 0.0000
# 6 0.0000 0.0000 0.0000 -10.5253 0.0000 64.4288
#
#
#
# Elastic Compliance Matrix: (Units=1/GPa)
#
#
# Indices 1 2 3 4 5 6 
#
# 1 0.009916 -0.001933 -0.006732 0.000000 -0.001399 0.000000
# 2 -0.001933 0.004396 -0.000562 0.000000 0.001027 0.000000
# 3 -0.006732 -0.000562 0.016072 0.000000 0.003691 0.000000
# 4 0.000000 0.000000 0.000000 0.032158 0.000000 0.005253
# 5 -0.001399 0.001027 0.003691 0.000000 0.021364 0.000000
# 6 0.000000 0.000000 0.000000 0.005253 0.000000 0.016379
#
#
# Mechanical properties :
#
#
# Convention : Reuss Voigt Hill
#
# Bulk Modulus (GPa) = 83.82080 105.92372 94.87226
# Shear Modulus (GPa) = 40.74474 51.56143 46.15309
#
# Velocity S-wave (km/s) = 3.95799 4.45248 4.21250
# Velocity P-wave (km/s) = 7.28803 8.19505 7.75481
#
# Compressibility (1/GPa) = 0.01193021
#
# Stress axis : x y z
#
# Youngs Moduli (GPa) = 100.84783 227.46747 62.22009
#
# Poissons Ratio (x) = 0.43965 0.41890
# Poissons Ratio (y) = 0.19492 0.03495
# Poissons Ratio (z) = 0.67896 0.12776
#
# Static dielectric constant tensor:
#      x y z
#    x 2.172720 0.000000 -0.009530 
#    y 0.000000 2.100330 0.000000 
#    z -0.009530 0.000000 2.409170 
# 
# From -- ./inp_files/267064.got.cif
#   From: 2010.05.17/outbox.cif.g08.bks.cpg/sg15_134_cif.got.tgz:267064.got - 2010.06.03 18:47:42.
