data_PCOD9291596
_publ_section_title
;
Structure prediction by ZEFSAII (Michael W. Deem and Ramdas Pophale) SiO2 
 PCOD9291596
Probable space group: C 2/C
;
_chemical_formula_sum "Si O2"
_cell_formula_units_Z 40
_cell_length_a 8.466909
_cell_length_b 20.965280
_cell_length_c 14.646653
_cell_angle_alpha 90.000000
_cell_angle_beta 139.029612
_cell_angle_gamma 90.000000
_cell_volume 1704.702224
_symmetry_space_group_name_H-M "C 2/C"
_symmetry_group_IT_number 15
_symmetry_cell_setting 'monoclinic'
loop_
_space_group_symop_operation_xyz
x,y,z
-x,y,1/2-z
-x,-y,-z
x,-y,1/2+z
1/2+x,1/2+y,z
1/2-x,1/2+y,1/2-z
1/2-x,1/2-y,-z
1/2+x,1/2-y,1/2+z
loop_
_atom_site_type_symbol
_atom_site_label
_atom_site_fract_x
_atom_site_fract_y
_atom_site_fract_z
Si Si1 0.000000 0.119000 0.750000
Si Si2 0.500000 0.077071 0.750000
Si Si3 0.357322 0.680764 0.969404
Si Si4 0.497204 0.813625 0.486377
Si Si5 0.830908 0.124494 0.254848
Si Si6 0.595352 0.514160 0.645947
O O1 0.230748 0.165159 0.843877
O O2 0.975689 0.070268 0.653145
O O3 0.730043 0.122176 0.864150
O O4 0.383839 0.030375 0.773334
O O5 0.155338 0.687626 0.961781
O O6 0.427047 0.743491 0.943750
O O7 0.606691 0.661189 0.126002
O O8 0.576727 0.864534 0.597780
O O9 0.000000 0.154230 0.250000
O O10 0.921450 0.053563 0.311857
O O11 0.500000 0.500000 0.500000
#
# Coordination Sequence:
#
# PCOD9291596 Si02
#       6
#     4   4   8   8   8   8
#     4  12  26  48  70 110 144 190 248 304 370 426
#     4  12  24  42  72 100 138 194 230 294 362 434
#     4  10  22  43  67 102 137 185 243 289 359 436
#     4  10  24  41  71  99 141 186 240 303 358 429
#     4  10  22  42  69 101 138 189 236 294 359 429
#     4  12  26  44  69 105 150 188 241 300 366 436
#
# _framework density 23.464511000000002
#
# number of rings (size 3 to 8) (size 9 to 14) (size 15 to 20)
#    0.000    1.200    5.000    0.000    9.800    0.800 
#    0.000    5.000    0.000    0.000    0.000    0.000 
#    0.000    0.000    0.000    0.000    0.000    0.000 
#
# Total GULP energy -111339.982438 kJ/mol
# GULP energy per Si atom -5566.999122 kJ/mol
# Density = 2.341110 g / cm^3
# Si number density = 23.464511 Si / 1000 Ang^3
#
#
#
# Elastic Constant Matrix: (Units=GPa)
#
#
# Indices 1 2 3 4 5 6 
#
# 1 55.3371 31.9841 34.4715 -0.0001 -3.8896 0.0000
# 2 31.9841 76.2899 40.7258 0.0000 4.0302 0.0001
# 3 34.4715 40.7258 119.8742 -0.0005 5.4957 -0.0001
# 4 -0.0001 0.0000 -0.0005 39.1747 -0.0002 -4.2660
# 5 -3.8896 4.0302 5.4957 -0.0002 27.6097 0.0000
# 6 0.0000 0.0001 -0.0001 -4.2660 0.0000 -0.1430
#
#
#
# Elastic Compliance Matrix: (Units=1/GPa)
#
#
# Indices 1 2 3 4 5 6 
#
# 1 0.026704 -0.008878 -0.004940 0.000000 0.006041 -0.000004
# 2 -0.008878 0.019007 -0.003754 0.000001 -0.003278 0.000006
# 3 -0.004940 -0.003754 0.011147 0.000000 -0.002367 -0.000003
# 4 0.000000 0.000001 0.000000 0.006008 0.000000 -0.179240
# 5 0.006041 -0.003278 -0.002367 0.000000 0.038020 -0.000005
# 6 -0.000004 0.000006 -0.000003 -0.179240 -0.000005 -1.645946
#
#
# Mechanical properties :
#
#
# Convention : Reuss Voigt Hill
#
# Bulk Modulus (GPa) = 46.05313 51.76266 48.90790
# Shear Modulus (GPa) = -3.32739 22.94959 9.81110
#
# Velocity S-wave (km/s) = -1.19211 3.13078 2.04703
# Velocity P-wave (km/s) = 4.21598 5.93101 5.14545
#
# Compressibility (1/GPa) = 0.02171405
#
# Stress axis : x y z
#
# Youngs Moduli (GPa) = 37.44742 52.61206 89.71307
#
# Poissons Ratio (x) = 0.46706 0.44319
# Poissons Ratio (y) = 0.33244 0.33681
# Poissons Ratio (z) = 0.18499 0.19752
#
# Static dielectric constant tensor:
#      x y z
#    x 1.976930 0.000000 -0.038870 
#    y 0.000000 1.996870 0.000000 
#    z -0.038870 0.000000 1.983260 
# 
# From -- ./inp_files/137641.got.cif
#   From: 2010.05.17/outbox.cif.g08.bks.cpg/sg15_69_cif.got.tgz:137641.got - 2010.06.03 18:47:42.
