data_PCOD9291987
_publ_section_title
;
Structure prediction by ZEFSAII (Michael W. Deem and Ramdas Pophale) SiO2 
 PCOD9291987
Probable space group: C 2/C
;
_chemical_formula_sum "Si O2"
_cell_formula_units_Z 48
_cell_length_a 28.804310
_cell_length_b 5.944906
_cell_length_c 27.572977
_cell_angle_alpha 90.000000
_cell_angle_beta 150.766702
_cell_angle_gamma 90.000000
_cell_volume 2305.856804
_symmetry_space_group_name_H-M "C 2/C"
_symmetry_group_IT_number 15
_symmetry_cell_setting 'monoclinic'
loop_
_space_group_symop_operation_xyz
x,y,z
-x,y,1/2-z
-x,-y,-z
x,-y,1/2+z
1/2+x,1/2+y,z
1/2-x,1/2+y,1/2-z
1/2-x,1/2-y,-z
1/2+x,1/2-y,1/2+z
loop_
_atom_site_type_symbol
_atom_site_label
_atom_site_fract_x
_atom_site_fract_y
_atom_site_fract_z
Si Si1 0.950012 0.373810 0.998338
Si Si2 0.521738 0.388541 0.647804
Si Si3 0.485595 0.001118 0.680148
Si Si4 0.700305 0.270029 0.208186
Si Si5 0.367725 0.228497 0.998865
Si Si6 0.155578 0.255403 0.778452
O O1 0.876466 0.208084 0.904849
O O2 0.892186 0.542739 0.980411
O O3 0.000000 0.500000 0.000000
O O4 0.026130 0.259947 0.103390
O O5 0.481083 0.253441 0.656250
O O6 0.444221 0.574915 0.563067
O O7 0.620452 0.498980 0.753075
O O8 0.500000 0.979399 0.750000
O O9 0.393393 0.876516 0.574561
O O10 0.576566 0.900736 0.734060
O O11 0.748883 0.521908 0.255483
O O12 0.655625 0.223157 0.220390
O O13 0.259942 0.300544 0.893523
#
# Coordination Sequence:
#
# PCOD9291987 Si02
#       6
#     8   8   8   8   8   8
#     4  11  23  37  61  92 136 183 229 281 346 409
#     4  10  23  41  64  90 134 175 228 289 352 418
#     4  10  24  44  67  98 129 173 234 295 362 421
#     4  12  26  41  67 103 143 185 236 281 344 425
#     4  10  22  43  64  95 131 177 221 292 345 427
#     4  11  24  42  69  96 137 178 235 284 353 419
#
# _framework density 20.816558000000001
#
# number of rings (size 3 to 8) (size 9 to 14) (size 15 to 20)
#    0.000    1.333    1.667    4.000    4.667    7.333 
#    0.000    1.667    0.000    0.000    0.000    0.000 
#    0.000    0.000    0.000    0.000    0.000    0.000 
#
# Total GULP energy -133896.184774 kJ/mol
# GULP energy per Si atom -5579.007699 kJ/mol
# Density = 2.076918 g / cm^3
# Si number density = 20.816558 Si / 1000 Ang^3
#
#
#
# Elastic Constant Matrix: (Units=GPa)
#
#
# Indices 1 2 3 4 5 6 
#
# 1 78.4388 13.7709 30.0479 -0.0013 -26.6826 -0.0008
# 2 13.7709 48.1236 0.8633 -0.0014 -3.4336 0.0035
# 3 30.0479 0.8633 73.2136 -0.0009 -12.2562 0.0009
# 4 -0.0013 -0.0014 -0.0009 26.8166 -0.0002 3.8758
# 5 -26.6826 -3.4336 -12.2562 -0.0002 42.2510 0.0000
# 6 -0.0008 0.0035 0.0009 3.8758 0.0000 8.6968
#
#
#
# Elastic Compliance Matrix: (Units=1/GPa)
#
#
# Indices 1 2 3 4 5 6 
#
# 1 0.019376 -0.004716 -0.006214 0.000000 0.010051 0.000004
# 2 -0.004716 0.022049 0.001552 0.000003 -0.000736 -0.000011
# 3 -0.006214 0.001552 0.016349 0.000001 0.000944 -0.000003
# 4 0.000000 0.000003 0.000001 0.039858 0.000001 -0.017763
# 5 0.010051 -0.000736 0.000944 0.000001 0.030229 0.000001
# 6 0.000004 -0.000011 -0.000003 -0.017763 0.000001 0.122902
#
#
# Mechanical properties :
#
#
# Convention : Reuss Voigt Hill
#
# Bulk Modulus (GPa) = 25.62907 32.12670 28.87788
# Shear Modulus (GPa) = 17.69757 25.89247 21.79502
#
# Velocity S-wave (km/s) = 2.91893 3.53064 3.23925
# Velocity P-wave (km/s) = 4.86814 5.66456 5.28139
#
# Compressibility (1/GPa) = 0.03901820
#
# Stress axis : x y z
#
# Youngs Moduli (GPa) = 51.60974 45.35356 61.16658
#
# Poissons Ratio (x) = 0.21389 0.38010
# Poissons Ratio (y) = 0.24339 -0.09495
# Poissons Ratio (z) = 0.32071 -0.07040
#
# Static dielectric constant tensor:
#      x y z
#    x 1.707070 0.000000 0.029730 
#    y 0.000000 1.854890 0.000000 
#    z 0.029730 0.000000 1.753890 
# 
# From -- ./inp_files/179656.got.cif
#   From: 2010.05.17/outbox.cif.g08.bks.cpg/sg15_90_cif.got.tgz:179656.got - 2010.06.03 18:47:42.
