data_PCOD9291971
_publ_section_title
;
Structure prediction by ZEFSAII (Michael W. Deem and Ramdas Pophale) SiO2 
 PCOD9291971
Probable space group: C 2/C
;
_chemical_formula_sum "Si O2"
_cell_formula_units_Z 60
_cell_length_a 17.612723
_cell_length_b 12.157160
_cell_length_c 16.320619
_cell_angle_alpha 90.000000
_cell_angle_beta 116.773170
_cell_angle_gamma 90.000000
_cell_volume 3119.952018
_symmetry_space_group_name_H-M "C 2/C"
_symmetry_group_IT_number 15
_symmetry_cell_setting 'monoclinic'
loop_
_space_group_symop_operation_xyz
x,y,z
-x,y,1/2-z
-x,-y,-z
x,-y,1/2+z
1/2+x,1/2+y,z
1/2-x,1/2+y,1/2-z
1/2-x,1/2-y,-z
1/2+x,1/2-y,1/2+z
loop_
_atom_site_type_symbol
_atom_site_label
_atom_site_fract_x
_atom_site_fract_y
_atom_site_fract_z
Si Si1 0.462926 0.814557 0.414442
Si Si2 0.299690 0.602466 0.790004
Si Si3 0.083289 0.068340 0.064738
Si Si4 0.646300 0.039432 0.281689
Si Si5 0.500000 0.097680 0.750000
Si Si6 0.800527 0.547939 0.904569
Si Si7 0.376749 0.833594 0.885561
Si Si8 0.738651 0.632668 0.035982
O O1 0.437272 0.687158 0.408494
O O2 0.478815 0.842638 0.326131
O O3 0.387301 0.889035 0.418286
O O4 0.546863 0.827892 0.512089
O O5 0.365490 0.507767 0.847032
O O6 0.210137 0.557502 0.783068
O O7 0.276755 0.604111 0.683075
O O8 0.335186 0.716302 0.843444
O O9 0.144857 0.094768 0.017105
O O10 0.000000 0.000000 0.000000
O O11 0.597354 0.103555 0.185727
O O12 0.706184 0.126105 0.355249
O O13 0.579348 0.980987 0.306640
O O14 0.807507 0.420361 0.884293
O O15 0.780803 0.553469 0.990129
O O16 0.750000 0.750000 0.000000
#
# Coordination Sequence:
#
# PCOD9291971 Si02
#       8
#     8   8   8   8   4   8   8   8
#     4  12  24  43  69  93 136 173 220 275 336 394
#     4  10  22  43  64  93 131 174 212 267 337 392
#     4  11  24  47  64  93 137 176 216 280 339 403
#     4  10  24  38  64  96 135 168 219 276 329 393
#     4  12  24  42  62 100 132 166 220 274 336 378
#     4  11  23  40  68  98 125 168 226 271 326 397
#     4  11  22  41  68  94 130 173 214 273 330 392
#     4  11  22  41  69  95 129 175 224 274 330 398
#
# _framework density 19.231065000000001
#
# number of rings (size 3 to 8) (size 9 to 14) (size 15 to 20)
#    0.000    1.067    5.333    2.000    5.600    0.000 
#    4.800    2.000    0.000    0.000    0.000    0.000 
#    0.000    0.000    0.000    0.000    0.000    0.000 
#
# Total GULP energy -167243.780094 kJ/mol
# GULP energy per Si atom -5574.792670 kJ/mol
# Density = 1.918729 g / cm^3
# Si number density = 19.231065 Si / 1000 Ang^3
#
#
#
# Elastic Constant Matrix: (Units=GPa)
#
#
# Indices 1 2 3 4 5 6 
#
# 1 98.2246 39.4480 45.2959 0.0000 -2.4075 0.0000
# 2 39.4480 132.6075 38.4539 0.0000 2.4391 0.0000
# 3 45.2959 38.4539 109.6935 0.0000 11.6462 0.0000
# 4 0.0000 0.0000 0.0000 30.8574 0.0000 0.6352
# 5 -2.4075 2.4391 11.6462 0.0000 34.6786 0.0000
# 6 0.0000 0.0000 0.0000 0.6352 0.0000 25.4242
#
#
#
# Elastic Compliance Matrix: (Units=1/GPa)
#
#
# Indices 1 2 3 4 5 6 
#
# 1 0.013617 -0.002655 -0.004990 0.000000 0.002808 0.000000
# 2 -0.002655 0.008918 -0.002015 0.000000 -0.000135 0.000000
# 3 -0.004990 -0.002015 0.012345 0.000000 -0.004351 0.000000
# 4 0.000000 0.000000 0.000000 0.032424 0.000000 -0.000810
# 5 0.002808 -0.000135 -0.004351 0.000000 0.030502 0.000000
# 6 0.000000 0.000000 0.000000 -0.000810 0.000000 0.039353
#
#
# Mechanical properties :
#
#
# Convention : Reuss Voigt Hill
#
# Bulk Modulus (GPa) = 64.27416 65.21346 64.74381
# Shear Modulus (GPa) = 30.92771 32.68055 31.80413
#
# Velocity S-wave (km/s) = 4.01461 4.12680 4.07109
# Velocity P-wave (km/s) = 7.41512 7.52937 7.47247
#
# Compressibility (1/GPa) = 0.01555835
#
# Stress axis : x y z
#
# Youngs Moduli (GPa) = 73.43629 112.13405 81.00195
#
# Poissons Ratio (x) = 0.29776 0.40422
# Poissons Ratio (y) = 0.19500 0.16325
# Poissons Ratio (z) = 0.36647 0.22600
#
# Static dielectric constant tensor:
#      x y z
#    x 1.688860 0.000000 -0.035470 
#    y 0.000000 1.678360 0.000000 
#    z -0.035470 0.000000 1.752750 
# 
# From -- ./inp_files/210658.got.cif
#   From: 2010.05.17/outbox.cif.g08.bks.cpg/sg15_106_cif.got.tgz:210658.got - 2010.06.03 18:47:42.
