data_PCOD9291324
_publ_section_title
;
Structure prediction by ZEFSAII (Michael W. Deem and Ramdas Pophale) SiO2 
 PCOD9291324
Probable space group: C 2/C
;
_chemical_formula_sum "Si O2"
_cell_formula_units_Z 44
_cell_length_a 18.198830
_cell_length_b 11.990364
_cell_length_c 13.206782
_cell_angle_alpha 90.000000
_cell_angle_beta 54.612954
_cell_angle_gamma 90.000000
_cell_volume 2349.461380
_symmetry_space_group_name_H-M "C 2/C"
_symmetry_group_IT_number 15
_symmetry_cell_setting 'monoclinic'
loop_
_space_group_symop_operation_xyz
x,y,z
-x,y,1/2-z
-x,-y,-z
x,-y,1/2+z
1/2+x,1/2+y,z
1/2-x,1/2+y,1/2-z
1/2-x,1/2-y,-z
1/2+x,1/2-y,1/2+z
loop_
_atom_site_type_symbol
_atom_site_label
_atom_site_fract_x
_atom_site_fract_y
_atom_site_fract_z
Si Si1 0.795608 0.662150 0.716248
Si Si2 0.740805 0.429087 0.460725
Si Si3 0.000000 0.722155 0.250000
Si Si4 0.991153 0.370816 0.978212
Si Si5 0.311312 0.654392 0.900836
Si Si6 0.832227 0.291918 0.552849
O O1 0.789426 0.572635 0.812695
O O2 0.896614 0.674092 0.597178
O O3 0.731951 0.629112 0.673989
O O4 0.750498 0.772061 0.802762
O O5 0.696127 0.544307 0.525310
O O6 0.809968 0.390676 0.493013
O O7 0.671124 0.325096 0.506219
O O8 0.992470 0.648836 0.357167
O O9 0.911439 0.798470 0.312216
O O10 0.076057 0.309732 0.961264
O O11 0.000000 0.500000 0.000000
O O12 0.250000 0.750000 0.000000
#
# Coordination Sequence:
#
# PCOD9291324 Si02
#       6
#     8   8   4   8   8   8
#     4  10  22  42  66  95 127 172 214 273 328 384
#     4   9  22  45  64  94 130 173 210 272 330 387
#     4  12  26  44  60 104 128 172 226 264 334 400
#     4  12  25  40  70  97 129 173 223 278 325 394
#     4  12  24  42  68  93 136 172 217 269 331 395
#     4   9  21  45  64  97 132 164 228 262 336 389
#
# _framework density 18.727695000000001
#
# number of rings (size 3 to 8) (size 9 to 14) (size 15 to 20)
#    1.091    0.364    3.636    1.091    2.545    2.182 
#    3.273    1.818    0.000    0.000    0.000    0.000 
#    0.000    0.000    0.000    0.000    0.000    0.000 
#
# Total GULP energy -122725.443443 kJ/mol
# GULP energy per Si atom -5578.429247 kJ/mol
# Density = 1.868507 g / cm^3
# Si number density = 18.727695 Si / 1000 Ang^3
#
#
#
# Elastic Constant Matrix: (Units=GPa)
#
#
# Indices 1 2 3 4 5 6 
#
# 1 145.2755 34.9470 82.1408 0.0000 -5.6779 0.0000
# 2 34.9470 87.8232 49.0956 0.0000 -5.3948 0.0000
# 3 82.1408 49.0956 150.9015 0.0000 1.8444 0.0000
# 4 0.0000 0.0000 0.0000 26.2243 0.0000 -5.0039
# 5 -5.6779 -5.3948 1.8444 0.0000 40.8948 0.0000
# 6 0.0000 0.0000 0.0000 -5.0039 0.0000 6.4847
#
#
#
# Elastic Compliance Matrix: (Units=1/GPa)
#
#
# Indices 1 2 3 4 5 6 
#
# 1 0.010128 -0.001034 -0.005195 0.000000 0.001504 0.000000
# 2 -0.001034 0.014196 -0.004079 0.000000 0.001913 0.000000
# 3 -0.005195 -0.004079 0.010803 0.000000 -0.001747 0.000000
# 4 0.000000 0.000000 0.000000 0.044717 0.000000 0.034506
# 5 0.001504 0.001913 -0.001747 0.000000 0.024993 0.000000
# 6 0.000000 0.000000 0.000000 0.034506 0.000000 0.180835
#
#
# Mechanical properties :
#
#
# Convention : Reuss Voigt Hill
#
# Bulk Modulus (GPa) = 68.91307 79.59633 74.25470
# Shear Modulus (GPa) = 16.07068 29.24189 22.65629
#
# Velocity S-wave (km/s) = 2.93255 3.95577 3.48195
# Velocity P-wave (km/s) = 6.95297 7.96608 7.47670
#
# Compressibility (1/GPa) = 0.01451104
#
# Stress axis : x y z
#
# Youngs Moduli (GPa) = 98.73208 70.44340 92.56351
#
# Poissons Ratio (x) = 0.07281 0.48090
# Poissons Ratio (y) = 0.10205 0.37760
# Poissons Ratio (z) = 0.51295 0.28736
#
# Static dielectric constant tensor:
#      x y z
#    x 1.635290 0.000000 0.024670 
#    y 0.000000 1.646070 0.000000 
#    z 0.024670 0.000000 1.662110 
# 
# From -- ./inp_files/110848.got.cif
#   From: 2010.05.17/outbox.cif.g08.bks.cpg/sg15_56_cif.got.tgz:110848.got - 2010.06.03 18:47:42.
