data_PCOD9291647
_publ_section_title
;
Structure prediction by ZEFSAII (Michael W. Deem and Ramdas Pophale) SiO2 
 PCOD9291647
Probable space group: C 2/C
;
_chemical_formula_sum "Si O2"
_cell_formula_units_Z 40
_cell_length_a 13.892007
_cell_length_b 16.000175
_cell_length_c 22.396101
_cell_angle_alpha 90.000000
_cell_angle_beta 158.348050
_cell_angle_gamma 90.000000
_cell_volume 1836.750525
_symmetry_space_group_name_H-M "C 2/C"
_symmetry_group_IT_number 15
_symmetry_cell_setting 'monoclinic'
loop_
_space_group_symop_operation_xyz
x,y,z
-x,y,1/2-z
-x,-y,-z
x,-y,1/2+z
1/2+x,1/2+y,z
1/2-x,1/2+y,1/2-z
1/2-x,1/2-y,-z
1/2+x,1/2-y,1/2+z
loop_
_atom_site_type_symbol
_atom_site_label
_atom_site_fract_x
_atom_site_fract_y
_atom_site_fract_z
Si Si1 0.248850 0.698026 0.359944
Si Si2 0.651044 0.846602 0.435111
Si Si3 0.291540 0.173038 0.402841
Si Si4 0.807919 0.090596 0.281326
Si Si5 0.878802 0.931220 0.384284
O O1 0.471122 0.762776 0.468339
O O2 0.176957 0.644282 0.259136
O O3 0.386902 0.634274 0.485986
O O4 0.000000 0.735240 0.250000
O O5 0.750000 0.750000 0.500000
O O6 0.650564 0.877534 0.503594
O O7 0.883981 0.889802 0.534623
O O8 0.374188 0.873303 0.248275
O O9 0.270996 0.122964 0.329238
O O10 0.000000 0.208680 0.250000
O O11 0.788090 0.992169 0.279224
O O12 0.000000 0.000000 0.500000
#
# Coordination Sequence:
#
# PCOD9291647 Si02
#       5
#     8   8   8   8   8
#     4  11  24  39  63  96 135 174 224 285 357 411
#     4  11  21  43  74  98 132 187 244 285 342 435
#     4  10  22  42  69  98 127 183 236 284 338 426
#     4  10  23  40  64  96 135 174 229 291 348 419
#     4  10  24  39  65  98 138 175 227 293 354 415
#
# _framework density 21.77759
#
# number of rings (size 3 to 8) (size 9 to 14) (size 15 to 20)
#    0.000    1.600    2.000    2.400    5.600    3.200 
#    0.000    0.000    0.000    0.000    0.000    0.000 
#    0.000    0.000    0.000    0.000    0.000    0.000 
#
# Total GULP energy -111391.407355 kJ/mol
# GULP energy per Si atom -5569.570368 kJ/mol
# Density = 2.172802 g / cm^3
# Si number density = 21.777590 Si / 1000 Ang^3
#
#
#
# Elastic Constant Matrix: (Units=GPa)
#
#
# Indices 1 2 3 4 5 6 
#
# 1 120.4590 22.9418 38.4848 0.0009 4.8435 -0.0010
# 2 22.9418 67.5816 26.2323 -0.0111 15.2790 0.0008
# 3 38.4848 26.2323 106.1934 -0.0100 10.8407 -0.0088
# 4 0.0009 -0.0111 -0.0100 25.5121 0.0151 8.6893
# 5 4.8435 15.2790 10.8407 0.0151 46.5944 0.0001
# 6 -0.0010 0.0008 -0.0088 8.6893 0.0001 20.3311
#
#
#
# Elastic Compliance Matrix: (Units=1/GPa)
#
#
# Indices 1 2 3 4 5 6 
#
# 1 0.009664 -0.002211 -0.002999 -0.000003 0.000418 0.000001
# 2 -0.002211 0.017864 -0.003111 0.000012 -0.004904 -0.000007
# 3 -0.002999 -0.003111 0.011407 0.000003 -0.001322 0.000004
# 4 -0.000003 0.000012 0.000003 0.045875 -0.000019 -0.019606
# 5 0.000418 -0.004904 -0.001322 -0.000019 0.023334 0.000008
# 6 0.000001 -0.000007 0.000004 -0.019606 0.000008 0.057565
#
#
# Mechanical properties :
#
#
# Convention : Reuss Voigt Hill
#
# Bulk Modulus (GPa) = 44.85656 52.17241 48.51449
# Shear Modulus (GPa) = 26.34611 32.25919 29.30265
#
# Velocity S-wave (km/s) = 3.48196 3.85294 3.67214
# Velocity P-wave (km/s) = 6.06694 6.61835 6.34863
#
# Compressibility (1/GPa) = 0.02229328
#
# Stress axis : x y z
#
# Youngs Moduli (GPa) = 103.47757 55.97920 87.66596
#
# Poissons Ratio (x) = 0.12378 0.26289
# Poissons Ratio (y) = 0.22881 0.27271
# Poissons Ratio (z) = 0.31030 0.17414
#
# Static dielectric constant tensor:
#      x y z
#    x 1.860630 0.000020 -0.061870 
#    y 0.000020 1.846120 -0.000020 
#    z -0.061870 -0.000020 1.830880 
# 
# From -- ./inp_files/96031.got.cif
#   From: 2010.05.17/outbox.cif.g08.bks.cpg/sg15_49_cif.got.tgz:96031.got - 2010.06.03 18:47:42.
