data_PCOD9291217
_publ_section_title
;
Structure prediction by ZEFSAII (Michael W. Deem and Ramdas Pophale) SiO2 
 PCOD9291217
Probable space group: C 2/C
;
_chemical_formula_sum "Si O2"
_cell_formula_units_Z 32
_cell_length_a 8.470509
_cell_length_b 15.075804
_cell_length_c 10.787888
_cell_angle_alpha 90.000000
_cell_angle_beta 71.034477
_cell_angle_gamma 90.000000
_cell_volume 1302.825891
_symmetry_space_group_name_H-M "C 2/C"
_symmetry_group_IT_number 15
_symmetry_cell_setting 'monoclinic'
loop_
_space_group_symop_operation_xyz
x,y,z
-x,y,1/2-z
-x,-y,-z
x,-y,1/2+z
1/2+x,1/2+y,z
1/2-x,1/2+y,1/2-z
1/2-x,1/2-y,-z
1/2+x,1/2-y,1/2+z
loop_
_atom_site_type_symbol
_atom_site_label
_atom_site_fract_x
_atom_site_fract_y
_atom_site_fract_z
Si Si1 0.309845 0.145747 0.830874
Si Si2 0.341810 0.342028 0.712541
Si Si3 0.325665 0.958302 0.576594
Si Si4 0.052324 0.086728 0.563069
O O1 0.500000 0.111063 0.750000
O O2 0.316546 0.245963 0.778164
O O3 0.295262 0.118602 0.980198
O O4 0.121708 0.118829 0.835861
O O5 0.500000 0.380034 0.750000
O O6 0.195640 0.409760 0.786540
O O7 0.381063 0.343514 0.557054
O O8 0.203458 0.042737 0.598527
O O9 0.500000 0.000000 0.500000
O O10 0.000000 0.000000 0.500000
#
# Coordination Sequence:
#
# PCOD9291217 Si02
#       4
#     8   8   8   8
#     4  10  23  39  68  94 130 172 224 263 336 396
#     4  11  21  40  70  92 131 176 221 273 338 398
#     4  11  25  40  69  99 131 172 229 271 330 397
#     4  10  22  42  65  97 132 170 220 279 328 389
#
# _framework density 24.561992
#
# number of rings (size 3 to 8) (size 9 to 14) (size 15 to 20)
#    0.000    1.500    5.000    0.750   10.500    0.000 
#    0.000    1.250   11.000    0.000    0.000    0.000 
#    0.000    0.000    0.000    0.000    0.000    0.000 
#
# Total GULP energy -89153.664458 kJ/mol
# GULP energy per Si atom -5572.104029 kJ/mol
# Density = 2.450609 g / cm^3
# Si number density = 24.561992 Si / 1000 Ang^3
#
#
#
# Elastic Constant Matrix: (Units=GPa)
#
#
# Indices 1 2 3 4 5 6 
#
# 1 102.7641 51.6786 61.9099 0.0000 -55.8490 0.0000
# 2 51.6786 115.3213 72.8137 0.0000 -16.6779 0.0000
# 3 61.9099 72.8137 181.7178 0.0000 -27.1087 0.0000
# 4 0.0000 0.0000 0.0000 44.0555 0.0000 -20.4373
# 5 -55.8490 -16.6779 -27.1087 0.0000 49.0833 0.0000
# 6 0.0000 0.0000 0.0000 -20.4373 0.0000 22.6325
#
#
#
# Elastic Compliance Matrix: (Units=1/GPa)
#
#
# Indices 1 2 3 4 5 6 
#
# 1 0.035289 -0.008617 -0.003287 0.000000 0.035409 0.000000
# 2 -0.008617 0.013815 -0.003664 0.000000 -0.007135 0.000000
# 3 -0.003287 -0.003664 0.008007 0.000000 -0.000563 0.000000
# 4 0.000000 0.000000 0.000000 0.039062 0.000000 0.035273
# 5 0.035409 -0.007135 -0.000563 0.000000 0.057929 0.000000
# 6 0.000000 0.000000 0.000000 0.035273 0.000000 0.076036
#
#
# Mechanical properties :
#
#
# Convention : Reuss Voigt Hill
#
# Bulk Modulus (GPa) = 38.50086 85.84527 62.17306
# Shear Modulus (GPa) = 18.52320 37.38101 27.95211
#
# Velocity S-wave (km/s) = 2.74914 3.90539 3.37712
# Velocity P-wave (km/s) = 5.07800 7.44059 6.36979
#
# Compressibility (1/GPa) = 0.02597345
#
# Stress axis : x y z
#
# Youngs Moduli (GPa) = 28.33752 72.38675 124.88826
#
# Poissons Ratio (x) = 0.62378 0.41055
# Poissons Ratio (y) = 0.24419 0.45759
# Poissons Ratio (z) = 0.09315 0.26522
#
# Static dielectric constant tensor:
#      x y z
#    x 2.076480 0.000000 0.204290 
#    y 0.000000 1.928090 0.000000 
#    z 0.204290 0.000000 1.452330 
# 
# From -- ./inp_files/154305.got.cif
#   From: 2010.05.17/outbox.cif.g08.bks.cpg/sg15_78_cif.got.tgz:154305.got - 2010.06.03 18:47:42.
