data_PCOD9291501
_publ_section_title
;
Structure prediction by ZEFSAII (Michael W. Deem and Ramdas Pophale) SiO2 
 PCOD9291501
Probable space group: C 2/C
;
_chemical_formula_sum "Si O2"
_cell_formula_units_Z 60
_cell_length_a 8.319186
_cell_length_b 16.870754
_cell_length_c 20.826311
_cell_angle_alpha 90.000000
_cell_angle_beta 119.019126
_cell_angle_gamma 90.000000
_cell_volume 2556.033515
_symmetry_space_group_name_H-M "C 2/C"
_symmetry_group_IT_number 15
_symmetry_cell_setting 'monoclinic'
loop_
_space_group_symop_operation_xyz
x,y,z
-x,y,1/2-z
-x,-y,-z
x,-y,1/2+z
1/2+x,1/2+y,z
1/2-x,1/2+y,1/2-z
1/2-x,1/2-y,-z
1/2+x,1/2-y,1/2+z
loop_
_atom_site_type_symbol
_atom_site_label
_atom_site_fract_x
_atom_site_fract_y
_atom_site_fract_z
Si Si1 0.714452 0.519955 0.302906
Si Si2 0.448548 0.907474 0.427776
Si Si3 0.254102 0.208512 0.315264
Si Si4 0.914291 0.892029 0.938614
Si Si5 0.926303 0.248082 0.341867
Si Si6 0.891327 0.681997 0.047033
Si Si7 0.210989 0.064029 0.588961
Si Si8 0.000000 0.541557 0.750000
O O1 0.500000 0.497218 0.250000
O O2 0.794510 0.471492 0.379167
O O3 0.718390 0.614245 0.312151
O O4 0.863418 0.502116 0.274504
O O5 0.410661 0.828339 0.378304
O O6 0.451154 0.873545 0.499805
O O7 0.643336 0.942379 0.441842
O O8 0.241870 0.234599 0.239214
O O9 0.444173 0.224253 0.385486
O O10 0.099604 0.248664 0.328527
O O11 0.957120 0.827498 0.893409
O O12 0.709837 0.873124 0.921787
O O13 0.899112 0.983344 0.914884
O O14 0.053043 0.882926 0.025647
O O15 0.750000 0.750000 0.000000
O O16 0.345456 0.083124 0.674783
#
# Coordination Sequence:
#
# PCOD9291501 Si02
#       8
#     8   8   8   8   8   8   8   4
#     4  11  24  46  75 110 141 198 246 312 360 437
#     4  11  26  45  68 104 145 184 239 298 364 432
#     4  11  26  46  75 101 144 187 249 294 372 440
#     4  11  24  43  70 102 140 187 243 289 370 434
#     4  11  24  47  71 104 140 191 235 300 369 437
#     4  12  26  44  67 104 142 189 235 305 363 440
#     4  10  24  42  70 103 139 193 237 299 360 438
#     4  10  22  42  68 108 150 182 244 310 364 424
#
# _framework density 23.473870000000002
#
# number of rings (size 3 to 8) (size 9 to 14) (size 15 to 20)
#    0.000    1.067    2.667    3.200    3.733   10.133 
#    0.000    0.000    0.000    0.000    0.000    0.000 
#    0.000    0.000    0.000    0.000    0.000    0.000 
#
# Total GULP energy -167694.710500 kJ/mol
# GULP energy per Si atom -5589.823683 kJ/mol
# Density = 2.342044 g / cm^3
# Si number density = 23.473870 Si / 1000 Ang^3
#
#
#
# Elastic Constant Matrix: (Units=GPa)
#
#
# Indices 1 2 3 4 5 6 
#
# 1 59.0944 17.5491 28.8403 0.0000 17.8488 0.0000
# 2 17.5491 99.8956 34.0477 0.0000 0.3981 0.0000
# 3 28.8403 34.0477 138.5823 0.0000 26.7598 0.0000
# 4 0.0000 0.0000 0.0000 28.0742 0.0000 -17.6260
# 5 17.8488 0.3981 26.7598 0.0000 38.3477 0.0000
# 6 0.0000 0.0000 0.0000 -17.6260 0.0000 -4.4718
#
#
#
# Elastic Compliance Matrix: (Units=1/GPa)
#
#
# Indices 1 2 3 4 5 6 
#
# 1 0.021391 -0.003017 -0.002073 0.000000 -0.008478 0.000000
# 2 -0.003017 0.011490 -0.002824 0.000000 0.003256 0.000000
# 3 -0.002073 -0.002824 0.009418 0.000000 -0.005578 0.000000
# 4 0.000000 0.000000 0.000000 0.010251 0.000000 -0.040406
# 5 -0.008478 0.003256 -0.005578 0.000000 0.033882 0.000000
# 6 0.000000 0.000000 0.000000 -0.040406 0.000000 -0.064358
#
#
# Mechanical properties :
#
#
# Convention : Reuss Voigt Hill
#
# Bulk Modulus (GPa) = 37.77790 50.93848 44.35819
# Shear Modulus (GPa) = 107.00789 26.86570 66.93679
#
# Velocity S-wave (km/s) = 6.75906 3.38671 5.34578
# Velocity P-wave (km/s) = 8.77734 6.08607 7.55255
#
# Compressibility (1/GPa) = 0.02647051
#
# Stress axis : x y z
#
# Youngs Moduli (GPa) = 46.74931 87.03276 106.17770
#
# Poissons Ratio (x) = 0.26261 0.22012
# Poissons Ratio (y) = 0.14106 0.29980
# Poissons Ratio (z) = 0.09692 0.24575
#
# Static dielectric constant tensor:
#      x y z
#    x 1.873350 0.000000 0.017180 
#    y 0.000000 1.924120 0.000000 
#    z 0.017180 0.000000 1.956750 
# 
# From -- ./inp_files/233079.got.cif
#   From: 2010.05.17/outbox.cif.g08.bks.cpg/sg15_117_cif.got.tgz:233079.got - 2010.06.03 18:47:42.
