data_PCOD9291920
_publ_section_title
;
Structure prediction by ZEFSAII (Michael W. Deem and Ramdas Pophale) SiO2 
 PCOD9291920
Probable space group: C 2/C
;
_chemical_formula_sum "Si O2"
_cell_formula_units_Z 56
_cell_length_a 20.838433
_cell_length_b 27.870767
_cell_length_c 9.697803
_cell_angle_alpha 90.000000
_cell_angle_beta 31.143925
_cell_angle_gamma 90.000000
_cell_volume 2912.977553
_symmetry_space_group_name_H-M "C 2/C"
_symmetry_group_IT_number 15
_symmetry_cell_setting 'monoclinic'
loop_
_space_group_symop_operation_xyz
x,y,z
-x,y,1/2-z
-x,-y,-z
x,-y,1/2+z
1/2+x,1/2+y,z
1/2-x,1/2+y,1/2-z
1/2-x,1/2-y,-z
1/2+x,1/2-y,1/2+z
loop_
_atom_site_type_symbol
_atom_site_label
_atom_site_fract_x
_atom_site_fract_y
_atom_site_fract_z
Si Si1 0.813094 0.222433 0.256741
Si Si2 0.617868 0.178169 0.944052
Si Si3 0.993126 0.860182 0.427808
Si Si4 0.366943 0.623171 0.573309
Si Si5 0.145613 0.985314 0.495567
Si Si6 0.710902 0.558558 0.159214
Si Si7 0.386433 0.853337 0.357181
O O1 0.750000 0.250000 0.500000
O O2 0.856504 0.265170 0.078727
O O3 0.713984 0.182952 0.389245
O O4 0.927199 0.189341 0.092438
O O5 0.748679 0.151513 0.731943
O O6 0.583872 0.168986 0.846732
O O7 0.500000 0.162084 0.250000
O O8 0.907491 0.905765 0.622882
O O9 0.000000 0.859221 0.250000
O O10 0.113338 0.865646 0.301571
O O11 0.500000 0.633435 0.250000
O O12 0.342356 0.566833 0.596869
O O13 0.190445 0.976795 0.568396
O O14 0.216473 0.026900 0.285689
O O15 0.000000 0.997976 0.750000
O O16 0.824524 0.595171 0.942010
O O17 0.500000 0.857597 0.250000
#
# Coordination Sequence:
#
# PCOD9291920 Si02
#       7
#     8   8   8   8   8   8   8
#     4   9  20  39  63  88 122 162 210 255 311 372
#     4  11  23  41  64  94 128 165 210 262 312 378
#     4  11  22  36  58  94 126 154 199 266 319 370
#     4  11  21  41  65  89 127 170 212 256 318 380
#     4  11  21  37  63  93 121 158 212 265 321 370
#     4  11  22  39  59  91 125 157 209 264 318 372
#     4  10  22  43  62  87 125 171 209 254 311 381
#
# _framework density 19.224315000000001
#
# number of rings (size 3 to 8) (size 9 to 14) (size 15 to 20)
#    0.000    1.429    4.286    3.000    2.000    5.143 
#    0.000    3.571    0.000    0.000    0.000    0.000 
#    0.000    0.000    0.000    0.000    0.000    0.000 
#
# Total GULP energy -156218.879289 kJ/mol
# GULP energy per Si atom -5579.245689 kJ/mol
# Density = 1.918056 g / cm^3
# Si number density = 19.224315 Si / 1000 Ang^3
#
#
#
# Elastic Constant Matrix: (Units=GPa)
#
#
# Indices 1 2 3 4 5 6 
#
# 1 104.9005 3.2470 24.3347 -0.0001 4.4608 0.0001
# 2 3.2470 71.5922 22.9830 0.0000 7.7125 0.0001
# 3 24.3347 22.9830 62.5488 -0.0001 1.3087 0.0001
# 4 -0.0001 0.0000 -0.0001 15.6465 0.0001 10.8150
# 5 4.4608 7.7125 1.3087 0.0001 26.5422 -0.0001
# 6 0.0001 0.0001 0.0001 10.8150 -0.0001 12.5902
#
#
#
# Elastic Compliance Matrix: (Units=1/GPa)
#
#
# Indices 1 2 3 4 5 6 
#
# 1 0.010628 0.001177 -0.004527 0.000000 -0.001905 0.000000
# 2 0.001177 0.016477 -0.006414 0.000000 -0.004669 0.000000
# 3 -0.004527 -0.006414 0.020071 0.000000 0.001635 0.000000
# 4 0.000000 0.000000 0.000000 0.157321 -0.000001 -0.135138
# 5 -0.001905 -0.004669 0.001635 -0.000001 0.039272 0.000001
# 6 0.000000 0.000000 0.000000 -0.135138 0.000001 0.195510
#
#
# Mechanical properties :
#
#
# Convention : Reuss Voigt Hill
#
# Bulk Modulus (GPa) = 36.17147 37.79676 36.98411
# Shear Modulus (GPa) = 10.68321 23.52090 17.10206
#
# Velocity S-wave (km/s) = 2.35992 3.50165 2.98586
# Velocity P-wave (km/s) = 5.12659 6.00436 5.58275
#
# Compressibility (1/GPa) = 0.02764610
#
# Stress axis : x y z
#
# Youngs Moduli (GPa) = 94.09442 60.69138 49.82190
#
# Poissons Ratio (x) = -0.07141 0.22555
# Poissons Ratio (y) = -0.11071 0.31957
# Poissons Ratio (z) = 0.42598 0.38929
#
# Static dielectric constant tensor:
#      x y z
#    x 1.682880 0.000000 0.001240 
#    y 0.000000 1.666130 0.000000 
#    z 0.001240 0.000000 1.736840 
# 
# From -- ./inp_files/52293.got.cif
#   From: 2010.05.17/outbox.cif.g08.bks.cpg/sg15_27_cif.got.tgz:52293.got - 2010.06.03 18:47:42.
