data_PCOD9291461
_publ_section_title
;
Structure prediction by ZEFSAII (Michael W. Deem and Ramdas Pophale) SiO2 
 PCOD9291461
Probable space group: C 2/C
;
_chemical_formula_sum "Si O2"
_cell_formula_units_Z 36
_cell_length_a 14.382193
_cell_length_b 9.455909
_cell_length_c 13.125467
_cell_angle_alpha 90.000000
_cell_angle_beta 123.568074
_cell_angle_gamma 90.000000
_cell_volume 1487.331521
_symmetry_space_group_name_H-M "C 2/C"
_symmetry_group_IT_number 15
_symmetry_cell_setting 'monoclinic'
loop_
_space_group_symop_operation_xyz
x,y,z
-x,y,1/2-z
-x,-y,-z
x,-y,1/2+z
1/2+x,1/2+y,z
1/2-x,1/2+y,1/2-z
1/2-x,1/2-y,-z
1/2+x,1/2-y,1/2+z
loop_
_atom_site_type_symbol
_atom_site_label
_atom_site_fract_x
_atom_site_fract_y
_atom_site_fract_z
Si Si1 0.516377 0.251404 0.973555
Si Si2 0.163990 0.922981 0.283022
Si Si3 0.500000 0.090158 0.750000
Si Si4 0.910469 0.037142 0.546685
Si Si5 0.347581 0.102156 0.278127
O O1 0.503383 0.185555 0.853930
O O2 0.602800 0.382548 0.010312
O O3 0.415445 0.334924 0.968870
O O4 0.558997 0.135414 0.078934
O O5 0.170069 0.946680 0.407520
O O6 0.183022 0.758630 0.274948
O O7 0.037093 0.958911 0.170401
O O8 0.251268 0.017363 0.275954
O O9 0.602833 0.986322 0.786001
#
# Coordination Sequence:
#
# PCOD9291461 Si02
#       5
#     8   8   4   8   8
#     4  10  22  42  70  95 128 175 219 264 329 381
#     4  10  22  42  67  99 134 170 213 269 324 391
#     4  12  24  44  66  92 136 172 218 274 318 382
#     4   9  20  43  69  94 135 172 211 265 329 390
#     4  11  25  42  67 100 132 171 220 267 325 384
#
# _framework density 24.204422999999998
#
# number of rings (size 3 to 8) (size 9 to 14) (size 15 to 20)
#    0.000    1.778    0.000    4.667    6.222    0.889 
#    8.000    2.222    0.000    0.000    0.000    0.000 
#    0.000    0.000    0.000    0.000    0.000    0.000 
#
# Total GULP energy -100658.027536 kJ/mol
# GULP energy per Si atom -5592.112641 kJ/mol
# Density = 2.414933 g / cm^3
# Si number density = 24.204423 Si / 1000 Ang^3
#
#
#
# Elastic Constant Matrix: (Units=GPa)
#
#
# Indices 1 2 3 4 5 6 
#
# 1 121.0779 38.2542 6.1900 0.0000 -37.6571 0.0000
# 2 38.2542 111.2638 9.8202 0.0000 -4.7361 0.0000
# 3 6.1900 9.8202 71.8879 0.0000 -17.9417 0.0000
# 4 0.0000 0.0000 0.0000 35.2555 0.0000 -11.9537
# 5 -37.6571 -4.7361 -17.9417 0.0000 43.6183 0.0000
# 6 0.0000 0.0000 0.0000 -11.9537 0.0000 26.2555
#
#
#
# Elastic Compliance Matrix: (Units=1/GPa)
#
#
# Indices 1 2 3 4 5 6 
#
# 1 0.013179 -0.004238 0.002417 0.000000 0.011912 0.000000
# 2 -0.004238 0.010471 -0.001889 0.000000 -0.003298 0.000000
# 3 0.002417 -0.001889 0.016081 0.000000 0.008496 0.000000
# 4 0.000000 0.000000 0.000000 0.033542 0.000000 0.015271
# 5 0.011912 -0.003298 0.008496 0.000000 0.036347 0.000000
# 6 0.000000 0.000000 0.000000 0.015271 0.000000 0.045040
#
#
# Mechanical properties :
#
#
# Convention : Reuss Voigt Hill
#
# Bulk Modulus (GPa) = 30.94747 45.86205 38.40476
# Shear Modulus (GPa) = 28.92689 37.69021 33.30855
#
# Velocity S-wave (km/s) = 3.46078 3.95037 3.71365
# Velocity P-wave (km/s) = 5.36498 6.30842 5.85573
#
# Compressibility (1/GPa) = 0.03231282
#
# Stress axis : x y z
#
# Youngs Moduli (GPa) = 75.87674 95.50306 62.18556
#
# Poissons Ratio (x) = 0.40469 -0.15031
# Poissons Ratio (y) = 0.32153 0.11745
# Poissons Ratio (z) = -0.18340 0.18037
#
# Static dielectric constant tensor:
#      x y z
#    x 1.904180 0.000000 0.050190 
#    y 0.000000 1.894640 0.000000 
#    z 0.050190 0.000000 2.039780 
# 
# From -- ./inp_files/150398.got.cif
#   From: 2010.05.17/outbox.cif.g08.bks.cpg/sg15_76_cif.got.tgz:150398.got - 2010.06.03 18:47:42.
