data_PCOD9291032
_publ_section_title
;
Structure prediction by ZEFSAII (Michael W. Deem and Ramdas Pophale) SiO2 
 PCOD9291032
Probable space group: C 2/C
;
_chemical_formula_sum "Si O2"
_cell_formula_units_Z 52
_cell_length_a 15.548705
_cell_length_b 29.459744
_cell_length_c 9.190681
_cell_angle_alpha 90.000000
_cell_angle_beta 37.909590
_cell_angle_gamma 90.000000
_cell_volume 2586.629918
_symmetry_space_group_name_H-M "C 2/C"
_symmetry_group_IT_number 15
_symmetry_cell_setting 'monoclinic'
loop_
_space_group_symop_operation_xyz
x,y,z
-x,y,1/2-z
-x,-y,-z
x,-y,1/2+z
1/2+x,1/2+y,z
1/2-x,1/2+y,1/2-z
1/2-x,1/2-y,-z
1/2+x,1/2-y,1/2+z
loop_
_atom_site_type_symbol
_atom_site_label
_atom_site_fract_x
_atom_site_fract_y
_atom_site_fract_z
Si Si1 0.678021 0.280716 0.269832
Si Si2 0.799627 0.124990 0.928188
Si Si3 0.799860 0.121838 0.272054
Si Si4 0.485843 0.452488 0.439651
Si Si5 0.000000 0.170110 0.250000
Si Si6 0.000000 0.336832 0.250000
Si Si7 0.500000 0.871991 0.750000
Si Si8 0.541045 0.210739 0.986837
O O1 0.692442 0.325576 0.153803
O O2 0.594255 0.298614 0.521680
O O3 0.594361 0.240728 0.305535
O O4 0.825365 0.263338 0.132147
O O5 0.902733 0.089844 0.707555
O O6 0.827166 0.134101 0.063481
O O7 0.643318 0.104947 0.109374
O O8 0.897706 0.143025 0.271259
O O9 0.637883 0.134302 0.520568
O O10 0.844882 0.069349 0.195689
O O11 0.500000 0.463233 0.250000
O O12 0.500000 0.500000 0.500000
O O13 0.950439 0.303169 0.190192
O O14 0.535328 0.837646 0.572683
#
# Coordination Sequence:
#
# PCOD9291032 Si02
#       8
#     8   8   8   8   4   4   4   8
#     4  11  25  39  60  91 128 175 224 273 326 375
#     4  10  22  44  68  94 131 172 216 267 328 388
#     4  11  24  43  69  95 130 175 215 269 325 393
#     4  10  23  43  70 103 130 162 208 264 326 396
#     4  12  23  38  64  92 123 179 220 262 332 375
#     4  12  23  44  65  90 138 174 219 276 318 385
#     4  10  22  42  63  94 125 181 219 264 326 378
#     4  11  25  39  59  90 129 175 225 273 320 373
#
# _framework density 20.103379
#
# number of rings (size 3 to 8) (size 9 to 14) (size 15 to 20)
#    0.000    1.231    4.615    0.462    3.231    4.923 
#    0.000    0.769    0.000    3.692    0.000    0.000 
#    0.000    0.000    0.000    0.000    0.000    0.000 
#
# Total GULP energy -144876.055661 kJ/mol
# GULP energy per Si atom -5572.155987 kJ/mol
# Density = 2.005762 g / cm^3
# Si number density = 20.103379 Si / 1000 Ang^3
#
#
#
# Elastic Constant Matrix: (Units=GPa)
#
#
# Indices 1 2 3 4 5 6 
#
# 1 123.7893 37.3368 43.7011 0.0000 -14.8558 0.0000
# 2 37.3368 79.6403 30.8622 0.0000 -10.4859 0.0000
# 3 43.7011 30.8622 83.1944 0.0000 -14.7705 0.0000
# 4 0.0000 0.0000 0.0000 27.0919 0.0000 5.4230
# 5 -14.8558 -10.4859 -14.7705 0.0000 45.0007 0.0000
# 6 0.0000 0.0000 0.0000 5.4230 0.0000 23.7293
#
#
#
# Elastic Compliance Matrix: (Units=1/GPa)
#
#
# Indices 1 2 3 4 5 6 
#
# 1 0.010689 -0.003208 -0.004174 0.000000 0.001411 0.000000
# 2 -0.003208 0.015756 -0.003925 0.000000 0.001324 0.000000
# 3 -0.004174 -0.003925 0.016206 0.000000 0.003027 0.000000
# 4 0.000000 0.000000 0.000000 0.038681 0.000000 -0.008840
# 5 0.001411 0.001324 0.003027 0.000000 0.023990 0.000000
# 6 0.000000 0.000000 0.000000 -0.008840 0.000000 0.044162
#
#
# Mechanical properties :
#
#
# Convention : Reuss Voigt Hill
#
# Bulk Modulus (GPa) = 49.90746 56.71380 53.31063
# Shear Modulus (GPa) = 27.96807 30.81262 29.39035
#
# Velocity S-wave (km/s) = 3.73394 3.91923 3.82771
# Velocity P-wave (km/s) = 6.59311 6.98232 6.79050
#
# Compressibility (1/GPa) = 0.02003708
#
# Stress axis : x y z
#
# Youngs Moduli (GPa) = 93.55694 63.46977 61.70550
#
# Poissons Ratio (x) = 0.20359 0.25757
# Poissons Ratio (y) = 0.30010 0.24218
# Poissons Ratio (z) = 0.39052 0.24910
#
# Static dielectric constant tensor:
#      x y z
#    x 1.803970 0.000000 -0.054470 
#    y 0.000000 1.680150 0.000000 
#    z -0.054470 0.000000 1.754960 
# 
# From -- ./inp_files/44802.got.cif
#   From: 2010.05.17/outbox.cif.g08.bks.cpg/sg15_23_cif.got.tgz:44802.got - 2010.06.03 18:47:42.
