data_PCOD9291777
_publ_section_title
;
Structure prediction by ZEFSAII (Michael W. Deem and Ramdas Pophale) SiO2 
 PCOD9291777
Probable space group: C 2/C
;
_chemical_formula_sum "Si O2"
_cell_formula_units_Z 64
_cell_length_a 8.294803
_cell_length_b 15.156154
_cell_length_c 23.384729
_cell_angle_alpha 90.000000
_cell_angle_beta 71.042115
_cell_angle_gamma 90.000000
_cell_volume 2780.399997
_symmetry_space_group_name_H-M "C 2/C"
_symmetry_group_IT_number 15
_symmetry_cell_setting 'monoclinic'
loop_
_space_group_symop_operation_xyz
x,y,z
-x,y,1/2-z
-x,-y,-z
x,-y,1/2+z
1/2+x,1/2+y,z
1/2-x,1/2+y,1/2-z
1/2-x,1/2-y,-z
1/2+x,1/2-y,1/2+z
loop_
_atom_site_type_symbol
_atom_site_label
_atom_site_fract_x
_atom_site_fract_y
_atom_site_fract_z
Si Si1 0.198325 0.390952 0.486048
Si Si2 0.007807 0.783970 0.986756
Si Si3 0.232838 0.991200 0.625583
Si Si4 0.993362 0.173862 0.355781
Si Si5 0.101717 0.492059 0.605620
Si Si6 0.744769 0.177792 0.610198
Si Si7 0.582454 0.393867 0.297512
Si Si8 0.799518 0.565812 0.285892
O O1 0.091564 0.312553 0.469641
O O2 0.371489 0.345810 0.487932
O O3 0.225642 0.474574 0.442670
O O4 0.105171 0.426992 0.552294
O O5 0.005982 0.826747 0.923978
O O6 0.843439 0.773822 0.046908
O O7 0.403802 0.005241 0.641319
O O8 0.079612 0.053424 0.660882
O O9 0.160338 0.893512 0.640101
O O10 0.925678 0.271379 0.351740
O O11 0.156804 0.143087 0.299493
O O12 0.194362 0.584793 0.587776
O O13 0.198807 0.449116 0.646488
O O14 0.849891 0.163824 0.657002
O O15 0.500000 0.349828 0.250000
O O16 0.721348 0.473076 0.270864
O O17 0.000000 0.582880 0.250000
#
# Coordination Sequence:
#
# PCOD9291777 Si02
#       8
#     8   8   8   8   8   8   8   8
#     4  11  22  37  64  98 138 180 218 267 331 405
#     4  11  22  39  64  98 144 176 220 271 337 401
#     4  11  22  39  66  98 131 173 223 267 330 406
#     4  11  23  41  68 102 137 175 221 279 336 400
#     4  11  22  39  66  98 131 173 223 267 330 406
#     4  11  23  41  68 102 137 175 221 279 336 400
#     4  10  22  42  71  96 125 170 225 284 336 405
#     4  10  22  42  71  96 125 170 225 284 336 405
#
# _framework density 23.018270999999999
#
# number of rings (size 3 to 8) (size 9 to 14) (size 15 to 20)
#    0.000    1.250    2.500    3.750    0.000    1.000 
#    0.000    0.000    0.000   76.500    0.000    0.000 
#    0.000    0.000    0.000    0.000    0.000    0.000 
#
# Total GULP energy -178610.929691 kJ/mol
# GULP energy per Si atom -5581.591553 kJ/mol
# Density = 2.296588 g / cm^3
# Si number density = 23.018271 Si / 1000 Ang^3
#
#
#
# Elastic Constant Matrix: (Units=GPa)
#
#
# Indices 1 2 3 4 5 6 
#
# 1 88.4794 6.8572 23.4555 0.0000 -2.5880 0.0000
# 2 6.8572 28.3394 -3.1863 0.0000 -0.9707 0.0000
# 3 23.4555 -3.1863 58.5255 0.0000 4.4698 0.0000
# 4 0.0000 0.0000 0.0000 -8.4443 0.0000 -3.5577
# 5 -2.5880 -0.9707 4.4698 0.0000 41.5569 0.0000
# 6 0.0000 0.0000 0.0000 -3.5577 0.0000 25.9616
#
#
#
# Elastic Compliance Matrix: (Units=1/GPa)
#
#
# Indices 1 2 3 4 5 6 
#
# 1 0.013105 -0.003750 -0.005558 0.000000 0.001326 0.000000
# 2 -0.003750 0.036593 0.003476 0.000000 0.000247 0.000000
# 3 -0.005558 0.003476 0.019685 0.000000 -0.002382 0.000000
# 4 0.000000 0.000000 0.000000 -0.111959 0.000000 -0.015342
# 5 0.001326 0.000247 -0.002382 0.000000 0.024408 0.000000
# 6 0.000000 0.000000 0.000000 -0.015342 0.000000 0.036416
#
#
# Mechanical properties :
#
#
# Convention : Reuss Voigt Hill
#
# Bulk Modulus (GPa) = 17.32497 25.51081 21.41789
# Shear Modulus (GPa) = 101.72740 21.69603 61.71172
#
# Velocity S-wave (km/s) = 6.65508 3.07344 5.18344
# Velocity P-wave (km/s) = 8.16067 4.86843 6.71930
#
# Compressibility (1/GPa) = 0.05772017
#
# Stress axis : x y z
#
# Youngs Moduli (GPa) = 76.30800 27.32741 50.79990
#
# Poissons Ratio (x) = 0.10249 0.28232
# Poissons Ratio (y) = 0.28618 -0.17660
# Poissons Ratio (z) = 0.42408 -0.09500
#
# Static dielectric constant tensor:
#      x y z
#    x 1.058070 0.000000 -0.380560 
#    y 0.000000 1.836070 0.000000 
#    z -0.380560 0.000000 1.744460 
# 
# From -- ./inp_files/288721.got.cif
#   From: 2010.05.17/outbox.cif.g08.bks.cpg/sg15_145_cif.got.tgz:288721.got - 2010.06.03 18:47:42.
