data_PCOD9291811
_publ_section_title
;
Structure prediction by ZEFSAII (Michael W. Deem and Ramdas Pophale) SiO2 
 PCOD9291811
Probable space group: C 2/C
;
_chemical_formula_sum "Si O2"
_cell_formula_units_Z 48
_cell_length_a 13.806827
_cell_length_b 15.436264
_cell_length_c 15.130673
_cell_angle_alpha 90.000000
_cell_angle_beta 41.429408
_cell_angle_gamma 90.000000
_cell_volume 2133.798231
_symmetry_space_group_name_H-M "C 2/C"
_symmetry_group_IT_number 15
_symmetry_cell_setting 'monoclinic'
loop_
_space_group_symop_operation_xyz
x,y,z
-x,y,1/2-z
-x,-y,-z
x,-y,1/2+z
1/2+x,1/2+y,z
1/2-x,1/2+y,1/2-z
1/2-x,1/2-y,-z
1/2+x,1/2-y,1/2+z
loop_
_atom_site_type_symbol
_atom_site_label
_atom_site_fract_x
_atom_site_fract_y
_atom_site_fract_z
Si Si1 0.226274 0.276615 0.119738
Si Si2 0.973630 0.441116 0.934879
Si Si3 0.500000 0.237248 0.250000
Si Si4 0.249248 0.383129 0.635988
Si Si5 0.486294 0.253237 0.460161
Si Si6 0.240337 0.043265 0.973820
Si Si7 0.000000 0.854434 0.750000
O O1 0.365098 0.257504 0.085916
O O2 0.198565 0.379383 0.130095
O O3 0.096207 0.214202 0.240096
O O4 0.250000 0.250000 0.000000
O O5 0.131028 0.420971 0.784032
O O6 0.924139 0.344794 0.998603
O O7 0.866956 0.495620 0.943790
O O8 0.000000 0.500000 0.000000
O O9 0.356839 0.175817 0.352943
O O10 0.509047 0.280767 0.340561
O O11 0.372464 0.318074 0.581829
O O12 0.322801 0.464773 0.539732
O O13 0.113759 0.085763 0.119746
#
# Coordination Sequence:
#
# PCOD9291811 Si02
#       7
#     8   8   4   8   8   8   4
#     4  10  24  44  70 101 148 199 253 319 387 454
#     4  11  24  46  75 109 148 202 257 311 387 470
#     4  10  22  42  72 106 150 196 254 306 378 470
#     4  11  23  46  74 106 152 191 256 317 378 460
#     4  11  24  46  74 110 151 206 257 320 388 465
#     4  11  23  45  71 106 148 194 250 318 382 455
#     4  10  24  44  74 104 150 192 258 306 386 474
#
# _framework density 22.495099
#
# number of rings (size 3 to 8) (size 9 to 14) (size 15 to 20)
#    0.000    1.333    3.333    2.500    2.333    9.333 
#    9.000    0.000    0.000    0.000    0.000    0.000 
#    0.000    0.000    0.000    0.000    0.000    0.000 
#
# Total GULP energy -133990.921404 kJ/mol
# GULP energy per Si atom -5582.955059 kJ/mol
# Density = 2.244390 g / cm^3
# Si number density = 22.495099 Si / 1000 Ang^3
#
#
#
# Elastic Constant Matrix: (Units=GPa)
#
#
# Indices 1 2 3 4 5 6 
#
# 1 146.6703 55.9366 55.3073 -0.0001 -5.0676 0.0000
# 2 55.9366 170.6400 72.0564 -0.0001 -12.4548 0.0000
# 3 55.3073 72.0564 108.2103 -0.0002 -15.1892 0.0002
# 4 -0.0001 -0.0001 -0.0002 46.7641 0.0002 -17.8568
# 5 -5.0676 -12.4548 -15.1892 0.0002 39.5581 -0.0001
# 6 0.0000 0.0000 0.0002 -17.8568 -0.0001 21.7751
#
#
#
# Elastic Compliance Matrix: (Units=1/GPa)
#
#
# Indices 1 2 3 4 5 6 
#
# 1 0.008682 -0.001366 -0.003628 0.000000 -0.000711 0.000000
# 2 -0.001366 0.008377 -0.004793 0.000000 0.000622 0.000000
# 3 -0.003628 -0.004793 0.014808 0.000000 0.003712 0.000000
# 4 0.000000 0.000000 0.000000 0.031133 0.000000 0.025531
# 5 -0.000711 0.000622 0.003712 0.000000 0.026810 0.000000
# 6 0.000000 0.000000 0.000000 0.025531 0.000000 0.066860
#
#
# Mechanical properties :
#
#
# Convention : Reuss Voigt Hill
#
# Bulk Modulus (GPa) = 81.33794 88.01348 84.67571
# Shear Modulus (GPa) = 27.72505 37.76748 32.74626
#
# Velocity S-wave (km/s) = 3.51450 4.10191 3.81951
# Velocity P-wave (km/s) = 7.25985 7.85142 7.56142
#
# Compressibility (1/GPa) = 0.01229439
#
# Stress axis : x y z
#
# Youngs Moduli (GPa) = 115.17505 119.36834 67.53084
#
# Poissons Ratio (x) = 0.16307 0.24499
# Poissons Ratio (y) = 0.15734 0.32367
# Poissons Ratio (z) = 0.41783 0.57212
#
# Static dielectric constant tensor:
#      x y z
#    x 1.830560 0.000000 0.096710 
#    y 0.000000 1.849840 0.000000 
#    z 0.096710 0.000000 1.844380 
# 
# From -- ./inp_files/205312.got.cif
#   From: 2010.05.17/outbox.cif.g08.bks.cpg/sg15_103_cif.got.tgz:205312.got - 2010.06.03 18:47:42.
