data_PCOD9291221
_publ_section_title
;
Structure prediction by ZEFSAII (Michael W. Deem and Ramdas Pophale) SiO2 
 PCOD9291221
Probable space group: C 2/C
;
_chemical_formula_sum "Si O2"
_cell_formula_units_Z 48
_cell_length_a 11.588868
_cell_length_b 17.238531
_cell_length_c 10.485799
_cell_angle_alpha 90.000000
_cell_angle_beta 103.199638
_cell_angle_gamma 90.000000
_cell_volume 2039.457205
_symmetry_space_group_name_H-M "C 2/C"
_symmetry_group_IT_number 15
_symmetry_cell_setting 'monoclinic'
loop_
_space_group_symop_operation_xyz
x,y,z
-x,y,1/2-z
-x,-y,-z
x,-y,1/2+z
1/2+x,1/2+y,z
1/2-x,1/2+y,1/2-z
1/2-x,1/2-y,-z
1/2+x,1/2-y,1/2+z
loop_
_atom_site_type_symbol
_atom_site_label
_atom_site_fract_x
_atom_site_fract_y
_atom_site_fract_z
Si Si1 0.886429 0.735770 0.841165
Si Si2 0.838372 0.944875 0.384056
Si Si3 0.362425 0.022590 0.488868
Si Si4 0.048564 0.896357 0.588557
Si Si5 0.138417 0.305826 0.455195
Si Si6 0.203349 0.122758 0.876385
O O1 0.897493 0.826970 0.814397
O O2 0.876138 0.689515 0.704115
O O3 0.782345 0.699574 0.897521
O O4 0.007728 0.725544 0.951373
O O5 0.706288 0.972728 0.390637
O O6 0.850221 0.882408 0.277085
O O7 0.909848 0.909777 0.523413
O O8 0.905862 0.020946 0.353511
O O9 0.351128 0.114919 0.461484
O O10 0.500000 0.000000 0.500000
O O11 0.287197 0.954185 0.404533
O O12 0.111582 0.883336 0.467303
O O13 0.250000 0.250000 0.500000
#
# Coordination Sequence:
#
# PCOD9291221 Si02
#       6
#     8   8   8   8   8   8
#     4  11  23  41  67  98 136 177 229 294 351 419
#     4  10  22  42  65  97 135 179 232 290 346 429
#     4  11  22  40  66  92 130 176 225 276 347 415
#     4  10  23  42  64 100 132 184 233 283 358 422
#     4  11  24  42  64  98 138 181 225 289 350 422
#     4  11  22  40  69  92 138 178 229 293 349 421
#
# _framework density 23.535672999999999
#
# number of rings (size 3 to 8) (size 9 to 14) (size 15 to 20)
#    0.000    1.333    3.333    2.000    2.333    0.667 
#    6.000    0.000    0.000    0.000    0.000    0.000 
#    0.000    0.000    0.000    0.000    0.000    0.000 
#
# Total GULP energy -133677.752503 kJ/mol
# GULP energy per Si atom -5569.906354 kJ/mol
# Density = 2.348210 g / cm^3
# Si number density = 23.535673 Si / 1000 Ang^3
#
#
#
# Elastic Constant Matrix: (Units=GPa)
#
#
# Indices 1 2 3 4 5 6 
#
# 1 144.6796 31.0166 34.1992 0.0000 -3.8835 0.0000
# 2 31.0166 135.9509 11.4417 0.0000 15.2514 0.0000
# 3 34.1992 11.4417 51.4500 0.0000 -3.1733 0.0000
# 4 0.0000 0.0000 0.0000 22.1938 0.0000 -2.0730
# 5 -3.8835 15.2514 -3.1733 0.0000 26.5212 0.0000
# 6 0.0000 0.0000 0.0000 -2.0730 0.0000 36.7734
#
#
#
# Elastic Compliance Matrix: (Units=1/GPa)
#
#
# Indices 1 2 3 4 5 6 
#
# 1 0.008548 -0.001692 -0.005207 0.000000 0.001602 0.000000
# 2 -0.001692 0.008417 -0.001069 0.000000 -0.005216 0.000000
# 3 -0.005207 -0.001069 0.023298 0.000000 0.002640 0.000000
# 4 0.000000 0.000000 0.000000 0.045296 0.000000 0.002553
# 5 0.001602 -0.005216 0.002640 0.000000 0.041255 0.000000
# 6 0.000000 0.000000 0.000000 0.002553 0.000000 0.027338
#
#
# Mechanical properties :
#
#
# Convention : Reuss Voigt Hill
#
# Bulk Modulus (GPa) = 41.10573 53.93284 47.51928
# Shear Modulus (GPa) = 28.05884 34.12588 31.09236
#
# Velocity S-wave (km/s) = 3.45655 3.81197 3.63860
# Velocity P-wave (km/s) = 5.78217 6.50691 6.15522
#
# Compressibility (1/GPa) = 0.02432751
#
# Stress axis : x y z
#
# Youngs Moduli (GPa) = 116.98170 118.81246 42.92187
#
# Poissons Ratio (x) = 0.20099 0.22350
# Poissons Ratio (y) = 0.19790 0.04588
# Poissons Ratio (z) = 0.60914 0.12700
#
# Static dielectric constant tensor:
#      x y z
#    x 2.843750 0.000000 1.456500 
#    y 0.000000 1.957980 0.000000 
#    z 1.456500 0.000000 4.329420 
# 
# From -- ./inp_files/87272.got.cif
#   From: 2010.05.17/outbox.cif.g08.bks.cpg/sg15_44_cif.got.tgz:87272.got - 2010.06.03 18:47:42.
