data_PCOD9291295
_publ_section_title
;
Structure prediction by ZEFSAII (Michael W. Deem and Ramdas Pophale) SiO2 
 PCOD9291295
Probable space group: C 2/C
;
_chemical_formula_sum "Si O2"
_cell_formula_units_Z 48
_cell_length_a 16.729455
_cell_length_b 17.606467
_cell_length_c 13.366558
_cell_angle_alpha 90.000000
_cell_angle_beta 150.697211
_cell_angle_gamma 90.000000
_cell_volume 1926.902140
_symmetry_space_group_name_H-M "C 2/C"
_symmetry_group_IT_number 15
_symmetry_cell_setting 'monoclinic'
loop_
_space_group_symop_operation_xyz
x,y,z
-x,y,1/2-z
-x,-y,-z
x,-y,1/2+z
1/2+x,1/2+y,z
1/2-x,1/2+y,1/2-z
1/2-x,1/2-y,-z
1/2+x,1/2-y,1/2+z
loop_
_atom_site_type_symbol
_atom_site_label
_atom_site_fract_x
_atom_site_fract_y
_atom_site_fract_z
Si Si1 0.328931 0.988844 0.868120
Si Si2 0.679665 0.131681 0.961458
Si Si3 0.544070 0.673684 0.122112
Si Si4 0.196646 0.276116 0.745188
Si Si5 0.094652 0.355474 0.955484
Si Si6 0.620425 0.471196 0.967265
O O1 0.201207 0.977091 0.638904
O O2 0.334178 0.923615 0.956399
O O3 0.309272 0.070346 0.901725
O O4 0.500000 0.000000 0.000000
O O5 0.827254 0.188038 0.148506
O O6 0.739532 0.077108 0.937068
O O7 0.500000 0.162883 0.750000
O O8 0.648716 0.683212 0.135418
O O9 0.480871 0.590697 0.080865
O O10 0.391492 0.728316 0.939225
O O11 0.053832 0.328432 0.633831
O O12 0.275785 0.213866 0.906401
O O13 0.000000 0.372347 0.750000
O O14 0.500000 0.503606 0.750000
#
# Coordination Sequence:
#
# PCOD9291295 Si02
#       6
#     8   8   8   8   8   8
#     4  12  23  41  69  99 136 177 222 279 331 409
#     4  11  23  41  66  99 137 175 221 274 337 399
#     4  10  22  42  66  93 133 175 216 280 332 390
#     4  10  22  43  68  94 132 178 225 280 334 395
#     4  11  23  41  68  98 131 176 227 275 342 398
#     4  10  23  43  64  94 133 172 220 273 334 386
#
# _framework density 24.910449
#
# number of rings (size 3 to 8) (size 9 to 14) (size 15 to 20)
#    0.000    1.333    3.333    2.000    0.000    2.667 
#    0.000   10.833    0.000    0.000    0.000    0.000 
#    0.000    0.000    0.000    0.000    0.000    0.000 
#
# Total GULP energy -134281.110133 kJ/mol
# GULP energy per Si atom -5595.046256 kJ/mol
# Density = 2.485375 g / cm^3
# Si number density = 24.910449 Si / 1000 Ang^3
#
#
#
# Elastic Constant Matrix: (Units=GPa)
#
#
# Indices 1 2 3 4 5 6 
#
# 1 74.6255 11.1363 22.9959 0.0000 6.7835 0.0000
# 2 11.1363 64.5022 40.8804 0.0000 -11.4439 0.0000
# 3 22.9959 40.8804 183.8917 0.0000 -6.2718 0.0000
# 4 0.0000 0.0000 0.0000 30.1672 0.0000 2.7935
# 5 6.7835 -11.4439 -6.2718 0.0000 43.8935 0.0000
# 6 0.0000 0.0000 0.0000 2.7935 0.0000 30.6517
#
#
#
# Elastic Compliance Matrix: (Units=1/GPa)
#
#
# Indices 1 2 3 4 5 6 
#
# 1 0.014429 -0.002110 -0.001437 0.000000 -0.002985 0.000000
# 2 -0.002110 0.019140 -0.003828 0.000000 0.004769 0.000000
# 3 -0.001437 -0.003828 0.006474 0.000000 0.000149 0.000000
# 4 0.000000 0.000000 0.000000 0.033431 0.000000 -0.003047
# 5 -0.002985 0.004769 0.000149 0.000000 0.024509 0.000000
# 6 0.000000 0.000000 0.000000 -0.003047 0.000000 0.032902
#
#
# Mechanical properties :
#
#
# Convention : Reuss Voigt Hill
#
# Bulk Modulus (GPa) = 39.53806 52.56051 46.04928
# Shear Modulus (GPa) = 32.45338 37.47626 34.96482
#
# Velocity S-wave (km/s) = 3.61335 3.88292 3.75056
# Velocity P-wave (km/s) = 5.77191 6.42249 6.10587
#
# Compressibility (1/GPa) = 0.02529209
#
# Stress axis : x y z
#
# Youngs Moduli (GPa) = 69.30308 52.24591 154.46687
#
# Poissons Ratio (x) = 0.11024 0.22199
# Poissons Ratio (y) = 0.14623 0.59137
# Poissons Ratio (z) = 0.09960 0.20002
#
# Static dielectric constant tensor:
#      x y z
#    x 1.966310 0.000000 0.013510 
#    y 0.000000 2.041950 0.000000 
#    z 0.013510 0.000000 1.981020 
# 
# From -- ./inp_files/108131.got.cif
#   From: 2010.05.17/outbox.cif.g08.bks.cpg/sg15_55_cif.got.tgz:108131.got - 2010.06.03 18:47:42.
