data_PCOD9291667
_publ_section_title
;
Structure prediction by ZEFSAII (Michael W. Deem and Ramdas Pophale) SiO2 
 PCOD9291667
Probable space group: C 2/C
;
_chemical_formula_sum "Si O2"
_cell_formula_units_Z 40
_cell_length_a 7.362991
_cell_length_b 12.699727
_cell_length_c 19.897057
_cell_angle_alpha 90.000000
_cell_angle_beta 77.267409
_cell_angle_gamma 90.000000
_cell_volume 1814.781761
_symmetry_space_group_name_H-M "C 2/C"
_symmetry_group_IT_number 15
_symmetry_cell_setting 'monoclinic'
loop_
_space_group_symop_operation_xyz
x,y,z
-x,y,1/2-z
-x,-y,-z
x,-y,1/2+z
1/2+x,1/2+y,z
1/2-x,1/2+y,1/2-z
1/2-x,1/2-y,-z
1/2+x,1/2-y,1/2+z
loop_
_atom_site_type_symbol
_atom_site_label
_atom_site_fract_x
_atom_site_fract_y
_atom_site_fract_z
Si Si1 0.101358 0.425818 0.590739
Si Si2 0.500000 0.404653 0.750000
Si Si3 0.849197 0.445885 0.202678
Si Si4 0.464093 0.256481 0.003373
Si Si5 0.174551 0.775516 0.846871
Si Si6 0.000000 0.000000 0.500000
O O1 0.162833 0.357880 0.651005
O O2 0.286339 0.480077 0.546327
O O3 0.953529 0.510932 0.627810
O O4 0.016224 0.339762 0.547261
O O5 0.317847 0.475822 0.768028
O O6 0.519217 0.333027 0.814426
O O7 0.769449 0.330367 0.194662
O O8 0.000000 0.439305 0.250000
O O9 0.588179 0.249431 0.926179
O O10 0.250000 0.250000 0.000000
O O11 0.497004 0.375268 0.027098
#
# Coordination Sequence:
#
# PCOD9291667 Si02
#       6
#     8   4   8   8   8   4
#     4  11  25  45  72 106 142 180 235 294 355 423
#     4  12  26  44  70 100 138 190 242 284 346 418
#     4  12  26  47  70 100 142 190 235 287 348 415
#     4  11  24  43  69 105 141 178 230 293 354 425
#     4  11  24  44  69 102 138 180 236 284 346 417
#     4  10  22  42  70 100 138 176 224 282 362 410
#
# _framework density 22.041215999999999
#
# number of rings (size 3 to 8) (size 9 to 14) (size 15 to 20)
#    0.000    0.800    3.000    4.800    0.000   12.800 
#    3.600    0.000    0.000    0.000    0.000    0.000 
#    0.000    0.000    0.000    0.000    0.000    0.000 
#
# Total GULP energy -111352.724249 kJ/mol
# GULP energy per Si atom -5567.636212 kJ/mol
# Density = 2.199105 g / cm^3
# Si number density = 22.041216 Si / 1000 Ang^3
#
#
#
# Elastic Constant Matrix: (Units=GPa)
#
#
# Indices 1 2 3 4 5 6 
#
# 1 70.4553 22.0047 24.8585 0.0000 -2.4419 0.0000
# 2 22.0047 118.0218 29.4407 0.0000 6.7191 0.0000
# 3 24.8585 29.4407 41.9947 0.0000 11.7225 0.0000
# 4 0.0000 0.0000 0.0000 39.7474 0.0000 7.9816
# 5 -2.4419 6.7191 11.7225 0.0000 43.3870 0.0000
# 6 0.0000 0.0000 0.0000 7.9816 0.0000 37.0560
#
#
#
# Elastic Compliance Matrix: (Units=1/GPa)
#
#
# Indices 1 2 3 4 5 6 
#
# 1 0.018740 -0.000814 -0.011737 0.000000 0.004352 0.000000
# 2 -0.000814 0.010310 -0.006801 0.000000 0.000195 0.000000
# 3 -0.011737 -0.006801 0.038307 0.000000 -0.009957 0.000000
# 4 0.000000 0.000000 0.000000 0.026296 0.000000 -0.005664
# 5 0.004352 0.000195 -0.009957 0.000000 0.025953 0.000000
# 6 0.000000 0.000000 0.000000 -0.005664 0.000000 0.028206
#
#
# Mechanical properties :
#
#
# Convention : Reuss Voigt Hill
#
# Bulk Modulus (GPa) = 34.89909 42.56439 38.73174
# Shear Modulus (GPa) = 25.50145 34.31595 29.90870
#
# Velocity S-wave (km/s) = 3.40514 3.95004 3.68767
# Velocity P-wave (km/s) = 5.59714 6.33695 5.97850
#
# Compressibility (1/GPa) = 0.02865405
#
# Stress axis : x y z
#
# Youngs Moduli (GPa) = 53.36316 96.99246 26.10461
#
# Poissons Ratio (x) = 0.07894 0.30639
# Poissons Ratio (y) = 0.04343 0.17753
# Poissons Ratio (z) = 0.62632 0.65961
#
# Static dielectric constant tensor:
#      x y z
#    x 1.425530 0.000000 -0.056050 
#    y 0.000000 1.802480 0.000000 
#    z -0.056050 0.000000 1.805890 
# 
# From -- ./inp_files/262788.got.cif
#   From: 2010.05.17/outbox.cif.g08.bks.cpg/sg15_132_cif.got.tgz:262788.got - 2010.06.03 18:47:42.
