data_PCOD9291770
_publ_section_title
;
Structure prediction by ZEFSAII (Michael W. Deem and Ramdas Pophale) SiO2 
 PCOD9291770
Probable space group: C 2/C
;
_chemical_formula_sum "Si O2"
_cell_formula_units_Z 52
_cell_length_a 6.779663
_cell_length_b 15.859510
_cell_length_c 23.154613
_cell_angle_alpha 90.000000
_cell_angle_beta 98.883074
_cell_angle_gamma 90.000000
_cell_volume 2459.771540
_symmetry_space_group_name_H-M "C 2/C"
_symmetry_group_IT_number 15
_symmetry_cell_setting 'monoclinic'
loop_
_space_group_symop_operation_xyz
x,y,z
-x,y,1/2-z
-x,-y,-z
x,-y,1/2+z
1/2+x,1/2+y,z
1/2-x,1/2+y,1/2-z
1/2-x,1/2-y,-z
1/2+x,1/2-y,1/2+z
loop_
_atom_site_type_symbol
_atom_site_label
_atom_site_fract_x
_atom_site_fract_y
_atom_site_fract_z
Si Si1 0.100956 0.504188 0.575407
Si Si2 0.000000 0.702045 0.750000
Si Si3 0.411780 0.238493 0.305886
Si Si4 0.254130 0.360651 0.156301
Si Si5 0.803132 0.050180 0.471378
Si Si6 0.442701 0.263433 0.946809
Si Si7 0.877959 0.689693 0.431360
O O1 0.222969 0.545085 0.632732
O O2 0.172775 0.558663 0.523924
O O3 0.159118 0.409239 0.562341
O O4 0.860478 0.502069 0.573712
O O5 0.824010 0.755134 0.712822
O O6 0.885957 0.651840 0.794655
O O7 0.500000 0.201629 0.250000
O O8 0.524503 0.328726 0.318215
O O9 0.450844 0.195164 0.368765
O O10 0.177298 0.297042 0.102167
O O11 0.863179 0.140095 0.447368
O O12 0.000000 0.000000 0.500000
O O13 0.667203 0.264715 0.930989
O O14 0.024297 0.269975 0.985924
#
# Coordination Sequence:
#
# PCOD9291770 Si02
#       7
#     8   4   8   8   8   8   8
#     4  11  24  38  59  92 133 162 211 260 314 378
#     4  10  22  44  66  90 118 164 224 260 316 390
#     4  10  22  42  71  89 122 168 224 264 319 385
#     4  11  23  41  67  93 123 171 210 271 315 387
#     4  11  22  37  57  93 134 171 201 256 315 379
#     4  11  22  38  68  95 132 173 210 256 329 383
#     4  11  22  40  63 100 131 168 211 263 319 386
#
# _framework density 21.140173999999998
#
# number of rings (size 3 to 8) (size 9 to 14) (size 15 to 20)
#    0.000    1.231    3.077    3.692    2.154    3.077 
#    1.385    0.000    5.077    0.000    0.000    0.000 
#    0.000    0.000    0.000    0.000    0.000    0.000 
#
# Total GULP energy -145013.729357 kJ/mol
# GULP energy per Si atom -5577.451129 kJ/mol
# Density = 2.109206 g / cm^3
# Si number density = 21.140174 Si / 1000 Ang^3
#
#
#
# Elastic Constant Matrix: (Units=GPa)
#
#
# Indices 1 2 3 4 5 6 
#
# 1 108.6704 17.1256 7.9037 0.0000 23.6416 0.0000
# 2 17.1256 62.3503 20.7226 0.0000 9.9662 0.0000
# 3 7.9037 20.7226 117.3016 0.0000 -1.0622 0.0000
# 4 0.0000 0.0000 0.0000 20.9808 0.0000 8.6942
# 5 23.6416 9.9662 -1.0622 0.0000 34.5605 0.0000
# 6 0.0000 0.0000 0.0000 8.6942 0.0000 29.4242
#
#
#
# Elastic Compliance Matrix: (Units=1/GPa)
#
#
# Indices 1 2 3 4 5 6 
#
# 1 0.011052 -0.001738 -0.000502 0.000000 -0.007074 0.000000
# 2 -0.001738 0.018225 -0.003140 0.000000 -0.004163 0.000000
# 3 -0.000502 -0.003140 0.009127 0.000000 0.001529 0.000000
# 4 0.000000 0.000000 0.000000 0.054313 0.000000 -0.016048
# 5 -0.007074 -0.004163 0.001529 0.000000 0.035022 0.000000
# 6 0.000000 0.000000 0.000000 -0.016048 0.000000 0.038728
#
#
# Mechanical properties :
#
#
# Convention : Reuss Voigt Hill
#
# Bulk Modulus (GPa) = 36.17411 42.20290 39.18850
# Shear Modulus (GPa) = 26.81822 33.16445 29.99134
#
# Velocity S-wave (km/s) = 3.56559 3.96509 3.77064
# Velocity P-wave (km/s) = 5.83952 6.40073 6.12655
#
# Compressibility (1/GPa) = 0.02764408
#
# Stress axis : x y z
#
# Youngs Moduli (GPa) = 90.48519 54.87000 109.55976
#
# Poissons Ratio (x) = 0.09536 0.05496
# Poissons Ratio (y) = 0.15726 0.34404
# Poissons Ratio (z) = 0.04539 0.17230
#
# Static dielectric constant tensor:
#      x y z
#    x 1.848860 0.000000 0.032570 
#    y 0.000000 1.777980 0.000000 
#    z 0.032570 0.000000 1.825930 
# 
# From -- ./inp_files/285796.got.cif
#   From: 2010.05.17/outbox.cif.g08.bks.cpg/sg15_143_cif.got.tgz:285796.got - 2010.06.03 18:47:42.
