data_PCOD9291973
_publ_section_title
;
Structure prediction by ZEFSAII (Michael W. Deem and Ramdas Pophale) SiO2 
 PCOD9291973
Probable space group: C 2/C
;
_chemical_formula_sum "Si O2"
_cell_formula_units_Z 44
_cell_length_a 13.443674
_cell_length_b 11.866460
_cell_length_c 23.532513
_cell_angle_alpha 90.000000
_cell_angle_beta 146.623133
_cell_angle_gamma 90.000000
_cell_volume 2065.301909
_symmetry_space_group_name_H-M "C 2/C"
_symmetry_group_IT_number 15
_symmetry_cell_setting 'monoclinic'
loop_
_space_group_symop_operation_xyz
x,y,z
-x,y,1/2-z
-x,-y,-z
x,-y,1/2+z
1/2+x,1/2+y,z
1/2-x,1/2+y,1/2-z
1/2-x,1/2-y,-z
1/2+x,1/2-y,1/2+z
loop_
_atom_site_type_symbol
_atom_site_label
_atom_site_fract_x
_atom_site_fract_y
_atom_site_fract_z
Si Si1 0.112207 0.257130 0.021574
Si Si2 0.114161 0.382324 0.910929
Si Si3 0.339293 0.686941 0.742850
Si Si4 0.258901 0.195489 0.414038
Si Si5 0.500000 0.505420 0.250000
Si Si6 0.018092 0.363906 0.365229
O O1 0.197143 0.151349 0.028741
O O2 0.232473 0.279476 0.134448
O O3 0.128136 0.360838 0.985054
O O4 0.906416 0.248214 0.943382
O O5 0.048190 0.506037 0.864758
O O6 0.971610 0.287859 0.822488
O O7 0.449364 0.575179 0.778452
O O8 0.188821 0.663135 0.718497
O O9 0.103621 0.281135 0.359749
O O10 0.367952 0.158659 0.522569
O O11 0.168222 0.086293 0.343237
#
# Coordination Sequence:
#
# PCOD9291973 Si02
#       6
#     8   8   8   8   4   8
#     4  10  22  43  64  94 128 164 218 254 322 378
#     4  11  22  41  69  97 123 173 214 265 320 374
#     4  11  23  42  64  98 126 167 215 263 313 385
#     4  10  24  43  64  95 126 171 211 263 324 381
#     4  12  22  40  68  90 126 172 214 264 310 394
#     4  10  24  43  65  92 133 164 213 268 321 375
#
# _framework density 21.304390999999999
#
# number of rings (size 3 to 8) (size 9 to 14) (size 15 to 20)
#    0.000    1.455    1.818    2.182    7.636    3.636 
#    3.273    0.000    0.000    0.000    0.000    0.000 
#    0.000    0.000    0.000    0.000    0.000    0.000 
#
# Total GULP energy -123102.995252 kJ/mol
# GULP energy per Si atom -5595.590693 kJ/mol
# Density = 2.125590 g / cm^3
# Si number density = 21.304391 Si / 1000 Ang^3
#
#
#
# Elastic Constant Matrix: (Units=GPa)
#
#
# Indices 1 2 3 4 5 6 
#
# 1 155.2343 68.9996 42.5467 0.0000 46.6953 0.0000
# 2 68.9996 154.3838 36.3884 0.0000 24.6074 0.0000
# 3 42.5467 36.3884 84.3473 0.0000 8.0064 0.0000
# 4 0.0000 0.0000 0.0000 28.0361 0.0000 -2.0718
# 5 46.6953 24.6074 8.0064 0.0000 46.1722 0.0000
# 6 0.0000 0.0000 0.0000 -2.0718 0.0000 11.4237
#
#
#
# Elastic Compliance Matrix: (Units=1/GPa)
#
#
# Indices 1 2 3 4 5 6 
#
# 1 0.011580 -0.002766 -0.003738 0.000000 -0.009589 0.000000
# 2 -0.002766 0.008423 -0.002113 0.000000 -0.001325 0.000000
# 3 -0.003738 -0.002113 0.014424 0.000000 0.002405 0.000000
# 4 0.000000 0.000000 0.000000 0.036153 0.000000 0.006557
# 5 -0.009589 -0.001325 0.002405 0.000000 0.031645 0.000000
# 6 0.000000 0.000000 0.000000 0.006557 0.000000 0.088726
#
#
# Mechanical properties :
#
#
# Convention : Reuss Voigt Hill
#
# Bulk Modulus (GPa) = 58.15894 76.64830 67.40362
# Shear Modulus (GPa) = 23.37366 33.52845 28.45105
#
# Velocity S-wave (km/s) = 3.31589 3.97139 3.65835
# Velocity P-wave (km/s) = 6.48216 7.55547 7.03930
#
# Compressibility (1/GPa) = 0.01719426
#
# Stress axis : x y z
#
# Youngs Moduli (GPa) = 86.35310 118.72488 69.32750
#
# Poissons Ratio (x) = 0.32842 0.25913
# Poissons Ratio (y) = 0.23887 0.14646
# Poissons Ratio (z) = 0.32277 0.25081
#
# Static dielectric constant tensor:
#      x y z
#    x 1.775760 0.000000 -0.016430 
#    y 0.000000 1.710780 0.000000 
#    z -0.016430 0.000000 1.794200 
# 
# From -- ./inp_files/269149.got.cif
#   From: 2010.05.17/outbox.cif.g08.bks.cpg/sg15_135_cif.got.tgz:269149.got - 2010.06.03 18:47:42.
