data_PCOD9291705
_publ_section_title
;
Structure prediction by ZEFSAII (Michael W. Deem and Ramdas Pophale) SiO2 
 PCOD9291705
Probable space group: C 2/C
;
_chemical_formula_sum "Si O2"
_cell_formula_units_Z 56
_cell_length_a 15.345479
_cell_length_b 9.003227
_cell_length_c 22.197347
_cell_angle_alpha 90.000000
_cell_angle_beta 122.929641
_cell_angle_gamma 90.000000
_cell_volume 2574.050094
_symmetry_space_group_name_H-M "C 2/C"
_symmetry_group_IT_number 15
_symmetry_cell_setting 'monoclinic'
loop_
_space_group_symop_operation_xyz
x,y,z
-x,y,1/2-z
-x,-y,-z
x,-y,1/2+z
1/2+x,1/2+y,z
1/2-x,1/2+y,1/2-z
1/2-x,1/2-y,-z
1/2+x,1/2-y,1/2+z
loop_
_atom_site_type_symbol
_atom_site_label
_atom_site_fract_x
_atom_site_fract_y
_atom_site_fract_z
Si Si1 0.071548 0.748684 0.078907
Si Si2 0.033149 0.844643 0.683420
Si Si3 0.089868 0.384766 0.711333
Si Si4 0.301961 0.551145 0.349101
Si Si5 0.000000 0.607396 0.750000
Si Si6 0.500000 0.382383 0.250000
Si Si7 0.833386 0.844484 0.992348
Si Si8 0.636641 0.696972 0.472414
O O1 0.100435 0.639296 0.144351
O O2 0.096268 0.723000 0.018050
O O3 0.138576 0.897555 0.115995
O O4 0.948215 0.774215 0.038842
O O5 0.941793 0.770201 0.611073
O O6 0.125699 0.872157 0.672838
O O7 0.075441 0.734331 0.751084
O O8 0.983376 0.996797 0.690677
O O9 0.189217 0.462570 0.777965
O O10 0.992338 0.489357 0.692671
O O11 0.076338 0.230603 0.743397
O O12 0.297726 0.643856 0.409350
O O13 0.853603 0.017629 0.017195
O O14 0.750000 0.750000 0.000000
O O15 0.750000 0.750000 0.500000
#
# Coordination Sequence:
#
# PCOD9291705 Si02
#       8
#     8   8   8   8   4   4   8   8
#     4  11  23  49  69  99 138 180 229 280 334 415
#     4  11  22  44  66  97 136 179 226 275 346 408
#     4  11  25  42  68 101 135 177 230 285 340 398
#     4  11  23  40  69  98 134 179 228 274 343 406
#     4  10  28  40  64  98 144 168 224 292 336 396
#     4  10  22  42  70  92 134 178 230 270 338 418
#     4  11  24  44  73  99 134 183 232 279 340 404
#     4  11  24  43  69  97 135 182 225 280 343 402
#
# _framework density 21.755599
#
# number of rings (size 3 to 8) (size 9 to 14) (size 15 to 20)
#    0.000    1.143    4.286    0.857   12.000    1.143 
#    2.571    1.429    0.000    0.000    0.000    0.000 
#    0.000    0.000    0.000    0.000    0.000    0.000 
#
# Total GULP energy -155913.087870 kJ/mol
# GULP energy per Si atom -5568.324567 kJ/mol
# Density = 2.170608 g / cm^3
# Si number density = 21.755599 Si / 1000 Ang^3
#
#
#
# Elastic Constant Matrix: (Units=GPa)
#
#
# Indices 1 2 3 4 5 6 
#
# 1 91.7585 17.6680 47.1414 0.0000 -8.5472 0.0000
# 2 17.6680 67.9932 27.2209 0.0000 -11.5489 0.0000
# 3 47.1414 27.2209 93.0093 0.0000 0.1285 0.0000
# 4 0.0000 0.0000 0.0000 23.8184 0.0000 -2.4053
# 5 -8.5472 -11.5489 0.1285 0.0000 38.4481 0.0000
# 6 0.0000 0.0000 0.0000 -2.4053 0.0000 32.3016
#
#
#
# Elastic Compliance Matrix: (Units=1/GPa)
#
#
# Indices 1 2 3 4 5 6 
#
# 1 0.015173 -0.000342 -0.007595 0.000000 0.003296 0.000000
# 2 -0.000342 0.017696 -0.005013 0.000000 0.005256 0.000000
# 3 -0.007595 -0.005013 0.016072 0.000000 -0.003248 0.000000
# 4 0.000000 0.000000 0.000000 0.042302 0.000000 0.003150
# 5 0.003296 0.005256 -0.003248 0.000000 0.028331 0.000000
# 6 0.000000 0.000000 0.000000 0.003150 0.000000 0.031193
#
#
# Mechanical properties :
#
#
# Convention : Reuss Voigt Hill
#
# Bulk Modulus (GPa) = 43.39965 48.53574 45.96769
# Shear Modulus (GPa) = 27.12261 29.62900 28.37580
#
# Velocity S-wave (km/s) = 3.53469 3.69440 3.61543
# Velocity P-wave (km/s) = 6.05398 6.36837 6.21316
#
# Compressibility (1/GPa) = 0.02304166
#
# Stress axis : x y z
#
# Youngs Moduli (GPa) = 65.90715 56.51020 62.21816
#
# Poissons Ratio (x) = 0.01935 0.47252
# Poissons Ratio (y) = 0.02257 0.31188
# Poissons Ratio (z) = 0.50054 0.28327
#
# Static dielectric constant tensor:
#      x y z
#    x 1.818790 0.000000 0.019940 
#    y 0.000000 1.818690 0.000000 
#    z 0.019940 0.000000 1.897990 
# 
# From -- ./inp_files/273274.got.cif
#   From: 2010.05.17/outbox.cif.g08.bks.cpg/sg15_137_cif.got.tgz:273274.got - 2010.06.03 18:47:42.
