data_PCOD9291562
_publ_section_title
;
Structure prediction by ZEFSAII (Michael W. Deem and Ramdas Pophale) SiO2 
 PCOD9291562
Probable space group: C 2/C
;
_chemical_formula_sum "Si O2"
_cell_formula_units_Z 56
_cell_length_a 21.163778
_cell_length_b 15.390219
_cell_length_c 8.754700
_cell_angle_alpha 90.000000
_cell_angle_beta 116.830907
_cell_angle_gamma 90.000000
_cell_volume 2544.549068
_symmetry_space_group_name_H-M "C 2/C"
_symmetry_group_IT_number 15
_symmetry_cell_setting 'monoclinic'
loop_
_space_group_symop_operation_xyz
x,y,z
-x,y,1/2-z
-x,-y,-z
x,-y,1/2+z
1/2+x,1/2+y,z
1/2-x,1/2+y,1/2-z
1/2-x,1/2-y,-z
1/2+x,1/2-y,1/2+z
loop_
_atom_site_type_symbol
_atom_site_label
_atom_site_fract_x
_atom_site_fract_y
_atom_site_fract_z
Si Si1 0.974026 0.376290 0.397453
Si Si2 0.442076 0.318546 0.822368
Si Si3 0.389727 0.053207 0.331325
Si Si4 0.296227 0.670158 0.991617
Si Si5 0.066523 0.950522 0.419882
Si Si6 0.790355 0.485514 0.985214
Si Si7 0.345726 0.414310 0.276947
O O1 0.940658 0.281834 0.371830
O O2 0.921869 0.455443 0.376915
O O3 0.000000 0.389225 0.250000
O O4 0.042829 0.385147 0.580191
O O5 0.500000 0.322981 0.750000
O O6 0.364481 0.342104 0.674307
O O7 0.458498 0.380742 0.982313
O O8 0.338081 0.066174 0.417067
O O9 0.341597 0.051318 0.129864
O O10 0.246387 0.585728 0.947856
O O11 0.327368 0.671839 0.853725
O O12 0.250000 0.750000 0.000000
O O13 0.115844 0.907053 0.344040
O O14 0.000000 0.984865 0.250000
O O15 0.107841 0.024719 0.558663
O O16 0.726854 0.536147 0.837845
#
# Coordination Sequence:
#
# PCOD9291562 Si02
#       7
#     8   8   8   8   8   8   8
#     4  10  22  42  68  97 136 184 235 277 351 422
#     4  11  25  47  66 101 143 184 232 294 359 420
#     4  11  22  40  70 101 131 183 233 289 343 425
#     4  12  26  45  73 102 141 190 236 294 362 421
#     4  12  24  45  71 100 132 181 236 288 345 415
#     4  12  22  42  70 102 137 176 234 288 351 425
#     4  12  24  45  71 105 135 180 238 288 351 430
#
# _framework density 22.007829000000001
#
# number of rings (size 3 to 8) (size 9 to 14) (size 15 to 20)
#    0.000    0.571    5.714    2.143    2.000    1.143 
#    2.571    0.714    0.000    0.000    0.000    0.000 
#    0.000    0.000    0.000    0.000    0.000    0.000 
#
# Total GULP energy -156661.228046 kJ/mol
# GULP energy per Si atom -5595.043859 kJ/mol
# Density = 2.195774 g / cm^3
# Si number density = 22.007829 Si / 1000 Ang^3
#
#
#
# Elastic Constant Matrix: (Units=GPa)
#
#
# Indices 1 2 3 4 5 6 
#
# 1 95.3732 15.8067 33.5958 0.0000 -10.8913 0.0000
# 2 15.8067 54.3249 11.7561 0.0000 -12.9189 0.0000
# 3 33.5958 11.7561 108.9081 0.0000 7.7409 0.0000
# 4 0.0000 0.0000 0.0000 12.2957 0.0000 2.7270
# 5 -10.8913 -12.9189 7.7409 0.0000 50.5085 0.0000
# 6 0.0000 0.0000 0.0000 2.7270 0.0000 29.3558
#
#
#
# Elastic Compliance Matrix: (Units=1/GPa)
#
#
# Indices 1 2 3 4 5 6 
#
# 1 0.012499 -0.002163 -0.003816 0.000000 0.002727 0.000000
# 2 -0.002163 0.020671 -0.001928 0.000000 0.005116 0.000000
# 3 -0.003816 -0.001928 0.010778 0.000000 -0.002968 0.000000
# 4 0.000000 0.000000 0.000000 0.083040 0.000000 -0.007714
# 5 0.002727 0.005116 -0.002968 0.000000 0.022150 0.000000
# 6 0.000000 0.000000 0.000000 -0.007714 0.000000 0.034781
#
#
# Mechanical properties :
#
#
# Convention : Reuss Voigt Hill
#
# Bulk Modulus (GPa) = 35.54254 42.32483 38.93368
# Shear Modulus (GPa) = 23.91072 31.59518 27.75295
#
# Velocity S-wave (km/s) = 3.29973 3.79309 3.55498
# Velocity P-wave (km/s) = 5.54100 6.20136 5.88045
#
# Compressibility (1/GPa) = 0.02813530
#
# Stress axis : x y z
#
# Youngs Moduli (GPa) = 80.00510 48.37726 92.77898
#
# Poissons Ratio (x) = 0.10462 0.35406
# Poissons Ratio (y) = 0.17301 0.17887
# Poissons Ratio (z) = 0.30531 0.09327
#
# Static dielectric constant tensor:
#      x y z
#    x 1.817940 0.000000 -0.007740 
#    y 0.000000 1.774300 0.000000 
#    z -0.007740 0.000000 1.811230 
# 
# From -- ./inp_files/56737.got.cif
#   From: 2010.05.17/outbox.cif.g08.bks.cpg/sg15_29_cif.got.tgz:56737.got - 2010.06.03 18:47:42.
