data_PCOD9291260
_publ_section_title
;
Structure prediction by ZEFSAII (Michael W. Deem and Ramdas Pophale) SiO2 
 PCOD9291260
Probable space group: C 2/C
;
_chemical_formula_sum "Si O2"
_cell_formula_units_Z 32
_cell_length_a 25.322598
_cell_length_b 7.705341
_cell_length_c 20.646946
_cell_angle_alpha 90.000000
_cell_angle_beta 22.837101
_cell_angle_gamma 90.000000
_cell_volume 1563.556260
_symmetry_space_group_name_H-M "C 2/C"
_symmetry_group_IT_number 15
_symmetry_cell_setting 'monoclinic'
loop_
_space_group_symop_operation_xyz
x,y,z
-x,y,1/2-z
-x,-y,-z
x,-y,1/2+z
1/2+x,1/2+y,z
1/2-x,1/2+y,1/2-z
1/2-x,1/2-y,-z
1/2+x,1/2-y,1/2+z
loop_
_atom_site_type_symbol
_atom_site_label
_atom_site_fract_x
_atom_site_fract_y
_atom_site_fract_z
Si Si1 0.903261 0.404894 0.159207
Si Si2 0.871107 0.235233 0.519965
Si Si3 0.207200 0.942630 0.978818
Si Si4 0.852715 0.453921 0.946425
O O1 0.763180 0.326840 0.289383
O O2 0.846617 0.531587 0.279822
O O3 0.000000 0.500000 0.000000
O O4 0.995128 0.260001 0.089618
O O5 0.834061 0.415700 0.526736
O O6 0.886838 0.090067 0.446385
O O7 0.242586 0.977084 0.013483
O O8 0.152651 0.749653 0.030596
O O9 0.000000 0.493832 0.750000
#
# Coordination Sequence:
#
# PCOD9291260 Si02
#       4
#     8   8   8   8
#     4  10  23  45  62  91 125 168 219 255 307 377
#     4  10  22  42  66  89 128 166 209 259 319 378
#     4   9  23  37  63  97 126 163 208 259 319 375
#     4  11  19  38  65  96 129 158 205 265 319 382
#
# _framework density 20.466163999999999
#
# number of rings (size 3 to 8) (size 9 to 14) (size 15 to 20)
#    1.500    0.500    2.500    0.750    0.000    7.000 
#    0.000    2.500    0.000    0.000    0.000    0.000 
#    0.000    0.000    0.000    0.000    0.000    0.000 
#
# Total GULP energy -89192.019107 kJ/mol
# GULP energy per Si atom -5574.501194 kJ/mol
# Density = 2.041958 g / cm^3
# Si number density = 20.466164 Si / 1000 Ang^3
#
#
#
# Elastic Constant Matrix: (Units=GPa)
#
#
# Indices 1 2 3 4 5 6 
#
# 1 12.3338 0.4262 -7.2055 0.0001 -7.4666 0.0002
# 2 0.4262 49.1031 0.7185 -0.0001 -9.3048 -0.0010
# 3 -7.2055 0.7185 73.4771 0.0000 7.7065 -0.0001
# 4 0.0001 -0.0001 0.0000 38.7277 -0.0006 4.8940
# 5 -7.4666 -9.3048 7.7065 -0.0006 15.0665 0.0005
# 6 0.0002 -0.0010 -0.0001 4.8940 0.0005 13.0731
#
#
#
# Elastic Compliance Matrix: (Units=1/GPa)
#
#
# Indices 1 2 3 4 5 6 
#
# 1 0.123291 0.011254 0.005118 0.000001 0.065433 -0.000004
# 2 0.011254 0.024324 -0.001368 0.000000 0.021299 0.000001
# 3 0.005118 -0.001368 0.014738 0.000000 -0.005847 0.000000
# 4 0.000001 0.000000 0.000000 0.027104 0.000002 -0.010146
# 5 0.065433 0.021299 -0.005847 0.000002 0.114944 -0.000004
# 6 -0.000004 0.000001 0.000000 -0.010146 -0.000004 0.080291
#
#
# Mechanical properties :
#
#
# Convention : Reuss Voigt Hill
#
# Bulk Modulus (GPa) = 5.19858 13.64360 9.42109
# Shear Modulus (GPa) = 11.93875 22.77177 17.35526
#
# Velocity S-wave (km/s) = 2.41787 3.33927 2.91520
# Velocity P-wave (km/s) = 3.21564 4.64204 3.99305
#
# Compressibility (1/GPa) = 0.19236025
#
# Stress axis : x y z
#
# Youngs Moduli (GPa) = 8.11091 41.11212 67.85085
#
# Poissons Ratio (x) = -0.46269 -0.34723
# Poissons Ratio (y) = -0.09128 0.09283
# Poissons Ratio (z) = -0.04151 0.05625
#
# Static dielectric constant tensor:
#      x y z
#    x 1.710270 0.000000 0.005190 
#    y 0.000000 1.718200 0.000000 
#    z 0.005190 0.000000 1.733690 
# 
# From -- ./inp_files/53502.got.cif
#   From: 2010.05.17/outbox.cif.g08.bks.cpg/sg15_27_cif.got.tgz:53502.got - 2010.06.03 18:47:42.
