data_PCOD9291686
_publ_section_title
;
Structure prediction by ZEFSAII (Michael W. Deem and Ramdas Pophale) SiO2 
 PCOD9291686
Probable space group: C 2/C
;
_chemical_formula_sum "Si O2"
_cell_formula_units_Z 56
_cell_length_a 22.838700
_cell_length_b 12.923455
_cell_length_c 8.840578
_cell_angle_alpha 90.000000
_cell_angle_beta 120.896849
_cell_angle_gamma 90.000000
_cell_volume 2239.056788
_symmetry_space_group_name_H-M "C 2/C"
_symmetry_group_IT_number 15
_symmetry_cell_setting 'monoclinic'
loop_
_space_group_symop_operation_xyz
x,y,z
-x,y,1/2-z
-x,-y,-z
x,-y,1/2+z
1/2+x,1/2+y,z
1/2-x,1/2+y,1/2-z
1/2-x,1/2-y,-z
1/2+x,1/2-y,1/2+z
loop_
_atom_site_type_symbol
_atom_site_label
_atom_site_fract_x
_atom_site_fract_y
_atom_site_fract_z
Si Si1 0.100586 0.345707 0.182999
Si Si2 0.998843 0.163517 0.065958
Si Si3 0.742597 0.779724 0.250807
Si Si4 0.893420 0.996712 0.404713
Si Si5 0.300722 0.887072 0.620561
Si Si6 0.803639 0.943207 0.535820
Si Si7 0.580391 0.019473 0.369443
O O1 0.032664 0.274918 0.078304
O O2 0.167326 0.278679 0.226894
O O3 0.101716 0.403733 0.346243
O O4 0.098160 0.438986 0.058667
O O5 0.000000 0.152979 0.250000
O O6 0.050861 0.082109 0.059563
O O7 0.925408 0.117680 0.915734
O O8 0.778602 0.677438 0.236437
O O9 0.791563 0.835371 0.436547
O O10 0.732116 0.841083 0.078096
O O11 0.870269 0.994141 0.547118
O O12 0.824361 0.035683 0.233668
O O13 0.379761 0.900503 0.687228
O O14 0.266086 0.998240 0.589874
O O15 0.500000 0.024657 0.250000
#
# Coordination Sequence:
#
# PCOD9291686 Si02
#       7
#     8   8   8   8   8   8   8
#     4  11  24  47  72 105 148 199 255 310 378 457
#     4  11  24  47  70 106 150 197 255 308 378 471
#     4  10  22  42  70 108 142 197 244 304 382 446
#     4  11  25  43  74 108 145 194 244 318 393 446
#     4  10  22  42  70 103 151 189 251 307 370 465
#     4  12  21  44  72 106 147 185 244 318 379 447
#     4  11  24  45  71 102 145 203 247 309 369 446
#
# _framework density 25.010532000000001
#
# number of rings (size 3 to 8) (size 9 to 14) (size 15 to 20)
#    0.000    1.143    4.286    1.714    0.000    1.143 
#    7.714    1.429    0.000    0.000    0.000    0.000 
#    0.000    0.000    0.000    0.000    0.000    0.000 
#
# Total GULP energy -156408.271881 kJ/mol
# GULP energy per Si atom -5586.009710 kJ/mol
# Density = 2.495361 g / cm^3
# Si number density = 25.010532 Si / 1000 Ang^3
#
#
#
# Elastic Constant Matrix: (Units=GPa)
#
#
# Indices 1 2 3 4 5 6 
#
# 1 125.1097 26.8573 26.9198 0.0000 5.1550 0.0000
# 2 26.8573 97.0139 47.0895 0.0000 -5.7876 0.0000
# 3 26.9198 47.0895 89.7899 0.0000 2.9007 0.0000
# 4 0.0000 0.0000 0.0000 39.4209 0.0000 -2.0109
# 5 5.1550 -5.7876 2.9007 0.0000 29.8983 0.0000
# 6 0.0000 0.0000 0.0000 -2.0109 0.0000 31.2991
#
#
#
# Elastic Compliance Matrix: (Units=1/GPa)
#
#
# Indices 1 2 3 4 5 6 
#
# 1 0.008793 -0.001719 -0.001680 0.000000 -0.001686 0.000000
# 2 -0.001719 0.014515 -0.007220 0.000000 0.003807 0.000000
# 3 -0.001680 -0.007220 0.015512 0.000000 -0.002613 0.000000
# 4 0.000000 0.000000 0.000000 0.025451 0.000000 0.001635
# 5 -0.001686 0.003807 -0.002613 0.000000 0.034728 0.000000
# 6 0.000000 0.000000 0.000000 0.001635 0.000000 0.032055
#
#
# Mechanical properties :
#
#
# Convention : Reuss Voigt Hill
#
# Bulk Modulus (GPa) = 56.87854 57.07184 56.97519
# Shear Modulus (GPa) = 31.61504 34.19345 32.90424
#
# Velocity S-wave (km/s) = 3.55923 3.70153 3.63108
# Velocity P-wave (km/s) = 6.29937 6.41382 6.35685
#
# Compressibility (1/GPa) = 0.01758132
#
# Stress axis : x y z
#
# Youngs Moduli (GPa) = 113.72624 68.89254 64.46772
#
# Poissons Ratio (x) = 0.11845 0.10831
# Poissons Ratio (y) = 0.19554 0.46545
# Poissons Ratio (z) = 0.19107 0.49740
#
# Static dielectric constant tensor:
#      x y z
#    x 1.949660 0.000000 0.010360 
#    y 0.000000 2.023520 0.000000 
#    z 0.010360 0.000000 1.938950 
# 
# From -- ./inp_files/62008.got.cif
#   From: 2010.05.17/outbox.cif.g08.bks.cpg/sg15_32_cif.got.tgz:62008.got - 2010.06.03 18:47:42.
