data_PCOD9291803
_publ_section_title
;
Structure prediction by ZEFSAII (Michael W. Deem and Ramdas Pophale) SiO2 
 PCOD9291803
Probable space group: C 2/C
;
_chemical_formula_sum "Si O2"
_cell_formula_units_Z 52
_cell_length_a 15.660126
_cell_length_b 14.267565
_cell_length_c 9.234003
_cell_angle_alpha 90.000000
_cell_angle_beta 95.243170
_cell_angle_gamma 90.000000
_cell_volume 2054.537857
_symmetry_space_group_name_H-M "C 2/C"
_symmetry_group_IT_number 15
_symmetry_cell_setting 'monoclinic'
loop_
_space_group_symop_operation_xyz
x,y,z
-x,y,1/2-z
-x,-y,-z
x,-y,1/2+z
1/2+x,1/2+y,z
1/2-x,1/2+y,1/2-z
1/2-x,1/2-y,-z
1/2+x,1/2-y,1/2+z
loop_
_atom_site_type_symbol
_atom_site_label
_atom_site_fract_x
_atom_site_fract_y
_atom_site_fract_z
Si Si1 0.785881 0.443069 0.483279
Si Si2 0.600851 0.969392 0.280030
Si Si3 0.117121 0.124875 0.867717
Si Si4 0.304112 0.366892 0.611082
Si Si5 0.920513 0.041191 0.340486
Si Si6 0.000000 0.711549 0.250000
Si Si7 0.621416 0.804933 0.516902
O O1 0.853993 0.452452 0.365058
O O2 0.844349 0.448524 0.633806
O O3 0.716398 0.366221 0.426947
O O4 0.724133 0.536408 0.472392
O O5 0.500000 0.986667 0.250000
O O6 0.613582 0.877775 0.383526
O O7 0.071387 0.221743 0.833752
O O8 0.104696 0.062471 0.720644
O O9 0.069673 0.067942 0.990707
O O10 0.341614 0.396041 0.770572
O O11 0.373776 0.300780 0.543568
O O12 0.214416 0.313600 0.605707
O O13 0.000000 0.067693 0.250000
O O14 0.048803 0.668387 0.120536
#
# Coordination Sequence:
#
# PCOD9291803 Si02
#       7
#     8   8   8   8   8   4   8
#     4  10  22  42  72 104 134 175 233 289 351 403
#     4  11  24  47  72 102 135 185 234 293 342 414
#     4  11  24  37  67 104 138 177 225 283 353 413
#     4   9  21  41  70  90 138 182 221 283 345 409
#     4  11  21  37  61 101 136 174 228 282 342 412
#     4  12  26  42  68 102 146 190 226 288 338 424
#     4  10  24  44  68  99 143 188 228 277 356 412
#
# _framework density 25.309829000000001
#
# number of rings (size 3 to 8) (size 9 to 14) (size 15 to 20)
#    0.000    1.538    0.769    3.692   10.769    1.846 
#   13.846    0.769    0.000    0.000    0.000    0.000 
#    0.000    0.000    0.000    0.000    0.000    0.000 
#
# Total GULP energy -145514.404781 kJ/mol
# GULP energy per Si atom -5596.707876 kJ/mol
# Density = 2.525222 g / cm^3
# Si number density = 25.309829 Si / 1000 Ang^3
#
#
#
# Elastic Constant Matrix: (Units=GPa)
#
#
# Indices 1 2 3 4 5 6 
#
# 1 139.7859 5.8579 11.7933 0.0000 2.1280 0.0000
# 2 5.8579 63.1708 15.9485 0.0000 -2.3715 0.0000
# 3 11.7933 15.9485 108.0498 0.0000 -13.3898 0.0000
# 4 0.0000 0.0000 0.0000 31.2787 0.0000 -1.3326
# 5 2.1280 -2.3715 -13.3898 0.0000 53.4898 0.0000
# 6 0.0000 0.0000 0.0000 -1.3326 0.0000 28.7549
#
#
#
# Elastic Compliance Matrix: (Units=1/GPa)
#
#
# Indices 1 2 3 4 5 6 
#
# 1 0.007248 -0.000494 -0.000781 0.000000 -0.000506 0.000000
# 2 -0.000494 0.016477 -0.002358 0.000000 0.000160 0.000000
# 3 -0.000781 -0.002358 0.009989 0.000000 0.002427 0.000000
# 4 0.000000 0.000000 0.000000 0.032034 0.000000 0.001485
# 5 -0.000506 0.000160 0.002427 0.000000 0.019330 0.000000
# 6 0.000000 0.000000 0.000000 0.001485 0.000000 0.034845
#
#
# Mechanical properties :
#
#
# Convention : Reuss Voigt Hill
#
# Bulk Modulus (GPa) = 37.80998 42.02290 39.91644
# Shear Modulus (GPa) = 36.76304 41.19847 38.98075
#
# Velocity S-wave (km/s) = 3.81533 4.03893 3.92872
# Velocity P-wave (km/s) = 5.86347 6.19597 6.03201
#
# Compressibility (1/GPa) = 0.02644804
#
# Stress axis : x y z
#
# Youngs Moduli (GPa) = 137.96767 60.68953 100.10928
#
# Poissons Ratio (x) = 0.02998 0.07817
# Poissons Ratio (y) = 0.06815 0.23610
# Poissons Ratio (z) = 0.10773 0.14313
#
# Static dielectric constant tensor:
#      x y z
#    x 2.030270 0.000000 -0.005980 
#    y 0.000000 2.073070 0.000000 
#    z -0.005980 0.000000 1.960300 
# 
# From -- ./inp_files/40770.got.cif
#   From: 2010.05.17/outbox.cif.g08.bks.cpg/sg15_21_cif.got.tgz:40770.got - 2010.06.03 18:47:42.
