data_PCOD9291237
_publ_section_title
;
Structure prediction by ZEFSAII (Michael W. Deem and Ramdas Pophale) SiO2 
 PCOD9291237
Probable space group: C 2/C
;
_chemical_formula_sum "Si O2"
_cell_formula_units_Z 52
_cell_length_a 26.379263
_cell_length_b 7.368592
_cell_length_c 13.326278
_cell_angle_alpha 90.000000
_cell_angle_beta 44.308829
_cell_angle_gamma 90.000000
_cell_volume 1809.415641
_symmetry_space_group_name_H-M "C 2/C"
_symmetry_group_IT_number 15
_symmetry_cell_setting 'monoclinic'
loop_
_space_group_symop_operation_xyz
x,y,z
-x,y,1/2-z
-x,-y,-z
x,-y,1/2+z
1/2+x,1/2+y,z
1/2-x,1/2+y,1/2-z
1/2-x,1/2-y,-z
1/2+x,1/2-y,1/2+z
loop_
_atom_site_type_symbol
_atom_site_label
_atom_site_fract_x
_atom_site_fract_y
_atom_site_fract_z
Si Si1 0.750000 0.250000 0.000000
Si Si2 0.006052 0.757499 0.909840
Si Si3 0.152627 0.295643 0.850363
Si Si4 0.349129 0.595326 0.207599
Si Si5 0.247179 0.895398 0.379145
Si Si6 0.000000 0.979014 0.250000
Si Si7 0.500000 0.001782 0.750000
Si Si8 0.126814 0.253562 0.544738
O O1 0.721699 0.440546 0.984694
O O2 0.816748 0.351390 0.963664
O O3 0.037725 0.617403 0.784158
O O4 0.068004 0.854871 0.883921
O O5 0.972896 0.906969 0.881588
O O6 0.931778 0.677501 0.059002
O O7 0.197293 0.478342 0.767784
O O8 0.172259 0.119270 0.751402
O O9 0.182881 0.212313 0.911816
O O10 0.298983 0.732141 0.340650
O O11 0.342319 0.660901 0.100394
O O12 0.070311 0.872512 0.186167
O O13 0.564020 0.897570 0.602316
#
# Coordination Sequence:
#
# PCOD9291237 Si02
#       8
#     4   8   8   8   8   4   4   8
#     4  12  24  44  66 102 136 190 222 298 344 414
#     4  11  24  43  70 103 140 178 240 283 363 412
#     4  12  24  46  71 103 141 188 231 292 341 432
#     4  12  25  47  71 109 134 193 233 294 344 433
#     4  12  26  45  74 101 147 183 242 283 359 415
#     4  10  22  42  66 100 138 180 222 294 340 422
#     4  10  24  44  66 104 138 182 224 308 342 428
#     4  11  23  42  68  96 142 180 237 280 362 400
#
# _framework density 28.738562000000002
#
# number of rings (size 3 to 8) (size 9 to 14) (size 15 to 20)
#    0.000    0.615    4.615    2.308    2.154    3.692 
#    0.000    0.769    0.000    0.000    0.000    0.000 
#    0.000    0.000    0.000    0.000    0.000    0.000 
#
# Total GULP energy -144988.591403 kJ/mol
# GULP energy per Si atom -5576.484285 kJ/mol
# Density = 2.867315 g / cm^3
# Si number density = 28.738562 Si / 1000 Ang^3
#
#
#
# Elastic Constant Matrix: (Units=GPa)
#
#
# Indices 1 2 3 4 5 6 
#
# 1 149.2101 -23.2793 -0.9312 -0.0001 -33.9503 0.0002
# 2 -23.2793 113.7108 -5.3137 -0.0003 -0.1836 0.0002
# 3 -0.9312 -5.3137 71.1200 -0.0001 -19.1520 0.0000
# 4 -0.0001 -0.0003 -0.0001 49.3489 0.0000 -0.5983
# 5 -33.9503 -0.1836 -19.1520 0.0000 58.1477 0.0000
# 6 0.0002 0.0002 0.0000 -0.5983 0.0000 30.3540
#
#
#
# Elastic Compliance Matrix: (Units=1/GPa)
#
#
# Indices 1 2 3 4 5 6 
#
# 1 0.008205 0.001767 0.001680 0.000000 0.005350 0.000000
# 2 0.001767 0.009209 0.001094 0.000000 0.001421 0.000000
# 3 0.001680 0.001094 0.015834 0.000000 0.006200 0.000000
# 4 0.000000 0.000000 0.000000 0.020269 0.000000 0.000400
# 5 0.005350 0.001421 0.006200 0.000000 0.022368 0.000000
# 6 0.000000 0.000000 0.000000 0.000400 0.000000 0.032952
#
#
# Mechanical properties :
#
#
# Convention : Reuss Voigt Hill
#
# Bulk Modulus (GPa) = 23.62352 30.55472 27.08912
# Shear Modulus (GPa) = 43.91135 51.80779 47.85957
#
# Velocity S-wave (km/s) = 3.91315 4.25046 4.08529
# Velocity P-wave (km/s) = 5.35304 5.89437 5.63021
#
# Compressibility (1/GPa) = 0.04233069
#
# Stress axis : x y z
#
# Youngs Moduli (GPa) = 121.87131 108.58479 63.15538
#
# Poissons Ratio (x) = -0.19187 -0.10611
# Poissons Ratio (y) = -0.21534 -0.06909
# Poissons Ratio (z) = -0.20476 -0.11878
#
# Static dielectric constant tensor:
#      x y z
#    x 2.285930 0.000000 -0.088680 
#    y 0.000000 2.360610 0.000000 
#    z -0.088680 0.000000 2.449900 
# 
# From -- ./inp_files/176496.got.cif
#   From: 2010.05.17/outbox.cif.g08.bks.cpg/sg15_89_cif.got.tgz:176496.got - 2010.06.03 18:47:42.
