data_PCOD9291659
_publ_section_title
;
Structure prediction by ZEFSAII (Michael W. Deem and Ramdas Pophale) SiO2 
 PCOD9291659
Probable space group: C 2/C
;
_chemical_formula_sum "Si O2"
_cell_formula_units_Z 32
_cell_length_a 8.997105
_cell_length_b 11.067874
_cell_length_c 14.695754
_cell_angle_alpha 90.000000
_cell_angle_beta 108.398926
_cell_angle_gamma 90.000000
_cell_volume 1388.580443
_symmetry_space_group_name_H-M "C 2/C"
_symmetry_group_IT_number 15
_symmetry_cell_setting 'monoclinic'
loop_
_space_group_symop_operation_xyz
x,y,z
-x,y,1/2-z
-x,-y,-z
x,-y,1/2+z
1/2+x,1/2+y,z
1/2-x,1/2+y,1/2-z
1/2-x,1/2-y,-z
1/2+x,1/2-y,1/2+z
loop_
_atom_site_type_symbol
_atom_site_label
_atom_site_fract_x
_atom_site_fract_y
_atom_site_fract_z
Si Si1 0.336699 0.102966 0.030011
Si Si2 0.670167 0.163844 0.911870
Si Si3 0.653108 0.730213 0.132141
Si Si4 0.406730 0.268917 0.315910
O O1 0.179158 0.131892 0.057831
O O2 0.476197 0.184140 0.103048
O O3 0.371134 0.963510 0.050828
O O4 0.309957 0.149649 0.922544
O O5 0.512828 0.236749 0.857705
O O6 0.798017 0.148370 0.857417
O O7 0.750000 0.250000 0.000000
O O8 0.776467 0.695062 0.233455
O O9 0.500000 0.329474 0.250000
#
# Coordination Sequence:
#
# PCOD9291659 Si02
#       4
#     8   8   8   8
#     4  10  23  46  67  98 143 176 218 291 343 394
#     4  12  24  43  72 101 137 180 228 279 348 407
#     4  10  22  42  69  99 135 178 230 274 339 405
#     4  10  23  44  66 100 135 179 229 277 337 403
#
# _framework density 23.045117000000001
#
# number of rings (size 3 to 8) (size 9 to 14) (size 15 to 20)
#    0.000    1.500    2.500    1.500    0.000    7.000 
#    0.000    0.000    0.000    0.000    0.000    0.000 
#    0.000    0.000    0.000    0.000    0.000    0.000 
#
# Total GULP energy -89151.854507 kJ/mol
# GULP energy per Si atom -5571.990907 kJ/mol
# Density = 2.299267 g / cm^3
# Si number density = 23.045117 Si / 1000 Ang^3
#
#
#
# Elastic Constant Matrix: (Units=GPa)
#
#
# Indices 1 2 3 4 5 6 
#
# 1 132.4751 29.4654 35.9958 0.0000 -7.6979 0.0000
# 2 29.4654 53.0515 13.7805 0.0000 9.8289 0.0000
# 3 35.9958 13.7805 103.4573 0.0000 12.3169 0.0000
# 4 0.0000 0.0000 0.0000 9.7560 0.0000 0.8377
# 5 -7.6979 9.8289 12.3169 0.0000 48.8595 0.0000
# 6 0.0000 0.0000 0.0000 0.8377 0.0000 27.2911
#
#
#
# Elastic Compliance Matrix: (Units=1/GPa)
#
#
# Indices 1 2 3 4 5 6 
#
# 1 0.009750 -0.005235 -0.003096 0.000000 0.003370 0.000000
# 2 -0.005235 0.022891 -0.000599 0.000000 -0.005279 0.000000
# 3 -0.003096 -0.000599 0.011203 0.000000 -0.003191 0.000000
# 4 0.000000 0.000000 0.000000 0.102772 0.000000 -0.003154
# 5 0.003370 -0.005279 -0.003191 0.000000 0.022864 0.000000
# 6 0.000000 0.000000 0.000000 -0.003154 0.000000 0.036739
#
#
# Mechanical properties :
#
#
# Convention : Reuss Voigt Hill
#
# Bulk Modulus (GPa) = 38.48724 49.71856 44.10290
# Shear Modulus (GPa) = 21.48311 31.16414 26.32362
#
# Velocity S-wave (km/s) = 3.05654 3.68137 3.38341
# Velocity P-wave (km/s) = 5.40312 6.30010 5.86877
#
# Compressibility (1/GPa) = 0.02598264
#
# Stress axis : x y z
#
# Youngs Moduli (GPa) = 102.56237 43.68520 89.26323
#
# Poissons Ratio (x) = 0.22871 0.27638
# Poissons Ratio (y) = 0.53696 0.05348
# Poissons Ratio (z) = 0.31755 0.02617
#
# Static dielectric constant tensor:
#      x y z
#    x 2.056200 0.000000 -0.016820 
#    y 0.000000 1.831670 0.000000 
#    z -0.016820 0.000000 1.937910 
# 
# From -- ./inp_files/131924.got.cif
#   From: 2010.05.17/outbox.cif.g08.bks.cpg/sg15_66_cif.got.tgz:131924.got - 2010.06.03 18:47:42.
