data_PCOD9291128
_publ_section_title
;
Structure prediction by ZEFSAII (Michael W. Deem and Ramdas Pophale) SiO2 
 PCOD9291128
Probable space group: C 2/C
;
_chemical_formula_sum "Si O2"
_cell_formula_units_Z 56
_cell_length_a 11.860553
_cell_length_b 30.617938
_cell_length_c 8.608398
_cell_angle_alpha 90.000000
_cell_angle_beta 124.337896
_cell_angle_gamma 90.000000
_cell_volume 2581.302224
_symmetry_space_group_name_H-M "C 2/C"
_symmetry_group_IT_number 15
_symmetry_cell_setting 'monoclinic'
loop_
_space_group_symop_operation_xyz
x,y,z
-x,y,1/2-z
-x,-y,-z
x,-y,1/2+z
1/2+x,1/2+y,z
1/2-x,1/2+y,1/2-z
1/2-x,1/2-y,-z
1/2+x,1/2-y,1/2+z
loop_
_atom_site_type_symbol
_atom_site_label
_atom_site_fract_x
_atom_site_fract_y
_atom_site_fract_z
Si Si1 0.024501 0.291978 0.083884
Si Si2 0.808690 0.013922 0.904689
Si Si3 0.374190 0.026255 0.467626
Si Si4 0.870118 0.845721 0.759224
Si Si5 0.530791 0.574892 0.947525
Si Si6 0.911985 0.379702 0.029146
Si Si7 0.268131 0.239823 0.197110
O O1 0.993376 0.341366 0.007440
O O2 0.000000 0.288484 0.250000
O O3 0.181423 0.279650 0.196220
O O4 0.918167 0.264379 0.893242
O O5 0.759366 0.997084 0.700747
O O6 0.906425 0.055150 0.954925
O O7 0.883500 0.969674 0.017999
O O8 0.670538 0.026834 0.888162
O O9 0.392098 0.075448 0.424114
O O10 0.500000 0.000000 0.500000
O O11 0.738531 0.860656 0.556205
O O12 0.815581 0.803657 0.813176
O O13 0.000000 0.836083 0.750000
O O14 0.904233 0.886196 0.900533
O O15 0.500000 0.591926 0.750000
O O16 0.000000 0.389177 0.250000
O O17 0.250000 0.250000 0.000000
#
# Coordination Sequence:
#
# PCOD9291128 Si02
#       7
#     8   8   8   8   8   8   8
#     4  10  22  43  70  97 129 178 230 278 341 415
#     4  11  23  40  62  93 133 174 232 281 346 399
#     4  12  23  41  61  92 134 184 231 279 338 414
#     4  11  24  44  74 103 134 176 233 284 337 410
#     4  11  23  41  66  97 132 175 222 295 347 395
#     4  10  22  42  64  96 131 172 225 277 339 397
#     4  11  24  44  67 102 139 176 219 284 355 412
#
# _framework density 21.694476999999999
#
# number of rings (size 3 to 8) (size 9 to 14) (size 15 to 20)
#    0.000    1.143    2.857    3.429    0.000    3.429 
#    2.571    2.857    0.000    0.000    0.000    0.000 
#    0.000    0.000    0.000    0.000    0.000    0.000 
#
# Total GULP energy -156004.028914 kJ/mol
# GULP energy per Si atom -5571.572461 kJ/mol
# Density = 2.164510 g / cm^3
# Si number density = 21.694477 Si / 1000 Ang^3
#
#
#
# Elastic Constant Matrix: (Units=GPa)
#
#
# Indices 1 2 3 4 5 6 
#
# 1 80.1815 39.8228 15.3264 0.0000 -1.9285 0.0000
# 2 39.8228 70.1500 13.6462 0.0000 12.4348 0.0000
# 3 15.3264 13.6462 96.0477 0.0000 2.1538 0.0000
# 4 0.0000 0.0000 0.0000 26.7277 0.0000 2.3604
# 5 -1.9285 12.4348 2.1538 0.0000 33.4184 0.0000
# 6 0.0000 0.0000 0.0000 2.3604 0.0000 18.1218
#
#
#
# Elastic Compliance Matrix: (Units=1/GPa)
#
#
# Indices 1 2 3 4 5 6 
#
# 1 0.018388 -0.011087 -0.001477 0.000000 0.005282 0.000000
# 2 -0.011087 0.022359 -0.001208 0.000000 -0.008881 0.000000
# 3 -0.001477 -0.001208 0.010826 0.000000 -0.000333 0.000000
# 4 0.000000 0.000000 0.000000 0.037850 0.000000 -0.004930
# 5 0.005282 -0.008881 -0.000333 0.000000 0.033555 0.000000
# 6 0.000000 0.000000 0.000000 -0.004930 0.000000 0.055824
#
#
# Mechanical properties :
#
#
# Convention : Reuss Voigt Hill
#
# Bulk Modulus (GPa) = 41.61994 42.66334 42.14164
# Shear Modulus (GPa) = 23.32567 27.49248 25.40908
#
# Velocity S-wave (km/s) = 3.28257 3.56372 3.42603
# Velocity P-wave (km/s) = 5.79596 6.05324 5.92600
#
# Compressibility (1/GPa) = 0.02402694
#
# Stress axis : x y z
#
# Youngs Moduli (GPa) = 54.38424 44.72565 92.36695
#
# Poissons Ratio (x) = 0.49588 0.13646
# Poissons Ratio (y) = 0.60297 0.11160
# Poissons Ratio (z) = 0.08034 0.05404
#
# Static dielectric constant tensor:
#      x y z
#    x 1.654460 0.000000 0.165460 
#    y 0.000000 1.809140 0.000000 
#    z 0.165460 0.000000 1.659890 
# 
# From -- ./inp_files/35791.got.cif
#   From: 2010.05.17/outbox.cif.g08.bks.cpg/sg15_18_cif.got.tgz:35791.got - 2010.06.03 18:47:42.
