data_PCOD9291648
_publ_section_title
;
Structure prediction by ZEFSAII (Michael W. Deem and Ramdas Pophale) SiO2 
 PCOD9291648
Probable space group: C 2/C
;
_chemical_formula_sum "Si O2"
_cell_formula_units_Z 48
_cell_length_a 9.072372
_cell_length_b 16.031790
_cell_length_c 17.232993
_cell_angle_alpha 90.000000
_cell_angle_beta 65.640849
_cell_angle_gamma 90.000000
_cell_volume 2283.344510
_symmetry_space_group_name_H-M "C 2/C"
_symmetry_group_IT_number 15
_symmetry_cell_setting 'monoclinic'
loop_
_space_group_symop_operation_xyz
x,y,z
-x,y,1/2-z
-x,-y,-z
x,-y,1/2+z
1/2+x,1/2+y,z
1/2-x,1/2+y,1/2-z
1/2-x,1/2-y,-z
1/2+x,1/2-y,1/2+z
loop_
_atom_site_type_symbol
_atom_site_label
_atom_site_fract_x
_atom_site_fract_y
_atom_site_fract_z
Si Si1 0.503202 0.766582 0.912178
Si Si2 0.509512 0.469295 0.585687
Si Si3 0.677547 0.693814 0.401238
Si Si4 0.451246 0.153083 0.672189
Si Si5 0.117841 0.421299 0.990736
Si Si6 0.378391 0.376649 0.209535
O O1 0.366456 0.797840 0.881277
O O2 0.574302 0.845630 0.942077
O O3 0.630216 0.704386 0.844320
O O4 0.412142 0.710684 0.997012
O O5 0.500000 0.500000 0.500000
O O6 0.384484 0.392940 0.619236
O O7 0.694601 0.443163 0.560131
O O8 0.457208 0.545845 0.649634
O O9 0.615643 0.765778 0.357474
O O10 0.500000 0.170099 0.750000
O O11 0.580829 0.110716 0.586797
O O12 0.291497 0.096840 0.717045
O O13 0.000000 0.500000 0.000000
O O14 0.500000 0.350559 0.250000
#
# Coordination Sequence:
#
# PCOD9291648 Si02
#       6
#     8   8   8   8   8   8
#     4  10  22  43  72  93 133 181 233 271 343 420
#     4  12  24  42  73 102 138 179 237 281 343 418
#     4  10  22  42  69  98 129 182 229 274 337 430
#     4  11  25  42  66 101 145 174 225 293 358 396
#     4  11  25  45  71 103 136 188 238 282 336 425
#     4  12  24  45  68 100 137 185 224 295 351 402
#
# _framework density 21.021794
#
# number of rings (size 3 to 8) (size 9 to 14) (size 15 to 20)
#    0.000    1.000    3.333    3.000    4.667    2.000 
#    3.000    0.833    0.000    0.000    0.000    0.000 
#    0.000    0.000    0.000    0.000    0.000    0.000 
#
# Total GULP energy -134157.559505 kJ/mol
# GULP energy per Si atom -5589.898313 kJ/mol
# Density = 2.097395 g / cm^3
# Si number density = 21.021794 Si / 1000 Ang^3
#
#
#
# Elastic Constant Matrix: (Units=GPa)
#
#
# Indices 1 2 3 4 5 6 
#
# 1 77.4973 35.9199 14.4758 0.0000 1.4239 0.0000
# 2 35.9199 126.1063 45.5889 0.0000 -3.0228 0.0000
# 3 14.4758 45.5889 80.1677 0.0000 4.1122 0.0000
# 4 0.0000 0.0000 0.0000 29.1950 0.0000 -11.4359
# 5 1.4239 -3.0228 4.1122 0.0000 37.2080 0.0000
# 6 0.0000 0.0000 0.0000 -11.4359 0.0000 25.0630
#
#
#
# Elastic Compliance Matrix: (Units=1/GPa)
#
#
# Indices 1 2 3 4 5 6 
#
# 1 0.014902 -0.004166 -0.000277 0.000000 -0.000878 0.000000
# 2 -0.004166 0.011224 -0.005718 0.000000 0.001703 0.000000
# 3 -0.000277 -0.005718 0.015889 0.000000 -0.002210 0.000000
# 4 0.000000 0.000000 0.000000 0.041707 0.000000 0.019030
# 5 -0.000878 0.001703 -0.002210 0.000000 0.027292 0.000000
# 6 0.000000 0.000000 0.000000 0.019030 0.000000 0.048582
#
#
# Mechanical properties :
#
#
# Convention : Reuss Voigt Hill
#
# Bulk Modulus (GPa) = 46.09546 52.86006 49.47776
# Shear Modulus (GPa) = 26.71657 30.81233 28.76445
#
# Velocity S-wave (km/s) = 3.56883 3.83264 3.70309
# Velocity P-wave (km/s) = 6.24157 6.69220 6.47081
#
# Compressibility (1/GPa) = 0.02169411
#
# Stress axis : x y z
#
# Youngs Moduli (GPa) = 67.10362 89.09186 62.93681
#
# Poissons Ratio (x) = 0.37113 0.01743
# Poissons Ratio (y) = 0.27953 0.35988
# Poissons Ratio (z) = 0.01858 0.50944
#
# Static dielectric constant tensor:
#      x y z
#    x 1.771520 0.000000 -0.013930 
#    y 0.000000 1.918270 0.000000 
#    z -0.013930 0.000000 1.816710 
# 
# From -- ./inp_files/190222.got.cif
#   From: 2010.05.17/outbox.cif.g08.bks.cpg/sg15_96_cif.got.tgz:190222.got - 2010.06.03 18:47:42.
