data_PCOD9291576
_publ_section_title
;
Structure prediction by ZEFSAII (Michael W. Deem and Ramdas Pophale) SiO2 
 PCOD9291576
Probable space group: C 2/C
;
_chemical_formula_sum "Si O2"
_cell_formula_units_Z 56
_cell_length_a 6.155361
_cell_length_b 24.698659
_cell_length_c 16.760502
_cell_angle_alpha 90.000000
_cell_angle_beta 105.975063
_cell_angle_gamma 90.000000
_cell_volume 2449.682038
_symmetry_space_group_name_H-M "C 2/C"
_symmetry_group_IT_number 15
_symmetry_cell_setting 'monoclinic'
loop_
_space_group_symop_operation_xyz
x,y,z
-x,y,1/2-z
-x,-y,-z
x,-y,1/2+z
1/2+x,1/2+y,z
1/2-x,1/2+y,1/2-z
1/2-x,1/2-y,-z
1/2+x,1/2-y,1/2+z
loop_
_atom_site_type_symbol
_atom_site_label
_atom_site_fract_x
_atom_site_fract_y
_atom_site_fract_z
Si Si1 0.111710 0.325849 0.605317
Si Si2 0.256068 0.084321 0.032276
Si Si3 0.753124 0.470754 0.684267
Si Si4 0.072302 0.219337 0.849983
Si Si5 0.500000 0.374150 0.750000
Si Si6 0.866920 0.617798 0.875276
Si Si7 0.178874 0.845295 0.039173
Si Si8 0.500000 0.558856 0.750000
O O1 0.938666 0.280999 0.621443
O O2 0.322547 0.336812 0.684649
O O3 0.209536 0.316075 0.526231
O O4 0.967595 0.380373 0.584184
O O5 0.258622 0.033313 0.089538
O O6 0.295001 0.080595 0.942427
O O7 0.026942 0.119113 0.014989
O O8 0.643329 0.414735 0.707277
O O9 0.584940 0.518353 0.690947
O O10 0.000000 0.477679 0.750000
O O11 0.904518 0.192108 0.897346
O O12 0.000000 0.218093 0.750000
O O13 0.291308 0.180739 0.880273
O O14 0.713915 0.596279 0.789470
O O15 0.133191 0.617031 0.900746
#
# Coordination Sequence:
#
# PCOD9291576 Si02
#       8
#     8   8   8   8   4   8   8   4
#     4  11  23  39  68 100 140 176 219 272 330 395
#     4  10  22  42  68  98 136 172 216 276 335 393
#     4  11  23  42  70 100 129 168 216 284 339 400
#     4  11  25  41  64 101 136 180 229 268 319 396
#     4  11  22  38  66 102 136 166 218 269 340 402
#     4  10  24  47  64  93 137 177 223 278 319 401
#     4  10  23  43  68  92 141 181 220 265 335 390
#     4  11  26  46  68  96 128 170 230 279 344 390
#
# _framework density 22.860109000000001
#
# number of rings (size 3 to 8) (size 9 to 14) (size 15 to 20)
#    0.000    1.429    3.571    0.429    2.000   10.857 
#    0.000    1.429    0.000    0.000    0.000    0.000 
#    0.000    0.000    0.000    0.000    0.000    0.000 
#
# Total GULP energy -156422.478883 kJ/mol
# GULP energy per Si atom -5586.517103 kJ/mol
# Density = 2.280808 g / cm^3
# Si number density = 22.860109 Si / 1000 Ang^3
#
#
#
# Elastic Constant Matrix: (Units=GPa)
#
#
# Indices 1 2 3 4 5 6 
#
# 1 47.9691 4.3003 13.5985 0.0000 7.9076 0.0000
# 2 4.3003 47.9237 9.8127 0.0000 -0.6259 0.0000
# 3 13.5985 9.8127 88.8409 0.0000 15.4119 0.0000
# 4 0.0000 0.0000 0.0000 -8.4127 0.0000 -4.1693
# 5 7.9076 -0.6259 15.4119 0.0000 16.1093 0.0000
# 6 0.0000 0.0000 0.0000 -4.1693 0.0000 7.3106
#
#
#
# Elastic Compliance Matrix: (Units=1/GPa)
#
#
# Indices 1 2 3 4 5 6 
#
# 1 0.023099 -0.001870 -0.001618 0.000000 -0.009863 0.000000
# 2 -0.001870 0.021686 -0.002895 0.000000 0.004530 0.000000
# 3 -0.001618 -0.002895 0.014034 0.000000 -0.012745 0.000000
# 4 0.000000 0.000000 0.000000 -0.092674 0.000000 -0.052853
# 5 -0.009863 0.004530 -0.012745 0.000000 0.079287 0.000000
# 6 0.000000 0.000000 0.000000 -0.052853 0.000000 0.106646
#
#
# Mechanical properties :
#
#
# Convention : Reuss Voigt Hill
#
# Bulk Modulus (GPa) = 21.71391 26.68407 24.19899
# Shear Modulus (GPa) = 27.74765 13.46959 20.60862
#
# Velocity S-wave (km/s) = 3.48775 2.43001 3.00577
# Velocity P-wave (km/s) = 5.07330 4.42396 4.75972
#
# Compressibility (1/GPa) = 0.04605342
#
# Stress axis : x y z
#
# Youngs Moduli (GPa) = 43.29176 46.11225 71.25315
#
# Poissons Ratio (x) = 0.08624 0.11529
# Poissons Ratio (y) = 0.08097 0.20627
# Poissons Ratio (z) = 0.07005 0.13349
#
# Static dielectric constant tensor:
#      x y z
#    x 1.838310 0.000000 -0.038270 
#    y 0.000000 1.867490 0.000000 
#    z -0.038270 0.000000 1.876160 
# 
# From -- ./inp_files/186254.got.cif
#   From: 2010.05.17/outbox.cif.g08.bks.cpg/sg15_94_cif.got.tgz:186254.got - 2010.06.03 18:47:42.
