data_PCOD9291181
_publ_section_title
;
Structure prediction by ZEFSAII (Michael W. Deem and Ramdas Pophale) SiO2 
 PCOD9291181
Probable space group: C 2/C
;
_chemical_formula_sum "Si O2"
_cell_formula_units_Z 32
_cell_length_a 11.346107
_cell_length_b 8.940064
_cell_length_c 16.485295
_cell_angle_alpha 90.000000
_cell_angle_beta 48.560993
_cell_angle_gamma 90.000000
_cell_volume 1253.571053
_symmetry_space_group_name_H-M "C 2/C"
_symmetry_group_IT_number 15
_symmetry_cell_setting 'monoclinic'
loop_
_space_group_symop_operation_xyz
x,y,z
-x,y,1/2-z
-x,-y,-z
x,-y,1/2+z
1/2+x,1/2+y,z
1/2-x,1/2+y,1/2-z
1/2-x,1/2-y,-z
1/2+x,1/2-y,1/2+z
loop_
_atom_site_type_symbol
_atom_site_label
_atom_site_fract_x
_atom_site_fract_y
_atom_site_fract_z
Si Si1 0.866605 0.862008 0.612538
Si Si2 0.966810 0.621660 0.178503
Si Si3 0.389813 0.435057 0.422046
Si Si4 0.633010 0.132887 0.505040
O O1 0.711035 0.817403 0.732317
O O2 0.548822 0.474635 0.863972
O O3 0.823725 0.935573 0.545205
O O4 0.004687 0.744542 0.524918
O O5 0.074264 0.767447 0.119382
O O6 0.011824 0.489230 0.097958
O O7 0.000000 0.549224 0.250000
O O8 0.270803 0.517785 0.415192
O O9 0.750000 0.250000 0.500000
#
# Coordination Sequence:
#
# PCOD9291181 Si02
#       4
#     8   8   8   8
#     4  10  22  42  67  92 129 173 220 270 331 389
#     4  12  23  40  66  96 132 170 222 272 327 396
#     4  10  22  43  64  94 132 171 218 277 327 390
#     4  10  22  42  65  92 130 172 214 272 330 385
#
# _framework density 25.527072
#
# number of rings (size 3 to 8) (size 9 to 14) (size 15 to 20)
#    0.000    1.500    2.500    2.250    0.000    1.000 
#    4.500    2.500    0.000    0.000    0.000    0.000 
#    0.000    0.000    0.000    0.000    0.000    0.000 
#
# Total GULP energy -89111.139656 kJ/mol
# GULP energy per Si atom -5569.446229 kJ/mol
# Density = 2.546897 g / cm^3
# Si number density = 25.527072 Si / 1000 Ang^3
#
#
#
# Elastic Constant Matrix: (Units=GPa)
#
#
# Indices 1 2 3 4 5 6 
#
# 1 78.8517 30.4910 25.6953 0.0000 -27.1803 0.0000
# 2 30.4910 126.5416 27.3493 0.0000 -13.1932 0.0000
# 3 25.6953 27.3493 87.2232 0.0000 -34.7639 0.0000
# 4 0.0000 0.0000 0.0000 30.2672 0.0000 -20.0652
# 5 -27.1803 -13.1932 -34.7639 0.0000 39.0251 0.0000
# 6 0.0000 0.0000 0.0000 -20.0652 0.0000 42.5511
#
#
#
# Elastic Compliance Matrix: (Units=1/GPa)
#
#
# Indices 1 2 3 4 5 6 
#
# 1 0.017801 -0.003158 0.000406 0.000000 0.011693 0.000000
# 2 -0.003158 0.009052 -0.002426 0.000000 -0.001301 0.000000
# 3 0.000406 -0.002426 0.018438 0.000000 0.015887 0.000000
# 4 0.000000 0.000000 0.000000 0.048064 0.000000 0.022665
# 5 0.011693 -0.001301 0.015887 0.000000 0.047481 0.000000
# 6 0.000000 0.000000 0.000000 0.022665 0.000000 0.034189
#
#
# Mechanical properties :
#
#
# Convention : Reuss Voigt Hill
#
# Bulk Modulus (GPa) = 28.62440 51.07640 39.85040
# Shear Modulus (GPa) = 25.37713 36.30742 30.84227
#
# Velocity S-wave (km/s) = 3.15640 3.77544 3.47971
# Velocity P-wave (km/s) = 4.95192 6.24960 5.63822
#
# Compressibility (1/GPa) = 0.03493523
#
# Stress axis : x y z
#
# Youngs Moduli (GPa) = 56.17579 110.46896 54.23547
#
# Poissons Ratio (x) = 0.34887 -0.02204
# Poissons Ratio (y) = 0.17741 0.13160
# Poissons Ratio (z) = -0.02283 0.26805
#
# Static dielectric constant tensor:
#      x y z
#    x 2.130410 0.000000 0.000250 
#    y 0.000000 1.972420 0.000000 
#    z 0.000250 0.000000 2.048130 
# 
# From -- ./inp_files/242203.got.cif
#   From: 2010.05.17/outbox.cif.g08.bks.cpg/sg15_122_cif.got.tgz:242203.got - 2010.06.03 18:47:42.
