data_PCOD9291902
_publ_section_title
;
Structure prediction by ZEFSAII (Michael W. Deem and Ramdas Pophale) SiO2 
 PCOD9291902
Probable space group: C 2/C
;
_chemical_formula_sum "Si O2"
_cell_formula_units_Z 32
_cell_length_a 12.035591
_cell_length_b 12.947774
_cell_length_c 11.141282
_cell_angle_alpha 90.000000
_cell_angle_beta 112.716020
_cell_angle_gamma 90.000000
_cell_volume 1601.515659
_symmetry_space_group_name_H-M "C 2/C"
_symmetry_group_IT_number 15
_symmetry_cell_setting 'monoclinic'
loop_
_space_group_symop_operation_xyz
x,y,z
-x,y,1/2-z
-x,-y,-z
x,-y,1/2+z
1/2+x,1/2+y,z
1/2-x,1/2+y,1/2-z
1/2-x,1/2-y,-z
1/2+x,1/2-y,1/2+z
loop_
_atom_site_type_symbol
_atom_site_label
_atom_site_fract_x
_atom_site_fract_y
_atom_site_fract_z
Si Si1 0.590590 0.744742 0.022833
Si Si2 0.673787 0.802341 0.573013
Si Si3 0.124380 0.071235 0.235599
Si Si4 0.332983 0.662929 0.694638
O O1 0.618223 0.640768 0.112442
O O2 0.698151 0.826979 0.083101
O O3 0.467828 0.799894 0.015125
O O4 0.588392 0.706277 0.883810
O O5 0.750000 0.750000 0.500000
O O6 0.753624 0.900909 0.641281
O O7 0.675436 0.735911 0.694562
O O8 0.000000 0.100563 0.250000
O O9 0.128682 0.947587 0.236798
#
# Coordination Sequence:
#
# PCOD9291902 Si02
#       4
#     8   8   8   8
#     4  10  22  43  60  87 128 155 196 254 296 350
#     4  11  22  38  64  90 122 157 194 253 296 350
#     4  11  22  37  63  92 115 161 204 239 299 359
#     4  10  24  39  63  90 119 160 203 242 296 362
#
# _framework density 19.981072999999999
#
# number of rings (size 3 to 8) (size 9 to 14) (size 15 to 20)
#    0.000    1.500    2.500    2.250    3.500    3.000 
#    0.000    0.000   16.500    0.000    0.000    0.000 
#    0.000    0.000    0.000    0.000    0.000    0.000 
#
# Total GULP energy -89108.950016 kJ/mol
# GULP energy per Si atom -5569.309376 kJ/mol
# Density = 1.993559 g / cm^3
# Si number density = 19.981073 Si / 1000 Ang^3
#
#
#
# Elastic Constant Matrix: (Units=GPa)
#
#
# Indices 1 2 3 4 5 6 
#
# 1 146.1311 15.8701 15.1827 0.0000 5.2504 0.0000
# 2 15.8701 53.0008 5.1195 0.0000 -0.6206 0.0000
# 3 15.1827 5.1195 55.9292 0.0000 -8.8298 0.0000
# 4 0.0000 0.0000 0.0000 20.8184 0.0000 7.5114
# 5 5.2504 -0.6206 -8.8298 0.0000 41.8628 0.0000
# 6 0.0000 0.0000 0.0000 7.5114 0.0000 27.3617
#
#
#
# Elastic Compliance Matrix: (Units=1/GPa)
#
#
# Indices 1 2 3 4 5 6 
#
# 1 0.007321 -0.002013 -0.002020 0.000000 -0.001374 0.000000
# 2 -0.002013 0.019590 -0.001201 0.000000 0.000290 0.000000
# 3 -0.002020 -0.001201 0.019215 0.000000 0.004288 0.000000
# 4 0.000000 0.000000 0.000000 0.053315 0.000000 -0.014636
# 5 -0.001374 0.000290 0.004288 0.000000 0.024969 0.000000
# 6 0.000000 0.000000 0.000000 -0.014636 0.000000 0.040565
#
#
# Mechanical properties :
#
#
# Convention : Reuss Voigt Hill
#
# Bulk Modulus (GPa) = 28.04446 36.37843 32.21145
# Shear Modulus (GPa) = 26.69095 32.60117 29.64606
#
# Velocity S-wave (km/s) = 3.65884 4.04369 3.85607
# Velocity P-wave (km/s) = 5.64938 6.32834 5.99847
#
# Compressibility (1/GPa) = 0.03565766
#
# Stress axis : x y z
#
# Youngs Moduli (GPa) = 136.59238 51.04686 52.04248
#
# Poissons Ratio (x) = 0.10276 0.10513
# Poissons Ratio (y) = 0.27498 0.06250
# Poissons Ratio (z) = 0.27593 0.06131
#
# Static dielectric constant tensor:
#      x y z
#    x 1.787420 0.000000 0.102140 
#    y 0.000000 1.682250 0.000000 
#    z 0.102140 0.000000 1.788340 
# 
# From -- ./inp_files/75277.got.cif
#   From: 2010.05.17/outbox.cif.g08.bks.cpg/sg15_38_cif.got.tgz:75277.got - 2010.06.03 18:47:42.
