data_PCOD9291640
_publ_section_title
;
Structure prediction by ZEFSAII (Michael W. Deem and Ramdas Pophale) SiO2 
 PCOD9291640
Probable space group: C 2/C
;
_chemical_formula_sum "Si O2"
_cell_formula_units_Z 52
_cell_length_a 13.976386
_cell_length_b 18.460782
_cell_length_c 11.600533
_cell_angle_alpha 90.000000
_cell_angle_beta 121.731204
_cell_angle_gamma 90.000000
_cell_volume 2545.715742
_symmetry_space_group_name_H-M "C 2/C"
_symmetry_group_IT_number 15
_symmetry_cell_setting 'monoclinic'
loop_
_space_group_symop_operation_xyz
x,y,z
-x,y,1/2-z
-x,-y,-z
x,-y,1/2+z
1/2+x,1/2+y,z
1/2-x,1/2+y,1/2-z
1/2-x,1/2-y,-z
1/2+x,1/2-y,1/2+z
loop_
_atom_site_type_symbol
_atom_site_label
_atom_site_fract_x
_atom_site_fract_y
_atom_site_fract_z
Si Si1 0.000000 0.159551 0.750000
Si Si2 0.085481 0.649192 0.900195
Si Si3 0.558050 0.234386 0.107227
Si Si4 0.326327 0.357034 0.459449
Si Si5 0.000000 0.077653 0.250000
Si Si6 0.101481 0.511884 0.477154
Si Si7 0.163068 0.957654 0.250536
Si Si8 0.000000 0.371011 0.750000
O O1 0.025240 0.210341 0.877374
O O2 0.896586 0.107911 0.717474
O O3 0.213793 0.667368 0.953093
O O4 0.000000 0.675071 0.750000
O O5 0.035036 0.680922 0.986286
O O6 0.097249 0.562519 0.904777
O O7 0.643972 0.290520 0.105723
O O8 0.582689 0.178701 0.225810
O O9 0.421613 0.375483 0.614728
O O10 0.320324 0.427269 0.369387
O O11 0.920581 0.025651 0.279415
O O12 0.217655 0.522246 0.618393
O O13 0.074131 0.579209 0.379179
O O14 0.000000 0.500000 0.500000
#
# Coordination Sequence:
#
# PCOD9291640 Si02
#       8
#     4   8   8   8   4   8   8   4
#     4   8  20  46  66  94 130 172 228 276 326 408
#     4  12  24  42  66  97 138 177 221 277 333 401
#     4  10  23  45  64  93 137 177 224 271 331 401
#     4  11  24  43  65 100 131 176 226 272 339 406
#     4  11  22  43  69  98 131 174 226 286 335 392
#     4  12  23  41  67 100 132 173 223 276 336 396
#     4  10  22  42  69  97 133 172 226 281 338 390
#     4  11  24  43  67  96 135 178 226 272 329 396
#
# _framework density 20.426476000000001
#
# number of rings (size 3 to 8) (size 9 to 14) (size 15 to 20)
#    0.000    1.231    3.846    1.846    1.077    0.000 
#    2.769    2.308    0.000    0.000    0.000    0.000 
#    0.000    0.000    0.000    0.000    0.000    0.000 
#
# Total GULP energy -144816.056101 kJ/mol
# GULP energy per Si atom -5569.848312 kJ/mol
# Density = 2.037998 g / cm^3
# Si number density = 20.426476 Si / 1000 Ang^3
#
#
#
# Elastic Constant Matrix: (Units=GPa)
#
#
# Indices 1 2 3 4 5 6 
#
# 1 96.8398 36.1074 62.4729 0.0000 -3.0384 0.0000
# 2 36.1074 89.1044 29.0077 0.0000 -4.1057 0.0000
# 3 62.4729 29.0077 112.5023 0.0000 6.5080 0.0000
# 4 0.0000 0.0000 0.0000 -0.5750 0.0000 -21.1946
# 5 -3.0384 -4.1057 6.5080 0.0000 38.3166 0.0000
# 6 0.0000 0.0000 0.0000 -21.1946 0.0000 5.2737
#
#
#
# Elastic Compliance Matrix: (Units=1/GPa)
#
#
# Indices 1 2 3 4 5 6 
#
# 1 0.017693 -0.004160 -0.008895 0.000000 0.002468 0.000000
# 2 -0.004160 0.013363 -0.001211 0.000000 0.001308 0.000000
# 3 -0.008895 -0.001211 0.014330 0.000000 -0.003269 0.000000
# 4 0.000000 0.000000 0.000000 -0.011661 0.000000 -0.046866
# 5 0.002468 0.001308 -0.003269 0.000000 0.026989 0.000000
# 6 0.000000 0.000000 0.000000 -0.046866 0.000000 0.001271
#
#
# Mechanical properties :
#
#
# Convention : Reuss Voigt Hill
#
# Bulk Modulus (GPa) = 59.33638 61.51360 60.42499
# Shear Modulus (GPa) = 52.00921 19.99362 36.00142
#
# Velocity S-wave (km/s) = 5.05143 3.13199 4.20275
# Velocity P-wave (km/s) = 7.94572 6.57717 7.29361
#
# Compressibility (1/GPa) = 0.01685307
#
# Stress axis : x y z
#
# Youngs Moduli (GPa) = 56.51796 74.83277 69.78530
#
# Poissons Ratio (x) = 0.31133 0.62076
# Poissons Ratio (y) = 0.23513 0.08451
# Poissons Ratio (z) = 0.50275 0.09062
#
# Static dielectric constant tensor:
#      x y z
#    x 1.736010 0.000000 -0.039330 
#    y 0.000000 1.859040 0.000000 
#    z -0.039330 0.000000 1.696700 
# 
# From -- ./inp_files/98485.got.cif
#   From: 2010.05.17/outbox.cif.g08.bks.cpg/sg15_50_cif.got.tgz:98485.got - 2010.06.03 18:47:42.
