data_PCOD9291772
_publ_section_title
;
Structure prediction by ZEFSAII (Michael W. Deem and Ramdas Pophale) SiO2 
 PCOD9291772
Probable space group: C 2/C
;
_chemical_formula_sum "Si O2"
_cell_formula_units_Z 44
_cell_length_a 22.281324
_cell_length_b 5.324107
_cell_length_c 17.352541
_cell_angle_alpha 90.000000
_cell_angle_beta 73.684621
_cell_angle_gamma 90.000000
_cell_volume 1975.603940
_symmetry_space_group_name_H-M "C 2/C"
_symmetry_group_IT_number 15
_symmetry_cell_setting 'monoclinic'
loop_
_space_group_symop_operation_xyz
x,y,z
-x,y,1/2-z
-x,-y,-z
x,-y,1/2+z
1/2+x,1/2+y,z
1/2-x,1/2+y,1/2-z
1/2-x,1/2-y,-z
1/2+x,1/2-y,1/2+z
loop_
_atom_site_type_symbol
_atom_site_label
_atom_site_fract_x
_atom_site_fract_y
_atom_site_fract_z
Si Si1 0.997753 0.238008 0.906290
Si Si2 0.599680 0.074973 0.949077
Si Si3 0.280926 0.598970 0.772880
Si Si4 0.265811 0.998279 0.540774
Si Si5 0.500000 0.063322 0.750000
Si Si6 0.909221 0.874624 0.694770
O O1 0.050386 0.363964 0.941671
O O2 0.990765 0.399608 0.830536
O O3 0.935611 0.238457 0.979289
O O4 0.027683 0.981251 0.867039
O O5 0.660985 0.978587 0.967253
O O6 0.619074 0.200809 0.861549
O O7 0.246013 0.374742 0.737711
O O8 0.269157 0.525374 0.865354
O O9 0.355802 0.577185 0.731454
O O10 0.250000 0.250000 0.500000
O O11 0.250000 0.750000 0.500000
O O12 0.437222 0.225263 0.756914
#
# Coordination Sequence:
#
# PCOD9291772 Si02
#       6
#     8   8   8   8   4   8
#     4  10  22  42  71  92 138 174 231 289 350 413
#     4  10  23  44  67  99 130 184 230 286 353 424
#     4  12  26  48  77 102 141 194 244 293 359 434
#     4  12  28  46  70 109 147 187 240 298 356 420
#     4  10  24  38  60 108 126 180 222 292 346 416
#     4  11  23  42  69  97 137 177 239 283 357 421
#
# _framework density 22.271671000000001
#
# number of rings (size 3 to 8) (size 9 to 14) (size 15 to 20)
#    0.000    1.091    1.818    3.273    7.636    2.909 
#    0.000    0.000    0.000    0.000    0.000    0.000 
#    0.000    0.000    0.000    0.000    0.000    0.000 
#
# Total GULP energy -123040.463935 kJ/mol
# GULP energy per Si atom -5592.748361 kJ/mol
# Density = 2.222098 g / cm^3
# Si number density = 22.271671 Si / 1000 Ang^3
#
#
#
# Elastic Constant Matrix: (Units=GPa)
#
#
# Indices 1 2 3 4 5 6 
#
# 1 113.4674 15.5864 41.3584 0.0000 19.8917 0.0000
# 2 15.5864 76.5700 17.7526 0.0000 23.7958 0.0000
# 3 41.3584 17.7526 92.2809 0.0000 12.5142 0.0000
# 4 0.0000 0.0000 0.0000 30.5575 0.0000 3.0704
# 5 19.8917 23.7958 12.5142 0.0000 39.9333 0.0000
# 6 0.0000 0.0000 0.0000 3.0704 0.0000 25.8483
#
#
#
# Elastic Compliance Matrix: (Units=1/GPa)
#
#
# Indices 1 2 3 4 5 6 
#
# 1 0.011161 0.000066 -0.004445 0.000000 -0.004206 0.000000
# 2 0.000066 0.016343 -0.001930 0.000000 -0.009166 0.000000
# 3 -0.004445 -0.001930 0.013309 0.000000 -0.000807 0.000000
# 4 0.000000 0.000000 0.000000 0.033120 0.000000 -0.003934
# 5 -0.004206 -0.009166 -0.000807 0.000000 0.032852 0.000000
# 6 0.000000 0.000000 0.000000 -0.003934 0.000000 0.039155
#
#
# Mechanical properties :
#
#
# Convention : Reuss Voigt Hill
#
# Bulk Modulus (GPa) = 35.46754 47.96812 41.71783
# Shear Modulus (GPa) = 29.76953 33.10922 31.43938
#
# Velocity S-wave (km/s) = 3.65999 3.85984 3.76124
# Velocity P-wave (km/s) = 5.81552 6.43809 6.13471
#
# Compressibility (1/GPa) = 0.02819480
#
# Stress axis : x y z
#
# Youngs Moduli (GPa) = 89.59383 61.18924 75.13611
#
# Poissons Ratio (x) = -0.00401 0.33395
# Poissons Ratio (y) = -0.00588 0.14504
# Poissons Ratio (z) = 0.39821 0.11811
#
# Static dielectric constant tensor:
#      x y z
#    x 1.811740 0.000000 -0.006740 
#    y 0.000000 1.852010 0.000000 
#    z -0.006740 0.000000 1.820410 
# 
# From -- ./inp_files/212815.got.cif
#   From: 2010.05.17/outbox.cif.g08.bks.cpg/sg15_107_cif.got.tgz:212815.got - 2010.06.03 18:47:42.
