data_PCOD9291239
_publ_section_title
;
Structure prediction by ZEFSAII (Michael W. Deem and Ramdas Pophale) SiO2 
 PCOD9291239
Probable space group: C 2/C
;
_chemical_formula_sum "Si O2"
_cell_formula_units_Z 28
_cell_length_a 12.184308
_cell_length_b 7.220627
_cell_length_c 16.594273
_cell_angle_alpha 90.000000
_cell_angle_beta 126.126755
_cell_angle_gamma 90.000000
_cell_volume 1179.212237
_symmetry_space_group_name_H-M "C 2/C"
_symmetry_group_IT_number 15
_symmetry_cell_setting 'monoclinic'
loop_
_space_group_symop_operation_xyz
x,y,z
-x,y,1/2-z
-x,-y,-z
x,-y,1/2+z
1/2+x,1/2+y,z
1/2-x,1/2+y,1/2-z
1/2-x,1/2-y,-z
1/2+x,1/2-y,1/2+z
loop_
_atom_site_type_symbol
_atom_site_label
_atom_site_fract_x
_atom_site_fract_y
_atom_site_fract_z
Si Si1 0.000000 0.978874 0.250000
Si Si2 0.054817 0.450085 0.613103
Si Si3 0.333521 0.465239 0.316702
Si Si4 0.812621 0.660994 0.105470
O O1 0.942023 0.071243 0.305540
O O2 0.880441 0.836118 0.177679
O O3 0.189529 0.546563 0.706889
O O4 0.099835 0.233096 0.634576
O O5 0.000000 0.500000 0.500000
O O6 0.932887 0.470436 0.624880
O O7 0.294233 0.564170 0.382748
O O8 0.750000 0.750000 0.000000
#
# Coordination Sequence:
#
# PCOD9291239 Si02
#       4
#     4   8   8   8
#     4  10  22  42  66 100 142 186 242 300 360 428
#     4  11  25  44  72 109 147 190 250 302 369 445
#     4  11  22  47  70 103 148 192 244 312 364 437
#     4  11  22  44  71 100 149 189 238 313 365 430
#
# _framework density 23.744665999999999
#
# number of rings (size 3 to 8) (size 9 to 14) (size 15 to 20)
#    0.000    1.143    5.714    1.714    0.000    5.714 
#    5.143    0.000    0.000    0.000    0.000    0.000 
#    0.000    0.000    0.000    0.000    0.000    0.000 
#
# Total GULP energy -78230.372526 kJ/mol
# GULP energy per Si atom -5587.883752 kJ/mol
# Density = 2.369062 g / cm^3
# Si number density = 23.744666 Si / 1000 Ang^3
#
#
#
# Elastic Constant Matrix: (Units=GPa)
#
#
# Indices 1 2 3 4 5 6 
#
# 1 227.2053 63.4534 40.9160 0.0000 -57.6233 0.0000
# 2 63.4534 65.5487 36.9580 0.0000 -11.8561 0.0000
# 3 40.9160 36.9580 147.1659 0.0000 -22.5768 0.0000
# 4 0.0000 0.0000 0.0000 44.1370 0.0000 12.3276
# 5 -57.6233 -11.8561 -22.5768 0.0000 44.7023 0.0000
# 6 0.0000 0.0000 0.0000 12.3276 0.0000 -52.3084
#
#
#
# Elastic Compliance Matrix: (Units=1/GPa)
#
#
# Indices 1 2 3 4 5 6 
#
# 1 0.008731 -0.007175 0.000877 0.000000 0.009795 0.000000
# 2 -0.007175 0.023967 -0.004843 0.000000 -0.005338 0.000000
# 3 0.000877 -0.004843 0.008394 0.000000 0.004086 0.000000
# 4 0.000000 0.000000 0.000000 0.021257 0.000000 0.005010
# 5 0.009795 -0.005338 0.004086 0.000000 0.035644 0.000000
# 6 0.000000 0.000000 0.000000 0.005010 0.000000 -0.017937
#
#
# Mechanical properties :
#
#
# Convention : Reuss Voigt Hill
#
# Bulk Modulus (GPa) = 53.16260 80.28609 66.72435
# Shear Modulus (GPa) = 46.03663 27.21233 36.62448
#
# Velocity S-wave (km/s) = 4.40798 3.38899 3.93164
# Velocity P-wave (km/s) = 6.95305 7.01423 6.98371
#
# Compressibility (1/GPa) = 0.01881022
#
# Stress axis : x y z
#
# Youngs Moduli (GPa) = 114.52835 41.72484 119.13016
#
# Poissons Ratio (x) = 0.29938 -0.10448
# Poissons Ratio (y) = 0.82176 0.57693
# Poissons Ratio (z) = -0.10044 0.20207
#
# Static dielectric constant tensor:
#      x y z
#    x 2.029100 0.000000 -0.003040 
#    y 0.000000 1.993150 0.000000 
#    z -0.003040 0.000000 1.883330 
# 
# From -- ./inp_files/140299.got.cif
#   From: 2010.05.17/outbox.cif.g08.bks.cpg/sg15_71_cif.got.tgz:140299.got - 2010.06.03 18:47:42.
