data_PCOD9291225
_publ_section_title
;
Structure prediction by ZEFSAII (Michael W. Deem and Ramdas Pophale) SiO2 
 PCOD9291225
Probable space group: C 2/C
;
_chemical_formula_sum "Si O2"
_cell_formula_units_Z 40
_cell_length_a 12.250712
_cell_length_b 9.495087
_cell_length_c 14.706618
_cell_angle_alpha 90.000000
_cell_angle_beta 78.412037
_cell_angle_gamma 90.000000
_cell_volume 1675.828657
_symmetry_space_group_name_H-M "C 2/C"
_symmetry_group_IT_number 15
_symmetry_cell_setting 'monoclinic'
loop_
_space_group_symop_operation_xyz
x,y,z
-x,y,1/2-z
-x,-y,-z
x,-y,1/2+z
1/2+x,1/2+y,z
1/2-x,1/2+y,1/2-z
1/2-x,1/2-y,-z
1/2+x,1/2-y,1/2+z
loop_
_atom_site_type_symbol
_atom_site_label
_atom_site_fract_x
_atom_site_fract_y
_atom_site_fract_z
Si Si1 0.318460 0.699380 0.371313
Si Si2 0.124514 0.704968 0.993641
Si Si3 0.402466 0.017675 0.339535
Si Si4 0.601098 0.647898 0.944495
Si Si5 0.669141 0.371135 0.826493
O O1 0.360848 0.631136 0.456945
O O2 0.091656 0.433442 0.555542
O O3 0.368621 0.855251 0.351901
O O4 0.354298 0.619474 0.275417
O O5 0.127187 0.728103 0.883648
O O6 0.250000 0.750000 0.000000
O O7 0.026208 0.808318 0.041598
O O8 0.500000 0.035035 0.250000
O O9 0.185652 0.729186 0.396974
O O10 0.301224 0.112084 0.317932
O O11 0.621317 0.505548 0.886789
#
# Coordination Sequence:
#
# PCOD9291225 Si02
#       5
#     8   8   8   8   8
#     4  10  23  43  69 102 136 180 227 283 347 399
#     4  10  22  42  67  97 136 176 228 277 333 407
#     4  10  22  42  65  98 138 181 228 279 339 409
#     4  10  22  44  69 101 139 178 228 283 338 409
#     4  10  22  44  67 101 139 182 228 277 344 407
#
# _framework density 23.868789
#
# number of rings (size 3 to 8) (size 9 to 14) (size 15 to 20)
#    0.000    2.000    0.000    1.800    2.800    0.800 
#   39.600    0.000    4.400    0.000    0.000    0.000 
#    0.000    0.000    0.000    0.000    0.000    0.000 
#
# Total GULP energy -111776.146970 kJ/mol
# GULP energy per Si atom -5588.807348 kJ/mol
# Density = 2.381446 g / cm^3
# Si number density = 23.868789 Si / 1000 Ang^3
#
#
#
# Elastic Constant Matrix: (Units=GPa)
#
#
# Indices 1 2 3 4 5 6 
#
# 1 120.5871 29.5630 48.2379 0.0000 -40.5404 0.0000
# 2 29.5630 54.1164 63.1715 0.0000 -3.0532 0.0000
# 3 48.2379 63.1715 184.2309 0.0000 2.1900 0.0000
# 4 0.0000 0.0000 0.0000 43.5425 0.0000 1.5624
# 5 -40.5404 -3.0532 2.1900 0.0000 48.2349 0.0000
# 6 0.0000 0.0000 0.0000 1.5624 0.0000 15.3391
#
#
#
# Elastic Compliance Matrix: (Units=1/GPa)
#
#
# Indices 1 2 3 4 5 6 
#
# 1 0.014302 -0.004349 -0.002394 0.000000 0.011854 0.000000
# 2 -0.004349 0.032422 -0.009965 0.000000 -0.001151 0.000000
# 3 -0.002394 -0.009965 0.009508 0.000000 -0.003075 0.000000
# 4 0.000000 0.000000 0.000000 0.023050 0.000000 -0.002348
# 5 0.011854 -0.001151 -0.003075 0.000000 0.030762 0.000000
# 6 0.000000 0.000000 0.000000 -0.002348 0.000000 0.065432
#
#
# Mechanical properties :
#
#
# Convention : Reuss Voigt Hill
#
# Bulk Modulus (GPa) = 43.82991 71.20882 57.51937
# Shear Modulus (GPa) = 23.09491 35.95410 29.52451
#
# Velocity S-wave (km/s) = 3.11397 3.88535 3.52085
# Velocity P-wave (km/s) = 5.59748 7.07291 6.37800
#
# Compressibility (1/GPa) = 0.02281547
#
# Stress axis : x y z
#
# Youngs Moduli (GPa) = 69.92034 30.84339 105.17126
#
# Poissons Ratio (x) = 0.13414 0.25182
# Poissons Ratio (y) = 0.30410 1.04801
# Poissons Ratio (z) = 0.16741 0.30735
#
# Static dielectric constant tensor:
#      x y z
#    x 1.962340 0.000000 0.009660 
#    y 0.000000 1.900080 0.000000 
#    z 0.009660 0.000000 1.941340 
# 
# From -- ./inp_files/142864.got.cif
#   From: 2010.05.17/outbox.cif.g08.bks.cpg/sg15_72_cif.got.tgz:142864.got - 2010.06.03 18:47:42.
