data_PCOD9291876
_publ_section_title
;
Structure prediction by ZEFSAII (Michael W. Deem and Ramdas Pophale) SiO2 
 PCOD9291876
Probable space group: C 2/C
;
_chemical_formula_sum "Si O2"
_cell_formula_units_Z 52
_cell_length_a 31.127923
_cell_length_b 8.327295
_cell_length_c 16.284137
_cell_angle_alpha 90.000000
_cell_angle_beta 147.104714
_cell_angle_gamma 90.000000
_cell_volume 2292.466177
_symmetry_space_group_name_H-M "C 2/C"
_symmetry_group_IT_number 15
_symmetry_cell_setting 'monoclinic'
loop_
_space_group_symop_operation_xyz
x,y,z
-x,y,1/2-z
-x,-y,-z
x,-y,1/2+z
1/2+x,1/2+y,z
1/2-x,1/2+y,1/2-z
1/2-x,1/2-y,-z
1/2+x,1/2-y,1/2+z
loop_
_atom_site_type_symbol
_atom_site_label
_atom_site_fract_x
_atom_site_fract_y
_atom_site_fract_z
Si Si1 0.802663 0.098029 0.060362
Si Si2 0.700769 0.199485 0.166967
Si Si3 0.880185 0.098966 0.821909
Si Si4 0.032260 0.782033 0.474431
Si Si5 0.000000 0.390118 0.750000
Si Si6 0.076324 0.283286 0.329485
Si Si7 0.180866 0.609606 0.726884
O O1 0.890870 0.174757 0.190598
O O2 0.818571 0.971593 0.156682
O O3 0.750000 0.250000 0.000000
O O4 0.745860 0.038652 0.894985
O O5 0.671217 0.302095 0.195901
O O6 0.786449 0.232576 0.267527
O O7 0.680480 0.019458 0.155075
O O8 0.646721 0.245006 0.004583
O O9 0.946653 0.205006 0.880865
O O10 0.927979 0.956590 0.945507
O O11 0.092973 0.653599 0.613721
O O12 0.026167 0.721660 0.369163
O O13 0.058107 0.525007 0.798823
O O14 0.000000 0.210631 0.250000
#
# Coordination Sequence:
#
# PCOD9291876 Si02
#       7
#     8   8   8   8   4   8   8
#     4  11  24  43  67  99 140 182 220 289 345 404
#     4  11  24  43  69  97 133 179 224 280 348 402
#     4  11  27  43  64 105 142 181 225 285 347 414
#     4  11  24  43  68 103 135 178 230 290 340 410
#     4  10  22  42  74  94 126 178 228 280 326 416
#     4   9  22  41  66  99 126 176 224 280 335 401
#     4  11  23  44  70  97 135 181 231 282 342 417
#
# _framework density 22.682994000000001
#
# number of rings (size 3 to 8) (size 9 to 14) (size 15 to 20)
#    0.462    0.923    3.077    0.923    6.462    6.154 
#    0.000    0.000    0.000    0.000    0.000    0.000 
#    0.000    0.000    0.000    0.000    0.000    0.000 
#
# Total GULP energy -144754.141647 kJ/mol
# GULP energy per Si atom -5567.466986 kJ/mol
# Density = 2.263137 g / cm^3
# Si number density = 22.682994 Si / 1000 Ang^3
#
#
#
# Elastic Constant Matrix: (Units=GPa)
#
#
# Indices 1 2 3 4 5 6 
#
# 1 21.4979 6.4790 2.3139 0.0000 4.9313 0.0000
# 2 6.4790 36.7623 11.8463 0.0000 -0.1204 0.0000
# 3 2.3139 11.8463 68.2401 0.0000 -2.4887 0.0000
# 4 0.0000 0.0000 0.0000 36.7338 0.0000 -14.6203
# 5 4.9313 -0.1204 -2.4887 0.0000 32.5421 0.0000
# 6 0.0000 0.0000 0.0000 -14.6203 0.0000 45.2512
#
#
#
# Elastic Compliance Matrix: (Units=1/GPa)
#
#
# Indices 1 2 3 4 5 6 
#
# 1 0.051029 -0.008866 -0.000476 0.000000 -0.007802 0.000000
# 2 -0.008866 0.030356 -0.004930 0.000000 0.001079 0.000000
# 3 -0.000476 -0.004930 0.015571 0.000000 0.001245 0.000000
# 4 0.000000 0.000000 0.000000 0.031240 0.000000 0.010093
# 5 -0.007802 0.001079 0.001245 0.000000 0.032011 0.000000
# 6 0.000000 0.000000 0.000000 0.010093 0.000000 0.025360
#
#
# Mechanical properties :
#
#
# Convention : Reuss Voigt Hill
#
# Bulk Modulus (GPa) = 14.61683 18.64209 16.62946
# Shear Modulus (GPa) = 21.10461 29.96283 25.53372
#
# Velocity S-wave (km/s) = 3.05358 3.63841 3.35875
# Velocity P-wave (km/s) = 4.34631 5.08794 4.73168
#
# Compressibility (1/GPa) = 0.06841428
#
# Stress axis : x y z
#
# Youngs Moduli (GPa) = 19.59672 32.94202 64.21999
#
# Poissons Ratio (x) = 0.29205 0.03055
# Poissons Ratio (y) = 0.17374 0.31659
# Poissons Ratio (z) = 0.00932 0.16240
#
# Static dielectric constant tensor:
#      x y z
#    x 1.647400 0.000000 -0.226400 
#    y 0.000000 1.957310 0.000000 
#    z -0.226400 0.000000 1.947640 
# 
# From -- ./inp_files/181234.got.cif
#   From: 2010.05.17/outbox.cif.g08.bks.cpg/sg15_91_cif.got.tgz:181234.got - 2010.06.03 18:47:42.
