data_PCOD9291606
_publ_section_title
;
Structure prediction by ZEFSAII (Michael W. Deem and Ramdas Pophale) SiO2 
 PCOD9291606
Probable space group: C 2/C
;
_chemical_formula_sum "Si O2"
_cell_formula_units_Z 56
_cell_length_a 5.315419
_cell_length_b 22.529476
_cell_length_c 19.342131
_cell_angle_alpha 90.000000
_cell_angle_beta 97.236404
_cell_angle_gamma 90.000000
_cell_volume 2297.840357
_symmetry_space_group_name_H-M "C 2/C"
_symmetry_group_IT_number 15
_symmetry_cell_setting 'monoclinic'
loop_
_space_group_symop_operation_xyz
x,y,z
-x,y,1/2-z
-x,-y,-z
x,-y,1/2+z
1/2+x,1/2+y,z
1/2-x,1/2+y,1/2-z
1/2-x,1/2-y,-z
1/2+x,1/2-y,1/2+z
loop_
_atom_site_type_symbol
_atom_site_label
_atom_site_fract_x
_atom_site_fract_y
_atom_site_fract_z
Si Si1 0.878684 0.686482 0.865708
Si Si2 0.000000 0.774306 0.250000
Si Si3 0.294736 0.298838 0.658656
Si Si4 0.996414 0.288337 0.987927
Si Si5 0.238216 0.070375 0.362258
Si Si6 0.762505 0.507201 0.660727
Si Si7 0.743778 0.038642 0.988588
Si Si8 0.000000 0.598569 0.750000
O O1 0.599015 0.690915 0.821289
O O2 0.998493 0.752783 0.864359
O O3 0.996056 0.641978 0.814569
O O4 0.937305 0.666649 0.946373
O O5 0.211375 0.732013 0.226167
O O6 0.343817 0.367571 0.673433
O O7 0.064899 0.303047 0.593810
O O8 0.250000 0.250000 0.000000
O O9 0.750000 0.250000 0.000000
O O10 0.500245 0.039802 0.343210
O O11 0.003095 0.026119 0.345849
O O12 0.245967 0.083024 0.446281
O O13 0.776117 0.549502 0.593339
O O14 0.783096 0.550688 0.726612
O O15 0.500000 0.000000 0.000000
O O16 0.000000 0.000000 0.000000
#
# Coordination Sequence:
#
# PCOD9291606 Si02
#       8
#     8   4   8   8   8   8   8   4
#     4  11  25  46  68 105 141 189 237 290 359 435
#     4  12  22  43  70 100 145 182 238 288 364 426
#     4  11  24  43  72 106 142 184 232 303 366 418
#     4  10  22  42  69 102 143 179 237 287 349 434
#     4  10  23  43  70  99 137 172 234 290 352 410
#     4  10  24  44  65 100 133 183 232 282 342 420
#     4   8  16  37  64  90 126 168 219 276 332 399
#     4  12  26  47  68  96 147 192 238 290 356 424
#
# _framework density 24.370708
#
# number of rings (size 3 to 8) (size 9 to 14) (size 15 to 20)
#    0.000    1.714    2.857    0.000    4.000    2.286 
#    2.571    0.000    3.143    0.000    0.000    0.000 
#    0.000    0.000    0.000    0.000    0.000    0.000 
#
# Total GULP energy -155992.387116 kJ/mol
# GULP energy per Si atom -5571.156683 kJ/mol
# Density = 2.431524 g / cm^3
# Si number density = 24.370708 Si / 1000 Ang^3
#
#
#
# Elastic Constant Matrix: (Units=GPa)
#
#
# Indices 1 2 3 4 5 6 
#
# 1 120.2687 17.8314 18.4784 0.0000 4.8254 0.0000
# 2 17.8314 65.8935 24.6500 0.0000 12.4582 0.0000
# 3 18.4784 24.6500 142.1274 0.0000 29.7480 0.0000
# 4 0.0000 0.0000 0.0000 18.4078 0.0000 10.3360
# 5 4.8254 12.4582 29.7480 0.0000 38.6085 0.0000
# 6 0.0000 0.0000 0.0000 10.3360 0.0000 8.2427
#
#
#
# Elastic Compliance Matrix: (Units=1/GPa)
#
#
# Indices 1 2 3 4 5 6 
#
# 1 0.008743 -0.002101 -0.000817 0.000000 0.000215 0.000000
# 2 -0.002101 0.017179 -0.001909 0.000000 -0.003810 0.000000
# 3 -0.000817 -0.001909 0.008731 0.000000 -0.006009 0.000000
# 4 0.000000 0.000000 0.000000 0.183594 0.000000 -0.230221
# 5 0.000215 -0.003810 -0.006009 0.000000 0.031734 0.000000
# 6 0.000000 0.000000 0.000000 -0.230221 0.000000 0.410008
#
#
# Mechanical properties :
#
#
# Convention : Reuss Voigt Hill
#
# Bulk Modulus (GPa) = 40.00165 50.02325 45.01245
# Shear Modulus (GPa) = 7.37489 30.87377 19.12433
#
# Velocity S-wave (km/s) = 1.74146 3.56313 2.80434
# Velocity P-wave (km/s) = 4.52693 6.12359 5.38477
#
# Compressibility (1/GPa) = 0.02499897
#
# Stress axis : x y z
#
# Youngs Moduli (GPa) = 114.37529 58.21084 114.53411
#
# Poissons Ratio (x) = 0.12229 0.09361
# Poissons Ratio (y) = 0.24029 0.21863
# Poissons Ratio (z) = 0.09348 0.11112
#
# Static dielectric constant tensor:
#      x y z
#    x 1.963790 0.000000 0.073860 
#    y 0.000000 2.011000 0.000000 
#    z 0.073860 0.000000 2.112590 
# 
# From -- ./inp_files/227951.got.cif
#   From: 2010.05.17/outbox.cif.g08.bks.cpg/sg15_114_cif.got.tgz:227951.got - 2010.06.03 18:47:42.
