data_PCOD9291749
_publ_section_title
;
Structure prediction by ZEFSAII (Michael W. Deem and Ramdas Pophale) SiO2 
 PCOD9291749
Probable space group: C 2/C
;
_chemical_formula_sum "Si O2"
_cell_formula_units_Z 52
_cell_length_a 13.458058
_cell_length_b 9.336537
_cell_length_c 29.083292
_cell_angle_alpha 90.000000
_cell_angle_beta 145.346510
_cell_angle_gamma 90.000000
_cell_volume 2077.914966
_symmetry_space_group_name_H-M "C 2/C"
_symmetry_group_IT_number 15
_symmetry_cell_setting 'monoclinic'
loop_
_space_group_symop_operation_xyz
x,y,z
-x,y,1/2-z
-x,-y,-z
x,-y,1/2+z
1/2+x,1/2+y,z
1/2-x,1/2+y,1/2-z
1/2-x,1/2-y,-z
1/2+x,1/2-y,1/2+z
loop_
_atom_site_type_symbol
_atom_site_label
_atom_site_fract_x
_atom_site_fract_y
_atom_site_fract_z
Si Si1 0.169632 0.718675 0.569428
Si Si2 0.785984 0.676624 0.416149
Si Si3 0.600762 0.559778 0.904262
Si Si4 0.772984 0.263935 0.802802
Si Si5 0.597237 0.987814 0.706107
Si Si6 0.000000 0.725092 0.250000
Si Si7 0.279653 0.510857 0.954232
O O1 0.236216 0.663395 0.545513
O O2 0.332168 0.691926 0.665824
O O3 0.985144 0.648109 0.509985
O O4 0.155881 0.889747 0.556949
O O5 0.647112 0.566813 0.385228
O O6 0.785285 0.691824 0.360667
O O7 0.762730 0.836674 0.425013
O O8 0.437648 0.669696 0.845587
O O9 0.608230 0.490102 0.957235
O O10 0.754607 0.411244 0.767563
O O11 0.625872 0.146231 0.736075
O O12 0.571566 0.880672 0.738556
O O13 0.421210 0.976985 0.609564
#
# Coordination Sequence:
#
# PCOD9291749 Si02
#       7
#     8   8   8   8   8   4   8
#     4  11  22  45  69 101 144 190 235 298 368 416
#     4  12  27  43  76 105 139 192 243 301 355 447
#     4  12  25  46  72 105 139 187 244 302 353 441
#     4  12  26  49  72 105 147 188 241 302 372 438
#     4  11  26  45  72 102 142 192 228 301 372 433
#     4  10  22  42  70  98 142 186 232 286 358 430
#     4  11  23  46  70 100 143 186 238 300 360 434
#
# _framework density 25.025086000000002
#
# number of rings (size 3 to 8) (size 9 to 14) (size 15 to 20)
#    0.000    0.615    4.615    4.615    4.308    2.462 
#    0.000    0.000    0.000    0.000    0.000    0.000 
#    0.000    0.000    0.000    0.000    0.000    0.000 
#
# Total GULP energy -145292.675034 kJ/mol
# GULP energy per Si atom -5588.179809 kJ/mol
# Density = 2.496813 g / cm^3
# Si number density = 25.025086 Si / 1000 Ang^3
#
#
#
# Elastic Constant Matrix: (Units=GPa)
#
#
# Indices 1 2 3 4 5 6 
#
# 1 88.4047 24.4511 44.6454 0.0000 -1.6166 0.0000
# 2 24.4511 130.6929 35.0417 0.0000 -18.4906 0.0000
# 3 44.6454 35.0417 77.8132 0.0000 0.8973 0.0000
# 4 0.0000 0.0000 0.0000 -25.4349 0.0000 -1.7042
# 5 -1.6166 -18.4906 0.8973 0.0000 49.1387 0.0000
# 6 0.0000 0.0000 0.0000 -1.7042 0.0000 33.9242
#
#
#
# Elastic Compliance Matrix: (Units=1/GPa)
#
#
# Indices 1 2 3 4 5 6 
#
# 1 0.015979 -0.000523 -0.008938 0.000000 0.000492 0.000000
# 2 -0.000523 0.009307 -0.003932 0.000000 0.003557 0.000000
# 3 -0.008938 -0.003932 0.019775 0.000000 -0.002135 0.000000
# 4 0.000000 0.000000 0.000000 -0.039184 0.000000 -0.001968
# 5 0.000492 0.003557 -0.002135 0.000000 0.021744 0.000000
# 6 0.000000 0.000000 0.000000 -0.001968 0.000000 0.029379
#
#
# Mechanical properties :
#
#
# Convention : Reuss Voigt Hill
#
# Bulk Modulus (GPa) = 54.72209 56.13191 55.42700
# Shear Modulus (GPa) = 55.63129 24.37710 40.00419
#
# Velocity S-wave (km/s) = 4.72001 3.12445 4.00254
# Velocity P-wave (km/s) = 7.18464 5.95779 6.59978
#
# Compressibility (1/GPa) = 0.01827416
#
# Stress axis : x y z
#
# Youngs Moduli (GPa) = 62.58133 107.44741 50.56950
#
# Poissons Ratio (x) = 0.05624 0.45199
# Poissons Ratio (y) = 0.03276 0.19883
# Poissons Ratio (z) = 0.55936 0.42247
#
# Static dielectric constant tensor:
#      x y z
#    x 1.998290 0.000000 0.085740 
#    y 0.000000 1.965030 0.000000 
#    z 0.085740 0.000000 2.023390 
# 
# From -- ./inp_files/313199.got.cif
#   From: 2010.05.17/outbox.cif.g08.bks.cpg/sg15_157_cif.got.tgz:313199.got - 2010.06.03 18:47:42.
