data_PCOD9291739
_publ_section_title
;
Structure prediction by ZEFSAII (Michael W. Deem and Ramdas Pophale) SiO2 
 PCOD9291739
Probable space group: C 2/C
;
_chemical_formula_sum "Si O2"
_cell_formula_units_Z 40
_cell_length_a 19.535574
_cell_length_b 8.383907
_cell_length_c 16.027548
_cell_angle_alpha 90.000000
_cell_angle_beta 143.361439
_cell_angle_gamma 90.000000
_cell_volume 1566.545793
_symmetry_space_group_name_H-M "C 2/C"
_symmetry_group_IT_number 15
_symmetry_cell_setting 'monoclinic'
loop_
_space_group_symop_operation_xyz
x,y,z
-x,y,1/2-z
-x,-y,-z
x,-y,1/2+z
1/2+x,1/2+y,z
1/2-x,1/2+y,1/2-z
1/2-x,1/2-y,-z
1/2+x,1/2-y,1/2+z
loop_
_atom_site_type_symbol
_atom_site_label
_atom_site_fract_x
_atom_site_fract_y
_atom_site_fract_z
Si Si1 0.043337 0.327284 0.877133
Si Si2 0.242005 0.560171 0.016194
Si Si3 0.894058 0.477877 0.334391
Si Si4 0.339481 0.456397 0.936239
Si Si5 0.546017 0.652294 0.199098
O O1 0.000000 0.241788 0.750000
O O2 0.925546 0.382219 0.801557
O O3 0.124120 0.479577 0.932086
O O4 0.109991 0.220148 0.009275
O O5 0.342533 0.541604 0.182224
O O6 0.250000 0.750000 0.000000
O O7 0.282319 0.475963 0.971615
O O8 0.760986 0.502540 0.226724
O O9 0.000000 0.500000 0.500000
O O10 0.911804 0.313670 0.302441
O O11 0.446287 0.577086 0.045061
O O12 0.500000 0.675899 0.250000
#
# Coordination Sequence:
#
# PCOD9291739 Si02
#       5
#     8   8   8   8   8
#     4  12  23  41  69  98 133 164 212 277 326 374
#     4  11  19  38  70 100 125 164 211 271 323 378
#     4  12  27  44  63  92 134 176 218 260 322 391
#     4  11  24  40  68 100 129 164 219 269 325 383
#     4  10  22  42  70  98 123 168 219 269 322 384
#
# _framework density 25.533885999999999
#
# number of rings (size 3 to 8) (size 9 to 14) (size 15 to 20)
#    0.000    0.800    4.000    5.400    2.800    1.600 
#    0.000    1.000    0.000    0.000    0.000    0.000 
#    0.000    0.000    0.000    0.000    0.000    0.000 
#
# Total GULP energy -111795.056580 kJ/mol
# GULP energy per Si atom -5589.752829 kJ/mol
# Density = 2.547577 g / cm^3
# Si number density = 25.533886 Si / 1000 Ang^3
#
#
#
# Elastic Constant Matrix: (Units=GPa)
#
#
# Indices 1 2 3 4 5 6 
#
# 1 36.2143 10.4380 13.1076 0.0000 6.1230 0.0000
# 2 10.4380 104.5104 39.9562 0.0000 19.6110 0.0000
# 3 13.1076 39.9562 224.6166 0.0000 32.6531 0.0000
# 4 0.0000 0.0000 0.0000 40.2991 0.0000 11.3232
# 5 6.1230 19.6110 32.6531 0.0000 42.3361 0.0000
# 6 0.0000 0.0000 0.0000 11.3232 0.0000 6.5034
#
#
#
# Elastic Compliance Matrix: (Units=1/GPa)
#
#
# Indices 1 2 3 4 5 6 
#
# 1 0.028977 -0.002058 -0.000962 0.000000 -0.002496 0.000000
# 2 -0.002058 0.010976 -0.001280 0.000000 -0.003800 0.000000
# 3 -0.000962 -0.001280 0.005214 0.000000 -0.003289 0.000000
# 4 0.000000 0.000000 0.000000 0.048582 0.000000 -0.084588
# 5 -0.002496 -0.003800 -0.003289 0.000000 0.028279 0.000000
# 6 0.000000 0.000000 0.000000 -0.084588 0.000000 0.301046
#
#
# Mechanical properties :
#
#
# Convention : Reuss Voigt Hill
#
# Bulk Modulus (GPa) = 27.34718 54.70498 41.02608
# Shear Modulus (GPa) = 11.26475 37.95035 24.60755
#
# Velocity S-wave (km/s) = 2.10268 3.85940 3.10775
# Velocity P-wave (km/s) = 4.07780 6.42892 5.38328
#
# Compressibility (1/GPa) = 0.03656684
#
# Stress axis : x y z
#
# Youngs Moduli (GPa) = 34.51047 91.10509 191.78858
#
# Poissons Ratio (x) = 0.18749 0.18452
# Poissons Ratio (y) = 0.07102 0.24551
# Poissons Ratio (z) = 0.03320 0.11662
#
# Static dielectric constant tensor:
#      x y z
#    x 2.010100 0.000000 -0.056080 
#    y 0.000000 2.055400 0.000000 
#    z -0.056080 0.000000 2.161660 
# 
# From -- ./inp_files/218815.got.cif
#   From: 2010.05.17/outbox.cif.g08.bks.cpg/sg15_110_cif.got.tgz:218815.got - 2010.06.03 18:47:42.
