data_PCOD9291062
_publ_section_title
;
Structure prediction by ZEFSAII (Michael W. Deem and Ramdas Pophale) SiO2 
 PCOD9291062
Probable space group: C 2/C
;
_chemical_formula_sum "Si O2"
_cell_formula_units_Z 48
_cell_length_a 18.410991
_cell_length_b 11.096360
_cell_length_c 12.192174
_cell_angle_alpha 90.000000
_cell_angle_beta 129.957141
_cell_angle_gamma 90.000000
_cell_volume 1909.260598
_symmetry_space_group_name_H-M "C 2/C"
_symmetry_group_IT_number 15
_symmetry_cell_setting 'monoclinic'
loop_
_space_group_symop_operation_xyz
x,y,z
-x,y,1/2-z
-x,-y,-z
x,-y,1/2+z
1/2+x,1/2+y,z
1/2-x,1/2+y,1/2-z
1/2-x,1/2-y,-z
1/2+x,1/2-y,1/2+z
loop_
_atom_site_type_symbol
_atom_site_label
_atom_site_fract_x
_atom_site_fract_y
_atom_site_fract_z
Si Si1 0.435366 0.218632 0.394287
Si Si2 0.128316 0.676078 0.495122
Si Si3 0.127404 0.706449 0.943642
Si Si4 0.257766 0.886109 0.595457
Si Si5 0.500000 0.500000 0.500000
Si Si6 0.500000 0.420350 0.750000
Si Si7 0.207984 0.638130 0.811853
O O1 0.515943 0.167887 0.392188
O O2 0.431109 0.156016 0.510503
O O3 0.335628 0.191488 0.238478
O O4 0.460679 0.356443 0.451092
O O5 0.161047 0.811886 0.496393
O O6 0.194836 0.600946 0.478077
O O7 0.158861 0.655505 0.649609
O O8 0.086876 0.829560 0.854198
O O9 0.137918 0.626081 0.846952
O O10 0.226352 0.748539 0.094290
O O11 0.237358 0.011396 0.635386
O O12 0.513678 0.486270 0.647791
#
# Coordination Sequence:
#
# PCOD9291062 Si02
#       7
#     8   8   8   8   4   4   8
#     4  11  24  47  69 106 140 182 241 293 353 436
#     4  11  26  45  67 102 141 179 235 298 352 433
#     4  10  23  45  68 104 138 185 243 286 355 440
#     4  11  27  44  70 104 140 184 239 295 364 426
#     4  10  24  38  76  96 138 180 228 302 360 406
#     4  10  22  42  64 108 132 184 242 296 346 434
#     4  11  24  45  73  96 144 193 228 299 359 431
#
# _framework density 25.140622
#
# number of rings (size 3 to 8) (size 9 to 14) (size 15 to 20)
#    0.000    1.333    1.667    2.500    9.333    2.000 
#    6.000    0.000    0.000    0.000    0.000    0.000 
#    0.000    0.000    0.000    0.000    0.000    0.000 
#
# Total GULP energy -133656.381530 kJ/mol
# GULP energy per Si atom -5569.015897 kJ/mol
# Density = 2.508340 g / cm^3
# Si number density = 25.140622 Si / 1000 Ang^3
#
#
#
# Elastic Constant Matrix: (Units=GPa)
#
#
# Indices 1 2 3 4 5 6 
#
# 1 112.2322 -3.6267 38.4841 0.0000 -24.5775 0.0000
# 2 -3.6267 31.4473 -2.3681 0.0000 -15.8903 0.0000
# 3 38.4841 -2.3681 130.8783 0.0000 -45.1712 0.0000
# 4 0.0000 0.0000 0.0000 -0.2185 0.0000 7.6256
# 5 -24.5775 -15.8903 -45.1712 0.0000 55.8277 0.0000
# 6 0.0000 0.0000 0.0000 7.6256 0.0000 16.2260
#
#
#
# Elastic Compliance Matrix: (Units=1/GPa)
#
#
# Indices 1 2 3 4 5 6 
#
# 1 0.010485 0.003266 -0.001540 0.000000 0.004299 0.000000
# 2 0.003266 0.041888 0.006117 0.000000 0.018310 0.000000
# 3 -0.001540 0.006117 0.011892 0.000000 0.010685 0.000000
# 4 0.000000 0.000000 0.000000 -0.263005 0.000000 0.123602
# 5 0.004299 0.018310 0.010685 0.000000 0.033662 0.000000
# 6 0.000000 0.000000 0.000000 0.123602 0.000000 0.003542
#
#
# Mechanical properties :
#
#
# Convention : Reuss Voigt Hill
#
# Bulk Modulus (GPa) = 12.50765 37.72628 25.11696
# Shear Modulus (GPa) = -33.20713 30.50495 -1.35109
#
# Velocity S-wave (km/s) = -3.63830 3.48713 -0.73388
# Velocity P-wave (km/s) = 3.55862 5.59036 3.04863
#
# Compressibility (1/GPa) = 0.07995108
#
# Stress axis : x y z
#
# Youngs Moduli (GPa) = 95.37205 23.87293 84.08934
#
# Poissons Ratio (x) = -0.07796 0.12951
# Poissons Ratio (y) = -0.31146 -0.51438
# Poissons Ratio (z) = 0.14689 -0.14603
#
# Static dielectric constant tensor:
#      x y z
#    x 2.129080 0.000000 0.043150 
#    y 0.000000 1.981460 0.000000 
#    z 0.043150 0.000000 1.959660 
# 
# From -- ./inp_files/111259.got.cif
#   From: 2010.05.17/outbox.cif.g08.bks.cpg/sg15_56_cif.got.tgz:111259.got - 2010.06.03 18:47:42.
