data_PCOD9291458
_publ_section_title
;
Structure prediction by ZEFSAII (Michael W. Deem and Ramdas Pophale) SiO2 
 PCOD9291458
Probable space group: C 2/C
;
_chemical_formula_sum "Si O2"
_cell_formula_units_Z 24
_cell_length_a 16.033251
_cell_length_b 9.224538
_cell_length_c 9.743491
_cell_angle_alpha 90.000000
_cell_angle_beta 136.607247
_cell_angle_gamma 90.000000
_cell_volume 989.999016
_symmetry_space_group_name_H-M "C 2/C"
_symmetry_group_IT_number 15
_symmetry_cell_setting 'monoclinic'
loop_
_space_group_symop_operation_xyz
x,y,z
-x,y,1/2-z
-x,-y,-z
x,-y,1/2+z
1/2+x,1/2+y,z
1/2-x,1/2+y,1/2-z
1/2-x,1/2-y,-z
1/2+x,1/2-y,1/2+z
loop_
_atom_site_type_symbol
_atom_site_label
_atom_site_fract_x
_atom_site_fract_y
_atom_site_fract_z
Si Si1 0.383218 0.186636 0.207761
Si Si2 0.621238 0.428784 0.096255
Si Si3 0.252406 0.077868 0.489021
O O1 0.500000 0.222017 0.250000
O O2 0.391736 0.263379 0.366343
O O3 0.366103 0.013037 0.182819
O O4 0.250000 0.250000 0.000000
O O5 0.724422 0.512530 0.307077
O O6 0.644648 0.457618 0.966492
O O7 0.500000 0.500000 0.000000
O O8 0.250000 0.250000 0.500000
#
# Coordination Sequence:
#
# PCOD9291458 Si02
#       3
#     8   8   8
#     4  10  22  42  67  98 136 180 225 279 342 409
#     4  11  22  42  67  95 132 177 222 276 339 406
#     4  11  24  42  64  97 133 175 224 279 337 403
#
# _framework density 24.242448
#
# number of rings (size 3 to 8) (size 9 to 14) (size 15 to 20)
#    0.000    1.333    0.000    7.000    0.000    5.333 
#    0.000   10.000    0.000    0.000    0.000    0.000 
#    0.000    0.000    0.000    0.000    0.000    0.000 
#
# Total GULP energy -66928.190623 kJ/mol
# GULP energy per Si atom -5577.349219 kJ/mol
# Density = 2.418727 g / cm^3
# Si number density = 24.242448 Si / 1000 Ang^3
#
#
#
# Elastic Constant Matrix: (Units=GPa)
#
#
# Indices 1 2 3 4 5 6 
#
# 1 142.3981 3.3520 7.5660 0.0000 14.9342 0.0000
# 2 3.3520 175.7651 15.7624 0.0000 13.3732 0.0000
# 3 7.5660 15.7624 32.3430 0.0000 2.8446 0.0000
# 4 0.0000 0.0000 0.0000 31.0668 0.0000 -1.2895
# 5 14.9342 13.3732 2.8446 0.0000 32.8185 0.0000
# 6 0.0000 0.0000 0.0000 -1.2895 0.0000 27.6750
#
#
#
# Elastic Compliance Matrix: (Units=1/GPa)
#
#
# Indices 1 2 3 4 5 6 
#
# 1 0.007452 0.000254 -0.001572 0.000000 -0.003359 0.000000
# 2 0.000254 0.006118 -0.002833 0.000000 -0.002363 0.000000
# 3 -0.001572 -0.002833 0.032752 0.000000 -0.000969 0.000000
# 4 0.000000 0.000000 0.000000 0.032251 0.000000 0.001503
# 5 -0.003359 -0.002363 -0.000969 0.000000 0.033046 0.000000
# 6 0.000000 0.000000 0.000000 0.001503 0.000000 0.036204
#
#
# Mechanical properties :
#
#
# Convention : Reuss Voigt Hill
#
# Bulk Modulus (GPa) = 26.30111 44.87411 35.58761
# Shear Modulus (GPa) = 29.62089 39.90044 34.76066
#
# Velocity S-wave (km/s) = 3.49930 4.06136 3.79076
# Velocity P-wave (km/s) = 5.21532 6.36739 5.81993
#
# Compressibility (1/GPa) = 0.03802121
#
# Stress axis : x y z
#
# Youngs Moduli (GPa) = 134.18606 163.43913 30.53212
#
# Poissons Ratio (x) = -0.04158 0.04799
# Poissons Ratio (y) = -0.03413 0.08651
# Poissons Ratio (z) = 0.21093 0.46310
#
# Static dielectric constant tensor:
#      x y z
#    x 1.893920 0.000000 0.015670 
#    y 0.000000 1.933560 0.000000 
#    z 0.015670 0.000000 2.066910 
# 
# From -- ./inp_files/93906.got.cif
#   From: 2010.05.17/outbox.cif.g08.bks.cpg/sg15_47_cif.got.tgz:93906.got - 2010.06.03 18:47:42.
