data_PCOD9291503
_publ_section_title
;
Structure prediction by ZEFSAII (Michael W. Deem and Ramdas Pophale) SiO2 
 PCOD9291503
Probable space group: C 2/C
;
_chemical_formula_sum "Si O2"
_cell_formula_units_Z 44
_cell_length_a 8.319739
_cell_length_b 34.369767
_cell_length_c 7.504538
_cell_angle_alpha 90.000000
_cell_angle_beta 107.468700
_cell_angle_gamma 90.000000
_cell_volume 2046.937046
_symmetry_space_group_name_H-M "C 2/C"
_symmetry_group_IT_number 15
_symmetry_cell_setting 'monoclinic'
loop_
_space_group_symop_operation_xyz
x,y,z
-x,y,1/2-z
-x,-y,-z
x,-y,1/2+z
1/2+x,1/2+y,z
1/2-x,1/2+y,1/2-z
1/2-x,1/2-y,-z
1/2+x,1/2-y,1/2+z
loop_
_atom_site_type_symbol
_atom_site_label
_atom_site_fract_x
_atom_site_fract_y
_atom_site_fract_z
Si Si1 0.352848 0.289268 0.060899
Si Si2 0.829788 0.369728 0.468052
Si Si3 0.702336 0.037838 0.130495
Si Si4 0.500000 0.320890 0.750000
Si Si5 0.281982 0.878649 0.881077
Si Si6 0.817582 0.545526 0.951763
O O1 0.500000 0.282186 0.250000
O O2 0.250000 0.250000 0.000000
O O3 0.253459 0.328067 0.096550
O O4 0.420956 0.297891 0.885915
O O5 0.804905 0.374391 0.674026
O O6 0.761852 0.411471 0.371583
O O7 0.028942 0.370484 0.488497
O O8 0.783556 0.078058 0.093179
O O9 0.517204 0.039937 0.975994
O O10 0.685381 0.044124 0.335391
O O11 0.772497 0.994397 0.134174
O O12 0.643164 0.347790 0.886415
#
# Coordination Sequence:
#
# PCOD9291503 Si02
#       6
#     8   8   8   4   8   8
#     4  11  26  45  68  95 123 157 202 258 313 379
#     4   8  16  34  58  81 118 155 201 244 307 354
#     4   8  13  23  43  75 108 144 202 234 286 335
#     4  10  22  42  68  88 130 158 198 252 314 364
#     4   8  15  31  59  84 111 165 199 240 295 368
#     4   8  13  24  45  73 107 152 189 245 281 343
#
# _framework density 21.495532000000001
#
# number of rings (size 3 to 8) (size 9 to 14) (size 15 to 20)
#    0.000    3.273    0.000    2.182    5.091    0.727 
#    3.273    0.000    2.000    3.273    0.000    0.000 
#    0.000    0.000    0.000    0.000    0.000    0.000 
#
# Total GULP energy -122481.456823 kJ/mol
# GULP energy per Si atom -5567.338947 kJ/mol
# Density = 2.144661 g / cm^3
# Si number density = 21.495532 Si / 1000 Ang^3
#
#
#
# Elastic Constant Matrix: (Units=GPa)
#
#
# Indices 1 2 3 4 5 6 
#
# 1 59.3953 84.4431 13.2424 0.0000 1.5035 0.0000
# 2 84.4431 251.5714 53.6774 0.0000 13.2671 0.0000
# 3 13.2424 53.6774 41.0902 0.0000 11.7285 0.0000
# 4 0.0000 0.0000 0.0000 26.2726 0.0000 -10.5937
# 5 1.5035 13.2671 11.7285 0.0000 18.9025 0.0000
# 6 0.0000 0.0000 0.0000 -10.5937 0.0000 -97.1866
#
#
#
# Elastic Compliance Matrix: (Units=1/GPa)
#
#
# Indices 1 2 3 4 5 6 
#
# 1 0.033186 -0.012243 0.004374 0.000000 0.003240 0.000000
# 2 -0.012243 0.010036 -0.009032 0.000000 -0.000466 0.000000
# 3 0.004374 -0.009032 0.040121 0.000000 -0.018903 0.000000
# 4 0.000000 0.000000 0.000000 0.036460 0.000000 -0.003974
# 5 0.003240 -0.000466 -0.018903 0.000000 0.064701 0.000000
# 6 0.000000 0.000000 0.000000 -0.003974 0.000000 -0.009856
#
#
# Mechanical properties :
#
#
# Convention : Reuss Voigt Hill
#
# Bulk Modulus (GPa) = 20.18527 72.75360 46.46944
# Shear Modulus (GPa) = 22.22576 2.97730 12.60153
#
# Velocity S-wave (km/s) = 3.21903 1.17817 2.42386
# Velocity P-wave (km/s) = 4.81944 5.98082 5.43126
#
# Compressibility (1/GPa) = 0.04954108
#
# Stress axis : x y z
#
# Youngs Moduli (GPa) = 30.13353 99.63758 24.92444
#
# Poissons Ratio (x) = 1.21990 -0.10903
# Poissons Ratio (y) = 0.36893 0.22512
# Poissons Ratio (z) = -0.13181 0.89993
#
# Static dielectric constant tensor:
#      x y z
#    x 1.795750 0.000000 0.001290 
#    y 0.000000 1.836970 0.000000 
#    z 0.001290 0.000000 1.796820 
# 
# From -- ./inp_files/25478.got.cif
#   From: 2010.05.17/outbox.cif.g08.bks.cpg/sg15_13_cif.got.tgz:25478.got - 2010.06.03 18:47:42.
