data_PCOD9291554
_publ_section_title
;
Structure prediction by ZEFSAII (Michael W. Deem and Ramdas Pophale) SiO2 
 PCOD9291554
Probable space group: C 2/C
;
_chemical_formula_sum "Si O2"
_cell_formula_units_Z 44
_cell_length_a 10.894047
_cell_length_b 22.039552
_cell_length_c 9.813405
_cell_angle_alpha 90.000000
_cell_angle_beta 66.944734
_cell_angle_gamma 90.000000
_cell_volume 2168.002394
_symmetry_space_group_name_H-M "C 2/C"
_symmetry_group_IT_number 15
_symmetry_cell_setting 'monoclinic'
loop_
_space_group_symop_operation_xyz
x,y,z
-x,y,1/2-z
-x,-y,-z
x,-y,1/2+z
1/2+x,1/2+y,z
1/2-x,1/2+y,1/2-z
1/2-x,1/2-y,-z
1/2+x,1/2-y,1/2+z
loop_
_atom_site_type_symbol
_atom_site_label
_atom_site_fract_x
_atom_site_fract_y
_atom_site_fract_z
Si Si1 0.915263 0.146449 0.161890
Si Si2 0.346621 0.927393 0.813675
Si Si3 0.500000 0.123161 0.750000
Si Si4 0.300120 0.769498 0.330740
Si Si5 0.168722 0.546651 0.861331
Si Si6 0.606206 0.359257 0.320936
O O1 0.775046 0.116514 0.177170
O O2 0.878383 0.215191 0.223739
O O3 0.000000 0.117940 0.250000
O O4 0.021564 0.141957 0.995210
O O5 0.500000 0.902767 0.750000
O O6 0.340060 0.981811 0.706937
O O7 0.322290 0.951385 0.979198
O O8 0.618138 0.169685 0.672003
O O9 0.538352 0.082404 0.862282
O O10 0.250000 0.750000 0.500000
O O11 0.185712 0.795721 0.282927
O O12 0.292311 0.584840 0.744768
O O13 0.500000 0.363061 0.250000
#
# Coordination Sequence:
#
# PCOD9291554 Si02
#       6
#     8   8   4   8   8   8
#     4  12  26  46  71 107 142 192 239 287 363 425
#     4  12  28  46  72 106 145 185 245 295 358 428
#     4  10  22  42  68  96 140 178 236 284 346 420
#     4  11  22  41  71  98 138 189 232 284 352 430
#     4  11  26  45  73 102 139 189 235 300 358 417
#     4  11  24  46  67 103 144 177 239 298 358 417
#
# _framework density 20.295179999999998
#
# number of rings (size 3 to 8) (size 9 to 14) (size 15 to 20)
#    0.000    0.727    5.455    0.545    5.091    2.909 
#    0.000    0.000    0.000    0.000    0.000    0.000 
#    0.000    0.000    0.000    0.000    0.000    0.000 
#
# Total GULP energy -122754.732090 kJ/mol
# GULP energy per Si atom -5579.760550 kJ/mol
# Density = 2.024899 g / cm^3
# Si number density = 20.295180 Si / 1000 Ang^3
#
#
#
# Elastic Constant Matrix: (Units=GPa)
#
#
# Indices 1 2 3 4 5 6 
#
# 1 144.7939 43.5115 32.9235 0.0000 8.9637 0.0000
# 2 43.5115 69.1209 15.2059 0.0000 1.6735 0.0000
# 3 32.9235 15.2059 112.7029 0.0000 0.7960 0.0000
# 4 0.0000 0.0000 0.0000 5.9583 0.0000 -2.2648
# 5 8.9637 1.6735 0.7960 0.0000 39.3165 0.0000
# 6 0.0000 0.0000 0.0000 -2.2648 0.0000 33.7254
#
#
#
# Elastic Compliance Matrix: (Units=1/GPa)
#
#
# Indices 1 2 3 4 5 6 
#
# 1 0.009020 -0.005213 -0.001919 0.000000 -0.001796 0.000000
# 2 -0.005213 0.017936 -0.000900 0.000000 0.000443 0.000000
# 3 -0.001919 -0.000900 0.009553 0.000000 0.000282 0.000000
# 4 0.000000 0.000000 0.000000 0.172229 0.000000 0.011566
# 5 -0.001796 0.000443 0.000282 0.000000 0.025819 0.000000
# 6 0.000000 0.000000 0.000000 0.011566 0.000000 0.030428
#
#
# Mechanical properties :
#
#
# Convention : Reuss Voigt Hill
#
# Bulk Modulus (GPa) = 48.91103 56.65550 52.78327
# Shear Modulus (GPa) = 17.36924 31.46515 24.41719
#
# Velocity S-wave (km/s) = 2.92863 3.94175 3.47234
# Velocity P-wave (km/s) = 5.96557 6.97803 6.49157
#
# Compressibility (1/GPa) = 0.02044528
#
# Stress axis : x y z
#
# Youngs Moduli (GPa) = 110.86061 55.75358 104.67932
#
# Poissons Ratio (x) = 0.29062 0.20089
# Poissons Ratio (y) = 0.57787 0.09425
# Poissons Ratio (z) = 0.21275 0.05020
#
# Static dielectric constant tensor:
#      x y z
#    x 1.770200 0.000000 0.014430 
#    y 0.000000 1.720590 0.000000 
#    z 0.014430 0.000000 1.643220 
# 
# From -- ./inp_files/30700.got.cif
#   From: 2010.05.17/outbox.cif.g08.bks.cpg/sg15_16_cif.got.tgz:30700.got - 2010.06.03 18:47:42.
