data_PCOD9291325
_publ_section_title
;
Structure prediction by ZEFSAII (Michael W. Deem and Ramdas Pophale) SiO2 
 PCOD9291325
Probable space group: C 2/C
;
_chemical_formula_sum "Si O2"
_cell_formula_units_Z 60
_cell_length_a 17.568930
_cell_length_b 9.430065
_cell_length_c 18.707906
_cell_angle_alpha 90.000000
_cell_angle_beta 91.180284
_cell_angle_gamma 90.000000
_cell_volume 3098.796267
_symmetry_space_group_name_H-M "C 2/C"
_symmetry_group_IT_number 15
_symmetry_cell_setting 'monoclinic'
loop_
_space_group_symop_operation_xyz
x,y,z
-x,y,1/2-z
-x,-y,-z
x,-y,1/2+z
1/2+x,1/2+y,z
1/2-x,1/2+y,1/2-z
1/2-x,1/2-y,-z
1/2+x,1/2-y,1/2+z
loop_
_atom_site_type_symbol
_atom_site_label
_atom_site_fract_x
_atom_site_fract_y
_atom_site_fract_z
Si Si1 0.279742 0.402504 0.025843
Si Si2 0.551982 0.482447 0.431151
Si Si3 0.223093 0.426418 0.653787
Si Si4 0.270744 0.397717 0.389673
Si Si5 0.872719 0.457013 0.216150
Si Si6 0.000000 0.349484 0.750000
Si Si7 0.427295 0.411246 0.316044
Si Si8 0.108626 0.136966 0.301636
O O1 0.369811 0.403149 0.047216
O O2 0.234574 0.452871 0.094969
O O3 0.250000 0.250000 0.000000
O O4 0.267919 0.523797 0.965450
O O5 0.500000 0.500000 0.500000
O O6 0.495512 0.410806 0.373925
O O7 0.579414 0.617325 0.383167
O O8 0.217398 0.273598 0.613410
O O9 0.163132 0.479489 0.711535
O O10 0.302843 0.404825 0.695795
O O11 0.195834 0.443550 0.343085
O O12 0.348785 0.444976 0.353957
O O13 0.947224 0.550696 0.199353
O O14 0.900259 0.295711 0.225630
O O15 0.062196 0.242930 0.717841
O O16 0.427295 0.525246 0.252910
#
# Coordination Sequence:
#
# PCOD9291325 Si02
#       8
#     8   8   8   8   8   4   8   8
#     4  11  26  41  65  94 130 175 230 277 327 406
#     4  11  23  41  64  95 130 174 224 270 339 399
#     4  10  22  42  66  95 129 174 219 275 334 403
#     4  11  23  43  66  92 133 177 214 272 340 399
#     4  11  25  41  68 102 133 167 228 282 338 397
#     4  12  26  40  66 102 136 164 222 290 338 394
#     4  12  22  40  67  93 128 175 214 274 336 397
#     4  10  23  41  68  96 129 175 222 276 331 407
#
# _framework density 19.362356999999999
#
# number of rings (size 3 to 8) (size 9 to 14) (size 15 to 20)
#    0.000    1.067    5.333    0.400    5.600    0.000 
#    0.000    0.000    0.000    2.400    0.000    0.000 
#    0.000    0.000    0.000    0.000    0.000    0.000 
#
# Total GULP energy -167079.832228 kJ/mol
# GULP energy per Si atom -5569.327741 kJ/mol
# Density = 1.931829 g / cm^3
# Si number density = 19.362357 Si / 1000 Ang^3
#
#
#
# Elastic Constant Matrix: (Units=GPa)
#
#
# Indices 1 2 3 4 5 6 
#
# 1 80.5582 33.8560 26.7776 0.0000 7.6107 0.0000
# 2 33.8560 127.7301 49.3837 0.0000 14.5379 0.0000
# 3 26.7776 49.3837 75.9037 0.0000 2.7960 0.0000
# 4 0.0000 0.0000 0.0000 25.0982 0.0000 7.0392
# 5 7.6107 14.5379 2.7960 0.0000 36.2008 0.0000
# 6 0.0000 0.0000 0.0000 7.0392 0.0000 34.7875
#
#
#
# Elastic Compliance Matrix: (Units=1/GPa)
#
#
# Indices 1 2 3 4 5 6 
#
# 1 0.014768 -0.002285 -0.003653 0.000000 -0.001905 0.000000
# 2 -0.002285 0.011328 -0.006433 0.000000 -0.003572 0.000000
# 3 -0.003653 -0.006433 0.018578 0.000000 0.001916 0.000000
# 4 0.000000 0.000000 0.000000 0.042241 0.000000 -0.008547
# 5 -0.001905 -0.003572 0.001916 0.000000 0.029311 0.000000
# 6 0.000000 0.000000 0.000000 -0.008547 0.000000 0.030475
#
#
# Mechanical properties :
#
#
# Convention : Reuss Voigt Hill
#
# Bulk Modulus (GPa) = 50.16900 56.02518 53.09709
# Shear Modulus (GPa) = 28.07623 30.82894 29.45258
#
# Velocity S-wave (km/s) = 3.81207 3.99458 3.90439
# Velocity P-wave (km/s) = 6.73370 7.09038 6.91434
#
# Compressibility (1/GPa) = 0.01993263
#
# Stress axis : x y z
#
# Youngs Moduli (GPa) = 67.71392 88.27473 53.82781
#
# Poissons Ratio (x) = 0.20173 0.19663
# Poissons Ratio (y) = 0.15474 0.34625
# Poissons Ratio (z) = 0.24736 0.56783
#
# Static dielectric constant tensor:
#      x y z
#    x 1.703690 0.000000 -0.020720 
#    y 0.000000 1.710240 0.000000 
#    z -0.020720 0.000000 1.673410 
# 
# From -- ./inp_files/209591.got.cif
#   From: 2010.05.17/outbox.cif.g08.bks.cpg/sg15_105_cif.got.tgz:209591.got - 2010.06.03 18:47:42.
