data_PCOD9291557
_publ_section_title
;
Structure prediction by ZEFSAII (Michael W. Deem and Ramdas Pophale) SiO2 
 PCOD9291557
Probable space group: C 2/C
;
_chemical_formula_sum "Si O2"
_cell_formula_units_Z 56
_cell_length_a 5.549881
_cell_length_b 22.831622
_cell_length_c 18.700386
_cell_angle_alpha 90.000000
_cell_angle_beta 84.945201
_cell_angle_gamma 90.000000
_cell_volume 2360.362431
_symmetry_space_group_name_H-M "C 2/C"
_symmetry_group_IT_number 15
_symmetry_cell_setting 'monoclinic'
loop_
_space_group_symop_operation_xyz
x,y,z
-x,y,1/2-z
-x,-y,-z
x,-y,1/2+z
1/2+x,1/2+y,z
1/2-x,1/2+y,1/2-z
1/2-x,1/2-y,-z
1/2+x,1/2-y,1/2+z
loop_
_atom_site_type_symbol
_atom_site_label
_atom_site_fract_x
_atom_site_fract_y
_atom_site_fract_z
Si Si1 0.089909 0.934567 0.086921
Si Si2 0.568308 0.201776 0.474145
Si Si3 0.500000 0.726197 0.750000
Si Si4 0.410754 0.622518 0.369452
Si Si5 0.500000 0.709550 0.250000
Si Si6 0.735588 0.036585 0.058199
Si Si7 0.167672 0.808210 0.096280
Si Si8 0.336723 0.015668 0.184217
O O1 0.018868 0.867020 0.081958
O O2 0.180027 0.959943 0.161069
O O3 0.299034 0.948750 0.023398
O O4 0.875246 0.975793 0.066186
O O5 0.750000 0.250000 0.500000
O O6 0.704183 0.153190 0.423410
O O7 0.416298 0.180408 0.546876
O O8 0.403634 0.243290 0.427926
O O9 0.260401 0.759965 0.726913
O O10 0.367087 0.692497 0.817884
O O11 0.544085 0.672151 0.320374
O O12 0.590220 0.587488 0.416045
O O13 0.320659 0.574858 0.313230
O O14 0.510111 0.032392 0.114541
O O15 0.500000 0.006275 0.250000
#
# Coordination Sequence:
#
# PCOD9291557 Si02
#       8
#     8   8   4   8   4   8   8   8
#     4  10  23  43  65  96 132 183 231 291 355 438
#     4  11  23  42  67 101 132 182 238 293 357 437
#     4  12  28  48  67 106 145 196 238 300 364 450
#     4  11  23  39  70 101 138 181 234 306 363 429
#     4  12  26  46  71 104 149 186 244 300 376 428
#     4  10  22  42  68  97 133 174 236 293 363 430
#     4  11  25  43  68  95 140 182 240 290 359 432
#     4  11  24  40  65 102 135 178 232 293 369 435
#
# _framework density 23.725169000000001
#
# number of rings (size 3 to 8) (size 9 to 14) (size 15 to 20)
#    0.000    1.143    1.429    3.857    3.000    8.571 
#    1.286    0.000    0.000    0.000    0.000    0.000 
#    0.000    0.000    0.000    0.000    0.000    0.000 
#
# Total GULP energy -156276.342935 kJ/mol
# GULP energy per Si atom -5581.297962 kJ/mol
# Density = 2.367117 g / cm^3
# Si number density = 23.725169 Si / 1000 Ang^3
#
#
#
# Elastic Constant Matrix: (Units=GPa)
#
#
# Indices 1 2 3 4 5 6 
#
# 1 61.3730 31.9763 20.9927 0.0000 -6.6207 0.0000
# 2 31.9763 103.8940 31.9273 0.0000 -6.8254 0.0000
# 3 20.9927 31.9273 126.4963 0.0000 -13.6189 0.0000
# 4 0.0000 0.0000 0.0000 14.5891 0.0000 -5.0038
# 5 -6.6207 -6.8254 -13.6189 0.0000 51.4529 0.0000
# 6 0.0000 0.0000 0.0000 -5.0038 0.0000 18.4763
#
#
#
# Elastic Compliance Matrix: (Units=1/GPa)
#
#
# Indices 1 2 3 4 5 6 
#
# 1 0.019909 -0.005494 -0.001770 0.000000 0.001364 0.000000
# 2 -0.005494 0.011976 -0.002075 0.000000 0.000332 0.000000
# 3 -0.001770 -0.002075 0.008923 0.000000 0.001859 0.000000
# 4 0.000000 0.000000 0.000000 0.075563 0.000000 0.020464
# 5 0.001364 0.000332 0.001859 0.000000 0.020147 0.000000
# 6 0.000000 0.000000 0.000000 0.020464 0.000000 0.059665
#
#
# Mechanical properties :
#
#
# Convention : Reuss Voigt Hill
#
# Bulk Modulus (GPa) = 45.18988 51.28396 48.23692
# Shear Modulus (GPa) = 22.49836 30.69479 26.59658
#
# Velocity S-wave (km/s) = 3.08277 3.60080 3.35181
# Velocity P-wave (km/s) = 5.63559 6.24103 5.94602
#
# Compressibility (1/GPa) = 0.02212885
#
# Stress axis : x y z
#
# Youngs Moduli (GPa) = 50.22863 83.50312 112.06938
#
# Poissons Ratio (x) = 0.45875 0.19842
# Poissons Ratio (y) = 0.27595 0.23255
# Poissons Ratio (z) = 0.08893 0.17328
#
# Static dielectric constant tensor:
#      x y z
#    x 2.009760 0.000000 -0.011490 
#    y 0.000000 1.938110 0.000000 
#    z -0.011490 0.000000 1.935260 
# 
# From -- ./inp_files/227892.got.cif
#   From: 2010.05.17/outbox.cif.g08.bks.cpg/sg15_114_cif.got.tgz:227892.got - 2010.06.03 18:47:42.
