data_PCOD9291725
_publ_section_title
;
Structure prediction by ZEFSAII (Michael W. Deem and Ramdas Pophale) SiO2 
 PCOD9291725
Probable space group: C 2/C
;
_chemical_formula_sum "Si O2"
_cell_formula_units_Z 52
_cell_length_a 13.633264
_cell_length_b 15.299730
_cell_length_c 13.007415
_cell_angle_alpha 90.000000
_cell_angle_beta 66.829777
_cell_angle_gamma 90.000000
_cell_volume 2494.311796
_symmetry_space_group_name_H-M "C 2/C"
_symmetry_group_IT_number 15
_symmetry_cell_setting 'monoclinic'
loop_
_space_group_symop_operation_xyz
x,y,z
-x,y,1/2-z
-x,-y,-z
x,-y,1/2+z
1/2+x,1/2+y,z
1/2-x,1/2+y,1/2-z
1/2-x,1/2-y,-z
1/2+x,1/2-y,1/2+z
loop_
_atom_site_type_symbol
_atom_site_label
_atom_site_fract_x
_atom_site_fract_y
_atom_site_fract_z
Si Si1 0.399335 0.039239 0.476828
Si Si2 0.198757 0.046446 0.131764
Si Si3 0.889939 0.206959 0.657922
Si Si4 0.000000 0.644615 0.250000
Si Si5 0.695704 0.908688 0.290631
Si Si6 0.500000 0.138835 0.750000
Si Si7 0.000000 0.067428 0.750000
Si Si8 0.129512 0.776931 0.569289
O O1 0.435489 0.085200 0.358027
O O2 0.345451 0.109519 0.576557
O O3 0.500000 0.000000 0.500000
O O4 0.300971 0.968799 0.513693
O O5 0.148380 0.141499 0.138487
O O6 0.095866 0.986032 0.159751
O O7 0.246619 0.996642 0.717548
O O8 0.923872 0.293140 0.709027
O O9 0.769184 0.170840 0.723163
O O10 0.955498 0.129240 0.681013
O O11 0.914095 0.207856 0.527420
O O12 0.592520 0.916412 0.263620
O O13 0.557295 0.202331 0.646552
O O14 0.250000 0.750000 0.500000
#
# Coordination Sequence:
#
# PCOD9291725 Si02
#       8
#     8   8   8   4   8   4   4   8
#     4  10  24  41  64  97 132 175 226 272 334 406
#     4   9  23  43  65  95 131 175 224 281 328 412
#     4  10  22  42  70  96 133 173 217 284 337 403
#     4  11  24  43  67  99 138 176 218 285 337 402
#     4   9  22  42  66  95 131 174 225 271 339 402
#     4  12  23  39  69  99 134 184 218 290 334 410
#     4   9  19  48  68  94 130 168 228 273 341 400
#     4  12  25  41  66  96 136 172 225 273 343 392
#
# _framework density 20.847432999999999
#
# number of rings (size 3 to 8) (size 9 to 14) (size 15 to 20)
#    0.923    0.923    1.538    1.385    4.308    3.077 
#    2.769    0.000    0.000    0.000    0.000    0.000 
#    0.000    0.000    0.000    0.000    0.000    0.000 
#
# Total GULP energy -144764.609112 kJ/mol
# GULP energy per Si atom -5567.869581 kJ/mol
# Density = 2.079998 g / cm^3
# Si number density = 20.847433 Si / 1000 Ang^3
#
#
#
# Elastic Constant Matrix: (Units=GPa)
#
#
# Indices 1 2 3 4 5 6 
#
# 1 101.1714 26.2598 6.8301 0.0000 -0.4721 0.0000
# 2 26.2598 73.5798 20.9217 0.0000 7.6356 0.0000
# 3 6.8301 20.9217 78.2074 0.0000 -0.0214 0.0000
# 4 0.0000 0.0000 0.0000 33.3482 0.0000 -4.1041
# 5 -0.4721 7.6356 -0.0214 0.0000 31.6603 0.0000
# 6 0.0000 0.0000 0.0000 -4.1041 0.0000 7.9778
#
#
#
# Elastic Compliance Matrix: (Units=1/GPa)
#
#
# Indices 1 2 3 4 5 6 
#
# 1 0.010934 -0.004058 0.000131 0.000000 0.001142 0.000000
# 2 -0.004058 0.016626 -0.004094 0.000000 -0.004073 0.000000
# 3 0.000131 -0.004094 0.013871 0.000000 0.000999 0.000000
# 4 0.000000 0.000000 0.000000 0.032013 0.000000 0.016469
# 5 0.001142 -0.004073 0.000999 0.000000 0.032585 0.000000
# 6 0.000000 0.000000 0.000000 0.016469 0.000000 0.133820
#
#
# Mechanical properties :
#
#
# Convention : Reuss Voigt Hill
#
# Bulk Modulus (GPa) = 39.38912 40.10909 39.74911
# Shear Modulus (GPa) = 18.91398 27.86039 23.38719
#
# Velocity S-wave (km/s) = 3.01534 3.65964 3.35300
# Velocity P-wave (km/s) = 5.57297 6.09413 5.83937
#
# Compressibility (1/GPa) = 0.02538772
#
# Stress axis : x y z
#
# Youngs Moduli (GPa) = 91.45803 60.14756 72.09464
#
# Poissons Ratio (x) = 0.24408 -0.00944
# Poissons Ratio (y) = 0.37113 0.29518
# Poissons Ratio (z) = -0.01198 0.24627
#
# Static dielectric constant tensor:
#      x y z
#    x 1.833530 0.000000 -0.071080 
#    y 0.000000 1.781940 0.000000 
#    z -0.071080 0.000000 1.607970 
# 
# From -- ./inp_files/98233.got.cif
#   From: 2010.05.17/outbox.cif.g08.bks.cpg/sg15_50_cif.got.tgz:98233.got - 2010.06.03 18:47:42.
