data_PCOD9291387
_publ_section_title
;
Structure prediction by ZEFSAII (Michael W. Deem and Ramdas Pophale) SiO2 
 PCOD9291387
Probable space group: C 2/C
;
_chemical_formula_sum "Si O2"
_cell_formula_units_Z 64
_cell_length_a 29.956942
_cell_length_b 14.146915
_cell_length_c 11.724874
_cell_angle_alpha 90.000000
_cell_angle_beta 148.572384
_cell_angle_gamma 90.000000
_cell_volume 2590.931338
_symmetry_space_group_name_H-M "C 2/C"
_symmetry_group_IT_number 15
_symmetry_cell_setting 'monoclinic'
loop_
_space_group_symop_operation_xyz
x,y,z
-x,y,1/2-z
-x,-y,-z
x,-y,1/2+z
1/2+x,1/2+y,z
1/2-x,1/2+y,1/2-z
1/2-x,1/2-y,-z
1/2+x,1/2-y,1/2+z
loop_
_atom_site_type_symbol
_atom_site_label
_atom_site_fract_x
_atom_site_fract_y
_atom_site_fract_z
Si Si1 0.101629 0.785754 0.687849
Si Si2 0.930871 0.255255 0.961954
Si Si3 0.118327 0.634058 0.522574
Si Si4 0.717471 0.993276 0.587009
Si Si5 0.179033 0.274573 0.570970
Si Si6 0.580049 0.975075 0.597813
Si Si7 0.140276 0.212698 0.916970
Si Si8 0.590383 0.448370 0.480280
O O1 0.124566 0.707129 0.642290
O O2 0.083757 0.879736 0.576195
O O3 0.018990 0.766557 0.587302
O O4 0.175999 0.781392 0.944920
O O5 0.898595 0.236131 0.019328
O O6 0.924208 0.367919 0.947685
O O7 0.863732 0.210616 0.726287
O O8 0.192662 0.573172 0.623888
O O9 0.071228 0.546826 0.476028
O O10 0.083548 0.700318 0.344277
O O11 0.683461 0.887880 0.550395
O O12 0.819907 0.999044 0.801950
O O13 0.667393 0.011286 0.359953
O O14 0.266141 0.264537 0.831382
O O15 0.500000 0.000000 0.500000
O O16 0.108810 0.119189 0.911391
O O17 0.500000 0.497120 0.250000
#
# Coordination Sequence:
#
# PCOD9291387 Si02
#       8
#     8   8   8   8   8   8   8   8
#     4  11  23  38  65  94 129 170 210 263 321 385
#     4  12  21  38  60  92 132 167 206 255 325 393
#     4  11  22  38  60  92 126 163 207 253 322 395
#     4  11  23  38  60  94 126 170 210 263 324 382
#     4  11  23  38  56  94 128 165 210 263 314 383
#     4  12  23  35  58  95 134 164 193 255 324 402
#     4  10  23  37  62  89 120 170 210 262 320 377
#     4  10  22  42  67  89 120 166 231 272 313 376
#
# _framework density 24.701543000000001
#
# number of rings (size 3 to 8) (size 9 to 14) (size 15 to 20)
#    0.000    1.000    6.250    0.750    1.750    3.000 
#    0.000    0.000    0.000    2.250    0.000    0.000 
#    0.000    0.000    0.000    0.000    0.000    0.000 
#
# Total GULP energy -178741.736674 kJ/mol
# GULP energy per Si atom -5585.679271 kJ/mol
# Density = 2.464532 g / cm^3
# Si number density = 24.701543 Si / 1000 Ang^3
#
#
#
# Elastic Constant Matrix: (Units=GPa)
#
#
# Indices 1 2 3 4 5 6 
#
# 1 122.9927 7.8167 55.2175 0.0000 -13.6194 0.0000
# 2 7.8167 24.6575 0.8432 0.0000 -0.6274 0.0000
# 3 55.2175 0.8432 148.5209 0.0000 6.9978 0.0000
# 4 0.0000 0.0000 0.0000 7.5098 0.0000 20.9267
# 5 -13.6194 -0.6274 6.9978 0.0000 46.6815 0.0000
# 6 0.0000 0.0000 0.0000 20.9267 0.0000 4.4439
#
#
#
# Elastic Compliance Matrix: (Units=1/GPa)
#
#
# Indices 1 2 3 4 5 6 
#
# 1 0.010566 -0.003117 -0.004083 0.000000 0.003653 0.000000
# 2 -0.003117 0.041499 0.000946 0.000000 -0.000494 0.000000
# 3 -0.004083 0.000946 0.008360 0.000000 -0.002432 0.000000
# 4 0.000000 0.000000 0.000000 -0.010985 0.000000 0.051728
# 5 0.003653 -0.000494 -0.002432 0.000000 0.022845 0.000000
# 6 0.000000 0.000000 0.000000 0.051728 0.000000 -0.018563
#
#
# Mechanical properties :
#
#
# Convention : Reuss Voigt Hill
#
# Bulk Modulus (GPa) = 20.86874 47.10289 33.98581
# Shear Modulus (GPa) = 60.82611 27.21329 44.01970
#
# Velocity S-wave (km/s) = 4.96768 3.32276 4.22603
# Velocity P-wave (km/s) = 6.43199 5.81646 6.13195
#
# Compressibility (1/GPa) = 0.04791857
#
# Stress axis : x y z
#
# Youngs Moduli (GPa) = 94.64252 24.09709 119.61532
#
# Poissons Ratio (x) = 0.07511 0.48835
# Poissons Ratio (y) = 0.29500 -0.11321
# Poissons Ratio (z) = 0.38640 -0.02281
#
# Static dielectric constant tensor:
#      x y z
#    x 1.994470 0.000000 0.088590 
#    y 0.000000 1.949850 0.000000 
#    z 0.088590 0.000000 2.130130 
# 
# From -- ./inp_files/127313.got.cif
#   From: 2010.05.17/outbox.cif.g08.bks.cpg/sg15_64_cif.got.tgz:127313.got - 2010.06.03 18:47:42.
