data_PCOD9291005
_publ_section_title
;
Structure prediction by ZEFSAII (Michael W. Deem and Ramdas Pophale) SiO2 
 PCOD9291005
Probable space group: C 2/C
;
_chemical_formula_sum "Si O2"
_cell_formula_units_Z 60
_cell_length_a 11.639468
_cell_length_b 7.709350
_cell_length_c 29.301284
_cell_angle_alpha 90.000000
_cell_angle_beta 93.025514
_cell_angle_gamma 90.000000
_cell_volume 2625.619403
_symmetry_space_group_name_H-M "C 2/C"
_symmetry_group_IT_number 15
_symmetry_cell_setting 'monoclinic'
loop_
_space_group_symop_operation_xyz
x,y,z
-x,y,1/2-z
-x,-y,-z
x,-y,1/2+z
1/2+x,1/2+y,z
1/2-x,1/2+y,1/2-z
1/2-x,1/2-y,-z
1/2+x,1/2-y,1/2+z
loop_
_atom_site_type_symbol
_atom_site_label
_atom_site_fract_x
_atom_site_fract_y
_atom_site_fract_z
Si Si1 0.942919 0.128344 0.663531
Si Si2 0.530177 0.534012 0.936504
Si Si3 0.979042 0.467668 0.144594
Si Si4 0.054415 0.451446 0.953242
Si Si5 0.797973 0.473030 0.299302
Si Si6 0.803227 0.936369 0.985323
Si Si7 0.804965 0.310969 0.205231
Si Si8 0.500000 0.435870 0.750000
O O1 0.964395 0.327973 0.653548
O O2 0.811630 0.110467 0.678377
O O3 0.958908 0.018507 0.617528
O O4 0.019859 0.055120 0.706292
O O5 0.531845 0.744052 0.946017
O O6 0.414280 0.447145 0.954230
O O7 0.642462 0.475194 0.968040
O O8 0.998504 0.450302 0.091281
O O9 0.863289 0.383848 0.161437
O O10 0.085010 0.400849 0.177026
O O11 0.189057 0.505775 0.958388
O O12 0.000000 0.500000 0.000000
O O13 0.786640 0.448896 0.244705
O O14 0.795212 0.678414 0.308728
O O15 0.750000 0.750000 0.000000
O O16 0.897198 0.185061 0.231776
#
# Coordination Sequence:
#
# PCOD9291005 Si02
#       8
#     8   8   8   8   8   8   8   4
#     4  10  24  41  65  97 128 175 222 265 336 393
#     4   9  20  43  64  94 128 169 218 271 326 404
#     4  11  24  44  66  94 135 173 219 277 330 400
#     4  10  23  41  63  98 127 168 216 271 339 392
#     4  11  24  41  65  96 130 175 219 270 328 397
#     4   9  19  41  66  92 125 167 215 268 329 390
#     4  11  23  43  64  96 132 173 223 269 331 398
#     4  10  22  42  62  98 130 166 218 270 324 400
#
# _framework density 22.851749999999999
#
# number of rings (size 3 to 8) (size 9 to 14) (size 15 to 20)
#    0.000    1.867    1.333    0.800    7.467    2.667 
#   21.600    0.000    0.000    0.000    0.000    0.000 
#    0.000    0.000    0.000    0.000    0.000    0.000 
#
# Total GULP energy -167472.971142 kJ/mol
# GULP energy per Si atom -5582.432371 kJ/mol
# Density = 2.279974 g / cm^3
# Si number density = 22.851750 Si / 1000 Ang^3
#
#
#
# Elastic Constant Matrix: (Units=GPa)
#
#
# Indices 1 2 3 4 5 6 
#
# 1 89.1659 18.9310 10.9543 0.0000 -9.1074 0.0000
# 2 18.9310 48.0263 19.9309 0.0000 -6.1222 0.0000
# 3 10.9543 19.9309 145.1672 0.0000 -17.8063 0.0000
# 4 0.0000 0.0000 0.0000 26.5995 0.0000 -10.8829
# 5 -9.1074 -6.1222 -17.8063 0.0000 29.9702 0.0000
# 6 0.0000 0.0000 0.0000 -10.8829 0.0000 34.7118
#
#
#
# Elastic Compliance Matrix: (Units=1/GPa)
#
#
# Indices 1 2 3 4 5 6 
#
# 1 0.012474 -0.004566 0.000039 0.000000 0.002881 0.000000
# 2 -0.004566 0.023991 -0.002716 0.000000 0.001899 0.000000
# 3 0.000039 -0.002716 0.007757 0.000000 0.004066 0.000000
# 4 0.000000 0.000000 0.000000 0.043127 0.000000 0.013521
# 5 0.002881 0.001899 0.004066 0.000000 0.037046 0.000000
# 6 0.000000 0.000000 0.000000 0.013521 0.000000 0.033048
#
#
# Mechanical properties :
#
#
# Convention : Reuss Voigt Hill
#
# Bulk Modulus (GPa) = 33.62942 42.44353 38.03648
# Shear Modulus (GPa) = 27.49650 33.75917 30.62783
#
# Velocity S-wave (km/s) = 3.47256 3.84775 3.66496
# Velocity P-wave (km/s) = 5.55216 6.19306 5.88135
#
# Compressibility (1/GPa) = 0.02973587
#
# Stress axis : x y z
#
# Youngs Moduli (GPa) = 80.16717 41.68203 128.91029
#
# Poissons Ratio (x) = 0.19032 -0.00503
# Poissons Ratio (y) = 0.36604 0.35017
# Poissons Ratio (z) = -0.00313 0.11322
#
# Static dielectric constant tensor:
#      x y z
#    x 1.884980 0.000000 0.007880 
#    y 0.000000 1.921990 0.000000 
#    z 0.007880 0.000000 1.874070 
# 
# From -- ./inp_files/291568.got.cif
#   From: 2010.05.17/outbox.cif.g08.bks.cpg/sg15_146_cif.got.tgz:291568.got - 2010.06.03 18:47:42.
