data_PCOD9291637
_publ_section_title
;
Structure prediction by ZEFSAII (Michael W. Deem and Ramdas Pophale) SiO2 
 PCOD9291637
Probable space group: C 2/C
;
_chemical_formula_sum "Si O2"
_cell_formula_units_Z 48
_cell_length_a 10.097163
_cell_length_b 11.381750
_cell_length_c 19.521979
_cell_angle_alpha 90.000000
_cell_angle_beta 58.862150
_cell_angle_gamma 90.000000
_cell_volume 1920.296557
_symmetry_space_group_name_H-M "C 2/C"
_symmetry_group_IT_number 15
_symmetry_cell_setting 'monoclinic'
loop_
_space_group_symop_operation_xyz
x,y,z
-x,y,1/2-z
-x,-y,-z
x,-y,1/2+z
1/2+x,1/2+y,z
1/2-x,1/2+y,1/2-z
1/2-x,1/2-y,-z
1/2+x,1/2-y,1/2+z
loop_
_atom_site_type_symbol
_atom_site_label
_atom_site_fract_x
_atom_site_fract_y
_atom_site_fract_z
Si Si1 0.366960 0.387309 0.926015
Si Si2 0.631165 0.045559 0.847515
Si Si3 0.682902 0.864198 0.109578
Si Si4 0.400749 0.577444 0.676690
Si Si5 0.141618 0.768942 0.936894
Si Si6 0.032288 0.306799 0.612211
O O1 0.310623 0.278613 0.894314
O O2 0.442475 0.502030 0.872435
O O3 0.513854 0.334863 0.927485
O O4 0.237803 0.406654 0.018937
O O5 0.496192 0.100934 0.835410
O O6 0.788752 0.028445 0.764487
O O7 0.652819 0.138115 0.902804
O O8 0.561142 0.920305 0.884778
O O9 0.798538 0.915778 0.134594
O O10 0.437816 0.713548 0.681884
O O11 0.307135 0.831948 0.892246
O O12 0.082613 0.761661 0.030162
#
# Coordination Sequence:
#
# PCOD9291637 Si02
#       6
#     8   8   8   8   8   8
#     4  10  22  42  70  99 133 173 234 282 323 411
#     4  11  26  43  66  97 142 177 222 284 347 408
#     4  10  22  42  69  97 128 180 228 274 334 405
#     4  12  25  42  67 103 137 176 222 288 350 396
#     4  10  23  45  70  98 130 179 232 275 333 415
#     4  11  25  42  70  98 132 180 227 277 342 410
#
# _framework density 24.99614
#
# number of rings (size 3 to 8) (size 9 to 14) (size 15 to 20)
#    0.000    1.333    1.667    2.500    9.333    2.000 
#    0.000    0.000    0.000    0.000    0.000    0.000 
#    0.000    0.000    0.000    0.000    0.000    0.000 
#
# Total GULP energy -134492.769378 kJ/mol
# GULP energy per Si atom -5603.865391 kJ/mol
# Density = 2.493925 g / cm^3
# Si number density = 24.996140 Si / 1000 Ang^3
#
#
#
# Elastic Constant Matrix: (Units=GPa)
#
#
# Indices 1 2 3 4 5 6 
#
# 1 84.3010 21.5253 21.2798 0.0000 2.5873 0.0000
# 2 21.5253 87.7822 20.2497 0.0000 -9.5338 0.0000
# 3 21.2798 20.2497 58.0645 0.0000 -14.8183 0.0000
# 4 0.0000 0.0000 0.0000 21.6980 0.0000 -11.4570
# 5 2.5873 -9.5338 -14.8183 0.0000 22.2896 0.0000
# 6 0.0000 0.0000 0.0000 -11.4570 0.0000 20.8065
#
#
#
# Elastic Compliance Matrix: (Units=1/GPa)
#
#
# Indices 1 2 3 4 5 6 
#
# 1 0.014323 -0.002875 -0.006003 0.000000 -0.006883 0.000000
# 2 -0.002875 0.013126 -0.002416 0.000000 0.004342 0.000000
# 3 -0.006003 -0.002416 0.024302 0.000000 0.015820 0.000000
# 4 0.000000 0.000000 0.000000 0.064981 0.000000 0.035781
# 5 -0.006883 0.004342 0.015820 0.000000 0.058037 0.000000
# 6 0.000000 0.000000 0.000000 0.035781 0.000000 0.067765
#
#
# Mechanical properties :
#
#
# Convention : Reuss Voigt Hill
#
# Bulk Modulus (GPa) = 34.29023 39.58414 36.93718
# Shear Modulus (GPa) = 18.19230 24.09834 21.14532
#
# Velocity S-wave (km/s) = 2.70071 3.10834 2.91167
# Velocity P-wave (km/s) = 4.84491 5.36217 5.11008
#
# Compressibility (1/GPa) = 0.02916283
#
# Stress axis : x y z
#
# Youngs Moduli (GPa) = 69.81807 76.18683 41.14881
#
# Poissons Ratio (x) = 0.21903 0.24702
# Poissons Ratio (y) = 0.20072 0.09941
# Poissons Ratio (z) = 0.41913 0.18405
#
# Static dielectric constant tensor:
#      x y z
#    x 1.960650 0.000000 0.004320 
#    y 0.000000 1.988760 0.000000 
#    z 0.004320 0.000000 1.932840 
# 
# From -- ./inp_files/196526.got.cif
#   From: 2010.05.17/outbox.cif.g08.bks.cpg/sg15_99_cif.got.tgz:196526.got - 2010.06.03 18:47:42.
