data_PCOD9291104
_publ_section_title
;
Structure prediction by ZEFSAII (Michael W. Deem and Ramdas Pophale) SiO2 
 PCOD9291104
Probable space group: C 2/C
;
_chemical_formula_sum "Si O2"
_cell_formula_units_Z 52
_cell_length_a 15.224768
_cell_length_b 8.349663
_cell_length_c 17.105804
_cell_angle_alpha 90.000000
_cell_angle_beta 94.570015
_cell_angle_gamma 90.000000
_cell_volume 2167.605159
_symmetry_space_group_name_H-M "C 2/C"
_symmetry_group_IT_number 15
_symmetry_cell_setting 'monoclinic'
loop_
_space_group_symop_operation_xyz
x,y,z
-x,y,1/2-z
-x,-y,-z
x,-y,1/2+z
1/2+x,1/2+y,z
1/2-x,1/2+y,1/2-z
1/2-x,1/2-y,-z
1/2+x,1/2-y,1/2+z
loop_
_atom_site_type_symbol
_atom_site_label
_atom_site_fract_x
_atom_site_fract_y
_atom_site_fract_z
Si Si1 0.000000 0.609397 0.750000
Si Si2 0.594080 0.246099 0.553850
Si Si3 0.428979 0.911556 0.876116
Si Si4 0.750246 0.739585 0.644159
Si Si5 0.605316 0.296537 0.385363
Si Si6 0.734569 0.629741 0.185595
Si Si7 0.576627 0.658103 0.388000
O O1 0.069681 0.499165 0.708715
O O2 0.044648 0.720029 0.818305
O O3 0.583371 0.055668 0.563513
O O4 0.639463 0.297545 0.477040
O O5 0.649900 0.311212 0.630795
O O6 0.495640 0.318298 0.549958
O O7 0.348677 0.791893 0.880775
O O8 0.522514 0.823125 0.882954
O O9 0.752195 0.553328 0.664566
O O10 0.777200 0.840399 0.723584
O O11 0.823745 0.789761 0.586363
O O12 0.682199 0.235066 0.335612
O O13 0.575203 0.474366 0.361769
#
# Coordination Sequence:
#
# PCOD9291104 Si02
#       7
#     4   8   8   8   8   8   8
#     4  10  22  42  64  94 126 164 210 266 326 366
#     4  11  24  45  65  92 129 172 214 257 310 379
#     4  11  23  41  66  93 128 166 210 265 315 377
#     4  12  24  42  66 100 126 163 213 265 327 368
#     4  12  25  43  65  95 129 173 212 254 315 381
#     4  12  25  42  67  94 128 165 211 268 315 377
#     4  11  23  41  66  93 128 165 209 265 314 376
#
# _framework density 23.989606999999999
#
# number of rings (size 3 to 8) (size 9 to 14) (size 15 to 20)
#    0.000    0.615    0.000   10.615    0.000    1.846 
#    0.000    2.308    0.000    0.000    0.000    0.000 
#    0.000    0.000    0.000    0.000    0.000    0.000 
#
# Total GULP energy -145752.697241 kJ/mol
# GULP energy per Si atom -5605.872971 kJ/mol
# Density = 2.393501 g / cm^3
# Si number density = 23.989607 Si / 1000 Ang^3
#
#
#
# Elastic Constant Matrix: (Units=GPa)
#
#
# Indices 1 2 3 4 5 6 
#
# 1 102.5762 13.6415 1.8333 0.0000 -2.2199 0.0000
# 2 13.6415 129.8841 -14.6270 0.0000 -3.2424 0.0000
# 3 1.8333 -14.6270 44.5265 0.0000 -2.6870 0.0000
# 4 0.0000 0.0000 0.0000 18.0062 0.0000 -5.7278
# 5 -2.2199 -3.2424 -2.6870 0.0000 23.4695 0.0000
# 6 0.0000 0.0000 0.0000 -5.7278 0.0000 46.0048
#
#
#
# Elastic Compliance Matrix: (Units=1/GPa)
#
#
# Indices 1 2 3 4 5 6 
#
# 1 0.009924 -0.001107 -0.000730 0.000000 0.000702 0.000000
# 2 -0.001107 0.008165 0.002809 0.000000 0.001345 0.000000
# 3 -0.000730 0.002809 0.023594 0.000000 0.003020 0.000000
# 4 0.000000 0.000000 0.000000 0.057826 0.000000 0.007200
# 5 0.000702 0.001345 0.003020 0.000000 0.043207 0.000000
# 6 0.000000 0.000000 0.000000 0.007200 0.000000 0.022633
#
#
# Mechanical properties :
#
#
# Convention : Reuss Voigt Hill
#
# Bulk Modulus (GPa) = 22.92123 30.96471 26.94297
# Shear Modulus (GPa) = 28.09812 35.90536 32.00174
#
# Velocity S-wave (km/s) = 3.42608 3.87292 3.65634
# Velocity P-wave (km/s) = 5.02256 5.73890 5.39264
#
# Compressibility (1/GPa) = 0.04362768
#
# Stress axis : x y z
#
# Youngs Moduli (GPa) = 100.76263 122.46853 42.38428
#
# Poissons Ratio (x) = 0.13557 0.03094
# Poissons Ratio (y) = 0.11154 -0.11906
# Poissons Ratio (z) = 0.07355 -0.34402
#
# Static dielectric constant tensor:
#      x y z
#    x 1.915510 0.000000 0.025680 
#    y 0.000000 1.860100 0.000000 
#    z 0.025680 0.000000 1.923900 
# 
# From -- ./inp_files/242487.got.cif
#   From: 2010.05.17/outbox.cif.g08.bks.cpg/sg15_122_cif.got.tgz:242487.got - 2010.06.03 18:47:42.
