data_PCOD9291679
_publ_section_title
;
Structure prediction by ZEFSAII (Michael W. Deem and Ramdas Pophale) SiO2 
 PCOD9291679
Probable space group: C 2/C
;
_chemical_formula_sum "Si O2"
_cell_formula_units_Z 48
_cell_length_a 20.073267
_cell_length_b 13.747071
_cell_length_c 11.849978
_cell_angle_alpha 90.000000
_cell_angle_beta 39.746179
_cell_angle_gamma 90.000000
_cell_volume 2090.788376
_symmetry_space_group_name_H-M "C 2/C"
_symmetry_group_IT_number 15
_symmetry_cell_setting 'monoclinic'
loop_
_space_group_symop_operation_xyz
x,y,z
-x,y,1/2-z
-x,-y,-z
x,-y,1/2+z
1/2+x,1/2+y,z
1/2-x,1/2+y,1/2-z
1/2-x,1/2-y,-z
1/2+x,1/2-y,1/2+z
loop_
_atom_site_type_symbol
_atom_site_label
_atom_site_fract_x
_atom_site_fract_y
_atom_site_fract_z
Si Si1 0.500000 0.000000 0.500000
Si Si2 0.890838 0.853433 0.832744
Si Si3 0.779363 0.344044 0.066881
Si Si4 0.263420 0.267024 0.816007
Si Si5 0.500000 0.915492 0.750000
Si Si6 0.278672 0.962510 0.710973
Si Si7 0.618473 0.578765 0.610922
O O1 0.486200 0.022711 0.381757
O O2 0.626520 0.018281 0.327764
O O3 0.869165 0.795571 0.744569
O O4 0.000000 0.829147 0.750000
O O5 0.886595 0.970125 0.826332
O O6 0.798061 0.814835 0.034174
O O7 0.774714 0.267201 0.173681
O O8 0.760679 0.445375 0.157155
O O9 0.690126 0.347298 0.088915
O O10 0.896534 0.351407 0.869626
O O11 0.199577 0.367458 0.893454
O O12 0.175515 0.940557 0.918003
O O13 0.500000 0.612069 0.750000
#
# Coordination Sequence:
#
# PCOD9291679 Si02
#       7
#     4   8   8   8   4   8   8
#     4  10  22  42  70  98 142 184 232 306 352 448
#     4  10  23  44  69 102 133 180 245 297 362 431
#     4  11  23  44  70 102 145 182 244 301 362 437
#     4  11  24  43  70 101 140 184 236 304 357 441
#     4  10  22  42  70 102 140 186 242 298 372 430
#     4  11  23  43  68 104 134 185 242 289 375 421
#     4  11  23  44  70  98 141 187 238 297 362 439
#
# _framework density 22.957847000000001
#
# number of rings (size 3 to 8) (size 9 to 14) (size 15 to 20)
#    0.000    1.333    5.000    0.000    0.000    5.333 
#   10.500    0.000    0.000    0.000    0.000    0.000 
#    0.000    0.000    0.000    0.000    0.000    0.000 
#
# Total GULP energy -133675.236224 kJ/mol
# GULP energy per Si atom -5569.801509 kJ/mol
# Density = 2.290559 g / cm^3
# Si number density = 22.957847 Si / 1000 Ang^3
#
#
#
# Elastic Constant Matrix: (Units=GPa)
#
#
# Indices 1 2 3 4 5 6 
#
# 1 184.1406 38.2319 49.6448 0.0000 -21.5599 0.0000
# 2 38.2319 85.6125 15.1135 0.0000 2.1794 0.0000
# 3 49.6448 15.1135 84.3614 0.0000 -15.7523 0.0000
# 4 0.0000 0.0000 0.0000 10.9420 0.0000 4.1386
# 5 -21.5599 2.1794 -15.7523 0.0000 46.7466 0.0000
# 6 0.0000 0.0000 0.0000 4.1386 0.0000 39.6268
#
#
#
# Elastic Compliance Matrix: (Units=1/GPa)
#
#
# Indices 1 2 3 4 5 6 
#
# 1 0.007143 -0.002667 -0.003295 0.000000 0.002309 0.000000
# 2 -0.002667 0.013141 -0.001205 0.000000 -0.002249 0.000000
# 3 -0.003295 -0.001205 0.014657 0.000000 0.003476 0.000000
# 4 0.000000 0.000000 0.000000 0.095150 0.000000 -0.009938
# 5 0.002309 -0.002249 0.003476 0.000000 0.023733 0.000000
# 6 0.000000 0.000000 0.000000 -0.009938 0.000000 0.026273
#
#
# Mechanical properties :
#
#
# Convention : Reuss Voigt Hill
#
# Bulk Modulus (GPa) = 48.52215 62.23278 55.37746
# Shear Modulus (GPa) = 24.83854 36.20469 30.52162
#
# Velocity S-wave (km/s) = 3.29282 3.97546 3.65014
# Velocity P-wave (km/s) = 5.96977 6.94541 6.47599
#
# Compressibility (1/GPa) = 0.02060915
#
# Stress axis : x y z
#
# Youngs Moduli (GPa) = 139.99975 76.09523 68.22492
#
# Poissons Ratio (x) = 0.20294 0.22477
# Poissons Ratio (y) = 0.37337 0.08219
# Poissons Ratio (z) = 0.46124 0.09168
#
# Static dielectric constant tensor:
#      x y z
#    x 1.874440 0.000000 0.002510 
#    y 0.000000 1.908730 0.000000 
#    z 0.002510 0.000000 1.864970 
# 
# From -- ./inp_files/112960.got.cif
#   From: 2010.05.17/outbox.cif.g08.bks.cpg/sg15_57_cif.got.tgz:112960.got - 2010.06.03 18:47:42.
