data_PCOD9291380
_publ_section_title
;
Structure prediction by ZEFSAII (Michael W. Deem and Ramdas Pophale) SiO2 
 PCOD9291380
Probable space group: C 2/C
;
_chemical_formula_sum "Si O2"
_cell_formula_units_Z 40
_cell_length_a 13.495592
_cell_length_b 8.204837
_cell_length_c 14.685143
_cell_angle_alpha 90.000000
_cell_angle_beta 88.488246
_cell_angle_gamma 90.000000
_cell_volume 1625.507165
_symmetry_space_group_name_H-M "C 2/C"
_symmetry_group_IT_number 15
_symmetry_cell_setting 'monoclinic'
loop_
_space_group_symop_operation_xyz
x,y,z
-x,y,1/2-z
-x,-y,-z
x,-y,1/2+z
1/2+x,1/2+y,z
1/2-x,1/2+y,1/2-z
1/2-x,1/2-y,-z
1/2+x,1/2-y,1/2+z
loop_
_atom_site_type_symbol
_atom_site_label
_atom_site_fract_x
_atom_site_fract_y
_atom_site_fract_z
Si Si1 0.613391 0.106382 0.526389
Si Si2 0.196123 0.192507 0.872164
Si Si3 0.154723 0.279309 0.441486
Si Si4 0.483816 0.628216 0.358141
Si Si5 0.701966 0.528315 0.684297
O O1 0.727247 0.105090 0.561240
O O2 0.613185 0.227176 0.439001
O O3 0.558939 0.195968 0.609826
O O4 0.594047 0.922958 0.494705
O O5 0.251580 0.349491 0.826913
O O6 0.171535 0.084673 0.785426
O O7 0.250000 0.250000 0.500000
O O8 0.084108 0.130804 0.414914
O O9 0.208996 0.356705 0.352040
O O10 0.500000 0.634300 0.250000
O O11 0.399492 0.489606 0.372647
#
# Coordination Sequence:
#
# PCOD9291380 Si02
#       5
#     8   8   8   8   8
#     4   9  20  40  68  96 138 180 235 283 349 424
#     4   9  19  38  68 100 137 185 227 289 356 416
#     4  11  24  41  70 102 137 188 226 290 363 418
#     4  11  24  45  67 100 137 180 236 291 340 425
#     4  10  22  42  67 101 140 186 232 289 358 418
#
# _framework density 24.607704999999999
#
# number of rings (size 3 to 8) (size 9 to 14) (size 15 to 20)
#    0.000    2.000    0.000    4.200    5.600    0.800 
#    3.600    0.000    0.000    0.000    0.000    0.000 
#    0.000    0.000    0.000    0.000    0.000    0.000 
#
# Total GULP energy -111650.005086 kJ/mol
# GULP energy per Si atom -5582.500254 kJ/mol
# Density = 2.455170 g / cm^3
# Si number density = 24.607705 Si / 1000 Ang^3
#
#
#
# Elastic Constant Matrix: (Units=GPa)
#
#
# Indices 1 2 3 4 5 6 
#
# 1 83.4602 1.5300 17.1684 0.0000 9.8676 0.0000
# 2 1.5300 32.6318 25.1957 0.0000 -2.2374 0.0000
# 3 17.1684 25.1957 108.3952 0.0000 -4.1061 0.0000
# 4 0.0000 0.0000 0.0000 54.8148 0.0000 9.8003
# 5 9.8676 -2.2374 -4.1061 0.0000 31.3828 0.0000
# 6 0.0000 0.0000 0.0000 9.8003 0.0000 32.9130
#
#
#
# Elastic Compliance Matrix: (Units=1/GPa)
#
#
# Indices 1 2 3 4 5 6 
#
# 1 0.012980 0.000985 -0.002449 0.000000 -0.004331 0.000000
# 2 0.000985 0.037496 -0.008826 0.000000 0.001209 0.000000
# 3 -0.002449 -0.008826 0.011728 0.000000 0.001675 0.000000
# 4 0.000000 0.000000 0.000000 0.019269 0.000000 -0.005738
# 5 -0.004331 0.001209 0.001675 0.000000 0.033532 0.000000
# 6 0.000000 0.000000 0.000000 -0.005738 0.000000 0.032092
#
#
# Mechanical properties :
#
#
# Convention : Reuss Voigt Hill
#
# Bulk Modulus (GPa) = 24.02398 34.69728 29.36063
# Shear Modulus (GPa) = 27.54046 35.86166 31.70106
#
# Velocity S-wave (km/s) = 3.34904 3.82165 3.59312
# Velocity P-wave (km/s) = 4.97381 5.79690 5.40106
#
# Compressibility (1/GPa) = 0.04162507
#
# Stress axis : x y z
#
# Youngs Moduli (GPa) = 77.04434 26.66922 85.26321
#
# Poissons Ratio (x) = -0.02628 0.20880
# Poissons Ratio (y) = -0.07591 0.75254
# Poissons Ratio (z) = 0.18867 0.23538
#
# Static dielectric constant tensor:
#      x y z
#    x 2.261970 0.000000 -0.084580 
#    y 0.000000 1.956080 0.000000 
#    z -0.084580 0.000000 1.960850 
# 
# From -- ./inp_files/150706.got.cif
#   From: 2010.05.17/outbox.cif.g08.bks.cpg/sg15_76_cif.got.tgz:150706.got - 2010.06.03 18:47:42.
