data_PCOD9291545
_publ_section_title
;
Structure prediction by ZEFSAII (Michael W. Deem and Ramdas Pophale) SiO2 
 PCOD9291545
Probable space group: C 2/C
;
_chemical_formula_sum "Si O2"
_cell_formula_units_Z 36
_cell_length_a 21.764253
_cell_length_b 8.167423
_cell_length_c 15.082442
_cell_angle_alpha 90.000000
_cell_angle_beta 36.688165
_cell_angle_gamma 90.000000
_cell_volume 1601.802488
_symmetry_space_group_name_H-M "C 2/C"
_symmetry_group_IT_number 15
_symmetry_cell_setting 'monoclinic'
loop_
_space_group_symop_operation_xyz
x,y,z
-x,y,1/2-z
-x,-y,-z
x,-y,1/2+z
1/2+x,1/2+y,z
1/2-x,1/2+y,1/2-z
1/2-x,1/2-y,-z
1/2+x,1/2-y,1/2+z
loop_
_atom_site_type_symbol
_atom_site_label
_atom_site_fract_x
_atom_site_fract_y
_atom_site_fract_z
Si Si1 0.254902 0.957138 0.833719
Si Si2 0.457078 0.858963 0.111675
Si Si3 0.109164 0.039035 0.657831
Si Si4 0.500000 0.217469 0.750000
Si Si5 0.116935 0.134223 0.853219
O O1 0.315485 0.801029 0.726461
O O2 0.335940 0.105541 0.754516
O O3 0.169109 0.015991 0.864027
O O4 0.201510 0.908319 0.988002
O O5 0.504775 0.880628 0.154296
O O6 0.504232 0.691203 0.018064
O O7 0.500000 0.000000 0.000000
O O8 0.119598 0.073155 0.749156
O O9 0.000000 0.111996 0.750000
O O10 0.093738 0.844503 0.656777
#
# Coordination Sequence:
#
# PCOD9291545 Si02
#       5
#     8   8   8   4   8
#     4  11  25  42  71 101 134 185 229 286 347 409
#     4  10  24  45  66 100 140 178 230 287 342 411
#     4  10  24  42  69  98 140 180 229 286 343 414
#     4  10  22  42  68  96 130 180 220 282 342 402
#     4  11  24  45  68 102 138 180 233 285 347 410
#
# _framework density 22.474682000000001
#
# number of rings (size 3 to 8) (size 9 to 14) (size 15 to 20)
#    0.667    0.889    2.222    0.667    6.222    6.222 
#    8.000    0.000    0.000    0.000    0.000    0.000 
#    0.000    0.000    0.000    0.000    0.000    0.000 
#
# Total GULP energy -100570.189066 kJ/mol
# GULP energy per Si atom -5587.232726 kJ/mol
# Density = 2.242353 g / cm^3
# Si number density = 22.474682 Si / 1000 Ang^3
#
#
#
# Elastic Constant Matrix: (Units=GPa)
#
#
# Indices 1 2 3 4 5 6 
#
# 1 180.3097 51.2932 60.8210 -0.0001 32.9150 0.0001
# 2 51.2932 51.1167 20.3607 -0.0001 1.9410 0.0003
# 3 60.8210 20.3607 137.1282 0.0000 8.7505 0.0002
# 4 -0.0001 -0.0001 0.0000 29.6272 0.0000 0.4398
# 5 32.9150 1.9410 8.7505 0.0000 45.9087 -0.0001
# 6 0.0001 0.0003 0.0002 0.4398 -0.0001 40.7526
#
#
#
# Elastic Compliance Matrix: (Units=1/GPa)
#
#
# Indices 1 2 3 4 5 6 
#
# 1 0.010171 -0.008853 -0.002789 0.000000 -0.006386 0.000000
# 2 -0.008853 0.028502 -0.000641 0.000000 0.005264 0.000000
# 3 -0.002789 -0.000641 0.008600 0.000000 0.000388 0.000000
# 4 0.000000 0.000000 0.000000 0.033758 0.000000 -0.000364
# 5 -0.006386 0.005264 0.000388 0.000000 0.026065 0.000000
# 6 0.000000 0.000000 0.000000 -0.000364 0.000000 0.024542
#
#
# Mechanical properties :
#
#
# Convention : Reuss Voigt Hill
#
# Bulk Modulus (GPa) = 44.04043 70.38936 57.21490
# Shear Modulus (GPa) = 30.53001 38.99635 34.76318
#
# Velocity S-wave (km/s) = 3.68967 4.17000 3.93717
# Velocity P-wave (km/s) = 6.14733 7.38733 6.79567
#
# Compressibility (1/GPa) = 0.02270641
#
# Stress axis : x y z
#
# Youngs Moduli (GPa) = 98.31889 35.08541 116.27827
#
# Poissons Ratio (x) = 0.31060 0.32433
# Poissons Ratio (y) = 0.87038 0.07458
# Poissons Ratio (z) = 0.27423 0.02250
#
# Static dielectric constant tensor:
#      x y z
#    x 1.790320 0.000000 -0.024710 
#    y 0.000000 1.895850 0.000000 
#    z -0.024710 0.000000 1.876100 
# 
# From -- ./inp_files/166610.got.cif
#   From: 2010.05.17/outbox.cif.g08.bks.cpg/sg15_84_cif.got.tgz:166610.got - 2010.06.03 18:47:42.
