data_PCOD9291959
_publ_section_title
;
Structure prediction by ZEFSAII (Michael W. Deem and Ramdas Pophale) SiO2 
 PCOD9291959
Probable space group: C 2/C
;
_chemical_formula_sum "Si O2"
_cell_formula_units_Z 44
_cell_length_a 26.108174
_cell_length_b 11.639042
_cell_length_c 15.450156
_cell_angle_alpha 90.000000
_cell_angle_beta 152.052622
_cell_angle_gamma 90.000000
_cell_volume 2200.315207
_symmetry_space_group_name_H-M "C 2/C"
_symmetry_group_IT_number 15
_symmetry_cell_setting 'monoclinic'
loop_
_space_group_symop_operation_xyz
x,y,z
-x,y,1/2-z
-x,-y,-z
x,-y,1/2+z
1/2+x,1/2+y,z
1/2-x,1/2+y,1/2-z
1/2-x,1/2-y,-z
1/2+x,1/2-y,1/2+z
loop_
_atom_site_type_symbol
_atom_site_label
_atom_site_fract_x
_atom_site_fract_y
_atom_site_fract_z
Si Si1 0.743538 0.753553 0.615884
Si Si2 0.992849 0.499683 0.884143
Si Si3 0.000000 0.309625 0.250000
Si Si4 0.592942 0.233487 0.491434
Si Si5 0.755742 0.544100 0.514619
Si Si6 0.140293 0.814768 0.368293
O O1 0.612820 0.741742 0.416314
O O2 0.803884 0.763803 0.796047
O O3 0.784327 0.636877 0.631683
O O4 0.769288 0.870174 0.601600
O O5 0.867824 0.473453 0.670950
O O6 0.011839 0.614304 0.855540
O O7 0.000000 0.500000 0.000000
O O8 0.072687 0.402849 0.966240
O O9 0.618850 0.277482 0.434824
O O10 0.476080 0.284162 0.350189
O O11 0.664231 0.450736 0.397269
O O12 0.250000 0.750000 0.500000
#
# Coordination Sequence:
#
# PCOD9291959 Si02
#       6
#     8   8   4   8   8   8
#     4  10  23  42  64  94 125 172 219 266 324 388
#     4  11  21  40  68  92 128 178 227 266 311 397
#     4  10  24  38  64  96 128 170 226 270 320 394
#     4  11  24  40  67 101 127 172 228 258 332 400
#     4  10  22  43  64  89 133 169 211 270 329 380
#     4  11  24  42  64  98 136 167 212 277 324 383
#
# _framework density 19.997133999999999
#
# number of rings (size 3 to 8) (size 9 to 14) (size 15 to 20)
#    0.000    1.455    3.636    1.091    5.091    2.182 
#    0.000    0.000    0.000    0.000    0.000    0.000 
#    0.000    0.000    0.000    0.000    0.000    0.000 
#
# Total GULP energy -122632.270206 kJ/mol
# GULP energy per Si atom -5574.194100 kJ/mol
# Density = 1.995162 g / cm^3
# Si number density = 19.997134 Si / 1000 Ang^3
#
#
#
# Elastic Constant Matrix: (Units=GPa)
#
#
# Indices 1 2 3 4 5 6 
#
# 1 65.5161 18.3075 29.9349 0.0000 6.7816 0.0000
# 2 18.3075 68.4735 34.2071 0.0000 4.2486 0.0000
# 3 29.9349 34.2071 100.9534 0.0000 -1.4714 0.0000
# 4 0.0000 0.0000 0.0000 8.5915 0.0000 -10.2463
# 5 6.7816 4.2486 -1.4714 0.0000 33.1320 0.0000
# 6 0.0000 0.0000 0.0000 -10.2463 0.0000 -7.7535
#
#
#
# Elastic Compliance Matrix: (Units=1/GPa)
#
#
# Indices 1 2 3 4 5 6 
#
# 1 0.018463 -0.002342 -0.004735 0.000000 -0.003689 0.000000
# 2 -0.002342 0.018090 -0.005465 0.000000 -0.002083 0.000000
# 3 -0.004735 -0.005465 0.013194 0.000000 0.002256 0.000000
# 4 0.000000 0.000000 0.000000 0.045183 0.000000 -0.059710
# 5 -0.003689 -0.002083 0.002256 0.000000 0.031305 0.000000
# 6 0.000000 0.000000 0.000000 -0.059710 0.000000 -0.050067
#
#
# Mechanical properties :
#
#
# Convention : Reuss Voigt Hill
#
# Bulk Modulus (GPa) = 40.54737 44.42689 42.48713
# Shear Modulus (GPa) = 45.67255 16.96023 31.31639
#
# Velocity S-wave (km/s) = 4.78426 2.91543 3.96162
# Velocity P-wave (km/s) = 7.13018 5.79637 6.49759
#
# Compressibility (1/GPa) = 0.02466251
#
# Stress axis : x y z
#
# Youngs Moduli (GPa) = 54.16186 55.27910 75.78983
#
# Poissons Ratio (x) = 0.12947 0.35886
# Poissons Ratio (y) = 0.12685 0.41423
# Poissons Ratio (z) = 0.25645 0.30213
#
# Static dielectric constant tensor:
#      x y z
#    x 1.767570 0.000000 0.047680 
#    y 0.000000 1.746850 0.000000 
#    z 0.047680 0.000000 1.757010 
# 
# From -- ./inp_files/151419.got.cif
#   From: 2010.05.17/outbox.cif.g08.bks.cpg/sg15_76_cif.got.tgz:151419.got - 2010.06.03 18:47:42.
