data_PCOD9291272
_publ_section_title
;
Structure prediction by ZEFSAII (Michael W. Deem and Ramdas Pophale) SiO2 
 PCOD9291272
Probable space group: C 2/C
;
_chemical_formula_sum "Si O2"
_cell_formula_units_Z 32
_cell_length_a 9.824189
_cell_length_b 16.404362
_cell_length_c 10.136202
_cell_angle_alpha 90.000000
_cell_angle_beta 72.685491
_cell_angle_gamma 90.000000
_cell_volume 1559.522413
_symmetry_space_group_name_H-M "C 2/C"
_symmetry_group_IT_number 15
_symmetry_cell_setting 'monoclinic'
loop_
_space_group_symop_operation_xyz
x,y,z
-x,y,1/2-z
-x,-y,-z
x,-y,1/2+z
1/2+x,1/2+y,z
1/2-x,1/2+y,1/2-z
1/2-x,1/2-y,-z
1/2+x,1/2-y,1/2+z
loop_
_atom_site_type_symbol
_atom_site_label
_atom_site_fract_x
_atom_site_fract_y
_atom_site_fract_z
Si Si1 0.000000 0.193361 0.750000
Si Si2 0.105621 0.075596 0.488107
Si Si3 0.211373 0.231678 0.356050
Si Si4 0.000000 0.659261 0.750000
Si Si5 0.907796 0.502842 0.896843
O O1 0.864756 0.248580 0.747672
O O2 0.043747 0.132591 0.620376
O O3 0.146436 0.141032 0.362456
O O4 0.259579 0.037996 0.472629
O O5 0.000000 0.000000 0.500000
O O6 0.250000 0.250000 0.500000
O O7 0.092072 0.290181 0.328001
O O8 0.107142 0.596482 0.646006
O O9 0.000000 0.463948 0.750000
O O10 0.000000 0.500000 0.000000
#
# Coordination Sequence:
#
# PCOD9291272 Si02
#       5
#     4   8   8   4   8
#     4  10  22  42  66  90 140 180 230 282 354 418
#     4  11  24  41  67 101 134 178 234 298 351 414
#     4  10  22  43  64  94 136 181 225 287 354 416
#     4  10  22  44  70 102 138 188 240 286 356 428
#     4  10  23  43  74 101 143 189 245 292 355 425
#
# _framework density 20.519103999999999
#
# number of rings (size 3 to 8) (size 9 to 14) (size 15 to 20)
#    0.750    1.000    0.000    4.500    5.250    1.000 
#    0.000    6.250    0.000    0.000    0.000    0.000 
#    0.000    0.000    0.000    0.000    0.000    0.000 
#
# Total GULP energy -89121.791624 kJ/mol
# GULP energy per Si atom -5570.111976 kJ/mol
# Density = 2.047240 g / cm^3
# Si number density = 20.519104 Si / 1000 Ang^3
#
#
#
# Elastic Constant Matrix: (Units=GPa)
#
#
# Indices 1 2 3 4 5 6 
#
# 1 80.2108 44.5473 50.8422 0.0000 -23.6123 0.0000
# 2 44.5473 138.7354 29.3990 0.0000 -16.0022 0.0000
# 3 50.8422 29.3990 79.2871 0.0000 -10.4053 0.0000
# 4 0.0000 0.0000 0.0000 23.5880 0.0000 -9.2861
# 5 -23.6123 -16.0022 -10.4053 0.0000 41.9060 0.0000
# 6 0.0000 0.0000 0.0000 -9.2861 0.0000 42.0691
#
#
#
# Elastic Compliance Matrix: (Units=1/GPa)
#
#
# Indices 1 2 3 4 5 6 
#
# 1 0.026950 -0.004475 -0.014320 0.000000 0.009921 0.000000
# 2 -0.004475 0.008795 -0.000291 0.000000 0.000765 0.000000
# 3 -0.014320 -0.000291 0.021531 0.000000 -0.002834 0.000000
# 4 0.000000 0.000000 0.000000 0.046429 0.000000 0.010248
# 5 0.009921 0.000765 -0.002834 0.000000 0.029041 0.000000
# 6 0.000000 0.000000 0.000000 0.010248 0.000000 0.026033
#
#
# Mechanical properties :
#
#
# Convention : Reuss Voigt Hill
#
# Bulk Modulus (GPa) = 52.34687 60.86782 56.60734
# Shear Modulus (GPa) = 24.59201 33.07560 28.83380
#
# Velocity S-wave (km/s) = 3.46568 4.01925 3.75269
# Velocity P-wave (km/s) = 6.44835 7.16014 6.81355
#
# Compressibility (1/GPa) = 0.01910334
#
# Stress axis : x y z
#
# Youngs Moduli (GPa) = 37.10634 113.70515 46.44426
#
# Poissons Ratio (x) = 0.50878 0.66509
# Poissons Ratio (y) = 0.16603 0.01353
# Poissons Ratio (z) = 0.53137 0.03313
#
# Static dielectric constant tensor:
#      x y z
#    x 1.681860 0.000000 -0.002730 
#    y 0.000000 1.903580 0.000000 
#    z -0.002730 0.000000 1.785520 
# 
# From -- ./inp_files/75575.got.cif
#   From: 2010.05.17/outbox.cif.g08.bks.cpg/sg15_38_cif.got.tgz:75575.got - 2010.06.03 18:47:42.
