data_PCOD9291577
_publ_section_title
;
Structure prediction by ZEFSAII (Michael W. Deem and Ramdas Pophale) SiO2 
 PCOD9291577
Probable space group: C 2/C
;
_chemical_formula_sum "Si O2"
_cell_formula_units_Z 36
_cell_length_a 11.937444
_cell_length_b 8.523711
_cell_length_c 17.379550
_cell_angle_alpha 90.000000
_cell_angle_beta 53.295464
_cell_angle_gamma 90.000000
_cell_volume 1417.770124
_symmetry_space_group_name_H-M "C 2/C"
_symmetry_group_IT_number 15
_symmetry_cell_setting 'monoclinic'
loop_
_space_group_symop_operation_xyz
x,y,z
-x,y,1/2-z
-x,-y,-z
x,-y,1/2+z
1/2+x,1/2+y,z
1/2-x,1/2+y,1/2-z
1/2-x,1/2-y,-z
1/2+x,1/2-y,1/2+z
loop_
_atom_site_type_symbol
_atom_site_label
_atom_site_fract_x
_atom_site_fract_y
_atom_site_fract_z
Si Si1 0.943126 0.894428 0.955208
Si Si2 0.000000 0.542716 0.750000
Si Si3 0.860948 0.434543 0.459923
Si Si4 0.114064 0.365233 0.839641
Si Si5 0.880180 0.965267 0.236540
O O1 0.898835 0.717680 0.994694
O O2 0.801601 0.968805 0.978719
O O3 0.060932 0.896856 0.841726
O O4 0.000000 0.000000 0.000000
O O5 0.091842 0.622954 0.646239
O O6 0.106169 0.437490 0.755730
O O7 0.960882 0.582400 0.432265
O O8 0.138886 0.183983 0.811864
O O9 0.235390 0.468424 0.829070
O O10 0.000000 0.929635 0.250000
#
# Coordination Sequence:
#
# PCOD9291577 Si02
#       5
#     8   4   8   8   8
#     4  11  24  40  65 103 137 174 223 281 335 392
#     4   8  18  42  70  88 132 178 218 272 330 390
#     4   9  21  41  66  92 135 177 219 274 334 390
#     4  10  22  42  68  98 136 175 226 281 328 400
#     4  12  25  42  69 102 132 181 228 273 338 403
#
# _framework density 25.391984999999998
#
# number of rings (size 3 to 8) (size 9 to 14) (size 15 to 20)
#    1.333    0.444    1.111    2.667    1.556    6.222 
#    0.000    2.222    0.000    0.000    0.000    0.000 
#    0.000    0.000    0.000    0.000    0.000    0.000 
#
# Total GULP energy -100549.764257 kJ/mol
# GULP energy per Si atom -5586.098014 kJ/mol
# Density = 2.533419 g / cm^3
# Si number density = 25.391985 Si / 1000 Ang^3
#
#
#
# Elastic Constant Matrix: (Units=GPa)
#
#
# Indices 1 2 3 4 5 6 
#
# 1 140.4352 40.1297 9.8143 0.0000 -22.7965 0.0000
# 2 40.1297 101.5854 4.3328 0.0000 -19.8948 0.0000
# 3 9.8143 4.3328 52.4975 0.0000 -24.9931 0.0000
# 4 0.0000 0.0000 0.0000 41.4324 0.0000 1.9521
# 5 -22.7965 -19.8948 -24.9931 0.0000 47.7775 0.0000
# 6 0.0000 0.0000 0.0000 1.9521 0.0000 48.0164
#
#
#
# Elastic Compliance Matrix: (Units=1/GPa)
#
#
# Indices 1 2 3 4 5 6 
#
# 1 0.008368 -0.002746 0.000025 0.000000 0.002862 0.000000
# 2 -0.002746 0.011728 0.001660 0.000000 0.004442 0.000000
# 3 0.000025 0.001660 0.025623 0.000000 0.014107 0.000000
# 4 0.000000 0.000000 0.000000 0.024182 0.000000 -0.000983
# 5 0.002862 0.004442 0.014107 0.000000 0.031525 0.000000
# 6 0.000000 0.000000 0.000000 -0.000983 0.000000 0.020866
#
#
# Mechanical properties :
#
#
# Convention : Reuss Voigt Hill
#
# Bulk Modulus (GPa) = 22.93768 44.78574 33.86171
# Shear Modulus (GPa) = 35.98489 43.46133 39.72311
#
# Velocity S-wave (km/s) = 3.76862 4.14166 3.95954
# Velocity P-wave (km/s) = 5.29053 6.36766 5.85392
#
# Compressibility (1/GPa) = 0.04359639
#
# Stress axis : x y z
#
# Youngs Moduli (GPa) = 119.49742 85.26711 39.02769
#
# Poissons Ratio (x) = 0.23417 -0.00097
# Poissons Ratio (y) = 0.32817 -0.06479
# Poissons Ratio (z) = -0.00298 -0.14154
#
# Static dielectric constant tensor:
#      x y z
#    x 2.042630 0.000000 0.078800 
#    y 0.000000 1.960460 0.000000 
#    z 0.078800 0.000000 2.004020 
# 
# From -- ./inp_files/267513.got.cif
#   From: 2010.05.17/outbox.cif.g08.bks.cpg/sg15_134_cif.got.tgz:267513.got - 2010.06.03 18:47:42.
