data_PCOD9291186
_publ_section_title
;
Structure prediction by ZEFSAII (Michael W. Deem and Ramdas Pophale) SiO2 
 PCOD9291186
Probable space group: C 2/C
;
_chemical_formula_sum "Si O2"
_cell_formula_units_Z 48
_cell_length_a 18.201060
_cell_length_b 16.385218
_cell_length_c 16.242274
_cell_angle_alpha 90.000000
_cell_angle_beta 31.378973
_cell_angle_gamma 90.000000
_cell_volume 2522.204363
_symmetry_space_group_name_H-M "C 2/C"
_symmetry_group_IT_number 15
_symmetry_cell_setting 'monoclinic'
loop_
_space_group_symop_operation_xyz
x,y,z
-x,y,1/2-z
-x,-y,-z
x,-y,1/2+z
1/2+x,1/2+y,z
1/2-x,1/2+y,1/2-z
1/2-x,1/2-y,-z
1/2+x,1/2-y,1/2+z
loop_
_atom_site_type_symbol
_atom_site_label
_atom_site_fract_x
_atom_site_fract_y
_atom_site_fract_z
Si Si1 0.000000 0.042605 0.750000
Si Si2 0.505616 0.855392 0.011652
Si Si3 0.500000 0.916286 0.750000
Si Si4 0.317430 0.702737 0.178042
Si Si5 0.397614 0.002551 0.498578
Si Si6 0.417029 0.461814 0.656990
Si Si7 0.270172 0.330798 0.535008
O O1 0.129657 0.104106 0.606503
O O2 0.978729 0.988502 0.687162
O O3 0.379750 0.791467 0.136371
O O4 0.476414 0.925152 0.971591
O O5 0.651463 0.807928 0.855556
O O6 0.528224 0.914692 0.067405
O O7 0.598438 0.970141 0.598401
O O8 0.610725 0.863450 0.695430
O O9 0.399710 0.634104 0.152391
O O10 0.333348 0.686239 0.064865
O O11 0.243808 0.994434 0.685456
O O12 0.500000 0.500000 0.500000
O O13 0.250000 0.250000 0.500000
#
# Coordination Sequence:
#
# PCOD9291186 Si02
#       7
#     4   8   4   8   8   8   8
#     4  12  25  42  65  94 132 176 220 276 329 395
#     4  10  23  40  63  92 126 170 216 266 322 398
#     4  12  21  42  63  92 132 172 212 266 323 399
#     4  11  24  41  63  95 129 172 217 268 334 391
#     4  10  22  42  65  93 131 172 217 264 334 400
#     4  11  24  43  65  96 133 177 223 270 330 396
#     4  12  25  37  61  98 135 167 209 274 338 396
#
# _framework density 19.030971000000001
#
# number of rings (size 3 to 8) (size 9 to 14) (size 15 to 20)
#    0.000    1.000    5.000    1.500    4.667    0.000 
#    0.000    0.833    0.000    4.000    0.000    0.000 
#    0.000    0.000    0.000    0.000    0.000    0.000 
#
# Total GULP energy -133826.036071 kJ/mol
# GULP energy per Si atom -5576.084836 kJ/mol
# Density = 1.898766 g / cm^3
# Si number density = 19.030971 Si / 1000 Ang^3
#
#
#
# Elastic Constant Matrix: (Units=GPa)
#
#
# Indices 1 2 3 4 5 6 
#
# 1 105.3014 63.6520 30.3365 0.0003 5.7896 -0.0001
# 2 63.6520 132.1341 51.9098 0.0003 -6.7510 -0.0001
# 3 30.3365 51.9098 71.0630 0.0009 -10.6211 -0.0002
# 4 0.0003 0.0003 0.0009 22.0952 -0.0006 -10.6228
# 5 5.7896 -6.7510 -10.6211 -0.0006 26.8447 0.0002
# 6 -0.0001 -0.0001 -0.0002 -10.6228 0.0002 30.4010
#
#
#
# Elastic Compliance Matrix: (Units=1/GPa)
#
#
# Indices 1 2 3 4 5 6 
#
# 1 0.014243 -0.006213 -0.002375 0.000000 -0.005574 0.000000
# 2 -0.006213 0.013329 -0.006784 0.000000 0.002008 0.000000
# 3 -0.002375 -0.006784 0.021111 -0.000001 0.007159 0.000000
# 4 0.000000 0.000000 -0.000001 0.054397 0.000001 0.019008
# 5 -0.005574 0.002008 0.007159 0.000001 0.041791 0.000000
# 6 0.000000 0.000000 0.000000 0.019008 0.000000 0.039535
#
#
# Mechanical properties :
#
#
# Convention : Reuss Voigt Hill
#
# Bulk Modulus (GPa) = 55.74339 66.69944 61.22142
# Shear Modulus (GPa) = 22.61127 26.70818 24.65972
#
# Velocity S-wave (km/s) = 3.45067 3.75027 3.60358
# Velocity P-wave (km/s) = 6.72537 7.34007 7.03943
#
# Compressibility (1/GPa) = 0.01793935
#
# Stress axis : x y z
#
# Youngs Moduli (GPa) = 70.21161 75.02664 47.36804
#
# Poissons Ratio (x) = 0.46612 0.11249
# Poissons Ratio (y) = 0.43621 0.32134
# Poissons Ratio (z) = 0.16674 0.50897
#
# Static dielectric constant tensor:
#      x y z
#    x 1.718710 0.000000 0.010330 
#    y 0.000000 1.652890 0.000000 
#    z 0.010330 0.000000 1.680100 
# 
# From -- ./inp_files/163227.got.cif
#   From: 2010.05.17/outbox.cif.g08.bks.cpg/sg15_82_cif.got.tgz:163227.got - 2010.06.03 18:47:42.
