data_PCOD9291374
_publ_section_title
;
Structure prediction by ZEFSAII (Michael W. Deem and Ramdas Pophale) SiO2 
 PCOD9291374
Probable space group: C 2/C
;
_chemical_formula_sum "Si O2"
_cell_formula_units_Z 44
_cell_length_a 18.863290
_cell_length_b 11.437114
_cell_length_c 8.868233
_cell_angle_alpha 90.000000
_cell_angle_beta 114.129223
_cell_angle_gamma 90.000000
_cell_volume 1746.078345
_symmetry_space_group_name_H-M "C 2/C"
_symmetry_group_IT_number 15
_symmetry_cell_setting 'monoclinic'
loop_
_space_group_symop_operation_xyz
x,y,z
-x,y,1/2-z
-x,-y,-z
x,-y,1/2+z
1/2+x,1/2+y,z
1/2-x,1/2+y,1/2-z
1/2-x,1/2-y,-z
1/2+x,1/2-y,1/2+z
loop_
_atom_site_type_symbol
_atom_site_label
_atom_site_fract_x
_atom_site_fract_y
_atom_site_fract_z
Si Si1 0.535064 0.854492 0.945324
Si Si2 0.556828 0.590057 0.917557
Si Si3 0.292897 0.184538 0.901842
Si Si4 0.500000 0.828527 0.250000
Si Si5 0.168603 0.203569 0.364615
Si Si6 0.849567 0.957415 0.249561
O O1 0.500000 0.882113 0.750000
O O2 0.523924 0.711345 0.953139
O O3 0.626544 0.882574 0.001522
O O4 0.507685 0.892474 0.091304
O O5 0.500000 0.523729 0.750000
O O6 0.614797 0.634965 0.836506
O O7 0.591777 0.504760 0.072932
O O8 0.319260 0.279392 0.803287
O O9 0.231058 0.097340 0.770103
O O10 0.250000 0.250000 0.000000
O O11 0.585113 0.761377 0.335032
O O12 0.250000 0.250000 0.500000
O O13 0.165952 0.065283 0.375447
#
# Coordination Sequence:
#
# PCOD9291374 Si02
#       6
#     8   8   8   4   8   8
#     4  10  22  42  67 100 133 189 227 288 353 410
#     4  11  23  37  59  99 133 171 219 277 366 416
#     4  11  22  42  63  94 136 175 234 275 347 428
#     4  10  22  44  66 102 146 170 240 288 356 432
#     4  11  25  41  68 100 133 188 226 290 358 410
#     4  12  22  41  65  95 137 180 222 285 345 428
#
# _framework density 25.199328999999999
#
# number of rings (size 3 to 8) (size 9 to 14) (size 15 to 20)
#    0.000    1.091    5.455    1.636    3.818    2.909 
#    0.000    0.000    2.000    2.182    0.000    0.000 
#    0.000    0.000    0.000    0.000    0.000    0.000 
#
# Total GULP energy -122514.808641 kJ/mol
# GULP energy per Si atom -5568.854938 kJ/mol
# Density = 2.514197 g / cm^3
# Si number density = 25.199329 Si / 1000 Ang^3
#
#
#
# Elastic Constant Matrix: (Units=GPa)
#
#
# Indices 1 2 3 4 5 6 
#
# 1 166.9711 17.8154 74.0621 0.0000 -8.8202 0.0000
# 2 17.8154 42.1221 33.7476 0.0000 -5.7346 0.0000
# 3 74.0621 33.7476 184.2314 0.0000 -13.3897 0.0000
# 4 0.0000 0.0000 0.0000 42.0513 0.0000 3.9773
# 5 -8.8202 -5.7346 -13.3897 0.0000 51.6987 0.0000
# 6 0.0000 0.0000 0.0000 3.9773 0.0000 31.4710
#
#
#
# Elastic Compliance Matrix: (Units=1/GPa)
#
#
# Indices 1 2 3 4 5 6 
#
# 1 0.007325 -0.000826 -0.002761 0.000000 0.000443 0.000000
# 2 -0.000826 0.028082 -0.004684 0.000000 0.001761 0.000000
# 3 -0.002761 -0.004684 0.007465 0.000000 0.000943 0.000000
# 4 0.000000 0.000000 0.000000 0.024068 0.000000 -0.003042
# 5 0.000443 0.001761 0.000943 0.000000 0.019858 0.000000
# 6 0.000000 0.000000 0.000000 -0.003042 0.000000 0.032160
#
#
# Mechanical properties :
#
#
# Convention : Reuss Voigt Hill
#
# Bulk Modulus (GPa) = 37.97957 71.61940 54.79949
# Shear Modulus (GPa) = 34.65547 42.89083 38.77315
#
# Velocity S-wave (km/s) = 3.71246 4.13008 3.92683
# Velocity P-wave (km/s) = 5.78627 7.15725 6.50796
#
# Compressibility (1/GPa) = 0.02632994
#
# Stress axis : x y z
#
# Youngs Moduli (GPa) = 136.51101 35.60949 133.96478
#
# Poissons Ratio (x) = 0.02940 0.36994
# Poissons Ratio (y) = 0.11269 0.62753
# Poissons Ratio (z) = 0.37697 0.16681
#
# Static dielectric constant tensor:
#      x y z
#    x 2.395500 0.000000 -0.048970 
#    y 0.000000 2.002450 0.000000 
#    z -0.048970 0.000000 2.225800 
# 
# From -- ./inp_files/54518.got.cif
#   From: 2010.05.17/outbox.cif.g08.bks.cpg/sg15_28_cif.got.tgz:54518.got - 2010.06.03 18:47:42.
