data_PCOD9291205
_publ_section_title
;
Structure prediction by ZEFSAII (Michael W. Deem and Ramdas Pophale) SiO2 
 PCOD9291205
Probable space group: C 2/C
;
_chemical_formula_sum "Si O2"
_cell_formula_units_Z 56
_cell_length_a 8.003901
_cell_length_b 13.884821
_cell_length_c 26.863759
_cell_angle_alpha 90.000000
_cell_angle_beta 56.211861
_cell_angle_gamma 90.000000
_cell_volume 2481.200476
_symmetry_space_group_name_H-M "C 2/C"
_symmetry_group_IT_number 15
_symmetry_cell_setting 'monoclinic'
loop_
_space_group_symop_operation_xyz
x,y,z
-x,y,1/2-z
-x,-y,-z
x,-y,1/2+z
1/2+x,1/2+y,z
1/2-x,1/2+y,1/2-z
1/2-x,1/2-y,-z
1/2+x,1/2-y,1/2+z
loop_
_atom_site_type_symbol
_atom_site_label
_atom_site_fract_x
_atom_site_fract_y
_atom_site_fract_z
Si Si1 0.925003 0.647252 0.098388
Si Si2 0.998110 0.035075 0.603742
Si Si3 0.686308 0.229317 0.787378
Si Si4 0.009873 0.930438 0.801294
Si Si5 0.213903 0.324688 0.090952
Si Si6 0.348107 0.974446 0.480722
Si Si7 0.960005 0.202405 0.836989
O O1 0.721070 0.590794 0.145740
O O2 0.845158 0.724969 0.069605
O O3 0.101881 0.570016 0.059927
O O4 0.996157 0.713166 0.131883
O O5 0.134775 0.975429 0.543693
O O6 0.120324 0.112955 0.617360
O O7 0.852439 0.096391 0.594029
O O8 0.897062 0.973926 0.664018
O O9 0.634069 0.332778 0.772684
O O10 0.473569 0.189754 0.840895
O O11 0.816040 0.233834 0.816428
O O12 0.825476 0.175878 0.724168
O O13 0.000000 0.984643 0.750000
O O14 0.138273 0.375948 0.052919
O O15 0.500000 0.000000 0.500000
#
# Coordination Sequence:
#
# PCOD9291205 Si02
#       7
#     8   8   8   8   8   8   8
#     4  10  23  43  67  95 130 177 216 272 337 396
#     4  11  25  42  63  99 132 174 220 277 326 401
#     4  10  22  42  65  95 131 169 214 276 331 409
#     4  11  22  41  66  95 132 166 214 276 332 398
#     4  10  25  44  67  96 132 178 221 276 341 397
#     4  12  24  44  67  96 136 172 232 276 328 404
#     4  10  22  42  66  96 129 170 220 265 343 392
#
# _framework density 22.569718999999999
#
# number of rings (size 3 to 8) (size 9 to 14) (size 15 to 20)
#    0.000    1.429    2.857    1.286    4.000    2.857 
#    2.571    0.000    0.000    0.000    0.000    0.000 
#    0.000    0.000    0.000    0.000    0.000    0.000 
#
# Total GULP energy -156196.245805 kJ/mol
# GULP energy per Si atom -5578.437350 kJ/mol
# Density = 2.251835 g / cm^3
# Si number density = 22.569719 Si / 1000 Ang^3
#
#
#
# Elastic Constant Matrix: (Units=GPa)
#
#
# Indices 1 2 3 4 5 6 
#
# 1 34.1584 -12.2029 -13.8868 -0.0001 9.7436 0.0001
# 2 -12.2029 48.8369 16.8570 -0.0001 4.7001 0.0001
# 3 -13.8868 16.8570 70.9825 -0.0002 7.3527 0.0002
# 4 -0.0001 -0.0001 -0.0002 35.2989 0.0001 10.6160
# 5 9.7436 4.7001 7.3527 0.0001 29.2679 -0.0001
# 6 0.0001 0.0001 0.0002 10.6160 -0.0001 4.7517
#
#
#
# Elastic Compliance Matrix: (Units=1/GPa)
#
#
# Indices 1 2 3 4 5 6 
#
# 1 0.040354 0.009120 0.007466 0.000002 -0.016775 -0.000005
# 2 0.009120 0.024519 -0.003405 0.000001 -0.006118 -0.000002
# 3 0.007466 -0.003405 0.017000 0.000001 -0.006210 -0.000003
# 4 0.000002 0.000001 0.000001 0.086347 -0.000002 -0.192912
# 5 -0.016775 -0.006118 -0.006210 -0.000002 0.042294 0.000006
# 6 -0.000005 -0.000002 -0.000003 -0.192912 0.000006 0.641443
#
#
# Mechanical properties :
#
#
# Convention : Reuss Voigt Hill
#
# Bulk Modulus (GPa) = 9.23891 15.05693 12.14792
# Shear Modulus (GPa) = 5.80266 24.74442 15.27354
#
# Velocity S-wave (km/s) = 1.60517 3.31472 2.60422
# Velocity P-wave (km/s) = 2.74551 4.61905 3.79957
#
# Compressibility (1/GPa) = 0.10823787
#
# Stress axis : x y z
#
# Youngs Moduli (GPa) = 24.78076 40.78411 58.82184
#
# Poissons Ratio (x) = -0.37197 -0.43919
# Poissons Ratio (y) = -0.22601 0.20028
# Poissons Ratio (z) = -0.18502 0.13886
#
# Static dielectric constant tensor:
#      x y z
#    x 1.857260 0.000000 -0.004070 
#    y 0.000000 1.925830 0.000000 
#    z -0.004070 0.000000 1.934350 
# 
# From -- ./inp_files/264612.got.cif
#   From: 2010.05.17/outbox.cif.g08.bks.cpg/sg15_133_cif.got.tgz:264612.got - 2010.06.03 18:47:42.
