data_PCOD9291972
_publ_section_title
;
Structure prediction by ZEFSAII (Michael W. Deem and Ramdas Pophale) SiO2 
 PCOD9291972
Probable space group: C 2/C
;
_chemical_formula_sum "Si O2"
_cell_formula_units_Z 48
_cell_length_a 24.495974
_cell_length_b 12.836860
_cell_length_c 20.329801
_cell_angle_alpha 90.000000
_cell_angle_beta 161.079481
_cell_angle_gamma 90.000000
_cell_volume 2072.883771
_symmetry_space_group_name_H-M "C 2/C"
_symmetry_group_IT_number 15
_symmetry_cell_setting 'monoclinic'
loop_
_space_group_symop_operation_xyz
x,y,z
-x,y,1/2-z
-x,-y,-z
x,-y,1/2+z
1/2+x,1/2+y,z
1/2-x,1/2+y,1/2-z
1/2-x,1/2-y,-z
1/2+x,1/2-y,1/2+z
loop_
_atom_site_type_symbol
_atom_site_label
_atom_site_fract_x
_atom_site_fract_y
_atom_site_fract_z
Si Si1 0.261475 0.499001 0.066262
Si Si2 0.155442 0.712133 0.105810
Si Si3 0.941873 0.561417 0.785298
Si Si4 0.019896 0.907302 0.575053
Si Si5 0.464073 0.705440 0.783012
Si Si6 0.169816 0.371506 0.765548
O O1 0.413196 0.549659 0.279708
O O2 0.319097 0.382585 0.114373
O O3 0.203066 0.561214 0.935029
O O4 0.101536 0.503957 0.932733
O O5 0.334180 0.669482 0.285375
O O6 0.121472 0.659893 0.137340
O O7 0.015356 0.669926 0.894924
O O8 0.142742 0.835560 0.100959
O O9 0.879069 0.488255 0.772083
O O10 0.000000 0.000000 0.500000
O O11 0.500000 0.742670 0.750000
O O12 0.416559 0.794920 0.779809
O O13 0.632132 0.649549 0.000378
#
# Coordination Sequence:
#
# PCOD9291972 Si02
#       6
#     8   8   8   8   8   8
#     4  10  22  43  64  93 133 176 225 287 337 399
#     4  11  25  44  67 101 133 182 223 281 348 408
#     4  10  23  41  66  92 132 177 226 279 341 407
#     4  11  25  47  72  99 141 180 233 286 344 412
#     4  12  24  39  62  98 132 177 231 285 353 406
#     4  12  23  38  63  94 136 172 229 283 344 413
#
# _framework density 23.156146
#
# number of rings (size 3 to 8) (size 9 to 14) (size 15 to 20)
#    0.000    1.000    1.667    5.000    2.333    7.333 
#    0.000    0.000    0.000    0.000    0.000    0.000 
#    0.000    0.000    0.000    0.000    0.000    0.000 
#
# Total GULP energy -134444.949945 kJ/mol
# GULP energy per Si atom -5601.872914 kJ/mol
# Density = 2.310344 g / cm^3
# Si number density = 23.156146 Si / 1000 Ang^3
#
#
#
# Elastic Constant Matrix: (Units=GPa)
#
#
# Indices 1 2 3 4 5 6 
#
# 1 95.6213 23.5692 18.0086 0.0048 -6.1166 0.0058
# 2 23.5692 78.2968 30.3518 0.0093 20.3477 0.0124
# 3 18.0086 30.3518 68.0085 0.0050 -11.8820 0.0089
# 4 0.0048 0.0093 0.0050 40.6187 0.0040 3.9317
# 5 -6.1166 20.3477 -11.8820 0.0040 29.6635 0.0063
# 6 0.0058 0.0124 0.0089 3.9317 0.0063 30.1184
#
#
#
# Elastic Compliance Matrix: (Units=1/GPa)
#
#
# Indices 1 2 3 4 5 6 
#
# 1 0.012143 -0.005431 0.000319 -0.000001 0.006357 -0.000001
# 2 -0.005431 0.026878 -0.015026 -0.000001 -0.025576 0.000000
# 3 0.000319 -0.015026 0.024879 -0.000001 0.020338 -0.000005
# 4 -0.000001 -0.000001 -0.000001 0.024934 -0.000003 -0.003255
# 5 0.006357 -0.025576 0.020338 -0.000003 0.060713 -0.000009
# 6 -0.000001 0.000000 -0.000005 -0.003255 -0.000009 0.033627
#
#
# Mechanical properties :
#
#
# Convention : Reuss Voigt Hill
#
# Bulk Modulus (GPa) = 42.32917 42.86511 42.59714
# Shear Modulus (GPa) = 21.61459 31.41327 26.51393
#
# Velocity S-wave (km/s) = 3.05852 3.68718 3.38746
# Velocity P-wave (km/s) = 5.54908 6.05628 5.80822
#
# Compressibility (1/GPa) = 0.02362437
#
# Stress axis : x y z
#
# Youngs Moduli (GPa) = 82.35064 37.20480 40.19479
#
# Poissons Ratio (x) = 0.20207 -0.01283
# Poissons Ratio (y) = 0.44727 0.60396
# Poissons Ratio (z) = -0.02628 0.55903
#
# Static dielectric constant tensor:
#      x y z
#    x 1.840980 0.000000 0.016620 
#    y 0.000000 1.840530 0.000000 
#    z 0.016620 0.000000 1.911670 
# 
# From -- ./inp_files/255734.got.cif
#   From: 2010.05.17/outbox.cif.g08.bks.cpg/sg15_128_cif.got.tgz:255734.got - 2010.06.03 18:47:42.
