data_PCOD9291763
_publ_section_title
;
Structure prediction by ZEFSAII (Michael W. Deem and Ramdas Pophale) SiO2 
 PCOD9291763
Probable space group: C 2/C
;
_chemical_formula_sum "Si O2"
_cell_formula_units_Z 44
_cell_length_a 17.852096
_cell_length_b 14.820229
_cell_length_c 8.163816
_cell_angle_alpha 90.000000
_cell_angle_beta 49.665431
_cell_angle_gamma 90.000000
_cell_volume 1646.458149
_symmetry_space_group_name_H-M "C 2/C"
_symmetry_group_IT_number 15
_symmetry_cell_setting 'monoclinic'
loop_
_space_group_symop_operation_xyz
x,y,z
-x,y,1/2-z
-x,-y,-z
x,-y,1/2+z
1/2+x,1/2+y,z
1/2-x,1/2+y,1/2-z
1/2-x,1/2-y,-z
1/2+x,1/2-y,1/2+z
loop_
_atom_site_type_symbol
_atom_site_label
_atom_site_fract_x
_atom_site_fract_y
_atom_site_fract_z
Si Si1 0.306236 0.517465 0.437519
Si Si2 0.500000 0.428578 0.250000
Si Si3 0.449045 0.707601 0.083251
Si Si4 0.221211 0.632290 0.257465
Si Si5 0.507400 0.102058 0.434143
Si Si6 0.837429 0.179642 0.583026
O O1 0.423044 0.493721 0.263655
O O2 0.253793 0.573992 0.368963
O O3 0.258001 0.421008 0.545063
O O4 0.294102 0.580167 0.618338
O O5 0.432203 0.361654 0.456994
O O6 0.385497 0.692129 0.334360
O O7 0.564867 0.683676 0.945421
O O8 0.437392 0.813863 0.072196
O O9 0.105020 0.630546 0.393239
O O10 0.236079 0.739626 0.264604
O O11 0.500000 0.099801 0.250000
O O12 0.500000 0.000000 0.500000
#
# Coordination Sequence:
#
# PCOD9291763 Si02
#       6
#     8   4   8   8   8   8
#     4  12  25  45  71 101 146 187 236 288 348 423
#     4  12  24  44  72 108 136 188 238 290 356 406
#     4  10  22  42  71 103 138 180 237 291 343 418
#     4  11  26  45  67 108 140 182 236 291 354 412
#     4  11  24  43  70 100 138 186 230 286 350 418
#     4  10  23  44  69 102 141 186 230 285 353 418
#
# _framework density 26.724031
#
# number of rings (size 3 to 8) (size 9 to 14) (size 15 to 20)
#    0.000    1.091    0.909    4.909    7.636    2.182 
#    0.000    4.545    0.000    0.000    0.000    0.000 
#    0.000    0.000    0.000    0.000    0.000    0.000 
#
# Total GULP energy -122990.153083 kJ/mol
# GULP energy per Si atom -5590.461504 kJ/mol
# Density = 2.666321 g / cm^3
# Si number density = 26.724031 Si / 1000 Ang^3
#
#
#
# Elastic Constant Matrix: (Units=GPa)
#
#
# Indices 1 2 3 4 5 6 
#
# 1 118.1054 37.4854 -0.5880 0.0000 7.3108 0.0000
# 2 37.4854 187.2536 44.6271 0.0000 -2.7799 0.0000
# 3 -0.5880 44.6271 51.8392 0.0000 9.6402 0.0000
# 4 0.0000 0.0000 0.0000 120.0733 0.0000 22.1962
# 5 7.3108 -2.7799 9.6402 0.0000 31.3392 0.0000
# 6 0.0000 0.0000 0.0000 22.1962 0.0000 59.0852
#
#
#
# Elastic Compliance Matrix: (Units=1/GPa)
#
#
# Indices 1 2 3 4 5 6 
#
# 1 0.009547 -0.002691 0.003058 0.000000 -0.003406 0.000000
# 2 -0.002691 0.007670 -0.007294 0.000000 0.003552 0.000000
# 3 0.003058 -0.007294 0.027426 0.000000 -0.009797 0.000000
# 4 0.000000 0.000000 0.000000 0.008950 0.000000 -0.003362
# 5 -0.003406 0.003552 -0.009797 0.000000 0.036032 0.000000
# 6 0.000000 0.000000 0.000000 -0.003362 0.000000 0.018188
#
#
# Mechanical properties :
#
#
# Convention : Reuss Voigt Hill
#
# Bulk Modulus (GPa) = 32.47782 57.80528 45.14155
# Shear Modulus (GPa) = 37.89909 60.47780 49.18844
#
# Velocity S-wave (km/s) = 3.76994 4.76231 4.29488
# Velocity P-wave (km/s) = 5.57937 7.20534 6.44384
#
# Compressibility (1/GPa) = 0.03079024
#
# Stress axis : x y z
#
# Youngs Moduli (GPa) = 104.74439 130.37792 36.46155
#
# Poissons Ratio (x) = 0.35079 -0.11150
# Poissons Ratio (y) = 0.28182 0.26595
# Poissons Ratio (z) = -0.32031 0.95097
#
# Static dielectric constant tensor:
#      x y z
#    x 2.185890 0.000000 -0.042360 
#    y 0.000000 2.011430 0.000000 
#    z -0.042360 0.000000 2.142890 
# 
# From -- ./inp_files/47381.got.cif
#   From: 2010.05.17/outbox.cif.g08.bks.cpg/sg15_24_cif.got.tgz:47381.got - 2010.06.03 18:47:42.
