data_PCOD9291499
_publ_section_title
;
Structure prediction by ZEFSAII (Michael W. Deem and Ramdas Pophale) SiO2 
 PCOD9291499
Probable space group: C 2/C
;
_chemical_formula_sum "Si O2"
_cell_formula_units_Z 36
_cell_length_a 18.285032
_cell_length_b 14.210066
_cell_length_c 9.974390
_cell_angle_alpha 90.000000
_cell_angle_beta 140.902971
_cell_angle_gamma 90.000000
_cell_volume 1634.393494
_symmetry_space_group_name_H-M "C 2/C"
_symmetry_group_IT_number 15
_symmetry_cell_setting 'monoclinic'
loop_
_space_group_symop_operation_xyz
x,y,z
-x,y,1/2-z
-x,-y,-z
x,-y,1/2+z
1/2+x,1/2+y,z
1/2-x,1/2+y,1/2-z
1/2-x,1/2-y,-z
1/2+x,1/2-y,1/2+z
loop_
_atom_site_type_symbol
_atom_site_label
_atom_site_fract_x
_atom_site_fract_y
_atom_site_fract_z
Si Si1 0.425635 0.473679 0.524028
Si Si2 0.302664 0.357490 0.985593
Si Si3 0.578158 0.983392 0.743860
Si Si4 0.149653 0.787906 0.164379
Si Si5 0.500000 0.165784 0.750000
O O1 0.500000 0.430986 0.750000
O O2 0.500000 0.500000 0.500000
O O3 0.376418 0.568175 0.512083
O O4 0.332724 0.393191 0.362983
O O5 0.189819 0.418704 0.874385
O O6 0.260978 0.277518 0.825350
O O7 0.368813 0.308295 0.203266
O O8 0.500000 0.937421 0.750000
O O9 0.595184 0.090200 0.827562
O O10 0.500000 0.000000 0.500000
O O11 0.053573 0.730441 0.943884
#
# Coordination Sequence:
#
# PCOD9291499 Si02
#       5
#     8   8   8   8   4
#     4  12  26  48  70 102 147 191 236 299 363 428
#     4  11  25  48  69 105 143 189 244 291 366 431
#     4  10  22  42  73 100 143 183 235 303 359 413
#     4  11  24  44  71 103 140 188 244 284 361 434
#     4  10  22  42  68 108 138 182 246 288 356 434
#
# _framework density 22.026519
#
# number of rings (size 3 to 8) (size 9 to 14) (size 15 to 20)
#    0.667    0.444    5.556    0.000    6.222    0.000 
#   12.000    2.222    0.000    0.000    0.000    0.000 
#    0.000    0.000    0.000    0.000    0.000    0.000 
#
# Total GULP energy -100338.615834 kJ/mol
# GULP energy per Si atom -5574.367546 kJ/mol
# Density = 2.197639 g / cm^3
# Si number density = 22.026519 Si / 1000 Ang^3
#
#
#
# Elastic Constant Matrix: (Units=GPa)
#
#
# Indices 1 2 3 4 5 6 
#
# 1 79.5343 0.1466 26.8097 0.0000 -3.3789 0.0000
# 2 0.1466 121.0330 49.2060 0.0000 8.2870 0.0000
# 3 26.8097 49.2060 128.8410 0.0000 -20.7329 0.0000
# 4 0.0000 0.0000 0.0000 46.6645 0.0000 30.1780
# 5 -3.3789 8.2870 -20.7329 0.0000 17.0261 0.0000
# 6 0.0000 0.0000 0.0000 30.1780 0.0000 -54.7554
#
#
#
# Elastic Compliance Matrix: (Units=1/GPa)
#
#
# Indices 1 2 3 4 5 6 
#
# 1 0.013816 0.001863 -0.004093 0.000000 -0.003149 0.000000
# 2 0.001863 0.012291 -0.007443 0.000000 -0.014677 0.000000
# 3 -0.004093 -0.007443 0.014810 0.000000 0.020845 0.000000
# 4 0.000000 0.000000 0.000000 0.015799 0.000000 0.008707
# 5 -0.003149 -0.014677 0.020845 0.000000 0.090635 0.000000
# 6 0.000000 0.000000 0.000000 0.008707 0.000000 -0.013464
#
#
# Mechanical properties :
#
#
# Convention : Reuss Voigt Hill
#
# Bulk Modulus (GPa) = 46.36105 53.52590 49.94348
# Shear Modulus (GPa) = 31.16748 18.67010 24.91879
#
# Velocity S-wave (km/s) = 3.76573 2.91455 3.36714
# Velocity P-wave (km/s) = 6.32464 5.97324 6.15145
#
# Compressibility (1/GPa) = 0.02156983
#
# Stress axis : x y z
#
# Youngs Moduli (GPa) = 72.38166 81.36046 67.52048
#
# Poissons Ratio (x) = -0.15157 0.27636
# Poissons Ratio (y) = -0.13484 0.50259
# Poissons Ratio (z) = 0.29626 0.60560
#
# Static dielectric constant tensor:
#      x y z
#    x 1.809130 0.000000 0.001730 
#    y 0.000000 1.806800 0.000000 
#    z 0.001730 0.000000 1.859630 
# 
# From -- ./inp_files/47325.got.cif
#   From: 2010.05.17/outbox.cif.g08.bks.cpg/sg15_24_cif.got.tgz:47325.got - 2010.06.03 18:47:42.
