data_PCOD9291575
_publ_section_title
;
Structure prediction by ZEFSAII (Michael W. Deem and Ramdas Pophale) SiO2 
 PCOD9291575
Probable space group: C 2/C
;
_chemical_formula_sum "Si O2"
_cell_formula_units_Z 56
_cell_length_a 8.310302
_cell_length_b 15.384699
_cell_length_c 17.771748
_cell_angle_alpha 90.000000
_cell_angle_beta 102.351351
_cell_angle_gamma 90.000000
_cell_volume 2219.554070
_symmetry_space_group_name_H-M "C 2/C"
_symmetry_group_IT_number 15
_symmetry_cell_setting 'monoclinic'
loop_
_space_group_symop_operation_xyz
x,y,z
-x,y,1/2-z
-x,-y,-z
x,-y,1/2+z
1/2+x,1/2+y,z
1/2-x,1/2+y,1/2-z
1/2-x,1/2-y,-z
1/2+x,1/2-y,1/2+z
loop_
_atom_site_type_symbol
_atom_site_label
_atom_site_fract_x
_atom_site_fract_y
_atom_site_fract_z
Si Si1 0.897357 0.713601 0.808400
Si Si2 0.487300 0.389515 0.050308
Si Si3 0.338002 0.163852 0.541044
Si Si4 0.181862 0.519595 0.734014
Si Si5 0.420210 0.750205 0.664913
Si Si6 0.472312 0.079448 0.405082
Si Si7 0.155401 0.050241 0.104917
O O1 0.809356 0.624387 0.770474
O O2 0.761513 0.777768 0.827491
O O3 0.000000 0.751754 0.750000
O O4 0.022114 0.686140 0.885534
O O5 0.684337 0.377838 0.068556
O O6 0.409768 0.324309 0.101908
O O7 0.491080 0.488938 0.076610
O O8 0.410198 0.375619 0.960488
O O9 0.250000 0.250000 0.500000
O O10 0.418511 0.106713 0.483000
O O11 0.304870 0.471238 0.803300
O O12 0.000000 0.502639 0.750000
O O13 0.162276 0.480705 0.648860
O O14 0.500000 0.719644 0.750000
O O15 0.519004 0.830219 0.640683
O O16 0.657803 0.041531 0.413375
#
# Coordination Sequence:
#
# PCOD9291575 Si02
#       7
#     8   8   8   8   8   8   8
#     4  11  25  44  73  97 133 183 230 278 338 415
#     4  11  24  42  66  99 137 177 220 286 336 412
#     4  12  25  43  63  97 142 176 226 279 334 409
#     4   9  19  42  68  95 129 172 228 275 329 411
#     4  12  24  42  71 100 135 180 230 283 347 406
#     4  11  24  42  69  95 135 181 224 284 341 403
#     4  10  22  42  68  98 135 172 229 281 341 401
#
# _framework density 25.230294000000001
#
# number of rings (size 3 to 8) (size 9 to 14) (size 15 to 20)
#    0.000    1.143    1.429    6.429    2.000    5.714 
#    0.000    2.143    0.000    0.857    0.000    0.000 
#    0.000    0.000    0.000    0.000    0.000    0.000 
#
# Total GULP energy -156376.523452 kJ/mol
# GULP energy per Si atom -5584.875838 kJ/mol
# Density = 2.517287 g / cm^3
# Si number density = 25.230294 Si / 1000 Ang^3
#
#
#
# Elastic Constant Matrix: (Units=GPa)
#
#
# Indices 1 2 3 4 5 6 
#
# 1 81.2059 -13.6101 17.8043 0.0000 -5.3648 0.0000
# 2 -13.6101 33.9385 17.6024 0.0000 -5.9268 0.0000
# 3 17.8043 17.6024 102.0079 0.0000 20.2829 0.0000
# 4 0.0000 0.0000 0.0000 27.3096 0.0000 9.8819
# 5 -5.3648 -5.9268 20.2829 0.0000 46.5709 0.0000
# 6 0.0000 0.0000 0.0000 9.8819 0.0000 29.5960
#
#
#
# Elastic Compliance Matrix: (Units=1/GPa)
#
#
# Indices 1 2 3 4 5 6 
#
# 1 0.015587 0.010093 -0.005556 0.000000 0.005500 0.000000
# 2 0.010093 0.041243 -0.011116 0.000000 0.011253 0.000000
# 3 -0.005556 -0.011116 0.014341 0.000000 -0.008301 0.000000
# 4 0.000000 0.000000 0.000000 0.041649 0.000000 -0.013906
# 5 0.005500 0.011253 -0.008301 0.000000 0.027153 0.000000
# 6 0.000000 0.000000 0.000000 -0.013906 0.000000 0.038432
#
#
# Mechanical properties :
#
#
# Convention : Reuss Voigt Hill
#
# Bulk Modulus (GPa) = 17.23716 28.97171 23.10443
# Shear Modulus (GPa) = 23.70775 33.71900 28.71337
#
# Velocity S-wave (km/s) = 3.06870 3.65971 3.37716
# Velocity P-wave (km/s) = 4.40485 5.41903 4.93804
#
# Compressibility (1/GPa) = 0.05801420
#
# Stress axis : x y z
#
# Youngs Moduli (GPa) = 64.15450 24.24660 69.72775
#
# Poissons Ratio (x) = -0.24472 0.38739
# Poissons Ratio (y) = -0.64750 0.77508
# Poissons Ratio (z) = 0.35643 0.26952
#
# Static dielectric constant tensor:
#      x y z
#    x 1.973350 0.000000 -0.033630 
#    y 0.000000 2.648690 0.000000 
#    z -0.033630 0.000000 2.048690 
# 
# From -- ./inp_files/191038.got.cif
#   From: 2010.05.17/outbox.cif.g08.bks.cpg/sg15_96_cif.got.tgz:191038.got - 2010.06.03 18:47:42.
