data_PCOD9291262
_publ_section_title
;
Structure prediction by ZEFSAII (Michael W. Deem and Ramdas Pophale) SiO2 
 PCOD9291262
Probable space group: C 2/C
;
_chemical_formula_sum "Si O2"
_cell_formula_units_Z 44
_cell_length_a 15.550986
_cell_length_b 8.271240
_cell_length_c 17.493101
_cell_angle_alpha 90.000000
_cell_angle_beta 48.604747
_cell_angle_gamma 90.000000
_cell_volume 1687.923076
_symmetry_space_group_name_H-M "C 2/C"
_symmetry_group_IT_number 15
_symmetry_cell_setting 'monoclinic'
loop_
_space_group_symop_operation_xyz
x,y,z
-x,y,1/2-z
-x,-y,-z
x,-y,1/2+z
1/2+x,1/2+y,z
1/2-x,1/2+y,1/2-z
1/2-x,1/2-y,-z
1/2+x,1/2-y,1/2+z
loop_
_atom_site_type_symbol
_atom_site_label
_atom_site_fract_x
_atom_site_fract_y
_atom_site_fract_z
Si Si1 0.941044 0.782686 0.904879
Si Si2 0.843165 0.010000 0.762650
Si Si3 0.157268 0.110586 0.562504
Si Si4 0.812925 0.351777 0.751649
Si Si5 0.500000 0.028271 0.750000
Si Si6 0.942442 0.174318 0.023737
O O1 0.982974 0.717717 0.962499
O O2 0.928597 0.642234 0.850554
O O3 0.054043 0.884845 0.810784
O O4 0.843259 0.921882 0.966161
O O5 0.856834 0.077593 0.839835
O O6 0.842889 0.169987 0.712560
O O7 0.722726 0.934937 0.807168
O O8 0.250000 0.250000 0.500000
O O9 0.065151 0.197908 0.561976
O O10 0.907870 0.432859 0.751095
O O11 0.689988 0.339703 0.869351
O O12 0.000000 0.000000 0.000000
#
# Coordination Sequence:
#
# PCOD9291262 Si02
#       6
#     8   8   8   8   4   8
#     4  10  22  42  66  89 128 181 212 261 333 392
#     4  11  22  41  67  91 127 172 222 263 325 395
#     4  11  20  35  69  94 127 163 215 266 335 378
#     4  11  24  39  65  96 127 170 224 269 315 393
#     4  12  24  38  66  94 128 166 228 264 316 392
#     4   9  20  39  61  89 123 167 206 260 324 386
#
# _framework density 26.067537999999999
#
# number of rings (size 3 to 8) (size 9 to 14) (size 15 to 20)
#    0.000    1.455    3.636    2.182    2.545    0.000 
#    0.000    3.636    4.000    3.273    0.000    0.000 
#    0.000    0.000    0.000    0.000    0.000    0.000 
#
# Total GULP energy -122699.118975 kJ/mol
# GULP energy per Si atom -5577.232681 kJ/mol
# Density = 2.600821 g / cm^3
# Si number density = 26.067538 Si / 1000 Ang^3
#
#
#
# Elastic Constant Matrix: (Units=GPa)
#
#
# Indices 1 2 3 4 5 6 
#
# 1 160.4694 49.9196 48.0926 0.0000 20.0494 0.0000
# 2 49.9196 87.5448 13.3707 0.0000 -4.3708 0.0000
# 3 48.0926 13.3707 69.3462 0.0000 -2.5542 0.0000
# 4 0.0000 0.0000 0.0000 33.5482 0.0000 -2.7868
# 5 20.0494 -4.3708 -2.5542 0.0000 60.7766 0.0000
# 6 0.0000 0.0000 0.0000 -2.7868 0.0000 45.5442
#
#
#
# Elastic Compliance Matrix: (Units=1/GPa)
#
#
# Indices 1 2 3 4 5 6 
#
# 1 0.010162 -0.005043 -0.006222 0.000000 -0.003976 0.000000
# 2 -0.005043 0.014306 0.000839 0.000000 0.002728 0.000000
# 3 -0.006222 0.000839 0.018680 0.000000 0.002898 0.000000
# 4 0.000000 0.000000 0.000000 0.029960 0.000000 0.001833
# 5 -0.003976 0.002728 0.002898 0.000000 0.018083 0.000000
# 6 0.000000 0.000000 0.000000 0.001833 0.000000 0.022069
#
#
# Mechanical properties :
#
#
# Convention : Reuss Voigt Hill
#
# Bulk Modulus (GPa) = 44.84694 60.01402 52.43048
# Shear Modulus (GPa) = 35.32489 41.70563 38.51526
#
# Velocity S-wave (km/s) = 3.68520 4.00422 3.84802
# Velocity P-wave (km/s) = 5.94551 6.66715 6.31664
#
# Compressibility (1/GPa) = 0.02229806
#
# Stress axis : x y z
#
# Youngs Moduli (GPa) = 98.40717 69.89975 53.53304
#
# Poissons Ratio (x) = 0.35249 0.33306
# Poissons Ratio (y) = 0.49625 -0.04493
# Poissons Ratio (z) = 0.61225 -0.05867
#
# Static dielectric constant tensor:
#      x y z
#    x 2.319860 0.000000 -0.150580 
#    y 0.000000 2.017920 0.000000 
#    z -0.150580 0.000000 2.381420 
# 
# From -- ./inp_files/202649.got.cif
#   From: 2010.05.17/outbox.cif.g08.bks.cpg/sg15_102_cif.got.tgz:202649.got - 2010.06.03 18:47:42.
