data_PCOD9291241
_publ_section_title
;
Structure prediction by ZEFSAII (Michael W. Deem and Ramdas Pophale) SiO2 
 PCOD9291241
Probable space group: C 2/C
;
_chemical_formula_sum "Si O2"
_cell_formula_units_Z 48
_cell_length_a 6.105785
_cell_length_b 27.485868
_cell_length_c 15.542551
_cell_angle_alpha 90.000000
_cell_angle_beta 121.427337
_cell_angle_gamma 90.000000
_cell_volume 2225.748491
_symmetry_space_group_name_H-M "C 2/C"
_symmetry_group_IT_number 15
_symmetry_cell_setting 'monoclinic'
loop_
_space_group_symop_operation_xyz
x,y,z
-x,y,1/2-z
-x,-y,-z
x,-y,1/2+z
1/2+x,1/2+y,z
1/2-x,1/2+y,1/2-z
1/2-x,1/2-y,-z
1/2+x,1/2-y,1/2+z
loop_
_atom_site_type_symbol
_atom_site_label
_atom_site_fract_x
_atom_site_fract_y
_atom_site_fract_z
Si Si1 0.088779 0.641180 0.025461
Si Si2 0.527701 0.372583 0.346591
Si Si3 0.781943 0.028092 0.837345
Si Si4 0.033834 0.286337 0.858756
Si Si5 0.252548 0.964682 0.964370
Si Si6 0.895961 0.205214 0.957440
O O1 0.242744 0.591294 0.063989
O O2 0.036090 0.663268 0.108495
O O3 0.200297 0.685804 0.990075
O O4 0.827293 0.622491 0.927359
O O5 0.500000 0.345808 0.250000
O O6 0.367886 0.422073 0.309356
O O7 0.426803 0.342487 0.405861
O O8 0.500000 0.012941 0.750000
O O9 0.778505 0.037343 0.938902
O O10 0.008040 0.989821 0.870626
O O11 0.000000 0.285243 0.750000
O O12 0.867429 0.246370 0.877658
O O13 0.337264 0.279957 0.941591
O O14 0.500000 0.000000 0.000000
#
# Coordination Sequence:
#
# PCOD9291241 Si02
#       6
#     8   8   8   8   8   8
#     4  11  22  42  68  94 136 184 227 276 346 406
#     4  11  22  37  67 100 133 169 223 289 340 408
#     4  11  24  40  66  97 134 178 232 285 346 409
#     4  10  23  43  68  97 139 176 227 281 338 415
#     4  11  23  43  66  93 138 183 224 288 342 403
#     4  10  22  42  66 101 132 177 220 282 348 400
#
# _framework density 21.565778000000002
#
# number of rings (size 3 to 8) (size 9 to 14) (size 15 to 20)
#    0.000    1.333    3.333    2.000    0.000    0.667 
#    0.000    6.667    0.000    0.000    0.000    1.167 
#    0.000    0.000    0.000    0.000    0.000    0.000 
#
# Total GULP energy -133945.448861 kJ/mol
# GULP energy per Si atom -5581.060369 kJ/mol
# Density = 2.151669 g / cm^3
# Si number density = 21.565778 Si / 1000 Ang^3
#
#
#
# Elastic Constant Matrix: (Units=GPa)
#
#
# Indices 1 2 3 4 5 6 
#
# 1 94.2421 41.2255 37.3377 0.0000 -3.3567 0.0000
# 2 41.2255 94.8340 34.2721 0.0000 10.4421 0.0000
# 3 37.3377 34.2721 119.2973 0.0000 -7.3205 0.0000
# 4 0.0000 0.0000 0.0000 106.3342 0.0000 34.0094
# 5 -3.3567 10.4421 -7.3205 0.0000 35.2039 0.0000
# 6 0.0000 0.0000 0.0000 34.0094 0.0000 32.0853
#
#
#
# Elastic Compliance Matrix: (Units=1/GPa)
#
#
# Indices 1 2 3 4 5 6 
#
# 1 0.014150 -0.005431 -0.002722 0.000000 0.002394 0.000000
# 2 -0.005431 0.014513 -0.002801 0.000000 -0.005405 0.000000
# 3 -0.002722 -0.002801 0.010204 0.000000 0.002693 0.000000
# 4 0.000000 0.000000 0.000000 0.014228 0.000000 -0.015081
# 5 0.002394 -0.005405 0.002693 0.000000 0.030798 0.000000
# 6 0.000000 0.000000 0.000000 -0.015081 0.000000 0.047152
#
#
# Mechanical properties :
#
#
# Convention : Reuss Voigt Hill
#
# Bulk Modulus (GPa) = 58.96348 59.33823 59.15085
# Shear Modulus (GPa) = 31.52443 47.76054 39.64248
#
# Velocity S-wave (km/s) = 3.82747 4.71111 4.29209
# Velocity P-wave (km/s) = 6.85079 7.56091 7.21459
#
# Compressibility (1/GPa) = 0.01695965
#
# Stress axis : x y z
#
# Youngs Moduli (GPa) = 70.66914 68.90191 97.99884
#
# Poissons Ratio (x) = 0.37424 0.26670
# Poissons Ratio (y) = 0.38384 0.27451
# Poissons Ratio (z) = 0.19233 0.19301
#
# Static dielectric constant tensor:
#      x y z
#    x 1.860970 0.000000 0.013700 
#    y 0.000000 1.812660 0.000000 
#    z 0.013700 0.000000 1.767090 
# 
# From -- ./inp_files/130937.got.cif
#   From: 2010.05.17/outbox.cif.g08.bks.cpg/sg15_66_cif.got.tgz:130937.got - 2010.06.03 18:47:42.
