data_PCOD9291119
_publ_section_title
;
Structure prediction by ZEFSAII (Michael W. Deem and Ramdas Pophale) SiO2 
 PCOD9291119
Probable space group: C 2/C
;
_chemical_formula_sum "Si O2"
_cell_formula_units_Z 64
_cell_length_a 27.115442
_cell_length_b 9.024539
_cell_length_c 16.908118
_cell_angle_alpha 90.000000
_cell_angle_beta 44.944512
_cell_angle_gamma 90.000000
_cell_volume 2922.812709
_symmetry_space_group_name_H-M "C 2/C"
_symmetry_group_IT_number 15
_symmetry_cell_setting 'monoclinic'
loop_
_space_group_symop_operation_xyz
x,y,z
-x,y,1/2-z
-x,-y,-z
x,-y,1/2+z
1/2+x,1/2+y,z
1/2-x,1/2+y,1/2-z
1/2-x,1/2-y,-z
1/2+x,1/2-y,1/2+z
loop_
_atom_site_type_symbol
_atom_site_label
_atom_site_fract_x
_atom_site_fract_y
_atom_site_fract_z
Si Si1 0.351642 0.971760 0.760073
Si Si2 0.662664 0.254848 0.463808
Si Si3 0.450375 0.636353 0.045697
Si Si4 0.802236 0.097194 0.060997
Si Si5 0.564411 0.246263 0.119165
Si Si6 0.949565 0.634472 0.029896
Si Si7 0.307388 0.269829 0.724642
Si Si8 0.922226 0.582652 0.834155
O O1 0.334100 0.104208 0.716735
O O2 0.402201 0.027015 0.770560
O O3 0.276285 0.926779 0.880477
O O4 0.396008 0.847655 0.664245
O O5 0.667392 0.433290 0.450498
O O6 0.605062 0.167177 0.477813
O O7 0.738920 0.199900 0.352583
O O8 0.637286 0.201633 0.577664
O O9 0.448513 0.701654 0.957501
O O10 0.489836 0.751085 0.055445
O O11 0.500000 0.500000 0.000000
O O12 0.371944 0.620323 0.164432
O O13 0.791437 0.201722 0.150575
O O14 0.862407 0.174967 0.941710
O O15 0.500000 0.285543 0.250000
O O16 0.574657 0.069270 0.116688
O O17 0.000000 0.500000 0.000000
O O18 0.000000 0.647346 0.750000
#
# Coordination Sequence:
#
# PCOD9291119 Si02
#       8
#     8   8   8   8   8   8   8   8
#     4  11  23  42  68 100 132 175 227 270 336 409
#     4  11  24  41  67  97 133 179 219 283 337 391
#     4  11  23  41  65 100 130 169 228 275 332 403
#     4  10  23  42  67  98 134 170 225 274 339 402
#     4  10  22  45  65  92 138 175 210 282 336 394
#     4  12  20  37  68  95 121 173 230 270 325 390
#     4  10  22  42  64  95 138 168 217 286 332 391
#     4  11  25  44  67  95 135 175 224 276 334 404
#
# _framework density 21.896716000000001
#
# number of rings (size 3 to 8) (size 9 to 14) (size 15 to 20)
#    0.000    1.250    2.500    4.500    1.750    3.000 
#    6.750    0.000    0.000    0.000    0.000    0.000 
#    0.000    0.000    0.000    0.000    0.000    0.000 
#
# Total GULP energy -178247.725866 kJ/mol
# GULP energy per Si atom -5570.241433 kJ/mol
# Density = 2.184688 g / cm^3
# Si number density = 21.896716 Si / 1000 Ang^3
#
#
#
# Elastic Constant Matrix: (Units=GPa)
#
#
# Indices 1 2 3 4 5 6 
#
# 1 65.0550 5.6066 6.8462 0.0014 -18.9505 -0.0004
# 2 5.6066 52.0514 25.1720 0.0026 -15.2677 -0.0033
# 3 6.8462 25.1720 110.9467 0.0026 -30.5135 -0.0017
# 4 0.0014 0.0026 0.0026 28.0278 -0.0012 -2.3786
# 5 -18.9505 -15.2677 -30.5135 -0.0012 44.1961 0.0005
# 6 -0.0004 -0.0033 -0.0017 -2.3786 0.0005 23.6527
#
#
#
# Elastic Compliance Matrix: (Units=1/GPa)
#
#
# Indices 1 2 3 4 5 6 
#
# 1 0.017700 -0.000030 0.001233 -0.000001 0.008431 0.000000
# 2 -0.000030 0.022525 -0.003669 -0.000001 0.005235 0.000003
# 3 0.001233 -0.003669 0.011809 0.000000 0.007414 0.000000
# 4 -0.000001 -0.000001 0.000000 0.035986 0.000000 0.003619
# 5 0.008431 0.005235 0.007414 0.000000 0.033169 0.000001
# 6 0.000000 0.000003 0.000000 0.003619 0.000001 0.042642
#
#
# Mechanical properties :
#
#
# Convention : Reuss Voigt Hill
#
# Bulk Modulus (GPa) = 21.23019 33.70030 27.46524
# Shear Modulus (GPa) = 27.10567 31.87054 29.48810
#
# Velocity S-wave (km/s) = 3.52218 3.81923 3.67371
# Velocity P-wave (km/s) = 5.12422 5.90531 5.52858
#
# Compressibility (1/GPa) = 0.04710275
#
# Stress axis : x y z
#
# Youngs Moduli (GPa) = 56.49636 44.39526 84.68282
#
# Poissons Ratio (x) = 0.00133 -0.10443
# Poissons Ratio (y) = 0.00170 0.31068
# Poissons Ratio (z) = -0.06967 0.16288
#
# Static dielectric constant tensor:
#      x y z
#    x 1.832580 0.000000 0.031400 
#    y 0.000000 1.785720 0.000000 
#    z 0.031400 0.000000 1.853090 
# 
# From -- ./inp_files/224594.got.cif
#   From: 2010.05.17/outbox.cif.g08.bks.cpg/sg15_113_cif.got.tgz:224594.got - 2010.06.03 18:47:42.
