data_PCOD9291087
_publ_section_title
;
Structure prediction by ZEFSAII (Michael W. Deem and Ramdas Pophale) SiO2 
 PCOD9291087
Probable space group: C 2/C
;
_chemical_formula_sum "Si O2"
_cell_formula_units_Z 64
_cell_length_a 23.759417
_cell_length_b 19.871313
_cell_length_c 18.763720
_cell_angle_alpha 90.000000
_cell_angle_beta 21.399757
_cell_angle_gamma 90.000000
_cell_volume 3232.383040
_symmetry_space_group_name_H-M "C 2/C"
_symmetry_group_IT_number 15
_symmetry_cell_setting 'monoclinic'
loop_
_space_group_symop_operation_xyz
x,y,z
-x,y,1/2-z
-x,-y,-z
x,-y,1/2+z
1/2+x,1/2+y,z
1/2-x,1/2+y,1/2-z
1/2-x,1/2-y,-z
1/2+x,1/2-y,1/2+z
loop_
_atom_site_type_symbol
_atom_site_label
_atom_site_fract_x
_atom_site_fract_y
_atom_site_fract_z
Si Si1 0.394962 0.522606 0.690739
Si Si2 0.832493 0.419553 0.462034
Si Si3 0.229477 0.780564 0.602470
Si Si4 0.297769 0.671323 0.789985
Si Si5 0.830709 0.056409 0.485587
Si Si6 0.122425 0.175392 0.967610
Si Si7 0.880026 0.918708 0.455897
Si Si8 0.049834 0.778161 0.109006
O O1 0.500000 0.500000 0.500000
O O2 0.294737 0.590337 0.798351
O O3 0.520887 0.546791 0.599308
O O4 0.284206 0.465487 0.854477
O O5 0.838641 0.345166 0.487865
O O6 0.765949 0.407995 0.461446
O O7 0.000000 0.450016 0.250000
O O8 0.250000 0.750000 0.500000
O O9 0.270206 0.725685 0.613916
O O10 0.055555 0.807777 0.808468
O O11 0.357618 0.683740 0.639817
O O12 0.411380 0.700588 0.718373
O O13 0.137346 0.710586 0.984989
O O14 0.842005 0.100889 0.543141
O O15 0.000000 0.051427 0.250000
O O16 0.768223 0.979879 0.567291
O O17 0.834043 0.843271 0.530709
O O18 0.000000 0.907985 0.250000
O O19 0.000000 0.769506 0.250000
#
# Coordination Sequence:
#
# PCOD9291087 Si02
#       8
#     8   8   8   8   8   8   8   8
#     4  11  22  40  65  91 125 169 218 256 312 388
#     4  12  24  39  61  99 129 160 217 273 321 371
#     4  12  22  38  60  93 127 174 213 259 313 386
#     4  11  24  41  64  96 124 166 206 267 324 372
#     4  11  18  38  65  91 118 170 216 250 308 395
#     4  12  23  38  62  91 131 166 214 263 317 387
#     4   9  17  35  65  88 108 160 214 253 297 383
#     4  10  22  42  64  91 124 161 212 261 318 383
#
# _framework density 19.799634000000001
#
# number of rings (size 3 to 8) (size 9 to 14) (size 15 to 20)
#    0.000    1.000    5.000    3.750    0.000    1.500 
#    2.250    0.000    0.000    1.500    0.000    0.000 
#    0.000    0.000    0.000    0.000    0.000    0.000 
#
# Total GULP energy -178411.302714 kJ/mol
# GULP energy per Si atom -5575.353210 kJ/mol
# Density = 1.975457 g / cm^3
# Si number density = 19.799634 Si / 1000 Ang^3
#
#
#
# Elastic Constant Matrix: (Units=GPa)
#
#
# Indices 1 2 3 4 5 6 
#
# 1 89.0722 5.2958 22.9660 -0.0040 24.7977 -0.0002
# 2 5.2958 117.9820 26.1247 -0.0056 9.5117 -0.0002
# 3 22.9660 26.1247 72.4055 0.0040 18.2068 -0.0004
# 4 -0.0040 -0.0056 0.0040 20.8466 0.0027 -2.7636
# 5 24.7977 9.5117 18.2068 0.0027 31.2213 -0.0008
# 6 -0.0002 -0.0002 -0.0004 -2.7636 -0.0008 29.0959
#
#
#
# Elastic Compliance Matrix: (Units=1/GPa)
#
#
# Indices 1 2 3 4 5 6 
#
# 1 0.014713 0.000692 -0.002256 0.000005 -0.010581 0.000000
# 2 0.000692 0.009272 -0.003183 0.000003 -0.001518 0.000000
# 3 -0.002256 -0.003183 0.017555 -0.000004 -0.007476 0.000000
# 4 0.000005 0.000003 -0.000004 0.048581 -0.000007 0.004614
# 5 -0.010581 -0.001518 -0.007476 -0.000007 0.045256 0.000000
# 6 0.000000 0.000000 0.000000 0.004614 0.000000 0.034807
#
#
# Mechanical properties :
#
#
# Convention : Reuss Voigt Hill
#
# Bulk Modulus (GPa) = 31.20469 43.13698 37.17084
# Shear Modulus (GPa) = 26.26593 31.23763 28.75178
#
# Velocity S-wave (km/s) = 3.64619 3.97632 3.81483
# Velocity P-wave (km/s) = 5.78970 6.55100 6.18208
#
# Compressibility (1/GPa) = 0.03204646
#
# Stress axis : x y z
#
# Youngs Moduli (GPa) = 67.96619 107.85092 56.96382
#
# Poissons Ratio (x) = -0.07465 0.12850
# Poissons Ratio (y) = -0.04704 0.18133
# Poissons Ratio (z) = 0.15332 0.34332
#
# Static dielectric constant tensor:
#      x y z
#    x 1.717360 -0.000010 -0.000170 
#    y -0.000010 1.779900 0.000000 
#    z -0.000170 0.000000 1.709290 
# 
# From -- ./inp_files/220272.got.cif
#   From: 2010.05.17/outbox.cif.g08.bks.cpg/sg15_111_cif.got.tgz:220272.got - 2010.06.03 18:47:42.
