data_PCOD9291033
_publ_section_title
;
Structure prediction by ZEFSAII (Michael W. Deem and Ramdas Pophale) SiO2 
 PCOD9291033
Probable space group: C 2/C
;
_chemical_formula_sum "Si O2"
_cell_formula_units_Z 28
_cell_length_a 18.128677
_cell_length_b 13.380569
_cell_length_c 5.502343
_cell_angle_alpha 90.000000
_cell_angle_beta 59.786351
_cell_angle_gamma 90.000000
_cell_volume 1153.400071
_symmetry_space_group_name_H-M "C 2/C"
_symmetry_group_IT_number 15
_symmetry_cell_setting 'monoclinic'
loop_
_space_group_symop_operation_xyz
x,y,z
-x,y,1/2-z
-x,-y,-z
x,-y,1/2+z
1/2+x,1/2+y,z
1/2-x,1/2+y,1/2-z
1/2-x,1/2-y,-z
1/2+x,1/2-y,1/2+z
loop_
_atom_site_type_symbol
_atom_site_label
_atom_site_fract_x
_atom_site_fract_y
_atom_site_fract_z
Si Si1 0.243215 0.120498 0.114788
Si Si2 0.812837 0.395534 0.999179
Si Si3 0.458083 0.347054 0.567323
Si Si4 0.000000 0.350109 0.750000
O O1 0.285744 0.157268 0.294683
O O2 0.141990 0.132087 0.275117
O O3 0.284467 0.158250 0.794958
O O4 0.266457 0.002256 0.076104
O O5 0.914622 0.409739 0.834420
O O6 0.500000 0.379756 0.750000
O O7 0.477378 0.228411 0.501982
O O8 0.500000 0.390185 0.250000
#
# Coordination Sequence:
#
# PCOD9291033 Si02
#       4
#     8   8   8   4
#     4  10  22  42  63  95 124 167 209 256 309 372
#     4  10  23  40  65  93 126 163 210 258 309 369
#     4  10  23  42  64  93 128 166 206 257 313 373
#     4  10  26  40  66  94 130 160 208 260 318 364
#
# _framework density 24.276052
#
# number of rings (size 3 to 8) (size 9 to 14) (size 15 to 20)
#    0.857    1.143    0.000    1.714    4.000    6.857 
#    0.000   17.143    0.000    0.000    0.000    0.000 
#    0.000    0.000    0.000    0.000    0.000    0.000 
#
# Total GULP energy -78259.984944 kJ/mol
# GULP energy per Si atom -5589.998925 kJ/mol
# Density = 2.422080 g / cm^3
# Si number density = 24.276052 Si / 1000 Ang^3
#
#
#
# Elastic Constant Matrix: (Units=GPa)
#
#
# Indices 1 2 3 4 5 6 
#
# 1 234.3206 10.2411 146.9696 0.0000 -10.3988 0.0000
# 2 10.2411 61.1026 16.9031 0.0000 -7.2192 0.0000
# 3 146.9696 16.9031 189.2287 0.0000 15.9890 0.0000
# 4 0.0000 0.0000 0.0000 -233.2023 0.0000 -116.6216
# 5 -10.3988 -7.2192 15.9890 0.0000 78.5027 0.0000
# 6 0.0000 0.0000 0.0000 -116.6216 0.0000 -507.0507
#
#
#
# Elastic Compliance Matrix: (Units=1/GPa)
#
#
# Indices 1 2 3 4 5 6 
#
# 1 0.008856 0.000822 -0.007181 0.000000 0.002711 0.000000
# 2 0.000822 0.017134 -0.002352 0.000000 0.002164 0.000000
# 3 -0.007181 -0.002352 0.011366 0.000000 -0.003482 0.000000
# 4 0.000000 0.000000 0.000000 -0.004845 0.000000 0.001114
# 5 0.002711 0.002164 -0.003482 0.000000 0.014006 0.000000
# 6 0.000000 0.000000 0.000000 0.001114 0.000000 -0.002229
#
#
# Mechanical properties :
#
#
# Convention : Reuss Voigt Hill
#
# Bulk Modulus (GPa) = 50.16170 92.54216 71.35193
# Shear Modulus (GPa) = 73.14826 -111.64753 -19.24963
#
# Velocity S-wave (km/s) = 5.49520 -6.78901 -2.81899
# Velocity P-wave (km/s) = 7.80839 4.82190 4.34282
#
# Compressibility (1/GPa) = 0.01993553
#
# Stress axis : x y z
#
# Youngs Moduli (GPa) = 112.91898 58.36212 87.98099
#
# Poissons Ratio (x) = -0.04800 0.63177
# Poissons Ratio (y) = -0.09287 0.20695
# Poissons Ratio (z) = 0.81084 0.13728
#
# Static dielectric constant tensor:
#      x y z
#    x 1.849990 0.000000 0.075000 
#    y 0.000000 2.109380 0.000000 
#    z 0.075000 0.000000 1.994410 
# 
# From -- ./inp_files/3516.got.cif
#   From: 2010.05.17/outbox.cif.g08.bks.cpg/sg15_2_cif.got.tgz:3516.got - 2010.06.03 18:47:42.
