data_PCOD9291692
_publ_section_title
;
Structure prediction by ZEFSAII (Michael W. Deem and Ramdas Pophale) SiO2 
 PCOD9291692
Probable space group: C 2/C
;
_chemical_formula_sum "Si O2"
_cell_formula_units_Z 40
_cell_length_a 11.184663
_cell_length_b 18.311794
_cell_length_c 8.053562
_cell_angle_alpha 90.000000
_cell_angle_beta 92.972539
_cell_angle_gamma 90.000000
_cell_volume 1647.240716
_symmetry_space_group_name_H-M "C 2/C"
_symmetry_group_IT_number 15
_symmetry_cell_setting 'monoclinic'
loop_
_space_group_symop_operation_xyz
x,y,z
-x,y,1/2-z
-x,-y,-z
x,-y,1/2+z
1/2+x,1/2+y,z
1/2-x,1/2+y,1/2-z
1/2-x,1/2-y,-z
1/2+x,1/2-y,1/2+z
loop_
_atom_site_type_symbol
_atom_site_label
_atom_site_fract_x
_atom_site_fract_y
_atom_site_fract_z
Si Si1 0.000000 0.435310 0.750000
Si Si2 0.589755 0.743137 0.113498
Si Si3 0.747613 0.893637 0.902113
Si Si4 0.250348 0.321823 0.371029
Si Si5 0.775222 0.466345 0.916609
Si Si6 0.000000 0.782585 0.250000
O O1 0.104739 0.391929 0.854034
O O2 0.088348 0.478919 0.636054
O O3 0.500000 0.713426 0.250000
O O4 0.692288 0.683813 0.084838
O O5 0.653605 0.807922 0.219002
O O6 0.527780 0.755362 0.931104
O O7 0.797320 0.932215 0.739532
O O8 0.771922 0.955196 0.037766
O O9 0.250000 0.250000 0.500000
O O10 0.222298 0.398983 0.454835
O O11 0.379863 0.324472 0.294211
#
# Coordination Sequence:
#
# PCOD9291692 Si02
#       6
#     4   8   8   8   8   4
#     4   8  20  41  68 108 148 189 250 304 378 445
#     4  12  26  52  75 108 154 197 258 315 375 454
#     4  10  22  42  70 106 150 193 244 312 371 452
#     4  12  24  50  73 108 151 196 252 314 378 452
#     4  10  22  42  72 110 153 195 248 309 381 449
#     4  12  28  47  76 110 144 201 252 310 384 445
#
# _framework density 24.283034000000001
#
# number of rings (size 3 to 8) (size 9 to 14) (size 15 to 20)
#    1.200    0.000    4.000    1.200    2.800    3.200 
#    7.200    2.000    0.000    0.000    0.000    0.000 
#    0.000    0.000    0.000    0.000    0.000    0.000 
#
# Total GULP energy -111503.011203 kJ/mol
# GULP energy per Si atom -5575.150560 kJ/mol
# Density = 2.422776 g / cm^3
# Si number density = 24.283034 Si / 1000 Ang^3
#
#
#
# Elastic Constant Matrix: (Units=GPa)
#
#
# Indices 1 2 3 4 5 6 
#
# 1 79.9214 8.6181 24.6549 0.0000 -13.0431 0.0000
# 2 8.6181 103.7250 32.0731 0.0000 -15.3407 0.0000
# 3 24.6549 32.0731 145.0457 0.0000 -2.3395 0.0000
# 4 0.0000 0.0000 0.0000 37.6812 0.0000 9.7406
# 5 -13.0431 -15.3407 -2.3395 0.0000 50.4072 0.0000
# 6 0.0000 0.0000 0.0000 9.7406 0.0000 1.7754
#
#
#
# Elastic Compliance Matrix: (Units=1/GPa)
#
#
# Indices 1 2 3 4 5 6 
#
# 1 0.013783 0.000083 -0.002305 0.000000 0.003485 0.000000
# 2 0.000083 0.010838 -0.002359 0.000000 0.003210 0.000000
# 3 -0.002305 -0.002359 0.007792 0.000000 -0.000953 0.000000
# 4 0.000000 0.000000 0.000000 -0.063457 0.000000 0.348143
# 5 0.003485 0.003210 -0.000953 0.000000 0.021673 0.000000
# 6 0.000000 0.000000 0.000000 0.348143 0.000000 -1.346781
#
#
# Mechanical properties :
#
#
# Convention : Reuss Voigt Hill
#
# Bulk Modulus (GPa) = 43.00739 51.04270 47.02505
# Shear Modulus (GPa) = -3.73346 35.52916 15.89785
#
# Velocity S-wave (km/s) = -1.24130 3.82923 2.56147
# Velocity P-wave (km/s) = 3.96168 6.37309 5.30618
#
# Compressibility (1/GPa) = 0.02325182
#
# Stress axis : x y z
#
# Youngs Moduli (GPa) = 72.55251 92.26624 128.32980
#
# Poissons Ratio (x) = -0.00765 0.29580
# Poissons Ratio (y) = -0.00602 0.30272
# Poissons Ratio (z) = 0.16723 0.21765
#
# Static dielectric constant tensor:
#      x y z
#    x 1.944090 0.000000 -0.015980 
#    y 0.000000 1.944530 0.000000 
#    z -0.015980 0.000000 2.115620 
# 
# From -- ./inp_files/29254.got.cif
#   From: 2010.05.17/outbox.cif.g08.bks.cpg/sg15_15_cif.got.tgz:29254.got - 2010.06.03 18:47:42.
