data_PCOD9291512
_publ_section_title
;
Structure prediction by ZEFSAII (Michael W. Deem and Ramdas Pophale) SiO2 
 PCOD9291512
Probable space group: C 2/C
;
_chemical_formula_sum "Si O2"
_cell_formula_units_Z 36
_cell_length_a 16.859562
_cell_length_b 16.182128
_cell_length_c 13.672802
_cell_angle_alpha 90.000000
_cell_angle_beta 25.895293
_cell_angle_gamma 90.000000
_cell_volume 1629.109844
_symmetry_space_group_name_H-M "C 2/C"
_symmetry_group_IT_number 15
_symmetry_cell_setting 'monoclinic'
loop_
_space_group_symop_operation_xyz
x,y,z
-x,y,1/2-z
-x,-y,-z
x,-y,1/2+z
1/2+x,1/2+y,z
1/2-x,1/2+y,1/2-z
1/2-x,1/2-y,-z
1/2+x,1/2-y,1/2+z
loop_
_atom_site_type_symbol
_atom_site_label
_atom_site_fract_x
_atom_site_fract_y
_atom_site_fract_z
Si Si1 0.384004 0.662972 0.478440
Si Si2 0.743297 0.344494 0.688513
Si Si3 0.449328 0.035817 0.663399
Si Si4 0.000000 0.769354 0.250000
Si Si5 0.841551 0.358981 0.807385
O O1 0.500000 0.661810 0.250000
O O2 0.533089 0.642616 0.396079
O O3 0.302251 0.754060 0.586124
O O4 0.219219 0.598439 0.657860
O O5 0.783847 0.351119 0.758756
O O6 0.876410 0.413015 0.492729
O O7 0.500000 0.000000 0.500000
O O8 0.391589 0.951634 0.779309
O O9 0.997811 0.707126 0.159995
O O10 0.826669 0.827318 0.442475
#
# Coordination Sequence:
#
# PCOD9291512 Si02
#       5
#     8   8   8   4   8
#     4  12  25  41  70 102 135 179 225 274 333 400
#     4  11  23  44  70  94 138 179 219 272 344 399
#     4  10  25  44  66 101 131 178 226 276 330 404
#     4  10  22  42  68  92 128 174 218 278 336 390
#     4  10  23  43  64  96 127 171 224 273 334 395
#
# _framework density 22.097957999999998
#
# number of rings (size 3 to 8) (size 9 to 14) (size 15 to 20)
#    0.000    1.333    2.222    2.000    4.667    5.333 
#    4.000    0.000    0.000    0.000    0.000    0.000 
#    0.000    0.000    0.000    0.000    0.000    0.000 
#
# Total GULP energy -100654.019941 kJ/mol
# GULP energy per Si atom -5591.889997 kJ/mol
# Density = 2.204766 g / cm^3
# Si number density = 22.097958 Si / 1000 Ang^3
#
#
#
# Elastic Constant Matrix: (Units=GPa)
#
#
# Indices 1 2 3 4 5 6 
#
# 1 87.6577 12.4269 0.2947 0.0017 -7.8459 0.0003
# 2 12.4269 197.6684 60.0198 0.0035 -15.8107 -0.0003
# 3 0.2947 60.0198 70.4617 0.0042 -24.2546 -0.0007
# 4 0.0017 0.0035 0.0042 34.4252 -0.0010 0.3337
# 5 -7.8459 -15.8107 -24.2546 -0.0010 35.5642 -0.0004
# 6 0.0003 -0.0003 -0.0007 0.3337 -0.0004 18.7186
#
#
#
# Elastic Compliance Matrix: (Units=1/GPa)
#
#
# Indices 1 2 3 4 5 6 
#
# 1 0.011878 -0.001105 0.002123 -0.000001 0.003577 0.000000
# 2 -0.001105 0.006967 -0.006466 0.000000 -0.001556 0.000000
# 3 0.002123 -0.006466 0.024649 -0.000002 0.014405 0.000001
# 4 -0.000001 0.000000 -0.000002 0.029054 -0.000001 -0.000518
# 5 0.003577 -0.001556 0.014405 -0.000001 0.038039 0.000001
# 6 0.000000 0.000000 0.000001 -0.000518 0.000001 0.053432
#
#
# Mechanical properties :
#
#
# Convention : Reuss Voigt Hill
#
# Bulk Modulus (GPa) = 30.67651 55.69674 43.18663
# Shear Modulus (GPa) = 26.91338 36.61136 31.76237
#
# Velocity S-wave (km/s) = 3.49365 4.07477 3.79535
# Velocity P-wave (km/s) = 5.49420 6.88458 6.22831
#
# Compressibility (1/GPa) = 0.03259824
#
# Stress axis : x y z
#
# Youngs Moduli (GPa) = 84.19126 143.52842 40.56919
#
# Poissons Ratio (x) = 0.15864 -0.08613
# Poissons Ratio (y) = 0.09305 0.26231
# Poissons Ratio (z) = -0.17874 0.92802
#
# Static dielectric constant tensor:
#      x y z
#    x 1.890530 0.000000 0.026290 
#    y 0.000000 1.800830 0.000000 
#    z 0.026290 0.000000 1.873160 
# 
# From -- ./inp_files/47330.got.cif
#   From: 2010.05.17/outbox.cif.g08.bks.cpg/sg15_24_cif.got.tgz:47330.got - 2010.06.03 18:47:42.
