data_PCOD9291635
_publ_section_title
;
Structure prediction by ZEFSAII (Michael W. Deem and Ramdas Pophale) SiO2 
 PCOD9291635
Probable space group: C 2/C
;
_chemical_formula_sum "Si O2"
_cell_formula_units_Z 56
_cell_length_a 22.172524
_cell_length_b 13.211920
_cell_length_c 8.382319
_cell_angle_alpha 90.000000
_cell_angle_beta 94.300852
_cell_angle_gamma 90.000000
_cell_volume 2448.615324
_symmetry_space_group_name_H-M "C 2/C"
_symmetry_group_IT_number 15
_symmetry_cell_setting 'monoclinic'
loop_
_space_group_symop_operation_xyz
x,y,z
-x,y,1/2-z
-x,-y,-z
x,-y,1/2+z
1/2+x,1/2+y,z
1/2-x,1/2+y,1/2-z
1/2-x,1/2-y,-z
1/2+x,1/2-y,1/2+z
loop_
_atom_site_type_symbol
_atom_site_label
_atom_site_fract_x
_atom_site_fract_y
_atom_site_fract_z
Si Si1 0.356732 0.396213 0.213554
Si Si2 0.684570 0.860848 0.350692
Si Si3 0.500000 0.307138 0.750000
Si Si4 0.065938 0.961348 0.566946
Si Si5 0.000000 0.541911 0.250000
Si Si6 0.055189 0.637991 0.967163
Si Si7 0.770424 0.277487 0.682471
Si Si8 0.231313 0.518053 0.156448
O O1 0.394517 0.444795 0.364155
O O2 0.331809 0.283430 0.230722
O O3 0.295893 0.462845 0.176950
O O4 0.398742 0.406708 0.067564
O O5 0.622209 0.837075 0.422856
O O6 0.720669 0.764195 0.296605
O O7 0.721776 0.924446 0.489031
O O8 0.681639 0.933412 0.193839
O O9 0.554018 0.381249 0.706755
O O10 0.515003 0.231822 0.898236
O O11 0.000000 0.000000 0.500000
O O12 0.037747 0.464972 0.368473
O O13 0.957723 0.610925 0.352890
O O14 0.750000 0.250000 0.500000
O O15 0.774542 0.395432 0.711374
#
# Coordination Sequence:
#
# PCOD9291635 Si02
#       8
#     8   8   4   8   4   8   8   8
#     4  11  24  43  70  94 137 180 216 293 346 395
#     4  11  23  40  65  97 133 176 218 275 342 409
#     4  11  26  44  65  98 128 176 239 282 334 429
#     4  12  24  47  67  95 130 180 235 282 343 408
#     4   9  20  44  65  96 136 174 219 282 348 407
#     4  10  22  42  69  96 135 177 223 283 346 403
#     4  11  24  41  65 102 132 176 228 274 345 425
#     4  11  23  43  65 100 134 170 227 272 347 424
#
# _framework density 22.870070999999999
#
# number of rings (size 3 to 8) (size 9 to 14) (size 15 to 20)
#    0.000    1.143    1.429    5.571    4.000    1.143 
#   10.286    0.000    0.000    0.000    0.000    0.000 
#    0.000    0.000    0.000    0.000    0.000    0.000 
#
# Total GULP energy -156728.195521 kJ/mol
# GULP energy per Si atom -5597.435554 kJ/mol
# Density = 2.281802 g / cm^3
# Si number density = 22.870071 Si / 1000 Ang^3
#
#
#
# Elastic Constant Matrix: (Units=GPa)
#
#
# Indices 1 2 3 4 5 6 
#
# 1 100.0204 17.3368 23.6165 0.0000 -27.0357 0.0000
# 2 17.3368 91.5509 7.2651 0.0000 -7.8312 0.0000
# 3 23.6165 7.2651 78.2532 0.0000 -20.2456 0.0000
# 4 0.0000 0.0000 0.0000 32.9250 0.0000 -3.8989
# 5 -27.0357 -7.8312 -20.2456 0.0000 43.5735 0.0000
# 6 0.0000 0.0000 0.0000 -3.8989 0.0000 17.6215
#
#
#
# Elastic Compliance Matrix: (Units=1/GPa)
#
#
# Indices 1 2 3 4 5 6 
#
# 1 0.012516 -0.001655 -0.001923 0.000000 0.006575 0.000000
# 2 -0.001655 0.011336 -0.000331 0.000000 0.000856 0.000000
# 3 -0.001923 -0.000331 0.014851 0.000000 0.005648 0.000000
# 4 0.000000 0.000000 0.000000 0.031189 0.000000 0.006901
# 5 0.006575 0.000856 0.005648 0.000000 0.029807 0.000000
# 6 0.000000 0.000000 0.000000 0.006901 0.000000 0.058276
#
#
# Mechanical properties :
#
#
# Convention : Reuss Voigt Hill
#
# Bulk Modulus (GPa) = 32.37814 40.69571 36.53692
# Shear Modulus (GPa) = 28.39481 33.59774 30.99627
#
# Velocity S-wave (km/s) = 3.52742 3.83700 3.68546
# Velocity P-wave (km/s) = 5.54783 6.12071 5.84129
#
# Compressibility (1/GPa) = 0.03088504
#
# Stress axis : x y z
#
# Youngs Moduli (GPa) = 79.89756 88.21552 67.33445
#
# Poissons Ratio (x) = 0.14601 0.12945
# Poissons Ratio (y) = 0.13224 0.02231
# Poissons Ratio (z) = 0.15361 0.02923
#
# Static dielectric constant tensor:
#      x y z
#    x 1.833090 0.000000 0.028280 
#    y 0.000000 1.816480 0.000000 
#    z 0.028280 0.000000 1.895660 
# 
# From -- ./inp_files/55690.got.cif
#   From: 2010.05.17/outbox.cif.g08.bks.cpg/sg15_28_cif.got.tgz:55690.got - 2010.06.03 18:47:42.
