data_PCOD9291748
_publ_section_title
;
Structure prediction by ZEFSAII (Michael W. Deem and Ramdas Pophale) SiO2 
 PCOD9291748
Probable space group: C 2/C
;
_chemical_formula_sum "Si O2"
_cell_formula_units_Z 44
_cell_length_a 27.372858
_cell_length_b 7.878071
_cell_length_c 25.301434
_cell_angle_alpha 90.000000
_cell_angle_beta 20.650759
_cell_angle_gamma 90.000000
_cell_volume 1924.219649
_symmetry_space_group_name_H-M "C 2/C"
_symmetry_group_IT_number 15
_symmetry_cell_setting 'monoclinic'
loop_
_space_group_symop_operation_xyz
x,y,z
-x,y,1/2-z
-x,-y,-z
x,-y,1/2+z
1/2+x,1/2+y,z
1/2-x,1/2+y,1/2-z
1/2-x,1/2-y,-z
1/2+x,1/2-y,1/2+z
loop_
_atom_site_type_symbol
_atom_site_label
_atom_site_fract_x
_atom_site_fract_y
_atom_site_fract_z
Si Si1 0.438064 0.761826 0.699873
Si Si2 0.695400 0.149169 0.376101
Si Si3 0.301926 0.140620 0.496548
Si Si4 0.391733 0.630583 0.635362
Si Si5 0.500000 0.855887 0.250000
Si Si6 0.088010 0.647707 0.771706
O O1 0.579065 0.765259 0.590174
O O2 0.331900 0.624622 0.831054
O O3 0.458636 0.727357 0.617328
O O4 0.371055 0.949175 0.776220
O O5 0.659022 0.247470 0.359302
O O6 0.804742 0.253234 0.300689
O O7 0.557103 0.135249 0.550423
O O8 0.763324 0.974021 0.289043
O O9 0.250000 0.250000 0.500000
O O10 0.377617 0.974306 0.397624
O O11 0.500000 0.500000 0.500000
O O12 0.437960 0.771437 0.260067
#
# Coordination Sequence:
#
# PCOD9291748 Si02
#       6
#     8   8   8   8   4   8
#     4  11  25  40  71 100 137 172 229 282 330 403
#     4  12  27  47  69 100 138 181 231 281 343 409
#     4  11  19  39  66 103 128 173 221 275 331 390
#     4  12  27  44  70 102 134 180 230 279 343 403
#     4  10  22  42  70  98 140 174 226 278 340 400
#     4  11  25  45  70  98 138 179 225 283 339 402
#
# _framework density 22.866413000000001
#
# number of rings (size 3 to 8) (size 9 to 14) (size 15 to 20)
#    0.000    0.727    5.455    3.273    7.636    2.182 
#    0.000    0.000    0.000    0.000    0.000    0.000 
#    0.000    0.000    0.000    0.000    0.000    0.000 
#
# Total GULP energy -123181.249824 kJ/mol
# GULP energy per Si atom -5599.147719 kJ/mol
# Density = 2.281437 g / cm^3
# Si number density = 22.866413 Si / 1000 Ang^3
#
#
#
# Elastic Constant Matrix: (Units=GPa)
#
#
# Indices 1 2 3 4 5 6 
#
# 1 212.3730 25.8934 41.1553 0.0021 11.8047 0.0001
# 2 25.8934 41.5468 13.2287 0.0000 5.5067 -0.0014
# 3 41.1553 13.2287 112.9372 0.0001 0.4272 0.0000
# 4 0.0021 0.0000 0.0001 23.7889 -0.0007 1.3437
# 5 11.8047 5.5067 0.4272 -0.0007 23.5387 0.0003
# 6 0.0001 -0.0014 0.0000 1.3437 0.0003 46.8400
#
#
#
# Elastic Compliance Matrix: (Units=1/GPa)
#
#
# Indices 1 2 3 4 5 6 
#
# 1 0.005468 -0.002593 -0.001681 -0.000001 -0.002105 0.000000
# 2 -0.002593 0.027048 -0.002204 0.000000 -0.004987 0.000001
# 3 -0.001681 -0.002204 0.009721 0.000000 0.001182 0.000000
# 4 -0.000001 0.000000 0.000000 0.042105 0.000001 -0.001208
# 5 -0.002105 -0.004987 0.001182 0.000001 0.044684 0.000000
# 6 0.000000 0.000001 0.000000 -0.001208 0.000000 0.021384
#
#
# Mechanical properties :
#
#
# Convention : Reuss Voigt Hill
#
# Bulk Modulus (GPa) = 34.15332 58.60129 46.37730
# Shear Modulus (GPa) = 28.88069 37.93884 33.40977
#
# Velocity S-wave (km/s) = 3.55775 4.07769 3.82656
# Velocity P-wave (km/s) = 5.64316 6.91761 6.31263
#
# Compressibility (1/GPa) = 0.02927973
#
# Stress axis : x y z
#
# Youngs Moduli (GPa) = 182.89572 36.97068 102.87358
#
# Poissons Ratio (x) = 0.09588 0.17290
# Poissons Ratio (y) = 0.47434 0.22677
# Poissons Ratio (z) = 0.30739 0.08150
#
# Static dielectric constant tensor:
#      x y z
#    x 2.046610 -0.000010 0.074380 
#    y -0.000010 1.890320 0.000000 
#    z 0.074380 0.000000 1.852120 
# 
# From -- ./inp_files/303152.got.cif
#   From: 2010.05.17/outbox.cif.g08.bks.cpg/sg15_152_cif.got.tgz:303152.got - 2010.06.03 18:47:42.
