data_PCOD9291013
_publ_section_title
;
Structure prediction by ZEFSAII (Michael W. Deem and Ramdas Pophale) SiO2 
 PCOD9291013
Probable space group: C 2/C
;
_chemical_formula_sum "Si O2"
_cell_formula_units_Z 64
_cell_length_a 13.001644
_cell_length_b 19.069587
_cell_length_c 19.827862
_cell_angle_alpha 90.000000
_cell_angle_beta 40.173898
_cell_angle_gamma 90.000000
_cell_volume 3171.385173
_symmetry_space_group_name_H-M "C 2/C"
_symmetry_group_IT_number 15
_symmetry_cell_setting 'monoclinic'
loop_
_space_group_symop_operation_xyz
x,y,z
-x,y,1/2-z
-x,-y,-z
x,-y,1/2+z
1/2+x,1/2+y,z
1/2-x,1/2+y,1/2-z
1/2-x,1/2-y,-z
1/2+x,1/2-y,1/2+z
loop_
_atom_site_type_symbol
_atom_site_label
_atom_site_fract_x
_atom_site_fract_y
_atom_site_fract_z
Si Si1 0.998087 0.797703 0.509909
Si Si2 0.772236 0.777377 0.280434
Si Si3 0.363852 0.445765 0.547657
Si Si4 0.679623 0.569965 0.686830
Si Si5 0.680333 0.013174 0.748632
Si Si6 0.176903 0.661963 0.682918
Si Si7 0.579873 0.788498 0.576674
Si Si8 0.642717 0.952912 0.536393
O O1 0.179923 0.815148 0.438663
O O2 0.867472 0.775774 0.629549
O O3 0.936443 0.868484 0.504601
O O4 0.987717 0.734287 0.462167
O O5 0.780933 0.847772 0.321043
O O6 0.728331 0.803956 0.227882
O O7 0.945127 0.740975 0.194356
O O8 0.500000 0.500000 0.500000
O O9 0.239114 0.449623 0.672217
O O10 0.282836 0.468512 0.519013
O O11 0.500000 0.563949 0.750000
O O12 0.705062 0.532033 0.746006
O O13 0.796138 0.540277 0.570578
O O14 0.675580 0.079226 0.700244
O O15 0.509400 0.998572 0.867136
O O16 0.000000 0.682944 0.750000
O O17 0.750000 0.750000 0.500000
O O18 0.600750 0.871258 0.570105
#
# Coordination Sequence:
#
# PCOD9291013 Si02
#       8
#     8   8   8   8   8   8   8   8
#     4  11  22  39  63  93 128 163 216 274 323 398
#     4  10  23  37  63  94 127 168 211 270 332 393
#     4  12  23  38  62  94 128 168 214 267 328 388
#     4  11  23  41  64  91 133 173 210 267 337 391
#     4  11  24  41  60  94 129 170 223 264 324 393
#     4  10  22  42  63  86 124 172 219 267 323 391
#     4  11  21  38  60  98 131 163 209 262 336 389
#     4  12  23  39  67  92 129 170 216 271 318 396
#
# _framework density 20.180454999999998
#
# number of rings (size 3 to 8) (size 9 to 14) (size 15 to 20)
#    0.000    1.000    3.750    3.750    1.750    0.500 
#    0.000    0.000    0.000    3.750    0.000    0.000 
#    0.000    0.000    0.000    0.000    0.000    0.000 
#
# Total GULP energy -178774.342678 kJ/mol
# GULP energy per Si atom -5586.698209 kJ/mol
# Density = 2.013452 g / cm^3
# Si number density = 20.180455 Si / 1000 Ang^3
#
#
#
# Elastic Constant Matrix: (Units=GPa)
#
#
# Indices 1 2 3 4 5 6 
#
# 1 75.7745 8.5483 13.0570 -0.0005 -16.3293 0.0002
# 2 8.5483 49.4808 9.0352 -0.0005 -8.4339 0.0004
# 3 13.0570 9.0352 121.5549 -0.0013 -18.5509 0.0007
# 4 -0.0005 -0.0005 -0.0013 38.5773 0.0004 -5.2129
# 5 -16.3293 -8.4339 -18.5509 0.0004 39.0445 -0.0002
# 6 0.0002 0.0004 0.0007 -5.2129 -0.0002 19.4090
#
#
#
# Elastic Compliance Matrix: (Units=1/GPa)
#
#
# Indices 1 2 3 4 5 6 
#
# 1 0.014660 -0.001479 -0.000623 0.000000 0.005516 0.000000
# 2 -0.001479 0.021231 -0.000877 0.000000 0.003551 0.000000
# 3 -0.000623 -0.000877 0.008938 0.000000 0.003797 0.000000
# 4 0.000000 0.000000 0.000000 0.026898 0.000000 0.007224
# 5 0.005516 0.003551 0.003797 0.000000 0.030489 0.000000
# 6 0.000000 0.000000 0.000000 0.007224 0.000000 0.053463
#
#
# Mechanical properties :
#
#
# Convention : Reuss Voigt Hill
#
# Bulk Modulus (GPa) = 25.72638 34.23237 29.97937
# Shear Modulus (GPa) = 28.63778 33.81746 31.22762
#
# Velocity S-wave (km/s) = 3.77116 4.09804 3.93799
# Velocity P-wave (km/s) = 5.63365 6.27629 5.96363
#
# Compressibility (1/GPa) = 0.03887061
#
# Stress axis : x y z
#
# Youngs Moduli (GPa) = 68.21350 47.10151 111.87813
#
# Poissons Ratio (x) = 0.06965 0.06970
# Poissons Ratio (y) = 0.10087 0.09816
# Poissons Ratio (z) = 0.04250 0.04133
#
# Static dielectric constant tensor:
#      x y z
#    x 1.695410 0.000000 0.002920 
#    y 0.000000 1.703970 0.000000 
#    z 0.002920 0.000000 1.803330 
# 
# From -- ./inp_files/240413.got.cif
#   From: 2010.05.17/outbox.cif.g08.bks.cpg/sg15_121_cif.got.tgz:240413.got - 2010.06.03 18:47:42.
