data_PCOD9291784
_publ_section_title
;
Structure prediction by ZEFSAII (Michael W. Deem and Ramdas Pophale) SiO2 
 PCOD9291784
Probable space group: C 2/C
;
_chemical_formula_sum "Si O2"
_cell_formula_units_Z 44
_cell_length_a 11.498991
_cell_length_b 20.727123
_cell_length_c 9.031895
_cell_angle_alpha 90.000000
_cell_angle_beta 64.677237
_cell_angle_gamma 90.000000
_cell_volume 1945.826546
_symmetry_space_group_name_H-M "C 2/C"
_symmetry_group_IT_number 15
_symmetry_cell_setting 'monoclinic'
loop_
_space_group_symop_operation_xyz
x,y,z
-x,y,1/2-z
-x,-y,-z
x,-y,1/2+z
1/2+x,1/2+y,z
1/2-x,1/2+y,1/2-z
1/2-x,1/2-y,-z
1/2+x,1/2-y,1/2+z
loop_
_atom_site_type_symbol
_atom_site_label
_atom_site_fract_x
_atom_site_fract_y
_atom_site_fract_z
Si Si1 0.150593 0.673785 0.685779
Si Si2 0.500000 0.862013 0.750000
Si Si3 0.849240 0.267996 0.616533
Si Si4 0.233995 0.923258 0.942627
Si Si5 0.692770 0.443479 0.303190
Si Si6 0.510198 0.354981 0.921627
O O1 0.200865 0.688638 0.492822
O O2 0.226824 0.726868 0.741516
O O3 0.189076 0.603668 0.718591
O O4 0.000000 0.682449 0.750000
O O5 0.429536 0.815240 0.673797
O O6 0.383578 0.904429 0.878138
O O7 0.946674 0.211651 0.510134
O O8 0.152523 0.866554 0.908541
O O9 0.219001 0.985104 0.845557
O O10 0.177373 0.938994 0.135287
O O11 0.573678 0.411808 0.455824
O O12 0.500000 0.359305 0.750000
#
# Coordination Sequence:
#
# PCOD9291784 Si02
#       6
#     8   4   8   8   8   8
#     4  10  22  42  71  97 138 186 229 288 359 414
#     4  12  30  44  70 110 150 190 242 290 354 428
#     4  10  25  42  70 105 145 182 240 284 359 425
#     4  12  28  46  74 104 149 190 240 297 356 421
#     4  11  26  47  74 107 142 187 243 297 355 429
#     4  11  25  47  79 107 142 187 239 298 359 425
#
# _framework density 22.612499
#
# number of rings (size 3 to 8) (size 9 to 14) (size 15 to 20)
#    0.000    1.091    0.000    3.818   19.091    1.455 
#    0.000    0.000    0.000    0.000    0.000    0.000 
#    0.000    0.000    0.000    0.000    0.000    0.000 
#
# Total GULP energy -123106.268121 kJ/mol
# GULP energy per Si atom -5595.739460 kJ/mol
# Density = 2.256103 g / cm^3
# Si number density = 22.612499 Si / 1000 Ang^3
#
#
#
# Elastic Constant Matrix: (Units=GPa)
#
#
# Indices 1 2 3 4 5 6 
#
# 1 110.7485 22.7202 33.8619 0.0000 -13.4494 0.0000
# 2 22.7202 93.0266 28.4208 0.0000 9.6641 0.0000
# 3 33.8619 28.4208 97.2964 0.0000 5.2930 0.0000
# 4 0.0000 0.0000 0.0000 29.4444 0.0000 10.7690
# 5 -13.4494 9.6641 5.2930 0.0000 45.4095 0.0000
# 6 0.0000 0.0000 0.0000 10.7690 0.0000 29.0167
#
#
#
# Elastic Compliance Matrix: (Units=1/GPa)
#
#
# Indices 1 2 3 4 5 6 
#
# 1 0.011005 -0.002059 -0.003452 0.000000 0.004100 0.000000
# 2 -0.002059 0.012395 -0.002745 0.000000 -0.002928 0.000000
# 3 -0.003452 -0.002745 0.012383 0.000000 -0.001882 0.000000
# 4 0.000000 0.000000 0.000000 0.039296 0.000000 -0.014584
# 5 0.004100 -0.002928 -0.001882 0.000000 0.024079 0.000000
# 6 0.000000 0.000000 0.000000 -0.014584 0.000000 0.039876
#
#
# Mechanical properties :
#
#
# Convention : Reuss Voigt Hill
#
# Bulk Modulus (GPa) = 51.88766 52.34193 52.11480
# Shear Modulus (GPa) = 30.86996 35.17870 33.02433
#
# Velocity S-wave (km/s) = 3.69883 3.94854 3.82572
# Velocity P-wave (km/s) = 6.42169 6.63216 6.52777
#
# Compressibility (1/GPa) = 0.01927240
#
# Stress axis : x y z
#
# Youngs Moduli (GPa) = 90.86605 80.67588 80.75409
#
# Poissons Ratio (x) = 0.16613 0.27874
# Poissons Ratio (y) = 0.18712 0.22165
# Poissons Ratio (z) = 0.31364 0.22144
#
# Static dielectric constant tensor:
#      x y z
#    x 1.928880 0.000000 -0.027110 
#    y 0.000000 1.805280 0.000000 
#    z -0.027110 0.000000 1.892420 
# 
# From -- ./inp_files/30739.got.cif
#   From: 2010.05.17/outbox.cif.g08.bks.cpg/sg15_16_cif.got.tgz:30739.got - 2010.06.03 18:47:42.
