data_PCOD9291603
_publ_section_title
;
Structure prediction by ZEFSAII (Michael W. Deem and Ramdas Pophale) SiO2 
 PCOD9291603
Probable space group: C 2/C
;
_chemical_formula_sum "Si O2"
_cell_formula_units_Z 36
_cell_length_a 10.892122
_cell_length_b 11.123076
_cell_length_c 11.768247
_cell_angle_alpha 90.000000
_cell_angle_beta 80.194269
_cell_angle_gamma 90.000000
_cell_volume 1404.939782
_symmetry_space_group_name_H-M "C 2/C"
_symmetry_group_IT_number 15
_symmetry_cell_setting 'monoclinic'
loop_
_space_group_symop_operation_xyz
x,y,z
-x,y,1/2-z
-x,-y,-z
x,-y,1/2+z
1/2+x,1/2+y,z
1/2-x,1/2+y,1/2-z
1/2-x,1/2-y,-z
1/2+x,1/2-y,1/2+z
loop_
_atom_site_type_symbol
_atom_site_label
_atom_site_fract_x
_atom_site_fract_y
_atom_site_fract_z
Si Si1 0.822739 0.049128 0.524630
Si Si2 0.429185 0.296254 0.530367
Si Si3 0.266921 0.195776 0.761852
Si Si4 0.000000 0.597926 0.750000
Si Si5 0.900802 0.609903 0.109557
O O1 0.804725 0.082770 0.663306
O O2 0.700551 0.082130 0.471627
O O3 0.941403 0.128362 0.464859
O O4 0.850095 0.909519 0.497173
O O5 0.337626 0.231479 0.634441
O O6 0.480494 0.187870 0.445873
O O7 0.393612 0.182675 0.815095
O O8 0.174375 0.304171 0.794450
O O9 0.057152 0.509717 0.834135
#
# Coordination Sequence:
#
# PCOD9291603 Si02
#       5
#     8   8   8   4   8
#     4  10  22  42  69 102 135 178 226 272 337 405
#     4  10  22  43  71 100 135 177 223 279 338 402
#     4  11  22  42  67  96 136 176 218 275 336 394
#     4  12  26  42  66 100 136 180 228 278 332 392
#     4  11  25  44  67  99 137 178 228 276 331 399
#
# _framework density 25.623875999999999
#
# number of rings (size 3 to 8) (size 9 to 14) (size 15 to 20)
#    0.000    1.333    0.000    6.667    0.000    5.333 
#    0.000    5.556    0.000    0.000    0.000    0.000 
#    0.000    0.000    0.000    0.000    0.000    0.000 
#
# Total GULP energy -100290.784064 kJ/mol
# GULP energy per Si atom -5571.710226 kJ/mol
# Density = 2.556555 g / cm^3
# Si number density = 25.623876 Si / 1000 Ang^3
#
#
#
# Elastic Constant Matrix: (Units=GPa)
#
#
# Indices 1 2 3 4 5 6 
#
# 1 71.6703 29.2161 59.0156 0.0000 -29.9490 0.0000
# 2 29.2161 120.8103 52.8363 0.0000 -12.9513 0.0000
# 3 59.0156 52.8363 129.5192 0.0000 -47.5345 0.0000
# 4 0.0000 0.0000 0.0000 31.2763 0.0000 3.2389
# 5 -29.9490 -12.9513 -47.5345 0.0000 50.7108 0.0000
# 6 0.0000 0.0000 0.0000 3.2389 0.0000 56.5442
#
#
#
# Elastic Compliance Matrix: (Units=1/GPa)
#
#
# Indices 1 2 3 4 5 6 
#
# 1 0.023669 -0.001629 -0.007840 0.000000 0.006214 0.000000
# 2 -0.001629 0.010315 -0.004348 0.000000 -0.002403 0.000000
# 3 -0.007840 -0.004348 0.016708 0.000000 0.009921 0.000000
# 4 0.000000 0.000000 0.000000 0.032164 0.000000 -0.001842
# 5 0.006214 -0.002403 0.009921 0.000000 0.032075 0.000000
# 6 0.000000 0.000000 0.000000 -0.001842 0.000000 0.017791
#
#
# Mechanical properties :
#
#
# Convention : Reuss Voigt Hill
#
# Bulk Modulus (GPa) = 43.36726 67.12622 55.24674
# Shear Modulus (GPa) = 29.75468 39.76835 34.76152
#
# Velocity S-wave (km/s) = 3.41135 3.94382 3.68721
# Velocity P-wave (km/s) = 5.69892 6.85507 6.30356
#
# Compressibility (1/GPa) = 0.02305887
#
# Stress axis : x y z
#
# Youngs Moduli (GPa) = 42.24957 96.94396 59.85297
#
# Poissons Ratio (x) = 0.15793 0.46923
# Poissons Ratio (y) = 0.06883 0.26022
# Poissons Ratio (z) = 0.33122 0.42148
#
# Static dielectric constant tensor:
#      x y z
#    x 2.079100 0.000000 0.038420 
#    y 0.000000 1.969830 0.000000 
#    z 0.038420 0.000000 2.187940 
# 
# From -- ./inp_files/85444.got.cif
#   From: 2010.05.17/outbox.cif.g08.bks.cpg/sg15_43_cif.got.tgz:85444.got - 2010.06.03 18:47:42.
