data_PCOD9291529
_publ_section_title
;
Structure prediction by ZEFSAII (Michael W. Deem and Ramdas Pophale) SiO2 
 PCOD9291529
Probable space group: C 2/C
;
_chemical_formula_sum "Si O2"
_cell_formula_units_Z 40
_cell_length_a 20.101551
_cell_length_b 15.780743
_cell_length_c 13.395606
_cell_angle_alpha 90.000000
_cell_angle_beta 19.761580
_cell_angle_gamma 90.000000
_cell_volume 1436.724358
_symmetry_space_group_name_H-M "C 2/C"
_symmetry_group_IT_number 15
_symmetry_cell_setting 'monoclinic'
loop_
_space_group_symop_operation_xyz
x,y,z
-x,y,1/2-z
-x,-y,-z
x,-y,1/2+z
1/2+x,1/2+y,z
1/2-x,1/2+y,1/2-z
1/2-x,1/2-y,-z
1/2+x,1/2-y,1/2+z
loop_
_atom_site_type_symbol
_atom_site_label
_atom_site_fract_x
_atom_site_fract_y
_atom_site_fract_z
Si Si1 0.889843 0.770001 0.120215
Si Si2 0.877803 0.925850 0.620852
Si Si3 0.269861 0.974749 0.328944
Si Si4 0.000000 0.165054 0.250000
Si Si5 0.500000 0.995959 0.250000
Si Si6 0.028540 0.356959 0.583933
O O1 0.023152 0.838483 0.990065
O O2 0.950011 0.776782 0.917324
O O3 0.937886 0.685045 0.114300
O O4 0.656948 0.788103 0.462662
O O5 0.857957 0.948434 0.531906
O O6 0.000000 0.000000 0.500000
O O7 0.657513 0.936880 0.975350
O O8 0.169684 0.905247 0.543158
O O9 0.280802 0.911602 0.218026
O O10 0.500000 0.000000 0.000000
O O11 0.599577 0.068520 0.182253
#
# Coordination Sequence:
#
# PCOD9291529 Si02
#       6
#     8   8   8   4   4   8
#     4  11  24  44  66 101 148 185 236 296 356 423
#     4  11  21  44  67  99 143 184 236 295 341 426
#     4  10  23  39  64 100 133 180 244 283 339 433
#     4  10  22  42  68  94 144 188 230 286 368 409
#     4  10  22  44  76 104 138 192 234 286 364 413
#     4  10  24  43  66 101 146 178 239 292 349 433
#
# _framework density 27.84111
#
# number of rings (size 3 to 8) (size 9 to 14) (size 15 to 20)
#    0.000    1.600    6.000    0.000    8.400    4.000 
#    0.000    5.000    0.000    0.000    0.000    0.000 
#    0.000    0.000    0.000    0.000    0.000    0.000 
#
# Total GULP energy -111373.038983 kJ/mol
# GULP energy per Si atom -5568.651949 kJ/mol
# Density = 2.777774 g / cm^3
# Si number density = 27.841110 Si / 1000 Ang^3
#
#
#
# Elastic Constant Matrix: (Units=GPa)
#
#
# Indices 1 2 3 4 5 6 
#
# 1 119.5038 55.9763 50.9573 -0.0039 -0.3051 0.0008
# 2 55.9763 127.5511 33.1230 -0.0194 -3.4116 -0.0014
# 3 50.9573 33.1230 133.3840 -0.0201 11.9283 -0.0015
# 4 -0.0039 -0.0194 -0.0201 38.7685 0.0016 -13.2681
# 5 -0.3051 -3.4116 11.9283 0.0016 42.2216 -0.0003
# 6 0.0008 -0.0014 -0.0015 -13.2681 -0.0003 50.4729
#
#
#
# Elastic Compliance Matrix: (Units=1/GPa)
#
#
# Indices 1 2 3 4 5 6 
#
# 1 0.011884 -0.004275 -0.003545 -0.000003 0.000742 -0.000001
# 2 -0.004275 0.009988 -0.000940 0.000005 0.001042 0.000002
# 3 -0.003545 -0.000940 0.009330 0.000005 -0.002737 0.000002
# 4 -0.000003 0.000005 0.000005 0.028344 -0.000002 0.007451
# 5 0.000742 0.001042 -0.002737 -0.000002 0.024547 0.000000
# 6 -0.000001 0.000002 0.000002 0.007451 0.000000 0.021771
#
#
# Mechanical properties :
#
#
# Convention : Reuss Voigt Hill
#
# Bulk Modulus (GPa) = 73.09113 73.39467 73.24290
# Shear Modulus (GPa) = 39.07933 42.31809 40.69871
#
# Velocity S-wave (km/s) = 3.75060 3.90293 3.82752
# Velocity P-wave (km/s) = 6.71312 6.83591 6.77479
#
# Compressibility (1/GPa) = 0.01368155
#
# Stress axis : x y z
#
# Youngs Moduli (GPa) = 84.14879 100.11924 107.18465
#
# Poissons Ratio (x) = 0.42799 0.37995
# Poissons Ratio (y) = 0.35972 0.10079
# Poissons Ratio (z) = 0.29829 0.09415
#
# Static dielectric constant tensor:
#      x y z
#    x 2.903840 0.000010 0.071050 
#    y 0.000010 2.289120 0.000010 
#    z 0.071050 0.000010 2.279300 
# 
# From -- ./inp_files/169075.got.cif
#   From: 2010.05.17/outbox.cif.g08.bks.cpg/sg15_85_cif.got.tgz:169075.got - 2010.06.03 18:47:42.
