data_PCOD9291323
_publ_section_title
;
Structure prediction by ZEFSAII (Michael W. Deem and Ramdas Pophale) SiO2 
 PCOD9291323
Probable space group: C 2/C
;
_chemical_formula_sum "Si O2"
_cell_formula_units_Z 40
_cell_length_a 8.105990
_cell_length_b 25.183229
_cell_length_c 9.617283
_cell_angle_alpha 90.000000
_cell_angle_beta 97.323869
_cell_angle_gamma 90.000000
_cell_volume 1947.206972
_symmetry_space_group_name_H-M "C 2/C"
_symmetry_group_IT_number 15
_symmetry_cell_setting 'monoclinic'
loop_
_space_group_symop_operation_xyz
x,y,z
-x,y,1/2-z
-x,-y,-z
x,-y,1/2+z
1/2+x,1/2+y,z
1/2-x,1/2+y,1/2-z
1/2-x,1/2-y,-z
1/2+x,1/2-y,1/2+z
loop_
_atom_site_type_symbol
_atom_site_label
_atom_site_fract_x
_atom_site_fract_y
_atom_site_fract_z
Si Si1 0.308941 0.798682 0.913971
Si Si2 0.126770 0.009111 0.637963
Si Si3 0.128089 0.586455 0.389610
Si Si4 0.699816 0.201193 0.398110
Si Si5 0.612076 0.899631 0.395026
O O1 0.228949 0.796436 0.751396
O O2 0.501503 0.794248 0.893920
O O3 0.250000 0.750000 0.000000
O O4 0.304295 0.851777 0.007671
O O5 0.245378 0.060026 0.636164
O O6 0.000000 0.013702 0.750000
O O7 0.251349 0.958981 0.652161
O O8 0.000000 0.000000 0.500000
O O9 0.229066 0.639664 0.443058
O O10 0.000000 0.599709 0.250000
O O11 0.015368 0.572094 0.510460
O O12 0.750000 0.250000 0.500000
O O13 0.500000 0.882092 0.250000
#
# Coordination Sequence:
#
# PCOD9291323 Si02
#       5
#     8   8   8   8   8
#     4  10  23  41  64  95 129 170 219 272 332 394
#     4  12  26  42  66 105 139 170 225 290 344 387
#     4  11  21  45  71  90 132 185 229 266 331 415
#     4  10  22  42  66  95 125 170 224 272 327 397
#     4  11  23  43  68  97 133 185 228 266 334 420
#
# _framework density 20.542245999999999
#
# number of rings (size 3 to 8) (size 9 to 14) (size 15 to 20)
#    0.000    1.200    4.000    3.600    5.600    1.600 
#    3.600    0.000    0.000    0.000    0.000    0.000 
#    0.000    0.000    0.000    0.000    0.000    0.000 
#
# Total GULP energy -111512.279831 kJ/mol
# GULP energy per Si atom -5575.613992 kJ/mol
# Density = 2.049549 g / cm^3
# Si number density = 20.542246 Si / 1000 Ang^3
#
#
#
# Elastic Constant Matrix: (Units=GPa)
#
#
# Indices 1 2 3 4 5 6 
#
# 1 74.3086 74.7554 51.6726 0.0000 -28.2010 0.0000
# 2 74.7554 178.7371 70.2628 0.0000 -17.3825 0.0000
# 3 51.6726 70.2628 154.7606 0.0000 -24.9526 0.0000
# 4 0.0000 0.0000 0.0000 24.7854 0.0000 -6.8449
# 5 -28.2010 -17.3825 -24.9526 0.0000 49.2742 0.0000
# 6 0.0000 0.0000 0.0000 -6.8449 0.0000 38.5964
#
#
#
# Elastic Compliance Matrix: (Units=1/GPa)
#
#
# Indices 1 2 3 4 5 6 
#
# 1 0.031122 -0.010366 -0.003705 0.000000 0.012279 0.000000
# 2 -0.010366 0.010301 -0.001727 0.000000 -0.003174 0.000000
# 3 -0.003705 -0.001727 0.008758 0.000000 0.001705 0.000000
# 4 0.000000 0.000000 0.000000 0.042424 0.000000 0.007524
# 5 0.012279 -0.003174 0.001705 0.000000 0.027066 0.000000
# 6 0.000000 0.000000 0.000000 0.007524 0.000000 0.027243
#
#
# Mechanical properties :
#
#
# Convention : Reuss Voigt Hill
#
# Bulk Modulus (GPa) = 53.81033 89.02089 71.41561
# Shear Modulus (GPa) = 27.07006 36.60556 31.83781
#
# Velocity S-wave (km/s) = 3.63406 4.22591 3.94111
# Velocity P-wave (km/s) = 6.62271 8.20004 7.45322
#
# Compressibility (1/GPa) = 0.01858379
#
# Stress axis : x y z
#
# Youngs Moduli (GPa) = 32.13135 97.08163 114.18343
#
# Poissons Ratio (x) = 1.00634 0.42309
# Poissons Ratio (y) = 0.33307 0.19722
# Poissons Ratio (z) = 0.11906 0.16768
#
# Static dielectric constant tensor:
#      x y z
#    x 1.711610 0.000000 0.054100 
#    y 0.000000 1.814720 0.000000 
#    z 0.054100 0.000000 1.804990 
# 
# From -- ./inp_files/23632.got.cif
#   From: 2010.05.17/outbox.cif.g08.bks.cpg/sg15_12_cif.got.tgz:23632.got - 2010.06.03 18:47:42.
