data_PCOD9291141
_publ_section_title
;
Structure prediction by ZEFSAII (Michael W. Deem and Ramdas Pophale) SiO2 
 PCOD9291141
Probable space group: C 2/C
;
_chemical_formula_sum "Si O2"
_cell_formula_units_Z 60
_cell_length_a 11.622602
_cell_length_b 27.010014
_cell_length_c 17.897187
_cell_angle_alpha 90.000000
_cell_angle_beta 152.144487
_cell_angle_gamma 90.000000
_cell_volume 2625.162547
_symmetry_space_group_name_H-M "C 2/C"
_symmetry_group_IT_number 15
_symmetry_cell_setting 'monoclinic'
loop_
_space_group_symop_operation_xyz
x,y,z
-x,y,1/2-z
-x,-y,-z
x,-y,1/2+z
1/2+x,1/2+y,z
1/2-x,1/2+y,1/2-z
1/2-x,1/2-y,-z
1/2+x,1/2-y,1/2+z
loop_
_atom_site_type_symbol
_atom_site_label
_atom_site_fract_x
_atom_site_fract_y
_atom_site_fract_z
Si Si1 0.500000 0.634875 0.750000
Si Si2 0.917576 0.591613 0.097295
Si Si3 0.289078 0.191002 0.250143
Si Si4 0.618738 0.212148 0.586356
Si Si5 0.947839 0.581453 0.641441
Si Si6 0.633609 0.512183 0.000003
Si Si7 0.179108 0.828992 0.923390
Si Si8 0.169388 0.496839 0.168866
O O1 0.294747 0.605060 0.585487
O O2 0.329924 0.670076 0.704869
O O3 0.079181 0.640751 0.201951
O O4 0.089235 0.546513 0.167072
O O5 0.761559 0.565356 0.073220
O O6 0.457491 0.207975 0.417794
O O7 0.257021 0.235841 0.174438
O O8 0.008160 0.182097 0.116745
O O9 0.421759 0.203126 0.540990
O O10 0.815036 0.532799 0.594090
O O11 0.783880 0.616605 0.497080
O O12 0.000000 0.609435 0.750000
O O13 0.142496 0.555279 0.698549
O O14 0.460432 0.503903 0.828270
O O15 0.500000 0.500000 0.000000
O O16 0.000000 0.827083 0.750000
O O17 0.000000 0.500000 0.000000
#
# Coordination Sequence:
#
# PCOD9291141 Si02
#       8
#     4   8   8   8   8   8   8   8
#     4  10  22  42  64  98 136 166 230 290 342 406
#     4  10  23  39  66  96 134 180 228 276 338 414
#     4  10  22  45  66  97 132 171 232 285 351 410
#     4  10  23  40  69  95 132 175 220 293 348 412
#     4  11  24  39  60  96 131 176 225 281 333 401
#     4  11  23  42  62  91 142 182 221 285 342 403
#     4  10  23  41  68  96 131 177 233 283 341 419
#     4  11  24  39  67  92 132 179 232 266 336 409
#
# _framework density 22.855727999999999
#
# number of rings (size 3 to 8) (size 9 to 14) (size 15 to 20)
#    0.000    1.600    1.333    2.000    9.333    4.267 
#    0.000    5.333    0.000    0.000    0.000    0.000 
#    0.000    0.000    0.000    0.000    0.000    0.000 
#
# Total GULP energy -167341.432819 kJ/mol
# GULP energy per Si atom -5578.047761 kJ/mol
# Density = 2.280371 g / cm^3
# Si number density = 22.855728 Si / 1000 Ang^3
#
#
#
# Elastic Constant Matrix: (Units=GPa)
#
#
# Indices 1 2 3 4 5 6 
#
# 1 66.5673 41.3707 18.3806 -0.0006 12.2935 0.0002
# 2 41.3707 149.5662 34.1195 -0.0004 15.6291 0.0002
# 3 18.3806 34.1195 98.5208 -0.0025 20.4801 0.0022
# 4 -0.0006 -0.0004 -0.0025 41.7287 -0.0010 -12.8774
# 5 12.2935 15.6291 20.4801 -0.0010 23.8424 0.0004
# 6 0.0002 0.0002 0.0022 -12.8774 0.0004 -9.3974
#
#
#
# Elastic Compliance Matrix: (Units=1/GPa)
#
#
# Indices 1 2 3 4 5 6 
#
# 1 0.019173 -0.004479 -0.000707 0.000000 -0.006342 0.000000
# 2 -0.004479 0.008507 -0.001743 0.000000 -0.001770 0.000000
# 3 -0.000707 -0.001743 0.012870 0.000001 -0.009548 0.000001
# 4 0.000000 0.000000 0.000001 0.016842 0.000000 -0.023079
# 5 -0.006342 -0.001770 -0.009548 0.000000 0.054574 -0.000001
# 6 0.000000 0.000000 0.000001 -0.023079 -0.000001 -0.074787
#
#
# Mechanical properties :
#
#
# Convention : Reuss Voigt Hill
#
# Bulk Modulus (GPa) = 37.46405 55.82180 46.64293
# Shear Modulus (GPa) = 83.42172 25.95364 54.68768
#
# Velocity S-wave (km/s) = 6.04802 3.37344 4.89686
# Velocity P-wave (km/s) = 8.07456 6.29682 7.24046
#
# Compressibility (1/GPa) = 0.02669225
#
# Stress axis : x y z
#
# Youngs Moduli (GPa) = 52.15754 117.54345 77.69707
#
# Poissons Ratio (x) = 0.52650 0.05496
# Poissons Ratio (y) = 0.23362 0.13540
# Poissons Ratio (z) = 0.03690 0.20483
#
# Static dielectric constant tensor:
#      x y z
#    x 1.924360 0.000020 0.019560 
#    y 0.000020 2.647760 -0.000020 
#    z 0.019560 -0.000020 1.895320 
# 
# From -- ./inp_files/201296.got.cif
#   From: 2010.05.17/outbox.cif.g08.bks.cpg/sg15_101_cif.got.tgz:201296.got - 2010.06.03 18:47:42.
