data_PCOD9291932
_publ_section_title
;
Structure prediction by ZEFSAII (Michael W. Deem and Ramdas Pophale) SiO2 
 PCOD9291932
Probable space group: C 2/C
;
_chemical_formula_sum "Si O2"
_cell_formula_units_Z 52
_cell_length_a 13.947480
_cell_length_b 5.397327
_cell_length_c 31.672443
_cell_angle_alpha 90.000000
_cell_angle_beta 61.856688
_cell_angle_gamma 90.000000
_cell_volume 2102.382029
_symmetry_space_group_name_H-M "C 2/C"
_symmetry_group_IT_number 15
_symmetry_cell_setting 'monoclinic'
loop_
_space_group_symop_operation_xyz
x,y,z
-x,y,1/2-z
-x,-y,-z
x,-y,1/2+z
1/2+x,1/2+y,z
1/2-x,1/2+y,1/2-z
1/2-x,1/2-y,-z
1/2+x,1/2-y,1/2+z
loop_
_atom_site_type_symbol
_atom_site_label
_atom_site_fract_x
_atom_site_fract_y
_atom_site_fract_z
Si Si1 0.688956 0.982552 0.962064
Si Si2 0.500000 0.219836 0.750000
Si Si3 0.484551 0.031305 0.662234
Si Si4 0.392234 0.633541 0.725764
Si Si5 0.232358 0.137896 0.312642
Si Si6 0.353872 0.518991 0.079827
Si Si7 0.918025 0.778368 0.939115
O O1 0.666370 0.756598 0.933608
O O2 0.812774 0.944745 0.951614
O O3 0.669365 0.256947 0.948183
O O4 0.612148 0.911330 0.017246
O O5 0.407211 0.403239 0.752478
O O6 0.530735 0.127476 0.696956
O O7 0.482188 0.740681 0.675236
O O8 0.361549 0.148904 0.678751
O O9 0.551868 0.120398 0.608563
O O10 0.352993 0.822839 0.769364
O O11 0.301937 0.584604 0.710301
O O12 0.219079 0.075689 0.363947
O O13 0.478414 0.558874 0.068760
#
# Coordination Sequence:
#
# PCOD9291932 Si02
#       7
#     8   4   8   8   8   8   8
#     4  11  26  48  73 109 139 191 236 299 358 424
#     4  10  24  36  60  96 126 172 220 270 342 412
#     4  10  22  43  62  95 134 178 217 283 346 409
#     4  11  21  41  63  92 132 173 223 279 338 417
#     4  10  23  38  67  95 129 179 222 281 342 419
#     4  11  26  45  75 107 142 187 240 290 362 422
#     4  10  25  47  72 103 144 183 240 300 353 424
#
# _framework density 24.733851000000001
#
# number of rings (size 3 to 8) (size 9 to 14) (size 15 to 20)
#    0.000    1.538    1.538    1.385    6.462    6.154 
#    8.308    0.000    0.000    0.000    0.000    0.000 
#    0.000    0.000    0.000    0.000    0.000    0.000 
#
# Total GULP energy -145076.984368 kJ/mol
# GULP energy per Si atom -5579.884014 kJ/mol
# Density = 2.467756 g / cm^3
# Si number density = 24.733851 Si / 1000 Ang^3
#
#
#
# Elastic Constant Matrix: (Units=GPa)
#
#
# Indices 1 2 3 4 5 6 
#
# 1 18.9567 100.9004 41.8937 -0.0015 9.8475 -0.0082
# 2 100.9004 -480.5391 -207.2693 0.0041 36.6394 0.0255
# 3 41.8937 -207.2693 55.1744 0.0022 18.6698 0.0116
# 4 -0.0015 0.0041 0.0022 14.0697 -0.0007 -12.8472
# 5 9.8475 36.6394 18.6698 -0.0007 35.2750 -0.0019
# 6 -0.0082 0.0255 0.0116 -12.8472 -0.0019 -37.9519
#
#
#
# Elastic Compliance Matrix: (Units=1/GPa)
#
#
# Indices 1 2 3 4 5 6 
#
# 1 0.031249 0.005185 0.000638 -0.000001 -0.014447 -0.000002
# 2 0.005185 0.000255 -0.002922 -0.000001 -0.000166 -0.000002
# 3 0.000638 -0.002922 0.006940 0.000000 -0.000817 0.000000
# 4 -0.000001 -0.000001 0.000000 0.054293 0.000001 -0.018379
# 5 -0.014447 -0.000166 -0.000817 0.000001 0.032986 0.000001
# 6 -0.000002 -0.000002 0.000000 -0.018379 0.000001 -0.020128
#
#
# Mechanical properties :
#
#
# Convention : Reuss Voigt Hill
#
# Bulk Modulus (GPa) = 22.60039 -59.48427 -18.44194
# Shear Modulus (GPa) = 43.65174 -20.51695 11.56739
#
# Velocity S-wave (km/s) = 4.20558 -2.88324 2.16492
# Velocity P-wave (km/s) = 5.72187 5.93179 1.10596
#
# Compressibility (1/GPa) = 0.04424703
#
# Stress axis : x y z
#
# Youngs Moduli (GPa) = 32.00072 3918.03725 144.08825
#
# Poissons Ratio (x) = -20.31408 -0.09195
# Poissons Ratio (y) = -0.16592 0.42099
# Poissons Ratio (z) = -0.02042 11.44755
#
# Static dielectric constant tensor:
#      x y z
#    x 2.022480 0.000000 -0.040110 
#    y 0.000000 2.360620 -0.000010 
#    z -0.040110 -0.000010 1.939600 
# 
# From -- ./inp_files/312314.got.cif
#   From: 2010.05.17/outbox.cif.g08.bks.cpg/sg15_157_cif.got.tgz:312314.got - 2010.06.03 18:47:42.
