data_PCOD9291109
_publ_section_title
;
Structure prediction by ZEFSAII (Michael W. Deem and Ramdas Pophale) SiO2 
 PCOD9291109
Probable space group: C 2/C
;
_chemical_formula_sum "Si O2"
_cell_formula_units_Z 52
_cell_length_a 12.684409
_cell_length_b 17.177000
_cell_length_c 14.651032
_cell_angle_alpha 90.000000
_cell_angle_beta 135.388893
_cell_angle_gamma 90.000000
_cell_volume 2241.831231
_symmetry_space_group_name_H-M "C 2/C"
_symmetry_group_IT_number 15
_symmetry_cell_setting 'monoclinic'
loop_
_space_group_symop_operation_xyz
x,y,z
-x,y,1/2-z
-x,-y,-z
x,-y,1/2+z
1/2+x,1/2+y,z
1/2-x,1/2+y,1/2-z
1/2-x,1/2-y,-z
1/2+x,1/2-y,1/2+z
loop_
_atom_site_type_symbol
_atom_site_label
_atom_site_fract_x
_atom_site_fract_y
_atom_site_fract_z
Si Si1 0.500000 0.675585 0.750000
Si Si2 0.222698 0.092749 0.256666
Si Si3 0.093228 0.924767 0.154185
Si Si4 0.108048 0.348354 0.468542
Si Si5 0.756828 0.582712 0.076851
Si Si6 0.750000 0.250000 0.500000
Si Si7 0.588214 0.667696 0.462564
Si Si8 0.500000 0.049342 0.750000
O O1 0.389081 0.623978 0.742704
O O2 0.420575 0.728665 0.627539
O O3 0.343381 0.110325 0.408106
O O4 0.267696 0.122021 0.184028
O O5 0.060462 0.131746 0.175619
O O6 0.191126 0.001626 0.222240
O O7 0.113736 0.874576 0.075405
O O8 0.914900 0.946106 0.042052
O O9 0.262271 0.343481 0.504561
O O10 0.059855 0.259735 0.457367
O O11 0.990514 0.394775 0.332754
O O12 0.865103 0.509266 0.142571
O O13 0.786520 0.654220 0.029020
#
# Coordination Sequence:
#
# PCOD9291109 Si02
#       8
#     4   8   8   8   8   4   8   4
#     4  10  23  38  67  96 128 174 226 272 343 396
#     4  11  23  43  69  98 130 176 231 278 332 409
#     4  10  22  43  72  96 127 178 230 278 323 413
#     4  11  26  39  69  98 136 183 214 285 344 400
#     4  10  23  43  67  97 134 179 220 284 338 399
#     4  10  22  42  64  94 132 176 222 276 340 404
#     4  10  23  44  66  97 135 174 233 276 330 409
#     4  12  25  44  63 100 146 170 224 286 349 406
#
# _framework density 23.195323999999999
#
# number of rings (size 3 to 8) (size 9 to 14) (size 15 to 20)
#    0.000    1.538    0.000    4.615   12.923    0.615 
#    2.769    0.000    0.000    0.000    0.000    0.000 
#    0.000    0.000    0.000    0.000    0.000    0.000 
#
# Total GULP energy -144865.431195 kJ/mol
# GULP energy per Si atom -5571.747354 kJ/mol
# Density = 2.314253 g / cm^3
# Si number density = 23.195324 Si / 1000 Ang^3
#
#
#
# Elastic Constant Matrix: (Units=GPa)
#
#
# Indices 1 2 3 4 5 6 
#
# 1 20.6350 13.3847 5.8647 0.0000 -11.3017 0.0000
# 2 13.3847 147.2191 58.6662 0.0000 -1.5866 0.0000
# 3 5.8647 58.6662 107.0913 0.0000 -24.5950 0.0000
# 4 0.0000 0.0000 0.0000 64.3148 0.0000 -1.3925
# 5 -11.3017 -1.5866 -24.5950 0.0000 28.0677 0.0000
# 6 0.0000 0.0000 0.0000 -1.3925 0.0000 25.9118
#
#
#
# Elastic Compliance Matrix: (Units=1/GPa)
#
#
# Indices 1 2 3 4 5 6 
#
# 1 0.072997 -0.010368 0.010389 0.000000 0.037910 0.000000
# 2 -0.010368 0.010666 -0.007631 0.000000 -0.010259 0.000000
# 3 0.010389 -0.007631 0.017291 0.000000 0.018903 0.000000
# 4 0.000000 0.000000 0.000000 0.015567 0.000000 0.000837
# 5 0.037910 -0.010259 0.018903 0.000000 0.066877 0.000000
# 6 0.000000 0.000000 0.000000 0.000837 0.000000 0.038637
#
#
# Mechanical properties :
#
#
# Convention : Reuss Voigt Hill
#
# Bulk Modulus (GPa) = 11.66415 47.86407 29.76411
# Shear Modulus (GPa) = 18.80882 36.79417 27.80150
#
# Velocity S-wave (km/s) = 2.85070 3.98713 3.46581
# Velocity P-wave (km/s) = 3.98433 6.47119 5.37360
#
# Compressibility (1/GPa) = 0.08573274
#
# Stress axis : x y z
#
# Youngs Moduli (GPa) = 13.69918 93.75946 57.83474
#
# Poissons Ratio (x) = 0.97209 -0.60083
# Poissons Ratio (y) = 0.14203 0.44134
# Poissons Ratio (z) = -0.14232 0.71548
#
# Static dielectric constant tensor:
#      x y z
#    x 1.960530 0.000000 -0.009710 
#    y 0.000000 1.895760 0.000000 
#    z -0.009710 0.000000 1.912890 
# 
# From -- ./inp_files/205807.got.cif
#   From: 2010.05.17/outbox.cif.g08.bks.cpg/sg15_103_cif.got.tgz:205807.got - 2010.06.03 18:47:42.
