data_PCOD9291669
_publ_section_title
;
Structure prediction by ZEFSAII (Michael W. Deem and Ramdas Pophale) SiO2 
 PCOD9291669
Probable space group: C 2/C
;
_chemical_formula_sum "Si O2"
_cell_formula_units_Z 48
_cell_length_a 15.917821
_cell_length_b 14.612268
_cell_length_c 33.860706
_cell_angle_alpha 90.000000
_cell_angle_beta 165.190894
_cell_angle_gamma 90.000000
_cell_volume 2013.061784
_symmetry_space_group_name_H-M "C 2/C"
_symmetry_group_IT_number 15
_symmetry_cell_setting 'monoclinic'
loop_
_space_group_symop_operation_xyz
x,y,z
-x,y,1/2-z
-x,-y,-z
x,-y,1/2+z
1/2+x,1/2+y,z
1/2-x,1/2+y,1/2-z
1/2-x,1/2-y,-z
1/2+x,1/2-y,1/2+z
loop_
_atom_site_type_symbol
_atom_site_label
_atom_site_fract_x
_atom_site_fract_y
_atom_site_fract_z
Si Si1 0.579917 0.818383 0.071255
Si Si2 0.650991 0.744637 0.187664
Si Si3 0.750335 0.469677 0.579269
Si Si4 0.000000 0.981556 0.250000
Si Si5 0.568396 0.578009 0.200052
Si Si6 0.500000 0.163612 0.250000
Si Si7 0.165919 0.918681 0.183833
O O1 0.752456 0.787489 0.191146
O O2 0.722823 0.906261 0.113229
O O3 0.675091 0.724518 0.093122
O O4 0.224920 0.853801 0.920738
O O5 0.751283 0.647085 0.252645
O O6 0.801237 0.817561 0.285553
O O7 0.250000 0.750000 0.000000
O O8 0.500000 0.500000 0.500000
O O9 0.020050 0.403808 0.722084
O O10 0.541116 0.424847 0.449788
O O11 0.960060 0.550717 0.655435
O O12 0.146205 0.036405 0.278979
O O13 0.518343 0.488691 0.149662
#
# Coordination Sequence:
#
# PCOD9291669 Si02
#       7
#     8   8   8   4   8   4   8
#     4  10  22  44  68  96 145 191 239 304 372 443
#     4  10  22  42  70 100 139 191 243 300 366 439
#     4  12  25  45  72 107 153 190 245 315 387 457
#     4  11  22  42  69 102 144 186 245 306 373 434
#     4  11  24  42  72 102 144 195 249 302 373 446
#     4  11  24  42  69 108 142 190 249 308 377 458
#     4  12  25  46  75 108 147 198 251 310 384 456
#
# _framework density 23.844275
#
# number of rings (size 3 to 8) (size 9 to 14) (size 15 to 20)
#    0.000    1.000    3.333    3.500    4.667    1.333 
#    0.000    3.333    0.000    0.000    0.000    0.000 
#    0.000    0.000    0.000    0.000    0.000    0.000 
#
# Total GULP energy -133606.939134 kJ/mol
# GULP energy per Si atom -5566.955797 kJ/mol
# Density = 2.379000 g / cm^3
# Si number density = 23.844275 Si / 1000 Ang^3
#
#
#
# Elastic Constant Matrix: (Units=GPa)
#
#
# Indices 1 2 3 4 5 6 
#
# 1 98.5347 19.1432 5.6661 -0.0099 -14.4801 0.0255
# 2 19.1432 129.9257 -0.6268 0.0116 -25.7454 0.0368
# 3 5.6661 -0.6268 36.4799 -0.0987 -15.9707 -0.0524
# 4 -0.0099 0.0116 -0.0987 27.5062 0.0033 0.9183
# 5 -14.4801 -25.7454 -15.9707 0.0033 50.0253 -0.0300
# 6 0.0255 0.0368 -0.0524 0.9183 -0.0300 29.9299
#
#
#
# Elastic Compliance Matrix: (Units=1/GPa)
#
#
# Indices 1 2 3 4 5 6 
#
# 1 0.010747 -0.001128 -0.000675 0.000002 0.002315 -0.000007
# 2 -0.001128 0.008876 0.002540 0.000004 0.005052 -0.000001
# 3 -0.000675 0.002540 0.032605 0.000112 0.011521 0.000063
# 4 0.000002 0.000004 0.000112 0.036393 0.000035 -0.001116
# 5 0.002315 0.005052 0.011521 0.000035 0.026938 0.000038
# 6 -0.000007 -0.000001 0.000063 -0.001116 0.000038 0.033446
#
#
# Mechanical properties :
#
#
# Convention : Reuss Voigt Hill
#
# Bulk Modulus (GPa) = 18.62163 34.81169 26.71666
# Shear Modulus (GPa) = 30.22374 37.54283 33.88328
#
# Velocity S-wave (km/s) = 3.56413 3.97230 3.77374
# Velocity P-wave (km/s) = 4.97634 5.97245 5.49701
#
# Compressibility (1/GPa) = 0.05370101
#
# Stress axis : x y z
#
# Youngs Moduli (GPa) = 93.05066 112.65917 30.67006
#
# Poissons Ratio (x) = 0.12708 0.02071
# Poissons Ratio (y) = 0.10496 -0.07789
# Poissons Ratio (z) = 0.06283 -0.28612
#
# Static dielectric constant tensor:
#      x y z
#    x 1.954510 -0.000140 0.137300 
#    y -0.000140 1.977120 -0.000010 
#    z 0.137300 -0.000010 1.976020 
# 
# From -- ./inp_files/314169.got.cif
#   From: 2010.05.17/outbox.cif.g08.bks.cpg/sg15_158_cif.got.tgz:314169.got - 2010.06.03 18:47:42.
