data_PCOD9291935
_publ_section_title
;
Structure prediction by ZEFSAII (Michael W. Deem and Ramdas Pophale) SiO2 
 PCOD9291935
Probable space group: C 2/C
;
_chemical_formula_sum "Si O2"
_cell_formula_units_Z 40
_cell_length_a 22.594265
_cell_length_b 7.271458
_cell_length_c 23.381842
_cell_angle_alpha 90.000000
_cell_angle_beta 154.546238
_cell_angle_gamma 90.000000
_cell_volume 1651.000610
_symmetry_space_group_name_H-M "C 2/C"
_symmetry_group_IT_number 15
_symmetry_cell_setting 'monoclinic'
loop_
_space_group_symop_operation_xyz
x,y,z
-x,y,1/2-z
-x,-y,-z
x,-y,1/2+z
1/2+x,1/2+y,z
1/2-x,1/2+y,1/2-z
1/2-x,1/2-y,-z
1/2+x,1/2-y,1/2+z
loop_
_atom_site_type_symbol
_atom_site_label
_atom_site_fract_x
_atom_site_fract_y
_atom_site_fract_z
Si Si1 0.077541 0.100138 0.921706
Si Si2 0.724799 0.549317 0.649978
Si Si3 0.711038 0.614294 0.869886
Si Si4 0.568468 0.747905 0.254132
Si Si5 0.345674 0.946362 0.875084
O O1 0.938289 0.193008 0.777918
O O2 0.200548 0.242907 0.016656
O O3 0.048227 0.888084 0.875860
O O4 0.111919 0.068684 0.018021
O O5 0.853081 0.613925 0.720382
O O6 0.657052 0.739833 0.606653
O O7 0.770552 0.460135 0.748865
O O8 0.677334 0.414318 0.867874
O O9 0.778245 0.562377 0.867523
O O10 0.500000 0.836605 0.250000
O O11 0.500000 0.000000 0.000000
#
# Coordination Sequence:
#
# PCOD9291935 Si02
#       5
#     8   8   8   8   8
#     4  10  22  43  62  98 131 176 221 267 333 392
#     4  11  23  41  65  98 133 172 220 270 328 398
#     4   9  23  41  63  96 134 171 221 268 329 400
#     4   9  22  44  66  98 131 174 223 276 328 392
#     4  11  24  37  63  94 132 175 211 270 332 393
#
# _framework density 24.227730999999999
#
# number of rings (size 3 to 8) (size 9 to 14) (size 15 to 20)
#    1.200    0.800    0.000    2.400    5.600    2.400 
#    0.000    1.000    0.000    0.000    0.000    0.000 
#    0.000    0.000    0.000    0.000    0.000    0.000 
#
# Total GULP energy -111499.963690 kJ/mol
# GULP energy per Si atom -5574.998185 kJ/mol
# Density = 2.417259 g / cm^3
# Si number density = 24.227731 Si / 1000 Ang^3
#
#
#
# Elastic Constant Matrix: (Units=GPa)
#
#
# Indices 1 2 3 4 5 6 
#
# 1 83.1913 -19.0589 -7.9667 0.0000 45.6636 0.0000
# 2 -19.0589 61.9361 -11.6537 0.0000 24.7192 0.0000
# 3 -7.9667 -11.6537 71.4510 0.0002 52.8316 0.0000
# 4 0.0000 0.0000 0.0002 -5.7114 0.0000 11.6245
# 5 45.6636 24.7192 52.8316 0.0000 -25.4502 0.0001
# 6 0.0000 0.0000 0.0000 11.6245 0.0001 -2.9462
#
#
#
# Elastic Compliance Matrix: (Units=1/GPa)
#
#
# Indices 1 2 3 4 5 6 
#
# 1 0.008131 -0.000661 -0.003753 0.000000 0.006156 0.000000
# 2 -0.000661 0.012997 -0.002529 0.000000 0.006188 0.000000
# 3 -0.003753 -0.002529 0.007874 0.000000 0.007155 0.000000
# 4 0.000000 0.000000 0.000000 0.024904 0.000000 0.098261
# 5 0.006156 0.006188 0.007155 0.000000 -0.007384 0.000000
# 6 0.000000 0.000000 0.000000 0.098261 0.000000 0.048277
#
#
# Mechanical properties :
#
#
# Convention : Reuss Voigt Hill
#
# Bulk Modulus (GPa) = 66.15677 15.46887 40.81282
# Shear Modulus (GPa) = 43.96635 10.19563 27.08099
#
# Velocity S-wave (km/s) = 4.26456 2.05363 3.34693
# Velocity P-wave (km/s) = 7.18430 3.46725 5.64074
#
# Compressibility (1/GPa) = 0.01511561
#
# Stress axis : x y z
#
# Youngs Moduli (GPa) = 122.99008 76.94144 127.00126
#
# Poissons Ratio (x) = 0.05086 0.47663
# Poissons Ratio (y) = 0.08130 0.32119
# Poissons Ratio (z) = 0.46157 0.19459
#
# Static dielectric constant tensor:
#      x y z
#    x 1.939590 0.000000 0.006150 
#    y 0.000000 2.625220 0.000000 
#    z 0.006150 0.000000 1.988090 
# 
# From -- ./inp_files/303139.got.cif
#   From: 2010.05.17/outbox.cif.g08.bks.cpg/sg15_152_cif.got.tgz:303139.got - 2010.06.03 18:47:42.
