data_PCOD9291340
_publ_section_title
;
Structure prediction by ZEFSAII (Michael W. Deem and Ramdas Pophale) SiO2 
 PCOD9291340
Probable space group: C 2/C
;
_chemical_formula_sum "Si O2"
_cell_formula_units_Z 40
_cell_length_a 7.655651
_cell_length_b 7.654582
_cell_length_c 27.947457
_cell_angle_alpha 90.000000
_cell_angle_beta 123.790990
_cell_angle_gamma 90.000000
_cell_volume 1361.082725
_symmetry_space_group_name_H-M "C 2/C"
_symmetry_group_IT_number 15
_symmetry_cell_setting 'monoclinic'
loop_
_space_group_symop_operation_xyz
x,y,z
-x,y,1/2-z
-x,-y,-z
x,-y,1/2+z
1/2+x,1/2+y,z
1/2-x,1/2+y,1/2-z
1/2-x,1/2-y,-z
1/2+x,1/2-y,1/2+z
loop_
_atom_site_type_symbol
_atom_site_label
_atom_site_fract_x
_atom_site_fract_y
_atom_site_fract_z
Si Si1 0.251936 0.483763 0.823178
Si Si2 0.608772 0.810312 0.522908
Si Si3 0.280102 0.859234 0.777397
Si Si4 0.729265 0.633065 0.077589
Si Si5 0.693385 0.006668 0.122262
O O1 0.264645 0.671728 0.800146
O O2 0.325924 0.360446 0.790812
O O3 0.364529 0.473431 0.891545
O O4 0.015996 0.423709 0.801062
O O5 0.750000 0.750000 0.500000
O O6 0.418437 0.672767 0.490094
O O7 0.736841 0.837346 0.591193
O O8 0.500000 0.000000 0.500000
O O9 0.208348 0.983523 0.809944
O O10 0.944027 0.542457 0.093747
O O11 0.751371 0.824741 0.106099
#
# Coordination Sequence:
#
# PCOD9291340 Si02
#       5
#     8   8   8   8   8
#     4  10  22  42  66  96 130 170 214 265 321 383
#     4  10  23  42  66  94 130 170 216 266 322 382
#     4  10  22  42  66  96 130 170 214 265 321 383
#     4  10  22  43  67  97 132 172 217 267 322 384
#     4  10  22  43  67  97 132 172 217 267 322 384
#
# _framework density 29.388365
#
# number of rings (size 3 to 8) (size 9 to 14) (size 15 to 20)
#    0.000    2.000    0.000    1.800    0.000   12.800 
#    0.000   29.000    0.000    0.000    0.000    0.000 
#    0.000    0.000    0.000    0.000    0.000    0.000 
#
# Total GULP energy -111978.488838 kJ/mol
# GULP energy per Si atom -5598.924442 kJ/mol
# Density = 2.932148 g / cm^3
# Si number density = 29.388365 Si / 1000 Ang^3
#
#
#
# Elastic Constant Matrix: (Units=GPa)
#
#
# Indices 1 2 3 4 5 6 
#
# 1 193.0574 34.6021 26.9192 0.0000 -21.2974 0.0000
# 2 34.6021 202.4637 47.0469 0.0000 -24.6081 0.0000
# 3 26.9192 47.0469 209.7372 0.0000 -35.3470 0.0000
# 4 0.0000 0.0000 0.0000 63.1799 0.0000 -20.2676
# 5 -21.2974 -24.6081 -35.3470 0.0000 54.6210 0.0000
# 6 0.0000 0.0000 0.0000 -20.2676 0.0000 42.4355
#
#
#
# Elastic Compliance Matrix: (Units=1/GPa)
#
#
# Indices 1 2 3 4 5 6 
#
# 1 0.005524 -0.000677 -0.000276 0.000000 0.001670 0.000000
# 2 -0.000677 0.005454 -0.000861 0.000000 0.001636 0.000000
# 3 -0.000276 -0.000861 0.005514 0.000000 0.003073 0.000000
# 4 0.000000 0.000000 0.000000 0.018692 0.000000 0.008927
# 5 0.001670 0.001636 0.003073 0.000000 0.021685 0.000000
# 6 0.000000 0.000000 0.000000 0.008927 0.000000 0.027829
#
#
# Mechanical properties :
#
#
# Convention : Reuss Voigt Hill
#
# Bulk Modulus (GPa) = 77.72897 91.37719 84.55308
# Shear Modulus (GPa) = 53.98838 65.15997 59.57417
#
# Velocity S-wave (km/s) = 4.29075 4.71383 4.50726
# Velocity P-wave (km/s) = 7.14519 7.79663 7.47800
#
# Compressibility (1/GPa) = 0.01286522
#
# Stress axis : x y z
#
# Youngs Moduli (GPa) = 181.03312 183.36116 181.34857
#
# Poissons Ratio (x) = 0.12413 0.04998
# Poissons Ratio (y) = 0.12256 0.15609
# Poissons Ratio (z) = 0.04989 0.15782
#
# Static dielectric constant tensor:
#      x y z
#    x 2.385570 0.000000 0.193920 
#    y 0.000000 2.323330 0.000000 
#    z 0.193920 0.000000 2.556870 
# 
# From -- ./inp_files/287077.got.cif
#   From: 2010.05.17/outbox.cif.g08.bks.cpg/sg15_144_cif.got.tgz:287077.got - 2010.06.03 18:47:42.
