data_PCOD9291727
_publ_section_title
;
Structure prediction by ZEFSAII (Michael W. Deem and Ramdas Pophale) SiO2 
 PCOD9291727
Probable space group: C 2/C
;
_chemical_formula_sum "Si O2"
_cell_formula_units_Z 40
_cell_length_a 5.670852
_cell_length_b 19.758603
_cell_length_c 15.172401
_cell_angle_alpha 90.000000
_cell_angle_beta 88.568261
_cell_angle_gamma 90.000000
_cell_volume 1699.508158
_symmetry_space_group_name_H-M "C 2/C"
_symmetry_group_IT_number 15
_symmetry_cell_setting 'monoclinic'
loop_
_space_group_symop_operation_xyz
x,y,z
-x,y,1/2-z
-x,-y,-z
x,-y,1/2+z
1/2+x,1/2+y,z
1/2-x,1/2+y,1/2-z
1/2-x,1/2-y,-z
1/2+x,1/2-y,1/2+z
loop_
_atom_site_type_symbol
_atom_site_label
_atom_site_fract_x
_atom_site_fract_y
_atom_site_fract_z
Si Si1 0.875900 0.990096 0.622104
Si Si2 0.500000 0.805150 0.750000
Si Si3 0.121719 0.390534 0.165593
Si Si4 0.500000 0.383337 0.750000
Si Si5 0.775535 0.904066 0.474007
Si Si6 0.434728 0.720230 0.570804
O O1 0.707928 0.943490 0.563382
O O2 0.030941 0.933845 0.667145
O O3 0.737561 0.038113 0.690943
O O4 0.021093 0.046170 0.566130
O O5 0.245750 0.843061 0.752864
O O6 0.507176 0.768147 0.652478
O O7 0.301332 0.337614 0.126239
O O8 0.000000 0.358014 0.250000
O O9 0.935434 0.404963 0.091814
O O10 0.863994 0.825960 0.479671
O O11 0.250000 0.750000 0.500000
#
# Coordination Sequence:
#
# PCOD9291727 Si02
#       6
#     8   4   8   4   8   8
#     4  10  23  42  67 104 131 179 235 301 372 431
#     4  12  30  47  70 109 148 194 254 298 368 446
#     4  11  23  40  72 100 138 181 235 303 362 435
#     4  12  28  45  72 101 150 188 238 310 368 432
#     4  10  22  42  70  96 135 178 242 297 364 431
#     4  11  26  46  70 100 144 197 248 298 362 439
#
# _framework density 23.536221000000001
#
# number of rings (size 3 to 8) (size 9 to 14) (size 15 to 20)
#    0.000    1.200    0.000    4.200   11.200    4.000 
#    0.000    0.000    0.000    0.000    0.000    0.000 
#    0.000    0.000    0.000    0.000    0.000    0.000 
#
# Total GULP energy -111536.668345 kJ/mol
# GULP energy per Si atom -5576.833417 kJ/mol
# Density = 2.348265 g / cm^3
# Si number density = 23.536221 Si / 1000 Ang^3
#
#
#
# Elastic Constant Matrix: (Units=GPa)
#
#
# Indices 1 2 3 4 5 6 
#
# 1 67.1591 55.5917 2.9774 0.0000 19.0753 0.0000
# 2 55.5917 146.2163 47.4124 0.0000 21.9812 0.0000
# 3 2.9774 47.4124 68.0734 0.0000 20.6345 0.0000
# 4 0.0000 0.0000 0.0000 35.7867 0.0000 20.4930
# 5 19.0753 21.9812 20.6345 0.0000 46.7240 0.0000
# 6 0.0000 0.0000 0.0000 20.4930 0.0000 36.2672
#
#
#
# Elastic Compliance Matrix: (Units=1/GPa)
#
#
# Indices 1 2 3 4 5 6 
#
# 1 0.027466 -0.012312 0.010411 0.000000 -0.010018 0.000000
# 2 -0.012312 0.014467 -0.010389 0.000000 0.002809 0.000000
# 3 0.010411 -0.010389 0.024566 0.000000 -0.010212 0.000000
# 4 0.000000 0.000000 0.000000 0.041310 0.000000 -0.023343
# 5 -0.010018 0.002809 -0.010212 0.000000 0.028681 0.000000
# 6 0.000000 0.000000 0.000000 -0.023343 0.000000 0.040763
#
#
# Mechanical properties :
#
#
# Convention : Reuss Voigt Hill
#
# Bulk Modulus (GPa) = 23.85625 54.82355 39.33990
# Shear Modulus (GPa) = 23.16905 35.45340 29.31123
#
# Velocity S-wave (km/s) = 3.14092 3.88536 3.53280
# Velocity P-wave (km/s) = 4.82823 6.59332 5.77857
#
# Compressibility (1/GPa) = 0.04191774
#
# Stress axis : x y z
#
# Youngs Moduli (GPa) = 36.40920 69.12385 40.70707
#
# Poissons Ratio (x) = 0.85107 -0.42379
# Poissons Ratio (y) = 0.44828 0.42290
# Poissons Ratio (z) = -0.37905 0.71811
#
# Static dielectric constant tensor:
#      x y z
#    x 1.685880 0.000000 -0.091390 
#    y 0.000000 1.906010 0.000000 
#    z -0.091390 0.000000 1.949830 
# 
# From -- ./inp_files/184296.got.cif
#   From: 2010.05.17/outbox.cif.g08.bks.cpg/sg15_93_cif.got.tgz:184296.got - 2010.06.03 18:47:42.
