data_PCOD9291781
_publ_section_title
;
Structure prediction by ZEFSAII (Michael W. Deem and Ramdas Pophale) SiO2 
 PCOD9291781
Probable space group: C 2/C
;
_chemical_formula_sum "Si O2"
_cell_formula_units_Z 56
_cell_length_a 10.937429
_cell_length_b 15.516959
_cell_length_c 16.335038
_cell_angle_alpha 90.000000
_cell_angle_beta 117.069694
_cell_angle_gamma 90.000000
_cell_volume 2468.614753
_symmetry_space_group_name_H-M "C 2/C"
_symmetry_group_IT_number 15
_symmetry_cell_setting 'monoclinic'
loop_
_space_group_symop_operation_xyz
x,y,z
-x,y,1/2-z
-x,-y,-z
x,-y,1/2+z
1/2+x,1/2+y,z
1/2-x,1/2+y,1/2-z
1/2-x,1/2-y,-z
1/2+x,1/2-y,1/2+z
loop_
_atom_site_type_symbol
_atom_site_label
_atom_site_fract_x
_atom_site_fract_y
_atom_site_fract_z
Si Si1 0.763263 0.201093 0.589646
Si Si2 0.797167 0.127089 0.985058
Si Si3 0.652505 0.850841 0.270002
Si Si4 0.291787 0.488298 0.746831
Si Si5 0.184063 0.302023 0.732554
Si Si6 0.907066 0.020693 0.609666
Si Si7 0.553337 0.210511 0.015041
O O1 0.750000 0.250000 0.500000
O O2 0.834691 0.256617 0.684342
O O3 0.856970 0.117867 0.602530
O O4 0.600183 0.180827 0.554606
O O5 0.738375 0.134680 0.877528
O O6 0.921506 0.196074 0.019982
O O7 0.676736 0.155231 0.011439
O O8 0.845429 0.031141 0.016213
O O9 0.500000 0.864840 0.250000
O O10 0.682033 0.752812 0.254006
O O11 0.702749 0.924781 0.223783
O O12 0.213587 0.403008 0.751762
O O13 0.343957 0.474041 0.670544
O O14 0.430626 0.509195 0.838026
O O15 0.081414 0.289608 0.622672
#
# Coordination Sequence:
#
# PCOD9291781 Si02
#       7
#     8   8   8   8   8   8   8
#     4  12  28  43  68 103 144 189 224 285 355 428
#     4  10  22  42  71  97 131 174 237 291 330 409
#     4  11  25  43  70 100 137 179 233 291 343 412
#     4  11  25  45  70 100 136 187 230 289 349 419
#     4  11  24  47  71 100 141 184 235 290 348 414
#     4  11  25  44  68  98 138 180 235 283 348 419
#     4  10  23  44  70 102 131 180 236 289 347 402
#
# _framework density 22.684788000000001
#
# number of rings (size 3 to 8) (size 9 to 14) (size 15 to 20)
#    0.000    1.143    2.857    1.714    8.000    2.857 
#    0.000    0.000    0.000    0.000    0.000    0.000 
#    0.000    0.000    0.000    0.000    0.000    0.000 
#
# Total GULP energy -156416.068969 kJ/mol
# GULP energy per Si atom -5586.288177 kJ/mol
# Density = 2.263316 g / cm^3
# Si number density = 22.684788 Si / 1000 Ang^3
#
#
#
# Elastic Constant Matrix: (Units=GPa)
#
#
# Indices 1 2 3 4 5 6 
#
# 1 49.5079 6.0695 14.5514 0.0000 1.7852 0.0000
# 2 6.0695 111.9718 33.2845 0.0000 7.7290 0.0000
# 3 14.5514 33.2845 112.3819 0.0000 -9.1121 0.0000
# 4 0.0000 0.0000 0.0000 41.0058 0.0000 -8.7039
# 5 1.7852 7.7290 -9.1121 0.0000 30.9994 0.0000
# 6 0.0000 0.0000 0.0000 -8.7039 0.0000 11.3015
#
#
#
# Elastic Compliance Matrix: (Units=1/GPa)
#
#
# Indices 1 2 3 4 5 6 
#
# 1 0.021129 -0.000158 -0.002852 0.000000 -0.002016 0.000000
# 2 -0.000158 0.010151 -0.003268 0.000000 -0.003483 0.000000
# 3 -0.002852 -0.003268 0.010567 0.000000 0.004085 0.000000
# 4 0.000000 0.000000 0.000000 0.029152 0.000000 0.022452
# 5 -0.002016 -0.003483 0.004085 0.000000 0.034444 0.000000
# 6 0.000000 0.000000 0.000000 0.022452 0.000000 0.105775
#
#
# Mechanical properties :
#
#
# Convention : Reuss Voigt Hill
#
# Bulk Modulus (GPa) = 34.14229 42.40803 38.27516
# Shear Modulus (GPa) = 21.40958 31.32509 26.36734
#
# Velocity S-wave (km/s) = 3.07544 3.72006 3.41300
# Velocity P-wave (km/s) = 5.26256 6.09810 5.69567
#
# Compressibility (1/GPa) = 0.02928919
#
# Stress axis : x y z
#
# Youngs Moduli (GPa) = 47.32773 98.50895 94.63585
#
# Poissons Ratio (x) = 0.01559 0.26994
# Poissons Ratio (y) = 0.00749 0.30931
# Poissons Ratio (z) = 0.13500 0.32197
#
# Static dielectric constant tensor:
#      x y z
#    x 1.544760 0.000000 -0.197930 
#    y 0.000000 1.816960 0.000000 
#    z -0.197930 0.000000 1.784020 
# 
# From -- ./inp_files/198440.got.cif
#   From: 2010.05.17/outbox.cif.g08.bks.cpg/sg15_100_cif.got.tgz:198440.got - 2010.06.03 18:47:42.
