data_PCOD9291121
_publ_section_title
;
Structure prediction by ZEFSAII (Michael W. Deem and Ramdas Pophale) SiO2 
 PCOD9291121
Probable space group: C 2/C
;
_chemical_formula_sum "Si O2"
_cell_formula_units_Z 52
_cell_length_a 14.173315
_cell_length_b 15.770323
_cell_length_c 11.610658
_cell_angle_alpha 90.000000
_cell_angle_beta 69.503746
_cell_angle_gamma 90.000000
_cell_volume 2430.900044
_symmetry_space_group_name_H-M "C 2/C"
_symmetry_group_IT_number 15
_symmetry_cell_setting 'monoclinic'
loop_
_space_group_symop_operation_xyz
x,y,z
-x,y,1/2-z
-x,-y,-z
x,-y,1/2+z
1/2+x,1/2+y,z
1/2-x,1/2+y,1/2-z
1/2-x,1/2-y,-z
1/2+x,1/2-y,1/2+z
loop_
_atom_site_type_symbol
_atom_site_label
_atom_site_fract_x
_atom_site_fract_y
_atom_site_fract_z
Si Si1 0.965141 0.404545 0.007871
Si Si2 0.114079 0.090558 0.187918
Si Si3 0.849742 0.831040 0.592771
Si Si4 0.272341 0.572265 0.902269
Si Si5 0.182175 0.786801 0.260006
Si Si6 0.432957 0.259822 0.964814
Si Si7 0.000000 0.317832 0.750000
O O1 0.025242 0.336987 0.064421
O O2 0.989372 0.371388 0.869658
O O3 0.845388 0.414926 0.069234
O O4 0.000000 0.500000 0.000000
O O5 0.155349 0.105060 0.298008
O O6 0.000000 0.056573 0.250000
O O7 0.186831 0.022672 0.097224
O O8 0.100683 0.181617 0.128422
O O9 0.803906 0.871541 0.498675
O O10 0.785875 0.751656 0.667501
O O11 0.966422 0.805580 0.527705
O O12 0.323573 0.614436 0.767860
O O13 0.155397 0.764950 0.402802
O O14 0.097427 0.739677 0.222322
#
# Coordination Sequence:
#
# PCOD9291121 Si02
#       7
#     8   8   8   8   8   8   4
#     4  11  24  44  67  96 136 175 228 280 342 412
#     4  10  27  44  66 101 142 177 224 288 348 408
#     4  11  23  45  68  94 139 178 231 278 338 418
#     4  12  24  40  70 104 131 178 234 282 334 414
#     4  11  22  40  72  95 129 178 226 279 339 408
#     4  10  24  47  66  95 139 177 222 282 354 398
#     4  10  22  42  64  96 126 176 220 280 338 400
#
# _framework density 21.391254
#
# number of rings (size 3 to 8) (size 9 to 14) (size 15 to 20)
#    0.000    1.231    3.077    2.308    9.692    1.846 
#    4.154    0.000    0.000    0.000    0.000    0.000 
#    0.000    0.000    0.000    0.000    0.000    0.000 
#
# Total GULP energy -145131.541669 kJ/mol
# GULP energy per Si atom -5581.982372 kJ/mol
# Density = 2.134257 g / cm^3
# Si number density = 21.391254 Si / 1000 Ang^3
#
#
#
# Elastic Constant Matrix: (Units=GPa)
#
#
# Indices 1 2 3 4 5 6 
#
# 1 67.0381 40.9182 22.7928 0.0000 -13.9258 0.0000
# 2 40.9182 129.9559 31.4804 0.0000 -13.2475 0.0000
# 3 22.7928 31.4804 56.5108 0.0000 -10.5346 0.0000
# 4 0.0000 0.0000 0.0000 18.7904 0.0000 -6.3528
# 5 -13.9258 -13.2475 -10.5346 0.0000 16.1116 0.0000
# 6 0.0000 0.0000 0.0000 -6.3528 0.0000 26.6891
#
#
#
# Elastic Compliance Matrix: (Units=1/GPa)
#
#
# Indices 1 2 3 4 5 6 
#
# 1 0.021608 -0.004612 -0.003839 0.000000 0.012374 0.000000
# 2 -0.004612 0.010195 -0.003416 0.000000 0.002163 0.000000
# 3 -0.003839 -0.003416 0.022782 0.000000 0.008769 0.000000
# 4 0.000000 0.000000 0.000000 0.057876 0.000000 0.013776
# 5 0.012374 0.002163 0.008769 0.000000 0.080274 0.000000
# 6 0.000000 0.000000 0.000000 0.013776 0.000000 0.040748
#
#
# Mechanical properties :
#
#
# Convention : Reuss Voigt Hill
#
# Bulk Modulus (GPa) = 32.41479 49.32084 40.86782
# Shear Modulus (GPa) = 18.69156 22.87244 20.78200
#
# Velocity S-wave (km/s) = 2.95921 3.27347 3.12030
# Velocity P-wave (km/s) = 5.18286 6.11507 5.66816
#
# Compressibility (1/GPa) = 0.03085012
#
# Stress axis : x y z
#
# Youngs Moduli (GPa) = 46.27972 98.08694 43.89474
#
# Poissons Ratio (x) = 0.45238 0.16852
# Poissons Ratio (y) = 0.21345 0.14994
# Poissons Ratio (z) = 0.17768 0.33506
#
# Static dielectric constant tensor:
#      x y z
#    x 1.793730 0.000000 -0.007460 
#    y 0.000000 1.795260 0.000000 
#    z -0.007460 0.000000 1.775530 
# 
# From -- ./inp_files/96942.got.cif
#   From: 2010.05.17/outbox.cif.g08.bks.cpg/sg15_49_cif.got.tgz:96942.got - 2010.06.03 18:47:42.
