data_PCOD9291588
_publ_section_title
;
Structure prediction by ZEFSAII (Michael W. Deem and Ramdas Pophale) SiO2 
 PCOD9291588
Probable space group: C 2/C
;
_chemical_formula_sum "Si O2"
_cell_formula_units_Z 36
_cell_length_a 17.904196
_cell_length_b 19.405057
_cell_length_c 8.809340
_cell_angle_alpha 90.000000
_cell_angle_beta 147.917018
_cell_angle_gamma 90.000000
_cell_volume 1625.652833
_symmetry_space_group_name_H-M "C 2/C"
_symmetry_group_IT_number 15
_symmetry_cell_setting 'monoclinic'
loop_
_space_group_symop_operation_xyz
x,y,z
-x,y,1/2-z
-x,-y,-z
x,-y,1/2+z
1/2+x,1/2+y,z
1/2-x,1/2+y,1/2-z
1/2-x,1/2-y,-z
1/2+x,1/2-y,1/2+z
loop_
_atom_site_type_symbol
_atom_site_label
_atom_site_fract_x
_atom_site_fract_y
_atom_site_fract_z
Si Si1 0.482415 0.155714 0.900421
Si Si2 0.000000 0.857842 0.750000
Si Si3 0.209459 0.937087 0.898375
Si Si4 0.217645 0.086206 0.055252
Si Si5 0.107022 0.213056 0.706587
O O1 0.500000 0.169819 0.750000
O O2 0.348954 0.105963 0.687154
O O3 0.624403 0.116036 0.191172
O O4 0.484558 0.228666 0.994868
O O5 0.916575 0.902690 0.726953
O O6 0.892645 0.812602 0.466501
O O7 0.196131 0.930245 0.694912
O O8 0.211615 0.016644 0.948595
O O9 0.110292 0.144732 0.813668
O O10 0.250000 0.250000 0.000000
#
# Coordination Sequence:
#
# PCOD9291588 Si02
#       5
#     8   4   8   8   8
#     4   9  19  42  69  98 133 175 227 283 340 404
#     4  12  26  44  68  94 140 180 228 280 338 408
#     4  11  24  42  69 100 136 183 229 283 342 407
#     4  10  22  42  69 100 134 175 230 285 342 407
#     4  10  22  44  66  98 137 175 225 279 341 410
#
# _framework density 22.144949
#
# number of rings (size 3 to 8) (size 9 to 14) (size 15 to 20)
#    0.000    1.778    1.111    2.000    0.000    5.333 
#    4.000    7.778    0.000    0.000    0.000    0.000 
#    0.000    0.000    0.000    0.000    0.000    0.000 
#
# Total GULP energy -100585.815872 kJ/mol
# GULP energy per Si atom -5588.100882 kJ/mol
# Density = 2.209455 g / cm^3
# Si number density = 22.144949 Si / 1000 Ang^3
#
#
#
# Elastic Constant Matrix: (Units=GPa)
#
#
# Indices 1 2 3 4 5 6 
#
# 1 93.2479 61.5752 43.2917 0.0000 -3.6441 0.0000
# 2 61.5752 201.4783 82.5888 0.0000 -15.5101 0.0000
# 3 43.2917 82.5888 119.9143 0.0000 -21.3490 0.0000
# 4 0.0000 0.0000 0.0000 27.9707 0.0000 13.3514
# 5 -3.6441 -15.5101 -21.3490 0.0000 30.7685 0.0000
# 6 0.0000 0.0000 0.0000 13.3514 0.0000 -64.3166
#
#
#
# Elastic Compliance Matrix: (Units=1/GPa)
#
#
# Indices 1 2 3 4 5 6 
#
# 1 0.014291 -0.003151 -0.003389 0.000000 -0.002247 0.000000
# 2 -0.003151 0.007612 -0.003980 0.000000 0.000702 0.000000
# 3 -0.003389 -0.003980 0.013549 0.000000 0.006993 0.000000
# 4 0.000000 0.000000 0.000000 0.032528 0.000000 0.006753
# 5 -0.002247 0.000702 0.006993 0.000000 0.037441 0.000000
# 6 0.000000 0.000000 0.000000 0.006753 0.000000 -0.014146
#
#
# Mechanical properties :
#
#
# Convention : Reuss Voigt Hill
#
# Bulk Modulus (GPa) = 69.39022 87.72799 78.55911
# Shear Modulus (GPa) = 42.69185 14.03016 28.36100
#
# Velocity S-wave (km/s) = 4.39548 2.51979 3.58257
# Velocity P-wave (km/s) = 7.56061 6.94026 7.25707
#
# Compressibility (1/GPa) = 0.01441125
#
# Stress axis : x y z
#
# Youngs Moduli (GPa) = 69.97630 131.37426 73.80688
#
# Poissons Ratio (x) = 0.41400 0.25013
# Poissons Ratio (y) = 0.22051 0.29374
# Poissons Ratio (z) = 0.23715 0.52284
#
# Static dielectric constant tensor:
#      x y z
#    x 1.746400 0.000000 -0.002450 
#    y 0.000000 1.848500 0.000000 
#    z -0.002450 0.000000 1.829090 
# 
# From -- ./inp_files/28717.got.cif
#   From: 2010.05.17/outbox.cif.g08.bks.cpg/sg15_15_cif.got.tgz:28717.got - 2010.06.03 18:47:42.
