data_PCOD9291881
_publ_section_title
;
Structure prediction by ZEFSAII (Michael W. Deem and Ramdas Pophale) SiO2 
 PCOD9291881
Probable space group: C 2/C
;
_chemical_formula_sum "Si O2"
_cell_formula_units_Z 60
_cell_length_a 21.962552
_cell_length_b 14.329857
_cell_length_c 27.820453
_cell_angle_alpha 90.000000
_cell_angle_beta 16.845654
_cell_angle_gamma 90.000000
_cell_volume 2537.342006
_symmetry_space_group_name_H-M "C 2/C"
_symmetry_group_IT_number 15
_symmetry_cell_setting 'monoclinic'
loop_
_space_group_symop_operation_xyz
x,y,z
-x,y,1/2-z
-x,-y,-z
x,-y,1/2+z
1/2+x,1/2+y,z
1/2-x,1/2+y,1/2-z
1/2-x,1/2-y,-z
1/2+x,1/2-y,1/2+z
loop_
_atom_site_type_symbol
_atom_site_label
_atom_site_fract_x
_atom_site_fract_y
_atom_site_fract_z
Si Si1 0.836338 0.818707 0.200403
Si Si2 0.500000 0.638079 0.750000
Si Si3 0.824645 0.853148 0.925394
Si Si4 0.988484 0.724305 0.337123
Si Si5 0.922630 0.474915 0.913827
Si Si6 0.380098 0.267850 0.060286
Si Si7 0.841082 0.509111 0.163973
Si Si8 0.973313 0.857531 0.637415
O O1 0.585297 0.793901 0.391760
O O2 0.950042 0.761192 0.156382
O O3 0.831951 0.928877 0.211709
O O4 0.924664 0.805467 0.080021
O O5 0.400935 0.706697 0.784270
O O6 0.691471 0.570355 0.592924
O O7 0.000000 0.847978 0.750000
O O8 0.924027 0.909357 0.895822
O O9 0.750000 0.750000 0.000000
O O10 0.624571 0.918113 0.064424
O O11 0.750000 0.750000 0.500000
O O12 0.030221 0.612464 0.303379
O O13 0.042632 0.486225 0.873552
O O14 0.359684 0.331723 0.028894
O O15 0.157167 0.219614 0.234838
O O16 0.713661 0.602558 0.253149
O O17 0.000000 0.500000 0.000000
#
# Coordination Sequence:
#
# PCOD9291881 Si02
#       8
#     8   4   8   8   8   8   8   8
#     4  11  24  41  70  99 139 184 232 294 356 426
#     4  10  22  42  74  98 146 190 246 292 366 442
#     4  12  27  47  76 105 146 192 243 298 368 444
#     4  10  24  41  68 103 142 188 238 299 363 431
#     4  11  24  45  66 107 141 189 244 303 361 437
#     4  10  23  42  67  96 137 177 232 287 352 422
#     4  12  24  40  70 104 138 186 243 296 356 429
#     4  11  24  44  70 102 133 187 233 293 359 423
#
# _framework density 23.646792999999999
#
# number of rings (size 3 to 8) (size 9 to 14) (size 15 to 20)
#    0.000    1.067    2.000    4.000   11.200    0.533 
#    1.200    0.000    0.000    0.000    0.000    0.000 
#    0.000    0.000    0.000    0.000    0.000    0.000 
#
# Total GULP energy -167241.835499 kJ/mol
# GULP energy per Si atom -5574.727850 kJ/mol
# Density = 2.359297 g / cm^3
# Si number density = 23.646793 Si / 1000 Ang^3
#
#
#
# Elastic Constant Matrix: (Units=GPa)
#
#
# Indices 1 2 3 4 5 6 
#
# 1 165.9814 30.5008 27.5263 0.0037 -4.9556 0.0016
# 2 30.5008 118.4786 19.6189 -0.0051 4.2042 -0.0085
# 3 27.5263 19.6189 64.9321 0.0166 9.0863 0.0030
# 4 0.0037 -0.0051 0.0166 16.9360 0.0004 -2.6441
# 5 -4.9556 4.2042 9.0863 0.0004 42.3015 -0.0060
# 6 0.0016 -0.0085 0.0030 -2.6441 -0.0060 42.8778
#
#
#
# Elastic Compliance Matrix: (Units=1/GPa)
#
#
# Indices 1 2 3 4 5 6 
#
# 1 0.006760 -0.001352 -0.002667 0.000001 0.001499 0.000000
# 2 -0.001352 0.009159 -0.002108 0.000005 -0.000616 0.000002
# 3 -0.002667 -0.002108 0.017715 -0.000018 -0.003908 -0.000003
# 4 0.000001 0.000005 -0.000018 0.059620 0.000003 0.003677
# 5 0.001499 -0.000616 -0.003908 0.000003 0.024716 0.000004
# 6 0.000000 0.000002 -0.000003 0.003677 0.000004 0.023549
#
#
# Mechanical properties :
#
#
# Convention : Reuss Voigt Hill
#
# Bulk Modulus (GPa) = 46.77183 56.07600 51.42392
# Shear Modulus (GPa) = 31.07502 38.53947 34.80724
#
# Velocity S-wave (km/s) = 3.62903 4.04145 3.84078
# Velocity P-wave (km/s) = 6.11409 6.74858 6.43915
#
# Compressibility (1/GPa) = 0.02138039
#
# Stress axis : x y z
#
# Youngs Moduli (GPa) = 147.92287 109.17842 56.44852
#
# Poissons Ratio (x) = 0.14760 0.15056
# Poissons Ratio (y) = 0.19998 0.11900
# Poissons Ratio (z) = 0.39454 0.23017
#
# Static dielectric constant tensor:
#      x y z
#    x 2.127850 0.000080 0.188660 
#    y 0.000080 2.045100 0.000250 
#    z 0.188660 0.000250 2.080050 
# 
# From -- ./inp_files/301192.got.cif
#   From: 2010.05.17/outbox.cif.g08.bks.cpg/sg15_151_cif.got.tgz:301192.got - 2010.06.03 18:47:42.
