data_PCOD9291091
_publ_section_title
;
Structure prediction by ZEFSAII (Michael W. Deem and Ramdas Pophale) SiO2 
 PCOD9291091
Probable space group: C 2/C
;
_chemical_formula_sum "Si O2"
_cell_formula_units_Z 64
_cell_length_a 14.395048
_cell_length_b 25.484155
_cell_length_c 12.477059
_cell_angle_alpha 90.000000
_cell_angle_beta 142.341277
_cell_angle_gamma 90.000000
_cell_volume 2796.444057
_symmetry_space_group_name_H-M "C 2/C"
_symmetry_group_IT_number 15
_symmetry_cell_setting 'monoclinic'
loop_
_space_group_symop_operation_xyz
x,y,z
-x,y,1/2-z
-x,-y,-z
x,-y,1/2+z
1/2+x,1/2+y,z
1/2-x,1/2+y,1/2-z
1/2-x,1/2-y,-z
1/2+x,1/2-y,1/2+z
loop_
_atom_site_type_symbol
_atom_site_label
_atom_site_fract_x
_atom_site_fract_y
_atom_site_fract_z
Si Si1 0.177326 0.650932 0.916906
Si Si2 0.292641 0.829192 0.287115
Si Si3 0.560020 0.267396 0.193747
Si Si4 0.350550 0.541158 0.042623
Si Si5 0.125471 0.933114 0.169044
Si Si6 0.667653 0.056503 0.450849
Si Si7 0.147257 0.129099 0.012370
Si Si8 0.377736 0.830181 0.896151
O O1 0.203557 0.687969 0.835745
O O2 0.000000 0.634781 0.750000
O O3 0.278912 0.598437 0.003285
O O4 0.190271 0.675785 0.047112
O O5 0.229302 0.791531 0.323855
O O6 0.170287 0.874708 0.173438
O O7 0.456146 0.856653 0.452206
O O8 0.500000 0.241796 0.250000
O O9 0.566853 0.224645 0.105799
O O10 0.443272 0.316391 0.081748
O O11 0.500000 0.533399 0.250000
O O12 0.396167 0.537362 0.960668
O O13 0.228858 0.496068 0.951132
O O14 0.266470 0.952550 0.369100
O O15 0.968728 0.919697 0.084839
O O16 0.500000 0.062898 0.250000
O O17 0.751176 0.111002 0.494355
O O18 0.258578 0.138969 0.214100
#
# Coordination Sequence:
#
# PCOD9291091 Si02
#       8
#     8   8   8   8   8   8   8   8
#     4   9  20  40  63  90 127 166 212 267 328 392
#     4   9  20  40  61  85 123 168 212 268 327 387
#     4  11  24  40  59  87 126 170 219 269 325 392
#     4  11  23  40  67  98 130 170 215 267 328 395
#     4  10  22  42  64  91 128 169 214 266 326 390
#     4  12  26  42  65  95 129 172 219 270 328 391
#     4  11  23  41  64  91 127 167 214 270 324 386
#     4  11  22  37  63  94 123 166 214 268 332 390
#
# _framework density 22.886208
#
# number of rings (size 3 to 8) (size 9 to 14) (size 15 to 20)
#    0.000    1.500    0.000    5.250    0.000    7.500 
#    0.000    1.250    0.000    0.000    0.000    0.000 
#    0.000    0.000    0.000    0.000    0.000    0.000 
#
# Total GULP energy -178225.522466 kJ/mol
# GULP energy per Si atom -5569.547577 kJ/mol
# Density = 2.283412 g / cm^3
# Si number density = 22.886208 Si / 1000 Ang^3
#
#
#
# Elastic Constant Matrix: (Units=GPa)
#
#
# Indices 1 2 3 4 5 6 
#
# 1 118.4479 28.9024 55.6115 0.0000 -6.5467 0.0000
# 2 28.9024 70.0116 13.3397 0.0000 -0.6554 0.0000
# 3 55.6115 13.3397 140.6581 0.0000 -11.8368 0.0000
# 4 0.0000 0.0000 0.0000 36.8815 0.0000 -12.8242
# 5 -6.5467 -0.6554 -11.8368 0.0000 35.0308 0.0000
# 6 0.0000 0.0000 0.0000 -12.8242 0.0000 36.8839
#
#
#
# Elastic Compliance Matrix: (Units=1/GPa)
#
#
# Indices 1 2 3 4 5 6 
#
# 1 0.011335 -0.003901 -0.004055 0.000000 0.000675 0.000000
# 2 -0.003901 0.015890 -0.000001 0.000000 -0.000432 0.000000
# 3 -0.004055 -0.000001 0.008902 0.000000 0.002250 0.000000
# 4 0.000000 0.000000 0.000000 0.030843 0.000000 0.010724
# 5 0.000675 -0.000432 0.002250 0.000000 0.029425 0.000000
# 6 0.000000 0.000000 0.000000 0.010724 0.000000 0.030841
#
#
# Mechanical properties :
#
#
# Convention : Reuss Voigt Hill
#
# Bulk Modulus (GPa) = 49.47066 58.31386 53.89226
# Shear Modulus (GPa) = 33.35858 37.17685 35.26772
#
# Velocity S-wave (km/s) = 3.82197 4.03478 3.92982
# Velocity P-wave (km/s) = 6.41401 6.87322 6.64758
#
# Compressibility (1/GPa) = 0.02021400
#
# Stress axis : x y z
#
# Youngs Moduli (GPa) = 88.21911 62.93355 112.33338
#
# Poissons Ratio (x) = 0.24548 0.45550
# Poissons Ratio (y) = 0.34411 0.00013
# Poissons Ratio (z) = 0.35772 0.00007
#
# Static dielectric constant tensor:
#      x y z
#    x 1.937840 0.000000 -0.034810 
#    y 0.000000 1.878010 0.000000 
#    z -0.034810 0.000000 1.950720 
# 
# From -- ./inp_files/101340.got.cif
#   From: 2010.05.17/outbox.cif.g08.bks.cpg/sg15_51_cif.got.tgz:101340.got - 2010.06.03 18:47:42.
