data_PCOD9291896
_publ_section_title
;
Structure prediction by ZEFSAII (Michael W. Deem and Ramdas Pophale) SiO2 
 PCOD9291896
Probable space group: C 2/C
;
_chemical_formula_sum "Si O2"
_cell_formula_units_Z 44
_cell_length_a 13.230071
_cell_length_b 13.240437
_cell_length_c 11.278567
_cell_angle_alpha 90.000000
_cell_angle_beta 117.044784
_cell_angle_gamma 90.000000
_cell_volume 1759.649510
_symmetry_space_group_name_H-M "C 2/C"
_symmetry_group_IT_number 15
_symmetry_cell_setting 'monoclinic'
loop_
_space_group_symop_operation_xyz
x,y,z
-x,y,1/2-z
-x,-y,-z
x,-y,1/2+z
1/2+x,1/2+y,z
1/2-x,1/2+y,1/2-z
1/2-x,1/2-y,-z
1/2+x,1/2-y,1/2+z
loop_
_atom_site_type_symbol
_atom_site_label
_atom_site_fract_x
_atom_site_fract_y
_atom_site_fract_z
Si Si1 0.939560 0.126082 0.859678
Si Si2 0.276417 0.654887 0.098722
Si Si3 0.000000 0.269325 0.250000
Si Si4 0.176830 0.972977 0.548930
Si Si5 0.533855 0.179596 0.019428
Si Si6 0.849862 0.300829 0.626349
O O1 0.951736 0.198764 0.979290
O O2 0.891731 0.210164 0.739355
O O3 0.859917 0.032929 0.851078
O O4 0.066267 0.079181 0.927101
O O5 0.392122 0.695624 0.217916
O O6 0.159775 0.639495 0.108062
O O7 0.250000 0.750000 0.000000
O O8 0.289741 0.556556 0.027938
O O9 0.001773 0.342407 0.366843
O O10 0.281137 0.899577 0.630033
O O11 0.446640 0.164876 0.081929
O O12 0.750000 0.250000 0.500000
#
# Coordination Sequence:
#
# PCOD9291896 Si02
#       6
#     8   8   4   8   8   8
#     4  11  25  51  79 118 161 208 299 332 401 511
#     4  10  22  44  77 117 158 200 272 339 389 490
#     4  10  22  42  80 108 156 216 262 326 404 474
#     4  11  25  51  84 120 150 232 272 340 432 475
#     4  11  24  46  76 113 170 210 265 351 404 476
#     4  12  28  47  79 122 170 217 266 348 417 494
#
# _framework density 25.00498
#
# number of rings (size 3 to 8) (size 9 to 14) (size 15 to 20)
#    0.000    1.091    5.455    0.545    2.545    2.182 
#    3.273    0.000   20.000    1.091    0.000    0.000 
#    0.000    0.000    0.000    0.000    0.000    0.000 
#
# Total GULP energy -122531.589068 kJ/mol
# GULP energy per Si atom -5569.617685 kJ/mol
# Density = 2.494807 g / cm^3
# Si number density = 25.004980 Si / 1000 Ang^3
#
#
#
# Elastic Constant Matrix: (Units=GPa)
#
#
# Indices 1 2 3 4 5 6 
#
# 1 250.7993 87.5923 84.1642 0.0000 12.7456 0.0000
# 2 87.5923 114.4936 57.7409 0.0000 1.6541 0.0000
# 3 84.1642 57.7409 155.1809 0.0000 11.2478 0.0000
# 4 0.0000 0.0000 0.0000 31.1294 0.0000 -6.3011
# 5 12.7456 1.6541 11.2478 0.0000 32.4945 0.0000
# 6 0.0000 0.0000 0.0000 -6.3011 0.0000 64.0475
#
#
#
# Elastic Compliance Matrix: (Units=1/GPa)
#
#
# Indices 1 2 3 4 5 6 
#
# 1 0.005918 -0.003622 -0.001751 0.000000 -0.001531 0.000000
# 2 -0.003622 0.012992 -0.003000 0.000000 0.001798 0.000000
# 3 -0.001751 -0.003000 0.008667 0.000000 -0.002160 0.000000
# 4 0.000000 0.000000 0.000000 0.032777 0.000000 0.003225
# 5 -0.001531 0.001798 -0.002160 0.000000 0.032031 0.000000
# 6 0.000000 0.000000 0.000000 0.003225 0.000000 0.015931
#
#
# Mechanical properties :
#
#
# Convention : Reuss Voigt Hill
#
# Bulk Modulus (GPa) = 92.33272 108.82983 100.58128
# Shear Modulus (GPa) = 38.85878 44.93269 41.89573
#
# Velocity S-wave (km/s) = 3.94641 4.24364 4.09772
# Velocity P-wave (km/s) = 7.60075 8.22369 7.91835
#
# Compressibility (1/GPa) = 0.01083040
#
# Stress axis : x y z
#
# Youngs Moduli (GPa) = 168.98658 76.96918 115.38657
#
# Poissons Ratio (x) = 0.27880 0.20202
# Poissons Ratio (y) = 0.61210 0.34616
# Poissons Ratio (z) = 0.29586 0.23091
#
# Static dielectric constant tensor:
#      x y z
#    x 2.241090 0.000000 -0.133670 
#    y 0.000000 1.536870 0.000000 
#    z -0.133670 0.000000 2.188700 
# 
# From -- ./inp_files/96590.got.cif
#   From: 2010.05.17/outbox.cif.g08.bks.cpg/sg15_49_cif.got.tgz:96590.got - 2010.06.03 18:47:42.
