data_PCOD9291942
_publ_section_title
;
Structure prediction by ZEFSAII (Michael W. Deem and Ramdas Pophale) SiO2 
 PCOD9291942
Probable space group: C 2/C
;
_chemical_formula_sum "Si O2"
_cell_formula_units_Z 64
_cell_length_a 25.211575
_cell_length_b 11.266409
_cell_length_c 13.010315
_cell_angle_alpha 90.000000
_cell_angle_beta 63.192346
_cell_angle_gamma 90.000000
_cell_volume 3298.329004
_symmetry_space_group_name_H-M "C 2/C"
_symmetry_group_IT_number 15
_symmetry_cell_setting 'monoclinic'
loop_
_space_group_symop_operation_xyz
x,y,z
-x,y,1/2-z
-x,-y,-z
x,-y,1/2+z
1/2+x,1/2+y,z
1/2-x,1/2+y,1/2-z
1/2-x,1/2-y,-z
1/2+x,1/2-y,1/2+z
loop_
_atom_site_type_symbol
_atom_site_label
_atom_site_fract_x
_atom_site_fract_y
_atom_site_fract_z
Si Si1 0.226747 0.601738 0.403872
Si Si2 0.388560 0.405214 0.380295
Si Si3 0.523208 0.369665 0.009442
Si Si4 0.746076 0.610456 0.489262
Si Si5 0.674144 0.791045 0.160409
Si Si6 0.342887 0.037938 0.234227
Si Si7 0.562659 0.353954 0.752045
Si Si8 0.946971 0.696993 0.212826
O O1 0.243020 0.466011 0.417121
O O2 0.282975 0.687650 0.331941
O O3 0.203398 0.652161 0.533058
O O4 0.179274 0.593608 0.353899
O O5 0.430670 0.392986 0.440751
O O6 0.321817 0.422892 0.476752
O O7 0.412543 0.513855 0.290643
O O8 0.399110 0.284665 0.308053
O O9 0.476440 0.275152 0.095916
O O10 0.500000 0.500000 0.000000
O O11 0.553122 0.325571 0.879523
O O12 0.750000 0.750000 0.500000
O O13 0.793902 0.577728 0.361197
O O14 0.613779 0.733554 0.171440
O O15 0.660669 0.895007 0.253838
O O16 0.408197 0.086282 0.207582
O O17 0.500000 0.342765 0.750000
O O18 0.000000 0.671468 0.250000
#
# Coordination Sequence:
#
# PCOD9291942 Si02
#       8
#     8   8   8   8   8   8   8   8
#     4  10  24  45  67  94 135 171 218 275 331 391
#     4  11  21  38  63  94 134 162 216 281 325 388
#     4  11  22  37  62  98 126 168 224 267 333 390
#     4  11  23  40  67 102 127 168 214 272 330 388
#     4  10  25  46  61  96 136 172 216 279 327 399
#     4  11  25  42  69  94 130 175 222 265 335 405
#     4  12  23  40  66  94 132 175 219 271 332 395
#     4  10  22  43  63  92 131 169 217 283 328 388
#
# _framework density 19.403763000000001
#
# number of rings (size 3 to 8) (size 9 to 14) (size 15 to 20)
#    0.000    1.250    5.000    0.375    5.250    0.500 
#    2.250    0.625    0.000    0.000    0.000    0.000 
#    0.000    0.000    0.000    0.000    0.000    0.000 
#
# Total GULP energy -178491.256941 kJ/mol
# GULP energy per Si atom -5577.851779 kJ/mol
# Density = 1.935960 g / cm^3
# Si number density = 19.403763 Si / 1000 Ang^3
#
#
#
# Elastic Constant Matrix: (Units=GPa)
#
#
# Indices 1 2 3 4 5 6 
#
# 1 92.3023 46.7909 19.1292 0.0000 -10.3729 0.0000
# 2 46.7909 103.0396 19.9842 0.0000 5.8206 0.0000
# 3 19.1292 19.9842 58.1462 0.0000 2.3434 0.0000
# 4 0.0000 0.0000 0.0000 9.9804 0.0000 -5.1672
# 5 -10.3729 5.8206 2.3434 0.0000 27.5956 0.0000
# 6 0.0000 0.0000 0.0000 -5.1672 0.0000 31.4299
#
#
#
# Elastic Compliance Matrix: (Units=1/GPa)
#
#
# Indices 1 2 3 4 5 6 
#
# 1 0.015935 -0.007068 -0.003125 0.000000 0.007746 0.000000
# 2 -0.007068 0.013633 -0.002145 0.000000 -0.005350 0.000000
# 3 -0.003125 -0.002145 0.019058 0.000000 -0.002341 0.000000
# 4 0.000000 0.000000 0.000000 0.109519 0.000000 0.018005
# 5 0.007746 -0.005350 -0.002341 0.000000 0.040476 0.000000
# 6 0.000000 0.000000 0.000000 0.018005 0.000000 0.034777
#
#
# Mechanical properties :
#
#
# Convention : Reuss Voigt Hill
#
# Bulk Modulus (GPa) = 41.75386 47.25520 44.50453
# Shear Modulus (GPa) = 18.79304 24.97343 21.88323
#
# Velocity S-wave (km/s) = 3.11549 3.59143 3.36189
# Velocity P-wave (km/s) = 5.87425 6.45014 6.16892
#
# Compressibility (1/GPa) = 0.02394988
#
# Stress axis : x y z
#
# Youngs Moduli (GPa) = 62.75518 73.35371 52.47220
#
# Poissons Ratio (x) = 0.51843 0.16400
# Poissons Ratio (y) = 0.44352 0.11253
# Poissons Ratio (z) = 0.19614 0.15732
#
# Static dielectric constant tensor:
#      x y z
#    x 1.672200 0.000000 -0.029260 
#    y 0.000000 1.745460 0.000000 
#    z -0.029260 0.000000 1.688090 
# 
# From -- ./inp_files/118011.got.cif
#   From: 2010.05.17/outbox.cif.g08.bks.cpg/sg15_60_cif.got.tgz:118011.got - 2010.06.03 18:47:42.
