data_PCOD9291446
_publ_section_title
;
Structure prediction by ZEFSAII (Michael W. Deem and Ramdas Pophale) SiO2 
 PCOD9291446
Probable space group: C 2/C
;
_chemical_formula_sum "Si O2"
_cell_formula_units_Z 56
_cell_length_a 13.963898
_cell_length_b 11.260072
_cell_length_c 29.313697
_cell_angle_alpha 90.000000
_cell_angle_beta 31.026716
_cell_angle_gamma 90.000000
_cell_volume 2375.716483
_symmetry_space_group_name_H-M "C 2/C"
_symmetry_group_IT_number 15
_symmetry_cell_setting 'monoclinic'
loop_
_space_group_symop_operation_xyz
x,y,z
-x,y,1/2-z
-x,-y,-z
x,-y,1/2+z
1/2+x,1/2+y,z
1/2-x,1/2+y,1/2-z
1/2-x,1/2-y,-z
1/2+x,1/2-y,1/2+z
loop_
_atom_site_type_symbol
_atom_site_label
_atom_site_fract_x
_atom_site_fract_y
_atom_site_fract_z
Si Si1 0.113648 0.196409 0.301838
Si Si2 0.500000 0.337049 0.250000
Si Si3 0.156431 0.895688 0.413179
Si Si4 0.500000 0.741906 0.250000
Si Si5 0.049866 0.917122 0.552928
Si Si6 0.762021 0.766349 0.568188
Si Si7 0.775001 0.553045 0.711091
Si Si8 0.147118 0.430261 0.533783
O O1 0.213238 0.325381 0.263923
O O2 0.006186 0.183689 0.297578
O O3 0.000715 0.193883 0.395649
O O4 0.223594 0.070366 0.257904
O O5 0.364403 0.256795 0.336549
O O6 0.372986 0.415521 0.268032
O O7 0.314112 0.819023 0.326792
O O8 0.193184 0.904184 0.452255
O O9 0.952333 0.838289 0.496013
O O10 0.126050 0.017380 0.398246
O O11 0.156070 0.004874 0.543146
O O12 0.840150 0.642154 0.517714
O O13 0.646569 0.834195 0.575648
O O14 0.975216 0.518494 0.608189
#
# Coordination Sequence:
#
# PCOD9291446 Si02
#       8
#     8   4   8   4   8   8   8   8
#     4  12  26  45  69 102 144 189 240 299 366 437
#     4  12  25  42  71 108 143 188 245 302 361 436
#     4  10  22  42  68 103 143 188 240 301 361 433
#     4  12  25  42  71 106 145 186 241 306 371 426
#     4  10  22  42  67  97 138 186 241 297 360 435
#     4  10  22  43  69 100 142 189 235 287 359 438
#     4  12  26  44  69 102 142 189 241 299 362 429
#     4  10  22  42  68  95 136 189 235 290 359 428
#
# _framework density 23.571836999999999
#
# number of rings (size 3 to 8) (size 9 to 14) (size 15 to 20)
#    0.000    1.143    0.000    5.571    0.000    6.286 
#    0.000   12.857    0.000    0.000    0.000    0.000 
#    0.000    0.000    0.000    0.000    0.000    0.000 
#
# Total GULP energy -156320.162143 kJ/mol
# GULP energy per Si atom -5582.862934 kJ/mol
# Density = 2.351819 g / cm^3
# Si number density = 23.571837 Si / 1000 Ang^3
#
#
#
# Elastic Constant Matrix: (Units=GPa)
#
#
# Indices 1 2 3 4 5 6 
#
# 1 106.3640 39.9830 37.4322 -0.0001 11.4654 0.0000
# 2 39.9830 115.2621 45.0379 0.0000 3.3058 0.0000
# 3 37.4322 45.0379 114.2356 -0.0008 9.9881 0.0000
# 4 -0.0001 0.0000 -0.0008 39.0598 -0.0001 -3.9879
# 5 11.4654 3.3058 9.9881 -0.0001 34.1432 0.0000
# 6 0.0000 0.0000 0.0000 -3.9879 0.0000 35.2652
#
#
#
# Elastic Compliance Matrix: (Units=1/GPa)
#
#
# Indices 1 2 3 4 5 6 
#
# 1 0.011700 -0.003046 -0.002376 0.000000 -0.002939 0.000000
# 2 -0.003046 0.011050 -0.003442 0.000000 0.000960 0.000000
# 3 -0.002376 -0.003442 0.011074 0.000000 -0.002108 0.000000
# 4 0.000000 0.000000 0.000000 0.025901 0.000000 0.002929
# 5 -0.002939 0.000960 -0.002108 0.000000 0.030799 0.000000
# 6 0.000000 0.000000 0.000000 0.002929 0.000000 0.028688
#
#
# Mechanical properties :
#
#
# Convention : Reuss Voigt Hill
#
# Bulk Modulus (GPa) = 62.13007 64.52976 63.32992
# Shear Modulus (GPa) = 35.13595 35.92087 35.52841
#
# Velocity S-wave (km/s) = 3.86500 3.90794 3.88653
# Velocity P-wave (km/s) = 6.80681 6.91360 6.86041
#
# Compressibility (1/GPa) = 0.01609527
#
# Stress axis : x y z
#
# Youngs Moduli (GPa) = 85.47350 90.49783 90.30251
#
# Poissons Ratio (x) = 0.27564 0.21455
# Poissons Ratio (y) = 0.26033 0.31086
# Poissons Ratio (z) = 0.20307 0.31153
#
# Static dielectric constant tensor:
#      x y z
#    x 1.924240 0.000000 0.047590 
#    y 0.000000 1.945170 0.000000 
#    z 0.047590 0.000000 1.875420 
# 
# From -- ./inp_files/313760.got.cif
#   From: 2010.05.17/outbox.cif.g08.bks.cpg/sg15_157_cif.got.tgz:313760.got - 2010.06.03 18:47:42.
