data_PCOD9291226
_publ_section_title
;
Structure prediction by ZEFSAII (Michael W. Deem and Ramdas Pophale) SiO2 
 PCOD9291226
Probable space group: C 2/C
;
_chemical_formula_sum "Si O2"
_cell_formula_units_Z 52
_cell_length_a 8.748144
_cell_length_b 17.114297
_cell_length_c 20.457690
_cell_angle_alpha 90.000000
_cell_angle_beta 48.649810
_cell_angle_gamma 90.000000
_cell_volume 2299.268672
_symmetry_space_group_name_H-M "C 2/C"
_symmetry_group_IT_number 15
_symmetry_cell_setting 'monoclinic'
loop_
_space_group_symop_operation_xyz
x,y,z
-x,y,1/2-z
-x,-y,-z
x,-y,1/2+z
1/2+x,1/2+y,z
1/2-x,1/2+y,1/2-z
1/2-x,1/2-y,-z
1/2+x,1/2-y,1/2+z
loop_
_atom_site_type_symbol
_atom_site_label
_atom_site_fract_x
_atom_site_fract_y
_atom_site_fract_z
Si Si1 0.000000 0.929443 0.250000
Si Si2 0.168674 0.669267 0.495357
Si Si3 0.687014 0.831284 0.555040
Si Si4 0.273503 0.861217 0.293678
Si Si5 0.165597 0.435458 0.438245
Si Si6 0.547740 0.590571 0.990712
Si Si7 0.770540 0.180401 0.314909
O O1 0.144578 0.888786 0.266051
O O2 0.162934 0.969998 0.156823
O O3 0.250000 0.750000 0.500000
O O4 0.295331 0.602926 0.495368
O O5 0.210355 0.676587 0.407617
O O6 0.937231 0.640193 0.568368
O O7 0.750000 0.750000 0.500000
O O8 0.726195 0.898679 0.490021
O O9 0.457396 0.841059 0.647504
O O10 0.856079 0.853231 0.560252
O O11 0.500000 0.892974 0.250000
O O12 0.146930 0.878777 0.395342
O O13 0.298206 0.768055 0.280343
O O14 0.000000 0.500000 0.500000
O O15 0.500000 0.500000 0.000000
O O16 0.000000 0.144060 0.250000
#
# Coordination Sequence:
#
# PCOD9291226 Si02
#       7
#     4   8   8   8   8   8   8
#     4  12  24  42  74 102 140 196 240 298 366 442
#     4  11  22  41  70  96 134 184 225 286 365 416
#     4  11  20  43  67  94 134 174 228 289 349 429
#     4  11  23  43  67 104 138 180 245 296 354 441
#     4  11  24  43  66 100 134 182 236 287 357 429
#     4  12  23  41  68 100 136 180 233 289 360 430
#     4  10  22  42  65  98 139 176 233 296 355 425
#
# _framework density 22.615884999999999
#
# number of rings (size 3 to 8) (size 9 to 14) (size 15 to 20)
#    0.000    0.923    4.615    2.769    2.154    0.000 
#    5.538    1.538    0.000    0.000    0.000    0.000 
#    0.000    0.000    0.000    0.000    0.000    0.000 
#
# Total GULP energy -144783.814693 kJ/mol
# GULP energy per Si atom -5568.608257 kJ/mol
# Density = 2.256441 g / cm^3
# Si number density = 22.615885 Si / 1000 Ang^3
#
#
#
# Elastic Constant Matrix: (Units=GPa)
#
#
# Indices 1 2 3 4 5 6 
#
# 1 131.9299 0.6071 16.7563 0.0000 -19.9191 0.0005
# 2 0.6071 68.0841 2.4100 0.0000 -3.3900 0.0004
# 3 16.7563 2.4100 105.1091 0.0002 -39.4271 0.0004
# 4 0.0000 0.0000 0.0002 22.2134 -0.0002 -6.6925
# 5 -19.9191 -3.3900 -39.4271 -0.0002 49.7867 -0.0003
# 6 0.0005 0.0004 0.0004 -6.6925 -0.0003 34.5273
#
#
#
# Elastic Compliance Matrix: (Units=1/GPa)
#
#
# Indices 1 2 3 4 5 6 
#
# 1 0.008068 0.000089 -0.000107 0.000000 0.003149 0.000000
# 2 0.000089 0.014739 0.000054 0.000000 0.001081 0.000000
# 3 -0.000107 0.000054 0.013536 0.000000 0.010680 0.000000
# 4 0.000000 0.000000 0.000000 0.047810 0.000000 0.009267
# 5 0.003149 0.001081 0.010680 0.000000 0.029877 0.000000
# 6 0.000000 0.000000 0.000000 0.009267 0.000000 0.030759
#
#
# Mechanical properties :
#
#
# Convention : Reuss Voigt Hill
#
# Bulk Modulus (GPa) = 27.46193 38.29666 32.87930
# Shear Modulus (GPa) = 31.87620 40.32878 36.10249
#
# Velocity S-wave (km/s) = 3.75835 4.22738 3.99975
# Velocity P-wave (km/s) = 5.56801 6.38733 5.99169
#
# Compressibility (1/GPa) = 0.03641404
#
# Stress axis : x y z
#
# Youngs Moduli (GPa) = 123.93930 67.84780 73.87708
#
# Poissons Ratio (x) = -0.00601 0.00790
# Poissons Ratio (y) = -0.01099 -0.00396
# Poissons Ratio (z) = 0.01325 -0.00364
#
# Static dielectric constant tensor:
#      x y z
#    x 1.990100 0.000000 -0.119560 
#    y 0.000000 1.874370 0.000000 
#    z -0.119560 0.000000 1.890690 
# 
# From -- ./inp_files/232992.got.cif
#   From: 2010.05.17/outbox.cif.g08.bks.cpg/sg15_117_cif.got.tgz:232992.got - 2010.06.03 18:47:42.
