data_PCOD9291546
_publ_section_title
;
Structure prediction by ZEFSAII (Michael W. Deem and Ramdas Pophale) SiO2 
 PCOD9291546
Probable space group: C 2/C
;
_chemical_formula_sum "Si O2"
_cell_formula_units_Z 48
_cell_length_a 17.276814
_cell_length_b 30.208352
_cell_length_c 9.916892
_cell_angle_alpha 90.000000
_cell_angle_beta 27.192276
_cell_angle_gamma 90.000000
_cell_volume 2365.165783
_symmetry_space_group_name_H-M "C 2/C"
_symmetry_group_IT_number 15
_symmetry_cell_setting 'monoclinic'
loop_
_space_group_symop_operation_xyz
x,y,z
-x,y,1/2-z
-x,-y,-z
x,-y,1/2+z
1/2+x,1/2+y,z
1/2-x,1/2+y,1/2-z
1/2-x,1/2-y,-z
1/2+x,1/2-y,1/2+z
loop_
_atom_site_type_symbol
_atom_site_label
_atom_site_fract_x
_atom_site_fract_y
_atom_site_fract_z
Si Si1 0.783216 0.956791 0.952300
Si Si2 0.802074 0.715381 0.528805
Si Si3 0.193579 0.787543 0.481478
Si Si4 0.689846 0.537742 0.775705
Si Si5 0.425645 0.867830 0.223066
Si Si6 0.342404 0.120122 0.391854
O O1 0.987142 0.957831 0.614170
O O2 0.737201 0.995794 0.919560
O O3 0.743262 0.963848 0.173640
O O4 0.689913 0.910716 0.066469
O O5 0.750000 0.750000 0.500000
O O6 0.746810 0.666275 0.569402
O O7 0.000000 0.712489 0.250000
O O8 0.733342 0.732420 0.775198
O O9 0.250000 0.750000 0.500000
O O10 0.308311 0.830438 0.335595
O O11 0.000000 0.801523 0.750000
O O12 0.734317 0.578870 0.609923
O O13 0.500000 0.851435 0.250000
O O14 0.575702 0.879572 0.884208
O O15 0.500000 0.118744 0.250000
#
# Coordination Sequence:
#
# PCOD9291546 Si02
#       6
#     8   8   8   8   8   8
#     4  10  23  42  67  96 133 175 221 277 332 398
#     4  11  23  44  67  95 130 170 216 265 326 391
#     4  12  26  44  72  99 133 175 219 273 332 394
#     4  10  22  42  68  96 131 173 226 273 335 395
#     4  12  27  44  66 100 138 174 225 276 331 402
#     4  11  22  44  66  92 131 175 220 272 330 397
#
# _framework density 20.294560000000001
#
# number of rings (size 3 to 8) (size 9 to 14) (size 15 to 20)
#    0.000    1.000    5.000    1.500    9.333    1.333 
#    0.000    0.000    0.000    0.000    0.000    0.000 
#    0.000    0.000    0.000    0.000    0.000    0.000 
#
# Total GULP energy -133769.246382 kJ/mol
# GULP energy per Si atom -5573.718599 kJ/mol
# Density = 2.024837 g / cm^3
# Si number density = 20.294560 Si / 1000 Ang^3
#
#
#
# Elastic Constant Matrix: (Units=GPa)
#
#
# Indices 1 2 3 4 5 6 
#
# 1 106.4077 32.9328 42.5607 0.0000 29.0426 0.0000
# 2 32.9328 126.6509 26.1200 0.0000 19.4554 0.0000
# 3 42.5607 26.1200 82.2470 0.0001 39.7762 0.0002
# 4 0.0000 0.0000 0.0001 28.7801 0.0000 5.0651
# 5 29.0426 19.4554 39.7762 0.0000 33.8554 0.0000
# 6 0.0000 0.0000 0.0002 5.0651 0.0000 31.2314
#
#
#
# Elastic Compliance Matrix: (Units=1/GPa)
#
#
# Indices 1 2 3 4 5 6 
#
# 1 0.012918 -0.001735 -0.002910 0.000000 -0.006665 0.000000
# 2 -0.001735 0.008916 -0.000407 0.000000 -0.003157 0.000000
# 3 -0.002910 -0.000407 0.028886 0.000000 -0.031208 0.000000
# 4 0.000000 0.000000 0.000000 0.035767 0.000000 -0.005801
# 5 -0.006665 -0.003157 -0.031208 0.000000 0.073736 0.000000
# 6 0.000000 0.000000 0.000000 -0.005801 0.000000 0.032960
#
#
# Mechanical properties :
#
#
# Convention : Reuss Voigt Hill
#
# Bulk Modulus (GPa) = 24.62060 57.61475 41.11768
# Shear Modulus (GPa) = 23.06006 33.01951 28.03978
#
# Velocity S-wave (km/s) = 3.37451 4.03800 3.72107
# Velocity P-wave (km/s) = 5.22887 7.08460 6.22626
#
# Compressibility (1/GPa) = 0.04061639
#
# Stress axis : x y z
#
# Youngs Moduli (GPa) = 77.41103 112.16105 34.61840
#
# Poissons Ratio (x) = 0.19459 0.10075
# Poissons Ratio (y) = 0.13430 0.01408
# Poissons Ratio (z) = 0.22529 0.04561
#
# Static dielectric constant tensor:
#      x y z
#    x 1.697440 0.000000 0.003690 
#    y 0.000000 0.374750 -0.000010 
#    z 0.003690 -0.000010 1.746350 
# 
# From -- ./inp_files/52728.got.cif
#   From: 2010.05.17/outbox.cif.g08.bks.cpg/sg15_27_cif.got.tgz:52728.got - 2010.06.03 18:47:42.
