data_PCOD9291758
_publ_section_title
;
Structure prediction by ZEFSAII (Michael W. Deem and Ramdas Pophale) SiO2 
 PCOD9291758
Probable space group: C 2/C
;
_chemical_formula_sum "Si O2"
_cell_formula_units_Z 56
_cell_length_a 20.057048
_cell_length_b 8.125954
_cell_length_c 28.671818
_cell_angle_alpha 90.000000
_cell_angle_beta 150.063946
_cell_angle_gamma 90.000000
_cell_volume 2331.986310
_symmetry_space_group_name_H-M "C 2/C"
_symmetry_group_IT_number 15
_symmetry_cell_setting 'monoclinic'
loop_
_space_group_symop_operation_xyz
x,y,z
-x,y,1/2-z
-x,-y,-z
x,-y,1/2+z
1/2+x,1/2+y,z
1/2-x,1/2+y,1/2-z
1/2-x,1/2-y,-z
1/2+x,1/2-y,1/2+z
loop_
_atom_site_type_symbol
_atom_site_label
_atom_site_fract_x
_atom_site_fract_y
_atom_site_fract_z
Si Si1 0.650120 0.085720 0.325216
Si Si2 0.677488 0.903372 0.524146
Si Si3 0.800112 0.077174 0.512047
Si Si4 0.525921 0.387430 0.622468
Si Si5 0.237136 0.240673 0.190852
Si Si6 0.408357 0.089957 0.374935
Si Si7 0.212932 0.760999 0.819532
O O1 0.500000 0.121943 0.250000
O O2 0.727807 0.050353 0.419490
O O3 0.715650 0.227408 0.333417
O O4 0.665550 0.921162 0.303617
O O5 0.591274 0.741894 0.459517
O O6 0.562887 0.038313 0.467225
O O7 0.777069 0.864456 0.626852
O O8 0.757701 0.954220 0.527141
O O9 0.750000 0.250000 0.500000
O O10 0.955393 0.053839 0.595138
O O11 0.618000 0.384931 0.632710
O O12 0.614438 0.324144 0.719388
O O13 0.176795 0.419254 0.168028
O O14 0.355533 0.172993 0.295606
O O15 0.360824 0.212267 0.387108
#
# Coordination Sequence:
#
# PCOD9291758 Si02
#       7
#     8   8   8   8   8   8   8
#     4  12  26  45  70 102 135 189 230 283 353 413
#     4  11  23  45  70  97 142 181 235 284 345 420
#     4  12  28  45  65 103 144 184 229 294 347 408
#     4  10  23  46  71 102 136 181 237 283 345 421
#     4  10  22  42  71 101 140 174 234 283 349 410
#     4  10  22  43  71 108 134 183 229 291 345 417
#     4  11  24  41  74 101 133 186 230 286 349 410
#
# _framework density 24.013864000000002
#
# number of rings (size 3 to 8) (size 9 to 14) (size 15 to 20)
#    0.000    1.143    1.429    5.143    4.000    6.286 
#    0.000    0.714    0.000    0.000    0.000    0.000 
#    0.000    0.000    0.000    0.000    0.000    0.000 
#
# Total GULP energy -156750.720908 kJ/mol
# GULP energy per Si atom -5598.240032 kJ/mol
# Density = 2.395921 g / cm^3
# Si number density = 24.013864 Si / 1000 Ang^3
#
#
#
# Elastic Constant Matrix: (Units=GPa)
#
#
# Indices 1 2 3 4 5 6 
#
# 1 154.1275 35.4245 39.0486 0.0000 2.8964 -0.0001
# 2 35.4245 60.2415 17.0101 0.0003 22.0093 -0.0006
# 3 39.0486 17.0101 71.5411 -0.0003 -7.5106 0.0000
# 4 0.0000 0.0003 -0.0003 21.5374 -0.0001 12.8699
# 5 2.8964 22.0093 -7.5106 -0.0001 45.4838 0.0001
# 6 -0.0001 -0.0006 0.0000 12.8699 0.0001 24.6788
#
#
#
# Elastic Compliance Matrix: (Units=1/GPa)
#
#
# Indices 1 2 3 4 5 6 
#
# 1 0.008321 -0.004285 -0.003420 0.000000 0.000979 0.000000
# 2 -0.004285 0.025180 -0.004985 -0.000001 -0.012735 0.000001
# 3 -0.003420 -0.004985 0.017612 0.000001 0.005538 0.000000
# 4 0.000000 -0.000001 0.000001 0.067450 0.000001 -0.035175
# 5 0.000979 -0.012735 0.005538 0.000001 0.029000 -0.000001
# 6 0.000000 0.000001 0.000000 -0.035175 -0.000001 0.058864
#
#
# Mechanical properties :
#
#
# Convention : Reuss Voigt Hill
#
# Bulk Modulus (GPa) = 38.86224 52.09740 45.47982
# Shear Modulus (GPa) = 20.80003 31.30179 26.05091
#
# Velocity S-wave (km/s) = 2.94627 3.61430 3.29725
# Velocity P-wave (km/s) = 5.27185 6.25775 5.78583
#
# Compressibility (1/GPa) = 0.02573192
#
# Stress axis : x y z
#
# Youngs Moduli (GPa) = 120.17589 39.71429 56.78105
#
# Poissons Ratio (x) = 0.17018 0.19421
# Poissons Ratio (y) = 0.51496 0.28305
# Poissons Ratio (z) = 0.41103 0.19798
#
# Static dielectric constant tensor:
#      x y z
#    x 1.947480 0.000000 0.055770 
#    y 0.000000 2.005670 0.000000 
#    z 0.055770 0.000000 1.892770 
# 
# From -- ./inp_files/317556.got.cif
#   From: 2010.05.17/outbox.cif.g08.bks.cpg/sg15_159_cif.got.tgz:317556.got - 2010.06.03 18:47:42.
