data_PCOD9291800
_publ_section_title
;
Structure prediction by ZEFSAII (Michael W. Deem and Ramdas Pophale) SiO2 
 PCOD9291800
Probable space group: C 2/C
;
_chemical_formula_sum "Si O2"
_cell_formula_units_Z 44
_cell_length_a 11.760365
_cell_length_b 20.869237
_cell_length_c 11.770995
_cell_angle_alpha 90.000000
_cell_angle_beta 140.553641
_cell_angle_gamma 90.000000
_cell_volume 1835.512585
_symmetry_space_group_name_H-M "C 2/C"
_symmetry_group_IT_number 15
_symmetry_cell_setting 'monoclinic'
loop_
_space_group_symop_operation_xyz
x,y,z
-x,y,1/2-z
-x,-y,-z
x,-y,1/2+z
1/2+x,1/2+y,z
1/2-x,1/2+y,1/2-z
1/2-x,1/2-y,-z
1/2+x,1/2-y,1/2+z
loop_
_atom_site_type_symbol
_atom_site_label
_atom_site_fract_x
_atom_site_fract_y
_atom_site_fract_z
Si Si1 0.000000 0.152688 0.250000
Si Si2 0.903548 0.489885 0.048582
Si Si3 0.118433 0.341640 0.453689
Si Si4 0.203627 0.383326 0.952007
Si Si5 0.545577 0.346306 0.538347
Si Si6 0.199036 0.707095 0.647674
O O1 0.187385 0.190868 0.399828
O O2 0.010605 0.122563 0.133418
O O3 0.835634 0.417139 0.997226
O O4 0.781391 0.552861 0.960823
O O5 0.000000 0.492655 0.250000
O O6 0.000000 0.500000 0.000000
O O7 0.000000 0.332595 0.250000
O O8 0.989260 0.322240 0.456084
O O9 0.345493 0.390973 0.961474
O O10 0.000000 0.376767 0.750000
O O11 0.240347 0.320313 0.054962
O O12 0.357651 0.321072 0.346270
O O13 0.670771 0.282654 0.637886
#
# Coordination Sequence:
#
# PCOD9291800 Si02
#       6
#     4   8   8   8   8   8
#     4  12  26  44  68 104 144 186 244 284 364 430
#     4  10  22  42  72 103 137 188 236 292 361 423
#     4  11  23  45  68 102 142 185 242 295 355 423
#     4  11  23  45  71 101 139 183 239 292 360 429
#     4  12  27  42  68 106 138 195 234 299 361 431
#     4  12  24  45  70  98 148 181 244 296 358 430
#
# _framework density 23.971506999999999
#
# number of rings (size 3 to 8) (size 9 to 14) (size 15 to 20)
#    0.000    0.727    3.636    4.364    3.818    1.455 
#    3.273    0.909    0.000    0.000    0.000    0.000 
#    0.000    0.000    0.000    0.000    0.000    0.000 
#
# Total GULP energy -122832.827676 kJ/mol
# GULP energy per Si atom -5583.310349 kJ/mol
# Density = 2.391695 g / cm^3
# Si number density = 23.971507 Si / 1000 Ang^3
#
#
#
# Elastic Constant Matrix: (Units=GPa)
#
#
# Indices 1 2 3 4 5 6 
#
# 1 207.4638 25.0423 38.0177 0.0000 -16.7719 0.0000
# 2 25.0423 94.8651 -3.6518 0.0000 -7.9128 0.0000
# 3 38.0177 -3.6518 131.8504 0.0000 14.0900 0.0000
# 4 0.0000 0.0000 0.0000 12.4449 0.0000 -14.6264
# 5 -16.7719 -7.9128 14.0900 0.0000 50.4398 0.0000
# 6 0.0000 0.0000 0.0000 -14.6264 0.0000 9.3112
#
#
#
# Elastic Compliance Matrix: (Units=1/GPa)
#
#
# Indices 1 2 3 4 5 6 
#
# 1 0.005494 -0.001343 -0.001849 0.000000 0.002132 0.000000
# 2 -0.001343 0.011011 0.000573 0.000000 0.001121 0.000000
# 3 -0.001849 0.000573 0.008441 0.000000 -0.002883 0.000000
# 4 0.000000 0.000000 0.000000 -0.094959 0.000000 -0.149166
# 5 0.002132 0.001121 -0.002883 0.000000 0.021516 0.000000
# 6 0.000000 0.000000 0.000000 -0.149166 0.000000 -0.126919
#
#
# Mechanical properties :
#
#
# Convention : Reuss Voigt Hill
#
# Bulk Modulus (GPa) = 50.74469 61.44396 56.09432
# Shear Modulus (GPa) = -30.56107 39.42394 4.43144
#
# Velocity S-wave (km/s) = -3.57444 4.05979 1.36112
# Velocity P-wave (km/s) = 2.04432 6.90388 5.09131
#
# Compressibility (1/GPa) = 0.01970650
#
# Stress axis : x y z
#
# Youngs Moduli (GPa) = 182.03260 90.81451 118.46269
#
# Poissons Ratio (x) = 0.12201 0.21905
# Poissons Ratio (y) = 0.24456 -0.06783
# Poissons Ratio (z) = 0.33659 -0.05200
#
# Static dielectric constant tensor:
#      x y z
#    x 1.936020 0.000000 -0.037820 
#    y 0.000000 1.930230 0.000000 
#    z -0.037820 0.000000 1.991950 
# 
# From -- ./inp_files/91374.got.cif
#   From: 2010.05.17/outbox.cif.g08.bks.cpg/sg15_46_cif.got.tgz:91374.got - 2010.06.03 18:47:42.
