data_PCOD9291254
_publ_section_title
;
Structure prediction by ZEFSAII (Michael W. Deem and Ramdas Pophale) SiO2 
 PCOD9291254
Probable space group: C 2/C
;
_chemical_formula_sum "Si O2"
_cell_formula_units_Z 56
_cell_length_a 18.317911
_cell_length_b 23.100815
_cell_length_c 8.524770
_cell_angle_alpha 90.000000
_cell_angle_beta 132.861949
_cell_angle_gamma 90.000000
_cell_volume 2644.154449
_symmetry_space_group_name_H-M "C 2/C"
_symmetry_group_IT_number 15
_symmetry_cell_setting 'monoclinic'
loop_
_space_group_symop_operation_xyz
x,y,z
-x,y,1/2-z
-x,-y,-z
x,-y,1/2+z
1/2+x,1/2+y,z
1/2-x,1/2+y,1/2-z
1/2-x,1/2-y,-z
1/2+x,1/2-y,1/2+z
loop_
_atom_site_type_symbol
_atom_site_label
_atom_site_fract_x
_atom_site_fract_y
_atom_site_fract_z
Si Si1 0.255887 0.029898 0.167805
Si Si2 0.500000 0.152571 0.750000
Si Si3 0.432206 0.465226 0.522092
Si Si4 0.500000 0.681459 0.750000
Si Si5 0.283039 0.686523 0.890152
Si Si6 0.187045 0.422679 0.419398
Si Si7 0.079554 0.247995 0.170016
Si Si8 0.181719 0.123681 0.861250
O O1 0.263945 0.047311 0.359419
O O2 0.326141 0.976393 0.220148
O O3 0.265550 0.086972 0.074716
O O4 0.143187 0.006010 0.991772
O O5 0.407468 0.110491 0.646556
O O6 0.489586 0.198118 0.878225
O O7 0.500000 0.434385 0.750000
O O8 0.500000 0.500000 0.500000
O O9 0.368568 0.420907 0.331140
O O10 0.473954 0.715795 0.551726
O O11 0.598353 0.644130 0.860508
O O12 0.253043 0.626700 0.933793
O O13 0.187294 0.727848 0.771677
O O14 0.290054 0.675279 0.714511
O O15 0.381927 0.711088 0.121344
#
# Coordination Sequence:
#
# PCOD9291254 Si02
#       8
#     8   4   8   4   8   8   8   8
#     4  12  22  40  59  91 135 164 200 253 304 381
#     4  10  24  44  68  88 116 168 224 264 314 362
#     4  12  22  35  54  84 126 162 194 234 290 364
#     4  12  26  38  62  96 126 150 210 262 324 360
#     4  10  22  42  66  85 120 168 208 249 325 378
#     4  11  22  41  65  93 126 169 209 255 314 378
#     4  10  23  44  63  89 120 157 211 274 311 366
#     4  12  24  37  60  93 123 166 201 243 310 382
#
# _framework density 21.178792999999999
#
# number of rings (size 3 to 8) (size 9 to 14) (size 15 to 20)
#    0.000    0.857    4.286    2.571    2.000    2.286 
#    0.000    0.000    0.000    0.000    0.000    0.000 
#    0.000    0.000    0.000    0.000    0.000    0.000 
#
# Total GULP energy -156239.556259 kJ/mol
# GULP energy per Si atom -5579.984152 kJ/mol
# Density = 2.113059 g / cm^3
# Si number density = 21.178793 Si / 1000 Ang^3
#
#
#
# Elastic Constant Matrix: (Units=GPa)
#
#
# Indices 1 2 3 4 5 6 
#
# 1 91.7871 21.9046 -7.0786 0.0000 9.6490 0.0000
# 2 21.9046 68.0238 6.5097 0.0000 11.0492 0.0000
# 3 -7.0786 6.5097 28.3078 0.0000 -3.6824 0.0000
# 4 0.0000 0.0000 0.0000 19.2818 0.0000 -6.8837
# 5 9.6490 11.0492 -3.6824 0.0000 19.2929 0.0000
# 6 0.0000 0.0000 0.0000 -6.8837 0.0000 41.8628
#
#
#
# Elastic Compliance Matrix: (Units=1/GPa)
#
#
# Indices 1 2 3 4 5 6 
#
# 1 0.012427 -0.003794 0.003542 0.000000 -0.003366 0.000000
# 2 -0.003794 0.018106 -0.006373 0.000000 -0.009688 0.000000
# 3 0.003542 -0.006373 0.038887 0.000000 0.009301 0.000000
# 4 0.000000 0.000000 0.000000 0.055097 0.000000 0.009060
# 5 -0.003366 -0.009688 0.009301 0.000000 0.060840 0.000000
# 6 0.000000 0.000000 0.000000 0.009060 0.000000 0.025377
#
#
# Mechanical properties :
#
#
# Convention : Reuss Voigt Hill
#
# Bulk Modulus (GPa) = 17.80272 25.64335 21.72303
# Shear Modulus (GPa) = 20.60096 27.20637 23.90367
#
# Velocity S-wave (km/s) = 3.12222 3.58803 3.36320
# Velocity P-wave (km/s) = 4.62838 5.41291 5.03594
#
# Compressibility (1/GPa) = 0.05617119
#
# Stress axis : x y z
#
# Youngs Moduli (GPa) = 80.46854 55.23046 25.71550
#
# Poissons Ratio (x) = 0.20954 -0.09109
# Poissons Ratio (y) = 0.30529 0.16388
# Poissons Ratio (z) = -0.28502 0.35197
#
# Static dielectric constant tensor:
#      x y z
#    x 1.819860 0.000000 -0.011570 
#    y 0.000000 1.827570 0.000000 
#    z -0.011570 0.000000 1.746780 
# 
# From -- ./inp_files/51608.got.cif
#   From: 2010.05.17/outbox.cif.g08.bks.cpg/sg15_26_cif.got.tgz:51608.got - 2010.06.03 18:47:42.
