data_PCOD9291631
_publ_section_title
;
Structure prediction by ZEFSAII (Michael W. Deem and Ramdas Pophale) SiO2 
 PCOD9291631
Probable space group: C 2/C
;
_chemical_formula_sum "Si O2"
_cell_formula_units_Z 40
_cell_length_a 30.883544
_cell_length_b 7.614982
_cell_length_c 15.319526
_cell_angle_alpha 90.000000
_cell_angle_beta 152.561578
_cell_angle_gamma 90.000000
_cell_volume 1660.156912
_symmetry_space_group_name_H-M "C 2/C"
_symmetry_group_IT_number 15
_symmetry_cell_setting 'monoclinic'
loop_
_space_group_symop_operation_xyz
x,y,z
-x,y,1/2-z
-x,-y,-z
x,-y,1/2+z
1/2+x,1/2+y,z
1/2-x,1/2+y,1/2-z
1/2-x,1/2-y,-z
1/2+x,1/2-y,1/2+z
loop_
_atom_site_type_symbol
_atom_site_label
_atom_site_fract_x
_atom_site_fract_y
_atom_site_fract_z
Si Si1 0.210980 0.804805 0.077662
Si Si2 0.868739 0.865018 0.756470
Si Si3 0.442709 0.717049 0.830542
Si Si4 0.133004 0.544245 0.071074
Si Si5 0.000000 0.262594 0.750000
Si Si6 0.000000 0.500000 0.500000
O O1 0.292746 0.670399 0.193638
O O2 0.148751 0.714404 0.039878
O O3 0.267075 0.975300 0.212363
O O4 0.161057 0.835348 0.895806
O O5 0.899459 0.066453 0.810297
O O6 0.956056 0.736039 0.939403
O O7 0.468570 0.657706 0.779930
O O8 0.408316 0.913807 0.772542
O O9 0.059456 0.568642 0.016948
O O10 0.086998 0.385874 0.932736
#
# Coordination Sequence:
#
# PCOD9291631 Si02
#       6
#     8   8   8   8   4   4
#     4  11  25  45  65 106 137 177 230 301 347 410
#     4  10  23  43  65  98 142 174 227 289 348 413
#     4  10  22  42  69  95 134 184 225 274 344 428
#     4  11  26  43  70  96 141 175 237 280 353 410
#     4  10  22  44  64  96 130 182 230 274 326 444
#     4  10  22  46  68  96 134 186 222 282 334 440
#
# _framework density 24.094107000000001
#
# number of rings (size 3 to 8) (size 9 to 14) (size 15 to 20)
#    0.000    1.600    4.000    0.000   11.200    0.000 
#    3.600    2.000    0.000    0.000    0.000    0.000 
#    0.000    0.000    0.000    0.000    0.000    0.000 
#
# Total GULP energy -111396.734189 kJ/mol
# GULP energy per Si atom -5569.836709 kJ/mol
# Density = 2.403927 g / cm^3
# Si number density = 24.094107 Si / 1000 Ang^3
#
#
#
# Elastic Constant Matrix: (Units=GPa)
#
#
# Indices 1 2 3 4 5 6 
#
# 1 142.8470 28.0407 3.2088 0.0000 -5.8791 0.0000
# 2 28.0407 73.7124 -13.3341 0.0000 10.5021 0.0000
# 3 3.2088 -13.3341 58.6359 0.0000 -14.4091 0.0000
# 4 0.0000 0.0000 0.0000 25.4403 0.0000 5.1816
# 5 -5.8791 10.5021 -14.4091 0.0000 30.9375 0.0000
# 6 0.0000 0.0000 0.0000 5.1816 0.0000 49.1886
#
#
#
# Elastic Compliance Matrix: (Units=1/GPa)
#
#
# Indices 1 2 3 4 5 6 
#
# 1 0.007780 -0.003406 -0.000624 0.000000 0.002344 0.000000
# 2 -0.003406 0.016032 0.002638 0.000000 -0.004861 0.000000
# 3 -0.000624 0.002638 0.019693 0.000000 0.008158 0.000000
# 4 0.000000 0.000000 0.000000 0.040170 0.000000 -0.004232
# 5 0.002344 -0.004861 0.008158 0.000000 0.038218 0.000000
# 6 0.000000 0.000000 0.000000 -0.004232 0.000000 0.020776
#
#
# Mechanical properties :
#
#
# Convention : Reuss Voigt Hill
#
# Bulk Modulus (GPa) = 24.55903 34.55844 29.55874
# Shear Modulus (GPa) = 31.44120 38.26527 34.85323
#
# Velocity S-wave (km/s) = 3.61630 3.98949 3.80747
# Velocity P-wave (km/s) = 5.25851 5.96621 5.62351
#
# Compressibility (1/GPa) = 0.04071821
#
# Stress axis : x y z
#
# Youngs Moduli (GPa) = 128.54056 62.37635 50.77922
#
# Poissons Ratio (x) = 0.21247 0.03170
# Poissons Ratio (y) = 0.43785 -0.13393
# Poissons Ratio (z) = 0.08025 -0.16452
#
# Static dielectric constant tensor:
#      x y z
#    x 1.883680 0.000000 -0.006960 
#    y 0.000000 2.108300 0.000000 
#    z -0.006960 0.000000 2.069320 
# 
# From -- ./inp_files/181294.got.cif
#   From: 2010.05.17/outbox.cif.g08.bks.cpg/sg15_91_cif.got.tgz:181294.got - 2010.06.03 18:47:42.
