data_PCOD9291153
_publ_section_title
;
Structure prediction by ZEFSAII (Michael W. Deem and Ramdas Pophale) SiO2 
 PCOD9291153
Probable space group: C 2/C
;
_chemical_formula_sum "Si O2"
_cell_formula_units_Z 44
_cell_length_a 17.881173
_cell_length_b 16.378643
_cell_length_c 7.963501
_cell_angle_alpha 90.000000
_cell_angle_beta 59.015101
_cell_angle_gamma 90.000000
_cell_volume 1999.458120
_symmetry_space_group_name_H-M "C 2/C"
_symmetry_group_IT_number 15
_symmetry_cell_setting 'monoclinic'
loop_
_space_group_symop_operation_xyz
x,y,z
-x,y,1/2-z
-x,-y,-z
x,-y,1/2+z
1/2+x,1/2+y,z
1/2-x,1/2+y,1/2-z
1/2-x,1/2-y,-z
1/2+x,1/2-y,1/2+z
loop_
_atom_site_type_symbol
_atom_site_label
_atom_site_fract_x
_atom_site_fract_y
_atom_site_fract_z
Si Si1 0.153380 0.252012 0.538116
Si Si2 0.803513 0.963890 0.098077
Si Si3 0.000000 0.444876 0.250000
Si Si4 0.109790 0.581868 0.935689
Si Si5 0.452509 0.613914 0.647156
Si Si6 0.139859 0.880784 0.809736
O O1 0.250000 0.250000 0.500000
O O2 0.116773 0.342044 0.552939
O O3 0.088297 0.196688 0.726547
O O4 0.161870 0.209835 0.344894
O O5 0.706625 0.942585 0.267160
O O6 0.874945 0.931605 0.146922
O O7 0.820318 0.061038 0.088274
O O8 0.821785 0.917680 0.903520
O O9 0.051317 0.398532 0.338575
O O10 0.932140 0.504755 0.421885
O O11 0.500000 0.569876 0.750000
O O12 0.534654 0.620351 0.428116
#
# Coordination Sequence:
#
# PCOD9291153 Si02
#       6
#     8   8   4   8   8   8
#     4  11  24  46  68 100 138 186 235 286 359 411
#     4  12  23  45  70 101 143 183 239 283 356 440
#     4  10  26  48  74 104 132 190 248 298 352 416
#     4  11  25  48  73 102 138 186 242 301 353 424
#     4  10  22  42  65 101 138 183 225 277 354 414
#     4  11  25  40  69 105 138 187 224 294 349 427
#
# _framework density 22.005963000000001
#
# number of rings (size 3 to 8) (size 9 to 14) (size 15 to 20)
#    0.000    1.091    1.818    4.364    6.364    2.182 
#    6.545    0.000    0.000    0.000    0.000    0.000 
#    0.000    0.000    0.000    0.000    0.000    0.000 
#
# Total GULP energy -122973.364677 kJ/mol
# GULP energy per Si atom -5589.698394 kJ/mol
# Density = 2.195588 g / cm^3
# Si number density = 22.005963 Si / 1000 Ang^3
#
#
#
# Elastic Constant Matrix: (Units=GPa)
#
#
# Indices 1 2 3 4 5 6 
#
# 1 123.9784 17.0231 25.8083 0.0000 -14.9532 0.0000
# 2 17.0231 60.2428 3.7630 0.0000 -12.2263 0.0000
# 3 25.8083 3.7630 118.4422 0.0000 -26.0381 0.0000
# 4 0.0000 0.0000 0.0000 22.4156 0.0000 2.5680
# 5 -14.9532 -12.2263 -26.0381 0.0000 40.7747 0.0000
# 6 0.0000 0.0000 0.0000 2.5680 0.0000 36.0227
#
#
#
# Elastic Compliance Matrix: (Units=1/GPa)
#
#
# Indices 1 2 3 4 5 6 
#
# 1 0.008864 -0.002072 -0.001498 0.000000 0.001673 0.000000
# 2 -0.002072 0.018210 0.001054 0.000000 0.005374 0.000000
# 3 -0.001498 0.001054 0.010103 0.000000 0.006218 0.000000
# 4 0.000000 0.000000 0.000000 0.044979 0.000000 -0.003207
# 5 0.001673 0.005374 0.006218 0.000000 0.030721 0.000000
# 6 0.000000 0.000000 0.000000 -0.003207 0.000000 0.027989
#
#
# Mechanical properties :
#
#
# Convention : Reuss Voigt Hill
#
# Bulk Modulus (GPa) = 31.10818 43.98357 37.54587
# Shear Modulus (GPa) = 31.92622 36.91386 34.42004
#
# Velocity S-wave (km/s) = 3.81307 4.10011 3.95919
# Velocity P-wave (km/s) = 5.79249 6.51498 6.16433
#
# Compressibility (1/GPa) = 0.03214588
#
# Stress axis : x y z
#
# Youngs Moduli (GPa) = 112.81645 54.91601 98.98198
#
# Poissons Ratio (x) = 0.11377 0.14826
# Poissons Ratio (y) = 0.23372 -0.10435
# Poissons Ratio (z) = 0.16898 -0.05789
#
# Static dielectric constant tensor:
#      x y z
#    x 1.796620 0.000000 0.024840 
#    y 0.000000 1.830870 0.000000 
#    z 0.024840 0.000000 1.858060 
# 
# From -- ./inp_files/47396.got.cif
#   From: 2010.05.17/outbox.cif.g08.bks.cpg/sg15_24_cif.got.tgz:47396.got - 2010.06.03 18:47:42.
