data_PCOD9291535
_publ_section_title
;
Structure prediction by ZEFSAII (Michael W. Deem and Ramdas Pophale) SiO2 
 PCOD9291535
Probable space group: C 2/C
;
_chemical_formula_sum "Si O2"
_cell_formula_units_Z 56
_cell_length_a 10.264261
_cell_length_b 23.580257
_cell_length_c 12.410716
_cell_angle_alpha 90.000000
_cell_angle_beta 70.622909
_cell_angle_gamma 90.000000
_cell_volume 2833.664276
_symmetry_space_group_name_H-M "C 2/C"
_symmetry_group_IT_number 15
_symmetry_cell_setting 'monoclinic'
loop_
_space_group_symop_operation_xyz
x,y,z
-x,y,1/2-z
-x,-y,-z
x,-y,1/2+z
1/2+x,1/2+y,z
1/2-x,1/2+y,1/2-z
1/2-x,1/2-y,-z
1/2+x,1/2-y,1/2+z
loop_
_atom_site_type_symbol
_atom_site_label
_atom_site_fract_x
_atom_site_fract_y
_atom_site_fract_z
Si Si1 0.340926 0.299334 0.530222
Si Si2 0.425662 0.589896 0.883810
Si Si3 0.845481 0.778553 0.063560
Si Si4 0.643120 0.180564 0.274891
Si Si5 0.839180 0.544059 0.640565
Si Si6 0.606794 0.077642 0.448243
Si Si7 0.290411 0.588755 0.603703
O O1 0.250000 0.250000 0.500000
O O2 0.364053 0.351373 0.442990
O O3 0.494392 0.278076 0.516406
O O4 0.264462 0.324112 0.655209
O O5 0.500000 0.601248 0.750000
O O6 0.299061 0.548841 0.893460
O O7 0.550245 0.569254 0.925968
O O8 0.839731 0.740644 0.171584
O O9 0.799874 0.842707 0.100474
O O10 0.750000 0.750000 0.000000
O O11 0.500000 0.178884 0.250000
O O12 0.638375 0.131768 0.366220
O O13 0.890078 0.479198 0.624737
O O14 0.797931 0.566198 0.770280
O O15 0.959319 0.580129 0.549505
O O16 0.718779 0.072034 0.512376
#
# Coordination Sequence:
#
# PCOD9291535 Si02
#       7
#     8   8   8   8   8   8   8
#     4  11  24  38  65  96 127 173 213 265 327 391
#     4   9  21  41  64  91 126 168 219 263 318 398
#     4  11  24  44  65  98 135 167 222 270 329 400
#     4  12  25  41  68  96 134 177 218 273 329 396
#     4  10  23  41  69  96 128 177 222 269 330 388
#     4  11  24  43  65  99 134 168 226 276 323 383
#     4  10  22  42  68  95 131 170 218 274 326 394
#
# _framework density 19.762397
#
# number of rings (size 3 to 8) (size 9 to 14) (size 15 to 20)
#    0.000    1.429    2.857    1.286    6.000    4.571 
#    2.571    7.143    0.000    0.000    0.000    0.000 
#    0.000    0.000    0.000    0.000    0.000    0.000 
#
# Total GULP energy -156442.368161 kJ/mol
# GULP energy per Si atom -5587.227434 kJ/mol
# Density = 1.971742 g / cm^3
# Si number density = 19.762397 Si / 1000 Ang^3
#
#
#
# Elastic Constant Matrix: (Units=GPa)
#
#
# Indices 1 2 3 4 5 6 
#
# 1 92.7275 14.9916 50.8873 0.0000 9.4619 0.0000
# 2 14.9916 66.2435 39.6471 0.0000 -5.3869 0.0000
# 3 50.8873 39.6471 66.8642 0.0000 1.4872 0.0000
# 4 0.0000 0.0000 0.0000 28.2735 0.0000 -6.0728
# 5 9.4619 -5.3869 1.4872 0.0000 31.2350 0.0000
# 6 0.0000 0.0000 0.0000 -6.0728 0.0000 20.4692
#
#
#
# Elastic Compliance Matrix: (Units=1/GPa)
#
#
# Indices 1 2 3 4 5 6 
#
# 1 0.021108 0.006875 -0.020046 0.000000 -0.004254 0.000000
# 2 0.006875 0.026350 -0.020933 0.000000 0.003458 0.000000
# 3 -0.020046 -0.020933 0.042614 0.000000 0.000433 0.000000
# 4 0.000000 0.000000 0.000000 0.037776 0.000000 0.011207
# 5 -0.004254 0.003458 0.000433 0.000000 0.033880 0.000000
# 6 0.000000 0.000000 0.000000 0.011207 0.000000 0.052179
#
#
# Mechanical properties :
#
#
# Convention : Reuss Voigt Hill
#
# Bulk Modulus (GPa) = 45.73855 48.54302 47.14079
# Shear Modulus (GPa) = 17.27698 24.01616 20.64657
#
# Velocity S-wave (km/s) = 2.95995 3.48982 3.23575
# Velocity P-wave (km/s) = 5.90561 6.39180 6.15351
#
# Compressibility (1/GPa) = 0.02186339
#
# Stress axis : x y z
#
# Youngs Moduli (GPa) = 47.37602 37.95107 23.46636
#
# Poissons Ratio (x) = -0.26090 0.47040
# Poissons Ratio (y) = -0.32570 0.49122
# Poissons Ratio (z) = 0.94969 0.79443
#
# Static dielectric constant tensor:
#      x y z
#    x 1.717530 0.000000 0.000600 
#    y 0.000000 1.681870 0.000000 
#    z 0.000600 0.000000 1.676640 
# 
# From -- ./inp_files/81273.got.cif
#   From: 2010.05.17/outbox.cif.g08.bks.cpg/sg15_41_cif.got.tgz:81273.got - 2010.06.03 18:47:42.
