data_PCOD9291998
_publ_section_title
;
Structure prediction by ZEFSAII (Michael W. Deem and Ramdas Pophale) SiO2 
 PCOD9291998
Probable space group: C 2/C
;
_chemical_formula_sum "Si O2"
_cell_formula_units_Z 32
_cell_length_a 7.645605
_cell_length_b 12.472754
_cell_length_c 13.406539
_cell_angle_alpha 90.000000
_cell_angle_beta 82.800626
_cell_angle_gamma 90.000000
_cell_volume 1268.391650
_symmetry_space_group_name_H-M "C 2/C"
_symmetry_group_IT_number 15
_symmetry_cell_setting 'monoclinic'
loop_
_space_group_symop_operation_xyz
x,y,z
-x,y,1/2-z
-x,-y,-z
x,-y,1/2+z
1/2+x,1/2+y,z
1/2-x,1/2+y,1/2-z
1/2-x,1/2-y,-z
1/2+x,1/2-y,1/2+z
loop_
_atom_site_type_symbol
_atom_site_label
_atom_site_fract_x
_atom_site_fract_y
_atom_site_fract_z
Si Si1 0.138740 0.434722 0.419292
Si Si2 0.171667 0.305200 0.102145
Si Si3 0.000000 0.157840 0.250000
Si Si4 0.302606 0.548191 0.098180
Si Si5 0.500000 0.063177 0.250000
O O1 0.305530 0.426593 0.479921
O O2 0.000000 0.500000 0.500000
O O3 0.035837 0.325635 0.405907
O O4 0.131995 0.494998 0.313828
O O5 0.261016 0.421012 0.111069
O O6 0.162568 0.231472 0.199901
O O7 0.250000 0.250000 0.000000
O O8 0.958897 0.086127 0.156596
O O9 0.133140 0.610519 0.159532
#
# Coordination Sequence:
#
# PCOD9291998 Si02
#       5
#     8   8   4   8   4
#     4   8  17  36  64  89 118 179 210 265 338 395
#     4  10  22  43  64  98 136 172 231 284 333 409
#     4  12  27  42  67 104 138 176 231 286 331 412
#     4  10  23  41  66  97 132 179 224 281 342 401
#     4   8  15  36  67  80 126 170 213 264 335 390
#
# _framework density 25.228798999999999
#
# number of rings (size 3 to 8) (size 9 to 14) (size 15 to 20)
#    0.000    3.000    0.000    3.000   10.500    2.000 
#    4.500    0.000    0.000    0.000    0.000    0.000 
#    0.000    0.000    0.000    0.000    0.000    0.000 
#
# Total GULP energy -89175.155218 kJ/mol
# GULP energy per Si atom -5573.447201 kJ/mol
# Density = 2.517138 g / cm^3
# Si number density = 25.228799 Si / 1000 Ang^3
#
#
#
# Elastic Constant Matrix: (Units=GPa)
#
#
# Indices 1 2 3 4 5 6 
#
# 1 41.1818 21.9505 26.5206 0.0000 18.8645 0.0000
# 2 21.9505 93.6705 39.1553 0.0000 18.4498 0.0000
# 3 26.5206 39.1553 173.0321 0.0000 29.7418 0.0000
# 4 0.0000 0.0000 0.0000 49.2064 0.0000 3.5904
# 5 18.8645 18.4498 29.7418 0.0000 68.3303 0.0000
# 6 0.0000 0.0000 0.0000 3.5904 0.0000 16.7987
#
#
#
# Elastic Compliance Matrix: (Units=1/GPa)
#
#
# Indices 1 2 3 4 5 6 
#
# 1 0.031506 -0.005070 -0.002618 0.000000 -0.006190 0.000000
# 2 -0.005070 0.012917 -0.001932 0.000000 -0.001247 0.000000
# 3 -0.002618 -0.001932 0.006922 0.000000 -0.001768 0.000000
# 4 0.000000 0.000000 0.000000 0.020645 0.000000 -0.004412
# 5 -0.006190 -0.001247 -0.001768 0.000000 0.017450 0.000000
# 6 0.000000 0.000000 0.000000 -0.004412 0.000000 0.060471
#
#
# Mechanical properties :
#
#
# Convention : Reuss Voigt Hill
#
# Bulk Modulus (GPa) = 31.14623 53.68191 42.41407
# Shear Modulus (GPa) = 27.80086 41.55095 34.67590
#
# Velocity S-wave (km/s) = 3.32316 4.06268 3.71139
# Velocity P-wave (km/s) = 5.20546 6.58266 5.93415
#
# Compressibility (1/GPa) = 0.03210662
#
# Stress axis : x y z
#
# Youngs Moduli (GPa) = 31.73994 77.41865 144.47621
#
# Poissons Ratio (x) = 0.39248 0.37821
# Poissons Ratio (y) = 0.16091 0.27906
# Poissons Ratio (z) = 0.08309 0.14954
#
# Static dielectric constant tensor:
#      x y z
#    x 2.198500 0.000000 0.068210 
#    y 0.000000 2.092870 0.000000 
#    z 0.068210 0.000000 2.019500 
# 
# From -- ./inp_files/132038.got.cif
#   From: 2010.05.17/outbox.cif.g08.bks.cpg/sg15_67_cif.got.tgz:132038.got - 2010.06.03 18:47:42.
