data_PCOD9291707
_publ_section_title
;
Structure prediction by ZEFSAII (Michael W. Deem and Ramdas Pophale) SiO2 
 PCOD9291707
Probable space group: C 2/C
;
_chemical_formula_sum "Si O2"
_cell_formula_units_Z 44
_cell_length_a 15.444782
_cell_length_b 7.706821
_cell_length_c 17.091073
_cell_angle_alpha 90.000000
_cell_angle_beta 76.709803
_cell_angle_gamma 90.000000
_cell_volume 1979.869723
_symmetry_space_group_name_H-M "C 2/C"
_symmetry_group_IT_number 15
_symmetry_cell_setting 'monoclinic'
loop_
_space_group_symop_operation_xyz
x,y,z
-x,y,1/2-z
-x,-y,-z
x,-y,1/2+z
1/2+x,1/2+y,z
1/2-x,1/2+y,1/2-z
1/2-x,1/2-y,-z
1/2+x,1/2-y,1/2+z
loop_
_atom_site_type_symbol
_atom_site_label
_atom_site_fract_x
_atom_site_fract_y
_atom_site_fract_z
Si Si1 0.102801 0.444224 0.990986
Si Si2 0.145068 0.262327 0.601737
Si Si3 0.200711 0.601430 0.828548
Si Si4 0.397035 0.545091 0.507385
Si Si5 0.500000 0.327623 0.250000
Si Si6 0.850858 0.954653 0.690061
O O1 0.151348 0.473986 0.897971
O O2 0.110650 0.245220 0.014610
O O3 0.146857 0.573446 0.044532
O O4 0.000000 0.500000 0.000000
O O5 0.230234 0.219789 0.636158
O O6 0.059306 0.277808 0.675903
O O7 0.134869 0.091280 0.550103
O O8 0.135295 0.747471 0.808335
O O9 0.259398 0.503170 0.752735
O O10 0.500000 0.500000 0.500000
O O11 0.351127 0.516063 0.600465
O O12 0.569716 0.445617 0.282870
#
# Coordination Sequence:
#
# PCOD9291707 Si02
#       6
#     8   8   8   8   4   8
#     4  12  23  41  70  98 129 179 222 270 339 395
#     4  11  24  45  67 101 136 175 224 283 330 398
#     4  11  25  44  66 101 141 171 226 280 333 398
#     4  12  22  42  72  97 135 177 224 276 331 398
#     4  10  22  42  70  92 136 178 220 276 332 392
#     4  11  22  43  66  96 137 178 215 279 331 390
#
# _framework density 22.223683000000001
#
# number of rings (size 3 to 8) (size 9 to 14) (size 15 to 20)
#    0.000    0.727    5.455    1.636    0.000    2.182 
#    6.545    0.909    0.000    0.000    0.000    0.000 
#    0.000    0.000    0.000    0.000    0.000    0.000 
#
# Total GULP energy -123220.593062 kJ/mol
# GULP energy per Si atom -5600.936048 kJ/mol
# Density = 2.217310 g / cm^3
# Si number density = 22.223683 Si / 1000 Ang^3
#
#
#
# Elastic Constant Matrix: (Units=GPa)
#
#
# Indices 1 2 3 4 5 6 
#
# 1 57.1051 -1.2032 25.3599 0.0000 -19.6671 0.0000
# 2 -1.2032 149.6536 30.3764 0.0000 -5.4649 0.0000
# 3 25.3599 30.3764 124.4893 0.0000 -31.3826 0.0000
# 4 0.0000 0.0000 0.0000 23.2437 0.0000 -4.6905
# 5 -19.6671 -5.4649 -31.3826 0.0000 38.7526 0.0000
# 6 0.0000 0.0000 0.0000 -4.6905 0.0000 20.5485
#
#
#
# Elastic Compliance Matrix: (Units=1/GPa)
#
#
# Indices 1 2 3 4 5 6 
#
# 1 0.021771 0.000988 -0.002332 0.000000 0.009300 0.000000
# 2 0.000988 0.007083 -0.001949 0.000000 -0.000078 0.000000
# 3 -0.002332 -0.001949 0.010826 0.000000 0.007309 0.000000
# 4 0.000000 0.000000 0.000000 0.045100 0.000000 0.010295
# 5 0.009300 -0.000078 0.007309 0.000000 0.036432 0.000000
# 6 0.000000 0.000000 0.000000 0.010295 0.000000 0.051015
#
#
# Mechanical properties :
#
#
# Convention : Reuss Voigt Hill
#
# Bulk Modulus (GPa) = 30.21737 48.92380 39.57058
# Shear Modulus (GPa) = 26.33740 34.95662 30.64701
#
# Velocity S-wave (km/s) = 3.44627 3.97034 3.71755
# Velocity P-wave (km/s) = 5.42790 6.56355 6.02255
#
# Compressibility (1/GPa) = 0.03309355
#
# Stress axis : x y z
#
# Youngs Moduli (GPa) = 45.93327 141.18636 92.37079
#
# Poissons Ratio (x) = -0.13948 0.21537
# Poissons Ratio (y) = -0.04538 0.18006
# Poissons Ratio (z) = 0.10710 0.27521
#
# Static dielectric constant tensor:
#      x y z
#    x 1.845750 0.000000 0.007860 
#    y 0.000000 1.814740 0.000000 
#    z 0.007860 0.000000 1.816780 
# 
# From -- ./inp_files/159280.got.cif
#   From: 2010.05.17/outbox.cif.g08.bks.cpg/sg15_80_cif.got.tgz:159280.got - 2010.06.03 18:47:42.
