data_PCOD9291155
_publ_section_title
;
Structure prediction by ZEFSAII (Michael W. Deem and Ramdas Pophale) SiO2 
 PCOD9291155
Probable space group: C 2/C
;
_chemical_formula_sum "Si O2"
_cell_formula_units_Z 56
_cell_length_a 12.431701
_cell_length_b 20.959561
_cell_length_c 9.701914
_cell_angle_alpha 90.000000
_cell_angle_beta 90.669338
_cell_angle_gamma 90.000000
_cell_volume 2527.787277
_symmetry_space_group_name_H-M "C 2/C"
_symmetry_group_IT_number 15
_symmetry_cell_setting 'monoclinic'
loop_
_space_group_symop_operation_xyz
x,y,z
-x,y,1/2-z
-x,-y,-z
x,-y,1/2+z
1/2+x,1/2+y,z
1/2-x,1/2+y,1/2-z
1/2-x,1/2-y,-z
1/2+x,1/2-y,1/2+z
loop_
_atom_site_type_symbol
_atom_site_label
_atom_site_fract_x
_atom_site_fract_y
_atom_site_fract_z
Si Si1 0.000000 0.735347 0.250000
Si Si2 0.500000 0.072739 0.750000
Si Si3 0.667016 0.981503 0.831720
Si Si4 0.500060 0.434442 0.081858
Si Si5 0.133243 0.625329 0.522004
Si Si6 0.394229 0.873414 0.891307
Si Si7 0.841211 0.174962 0.601116
Si Si8 0.777663 0.891220 0.376399
O O1 0.901624 0.692170 0.306601
O O2 0.939219 0.775912 0.130121
O O3 0.588016 0.114385 0.674527
O O4 0.559909 0.023996 0.852153
O O5 0.644686 0.932711 0.704939
O O6 0.754302 0.037111 0.816433
O O7 0.686603 0.939230 0.965627
O O8 0.500000 0.441993 0.250000
O O9 0.401805 0.387880 0.046221
O O10 0.610092 0.398727 0.043508
O O11 0.500000 0.500000 0.000000
O O12 0.226433 0.678679 0.518434
O O13 0.020481 0.625729 0.437202
O O14 0.316665 0.871661 0.021100
O O15 0.800715 0.157510 0.754386
#
# Coordination Sequence:
#
# PCOD9291155 Si02
#       8
#     4   4   8   8   8   8   8   8
#     4  12  25  52  62  90 136 181 242 262 334 408
#     4  12  19  30  60  92 144 157 194 266 334 412
#     4  12  21  36  61 103 139 163 200 278 350 396
#     4  10  22  42  65 104 138 179 224 275 342 406
#     4  12  21  37  60  98 125 169 215 263 344 389
#     4  12  25  40  66 101 133 175 216 281 335 397
#     4  11  24  44  69  89 128 187 220 273 329 399
#     4  11  23  39  67  99 131 173 220 269 344 399
#
# _framework density 22.153763000000001
#
# number of rings (size 3 to 8) (size 9 to 14) (size 15 to 20)
#    0.000    0.571    7.857    2.143    4.000    1.143 
#    0.000    0.000    0.000    0.000    0.000    0.000 
#    0.000    0.000    0.000    0.000    0.000    0.000 
#
# Total GULP energy -156029.269723 kJ/mol
# GULP energy per Si atom -5572.473919 kJ/mol
# Density = 2.210334 g / cm^3
# Si number density = 22.153763 Si / 1000 Ang^3
#
#
#
# Elastic Constant Matrix: (Units=GPa)
#
#
# Indices 1 2 3 4 5 6 
#
# 1 129.0195 27.4145 19.5388 0.0000 8.5374 0.0000
# 2 27.4145 67.7122 13.8199 0.0000 -7.5795 0.0000
# 3 19.5388 13.8199 46.9278 0.0000 -11.2997 0.0000
# 4 0.0000 0.0000 0.0000 27.0497 0.0000 7.9282
# 5 8.5374 -7.5795 -11.2997 0.0000 30.9985 0.0000
# 6 0.0000 0.0000 0.0000 7.9282 0.0000 34.3700
#
#
#
# Elastic Compliance Matrix: (Units=1/GPa)
#
#
# Indices 1 2 3 4 5 6 
#
# 1 0.009451 -0.003548 -0.004084 0.000000 -0.004959 0.000000
# 2 -0.003548 0.017204 -0.002566 0.000000 0.004248 0.000000
# 3 -0.004084 -0.002566 0.026184 0.000000 0.010042 0.000000
# 4 0.000000 0.000000 0.000000 0.039650 0.000000 -0.009146
# 5 -0.004959 0.004248 0.010042 0.000000 0.038325 0.000000
# 6 0.000000 0.000000 0.000000 -0.009146 0.000000 0.031205
#
#
# Mechanical properties :
#
#
# Convention : Reuss Voigt Hill
#
# Bulk Modulus (GPa) = 30.82462 40.57843 35.70153
# Shear Modulus (GPa) = 25.87586 30.67606 28.27596
#
# Velocity S-wave (km/s) = 3.42133 3.72518 3.57648
# Velocity P-wave (km/s) = 5.43613 6.07117 5.76240
#
# Compressibility (1/GPa) = 0.03244160
#
# Stress axis : x y z
#
# Youngs Moduli (GPa) = 105.80433 58.12532 38.19172
#
# Poissons Ratio (x) = 0.20623 0.15599
# Poissons Ratio (y) = 0.37540 0.09801
# Poissons Ratio (z) = 0.43216 0.14917
#
# Static dielectric constant tensor:
#      x y z
#    x 1.871810 0.000000 0.092850 
#    y 0.000000 1.881740 0.000000 
#    z 0.092850 0.000000 1.948230 
# 
# From -- ./inp_files/89009.got.cif
#   From: 2010.05.17/outbox.cif.g08.bks.cpg/sg15_45_cif.got.tgz:89009.got - 2010.06.03 18:47:42.
