data_PCOD9291068
_publ_section_title
;
Structure prediction by ZEFSAII (Michael W. Deem and Ramdas Pophale) SiO2 
 PCOD9291068
Probable space group: C 2/C
;
_chemical_formula_sum "Si O2"
_cell_formula_units_Z 60
_cell_length_a 16.513823
_cell_length_b 5.331019
_cell_length_c 33.033853
_cell_angle_alpha 90.000000
_cell_angle_beta 84.262544
_cell_angle_gamma 90.000000
_cell_volume 2893.583310
_symmetry_space_group_name_H-M "C 2/C"
_symmetry_group_IT_number 15
_symmetry_cell_setting 'monoclinic'
loop_
_space_group_symop_operation_xyz
x,y,z
-x,y,1/2-z
-x,-y,-z
x,-y,1/2+z
1/2+x,1/2+y,z
1/2-x,1/2+y,1/2-z
1/2-x,1/2-y,-z
1/2+x,1/2-y,1/2+z
loop_
_atom_site_type_symbol
_atom_site_label
_atom_site_fract_x
_atom_site_fract_y
_atom_site_fract_z
Si Si1 0.827481 0.003019 0.534391
Si Si2 0.083359 0.397246 0.179950
Si Si3 0.077318 0.113906 0.301164
Si Si4 0.583587 0.488194 0.888549
Si Si5 0.140985 0.501563 0.014935
Si Si6 0.525347 0.012930 0.097545
Si Si7 0.000000 0.252177 0.750000
Si Si8 0.200121 0.367410 0.243851
O O1 0.848480 0.006168 0.580487
O O2 0.865286 0.249717 0.511390
O O3 0.862733 0.750594 0.512277
O O4 0.731158 0.004256 0.530319
O O5 0.084666 0.487997 0.133745
O O6 0.039487 0.597296 0.211316
O O7 0.165314 0.338397 0.200010
O O8 0.017045 0.173970 0.184312
O O9 0.124780 0.345853 0.279263
O O10 0.115706 0.023224 0.340947
O O11 0.070943 0.915608 0.265795
O O12 0.533980 0.228974 0.898092
O O13 0.525426 0.730545 0.895483
O O14 0.075122 0.510561 0.053607
O O15 0.245289 0.628550 0.247506
#
# Coordination Sequence:
#
# PCOD9291068 Si02
#       8
#     8   8   8   8   8   8   4   8
#     4  10  22  42  64  87 123 168 200 239 313 383
#     4  11  23  40  64  89 122 172 211 251 316 378
#     4  11  23  40  64  89 122 172 211 251 316 378
#     4  11  24  39  63  97 122 153 209 264 305 355
#     4  10  22  42  64  87 123 168 200 239 313 383
#     4  11  24  39  63  97 122 153 209 264 305 355
#     4  12  16  40  72  80 120 174 214 250 290 398
#     4  12  26  40  61  93 128 162 212 266 314 366
#
# _framework density 20.735534000000001
#
# number of rings (size 3 to 8) (size 9 to 14) (size 15 to 20)
#    0.000    1.067    4.000    2.400    0.000    4.267 
#    0.000    4.000    0.000    0.000    0.000    0.000 
#    0.000    0.000    0.000    0.000    0.000    0.000 
#
# Total GULP energy -167655.810526 kJ/mol
# GULP energy per Si atom -5588.527018 kJ/mol
# Density = 2.068834 g / cm^3
# Si number density = 20.735534 Si / 1000 Ang^3
#
#
#
# Elastic Constant Matrix: (Units=GPa)
#
#
# Indices 1 2 3 4 5 6 
#
# 1 36.4227 17.0535 19.0658 0.0000 19.1114 0.0000
# 2 17.0535 121.3126 20.6176 0.0000 9.2883 0.0000
# 3 19.0658 20.6176 111.3232 0.0000 39.4925 0.0000
# 4 0.0000 0.0000 0.0000 24.1362 0.0000 1.0374
# 5 19.1114 9.2883 39.4925 0.0000 42.3269 0.0000
# 6 0.0000 0.0000 0.0000 1.0374 0.0000 24.3893
#
#
#
# Elastic Compliance Matrix: (Units=1/GPa)
#
#
# Indices 1 2 3 4 5 6 
#
# 1 0.037869 -0.004086 0.000028 0.000000 -0.016228 0.000000
# 2 -0.004086 0.008962 -0.001370 0.000000 0.001157 0.000000
# 3 0.000028 -0.001370 0.013647 0.000000 -0.012445 0.000000
# 4 0.000000 0.000000 0.000000 0.041507 0.000000 -0.001766
# 5 -0.016228 0.001157 -0.012445 0.000000 0.042311 0.000000
# 6 0.000000 0.000000 0.000000 -0.001766 0.000000 0.041077
#
#
# Mechanical properties :
#
#
# Convention : Reuss Voigt Hill
#
# Bulk Modulus (GPa) = 20.15262 42.50358 31.32810
# Shear Modulus (GPa) = 23.49973 32.32525 27.91249
#
# Velocity S-wave (km/s) = 3.37012 3.95261 3.67293
# Velocity P-wave (km/s) = 4.98834 6.43221 5.75573
#
# Compressibility (1/GPa) = 0.04962134
#
# Stress axis : x y z
#
# Youngs Moduli (GPa) = 26.40701 111.58414 73.27762
#
# Poissons Ratio (x) = 0.45589 -0.00206
# Poissons Ratio (y) = 0.10789 0.10042
# Poissons Ratio (z) = -0.00074 0.15292
#
# Static dielectric constant tensor:
#      x y z
#    x 1.786620 0.000000 0.022210 
#    y 0.000000 1.756510 0.000000 
#    z 0.022210 0.000000 1.719160 
# 
# From -- ./inp_files/297769.got.cif
#   From: 2010.05.17/outbox.cif.g08.bks.cpg/sg15_149_cif.got.tgz:297769.got - 2010.06.03 18:47:42.
