data_PCOD9291976
_publ_section_title
;
Structure prediction by ZEFSAII (Michael W. Deem and Ramdas Pophale) SiO2 
 PCOD9291976
Probable space group: C 2/C
;
_chemical_formula_sum "Si O2"
_cell_formula_units_Z 56
_cell_length_a 15.996639
_cell_length_b 7.278977
_cell_length_c 25.169617
_cell_angle_alpha 90.000000
_cell_angle_beta 113.535514
_cell_angle_gamma 90.000000
_cell_volume 2686.929908
_symmetry_space_group_name_H-M "C 2/C"
_symmetry_group_IT_number 15
_symmetry_cell_setting 'monoclinic'
loop_
_space_group_symop_operation_xyz
x,y,z
-x,y,1/2-z
-x,-y,-z
x,-y,1/2+z
1/2+x,1/2+y,z
1/2-x,1/2+y,1/2-z
1/2-x,1/2-y,-z
1/2+x,1/2-y,1/2+z
loop_
_atom_site_type_symbol
_atom_site_label
_atom_site_fract_x
_atom_site_fract_y
_atom_site_fract_z
Si Si1 0.273399 0.245532 0.316131
Si Si2 0.074673 0.192801 0.310140
Si Si3 0.886604 0.561203 0.898489
Si Si4 0.774553 0.434536 0.474854
Si Si5 0.915482 0.461786 0.088150
Si Si6 0.614103 0.656080 0.866387
Si Si7 0.251734 0.176007 0.188262
O O1 0.172955 0.172403 0.306960
O O2 0.285919 0.207235 0.256792
O O3 0.270547 0.462607 0.325429
O O4 0.347796 0.135837 0.369243
O O5 0.084028 0.335896 0.360074
O O6 0.000000 0.262224 0.250000
O O7 0.045968 0.990937 0.324007
O O8 0.848324 0.599062 0.947342
O O9 0.838132 0.703807 0.846006
O O10 0.994209 0.577744 0.922360
O O11 0.750000 0.250000 0.500000
O O12 0.823689 0.562505 0.530293
O O13 0.681697 0.471708 0.419334
O O14 0.922032 0.675045 0.108366
O O15 0.674614 0.752143 0.835782
#
# Coordination Sequence:
#
# PCOD9291976 Si02
#       7
#     8   8   8   8   8   8   8
#     4  12  22  40  64  91 129 174 212 258 330 386
#     4  12  25  40  63  98 128 168 219 264 321 397
#     4  11  23  41  65  98 130 167 216 270 324 379
#     4   9  20  43  70  91 126 174 219 266 321 385
#     4  11  24  40  67  97 130 166 216 273 328 372
#     4  10  22  43  64  94 130 172 216 264 323 385
#     4  11  21  39  64  89 129 175 211 259 316 398
#
# _framework density 20.841631
#
# number of rings (size 3 to 8) (size 9 to 14) (size 15 to 20)
#    0.000    1.143    5.714    1.286    0.000    4.571 
#    0.000    0.000    0.000    6.857    0.000    0.000 
#    0.000    0.000    0.000    0.000    0.000    0.000 
#
# Total GULP energy -156416.073467 kJ/mol
# GULP energy per Si atom -5586.288338 kJ/mol
# Density = 2.079419 g / cm^3
# Si number density = 20.841631 Si / 1000 Ang^3
#
#
#
# Elastic Constant Matrix: (Units=GPa)
#
#
# Indices 1 2 3 4 5 6 
#
# 1 46.3451 0.3895 22.7978 0.0000 -3.1616 0.0000
# 2 0.3895 106.7820 25.6610 0.0000 -3.4284 0.0000
# 3 22.7978 25.6610 112.8620 0.0000 -16.9440 0.0000
# 4 0.0000 0.0000 0.0000 34.4124 0.0000 -0.8014
# 5 -3.1616 -3.4284 -16.9440 0.0000 17.7969 0.0000
# 6 0.0000 0.0000 0.0000 -0.8014 0.0000 12.2455
#
#
#
# Elastic Compliance Matrix: (Units=1/GPa)
#
#
# Indices 1 2 3 4 5 6 
#
# 1 0.024092 0.001146 -0.005194 0.000000 -0.000444 0.000000
# 2 0.001146 0.009962 -0.002541 0.000000 -0.000297 0.000000
# 3 -0.005194 -0.002541 0.011989 0.000000 0.010002 0.000000
# 4 0.000000 0.000000 0.000000 0.029104 0.000000 0.001905
# 5 -0.000444 -0.000297 0.010002 0.000000 0.065576 0.000000
# 6 0.000000 0.000000 0.000000 0.001905 0.000000 0.081787
#
#
# Mechanical properties :
#
#
# Convention : Reuss Voigt Hill
#
# Bulk Modulus (GPa) = 30.42723 40.40953 35.41838
# Shear Modulus (GPa) = 20.27225 27.36703 23.81964
#
# Velocity S-wave (km/s) = 3.12217 3.62760 3.38433
# Velocity P-wave (km/s) = 5.25625 6.08086 5.68353
#
# Compressibility (1/GPa) = 0.03286530
#
# Stress axis : x y z
#
# Youngs Moduli (GPa) = 41.50721 100.38345 83.41060
#
# Poissons Ratio (x) = -0.11504 0.43322
# Poissons Ratio (y) = -0.04757 0.21195
# Poissons Ratio (z) = 0.21558 0.25507
#
# Static dielectric constant tensor:
#      x y z
#    x 1.731500 0.000000 0.002670 
#    y 0.000000 1.742460 0.000000 
#    z 0.002670 0.000000 1.767520 
# 
# From -- ./inp_files/297998.got.cif
#   From: 2010.05.17/outbox.cif.g08.bks.cpg/sg15_149_cif.got.tgz:297998.got - 2010.06.03 18:47:42.
