data_PCOD9291513
_publ_section_title
;
Structure prediction by ZEFSAII (Michael W. Deem and Ramdas Pophale) SiO2 
 PCOD9291513
Probable space group: C 2/C
;
_chemical_formula_sum "Si O2"
_cell_formula_units_Z 44
_cell_length_a 21.034677
_cell_length_b 12.520302
_cell_length_c 18.409149
_cell_angle_alpha 90.000000
_cell_angle_beta 158.699872
_cell_angle_gamma 90.000000
_cell_volume 1761.140269
_symmetry_space_group_name_H-M "C 2/C"
_symmetry_group_IT_number 15
_symmetry_cell_setting 'monoclinic'
loop_
_space_group_symop_operation_xyz
x,y,z
-x,y,1/2-z
-x,-y,-z
x,-y,1/2+z
1/2+x,1/2+y,z
1/2-x,1/2+y,1/2-z
1/2-x,1/2-y,-z
1/2+x,1/2-y,1/2+z
loop_
_atom_site_type_symbol
_atom_site_label
_atom_site_fract_x
_atom_site_fract_y
_atom_site_fract_z
Si Si1 0.577876 0.729085 0.663240
Si Si2 0.500000 0.281819 0.750000
Si Si3 0.271267 0.878739 0.939302
Si Si4 0.188682 0.611665 0.470422
Si Si5 0.557573 0.595941 0.509108
Si Si6 0.265634 0.417848 0.888416
O O1 0.630306 0.687395 0.638958
O O2 0.401788 0.664820 0.495865
O O3 0.584172 0.857783 0.674175
O O4 0.703370 0.685116 0.860840
O O5 0.428678 0.205062 0.609950
O O6 0.659561 0.351942 0.892633
O O7 0.123814 0.869283 0.721498
O O8 0.338250 0.998601 0.017935
O O9 0.280948 0.587624 0.491685
O O10 0.000000 0.658873 0.250000
O O11 0.500000 0.500000 0.500000
O O12 0.688732 0.535891 0.592661
#
# Coordination Sequence:
#
# PCOD9291513 Si02
#       6
#     8   4   8   8   8   8
#     4  11  24  43  67  97 136 174 224 273 338 401
#     4  10  24  38  64  96 122 174 220 272 314 400
#     4  11  21  41  64  92 130 166 222 267 333 381
#     4  12  23  41  67  96 134 174 225 282 332 391
#     4  10  22  42  68  92 136 174 211 274 337 396
#     4  11  23  42  68  99 127 179 225 274 336 389
#
# _framework density 24.983813999999999
#
# number of rings (size 3 to 8) (size 9 to 14) (size 15 to 20)
#    0.000    1.091    4.545    3.273    0.000    2.909 
#    0.000    3.636    0.000    0.000    0.000    0.000 
#    0.000    0.000    0.000    0.000    0.000    0.000 
#
# Total GULP energy -123015.808090 kJ/mol
# GULP energy per Si atom -5591.627640 kJ/mol
# Density = 2.492695 g / cm^3
# Si number density = 24.983814 Si / 1000 Ang^3
#
#
#
# Elastic Constant Matrix: (Units=GPa)
#
#
# Indices 1 2 3 4 5 6 
#
# 1 92.4619 25.1525 32.7942 0.0001 -20.4544 0.0001
# 2 25.1525 94.5357 47.3224 -0.0003 -13.0465 -0.0003
# 3 32.7942 47.3224 109.6758 -0.0004 -27.8128 -0.0001
# 4 0.0001 -0.0003 -0.0004 24.5659 -0.0002 -4.4207
# 5 -20.4544 -13.0465 -27.8128 -0.0002 42.4998 -0.0001
# 6 0.0001 -0.0003 -0.0001 -4.4207 -0.0001 42.4361
#
#
#
# Elastic Compliance Matrix: (Units=1/GPa)
#
#
# Indices 1 2 3 4 5 6 
#
# 1 0.012992 -0.001867 -0.001965 0.000000 0.004394 0.000000
# 2 -0.001867 0.013766 -0.005441 0.000000 -0.000233 0.000000
# 3 -0.001965 -0.005441 0.013656 0.000000 0.006321 0.000000
# 4 0.000000 0.000000 0.000000 0.041484 0.000000 0.004322
# 5 0.004394 -0.000233 0.006321 0.000000 0.029709 0.000000
# 6 0.000000 0.000000 0.000000 0.004322 0.000000 0.024015
#
#
# Mechanical properties :
#
#
# Convention : Reuss Voigt Hill
#
# Bulk Modulus (GPa) = 45.72688 56.35685 51.04187
# Shear Modulus (GPa) = 30.96806 34.66066 32.81436
#
# Velocity S-wave (km/s) = 3.52451 3.72872 3.62805
# Velocity P-wave (km/s) = 5.90806 6.41437 6.16641
#
# Compressibility (1/GPa) = 0.02186897
#
# Stress axis : x y z
#
# Youngs Moduli (GPa) = 76.97036 72.64305 73.22925
#
# Poissons Ratio (x) = 0.13560 0.14390
# Poissons Ratio (y) = 0.14368 0.39841
# Poissons Ratio (z) = 0.15126 0.39522
#
# Static dielectric constant tensor:
#      x y z
#    x 2.049010 0.000000 0.058340 
#    y 0.000000 2.029530 0.000000 
#    z 0.058340 0.000000 1.970130 
# 
# From -- ./inp_files/219761.got.cif
#   From: 2010.05.17/outbox.cif.g08.bks.cpg/sg15_110_cif.got.tgz:219761.got - 2010.06.03 18:47:42.
