data_PCOD9291185
_publ_section_title
;
Structure prediction by ZEFSAII (Michael W. Deem and Ramdas Pophale) SiO2 
 PCOD9291185
Probable space group: C 2/C
;
_chemical_formula_sum "Si O2"
_cell_formula_units_Z 52
_cell_length_a 10.415265
_cell_length_b 11.442321
_cell_length_c 22.718079
_cell_angle_alpha 90.000000
_cell_angle_beta 128.976033
_cell_angle_gamma 90.000000
_cell_volume 2104.775110
_symmetry_space_group_name_H-M "C 2/C"
_symmetry_group_IT_number 15
_symmetry_cell_setting 'monoclinic'
loop_
_space_group_symop_operation_xyz
x,y,z
-x,y,1/2-z
-x,-y,-z
x,-y,1/2+z
1/2+x,1/2+y,z
1/2-x,1/2+y,1/2-z
1/2-x,1/2-y,-z
1/2+x,1/2-y,1/2+z
loop_
_atom_site_type_symbol
_atom_site_label
_atom_site_fract_x
_atom_site_fract_y
_atom_site_fract_z
Si Si1 0.559875 0.837971 0.529455
Si Si2 0.717392 0.816220 0.148401
Si Si3 0.213696 0.919170 0.706482
Si Si4 0.500000 0.505327 0.250000
Si Si5 0.184544 0.506800 0.477124
Si Si6 0.530612 0.586097 0.564219
Si Si7 0.000299 0.429520 0.182452
O O1 0.404484 0.817860 0.441568
O O2 0.486982 0.929565 0.555153
O O3 0.598890 0.713874 0.568747
O O4 0.696552 0.899606 0.527433
O O5 0.760119 0.683441 0.174805
O O6 0.859187 0.914211 0.186158
O O7 0.606786 0.842993 0.173814
O O8 0.084635 0.915868 0.723763
O O9 0.388560 0.954691 0.783385
O O10 0.135970 0.022971 0.644639
O O11 0.338180 0.592656 0.529336
O O12 0.158329 0.457698 0.403603
O O13 0.500000 0.500000 0.500000
O O14 0.000000 0.390089 0.250000
#
# Coordination Sequence:
#
# PCOD9291185 Si02
#       7
#     8   8   8   4   8   8   8
#     4  10  22  43  66  93 126 165 223 266 320 384
#     4  10  22  42  65  93 128 169 215 270 321 384
#     4  11  24  42  65  98 129 169 216 266 328 385
#     4  10  24  42  64  92 132 170 216 264 322 388
#     4  10  23  42  68  94 125 174 215 269 323 382
#     4  12  23  40  64  98 129 163 214 270 323 382
#     4  10  23  42  62  96 130 166 216 262 326 390
#
# _framework density 24.705728000000001
#
# number of rings (size 3 to 8) (size 9 to 14) (size 15 to 20)
#    0.000    1.538    1.538    2.308    2.154    4.308 
#    2.769    0.000    0.000    0.000    0.000    0.000 
#    0.000    0.000    0.000    0.000    0.000    0.000 
#
# Total GULP energy -145295.062060 kJ/mol
# GULP energy per Si atom -5588.271618 kJ/mol
# Density = 2.464950 g / cm^3
# Si number density = 24.705728 Si / 1000 Ang^3
#
#
#
# Elastic Constant Matrix: (Units=GPa)
#
#
# Indices 1 2 3 4 5 6 
#
# 1 81.2620 4.6320 10.4969 0.0000 -17.8686 0.0000
# 2 4.6320 88.3545 7.1632 0.0000 -5.1094 0.0000
# 3 10.4969 7.1632 67.8038 0.0000 -1.2987 0.0000
# 4 0.0000 0.0000 0.0000 17.2860 0.0000 -14.4235
# 5 -17.8686 -5.1094 -1.2987 0.0000 40.7949 0.0000
# 6 0.0000 0.0000 0.0000 -14.4235 0.0000 28.5468
#
#
#
# Elastic Compliance Matrix: (Units=1/GPa)
#
#
# Indices 1 2 3 4 5 6 
#
# 1 0.013897 -0.000219 -0.002013 0.000000 0.005995 0.000000
# 2 -0.000219 0.011499 -0.001156 0.000000 0.001308 0.000000
# 3 -0.002013 -0.001156 0.015172 0.000000 -0.000544 0.000000
# 4 0.000000 0.000000 0.000000 0.100015 0.000000 0.050534
# 5 0.005995 0.001308 -0.000544 0.000000 0.027285 0.000000
# 6 0.000000 0.000000 0.000000 0.050534 0.000000 0.060563
#
#
# Mechanical properties :
#
#
# Convention : Reuss Voigt Hill
#
# Bulk Modulus (GPa) = 29.59325 31.33383 30.46354
# Shear Modulus (GPa) = 20.28639 31.66744 25.97692
#
# Velocity S-wave (km/s) = 2.86863 3.58409 3.24613
# Velocity P-wave (km/s) = 4.79336 5.46241 5.13879
#
# Compressibility (1/GPa) = 0.03379149
#
# Stress axis : x y z
#
# Youngs Moduli (GPa) = 71.95923 86.96533 65.91155
#
# Poissons Ratio (x) = 0.01901 0.13271
# Poissons Ratio (y) = 0.01573 0.07619
# Poissons Ratio (z) = 0.14489 0.10052
#
# Static dielectric constant tensor:
#      x y z
#    x 2.267080 0.000000 0.121980 
#    y 0.000000 1.998000 0.000000 
#    z 0.121980 0.000000 2.036600 
# 
# From -- ./inp_files/237699.got.cif
#   From: 2010.05.17/outbox.cif.g08.bks.cpg/sg15_119_cif.got.tgz:237699.got - 2010.06.03 18:47:42.
