data_PCOD9291672
_publ_section_title
;
Structure prediction by ZEFSAII (Michael W. Deem and Ramdas Pophale) SiO2 
 PCOD9291672
Probable space group: C 2/C
;
_chemical_formula_sum "Si O2"
_cell_formula_units_Z 48
_cell_length_a 29.404276
_cell_length_b 7.949721
_cell_length_c 16.979246
_cell_angle_alpha 90.000000
_cell_angle_beta 30.271002
_cell_angle_gamma 90.000000
_cell_volume 2000.734057
_symmetry_space_group_name_H-M "C 2/C"
_symmetry_group_IT_number 15
_symmetry_cell_setting 'monoclinic'
loop_
_space_group_symop_operation_xyz
x,y,z
-x,y,1/2-z
-x,-y,-z
x,-y,1/2+z
1/2+x,1/2+y,z
1/2-x,1/2+y,1/2-z
1/2-x,1/2-y,-z
1/2+x,1/2-y,1/2+z
loop_
_atom_site_type_symbol
_atom_site_label
_atom_site_fract_x
_atom_site_fract_y
_atom_site_fract_z
Si Si1 0.708207 0.897855 0.111898
Si Si2 0.530239 0.901930 0.295771
Si Si3 0.007068 0.989393 0.645664
Si Si4 0.850303 0.494232 0.640565
Si Si5 0.683954 0.595033 0.786926
Si Si6 0.667487 0.621666 0.633339
O O1 0.627914 0.968009 0.175954
O O2 0.665180 0.886340 0.261518
O O3 0.750000 0.750000 0.000000
O O4 0.800065 0.003228 0.986630
O O5 0.500000 0.916000 0.250000
O O6 0.528727 0.701541 0.318530
O O7 0.452715 0.994155 0.460060
O O8 0.105279 0.987976 0.458170
O O9 0.000000 0.006595 0.750000
O O10 0.939672 0.132692 0.713763
O O11 0.780415 0.548380 0.678190
O O12 0.829968 0.297975 0.691709
O O13 0.678901 0.544145 0.703380
O O14 0.750000 0.750000 0.500000
#
# Coordination Sequence:
#
# PCOD9291672 Si02
#       6
#     8   8   8   8   8   8
#     4  12  24  43  72  97 135 184 229 282 350 419
#     4  10  22  42  70 101 134 178 232 284 341 413
#     4  10  22  42  70  97 135 185 231 277 348 417
#     4  11  25  44  68 102 138 181 232 289 343 421
#     4  11  25  43  69  99 140 180 234 285 351 415
#     4  12  24  44  65 100 141 175 228 289 343 413
#
# _framework density 23.991195000000001
#
# number of rings (size 3 to 8) (size 9 to 14) (size 15 to 20)
#    0.000    1.000    3.333    3.000    7.000    0.000 
#    3.000    0.833    0.000    0.000    0.000    0.000 
#    0.000    0.000    0.000    0.000    0.000    0.000 
#
# Total GULP energy -133908.114602 kJ/mol
# GULP energy per Si atom -5579.504775 kJ/mol
# Density = 2.393659 g / cm^3
# Si number density = 23.991195 Si / 1000 Ang^3
#
#
#
# Elastic Constant Matrix: (Units=GPa)
#
#
# Indices 1 2 3 4 5 6 
#
# 1 130.2909 9.1930 64.5619 0.0001 -2.8508 0.0001
# 2 9.1930 44.5060 45.7395 -0.0011 -3.2563 0.0031
# 3 64.5619 45.7395 189.4228 0.0002 -4.5512 -0.0005
# 4 0.0001 -0.0011 0.0002 44.5264 0.0000 -4.3704
# 5 -2.8508 -3.2563 -4.5512 0.0000 49.1014 0.0004
# 6 0.0001 0.0031 -0.0005 -4.3704 0.0004 19.6617
#
#
#
# Elastic Compliance Matrix: (Units=1/GPa)
#
#
# Indices 1 2 3 4 5 6 
#
# 1 0.009346 0.001808 -0.003614 0.000000 0.000328 0.000000
# 2 0.001808 0.030320 -0.007904 0.000000 0.001383 -0.000005
# 3 -0.003614 -0.007904 0.008421 0.000000 0.000047 0.000001
# 4 0.000000 0.000000 0.000000 0.022959 0.000000 0.005103
# 5 0.000328 0.001383 0.000047 0.000000 0.020481 -0.000001
# 6 0.000000 -0.000005 0.000001 0.005103 -0.000001 0.051995
#
#
# Mechanical properties :
#
#
# Convention : Reuss Voigt Hill
#
# Bulk Modulus (GPa) = 34.88545 67.02317 50.95431
# Shear Modulus (GPa) = 28.98596 38.97292 33.97944
#
# Velocity S-wave (km/s) = 3.47968 4.03484 3.76750
# Velocity P-wave (km/s) = 5.54226 7.05009 6.34116
#
# Compressibility (1/GPa) = 0.02866525
#
# Stress axis : x y z
#
# Youngs Moduli (GPa) = 107.00322 32.98164 118.75562
#
# Poissons Ratio (x) = -0.05962 0.42917
# Poissons Ratio (y) = -0.19342 0.93866
# Poissons Ratio (z) = 0.38670 0.26069
#
# Static dielectric constant tensor:
#      x y z
#    x 2.069660 -0.000010 0.244060 
#    y -0.000010 2.150510 -0.000010 
#    z 0.244060 -0.000010 2.118670 
# 
# From -- ./inp_files/224553.got.cif
#   From: 2010.05.17/outbox.cif.g08.bks.cpg/sg15_113_cif.got.tgz:224553.got - 2010.06.03 18:47:42.
