data_PCOD9291490
_publ_section_title
;
Structure prediction by ZEFSAII (Michael W. Deem and Ramdas Pophale) SiO2 
 PCOD9291490
Probable space group: C 2/C
;
_chemical_formula_sum "Si O2"
_cell_formula_units_Z 36
_cell_length_a 12.722292
_cell_length_b 5.529984
_cell_length_c 22.253811
_cell_angle_alpha 90.000000
_cell_angle_beta 108.554756
_cell_angle_gamma 90.000000
_cell_volume 1484.263887
_symmetry_space_group_name_H-M "C 2/C"
_symmetry_group_IT_number 15
_symmetry_cell_setting 'monoclinic'
loop_
_space_group_symop_operation_xyz
x,y,z
-x,y,1/2-z
-x,-y,-z
x,-y,1/2+z
1/2+x,1/2+y,z
1/2-x,1/2+y,1/2-z
1/2-x,1/2-y,-z
1/2+x,1/2-y,1/2+z
loop_
_atom_site_type_symbol
_atom_site_label
_atom_site_fract_x
_atom_site_fract_y
_atom_site_fract_z
Si Si1 0.769410 0.254266 0.717497
Si Si2 0.004326 0.307422 0.946773
Si Si3 0.140831 0.093874 0.487035
Si Si4 0.042145 0.704484 0.638769
Si Si5 0.500000 0.511846 0.750000
O O1 0.733744 0.022320 0.753417
O O2 0.891956 0.177690 0.720140
O O3 0.672233 0.250891 0.650125
O O4 0.974262 0.419119 0.877288
O O5 0.908984 0.131657 0.955175
O O6 0.125406 0.189259 0.970805
O O7 0.000000 0.500000 0.000000
O O8 0.250000 0.250000 0.500000
O O9 0.052461 0.189867 0.421548
O O10 0.020933 0.832869 0.697933
#
# Coordination Sequence:
#
# PCOD9291490 Si02
#       5
#     8   8   8   8   4
#     4  10  24  45  66  99 141 184 236 290 352 432
#     4   9  21  42  64  95 138 177 228 299 350 422
#     4  10  22  42  68 104 136 186 243 293 370 431
#     4  10  23  42  68 102 139 182 235 296 352 435
#     4  10  24  46  66 104 136 188 232 286 372 430
#
# _framework density 24.254445
#
# number of rings (size 3 to 8) (size 9 to 14) (size 15 to 20)
#    0.000    2.222    0.000    0.000    9.333    7.111 
#    0.000    6.667    0.000    0.000    0.000    0.000 
#    0.000    0.000    0.000    0.000    0.000    0.000 
#
# Total GULP energy -100295.899856 kJ/mol
# GULP energy per Si atom -5571.994436 kJ/mol
# Density = 2.419924 g / cm^3
# Si number density = 24.254445 Si / 1000 Ang^3
#
#
#
# Elastic Constant Matrix: (Units=GPa)
#
#
# Indices 1 2 3 4 5 6 
#
# 1 157.1624 30.2671 56.5815 0.0000 46.1603 0.0000
# 2 30.2671 92.1644 34.1897 0.0000 16.7748 0.0000
# 3 56.5815 34.1897 102.8529 0.0000 34.1206 0.0000
# 4 0.0000 0.0000 0.0000 47.8297 0.0000 9.1353
# 5 46.1603 16.7748 34.1206 0.0000 42.3717 0.0000
# 6 0.0000 0.0000 0.0000 9.1353 0.0000 42.9863
#
#
#
# Elastic Compliance Matrix: (Units=1/GPa)
#
#
# Indices 1 2 3 4 5 6 
#
# 1 0.009870 -0.000824 -0.002315 0.000000 -0.008561 0.000000
# 2 -0.000824 0.012592 -0.003243 0.000000 -0.001476 0.000000
# 3 -0.002315 -0.003243 0.014753 0.000000 -0.008074 0.000000
# 4 0.000000 0.000000 0.000000 0.021792 0.000000 -0.004631
# 5 -0.008561 -0.001476 -0.008074 0.000000 0.040013 0.000000
# 6 0.000000 0.000000 0.000000 -0.004631 0.000000 0.024247
#
#
# Mechanical properties :
#
#
# Convention : Reuss Voigt Hill
#
# Bulk Modulus (GPa) = 40.89942 66.02847 53.46395
# Shear Modulus (GPa) = 34.67823 42.04696 38.36259
#
# Velocity S-wave (km/s) = 3.78533 4.16814 3.98134
# Velocity P-wave (km/s) = 6.00035 7.10260 6.57461
#
# Compressibility (1/GPa) = 0.02445023
#
# Stress axis : x y z
#
# Youngs Moduli (GPa) = 101.31977 79.41257 67.78419
#
# Poissons Ratio (x) = 0.06544 0.15695
# Poissons Ratio (y) = 0.08349 0.21981
# Poissons Ratio (z) = 0.23460 0.25752
#
# Static dielectric constant tensor:
#      x y z
#    x 1.959690 0.000000 0.013420 
#    y 0.000000 2.557690 0.000000 
#    z 0.013420 0.000000 1.947060 
# 
# From -- ./inp_files/271773.got.cif
#   From: 2010.05.17/outbox.cif.g08.bks.cpg/sg15_136_cif.got.tgz:271773.got - 2010.06.03 18:47:42.
