data_PCOD9291338
_publ_section_title
;
Structure prediction by ZEFSAII (Michael W. Deem and Ramdas Pophale) SiO2 
 PCOD9291338
Probable space group: C 2/C
;
_chemical_formula_sum "Si O2"
_cell_formula_units_Z 36
_cell_length_a 16.446248
_cell_length_b 14.413140
_cell_length_c 12.970892
_cell_angle_alpha 90.000000
_cell_angle_beta 36.611897
_cell_angle_gamma 90.000000
_cell_volume 1833.693614
_symmetry_space_group_name_H-M "C 2/C"
_symmetry_group_IT_number 15
_symmetry_cell_setting 'monoclinic'
loop_
_space_group_symop_operation_xyz
x,y,z
-x,y,1/2-z
-x,-y,-z
x,-y,1/2+z
1/2+x,1/2+y,z
1/2-x,1/2+y,1/2-z
1/2-x,1/2-y,-z
1/2+x,1/2-y,1/2+z
loop_
_atom_site_type_symbol
_atom_site_label
_atom_site_fract_x
_atom_site_fract_y
_atom_site_fract_z
Si Si1 0.053915 0.330574 0.413514
Si Si2 0.787262 0.474303 0.102913
Si Si3 0.735088 0.349082 0.782417
Si Si4 0.845575 0.838219 0.411064
Si Si5 0.500000 0.082199 0.750000
O O1 0.123563 0.414708 0.406576
O O2 0.140750 0.238099 0.347633
O O3 0.051418 0.356739 0.294664
O O4 0.895908 0.322165 0.610493
O O5 0.718783 0.562364 0.225984
O O6 0.682595 0.406822 0.153785
O O7 0.885624 0.516345 0.915380
O O8 0.693605 0.380280 0.938938
O O9 0.750000 0.750000 0.500000
O O10 0.000000 0.806607 0.250000
#
# Coordination Sequence:
#
# PCOD9291338 Si02
#       5
#     8   8   8   8   4
#     4  11  23  42  67  92 130 170 208 264 313 373
#     4  11  23  41  67  95 127 169 212 262 311 377
#     4  11  24  43  65  96 127 169 212 261 315 377
#     4  12  25  42  67  95 127 169 209 262 319 372
#     4  10  22  42  66  96 124 174 214 250 320 378
#
# _framework density 19.632504999999998
#
# number of rings (size 3 to 8) (size 9 to 14) (size 15 to 20)
#    0.000    0.889    2.222    6.667    1.556    4.444 
#    6.000    0.000    0.000    0.000    0.000    0.000 
#    0.000    0.000    0.000    0.000    0.000    0.000 
#
# Total GULP energy -100642.872132 kJ/mol
# GULP energy per Si atom -5591.270674 kJ/mol
# Density = 1.958782 g / cm^3
# Si number density = 19.632505 Si / 1000 Ang^3
#
#
#
# Elastic Constant Matrix: (Units=GPa)
#
#
# Indices 1 2 3 4 5 6 
#
# 1 117.4154 46.5934 55.7422 0.0000 -4.0352 0.0000
# 2 46.5934 108.4141 39.0422 0.0000 -18.8598 0.0000
# 3 55.7422 39.0422 105.9440 0.0000 4.4704 0.0000
# 4 0.0000 0.0000 0.0000 18.9344 0.0000 -0.9447
# 5 -4.0352 -18.8598 4.4704 0.0000 32.1939 0.0000
# 6 0.0000 0.0000 0.0000 -0.9447 0.0000 29.5939
#
#
#
# Elastic Compliance Matrix: (Units=1/GPa)
#
#
# Indices 1 2 3 4 5 6 
#
# 1 0.012368 -0.003358 -0.005284 0.000000 0.000317 0.000000
# 2 -0.003358 0.013275 -0.003456 0.000000 0.007836 0.000000
# 3 -0.005284 -0.003456 0.013686 0.000000 -0.004587 0.000000
# 4 0.000000 0.000000 0.000000 0.052898 0.000000 0.001689
# 5 0.000317 0.007836 -0.004587 0.000000 0.036329 0.000000
# 6 0.000000 0.000000 0.000000 0.001689 0.000000 0.033845
#
#
# Mechanical properties :
#
#
# Convention : Reuss Voigt Hill
#
# Bulk Modulus (GPa) = 66.07386 68.28102 67.17744
# Shear Modulus (GPa) = 26.09059 28.83748 27.46403
#
# Velocity S-wave (km/s) = 3.64943 3.83673 3.74425
# Velocity P-wave (km/s) = 7.17539 7.38122 7.27903
#
# Compressibility (1/GPa) = 0.01513458
#
# Stress axis : x y z
#
# Youngs Moduli (GPa) = 80.85073 75.33197 73.06720
#
# Poissons Ratio (x) = 0.25295 0.38606
# Poissons Ratio (y) = 0.27148 0.25251
# Poissons Ratio (z) = 0.42719 0.26034
#
# Static dielectric constant tensor:
#      x y z
#    x 1.639210 0.000000 -0.087510 
#    y 0.000000 1.679210 0.000000 
#    z -0.087510 0.000000 1.547710 
# 
# From -- ./inp_files/46879.got.cif
#   From: 2010.05.17/outbox.cif.g08.bks.cpg/sg15_24_cif.got.tgz:46879.got - 2010.06.03 18:47:42.
