data_PCOD9291097
_publ_section_title
;
Structure prediction by ZEFSAII (Michael W. Deem and Ramdas Pophale) SiO2 
 PCOD9291097
Probable space group: C 2/C
;
_chemical_formula_sum "Si O2"
_cell_formula_units_Z 64
_cell_length_a 10.281510
_cell_length_b 9.278452
_cell_length_c 29.446510
_cell_angle_alpha 90.000000
_cell_angle_beta 86.942328
_cell_angle_gamma 90.000000
_cell_volume 2805.094735
_symmetry_space_group_name_H-M "C 2/C"
_symmetry_group_IT_number 15
_symmetry_cell_setting 'monoclinic'
loop_
_space_group_symop_operation_xyz
x,y,z
-x,y,1/2-z
-x,-y,-z
x,-y,1/2+z
1/2+x,1/2+y,z
1/2-x,1/2+y,1/2-z
1/2-x,1/2-y,-z
1/2+x,1/2-y,1/2+z
loop_
_atom_site_type_symbol
_atom_site_label
_atom_site_fract_x
_atom_site_fract_y
_atom_site_fract_z
Si Si1 0.059235 0.915692 0.938061
Si Si2 0.300175 0.620676 0.673258
Si Si3 0.171509 0.878756 0.081574
Si Si4 0.663456 0.040863 0.095128
Si Si5 0.043524 0.389059 0.460897
Si Si6 0.245936 0.088034 0.162260
Si Si7 0.042283 0.858673 0.833822
Si Si8 0.356380 0.121864 0.732892
O O1 0.206042 0.976056 0.939031
O O2 0.017093 0.780965 0.969736
O O3 0.062921 0.841435 0.887274
O O4 0.951065 0.038578 0.937764
O O5 0.205848 0.523293 0.643188
O O6 0.328706 0.771372 0.647793
O O7 0.428020 0.525161 0.675751
O O8 0.243471 0.642107 0.724294
O O9 0.140675 0.712865 0.094113
O O10 0.300941 0.888161 0.048542
O O11 0.214717 0.972111 0.124522
O O12 0.541106 0.949570 0.079822
O O13 0.000000 0.500000 0.500000
O O14 0.107299 0.163065 0.175138
O O15 0.309329 0.010288 0.203330
O O16 0.130527 0.758307 0.801075
O O17 0.500000 0.095418 0.750000
#
# Coordination Sequence:
#
# PCOD9291097 Si02
#       8
#     8   8   8   8   8   8   8   8
#     4   9  21  43  65  92 123 166 207 253 307 369
#     4  11  23  39  65  88 117 166 206 256 305 359
#     4  10  23  41  69  93 124 166 208 256 306 371
#     4  10  22  42  64  92 126 162 207 253 311 366
#     4  11  24  41  66  97 130 161 198 253 313 377
#     4  11  23  42  61  89 122 161 209 256 303 359
#     4  10  22  45  61  83 122 164 206 255 307 355
#     4  12  24  39  58  87 126 164 202 257 309 355
#
# _framework density 22.815631
#
# number of rings (size 3 to 8) (size 9 to 14) (size 15 to 20)
#    0.000    1.500    1.250    4.500    1.750    6.500 
#    4.500    1.250    0.000    0.000    0.000    0.000 
#    0.000    0.000    0.000    0.000    0.000    0.000 
#
# Total GULP energy -178850.356874 kJ/mol
# GULP energy per Si atom -5589.073652 kJ/mol
# Density = 2.276370 g / cm^3
# Si number density = 22.815631 Si / 1000 Ang^3
#
#
#
# Elastic Constant Matrix: (Units=GPa)
#
#
# Indices 1 2 3 4 5 6 
#
# 1 60.8487 27.0399 3.8544 0.0000 -4.6732 0.0000
# 2 27.0399 127.2967 21.0355 0.0000 -1.7201 0.0000
# 3 3.8544 21.0355 54.9736 0.0000 -1.6183 0.0000
# 4 0.0000 0.0000 0.0000 29.8965 0.0000 6.5549
# 5 -4.6732 -1.7201 -1.6183 0.0000 12.6569 0.0000
# 6 0.0000 0.0000 0.0000 6.5549 0.0000 43.0159
#
#
#
# Elastic Compliance Matrix: (Units=1/GPa)
#
#
# Indices 1 2 3 4 5 6 
#
# 1 0.018652 -0.003940 0.000388 0.000000 0.006401 0.000000
# 2 -0.003940 0.009225 -0.003272 0.000000 -0.000619 0.000000
# 3 0.000388 -0.003272 0.019480 0.000000 0.002189 0.000000
# 4 0.000000 0.000000 0.000000 0.034605 0.000000 -0.005273
# 5 0.006401 -0.000619 0.002189 0.000000 0.081567 0.000000
# 6 0.000000 0.000000 0.000000 -0.005273 0.000000 0.024051
#
#
# Mechanical properties :
#
#
# Convention : Reuss Voigt Hill
#
# Bulk Modulus (GPa) = 29.66495 38.55317 34.10906
# Shear Modulus (GPa) = 23.53356 29.85983 26.69669
#
# Velocity S-wave (km/s) = 3.21513 3.62158 3.42439
# Velocity P-wave (km/s) = 5.17813 5.86704 5.53332
#
# Compressibility (1/GPa) = 0.03370982
#
# Stress axis : x y z
#
# Youngs Moduli (GPa) = 53.61388 108.40349 51.33537
#
# Poissons Ratio (x) = 0.42707 -0.01993
# Poissons Ratio (y) = 0.21122 0.16796
# Poissons Ratio (z) = -0.02081 0.35468
#
# Static dielectric constant tensor:
#      x y z
#    x 1.843450 0.000000 0.001990 
#    y 0.000000 1.849850 0.000000 
#    z 0.001990 0.000000 1.910490 
# 
# From -- ./inp_files/310331.got.cif
#   From: 2010.05.17/outbox.cif.g08.bks.cpg/sg15_156_cif.got.tgz:310331.got - 2010.06.03 18:47:42.
