data_PCOD9291560
_publ_section_title
;
Structure prediction by ZEFSAII (Michael W. Deem and Ramdas Pophale) SiO2 
 PCOD9291560
Probable space group: C 2/C
;
_chemical_formula_sum "Si O2"
_cell_formula_units_Z 36
_cell_length_a 7.492725
_cell_length_b 8.403042
_cell_length_c 26.787721
_cell_angle_alpha 90.000000
_cell_angle_beta 125.678770
_cell_angle_gamma 90.000000
_cell_volume 1370.024657
_symmetry_space_group_name_H-M "C 2/C"
_symmetry_group_IT_number 15
_symmetry_cell_setting 'monoclinic'
loop_
_space_group_symop_operation_xyz
x,y,z
-x,y,1/2-z
-x,-y,-z
x,-y,1/2+z
1/2+x,1/2+y,z
1/2-x,1/2+y,1/2-z
1/2-x,1/2-y,-z
1/2+x,1/2-y,1/2+z
loop_
_atom_site_type_symbol
_atom_site_label
_atom_site_fract_x
_atom_site_fract_y
_atom_site_fract_z
Si Si1 0.757475 0.941799 0.951204
Si Si2 0.534275 0.225348 0.159756
Si Si3 0.652452 0.442741 0.727464
Si Si4 0.000000 0.500000 0.500000
Si Si5 0.842800 0.772028 0.610907
O O1 0.635433 0.102461 0.912238
O O2 0.707856 0.808777 0.901562
O O3 0.642163 0.900371 0.983716
O O4 0.000000 0.000000 0.000000
O O5 0.584701 0.384360 0.197842
O O6 0.685481 0.235474 0.134458
O O7 0.608523 0.086618 0.210385
O O8 0.500000 0.403748 0.750000
O O9 0.577197 0.328498 0.670500
O O10 0.772754 0.602264 0.444927
#
# Coordination Sequence:
#
# PCOD9291560 Si02
#       5
#     8   8   8   4   8
#     4  11  25  43  70 103 138 183 228 280 346 410
#     4  10  23  42  66  99 134 179 231 282 342 414
#     4  10  22  42  68  97 136 176 229 287 340 405
#     4  10  24  44  66  98 142 180 228 282 334 404
#     4  10  23  41  66  97 136 180 225 283 339 405
#
# _framework density 26.276897999999999
#
# number of rings (size 3 to 8) (size 9 to 14) (size 15 to 20)
#    0.000    1.778    0.000    2.000    6.222    3.556 
#    4.000    0.000    0.000    0.000    0.000    0.000 
#    0.000    0.000    0.000    0.000    0.000    0.000 
#
# Total GULP energy -100281.901258 kJ/mol
# GULP energy per Si atom -5571.216737 kJ/mol
# Density = 2.621709 g / cm^3
# Si number density = 26.276898 Si / 1000 Ang^3
#
#
#
# Elastic Constant Matrix: (Units=GPa)
#
#
# Indices 1 2 3 4 5 6 
#
# 1 65.3035 -25.2726 13.7019 0.0000 0.5392 0.0000
# 2 -25.2726 93.9598 51.1011 0.0000 0.0228 0.0000
# 3 13.7019 51.1011 140.8893 0.0000 24.2970 0.0000
# 4 0.0000 0.0000 0.0000 63.1725 0.0000 7.0901
# 5 0.5392 0.0228 24.2970 0.0000 34.8118 0.0000
# 6 0.0000 0.0000 0.0000 7.0901 0.0000 -6.7052
#
#
#
# Elastic Compliance Matrix: (Units=1/GPa)
#
#
# Indices 1 2 3 4 5 6 
#
# 1 0.019655 0.008295 -0.005532 0.000000 0.003552 0.000000
# 2 0.008295 0.017217 -0.007989 0.000000 0.005436 0.000000
# 3 -0.005532 -0.007989 0.011957 0.000000 -0.008255 0.000000
# 4 0.000000 0.000000 0.000000 0.014150 0.000000 0.014963
# 5 0.003552 0.005436 -0.008255 0.000000 0.034429 0.000000
# 6 0.000000 0.000000 0.000000 0.014963 0.000000 -0.133317
#
#
# Mechanical properties :
#
#
# Convention : Reuss Voigt Hill
#
# Bulk Modulus (GPa) = 26.05844 42.13484 34.09664
# Shear Modulus (GPa) = -394.84814 35.63062 -179.60876
#
# Velocity S-wave (km/s) = -12.27154 3.68634 -8.27652
# Velocity P-wave (km/s) = 13.81481 5.84710 8.85044
#
# Compressibility (1/GPa) = 0.03837529
#
# Stress axis : x y z
#
# Youngs Moduli (GPa) = 50.87868 58.08057 83.63308
#
# Poissons Ratio (x) = -0.48175 0.46269
# Poissons Ratio (y) = -0.42202 0.66815
# Poissons Ratio (z) = 0.28148 0.46401
#
# Static dielectric constant tensor:
#      x y z
#    x 2.054770 0.000000 0.072220 
#    y 0.000000 2.074060 0.000000 
#    z 0.072220 0.000000 2.134320 
# 
# From -- ./inp_files/306409.got.cif
#   From: 2010.05.17/outbox.cif.g08.bks.cpg/sg15_154_cif.got.tgz:306409.got - 2010.06.03 18:47:42.
