data_PCOD9291322
_publ_section_title
;
Structure prediction by ZEFSAII (Michael W. Deem and Ramdas Pophale) SiO2 
 PCOD9291322
Probable space group: C 2/C
;
_chemical_formula_sum "Si O2"
_cell_formula_units_Z 56
_cell_length_a 9.614192
_cell_length_b 11.369399
_cell_length_c 25.718457
_cell_angle_alpha 90.000000
_cell_angle_beta 60.308412
_cell_angle_gamma 90.000000
_cell_volume 2442.120857
_symmetry_space_group_name_H-M "C 2/C"
_symmetry_group_IT_number 15
_symmetry_cell_setting 'monoclinic'
loop_
_space_group_symop_operation_xyz
x,y,z
-x,y,1/2-z
-x,-y,-z
x,-y,1/2+z
1/2+x,1/2+y,z
1/2-x,1/2+y,1/2-z
1/2-x,1/2-y,-z
1/2+x,1/2-y,1/2+z
loop_
_atom_site_type_symbol
_atom_site_label
_atom_site_fract_x
_atom_site_fract_y
_atom_site_fract_z
Si Si1 0.028059 0.767473 0.868946
Si Si2 0.315651 0.834007 0.881961
Si Si3 0.665510 0.980762 0.208657
Si Si4 0.566047 0.033815 0.568771
Si Si5 0.394191 0.710586 0.628826
Si Si6 0.310770 0.123735 0.062397
Si Si7 0.169830 0.871509 0.741706
O O1 0.141629 0.790355 0.897496
O O2 0.964560 0.635292 0.883947
O O3 0.129669 0.789455 0.798552
O O4 0.877996 0.856157 0.896531
O O5 0.433766 0.728545 0.876623
O O6 0.376161 0.907051 0.820044
O O7 0.331337 0.928218 0.925608
O O8 0.500000 0.913796 0.250000
O O9 0.807089 0.912068 0.153478
O O10 0.735820 0.020807 0.250677
O O11 0.649458 0.094865 0.504243
O O12 0.398902 0.978016 0.579360
O O13 0.391668 0.756985 0.570247
O O14 0.277577 0.802149 0.680835
O O15 0.000000 0.907972 0.750000
#
# Coordination Sequence:
#
# PCOD9291322 Si02
#       7
#     8   8   8   8   8   8   8
#     4  11  23  39  67  94 126 165 213 260 321 372
#     4  10  24  42  61  98 125 162 215 261 302 390
#     4  11  23  40  63  91 128 170 199 260 317 367
#     4  10  23  44  67  89 132 171 205 271 322 357
#     4  11  22  41  64  88 130 166 210 252 317 376
#     4  10  22  42  66  95 125 168 220 258 310 392
#     4  11  23  41  61  96 127 164 215 256 310 394
#
# _framework density 22.930889000000001
#
# number of rings (size 3 to 8) (size 9 to 14) (size 15 to 20)
#    0.000    1.429    2.857    1.714    2.000    2.857 
#    5.143    7.857    0.000    0.000    0.000    0.000 
#    0.000    0.000    0.000    0.000    0.000    0.000 
#
# Total GULP energy -156586.526947 kJ/mol
# GULP energy per Si atom -5592.375962 kJ/mol
# Density = 2.287870 g / cm^3
# Si number density = 22.930889 Si / 1000 Ang^3
#
#
#
# Elastic Constant Matrix: (Units=GPa)
#
#
# Indices 1 2 3 4 5 6 
#
# 1 124.5032 6.0416 -16.3447 0.0000 21.3519 0.0000
# 2 6.0416 42.8697 -6.4979 0.0000 -0.8883 0.0000
# 3 -16.3447 -6.4979 42.6809 0.0000 12.5966 0.0000
# 4 0.0000 0.0000 0.0000 8.5358 0.0000 7.6537
# 5 21.3519 -0.8883 12.5966 0.0000 24.4134 0.0000
# 6 0.0000 0.0000 0.0000 7.6537 0.0000 24.1376
#
#
#
# Elastic Compliance Matrix: (Units=1/GPa)
#
#
# Indices 1 2 3 4 5 6 
#
# 1 0.011763 -0.000633 0.008790 0.000000 -0.014846 0.000000
# 2 -0.000633 0.023941 0.003518 0.000000 -0.000390 0.000000
# 3 0.008790 0.003518 0.034873 0.000000 -0.025553 0.000000
# 4 0.000000 0.000000 0.000000 0.163696 0.000000 -0.051906
# 5 -0.014846 -0.000390 -0.025553 0.000000 0.067116 0.000000
# 6 0.000000 0.000000 0.000000 -0.051906 0.000000 0.057888
#
#
# Mechanical properties :
#
#
# Convention : Reuss Voigt Hill
#
# Bulk Modulus (GPa) = 10.64686 19.60575 15.12631
# Shear Modulus (GPa) = 13.61526 26.54100 20.07813
#
# Velocity S-wave (km/s) = 2.43935 3.40580 2.96225
# Velocity P-wave (km/s) = 3.54781 4.90249 4.27910
#
# Compressibility (1/GPa) = 0.09392439
#
# Stress axis : x y z
#
# Youngs Moduli (GPa) = 85.01573 41.76971 28.67573
#
# Poissons Ratio (x) = 0.02644 -0.25205
# Poissons Ratio (y) = 0.05382 -0.10087
# Poissons Ratio (z) = -0.74725 -0.14693
#
# Static dielectric constant tensor:
#      x y z
#    x 1.862100 0.000000 0.023980 
#    y 0.000000 1.876930 0.000000 
#    z 0.023980 0.000000 1.865560 
# 
# From -- ./inp_files/287965.got.cif
#   From: 2010.05.17/outbox.cif.g08.bks.cpg/sg15_144_cif.got.tgz:287965.got - 2010.06.03 18:47:42.
