data_PCOD9291662
_publ_section_title
;
Structure prediction by ZEFSAII (Michael W. Deem and Ramdas Pophale) SiO2 
 PCOD9291662
Probable space group: C 2/C
;
_chemical_formula_sum "Si O2"
_cell_formula_units_Z 52
_cell_length_a 8.235992
_cell_length_b 24.078028
_cell_length_c 23.256685
_cell_angle_alpha 90.000000
_cell_angle_beta 146.492157
_cell_angle_gamma 90.000000
_cell_volume 2546.032500
_symmetry_space_group_name_H-M "C 2/C"
_symmetry_group_IT_number 15
_symmetry_cell_setting 'monoclinic'
loop_
_space_group_symop_operation_xyz
x,y,z
-x,y,1/2-z
-x,-y,-z
x,-y,1/2+z
1/2+x,1/2+y,z
1/2-x,1/2+y,1/2-z
1/2-x,1/2-y,-z
1/2+x,1/2-y,1/2+z
loop_
_atom_site_type_symbol
_atom_site_label
_atom_site_fract_x
_atom_site_fract_y
_atom_site_fract_z
Si Si1 0.804400 0.609466 0.898171
Si Si2 0.155881 0.559150 0.390458
Si Si3 0.611068 0.840148 0.959268
Si Si4 0.665609 0.728694 0.667766
Si Si5 0.189258 0.965408 0.978204
Si Si6 0.420810 0.491555 0.290527
Si Si7 0.000000 0.793315 0.250000
O O1 0.501954 0.574265 0.819284
O O2 0.751260 0.664990 0.846862
O O3 0.959290 0.626356 0.003306
O O4 0.015682 0.568585 0.925785
O O5 0.081845 0.617537 0.397609
O O6 0.298627 0.522812 0.483802
O O7 0.405307 0.567064 0.416579
O O8 0.894837 0.519243 0.290506
O O9 0.415349 0.786960 0.886403
O O10 0.936225 0.815764 0.072044
O O11 0.606104 0.733515 0.720031
O O12 0.000000 0.714061 0.750000
O O13 0.149482 0.980416 0.900791
O O14 0.500000 0.508955 0.250000
#
# Coordination Sequence:
#
# PCOD9291662 Si02
#       7
#     8   8   8   8   8   8   4
#     4  11  20  40  66  93 124 175 211 258 323 401
#     4  11  23  39  61  94 137 169 206 268 321 383
#     4  10  23  45  66  94 129 167 220 272 331 388
#     4  10  24  47  70  96 126 167 226 288 332 389
#     4  11  23  38  58  99 132 167 215 257 313 396
#     4  12  21  37  60  88 131 169 213 250 305 395
#     4  10  22  42  70 100 122 164 226 266 340 392
#
# _framework density 20.423935
#
# number of rings (size 3 to 8) (size 9 to 14) (size 15 to 20)
#    0.000    1.231    3.846    1.846    2.154    1.846 
#    8.308    2.308    0.000    0.000    0.000    0.000 
#    0.000    0.000    0.000    0.000    0.000    0.000 
#
# Total GULP energy -144895.268138 kJ/mol
# GULP energy per Si atom -5572.894928 kJ/mol
# Density = 2.037745 g / cm^3
# Si number density = 20.423935 Si / 1000 Ang^3
#
#
#
# Elastic Constant Matrix: (Units=GPa)
#
#
# Indices 1 2 3 4 5 6 
#
# 1 78.5790 14.4637 25.3949 0.0005 -6.9243 0.0004
# 2 14.4637 65.3813 7.0962 0.0000 0.3688 0.0000
# 3 25.3949 7.0962 72.1765 -0.0019 -1.7794 -0.0012
# 4 0.0005 0.0000 -0.0019 25.9736 -0.0001 -11.2438
# 5 -6.9243 0.3688 -1.7794 -0.0001 38.2844 0.0000
# 6 0.0004 0.0000 -0.0012 -11.2438 0.0000 20.5569
#
#
#
# Elastic Compliance Matrix: (Units=1/GPa)
#
#
# Indices 1 2 3 4 5 6 
#
# 1 0.015070 -0.002809 -0.004964 -0.000001 0.002522 -0.000001
# 2 -0.002809 0.015985 -0.000600 0.000000 -0.000690 0.000000
# 3 -0.004964 -0.000600 0.015656 0.000002 -0.000164 0.000002
# 4 -0.000001 0.000000 0.000002 0.050445 0.000000 0.027591
# 5 0.002522 -0.000690 -0.000164 0.000000 0.026575 0.000000
# 6 -0.000001 0.000000 0.000002 0.027591 0.000000 0.063737
#
#
# Mechanical properties :
#
#
# Convention : Reuss Voigt Hill
#
# Bulk Modulus (GPa) = 33.37237 34.44957 33.91097
# Shear Modulus (GPa) = 23.34235 28.24178 25.79206
#
# Velocity S-wave (km/s) = 3.38434 3.72261 3.55749
# Velocity P-wave (km/s) = 5.62556 5.94819 5.78912
#
# Compressibility (1/GPa) = 0.02996491
#
# Stress axis : x y z
#
# Youngs Moduli (GPa) = 66.35912 62.55713 63.87177
#
# Poissons Ratio (x) = 0.17573 0.31704
# Poissons Ratio (y) = 0.18641 0.03834
# Poissons Ratio (z) = 0.32939 0.03755
#
# Static dielectric constant tensor:
#      x y z
#    x 1.767190 0.000000 0.002430 
#    y 0.000000 1.717610 0.000000 
#    z 0.002430 0.000000 1.798470 
# 
# From -- ./inp_files/290241.got.cif
#   From: 2010.05.17/outbox.cif.g08.bks.cpg/sg15_146_cif.got.tgz:290241.got - 2010.06.03 18:47:42.
