data_PCOD9291393
_publ_section_title
;
Structure prediction by ZEFSAII (Michael W. Deem and Ramdas Pophale) SiO2 
 PCOD9291393
Probable space group: C 2/C
;
_chemical_formula_sum "Si O2"
_cell_formula_units_Z 64
_cell_length_a 9.449593
_cell_length_b 20.364511
_cell_length_c 20.789435
_cell_angle_alpha 90.000000
_cell_angle_beta 122.330406
_cell_angle_gamma 90.000000
_cell_volume 3380.455713
_symmetry_space_group_name_H-M "C 2/C"
_symmetry_group_IT_number 15
_symmetry_cell_setting 'monoclinic'
loop_
_space_group_symop_operation_xyz
x,y,z
-x,y,1/2-z
-x,-y,-z
x,-y,1/2+z
1/2+x,1/2+y,z
1/2-x,1/2+y,1/2-z
1/2-x,1/2-y,-z
1/2+x,1/2-y,1/2+z
loop_
_atom_site_type_symbol
_atom_site_label
_atom_site_fract_x
_atom_site_fract_y
_atom_site_fract_z
Si Si1 0.584660 0.168127 0.605124
Si Si2 0.075273 0.431728 0.339963
Si Si3 0.409919 0.958168 0.890070
Si Si4 0.771249 0.565269 0.948599
Si Si5 0.653227 0.278523 0.238575
Si Si6 0.140390 0.252578 0.536842
Si Si7 0.799282 0.167011 0.189690
Si Si8 0.581349 0.377610 0.103522
O O1 0.453099 0.127850 0.616318
O O2 0.709797 0.115201 0.605939
O O3 0.681569 0.210799 0.679630
O O4 0.518702 0.207592 0.527937
O O5 0.273930 0.430219 0.377187
O O6 0.000000 0.420805 0.250000
O O7 0.984628 0.492616 0.353780
O O8 0.282454 0.904823 0.831629
O O9 0.308913 0.995959 0.922675
O O10 0.574436 0.927265 0.964187
O O11 0.593706 0.583736 0.935719
O O12 0.500000 0.275457 0.250000
O O13 0.690850 0.210704 0.212393
O O14 0.624176 0.338132 0.180596
O O15 0.250000 0.250000 0.500000
O O16 0.251773 0.295336 0.612506
O O17 0.087739 0.182889 0.554259
O O18 0.000000 0.167263 0.250000
#
# Coordination Sequence:
#
# PCOD9291393 Si02
#       8
#     8   8   8   8   8   8   8   8
#     4  11  20  39  65  91 129 170 208 257 326 372
#     4  11  23  39  65  92 128 170 218 266 306 376
#     4  10  24  45  63  88 131 173 211 266 321 372
#     4  10  22  42  67  90 124 171 221 264 309 379
#     4  11  23  39  64  99 130 163 206 268 324 384
#     4  11  22  37  65  96 130 161 206 264 325 376
#     4  11  25  43  65  93 131 170 209 257 330 398
#     4  11  23  38  65 103 125 163 221 264 316 381
#
# _framework density 18.932359999999999
#
# number of rings (size 3 to 8) (size 9 to 14) (size 15 to 20)
#    0.000    1.250    5.000    0.750    1.750    3.500 
#    0.000    1.250    0.000    0.000    0.000    0.000 
#    0.000    0.000    0.000    0.000    0.000    0.000 
#
# Total GULP energy -178319.329781 kJ/mol
# GULP energy per Si atom -5572.479056 kJ/mol
# Density = 1.888927 g / cm^3
# Si number density = 18.932360 Si / 1000 Ang^3
#
#
#
# Elastic Constant Matrix: (Units=GPa)
#
#
# Indices 1 2 3 4 5 6 
#
# 1 140.6994 46.2859 32.8435 0.0000 5.3191 0.0000
# 2 46.2859 73.4375 33.8473 0.0000 8.1851 0.0000
# 3 32.8435 33.8473 87.5240 0.0000 -0.9212 0.0000
# 4 0.0000 0.0000 0.0000 23.2989 0.0000 8.3768
# 5 5.3191 8.1851 -0.9212 0.0000 32.6050 0.0000
# 6 0.0000 0.0000 0.0000 8.3768 0.0000 19.0333
#
#
#
# Elastic Compliance Matrix: (Units=1/GPa)
#
#
# Indices 1 2 3 4 5 6 
#
# 1 0.009119 -0.005038 -0.001477 0.000000 -0.000265 0.000000
# 2 -0.005038 0.019992 -0.005887 0.000000 -0.004363 0.000000
# 3 -0.001477 -0.005887 0.014278 0.000000 0.002122 0.000000
# 4 0.000000 0.000000 0.000000 0.050989 0.000000 -0.022441
# 5 -0.000265 -0.004363 0.002122 0.000000 0.031869 0.000000
# 6 0.000000 0.000000 0.000000 -0.022441 0.000000 0.062416
#
#
# Mechanical properties :
#
#
# Convention : Reuss Voigt Hill
#
# Bulk Modulus (GPa) = 53.80005 58.62382 56.21194
# Shear Modulus (GPa) = 22.76244 27.56638 25.16441
#
# Velocity S-wave (km/s) = 3.47119 3.81996 3.64974
# Velocity P-wave (km/s) = 6.67414 7.10550 6.89320
#
# Compressibility (1/GPa) = 0.01858734
#
# Stress axis : x y z
#
# Youngs Moduli (GPa) = 109.65787 50.02109 70.03572
#
# Poissons Ratio (x) = 0.25198 0.10342
# Poissons Ratio (y) = 0.55241 0.41228
# Poissons Ratio (z) = 0.16193 0.29446
#
# Static dielectric constant tensor:
#      x y z
#    x 1.691970 0.000000 -0.022890 
#    y 0.000000 1.618110 0.000000 
#    z -0.022890 0.000000 1.609540 
# 
# From -- ./inp_files/233845.got.cif
#   From: 2010.05.17/outbox.cif.g08.bks.cpg/sg15_117_cif.got.tgz:233845.got - 2010.06.03 18:47:42.
