data_PCOD9291162
_publ_section_title
;
Structure prediction by ZEFSAII (Michael W. Deem and Ramdas Pophale) SiO2 
 PCOD9291162
Probable space group: C 2/C
;
_chemical_formula_sum "Si O2"
_cell_formula_units_Z 64
_cell_length_a 30.501290
_cell_length_b 8.157358
_cell_length_c 14.671773
_cell_angle_alpha 90.000000
_cell_angle_beta 125.922409
_cell_angle_gamma 90.000000
_cell_volume 2956.205813
_symmetry_space_group_name_H-M "C 2/C"
_symmetry_group_IT_number 15
_symmetry_cell_setting 'monoclinic'
loop_
_space_group_symop_operation_xyz
x,y,z
-x,y,1/2-z
-x,-y,-z
x,-y,1/2+z
1/2+x,1/2+y,z
1/2-x,1/2+y,1/2-z
1/2-x,1/2-y,-z
1/2+x,1/2-y,1/2+z
loop_
_atom_site_type_symbol
_atom_site_label
_atom_site_fract_x
_atom_site_fract_y
_atom_site_fract_z
Si Si1 0.906729 0.870416 0.517732
Si Si2 0.232932 0.282356 0.809199
Si Si3 0.978133 0.875587 0.898543
Si Si4 0.159486 0.438381 0.560130
Si Si5 0.684169 0.455768 0.694348
Si Si6 0.379458 0.842983 0.324119
Si Si7 0.939679 0.868006 0.202500
Si Si8 0.152518 0.605434 0.363847
O O1 0.873229 0.719710 0.516542
O O2 0.966198 0.800316 0.570697
O O3 0.870443 0.939456 0.390376
O O4 0.916063 0.031303 0.588919
O O5 0.202195 0.357323 0.682438
O O6 0.290301 0.373770 0.866081
O O7 0.201756 0.325125 0.863275
O O8 0.225670 0.088531 0.785586
O O9 0.936861 0.744946 0.887049
O O10 0.949636 0.989385 0.788818
O O11 0.000000 0.000000 0.000000
O O12 0.126173 0.554865 0.589078
O O13 0.172662 0.541055 0.486061
O O14 0.666655 0.298717 0.731503
O O15 0.370462 0.960475 0.227702
O O16 0.896183 0.734930 0.181192
O O17 0.000000 0.802557 0.250000
#
# Coordination Sequence:
#
# PCOD9291162 Si02
#       8
#     8   8   8   8   8   8   8   8
#     4  10  22  42  65  88 129 167 211 256 315 374
#     4  10  23  41  66  91 124 164 211 258 317 377
#     4  11  22  38  64  90 123 171 212 248 317 376
#     4  10  23  40  62  96 129 164 208 266 309 366
#     4  11  21  44  67  91 125 164 204 265 317 369
#     4  11  23  39  64  93 128 164 211 262 308 375
#     4  10  23  40  62  91 126 168 211 257 309 378
#     4  11  23  41  63  95 129 165 212 256 315 371
#
# _framework density 21.649372
#
# number of rings (size 3 to 8) (size 9 to 14) (size 15 to 20)
#    0.000    1.500    1.250    3.750    5.250    1.500 
#    0.000   12.500    0.000    0.000    0.000    0.000 
#    0.000    0.000    0.000    0.000    0.000    0.000 
#
# Total GULP energy -178642.113815 kJ/mol
# GULP energy per Si atom -5582.566057 kJ/mol
# Density = 2.160010 g / cm^3
# Si number density = 21.649372 Si / 1000 Ang^3
#
#
#
# Elastic Constant Matrix: (Units=GPa)
#
#
# Indices 1 2 3 4 5 6 
#
# 1 113.0376 55.7688 24.3625 0.0000 -1.0317 0.0000
# 2 55.7688 102.0700 13.8137 0.0000 4.4273 0.0000
# 3 24.3625 13.8137 73.5900 0.0000 -7.5615 0.0000
# 4 0.0000 0.0000 0.0000 20.3219 0.0000 5.6355
# 5 -1.0317 4.4273 -7.5615 0.0000 29.3495 0.0000
# 6 0.0000 0.0000 0.0000 5.6355 0.0000 7.2936
#
#
#
# Elastic Compliance Matrix: (Units=1/GPa)
#
#
# Indices 1 2 3 4 5 6 
#
# 1 0.012732 -0.006593 -0.002906 0.000000 0.000693 0.000000
# 2 -0.006593 0.013589 -0.000619 0.000000 -0.002441 0.000000
# 3 -0.002906 -0.000619 0.015065 0.000000 0.003872 0.000000
# 4 0.000000 0.000000 0.000000 0.062627 0.000000 -0.048389
# 5 0.000693 -0.002441 0.003872 0.000000 0.035462 0.000000
# 6 0.000000 0.000000 0.000000 -0.048389 0.000000 0.174494
#
#
# Mechanical properties :
#
#
# Convention : Reuss Voigt Hill
#
# Bulk Modulus (GPa) = 47.28229 52.95418 50.11823
# Shear Modulus (GPa) = 14.65176 24.37651 19.51414
#
# Velocity S-wave (km/s) = 2.60431 3.35919 3.00554
# Velocity P-wave (km/s) = 5.56154 6.28956 5.93672
#
# Compressibility (1/GPa) = 0.02114957
#
# Stress axis : x y z
#
# Youngs Moduli (GPa) = 78.54075 73.58718 66.37900
#
# Poissons Ratio (x) = 0.48519 0.19291
# Poissons Ratio (y) = 0.51785 0.04108
# Poissons Ratio (z) = 0.22826 0.04554
#
# Static dielectric constant tensor:
#      x y z
#    x 1.886980 0.000000 0.031180 
#    y 0.000000 1.763800 0.000000 
#    z 0.031180 0.000000 1.551760 
# 
# From -- ./inp_files/180823.got.cif
#   From: 2010.05.17/outbox.cif.g08.bks.cpg/sg15_91_cif.got.tgz:180823.got - 2010.06.03 18:47:42.
