data_PCOD9291229
_publ_section_title
;
Structure prediction by ZEFSAII (Michael W. Deem and Ramdas Pophale) SiO2 
 PCOD9291229
Probable space group: C 2/C
;
_chemical_formula_sum "Si O2"
_cell_formula_units_Z 52
_cell_length_a 16.049795
_cell_length_b 9.958422
_cell_length_c 28.759599
_cell_angle_alpha 90.000000
_cell_angle_beta 147.816650
_cell_angle_gamma 90.000000
_cell_volume 2448.323230
_symmetry_space_group_name_H-M "C 2/C"
_symmetry_group_IT_number 15
_symmetry_cell_setting 'monoclinic'
loop_
_space_group_symop_operation_xyz
x,y,z
-x,y,1/2-z
-x,-y,-z
x,-y,1/2+z
1/2+x,1/2+y,z
1/2-x,1/2+y,1/2-z
1/2-x,1/2-y,-z
1/2+x,1/2-y,1/2+z
loop_
_atom_site_type_symbol
_atom_site_label
_atom_site_fract_x
_atom_site_fract_y
_atom_site_fract_z
Si Si1 0.009475 0.911251 0.062179
Si Si2 0.202210 0.715568 0.096222
Si Si3 0.500000 0.872341 0.750000
Si Si4 0.832436 0.317103 0.824015
Si Si5 0.300497 0.680169 0.340066
Si Si6 0.325282 0.951357 0.093394
Si Si7 0.461052 0.927297 0.056341
O O1 0.050122 0.803671 0.041044
O O2 0.073536 0.823689 0.135718
O O3 0.117869 0.040862 0.106295
O O4 0.833793 0.960798 0.983257
O O5 0.279498 0.694757 0.183395
O O6 0.295012 0.815055 0.107042
O O7 0.150201 0.588927 0.041138
O O8 0.347513 0.794424 0.696310
O O9 0.550697 0.963814 0.817985
O O10 0.754949 0.347112 0.738941
O O11 0.949850 0.432863 0.896182
O O12 0.416513 0.805652 0.391162
O O13 0.372555 0.914894 0.063520
#
# Coordination Sequence:
#
# PCOD9291229 Si02
#       7
#     8   8   4   8   8   8   8
#     4  10  23  43  71  95 139 176 233 264 338 402
#     4  10  22  42  65  99 130 179 214 276 327 400
#     4  12  24  42  72  96 130 176 246 266 336 398
#     4  10  24  41  66  97 136 179 209 283 337 386
#     4  12  23  45  68 100 131 180 227 285 326 408
#     4  12  23  42  71 107 126 187 225 279 325 417
#     4  12  24  41  69  99 140 166 229 273 344 388
#
# _framework density 21.239025999999999
#
# number of rings (size 3 to 8) (size 9 to 14) (size 15 to 20)
#    0.923    0.000    4.615    3.231    2.154    0.615 
#    0.000    0.000    3.385    0.000    0.000    0.000 
#    0.000    0.000    0.000    0.000    0.000    0.000 
#
# Total GULP energy -145054.228269 kJ/mol
# GULP energy per Si atom -5579.008780 kJ/mol
# Density = 2.119069 g / cm^3
# Si number density = 21.239026 Si / 1000 Ang^3
#
#
#
# Elastic Constant Matrix: (Units=GPa)
#
#
# Indices 1 2 3 4 5 6 
#
# 1 128.6867 15.7618 24.0130 0.0000 -3.8019 0.0000
# 2 15.7618 58.8084 -6.2926 0.0000 7.9834 0.0000
# 3 24.0130 -6.2926 44.5863 -0.0001 -11.3269 0.0000
# 4 0.0000 0.0000 -0.0001 19.0250 0.0000 -4.1377
# 5 -3.8019 7.9834 -11.3269 0.0000 35.8617 0.0000
# 6 0.0000 0.0000 0.0000 -4.1377 0.0000 21.8224
#
#
#
# Elastic Compliance Matrix: (Units=1/GPa)
#
#
# Indices 1 2 3 4 5 6 
#
# 1 0.009139 -0.003016 -0.005361 0.000000 -0.000053 0.000000
# 2 -0.003016 0.018637 0.003391 0.000000 -0.003397 0.000000
# 3 -0.005361 0.003391 0.027679 0.000000 0.007419 0.000000
# 4 0.000000 0.000000 0.000000 0.054823 0.000000 0.010395
# 5 -0.000053 -0.003397 0.007419 0.000000 0.030979 0.000000
# 6 0.000000 0.000000 0.000000 0.010395 0.000000 0.047795
#
#
# Mechanical properties :
#
#
# Convention : Reuss Voigt Hill
#
# Bulk Modulus (GPa) = 21.98583 33.22732 27.60657
# Shear Modulus (GPa) = 23.34429 28.58175 25.96302
#
# Velocity S-wave (km/s) = 3.31890 3.67238 3.50011
# Velocity P-wave (km/s) = 5.00608 5.80175 5.41854
#
# Compressibility (1/GPa) = 0.04548383
#
# Stress axis : x y z
#
# Youngs Moduli (GPa) = 109.42079 53.65732 36.12818
#
# Poissons Ratio (x) = 0.16182 0.19369
# Poissons Ratio (y) = 0.33000 -0.12253
# Poissons Ratio (z) = 0.58662 -0.18198
#
# Static dielectric constant tensor:
#      x y z
#    x 1.816000 0.000000 -0.036600 
#    y 0.000000 1.757430 0.000000 
#    z -0.036600 0.000000 1.855850 
# 
# From -- ./inp_files/313219.got.cif
#   From: 2010.05.17/outbox.cif.g08.bks.cpg/sg15_157_cif.got.tgz:313219.got - 2010.06.03 18:47:42.
