data_PCOD9291146
_publ_section_title
;
Structure prediction by ZEFSAII (Michael W. Deem and Ramdas Pophale) SiO2 
 PCOD9291146
Probable space group: C 2/C
;
_chemical_formula_sum "Si O2"
_cell_formula_units_Z 60
_cell_length_a 29.077487
_cell_length_b 18.101067
_cell_length_c 11.670477
_cell_angle_alpha 90.000000
_cell_angle_beta 151.835791
_cell_angle_gamma 90.000000
_cell_volume 2899.290872
_symmetry_space_group_name_H-M "C 2/C"
_symmetry_group_IT_number 15
_symmetry_cell_setting 'monoclinic'
loop_
_space_group_symop_operation_xyz
x,y,z
-x,y,1/2-z
-x,-y,-z
x,-y,1/2+z
1/2+x,1/2+y,z
1/2-x,1/2+y,1/2-z
1/2-x,1/2-y,-z
1/2+x,1/2-y,1/2+z
loop_
_atom_site_type_symbol
_atom_site_label
_atom_site_fract_x
_atom_site_fract_y
_atom_site_fract_z
Si Si1 0.200804 0.284752 0.079472
Si Si2 0.187199 0.065399 0.263212
Si Si3 0.505699 0.753530 0.502191
Si Si4 0.811609 0.319550 0.181269
Si Si5 0.698872 0.874055 0.690156
Si Si6 0.994396 0.911833 0.451274
Si Si7 0.287007 0.402623 0.099148
Si Si8 0.000000 0.325306 0.250000
O O1 0.184923 0.317074 0.172499
O O2 0.260671 0.209185 0.223308
O O3 0.265442 0.338695 0.142097
O O4 0.099552 0.266127 0.790914
O O5 0.253398 0.110238 0.501034
O O6 0.230930 0.081615 0.237020
O O7 0.196916 0.979136 0.304329
O O8 0.073254 0.087536 0.021722
O O9 0.418595 0.802982 0.364297
O O10 0.471634 0.667208 0.417605
O O11 0.529982 0.778020 0.426415
O O12 0.750000 0.250000 0.000000
O O13 0.590064 0.873464 0.406543
O O14 0.697577 0.903664 0.815743
O O15 0.879858 0.895616 0.217808
O O16 0.000000 0.000000 0.500000
#
# Coordination Sequence:
#
# PCOD9291146 Si02
#       8
#     8   8   8   8   8   8   8   4
#     4  12  24  43  70  98 135 181 230 279 335 408
#     4  11  25  44  67  99 141 178 220 281 347 404
#     4  12  22  43  70 101 133 174 234 276 335 407
#     4  12  23  42  67 100 133 180 227 274 334 405
#     4  12  23  45  69  98 136 181 228 282 337 405
#     4  10  22  42  64  99 136 172 220 274 343 409
#     4  11  25  44  68 101 137 179 224 281 347 403
#     4  12  24  40  70 102 128 172 238 286 330 390
#
# _framework density 20.694716
#
# number of rings (size 3 to 8) (size 9 to 14) (size 15 to 20)
#    0.000    0.533    6.667    1.600    1.867    0.533 
#    0.000    4.000    0.000    0.000    0.000    0.000 
#    0.000    0.000    0.000    0.000    0.000    0.000 
#
# Total GULP energy -167096.778232 kJ/mol
# GULP energy per Si atom -5569.892608 kJ/mol
# Density = 2.064761 g / cm^3
# Si number density = 20.694716 Si / 1000 Ang^3
#
#
#
# Elastic Constant Matrix: (Units=GPa)
#
#
# Indices 1 2 3 4 5 6 
#
# 1 104.8478 14.6434 32.3588 0.0000 -5.3127 0.0000
# 2 14.6434 60.5605 4.1958 0.0000 9.4734 0.0000
# 3 32.3588 4.1958 67.7050 0.0000 11.6095 0.0000
# 4 0.0000 0.0000 0.0000 8.7322 0.0000 2.1291
# 5 -5.3127 9.4734 11.6095 0.0000 43.1883 0.0000
# 6 0.0000 0.0000 0.0000 2.1291 0.0000 32.5524
#
#
#
# Elastic Compliance Matrix: (Units=1/GPa)
#
#
# Indices 1 2 3 4 5 6 
#
# 1 0.012092 -0.003093 -0.006247 0.000000 0.003845 0.000000
# 2 -0.003093 0.017902 0.001161 0.000000 -0.004619 0.000000
# 3 -0.006247 0.001161 0.018722 0.000000 -0.006056 0.000000
# 4 0.000000 0.000000 0.000000 0.116375 0.000000 -0.007612
# 5 0.003845 -0.004619 -0.006056 0.000000 0.026269 0.000000
# 6 0.000000 0.000000 0.000000 -0.007612 0.000000 0.031218
#
#
# Mechanical properties :
#
#
# Convention : Reuss Voigt Hill
#
# Bulk Modulus (GPa) = 30.90334 37.27881 34.09108
# Shear Modulus (GPa) = 20.02222 29.02226 24.52224
#
# Velocity S-wave (km/s) = 3.11385 3.74893 3.44605
# Velocity P-wave (km/s) = 5.28142 6.06564 5.68707
#
# Compressibility (1/GPa) = 0.03235896
#
# Stress axis : x y z
#
# Youngs Moduli (GPa) = 82.69641 55.85853 53.41262
#
# Poissons Ratio (x) = 0.17275 0.33367
# Poissons Ratio (y) = 0.25575 -0.06200
# Poissons Ratio (z) = 0.51661 -0.06484
#
# Static dielectric constant tensor:
#      x y z
#    x 1.738480 0.000000 0.011580 
#    y 0.000000 1.740630 0.000000 
#    z 0.011580 0.000000 1.794390 
# 
# From -- ./inp_files/124025.got.cif
#   From: 2010.05.17/outbox.cif.g08.bks.cpg/sg15_63_cif.got.tgz:124025.got - 2010.06.03 18:47:42.
