data_PCOD9291802
_publ_section_title
;
Structure prediction by ZEFSAII (Michael W. Deem and Ramdas Pophale) SiO2 
 PCOD9291802
Probable space group: C 2/C
;
_chemical_formula_sum "Si O2"
_cell_formula_units_Z 36
_cell_length_a 21.380545
_cell_length_b 11.471081
_cell_length_c 14.125111
_cell_angle_alpha 90.000000
_cell_angle_beta 23.898002
_cell_angle_gamma 90.000000
_cell_volume 1403.419914
_symmetry_space_group_name_H-M "C 2/C"
_symmetry_group_IT_number 15
_symmetry_cell_setting 'monoclinic'
loop_
_space_group_symop_operation_xyz
x,y,z
-x,y,1/2-z
-x,-y,-z
x,-y,1/2+z
1/2+x,1/2+y,z
1/2-x,1/2+y,1/2-z
1/2-x,1/2-y,-z
1/2+x,1/2-y,1/2+z
loop_
_atom_site_type_symbol
_atom_site_label
_atom_site_fract_x
_atom_site_fract_y
_atom_site_fract_z
Si Si1 0.631331 0.007866 0.685591
Si Si2 0.636677 0.429541 0.994653
Si Si3 0.000000 0.700872 0.250000
Si Si4 0.631011 0.380040 0.794837
Si Si5 0.425627 0.234272 0.950894
O O1 0.763152 0.052241 0.428460
O O2 0.499789 0.106156 0.866359
O O3 0.709292 0.987033 0.678988
O O4 0.567384 0.885447 0.735485
O O5 0.500000 0.475592 0.250000
O O6 0.627832 0.291204 0.033022
O O7 0.599950 0.446903 0.935714
O O8 0.486059 0.316083 0.949618
O O9 0.747642 0.279792 0.672957
O O10 0.500000 0.274710 0.750000
#
# Coordination Sequence:
#
# PCOD9291802 Si02
#       5
#     8   8   4   8   8
#     4  11  21  44  70  95 139 178 227 272 342 407
#     4  10  27  41  64 101 137 179 221 285 330 403
#     4  10  22  44  62  94 142 174 216 280 330 396
#     4  11  24  43  72 102 136 181 224 281 349 396
#     4  10  22  42  72 104 134 175 229 286 333 405
#
# _framework density 25.651623000000001
#
# number of rings (size 3 to 8) (size 9 to 14) (size 15 to 20)
#    0.667    0.889    3.333    3.333    3.111    6.222 
#    0.000    0.000    0.000    0.000    0.000    0.000 
#    0.000    0.000    0.000    0.000    0.000    0.000 
#
# Total GULP energy -100771.974079 kJ/mol
# GULP energy per Si atom -5598.443004 kJ/mol
# Density = 2.559324 g / cm^3
# Si number density = 25.651623 Si / 1000 Ang^3
#
#
#
# Elastic Constant Matrix: (Units=GPa)
#
#
# Indices 1 2 3 4 5 6 
#
# 1 195.1699 51.3860 14.9107 0.0000 2.3659 0.0000
# 2 51.3860 172.9370 1.8739 0.0000 -14.2208 0.0000
# 3 14.9107 1.8739 30.4331 0.0000 11.3463 0.0000
# 4 0.0000 0.0000 0.0000 13.4076 0.0000 -12.6907
# 5 2.3659 -14.2208 11.3463 0.0000 46.2489 0.0000
# 6 0.0000 0.0000 0.0000 -12.6907 0.0000 33.4743
#
#
#
# Elastic Compliance Matrix: (Units=1/GPa)
#
#
# Indices 1 2 3 4 5 6 
#
# 1 0.005777 -0.001701 -0.002664 0.000000 -0.000165 0.000000
# 2 -0.001701 0.006470 -0.000373 0.000000 0.002168 0.000000
# 3 -0.002664 -0.000373 0.037620 0.000000 -0.009208 0.000000
# 4 0.000000 0.000000 0.000000 0.116329 0.000000 0.044103
# 5 -0.000165 0.002168 -0.009208 0.000000 0.024556 0.000000
# 6 0.000000 0.000000 0.000000 0.044103 0.000000 0.046594
#
#
# Mechanical properties :
#
#
# Convention : Reuss Voigt Hill
#
# Bulk Modulus (GPa) = 24.75842 59.43124 42.09483
# Shear Modulus (GPa) = 19.20951 40.65078 29.93014
#
# Velocity S-wave (km/s) = 2.73950 3.98518 3.41954
# Velocity P-wave (km/s) = 4.43613 6.66292 5.66011
#
# Compressibility (1/GPa) = 0.04039030
#
# Stress axis : x y z
#
# Youngs Moduli (GPa) = 173.09337 154.55209 26.58140
#
# Poissons Ratio (x) = 0.26294 0.07082
# Poissons Ratio (y) = 0.29449 0.00992
# Poissons Ratio (z) = 0.46117 0.05767
#
# Static dielectric constant tensor:
#      x y z
#    x 1.987540 0.000000 0.013930 
#    y 0.000000 2.017700 0.000000 
#    z 0.013930 0.000000 2.102500 
# 
# From -- ./inp_files/167479.got.cif
#   From: 2010.05.17/outbox.cif.g08.bks.cpg/sg15_84_cif.got.tgz:167479.got - 2010.06.03 18:47:42.
