data_PCOD9291090
_publ_section_title
;
Structure prediction by ZEFSAII (Michael W. Deem and Ramdas Pophale) SiO2 
 PCOD9291090
Probable space group: C 2/C
;
_chemical_formula_sum "Si O2"
_cell_formula_units_Z 44
_cell_length_a 16.088595
_cell_length_b 23.168160
_cell_length_c 4.933831
_cell_angle_alpha 90.000000
_cell_angle_beta 86.514094
_cell_angle_gamma 90.000000
_cell_volume 1835.649034
_symmetry_space_group_name_H-M "C 2/C"
_symmetry_group_IT_number 15
_symmetry_cell_setting 'monoclinic'
loop_
_space_group_symop_operation_xyz
x,y,z
-x,y,1/2-z
-x,-y,-z
x,-y,1/2+z
1/2+x,1/2+y,z
1/2-x,1/2+y,1/2-z
1/2-x,1/2-y,-z
1/2+x,1/2-y,1/2+z
loop_
_atom_site_type_symbol
_atom_site_label
_atom_site_fract_x
_atom_site_fract_y
_atom_site_fract_z
Si Si1 0.282287 0.462101 0.508574
Si Si2 0.153919 0.288915 0.725350
Si Si3 0.500000 0.869847 0.750000
Si Si4 0.603722 0.958173 0.409261
Si Si5 0.158450 0.788810 0.719157
Si Si6 0.945584 0.108207 0.023347
O O1 0.281039 0.519348 0.321891
O O2 0.195946 0.432148 0.440819
O O3 0.366366 0.428279 0.442169
O O4 0.078291 0.330457 0.815738
O O5 0.149990 0.266843 0.417390
O O6 0.247098 0.311868 0.763097
O O7 0.147051 0.232243 0.916078
O O8 0.537846 0.910944 0.512178
O O9 0.597518 0.987941 0.120080
O O10 0.092556 0.835525 0.825907
O O11 0.000000 0.078049 0.250000
O O12 0.000000 0.121266 0.750000
#
# Coordination Sequence:
#
# PCOD9291090 Si02
#       6
#     8   8   4   8   8   8
#     4  10  22  42  64  91 127 168 210 258 319 379
#     4  10  24  40  68  87 126 163 214 269 306 379
#     4  12  24  40  68 104 122 166 214 268 308 382
#     4  10  23  42  65  93 134 168 201 257 319 386
#     4  10  23  46  58  90 125 171 209 256 330 375
#     4  12  25  38  64  92 124 170 209 271 314 382
#
# _framework density 23.969722999999998
#
# number of rings (size 3 to 8) (size 9 to 14) (size 15 to 20)
#    0.000    1.455    0.000    3.818    3.818    5.091 
#    0.000   10.909    0.000    0.000    0.000    0.000 
#    0.000    0.000    0.000    0.000    0.000    0.000 
#
# Total GULP energy -123224.322996 kJ/mol
# GULP energy per Si atom -5601.105591 kJ/mol
# Density = 2.391517 g / cm^3
# Si number density = 23.969723 Si / 1000 Ang^3
#
#
#
# Elastic Constant Matrix: (Units=GPa)
#
#
# Indices 1 2 3 4 5 6 
#
# 1 191.3226 57.3141 33.7798 0.0000 -25.1397 0.0000
# 2 57.3141 35.2176 -2.9439 0.0000 -6.0482 0.0000
# 3 33.7798 -2.9439 91.6186 0.0000 -9.0772 0.0000
# 4 0.0000 0.0000 0.0000 24.8995 0.0000 -4.6034
# 5 -25.1397 -6.0482 -9.0772 0.0000 42.3449 0.0000
# 6 0.0000 0.0000 0.0000 -4.6034 0.0000 40.6757
#
#
#
# Elastic Compliance Matrix: (Units=1/GPa)
#
#
# Indices 1 2 3 4 5 6 
#
# 1 0.012719 -0.020506 -0.004996 0.000000 0.003551 0.000000
# 2 -0.020506 0.062343 0.009440 0.000000 -0.001246 0.000000
# 3 -0.004996 0.009440 0.013180 0.000000 0.001207 0.000000
# 4 0.000000 0.000000 0.000000 0.041020 0.000000 0.004642
# 5 0.003551 -0.001246 0.001207 0.000000 0.025805 0.000000
# 6 0.000000 0.000000 0.000000 0.004642 0.000000 0.025110
#
#
# Mechanical properties :
#
#
# Convention : Reuss Voigt Hill
#
# Bulk Modulus (GPa) = 17.82010 54.93987 36.37998
# Shear Modulus (GPa) = 21.64447 36.91795 29.28121
#
# Velocity S-wave (km/s) = 3.00824 3.92878 3.49892
# Velocity P-wave (km/s) = 4.41776 6.59930 5.61548
#
# Compressibility (1/GPa) = 0.05611642
#
# Stress axis : x y z
#
# Youngs Moduli (GPa) = 78.62502 16.04037 75.87270
#
# Poissons Ratio (x) = 0.32893 0.37910
# Poissons Ratio (y) = 1.61232 -0.71627
# Poissons Ratio (z) = 0.39285 -0.15143
#
# Static dielectric constant tensor:
#      x y z
#    x 1.971920 0.000000 0.019700 
#    y 0.000000 1.895270 0.000000 
#    z 0.019700 0.000000 1.850090 
# 
# From -- ./inp_files/7554.got.cif
#   From: 2010.05.17/outbox.cif.g08.bks.cpg/sg15_4_cif.got.tgz:7554.got - 2010.06.03 18:47:42.
