data_PCOD9291075
_publ_section_title
;
Structure prediction by ZEFSAII (Michael W. Deem and Ramdas Pophale) SiO2 
 PCOD9291075
Probable space group: C 2/C
;
_chemical_formula_sum "Si O2"
_cell_formula_units_Z 60
_cell_length_a 7.552139
_cell_length_b 12.676131
_cell_length_c 28.287834
_cell_angle_alpha 90.000000
_cell_angle_beta 98.625842
_cell_angle_gamma 90.000000
_cell_volume 2677.417011
_symmetry_space_group_name_H-M "C 2/C"
_symmetry_group_IT_number 15
_symmetry_cell_setting 'monoclinic'
loop_
_space_group_symop_operation_xyz
x,y,z
-x,y,1/2-z
-x,-y,-z
x,-y,1/2+z
1/2+x,1/2+y,z
1/2-x,1/2+y,1/2-z
1/2-x,1/2-y,-z
1/2+x,1/2-y,1/2+z
loop_
_atom_site_type_symbol
_atom_site_label
_atom_site_fract_x
_atom_site_fract_y
_atom_site_fract_z
Si Si1 0.651158 0.504076 0.725269
Si Si2 0.837066 0.606630 0.049683
Si Si3 0.678353 0.349540 0.644461
Si Si4 0.142740 0.628637 0.942224
Si Si5 0.992575 0.208969 0.506194
Si Si6 0.008624 0.228923 0.804915
Si Si7 0.000000 0.613114 0.750000
Si Si8 0.164893 0.262141 0.344918
O O1 0.500000 0.445400 0.750000
O O2 0.722076 0.436722 0.685072
O O3 0.545210 0.606193 0.701273
O O4 0.827547 0.545313 0.758874
O O5 0.740626 0.614357 0.096086
O O6 0.919736 0.490407 0.050711
O O7 0.679616 0.634652 0.005863
O O8 0.971573 0.703636 0.046603
O O9 0.468888 0.326408 0.641168
O O10 0.798712 0.249842 0.665069
O O11 0.176676 0.655333 0.888733
O O12 0.016591 0.717796 0.960522
O O13 0.330803 0.642752 0.976979
O O14 0.855199 0.276868 0.832526
O O15 0.000000 0.268088 0.750000
O O16 0.929290 0.683149 0.703947
#
# Coordination Sequence:
#
# PCOD9291075 Si02
#       8
#     8   8   8   8   8   8   4   8
#     4  10  23  40  62  92 126 169 222 263 321 392
#     4  11  22  41  65  96 127 167 213 267 325 389
#     4  12  24  38  65  95 129 171 218 266 326 389
#     4  11  22  43  67  93 132 168 213 271 327 389
#     4  10  23  42  67  95 128 168 215 266 332 388
#     4  10  23  42  60  88 129 171 214 270 320 378
#     4  10  22  42  64  88 130 172 210 272 322 378
#     4  11  22  41  66  94 130 173 216 271 326 384
#
# _framework density 22.409659000000001
#
# number of rings (size 3 to 8) (size 9 to 14) (size 15 to 20)
#    0.000    1.333    1.333    5.600    3.733    0.000 
#    0.000    4.000    0.000    0.000    0.000    0.000 
#    0.000    0.000    0.000    0.000    0.000    0.000 
#
# Total GULP energy -167630.899189 kJ/mol
# GULP energy per Si atom -5587.696640 kJ/mol
# Density = 2.235865 g / cm^3
# Si number density = 22.409659 Si / 1000 Ang^3
#
#
#
# Elastic Constant Matrix: (Units=GPa)
#
#
# Indices 1 2 3 4 5 6 
#
# 1 70.5035 -7.0372 -1.5644 0.0000 -19.0660 0.0000
# 2 -7.0372 48.9994 7.9524 0.0000 5.4981 0.0000
# 3 -1.5644 7.9524 83.8984 0.0000 -26.2128 0.0000
# 4 0.0000 0.0000 0.0000 18.3497 0.0000 -4.7092
# 5 -19.0660 5.4981 -26.2128 0.0000 36.5303 0.0000
# 6 0.0000 0.0000 0.0000 -4.7092 0.0000 19.1365
#
#
#
# Elastic Compliance Matrix: (Units=1/GPa)
#
#
# Indices 1 2 3 4 5 6 
#
# 1 0.017562 0.000527 0.004017 0.000000 0.011969 0.000000
# 2 0.000527 0.021756 -0.003853 0.000000 -0.005764 0.000000
# 3 0.004017 -0.003853 0.017009 0.000000 0.014882 0.000000
# 4 0.000000 0.000000 0.000000 0.058170 0.000000 0.014315
# 5 0.011969 -0.005764 0.014882 0.000000 0.045168 0.000000
# 6 0.000000 0.000000 0.000000 0.014315 0.000000 0.055779
#
#
# Mechanical properties :
#
#
# Convention : Reuss Voigt Hill
#
# Bulk Modulus (GPa) = 17.32817 22.45589 19.89203
# Shear Modulus (GPa) = 21.43176 28.40667 24.91921
#
# Velocity S-wave (km/s) = 3.09587 3.56421 3.33826
# Velocity P-wave (km/s) = 4.53083 5.19428 4.87386
#
# Compressibility (1/GPa) = 0.05770949
#
# Stress axis : x y z
#
# Youngs Moduli (GPa) = 56.94024 45.96359 58.79293
#
# Poissons Ratio (x) = -0.02423 -0.23618
# Poissons Ratio (y) = -0.03002 0.22655
# Poissons Ratio (z) = -0.22874 0.17711
#
# Static dielectric constant tensor:
#      x y z
#    x 1.848230 0.000000 -0.042490 
#    y 0.000000 1.835500 0.000000 
#    z -0.042490 0.000000 1.840980 
# 
# From -- ./inp_files/307190.got.cif
#   From: 2010.05.17/outbox.cif.g08.bks.cpg/sg15_154_cif.got.tgz:307190.got - 2010.06.03 18:47:42.
