data_PCOD9291531
_publ_section_title
;
Structure prediction by ZEFSAII (Michael W. Deem and Ramdas Pophale) SiO2 
 PCOD9291531
Probable space group: C 2/C
;
_chemical_formula_sum "Si O2"
_cell_formula_units_Z 40
_cell_length_a 23.571519
_cell_length_b 7.834177
_cell_length_c 9.000364
_cell_angle_alpha 90.000000
_cell_angle_beta 102.724872
_cell_angle_gamma 90.000000
_cell_volume 1621.216992
_symmetry_space_group_name_H-M "C 2/C"
_symmetry_group_IT_number 15
_symmetry_cell_setting 'monoclinic'
loop_
_space_group_symop_operation_xyz
x,y,z
-x,y,1/2-z
-x,-y,-z
x,-y,1/2+z
1/2+x,1/2+y,z
1/2-x,1/2+y,1/2-z
1/2-x,1/2-y,-z
1/2+x,1/2-y,1/2+z
loop_
_atom_site_type_symbol
_atom_site_label
_atom_site_fract_x
_atom_site_fract_y
_atom_site_fract_z
Si Si1 0.161932 0.989256 0.677139
Si Si2 0.560760 0.750687 0.250231
Si Si3 0.760796 0.050657 0.030245
Si Si4 0.843677 0.358158 0.688111
Si Si5 0.588284 0.014130 0.522279
O O1 0.179066 0.990788 0.514628
O O2 0.154925 0.182031 0.725618
O O3 0.110814 0.867084 0.706327
O O4 0.224102 0.949302 0.788631
O O5 0.500000 0.657435 0.250000
O O6 0.580119 0.844140 0.415637
O O7 0.545114 0.896879 0.116092
O O8 0.750000 0.250000 0.000000
O O9 0.710048 0.929522 0.939658
O O10 0.858921 0.487851 0.830247
O O11 0.895671 0.354927 0.598130
#
# Coordination Sequence:
#
# PCOD9291531 Si02
#       5
#     8   8   8   8   8
#     4  12  24  40  64  99 133 172 224 272 332 405
#     4  11  24  45  68  95 131 175 226 285 335 387
#     4  12  24  41  65  96 134 176 216 268 335 404
#     4  11  22  40  63  95 132 169 211 275 337 403
#     4  10  22  42  68  95 126 170 225 272 333 409
#
# _framework density 24.672822
#
# number of rings (size 3 to 8) (size 9 to 14) (size 15 to 20)
#    0.000    0.800    0.000    9.600    0.000    0.000 
#    0.000   13.000    0.000    0.000    0.000    0.000 
#    0.000    0.000    0.000    0.000    0.000    0.000 
#
# Total GULP energy -111515.953856 kJ/mol
# GULP energy per Si atom -5575.797693 kJ/mol
# Density = 2.461667 g / cm^3
# Si number density = 24.672822 Si / 1000 Ang^3
#
#
#
# Elastic Constant Matrix: (Units=GPa)
#
#
# Indices 1 2 3 4 5 6 
#
# 1 90.4140 17.0939 23.5450 0.0000 -19.8202 0.0000
# 2 17.0939 78.4297 -1.2554 0.0000 -0.4308 0.0000
# 3 23.5450 -1.2554 125.1209 0.0000 -18.6759 0.0000
# 4 0.0000 0.0000 0.0000 34.5224 0.0000 -8.0824
# 5 -19.8202 -0.4308 -18.6759 0.0000 23.5524 0.0000
# 6 0.0000 0.0000 0.0000 -8.0824 0.0000 34.4026
#
#
#
# Elastic Compliance Matrix: (Units=1/GPa)
#
#
# Indices 1 2 3 4 5 6 
#
# 1 0.014376 -0.003089 -0.001065 0.000000 0.011197 0.000000
# 2 -0.003089 0.013419 0.000413 0.000000 -0.002026 0.000000
# 3 -0.001065 0.000413 0.009147 0.000000 0.006364 0.000000
# 4 0.000000 0.000000 0.000000 0.030653 0.000000 0.007201
# 5 0.011197 -0.002026 0.006364 0.000000 0.056891 0.000000
# 6 0.000000 0.000000 0.000000 0.007201 0.000000 0.030759
#
#
# Mechanical properties :
#
#
# Convention : Reuss Voigt Hill
#
# Bulk Modulus (GPa) = 33.94292 41.41462 37.67877
# Shear Modulus (GPa) = 28.97780 35.46755 32.22268
#
# Velocity S-wave (km/s) = 3.43079 3.79557 3.61778
# Velocity P-wave (km/s) = 5.42963 6.00254 5.72325
#
# Compressibility (1/GPa) = 0.02946123
#
# Stress axis : x y z
#
# Youngs Moduli (GPa) = 69.55974 74.52127 109.32811
#
# Poissons Ratio (x) = 0.23019 0.11643
# Poissons Ratio (y) = 0.21486 -0.04520
# Poissons Ratio (z) = 0.07408 -0.03081
#
# Static dielectric constant tensor:
#      x y z
#    x 2.191970 0.000000 0.173780 
#    y 0.000000 3.213900 0.000000 
#    z 0.173780 0.000000 2.171940 
# 
# From -- ./inp_files/59951.got.cif
#   From: 2010.05.17/outbox.cif.g08.bks.cpg/sg15_30_cif.got.tgz:59951.got - 2010.06.03 18:47:42.
