data_PCOD9291315
_publ_section_title
;
Structure prediction by ZEFSAII (Michael W. Deem and Ramdas Pophale) SiO2 
 PCOD9291315
Probable space group: C 2/C
;
_chemical_formula_sum "Si O2"
_cell_formula_units_Z 44
_cell_length_a 9.697709
_cell_length_b 17.048670
_cell_length_c 19.294702
_cell_angle_alpha 90.000000
_cell_angle_beta 43.355349
_cell_angle_gamma 90.000000
_cell_volume 2190.037763
_symmetry_space_group_name_H-M "C 2/C"
_symmetry_group_IT_number 15
_symmetry_cell_setting 'monoclinic'
loop_
_space_group_symop_operation_xyz
x,y,z
-x,y,1/2-z
-x,-y,-z
x,-y,1/2+z
1/2+x,1/2+y,z
1/2-x,1/2+y,1/2-z
1/2-x,1/2-y,-z
1/2+x,1/2-y,1/2+z
loop_
_atom_site_type_symbol
_atom_site_label
_atom_site_fract_x
_atom_site_fract_y
_atom_site_fract_z
Si Si1 0.418552 0.497955 0.607631
Si Si2 0.500000 0.925320 0.250000
Si Si3 0.827681 0.712583 0.898812
Si Si4 0.405158 0.634817 0.217004
Si Si5 0.045958 0.837841 0.063592
Si Si6 0.468085 0.185635 0.343484
O O1 0.500000 0.500000 0.500000
O O2 0.462243 0.417663 0.630227
O O3 0.504537 0.576972 0.609846
O O4 0.184488 0.517127 0.693835
O O5 0.549814 0.867857 0.165892
O O6 0.629622 0.695093 0.923750
O O7 0.988583 0.780723 0.823669
O O8 0.750000 0.750000 0.000000
O O9 0.500000 0.594740 0.250000
O O10 0.165214 0.646794 0.306157
O O11 0.050891 0.774547 0.122479
O O12 0.253983 0.847323 0.945890
O O13 0.500000 0.181423 0.250000
#
# Coordination Sequence:
#
# PCOD9291315 Si02
#       6
#     8   4   8   8   8   8
#     4  11  24  40  64  98 137 179 222 275 344 411
#     4  10  22  42  66  94 134 174 236 268 324 424
#     4  11  20  41  68  95 127 179 227 279 330 404
#     4  12  23  41  66  96 134 171 220 278 339 393
#     4  10  23  41  63  96 130 165 235 268 315 412
#     4  11  22  41  69  91 127 177 220 275 329 393
#
# _framework density 20.090976999999999
#
# number of rings (size 3 to 8) (size 9 to 14) (size 15 to 20)
#    0.000    1.091    2.727    5.455    3.818    0.727 
#    0.000    2.727    0.000    0.000    0.000    0.000 
#    0.000    0.000    0.000    0.000    0.000    0.000 
#
# Total GULP energy -122565.852882 kJ/mol
# GULP energy per Si atom -5571.175131 kJ/mol
# Density = 2.004525 g / cm^3
# Si number density = 20.090977 Si / 1000 Ang^3
#
#
#
# Elastic Constant Matrix: (Units=GPa)
#
#
# Indices 1 2 3 4 5 6 
#
# 1 95.1663 32.4073 55.0121 -0.0004 -21.0405 0.0004
# 2 32.4073 71.2444 3.0723 -0.0007 -5.5143 0.0004
# 3 55.0121 3.0723 87.1868 -0.0024 -20.3406 0.0021
# 4 -0.0004 -0.0007 -0.0024 32.5860 0.0015 2.6277
# 5 -21.0405 -5.5143 -20.3406 0.0015 37.4001 -0.0014
# 6 0.0004 0.0004 0.0021 2.6277 -0.0014 21.1623
#
#
#
# Elastic Compliance Matrix: (Units=1/GPa)
#
#
# Indices 1 2 3 4 5 6 
#
# 1 0.021629 -0.008986 -0.012370 -0.000001 0.004115 0.000001
# 2 -0.008986 0.017932 0.005126 0.000001 0.000376 -0.000001
# 3 -0.012370 0.005126 0.020212 0.000001 0.004789 -0.000002
# 4 -0.000001 0.000001 0.000001 0.030998 -0.000001 -0.003849
# 5 0.004115 0.000376 0.004789 -0.000001 0.031713 0.000002
# 6 0.000001 -0.000001 -0.000002 -0.003849 0.000002 0.047732
#
#
# Mechanical properties :
#
#
# Convention : Reuss Voigt Hill
#
# Bulk Modulus (GPa) = 36.61558 48.28677 42.45117
# Shear Modulus (GPa) = 23.60936 29.10341 26.35638
#
# Velocity S-wave (km/s) = 3.43172 3.81015 3.62588
# Velocity P-wave (km/s) = 5.82810 6.59110 6.22131
#
# Compressibility (1/GPa) = 0.02731078
#
# Stress axis : x y z
#
# Youngs Moduli (GPa) = 46.23468 55.76627 49.47668
#
# Poissons Ratio (x) = 0.50114 0.61204
# Poissons Ratio (y) = 0.41549 -0.25362
# Poissons Ratio (z) = 0.57194 -0.28586
#
# Static dielectric constant tensor:
#      x y z
#    x 1.711070 0.000000 0.026450 
#    y 0.000000 1.720880 0.000000 
#    z 0.026450 0.000000 1.745400 
# 
# From -- ./inp_files/143367.got.cif
#   From: 2010.05.17/outbox.cif.g08.bks.cpg/sg15_72_cif.got.tgz:143367.got - 2010.06.03 18:47:42.
