data_PCOD9291037
_publ_section_title
;
Structure prediction by ZEFSAII (Michael W. Deem and Ramdas Pophale) SiO2 
 PCOD9291037
Probable space group: C 2/C
;
_chemical_formula_sum "Si O2"
_cell_formula_units_Z 56
_cell_length_a 14.458964
_cell_length_b 14.033643
_cell_length_c 23.541859
_cell_angle_alpha 90.000000
_cell_angle_beta 33.548608
_cell_angle_gamma 90.000000
_cell_volume 2639.939627
_symmetry_space_group_name_H-M "C 2/C"
_symmetry_group_IT_number 15
_symmetry_cell_setting 'monoclinic'
loop_
_space_group_symop_operation_xyz
x,y,z
-x,y,1/2-z
-x,-y,-z
x,-y,1/2+z
1/2+x,1/2+y,z
1/2-x,1/2+y,1/2-z
1/2-x,1/2-y,-z
1/2+x,1/2-y,1/2+z
loop_
_atom_site_type_symbol
_atom_site_label
_atom_site_fract_x
_atom_site_fract_y
_atom_site_fract_z
Si Si1 0.368299 0.090671 0.938827
Si Si2 0.306924 0.577917 0.349591
Si Si3 0.758997 0.435352 0.215628
Si Si4 0.527049 0.708145 0.671595
Si Si5 0.776012 0.617934 0.471551
Si Si6 0.050371 0.926908 0.426231
Si Si7 0.813113 0.301283 0.357300
O O1 0.562722 0.102969 0.854621
O O2 0.294030 0.169382 0.933650
O O3 0.348385 0.985674 0.922446
O O4 0.270553 0.077034 0.047992
O O5 0.500000 0.545212 0.250000
O O6 0.221039 0.512009 0.345511
O O7 0.307104 0.691884 0.339957
O O8 0.641234 0.346450 0.259301
O O9 0.649243 0.477964 0.323847
O O10 0.500000 0.734915 0.750000
O O11 0.684326 0.636693 0.579109
O O12 0.584155 0.802348 0.609004
O O13 0.614999 0.625573 0.512553
O O14 0.177174 0.854332 0.389817
O O15 0.000000 0.000000 0.500000
O O16 0.000000 0.337905 0.250000
#
# Coordination Sequence:
#
# PCOD9291037 Si02
#       7
#     8   8   8   8   8   8   8
#     4  12  23  44  69  98 139 183 229 292 356 420
#     4  11  25  44  68 100 136 186 231 290 353 424
#     4  11  24  41  69  96 137 182 227 287 348 419
#     4  10  22  42  63  95 135 173 223 286 340 409
#     4  10  23  39  66  97 129 172 227 285 332 415
#     4  11  22  42  69  96 133 182 229 282 353 411
#     4  11  24  44  67 100 144 174 237 291 352 431
#
# _framework density 21.212606999999998
#
# number of rings (size 3 to 8) (size 9 to 14) (size 15 to 20)
#    0.000    1.143    2.857    3.857    0.000    6.286 
#    0.000    0.000    0.000    0.000    0.000    0.000 
#    0.000    0.000    0.000    0.000    0.000    0.000 
#
# Total GULP energy -156236.631429 kJ/mol
# GULP energy per Si atom -5579.879694 kJ/mol
# Density = 2.116433 g / cm^3
# Si number density = 21.212607 Si / 1000 Ang^3
#
#
#
# Elastic Constant Matrix: (Units=GPa)
#
#
# Indices 1 2 3 4 5 6 
#
# 1 82.8088 30.6861 41.4967 -0.0001 4.4349 0.0000
# 2 30.6861 61.6279 17.5975 -0.0004 -13.6733 0.0001
# 3 41.4967 17.5975 96.8454 -0.0017 7.6614 0.0004
# 4 -0.0001 -0.0004 -0.0017 32.7466 0.0002 0.0036
# 5 4.4349 -13.6733 7.6614 0.0002 39.6930 0.0000
# 6 0.0000 0.0001 0.0004 0.0036 0.0000 10.1208
#
#
#
# Elastic Compliance Matrix: (Units=1/GPa)
#
#
# Indices 1 2 3 4 5 6 
#
# 1 0.018376 -0.008237 -0.006083 0.000000 -0.003717 0.000000
# 2 -0.008237 0.022696 -0.001306 0.000000 0.008990 0.000000
# 3 -0.006083 -0.001306 0.013355 0.000001 -0.002348 -0.000001
# 4 0.000000 0.000000 0.000001 0.030538 0.000000 -0.000011
# 5 -0.003717 0.008990 -0.002348 0.000000 0.029159 0.000000
# 6 0.000000 0.000000 -0.000001 -0.000011 0.000000 0.098807
#
#
# Mechanical properties :
#
#
# Convention : Reuss Voigt Hill
#
# Bulk Modulus (GPa) = 43.15059 46.76028 44.95543
# Shear Modulus (GPa) = 19.84865 26.61220 23.23043
#
# Velocity S-wave (km/s) = 3.06224 3.54580 3.31286
# Velocity P-wave (km/s) = 5.73491 6.23338 5.98934
#
# Compressibility (1/GPa) = 0.02317465
#
# Stress axis : x y z
#
# Youngs Moduli (GPa) = 54.41941 44.06157 74.87767
#
# Poissons Ratio (x) = 0.36295 0.45547
# Poissons Ratio (y) = 0.44828 0.09776
# Poissons Ratio (z) = 0.33103 0.05752
#
# Static dielectric constant tensor:
#      x y z
#    x 1.803880 0.000000 0.034320 
#    y 0.000000 1.802950 0.000000 
#    z 0.034320 0.000000 1.788630 
# 
# From -- ./inp_files/274467.got.cif
#   From: 2010.05.17/outbox.cif.g08.bks.cpg/sg15_138_cif.got.tgz:274467.got - 2010.06.03 18:47:42.
