data_PCOD9291266
_publ_section_title
;
Structure prediction by ZEFSAII (Michael W. Deem and Ramdas Pophale) SiO2 
 PCOD9291266
Probable space group: C 2/C
;
_chemical_formula_sum "Si O2"
_cell_formula_units_Z 60
_cell_length_a 26.163435
_cell_length_b 24.562247
_cell_length_c 8.871026
_cell_angle_alpha 90.000000
_cell_angle_beta 33.163816
_cell_angle_gamma 90.000000
_cell_volume 3118.541749
_symmetry_space_group_name_H-M "C 2/C"
_symmetry_group_IT_number 15
_symmetry_cell_setting 'monoclinic'
loop_
_space_group_symop_operation_xyz
x,y,z
-x,y,1/2-z
-x,-y,-z
x,-y,1/2+z
1/2+x,1/2+y,z
1/2-x,1/2+y,1/2-z
1/2-x,1/2-y,-z
1/2+x,1/2-y,1/2+z
loop_
_atom_site_type_symbol
_atom_site_label
_atom_site_fract_x
_atom_site_fract_y
_atom_site_fract_z
Si Si1 0.929572 0.364719 0.166722
Si Si2 0.652666 0.745497 0.652895
Si Si3 0.767892 0.052713 0.647403
Si Si4 0.874426 0.642511 0.457581
Si Si5 0.982422 0.941463 0.617683
Si Si6 0.909839 0.861725 0.363183
Si Si7 0.738522 0.938212 0.880023
Si Si8 0.000000 0.717267 0.750000
O O1 0.859176 0.408205 0.415179
O O2 0.948783 0.319612 0.248246
O O3 0.884058 0.348449 0.115704
O O4 0.031896 0.381655 0.852052
O O5 0.750000 0.750000 0.500000
O O6 0.641728 0.799458 0.578810
O O7 0.634857 0.693244 0.592356
O O8 0.573467 0.747241 0.976654
O O9 0.873894 0.071822 0.368527
O O10 0.728038 0.046205 0.579434
O O11 0.761460 0.994012 0.739269
O O12 0.707689 0.100008 0.872336
O O13 0.000000 0.945920 0.750000
O O14 0.048392 0.897921 0.375396
O O15 0.000000 0.000000 0.500000
O O16 0.825780 0.896992 0.643532
O O17 0.000000 0.852304 0.250000
#
# Coordination Sequence:
#
# PCOD9291266 Si02
#       8
#     8   8   8   8   8   8   8   4
#     4   9  20  42  65  91 127 165 216 270 328 390
#     4  11  26  43  66  95 129 168 223 270 327 397
#     4  11  23  39  65  93 129 167 215 265 321 383
#     4   9  22  43  66  89 127 172 214 268 331 386
#     4  12  24  41  65  95 136 171 213 268 320 389
#     4  12  26  43  65  97 134 175 219 267 333 392
#     4  11  23  41  63  97 127 169 218 262 325 392
#     4  10  22  42  66  90 128 164 216 272 328 388
#
# _framework density 19.239761000000001
#
# number of rings (size 3 to 8) (size 9 to 14) (size 15 to 20)
#    0.000    1.333    2.667    2.000    6.533    2.667 
#    0.000    4.667    0.000    0.000    0.000    0.000 
#    0.000    0.000    0.000    0.000    0.000    0.000 
#
# Total GULP energy -167388.961864 kJ/mol
# GULP energy per Si atom -5579.632062 kJ/mol
# Density = 1.919597 g / cm^3
# Si number density = 19.239761 Si / 1000 Ang^3
#
#
#
# Elastic Constant Matrix: (Units=GPa)
#
#
# Indices 1 2 3 4 5 6 
#
# 1 62.0373 31.7360 12.4351 0.0000 2.8545 0.0000
# 2 31.7360 114.0100 55.7668 0.0000 -6.6754 0.0000
# 3 12.4351 55.7668 79.9437 -0.0001 -1.7964 0.0000
# 4 0.0000 0.0000 -0.0001 381.8511 0.0000 -79.0997
# 5 2.8545 -6.6754 -1.7964 0.0000 32.6047 0.0000
# 6 0.0000 0.0000 0.0000 -79.0997 0.0000 35.8802
#
#
#
# Elastic Compliance Matrix: (Units=1/GPa)
#
#
# Indices 1 2 3 4 5 6 
#
# 1 0.019118 -0.006076 0.001201 0.000000 -0.002852 0.000000
# 2 -0.006076 0.015407 -0.009732 0.000000 0.003150 0.000000
# 3 0.001201 -0.009732 0.019087 0.000000 -0.001046 0.000000
# 4 0.000000 0.000000 0.000000 0.004820 0.000000 0.010626
# 5 -0.002852 0.003150 -0.001046 0.000000 0.031507 0.000000
# 6 0.000000 0.000000 0.000000 0.010626 0.000000 0.051296
#
#
# Mechanical properties :
#
#
# Convention : Reuss Voigt Hill
#
# Bulk Modulus (GPa) = 40.98668 50.65186 45.81927
# Shear Modulus (GPa) = 27.99829 100.47075 64.23452
#
# Velocity S-wave (km/s) = 3.81889 7.23421 5.78436
# Velocity P-wave (km/s) = 6.38706 9.80623 8.27516
#
# Compressibility (1/GPa) = 0.02439817
#
# Stress axis : x y z
#
# Youngs Moduli (GPa) = 52.30642 64.90519 52.39118
#
# Poissons Ratio (x) = 0.39436 -0.06290
# Poissons Ratio (y) = 0.31781 0.50986
# Poissons Ratio (z) = -0.06280 0.63164
#
# Static dielectric constant tensor:
#      x y z
#    x 1.579290 0.000000 -0.012010 
#    y 0.000000 1.642220 0.000000 
#    z -0.012010 0.000000 1.669980 
# 
# From -- ./inp_files/67721.got.cif
#   From: 2010.05.17/outbox.cif.g08.bks.cpg/sg15_34_cif.got.tgz:67721.got - 2010.06.03 18:47:42.
