data_PCOD9291756
_publ_section_title
;
Structure prediction by ZEFSAII (Michael W. Deem and Ramdas Pophale) SiO2 
 PCOD9291756
Probable space group: C 2/C
;
_chemical_formula_sum "Si O2"
_cell_formula_units_Z 48
_cell_length_a 10.663047
_cell_length_b 21.779560
_cell_length_c 13.804398
_cell_angle_alpha 90.000000
_cell_angle_beta 37.644095
_cell_angle_gamma 90.000000
_cell_volume 1958.009242
_symmetry_space_group_name_H-M "C 2/C"
_symmetry_group_IT_number 15
_symmetry_cell_setting 'monoclinic'
loop_
_space_group_symop_operation_xyz
x,y,z
-x,y,1/2-z
-x,-y,-z
x,-y,1/2+z
1/2+x,1/2+y,z
1/2-x,1/2+y,1/2-z
1/2-x,1/2-y,-z
1/2+x,1/2-y,1/2+z
loop_
_atom_site_type_symbol
_atom_site_label
_atom_site_fract_x
_atom_site_fract_y
_atom_site_fract_z
Si Si1 0.192343 0.106232 0.464807
Si Si2 0.000000 0.927410 0.750000
Si Si3 0.134536 0.512420 0.557128
Si Si4 0.287861 0.670606 0.247748
Si Si5 0.740421 0.078943 0.689762
Si Si6 0.500000 0.311283 0.250000
Si Si7 0.396417 0.796547 0.122299
O O1 0.264256 0.144272 0.327335
O O2 0.979272 0.072611 0.565500
O O3 0.120089 0.149729 0.595912
O O4 0.341913 0.055422 0.416971
O O5 0.928104 0.881235 0.710302
O O6 0.191117 0.972465 0.623887
O O7 0.197216 0.559948 0.605676
O O8 0.908638 0.531534 0.663692
O O9 0.427424 0.732126 0.156812
O O10 0.085470 0.684349 0.437206
O O11 0.665620 0.146578 0.769953
O O12 0.687546 0.279951 0.190688
#
# Coordination Sequence:
#
# PCOD9291756 Si02
#       7
#     8   4   8   8   8   4   8
#     4  11  24  47  70 107 144 189 241 300 358 427
#     4  12  25  44  70 108 136 195 238 288 370 422
#     4  11  23  43  69 102 143 188 238 296 353 432
#     4  12  27  45  76 105 145 189 241 300 362 424
#     4  10  22  42  70  99 143 189 234 292 359 417
#     4  10  25  48  74 100 146 189 242 294 368 420
#     4  11  25  47  70 108 142 187 243 297 353 434
#
# _framework density 24.514696000000001
#
# number of rings (size 3 to 8) (size 9 to 14) (size 15 to 20)
#    0.000    1.000    3.333    3.000    0.000    8.000 
#    0.000    3.333    0.000    0.000    0.000    0.000 
#    0.000    0.000    0.000    0.000    0.000    0.000 
#
# Total GULP energy -134221.592188 kJ/mol
# GULP energy per Si atom -5592.566341 kJ/mol
# Density = 2.445890 g / cm^3
# Si number density = 24.514696 Si / 1000 Ang^3
#
#
#
# Elastic Constant Matrix: (Units=GPa)
#
#
# Indices 1 2 3 4 5 6 
#
# 1 43.5503 28.8766 0.2759 -0.0023 7.5645 0.0020
# 2 28.8766 128.1747 50.8324 -0.0006 8.5112 0.0010
# 3 0.2759 50.8324 101.4085 -0.0044 -10.5611 0.0042
# 4 -0.0023 -0.0006 -0.0044 76.2445 0.0022 -26.3047
# 5 7.5645 8.5112 -10.5611 0.0022 42.2480 -0.0024
# 6 0.0020 0.0010 0.0042 -26.3047 -0.0024 53.3729
#
#
#
# Elastic Compliance Matrix: (Units=1/GPa)
#
#
# Indices 1 2 3 4 5 6 
#
# 1 0.028447 -0.007598 0.003450 0.000001 -0.002700 -0.000001
# 2 -0.007598 0.012227 -0.006389 0.000000 -0.002700 0.000000
# 3 0.003450 -0.006389 0.013475 0.000001 0.004038 -0.000001
# 4 0.000001 0.000000 0.000001 0.015803 0.000000 0.007788
# 5 -0.002700 -0.002700 0.004038 0.000000 0.025707 0.000001
# 6 -0.000001 0.000000 -0.000001 0.007788 0.000001 0.022575
#
#
# Mechanical properties :
#
#
# Convention : Reuss Voigt Hill
#
# Bulk Modulus (GPa) = 30.23503 48.12259 39.17881
# Shear Modulus (GPa) = 33.25979 47.24964 40.25472
#
# Velocity S-wave (km/s) = 3.68738 4.39498 4.05664
# Velocity P-wave (km/s) = 5.52170 6.73997 6.16102
#
# Compressibility (1/GPa) = 0.03307421
#
# Stress axis : x y z
#
# Youngs Moduli (GPa) = 35.15331 81.78784 74.21146
#
# Poissons Ratio (x) = 0.62139 -0.25602
# Poissons Ratio (y) = 0.26708 0.47416
# Poissons Ratio (z) = -0.12127 0.52257
#
# Static dielectric constant tensor:
#      x y z
#    x 2.037560 0.000000 0.036620 
#    y 0.000000 1.897440 0.000000 
#    z 0.036620 0.000000 2.121290 
# 
# From -- ./inp_files/147415.got.cif
#   From: 2010.05.17/outbox.cif.g08.bks.cpg/sg15_74_cif.got.tgz:147415.got - 2010.06.03 18:47:42.
