data_PCOD9291642
_publ_section_title
;
Structure prediction by ZEFSAII (Michael W. Deem and Ramdas Pophale) SiO2 
 PCOD9291642
Probable space group: C 2/C
;
_chemical_formula_sum "Si O2"
_cell_formula_units_Z 52
_cell_length_a 13.674227
_cell_length_b 17.860369
_cell_length_c 18.950424
_cell_angle_alpha 90.000000
_cell_angle_beta 31.741149
_cell_angle_gamma 90.000000
_cell_volume 2434.815429
_symmetry_space_group_name_H-M "C 2/C"
_symmetry_group_IT_number 15
_symmetry_cell_setting 'monoclinic'
loop_
_space_group_symop_operation_xyz
x,y,z
-x,y,1/2-z
-x,-y,-z
x,-y,1/2+z
1/2+x,1/2+y,z
1/2-x,1/2+y,1/2-z
1/2-x,1/2-y,-z
1/2+x,1/2-y,1/2+z
loop_
_atom_site_type_symbol
_atom_site_label
_atom_site_fract_x
_atom_site_fract_y
_atom_site_fract_z
Si Si1 0.703904 0.337908 0.026413
Si Si2 0.152068 0.923316 0.309713
Si Si3 0.260707 0.075581 0.265161
Si Si4 0.000000 0.579475 0.250000
Si Si5 0.815784 0.322727 0.324374
Si Si6 0.952258 0.770521 0.605415
Si Si7 0.413210 0.125912 0.535106
O O1 0.501877 0.368064 0.128781
O O2 0.760684 0.370720 0.067193
O O3 0.750000 0.250000 0.000000
O O4 0.845858 0.371424 0.883177
O O5 0.207666 0.887326 0.349454
O O6 0.333719 0.921399 0.148423
O O7 0.109837 0.011163 0.341588
O O8 0.385765 0.045143 0.254057
O O9 0.163960 0.154869 0.340657
O O10 0.399792 0.095203 0.115240
O O11 0.878316 0.264324 0.224267
O O12 0.670615 0.288978 0.469240
O O13 0.000000 0.349533 0.250000
O O14 0.931141 0.708999 0.556631
#
# Coordination Sequence:
#
# PCOD9291642 Si02
#       7
#     8   8   8   4   8   8   8
#     4  11  23  39  65 102 132 174 224 283 337 406
#     4  11  25  41  66  97 139 178 222 280 344 406
#     4  11  23  43  66  97 139 173 225 281 348 405
#     4  10  24  36  64  94 130 174 222 276 342 392
#     4  11  24  42  66  94 130 177 229 273 331 403
#     4  11  22  44  70  98 127 177 228 287 333 404
#     4  10  22  42  69  97 133 173 227 277 348 407
#
# _framework density 21.356856000000001
#
# number of rings (size 3 to 8) (size 9 to 14) (size 15 to 20)
#    0.000    1.231    1.538    4.154    9.692    2.462 
#    2.769    1.538    0.000    0.000    0.000    0.000 
#    0.000    0.000    0.000    0.000    0.000    0.000 
#
# Total GULP energy -145167.557991 kJ/mol
# GULP energy per Si atom -5583.367615 kJ/mol
# Density = 2.130825 g / cm^3
# Si number density = 21.356856 Si / 1000 Ang^3
#
#
#
# Elastic Constant Matrix: (Units=GPa)
#
#
# Indices 1 2 3 4 5 6 
#
# 1 36.3780 7.1476 2.0958 0.0005 -9.4909 -0.0004
# 2 7.1476 111.7582 17.9589 0.0115 -5.6849 0.0016
# 3 2.0958 17.9589 110.4156 0.0183 5.1222 0.0058
# 4 0.0005 0.0115 0.0183 8.3576 0.0091 -13.6458
# 5 -9.4909 -5.6849 5.1222 0.0091 35.9010 -0.0002
# 6 -0.0004 0.0016 0.0058 -13.6458 -0.0002 13.8559
#
#
#
# Elastic Compliance Matrix: (Units=1/GPa)
#
#
# Indices 1 2 3 4 5 6 
#
# 1 0.029830 -0.001401 -0.000699 0.000008 0.007764 0.000009
# 2 -0.001401 0.009355 -0.001557 0.000019 0.001333 0.000018
# 3 -0.000699 -0.001557 0.009405 0.000037 -0.001773 0.000033
# 4 0.000008 0.000019 0.000037 -0.196799 0.000049 -0.193815
# 5 0.007764 0.001333 -0.001773 0.000049 0.030371 0.000049
# 6 0.000009 0.000018 0.000033 -0.193815 0.000049 -0.118705
#
#
# Mechanical properties :
#
#
# Convention : Reuss Voigt Hill
#
# Bulk Modulus (GPa) = 24.22546 34.77290 29.49918
# Shear Modulus (GPa) = -23.20503 27.04620 1.92059
#
# Velocity S-wave (km/s) = -3.29984 3.56250 0.94933
# Velocity P-wave (km/s) = 1.77505 5.76534 3.87868
#
# Compressibility (1/GPa) = 0.04127888
#
# Stress axis : x y z
#
# Youngs Moduli (GPa) = 33.52309 106.88928 106.32152
#
# Poissons Ratio (x) = 0.14971 0.07427
# Poissons Ratio (y) = 0.04695 0.16553
# Poissons Ratio (z) = 0.02342 0.16642
#
# Static dielectric constant tensor:
#      x y z
#    x 1.776240 0.000000 0.027280 
#    y 0.000000 1.811200 0.000010 
#    z 0.027280 0.000010 1.690580 
# 
# From -- ./inp_files/245017.got.cif
#   From: 2010.05.17/outbox.cif.g08.bks.cpg/sg15_123_cif.got.tgz:245017.got - 2010.06.03 18:47:42.
