data_PCOD9291050
_publ_section_title
;
Structure prediction by ZEFSAII (Michael W. Deem and Ramdas Pophale) SiO2 
 PCOD9291050
Probable space group: C 2/C
;
_chemical_formula_sum "Si O2"
_cell_formula_units_Z 56
_cell_length_a 21.831615
_cell_length_b 12.802571
_cell_length_c 12.857663
_cell_angle_alpha 90.000000
_cell_angle_beta 136.206963
_cell_angle_gamma 90.000000
_cell_volume 2487.058450
_symmetry_space_group_name_H-M "C 2/C"
_symmetry_group_IT_number 15
_symmetry_cell_setting 'monoclinic'
loop_
_space_group_symop_operation_xyz
x,y,z
-x,y,1/2-z
-x,-y,-z
x,-y,1/2+z
1/2+x,1/2+y,z
1/2-x,1/2+y,1/2-z
1/2-x,1/2-y,-z
1/2+x,1/2-y,1/2+z
loop_
_atom_site_type_symbol
_atom_site_label
_atom_site_fract_x
_atom_site_fract_y
_atom_site_fract_z
Si Si1 0.225425 0.842433 0.394856
Si Si2 0.453353 0.220144 0.355210
Si Si3 0.335483 0.472634 0.565177
Si Si4 0.883160 0.594948 0.452040
Si Si5 0.798620 0.396466 0.264922
Si Si6 0.209731 0.802665 0.848054
Si Si7 0.500000 0.374582 0.250000
Si Si8 0.000000 0.540667 0.250000
O O1 0.250000 0.750000 0.500000
O O2 0.128499 0.802449 0.243496
O O3 0.278997 0.862042 0.357402
O O4 0.234645 0.947608 0.471758
O O5 0.446235 0.171298 0.462072
O O6 0.519025 0.297467 0.371808
O O7 0.454477 0.119305 0.278603
O O8 0.291426 0.421047 0.410004
O O9 0.351598 0.392023 0.679080
O O10 0.417950 0.546633 0.648874
O O11 0.854017 0.501514 0.338951
O O12 0.792022 0.651360 0.380789
O O13 0.933041 0.536087 0.606760
O O14 0.840214 0.292591 0.267341
O O15 0.250000 0.750000 0.000000
#
# Coordination Sequence:
#
# PCOD9291050 Si02
#       8
#     8   8   8   8   8   8   4   4
#     4  11  20  36  66  97 127 171 221 281 336 399
#     4  10  22  42  63  98 133 172 230 271 342 414
#     4  10  22  42  66  97 132 180 218 281 344 405
#     4  12  23  43  69  98 135 182 227 287 341 410
#     4  11  23  40  68 101 130 171 230 284 340 406
#     4  10  23  42  66  98 137 172 230 283 344 409
#     4   9  22  46  71  96 144 175 228 282 335 422
#     4  11  26  42  61  94 140 181 216 282 347 404
#
# _framework density 22.516558
#
# number of rings (size 3 to 8) (size 9 to 14) (size 15 to 20)
#    0.000    1.429    2.857    2.143    4.000    0.000 
#    0.000    7.143    0.000    0.000    0.000    0.000 
#    0.000    0.000    0.000    0.000    0.000    0.000 
#
# Total GULP energy -156006.994235 kJ/mol
# GULP energy per Si atom -5571.678366 kJ/mol
# Density = 2.246531 g / cm^3
# Si number density = 22.516558 Si / 1000 Ang^3
#
#
#
# Elastic Constant Matrix: (Units=GPa)
#
#
# Indices 1 2 3 4 5 6 
#
# 1 80.5819 49.0795 30.9277 0.0000 -19.4538 0.0000
# 2 49.0795 140.1843 34.9072 0.0000 -13.4187 0.0000
# 3 30.9277 34.9072 58.7372 0.0000 -12.1036 0.0000
# 4 0.0000 0.0000 0.0000 34.3104 0.0000 -7.4198
# 5 -19.4538 -13.4187 -12.1036 0.0000 29.4823 0.0000
# 6 0.0000 0.0000 0.0000 -7.4198 0.0000 47.5964
#
#
#
# Elastic Compliance Matrix: (Units=1/GPa)
#
#
# Indices 1 2 3 4 5 6 
#
# 1 0.019431 -0.004558 -0.005798 0.000000 0.008367 0.000000
# 2 -0.004558 0.009544 -0.003273 0.000000 -0.000008 0.000000
# 3 -0.005798 -0.003273 0.022862 0.000000 0.004070 0.000000
# 4 0.000000 0.000000 0.000000 0.030163 0.000000 0.004702
# 5 0.008367 -0.000008 0.004070 0.000000 0.041107 0.000000
# 6 0.000000 0.000000 0.000000 0.004702 0.000000 0.021743
#
#
# Mechanical properties :
#
#
# Convention : Reuss Voigt Hill
#
# Bulk Modulus (GPa) = 40.68825 56.59247 48.64036
# Shear Modulus (GPa) = 27.73133 33.25041 30.49087
#
# Velocity S-wave (km/s) = 3.51322 3.84697 3.68387
# Velocity P-wave (km/s) = 5.87933 6.70227 6.30425
#
# Compressibility (1/GPa) = 0.02457712
#
# Stress axis : x y z
#
# Youngs Moduli (GPa) = 51.46323 104.78138 43.74064
#
# Poissons Ratio (x) = 0.47763 0.25363
# Poissons Ratio (y) = 0.23459 0.14317
# Poissons Ratio (z) = 0.29841 0.34297
#
# Static dielectric constant tensor:
#      x y z
#    x 1.886970 0.000000 0.061140 
#    y 0.000000 1.821410 0.000000 
#    z 0.061140 0.000000 1.897350 
# 
# From -- ./inp_files/117704.got.cif
#   From: 2010.05.17/outbox.cif.g08.bks.cpg/sg15_59_cif.got.tgz:117704.got - 2010.06.03 18:47:42.
