data_PCOD9291540
_publ_section_title
;
Structure prediction by ZEFSAII (Michael W. Deem and Ramdas Pophale) SiO2 
 PCOD9291540
Probable space group: C 2/C
;
_chemical_formula_sum "Si O2"
_cell_formula_units_Z 36
_cell_length_a 8.340632
_cell_length_b 16.085368
_cell_length_c 12.067939
_cell_angle_alpha 90.000000
_cell_angle_beta 109.105669
_cell_angle_gamma 90.000000
_cell_volume 1529.876997
_symmetry_space_group_name_H-M "C 2/C"
_symmetry_group_IT_number 15
_symmetry_cell_setting 'monoclinic'
loop_
_space_group_symop_operation_xyz
x,y,z
-x,y,1/2-z
-x,-y,-z
x,-y,1/2+z
1/2+x,1/2+y,z
1/2-x,1/2+y,1/2-z
1/2-x,1/2-y,-z
1/2+x,1/2-y,1/2+z
loop_
_atom_site_type_symbol
_atom_site_label
_atom_site_fract_x
_atom_site_fract_y
_atom_site_fract_z
Si Si1 0.500000 0.238403 0.250000
Si Si2 0.917344 0.109089 0.618298
Si Si3 0.303387 0.346638 0.502431
Si Si4 0.202943 0.409526 0.698129
Si Si5 0.844654 0.509235 0.082483
O O1 0.625311 0.299040 0.345741
O O2 0.619348 0.179632 0.206949
O O3 0.000000 0.071265 0.750000
O O4 0.046263 0.131819 0.548358
O O5 0.769945 0.053394 0.536531
O O6 0.250000 0.250000 0.500000
O O7 0.333804 0.385949 0.631455
O O8 0.159708 0.409573 0.423073
O O9 0.036032 0.459287 0.619484
O O10 0.239194 0.456111 0.821678
#
# Coordination Sequence:
#
# PCOD9291540 Si02
#       5
#     4   8   8   8   8
#     4   8  18  40  62  96 132 162 210 270 330 384
#     4  10  22  42  68  95 136 174 216 269 342 387
#     4  12  23  44  68 101 133 169 231 279 317 403
#     4  10  23  44  68  96 131 176 225 263 340 392
#     4  10  24  43  70  92 136 177 214 274 339 400
#
# _framework density 23.531303000000001
#
# number of rings (size 3 to 8) (size 9 to 14) (size 15 to 20)
#    0.667    1.333    2.222    1.333    3.111    4.444 
#    0.000    4.444    0.000    0.000    0.000    0.000 
#    0.000    0.000    0.000    0.000    0.000    0.000 
#
# Total GULP energy -100334.810134 kJ/mol
# GULP energy per Si atom -5574.156119 kJ/mol
# Density = 2.347775 g / cm^3
# Si number density = 23.531303 Si / 1000 Ang^3
#
#
#
# Elastic Constant Matrix: (Units=GPa)
#
#
# Indices 1 2 3 4 5 6 
#
# 1 75.3871 49.4538 52.2096 0.0000 -20.7507 0.0000
# 2 49.4538 198.9413 66.5474 0.0000 2.7776 0.0000
# 3 52.2096 66.5474 164.3170 0.0000 -2.2544 0.0000
# 4 0.0000 0.0000 0.0000 54.1353 0.0000 -0.0655
# 5 -20.7507 2.7776 -2.2544 0.0000 44.1528 0.0000
# 6 0.0000 0.0000 0.0000 -0.0655 0.0000 32.6941
#
#
#
# Elastic Compliance Matrix: (Units=1/GPa)
#
#
# Indices 1 2 3 4 5 6 
#
# 1 0.022490 -0.003928 -0.005410 0.000000 0.010541 0.000000
# 2 -0.003928 0.006511 -0.001421 0.000000 -0.002328 0.000000
# 3 -0.005410 -0.001421 0.008352 0.000000 -0.002027 0.000000
# 4 0.000000 0.000000 0.000000 0.018472 0.000000 0.000037
# 5 0.010541 -0.002328 -0.002027 0.000000 0.027645 0.000000
# 6 0.000000 0.000000 0.000000 0.000037 0.000000 0.030587
#
#
# Mechanical properties :
#
#
# Convention : Reuss Voigt Hill
#
# Bulk Modulus (GPa) = 63.15150 86.11854 74.63502
# Shear Modulus (GPa) = 35.49766 44.22541 39.86153
#
# Velocity S-wave (km/s) = 3.88819 4.33994 4.12026
# Velocity P-wave (km/s) = 6.85951 7.86068 7.37710
#
# Compressibility (1/GPa) = 0.01583494
#
# Stress axis : x y z
#
# Youngs Moduli (GPa) = 44.46407 153.59108 119.72499
#
# Poissons Ratio (x) = 0.60331 0.64777
# Poissons Ratio (y) = 0.17466 0.17009
# Poissons Ratio (z) = 0.24057 0.21821
#
# Static dielectric constant tensor:
#      x y z
#    x 1.880360 0.000000 -0.062270 
#    y 0.000000 1.897270 0.000000 
#    z -0.062270 0.000000 2.042170 
# 
# From -- ./inp_files/85119.got.cif
#   From: 2010.05.17/outbox.cif.g08.bks.cpg/sg15_43_cif.got.tgz:85119.got - 2010.06.03 18:47:42.
