data_PCOD9291439
_publ_section_title
;
Structure prediction by ZEFSAII (Michael W. Deem and Ramdas Pophale) SiO2 
 PCOD9291439
Probable space group: C 2/C
;
_chemical_formula_sum "Si O2"
_cell_formula_units_Z 52
_cell_length_a 8.294716
_cell_length_b 12.132768
_cell_length_c 27.515380
_cell_angle_alpha 90.000000
_cell_angle_beta 57.651100
_cell_angle_gamma 90.000000
_cell_volume 2339.341624
_symmetry_space_group_name_H-M "C 2/C"
_symmetry_group_IT_number 15
_symmetry_cell_setting 'monoclinic'
loop_
_space_group_symop_operation_xyz
x,y,z
-x,y,1/2-z
-x,-y,-z
x,-y,1/2+z
1/2+x,1/2+y,z
1/2-x,1/2+y,1/2-z
1/2-x,1/2-y,-z
1/2+x,1/2-y,1/2+z
loop_
_atom_site_type_symbol
_atom_site_label
_atom_site_fract_x
_atom_site_fract_y
_atom_site_fract_z
Si Si1 0.264587 0.100163 0.237811
Si Si2 0.135366 0.895056 0.969684
Si Si3 0.000000 0.717885 0.750000
Si Si4 0.398102 0.189101 0.012811
Si Si5 0.828787 0.391266 0.184408
Si Si6 0.459087 0.016098 0.069786
Si Si7 0.288620 0.161908 0.338485
O O1 0.176809 0.198423 0.220532
O O2 0.200910 0.110316 0.303942
O O3 0.492580 0.120721 0.197067
O O4 0.201908 0.979112 0.232907
O O5 0.336208 0.924785 0.960903
O O6 0.181193 0.867600 0.905566
O O7 0.030318 0.788957 0.008714
O O8 0.000000 0.000000 0.000000
O O9 0.971055 0.651397 0.704344
O O10 0.321676 0.109814 0.068598
O O11 0.250000 0.250000 0.000000
O O12 0.517444 0.096373 0.964501
O O13 0.728171 0.291254 0.172725
O O14 0.918690 0.469744 0.129261
#
# Coordination Sequence:
#
# PCOD9291439 Si02
#       7
#     8   8   4   8   8   8   8
#     4  10  22  43  66  96 131 175 223 273 349 401
#     4  12  23  43  70 102 135 183 231 285 347 410
#     4  10  24  40  68 104 134 168 228 282 334 436
#     4  11  24  45  65  95 135 175 232 280 334 405
#     4  11  22  43  69  99 137 174 224 277 348 407
#     4  11  24  42  68  96 135 181 220 287 338 408
#     4  10  22  42  67  96 137 174 221 286 337 412
#
# _framework density 22.228477999999999
#
# number of rings (size 3 to 8) (size 9 to 14) (size 15 to 20)
#    0.000    1.231    4.615    1.385    0.000    3.692 
#    0.000    1.538    3.385    0.000    0.000    0.000 
#    0.000    0.000    0.000    0.000    0.000    0.000 
#
# Total GULP energy -144974.710022 kJ/mol
# GULP energy per Si atom -5575.950385 kJ/mol
# Density = 2.217788 g / cm^3
# Si number density = 22.228478 Si / 1000 Ang^3
#
#
#
# Elastic Constant Matrix: (Units=GPa)
#
#
# Indices 1 2 3 4 5 6 
#
# 1 81.5065 50.5055 17.1395 0.0000 20.9678 0.0000
# 2 50.5055 185.7696 50.0462 0.0000 24.7302 0.0000
# 3 17.1395 50.0462 73.5162 0.0000 29.6220 0.0000
# 4 0.0000 0.0000 0.0000 50.8645 0.0000 19.5820
# 5 20.9678 24.7302 29.6220 0.0000 26.5252 0.0000
# 6 0.0000 0.0000 0.0000 19.5820 0.0000 37.9741
#
#
#
# Elastic Compliance Matrix: (Units=1/GPa)
#
#
# Indices 1 2 3 4 5 6 
#
# 1 0.017836 -0.004088 0.005036 0.000000 -0.015912 0.000000
# 2 -0.004088 0.007591 -0.004845 0.000000 0.001564 0.000000
# 3 0.005036 -0.004845 0.028200 0.000000 -0.030955 0.000000
# 4 0.000000 0.000000 0.000000 0.024530 0.000000 -0.012649
# 5 -0.015912 0.001564 -0.030955 0.000000 0.083389 0.000000
# 6 0.000000 0.000000 0.000000 -0.012649 0.000000 0.032856
#
#
# Mechanical properties :
#
#
# Convention : Reuss Voigt Hill
#
# Bulk Modulus (GPa) = 21.81828 64.01941 42.91885
# Shear Modulus (GPa) = 22.99126 37.94617 30.46872
#
# Velocity S-wave (km/s) = 3.21957 4.13619 3.70632
# Velocity P-wave (km/s) = 4.86391 7.18845 6.13724
#
# Compressibility (1/GPa) = 0.04583312
#
# Stress axis : x y z
#
# Youngs Moduli (GPa) = 56.06553 131.72918 35.46157
#
# Poissons Ratio (x) = 0.53845 -0.17857
# Poissons Ratio (y) = 0.22917 0.17182
# Poissons Ratio (z) = -0.28233 0.63825
#
# Static dielectric constant tensor:
#      x y z
#    x 1.881870 0.000000 0.053790 
#    y 0.000000 1.643210 0.000000 
#    z 0.053790 0.000000 1.891190 
# 
# From -- ./inp_files/287891.got.cif
#   From: 2010.05.17/outbox.cif.g08.bks.cpg/sg15_144_cif.got.tgz:287891.got - 2010.06.03 18:47:42.
