data_PCOD9291595
_publ_section_title
;
Structure prediction by ZEFSAII (Michael W. Deem and Ramdas Pophale) SiO2 
 PCOD9291595
Probable space group: C 2/C
;
_chemical_formula_sum "Si O2"
_cell_formula_units_Z 56
_cell_length_a 21.426360
_cell_length_b 13.185438
_cell_length_c 8.439280
_cell_angle_alpha 90.000000
_cell_angle_beta 96.161110
_cell_angle_gamma 90.000000
_cell_volume 2370.459911
_symmetry_space_group_name_H-M "C 2/C"
_symmetry_group_IT_number 15
_symmetry_cell_setting 'monoclinic'
loop_
_space_group_symop_operation_xyz
x,y,z
-x,y,1/2-z
-x,-y,-z
x,-y,1/2+z
1/2+x,1/2+y,z
1/2-x,1/2+y,1/2-z
1/2-x,1/2-y,-z
1/2+x,1/2-y,1/2+z
loop_
_atom_site_type_symbol
_atom_site_label
_atom_site_fract_x
_atom_site_fract_y
_atom_site_fract_z
Si Si1 0.355102 0.395570 0.244377
Si Si2 0.678463 0.857441 0.348559
Si Si3 0.500000 0.305831 0.750000
Si Si4 0.933180 0.971989 0.558178
Si Si5 0.000000 0.545930 0.250000
Si Si6 0.048104 0.639942 0.964499
Si Si7 0.769889 0.278646 0.682434
Si Si8 0.225426 0.516391 0.158605
O O1 0.384962 0.428764 0.417487
O O2 0.405281 0.427552 0.127738
O O3 0.334154 0.279894 0.236165
O O4 0.291693 0.458403 0.186910
O O5 0.614174 0.824748 0.411572
O O6 0.719521 0.765016 0.294628
O O7 0.713519 0.923472 0.493234
O O8 0.673571 0.933049 0.195457
O O9 0.444654 0.384949 0.693641
O O10 0.498464 0.226302 0.895826
O O11 0.000000 0.000000 0.500000
O O12 0.957998 0.615105 0.353127
O O13 0.962796 0.467618 0.127378
O O14 0.750000 0.250000 0.500000
O O15 0.775147 0.396836 0.708697
#
# Coordination Sequence:
#
# PCOD9291595 Si02
#       8
#     8   8   4   8   4   8   8   8
#     4  11  24  43  70  93 141 179 220 297 349 396
#     4  11  23  40  67  99 139 182 223 282 354 421
#     4  11  26  42  67 100 134 184 251 280 344 429
#     4  12  24  47  66  96 130 187 238 287 346 406
#     4   9  20  44  67  96 142 176 227 286 368 407
#     4  10  22  42  69 101 137 185 226 297 349 426
#     4  11  24  41  65 105 136 178 229 280 351 432
#     4  11  23  42  66 103 134 176 230 278 354 434
#
# _framework density 23.624108
#
# number of rings (size 3 to 8) (size 9 to 14) (size 15 to 20)
#    0.000    1.143    1.429    5.571    4.000    1.143 
#    2.571    2.857    0.000    0.000    0.000    0.000 
#    0.000    0.000    0.000    0.000    0.000    0.000 
#
# Total GULP energy -156630.199433 kJ/mol
# GULP energy per Si atom -5593.935694 kJ/mol
# Density = 2.357034 g / cm^3
# Si number density = 23.624108 Si / 1000 Ang^3
#
#
#
# Elastic Constant Matrix: (Units=GPa)
#
#
# Indices 1 2 3 4 5 6 
#
# 1 97.2039 30.1250 37.3281 0.0000 -23.2214 0.0000
# 2 30.1250 96.3722 6.9395 0.0000 -14.9708 0.0000
# 3 37.3281 6.9395 98.5591 0.0000 -5.2293 0.0000
# 4 0.0000 0.0000 0.0000 36.2910 0.0000 7.4447
# 5 -23.2214 -14.9708 -5.2293 0.0000 43.3918 0.0000
# 6 0.0000 0.0000 0.0000 7.4447 0.0000 23.2809
#
#
#
# Elastic Compliance Matrix: (Units=1/GPa)
#
#
# Indices 1 2 3 4 5 6 
#
# 1 0.014691 -0.003280 -0.005008 0.000000 0.006127 0.000000
# 2 -0.003280 0.011729 0.000541 0.000000 0.002357 0.000000
# 3 -0.005008 0.000541 0.011949 0.000000 -0.001053 0.000000
# 4 0.000000 0.000000 0.000000 0.029490 0.000000 -0.009430
# 5 0.006127 0.002357 -0.001053 0.000000 0.027011 0.000000
# 6 0.000000 0.000000 0.000000 -0.009430 0.000000 0.045969
#
#
# Mechanical properties :
#
#
# Convention : Reuss Voigt Hill
#
# Bulk Modulus (GPa) = 43.71441 48.99116 46.35278
# Shear Modulus (GPa) = 30.49591 35.10891 32.80241
#
# Velocity S-wave (km/s) = 3.59678 3.85924 3.73032
# Velocity P-wave (km/s) = 5.98276 6.37504 6.18201
#
# Compressibility (1/GPa) = 0.02287575
#
# Stress axis : x y z
#
# Youngs Moduli (GPa) = 68.06898 85.26031 83.68960
#
# Poissons Ratio (x) = 0.27964 0.41912
# Poissons Ratio (y) = 0.22326 -0.04531
# Poissons Ratio (z) = 0.34089 -0.04616
#
# Static dielectric constant tensor:
#      x y z
#    x 1.919930 0.000000 0.017350 
#    y 0.000000 1.859740 0.000000 
#    z 0.017350 0.000000 1.927430 
# 
# From -- ./inp_files/55689.got.cif
#   From: 2010.05.17/outbox.cif.g08.bks.cpg/sg15_28_cif.got.tgz:55689.got - 2010.06.03 18:47:42.
