data_PCOD9291992
_publ_section_title
;
Structure prediction by ZEFSAII (Michael W. Deem and Ramdas Pophale) SiO2 
 PCOD9291992
Probable space group: C 2/C
;
_chemical_formula_sum "Si O2"
_cell_formula_units_Z 48
_cell_length_a 13.296794
_cell_length_b 16.938290
_cell_length_c 16.984664
_cell_angle_alpha 90.000000
_cell_angle_beta 29.961670
_cell_angle_gamma 90.000000
_cell_volume 1910.468389
_symmetry_space_group_name_H-M "C 2/C"
_symmetry_group_IT_number 15
_symmetry_cell_setting 'monoclinic'
loop_
_space_group_symop_operation_xyz
x,y,z
-x,y,1/2-z
-x,-y,-z
x,-y,1/2+z
1/2+x,1/2+y,z
1/2-x,1/2+y,1/2-z
1/2-x,1/2-y,-z
1/2+x,1/2-y,1/2+z
loop_
_atom_site_type_symbol
_atom_site_label
_atom_site_fract_x
_atom_site_fract_y
_atom_site_fract_z
Si Si1 0.489165 0.150656 0.612968
Si Si2 0.707438 0.771871 0.618123
Si Si3 0.552693 0.987232 0.623789
Si Si4 0.382763 0.469860 0.656243
Si Si5 0.930795 0.815907 0.010383
Si Si6 0.731427 0.399952 0.150389
O O1 0.607616 0.079789 0.573607
O O2 0.584759 0.234711 0.527841
O O3 0.430015 0.113074 0.568803
O O4 0.280541 0.163663 0.803768
O O5 0.500000 0.819831 0.750000
O O6 0.750000 0.750000 0.500000
O O7 0.894456 0.806290 0.540438
O O8 0.655575 0.689507 0.697811
O O9 0.500000 0.980617 0.750000
O O10 0.347845 0.967439 0.715260
O O11 0.714914 0.931811 0.471923
O O12 0.500000 0.500000 0.500000
O O13 0.480433 0.384971 0.604806
O O14 0.392370 0.534174 0.718641
#
# Coordination Sequence:
#
# PCOD9291992 Si02
#       6
#     8   8   8   8   8   8
#     4  10  22  43  64  96 125 173 224 262 317 400
#     4  11  25  39  60  98 140 166 206 267 332 392
#     4  11  25  42  66  96 131 167 219 278 326 374
#     4  11  22  41  69  92 128 174 224 264 315 395
#     4  11  23  39  69  90 131 175 220 263 324 391
#     4  10  23  41  63  94 131 176 215 257 327 400
#
# _framework density 25.124728000000001
#
# number of rings (size 3 to 8) (size 9 to 14) (size 15 to 20)
#    0.000    1.333    3.333    4.000   11.667    0.000 
#    0.000    0.833    0.000    0.000    0.000    0.000 
#    0.000    0.000    0.000    0.000    0.000    0.000 
#
# Total GULP energy -134241.185412 kJ/mol
# GULP energy per Si atom -5593.382725 kJ/mol
# Density = 2.506754 g / cm^3
# Si number density = 25.124728 Si / 1000 Ang^3
#
#
#
# Elastic Constant Matrix: (Units=GPa)
#
#
# Indices 1 2 3 4 5 6 
#
# 1 72.1694 17.9041 16.1544 0.0006 3.4431 -0.0004
# 2 17.9041 174.8959 21.1305 -0.0065 25.5672 0.0087
# 3 16.1544 21.1305 64.3948 0.0074 15.0091 -0.0018
# 4 0.0006 -0.0065 0.0074 46.5665 0.0030 18.9350
# 5 3.4431 25.5672 15.0091 0.0030 42.2687 -0.0014
# 6 -0.0004 0.0087 -0.0018 18.9350 -0.0014 7.8664
#
#
#
# Elastic Compliance Matrix: (Units=1/GPa)
#
#
# Indices 1 2 3 4 5 6 
#
# 1 0.014909 -0.001213 -0.003521 -0.000022 0.000770 0.000055
# 2 -0.001213 0.006469 -0.001013 0.000216 -0.003455 -0.000528
# 3 -0.003521 -0.001013 0.018027 -0.000201 -0.005501 0.000487
# 4 -0.000022 0.000216 -0.000201 1.011909 -0.000212 -2.435754
# 5 0.000770 -0.003455 -0.005501 -0.000212 0.027639 0.000518
# 6 0.000055 -0.000528 0.000487 -2.435754 0.000518 5.990197
#
#
# Mechanical properties :
#
#
# Convention : Reuss Voigt Hill
#
# Bulk Modulus (GPa) = 35.83013 46.87090 41.35051
# Shear Modulus (GPa) = 0.70522 36.42506 18.56514
#
# Velocity S-wave (km/s) = 0.53038 3.81171 2.72126
# Velocity P-wave (km/s) = 3.82974 6.16993 5.13493
#
# Compressibility (1/GPa) = 0.02790947
#
# Stress axis : x y z
#
# Youngs Moduli (GPa) = 67.07456 154.57487 55.47106
#
# Poissons Ratio (x) = 0.18755 0.19534
# Poissons Ratio (y) = 0.08138 0.05621
# Poissons Ratio (z) = 0.23620 0.15664
#
# Static dielectric constant tensor:
#      x y z
#    x 2.119290 0.000020 -0.029890 
#    y 0.000020 2.050720 0.000010 
#    z -0.029890 0.000010 1.995630 
# 
# From -- ./inp_files/206395.got.cif
#   From: 2010.05.17/outbox.cif.g08.bks.cpg/sg15_104_cif.got.tgz:206395.got - 2010.06.03 18:47:42.
