data_PCOD9291981
_publ_section_title
;
Structure prediction by ZEFSAII (Michael W. Deem and Ramdas Pophale) SiO2 
 PCOD9291981
Probable space group: C 2/C
;
_chemical_formula_sum "Si O2"
_cell_formula_units_Z 52
_cell_length_a 27.602215
_cell_length_b 8.685550
_cell_length_c 18.706628
_cell_angle_alpha 90.000000
_cell_angle_beta 153.723622
_cell_angle_gamma 90.000000
_cell_volume 1985.399051
_symmetry_space_group_name_H-M "C 2/C"
_symmetry_group_IT_number 15
_symmetry_cell_setting 'monoclinic'
loop_
_space_group_symop_operation_xyz
x,y,z
-x,y,1/2-z
-x,-y,-z
x,-y,1/2+z
1/2+x,1/2+y,z
1/2-x,1/2+y,1/2-z
1/2-x,1/2-y,-z
1/2+x,1/2-y,1/2+z
loop_
_atom_site_type_symbol
_atom_site_label
_atom_site_fract_x
_atom_site_fract_y
_atom_site_fract_z
Si Si1 0.463355 0.238844 0.433352
Si Si2 0.599104 0.506170 0.558056
Si Si3 0.000000 0.734121 0.250000
Si Si4 0.200908 0.839130 0.065190
Si Si5 0.890668 0.999831 0.691971
Si Si6 0.572649 0.941238 0.196796
Si Si7 0.841756 0.519640 0.537590
O O1 0.570343 0.333836 0.545889
O O2 0.385617 0.378768 0.355354
O O3 0.479053 0.134485 0.524781
O O4 0.421713 0.119631 0.319493
O O5 0.686226 0.548115 0.613021
O O6 0.484962 0.560935 0.368973
O O7 0.940372 0.841797 0.228199
O O8 0.902421 0.630304 0.088362
O O9 0.174549 0.659112 0.038946
O O10 0.126192 0.899476 0.901235
O O11 0.320753 0.855714 0.191824
O O12 0.774027 0.012297 0.576471
O O13 0.580692 0.930174 0.292481
#
# Coordination Sequence:
#
# PCOD9291981 Si02
#       7
#     8   8   4   8   8   8   8
#     4  10  23  40  66  90 133 190 216 275 329 403
#     4  11  22  41  66  95 135 178 227 270 340 408
#     4  12  24  36  66 104 136 180 218 284 358 412
#     4  11  23  41  70  98 134 175 228 291 343 413
#     4  11  22  44  65 101 140 172 222 297 356 403
#     4  10  22  43  64  94 133 176 228 274 337 407
#     4  11  25  41  70 103 135 180 226 291 357 406
#
# _framework density 26.191206999999999
#
# number of rings (size 3 to 8) (size 9 to 14) (size 15 to 20)
#    0.000    1.231    1.538    5.077    4.308    2.462 
#    0.000    0.000    0.000    0.000    0.000    0.000 
#    0.000    0.000    0.000    0.000    0.000    0.000 
#
# Total GULP energy -145516.833743 kJ/mol
# GULP energy per Si atom -5596.801298 kJ/mol
# Density = 2.613159 g / cm^3
# Si number density = 26.191207 Si / 1000 Ang^3
#
#
#
# Elastic Constant Matrix: (Units=GPa)
#
#
# Indices 1 2 3 4 5 6 
#
# 1 106.1283 25.5100 10.7955 0.0000 1.1158 0.0000
# 2 25.5100 134.0783 15.3131 0.0000 -5.2347 0.0000
# 3 10.7955 15.3131 33.1777 0.0000 -2.8404 0.0000
# 4 0.0000 0.0000 0.0000 38.5089 0.0000 1.4284
# 5 1.1158 -5.2347 -2.8404 0.0000 47.8550 0.0000
# 6 0.0000 0.0000 0.0000 1.4284 0.0000 34.3177
#
#
#
# Elastic Compliance Matrix: (Units=1/GPa)
#
#
# Indices 1 2 3 4 5 6 
#
# 1 0.010086 -0.001648 -0.002570 0.000000 -0.000568 0.000000
# 2 -0.001648 0.008163 -0.003168 0.000000 0.000743 0.000000
# 3 -0.002570 -0.003168 0.032580 0.000000 0.001647 0.000000
# 4 0.000000 0.000000 0.000000 0.026008 0.000000 -0.001083
# 5 -0.000568 0.000743 0.001647 0.000000 0.021089 0.000000
# 6 0.000000 0.000000 0.000000 -0.001083 0.000000 0.029185
#
#
# Mechanical properties :
#
#
# Convention : Reuss Voigt Hill
#
# Bulk Modulus (GPa) = 27.73312 41.84685 34.78998
# Shear Modulus (GPa) = 32.48864 38.92071 35.70468
#
# Velocity S-wave (km/s) = 3.52581 3.85908 3.69620
# Velocity P-wave (km/s) = 5.21410 5.98905 5.61496
#
# Compressibility (1/GPa) = 0.03605797
#
# Stress axis : x y z
#
# Youngs Moduli (GPa) = 99.14744 122.50984 30.69371
#
# Poissons Ratio (x) = 0.20185 0.07888
# Poissons Ratio (y) = 0.16336 0.09723
# Poissons Ratio (z) = 0.25481 0.38807
#
# Static dielectric constant tensor:
#      x y z
#    x 2.085310 0.000000 -0.033100 
#    y 0.000000 2.103820 0.000000 
#    z -0.033100 0.000000 2.078310 
# 
# From -- ./inp_files/258863.got.cif
#   From: 2010.05.17/outbox.cif.g08.bks.cpg/sg15_130_cif.got.tgz:258863.got - 2010.06.03 18:47:42.
