data_PCOD9291704
_publ_section_title
;
Structure prediction by ZEFSAII (Michael W. Deem and Ramdas Pophale) SiO2 
 PCOD9291704
Probable space group: C 2/C
;
_chemical_formula_sum "Si O2"
_cell_formula_units_Z 56
_cell_length_a 9.689225
_cell_length_b 15.171270
_cell_length_c 20.060577
_cell_angle_alpha 90.000000
_cell_angle_beta 110.693246
_cell_angle_gamma 90.000000
_cell_volume 2758.617890
_symmetry_space_group_name_H-M "C 2/C"
_symmetry_group_IT_number 15
_symmetry_cell_setting 'monoclinic'
loop_
_space_group_symop_operation_xyz
x,y,z
-x,y,1/2-z
-x,-y,-z
x,-y,1/2+z
1/2+x,1/2+y,z
1/2-x,1/2+y,1/2-z
1/2-x,1/2-y,-z
1/2+x,1/2-y,1/2+z
loop_
_atom_site_type_symbol
_atom_site_label
_atom_site_fract_x
_atom_site_fract_y
_atom_site_fract_z
Si Si1 0.354809 0.211765 0.270958
Si Si2 0.887111 0.133394 0.873297
Si Si3 0.740305 0.987675 0.931216
Si Si4 0.875139 0.009936 0.099070
Si Si5 0.602816 0.338009 0.626005
Si Si6 0.586983 0.233985 0.001863
Si Si7 0.084196 0.574276 0.100321
O O1 0.500000 0.219547 0.250000
O O2 0.330426 0.301941 0.306976
O O3 0.213618 0.188538 0.202787
O O4 0.386759 0.135947 0.330835
O O5 0.937152 0.195189 0.943195
O O6 0.769520 0.065298 0.883575
O O7 0.022197 0.073874 0.871024
O O8 0.805250 0.898485 0.910154
O O9 0.570017 0.974573 0.918447
O O10 0.831994 0.008748 0.013510
O O11 0.724466 0.012061 0.113901
O O12 0.969750 0.098518 0.127693
O O13 0.530721 0.255877 0.575257
O O14 0.577279 0.139154 0.034887
O O15 0.750000 0.250000 0.000000
#
# Coordination Sequence:
#
# PCOD9291704 Si02
#       7
#     8   8   8   8   8   8   8
#     4  11  25  46  64  96 134 186 225 272 332 413
#     4  10  22  42  70  92 134 167 230 273 328 402
#     4  11  20  41  73 103 130 171 221 290 336 391
#     4  11  21  42  72 104 128 174 219 281 349 392
#     4  11  21  41  73  92 143 181 219 273 346 391
#     4  11  20  40  69 104 127 170 225 279 317 401
#     4  11  24  39  73  99 140 169 226 277 335 397
#
# _framework density 20.30002
#
# number of rings (size 3 to 8) (size 9 to 14) (size 15 to 20)
#    0.000    1.143    5.714    1.286    0.000    2.286 
#    5.143    0.000    9.429    0.000    0.000    0.000 
#    0.000    0.000    0.000    0.000    0.000    0.000 
#
# Total GULP energy -156650.697592 kJ/mol
# GULP energy per Si atom -5594.667771 kJ/mol
# Density = 2.025382 g / cm^3
# Si number density = 20.300020 Si / 1000 Ang^3
#
#
#
# Elastic Constant Matrix: (Units=GPa)
#
#
# Indices 1 2 3 4 5 6 
#
# 1 107.9327 36.2884 25.9582 0.0000 21.0359 0.0000
# 2 36.2884 82.8207 49.7001 0.0000 10.9915 0.0000
# 3 25.9582 49.7001 141.1392 0.0000 24.8410 0.0000
# 4 0.0000 0.0000 0.0000 30.8962 0.0000 -0.1624
# 5 21.0359 10.9915 24.8410 0.0000 30.7419 0.0000
# 6 0.0000 0.0000 0.0000 -0.1624 0.0000 18.4432
#
#
#
# Elastic Compliance Matrix: (Units=1/GPa)
#
#
# Indices 1 2 3 4 5 6 
#
# 1 0.012092 -0.004780 0.000717 0.000000 -0.007144 0.000000
# 2 -0.004780 0.017244 -0.005460 0.000000 0.001518 0.000000
# 3 0.000717 -0.005460 0.010048 0.000000 -0.006657 0.000000
# 4 0.000000 0.000000 0.000000 0.032368 0.000000 0.000285
# 5 -0.007144 0.001518 -0.006657 0.000000 0.042255 0.000000
# 6 0.000000 0.000000 0.000000 0.000285 0.000000 0.054223
#
#
# Mechanical properties :
#
#
# Convention : Reuss Voigt Hill
#
# Bulk Modulus (GPa) = 49.17204 61.75401 55.46302
# Shear Modulus (GPa) = 25.76579 30.67933 28.22256
#
# Velocity S-wave (km/s) = 3.56652 3.89176 3.73268
# Velocity P-wave (km/s) = 6.42147 7.11906 6.77925
#
# Compressibility (1/GPa) = 0.02033676
#
# Stress axis : x y z
#
# Youngs Moduli (GPa) = 82.69733 57.99132 99.52416
#
# Poissons Ratio (x) = 0.27721 -0.07133
# Poissons Ratio (y) = 0.39531 0.54342
# Poissons Ratio (z) = -0.05927 0.31664
#
# Static dielectric constant tensor:
#      x y z
#    x 1.714390 0.000000 -0.016930 
#    y 0.000000 1.716960 0.000000 
#    z -0.016930 0.000000 1.695230 
# 
# From -- ./inp_files/232790.got.cif
#   From: 2010.05.17/outbox.cif.g08.bks.cpg/sg15_117_cif.got.tgz:232790.got - 2010.06.03 18:47:42.
