data_PCOD9291045
_publ_section_title
;
Structure prediction by ZEFSAII (Michael W. Deem and Ramdas Pophale) SiO2 
 PCOD9291045
Probable space group: C 2/C
;
_chemical_formula_sum "Si O2"
_cell_formula_units_Z 44
_cell_length_a 23.816647
_cell_length_b 17.141739
_cell_length_c 5.227141
_cell_angle_alpha 90.000000
_cell_angle_beta 71.204324
_cell_angle_gamma 90.000000
_cell_volume 2020.226061
_symmetry_space_group_name_H-M "C 2/C"
_symmetry_group_IT_number 15
_symmetry_cell_setting 'monoclinic'
loop_
_space_group_symop_operation_xyz
x,y,z
-x,y,1/2-z
-x,-y,-z
x,-y,1/2+z
1/2+x,1/2+y,z
1/2-x,1/2+y,1/2-z
1/2-x,1/2-y,-z
1/2+x,1/2-y,1/2+z
loop_
_atom_site_type_symbol
_atom_site_label
_atom_site_fract_x
_atom_site_fract_y
_atom_site_fract_z
Si Si1 0.707528 0.448752 0.593921
Si Si2 0.399813 0.660687 0.112910
Si Si3 0.578082 0.173729 0.955045
Si Si4 0.000000 0.447852 0.750000
Si Si5 0.500000 0.271348 0.750000
Si Si6 0.500000 0.554272 0.750000
Si Si7 0.156163 0.553732 0.564299
O O1 0.699688 0.484677 0.323069
O O2 0.658728 0.384163 0.725656
O O3 0.775070 0.419766 0.522190
O O4 0.441606 0.676179 0.303860
O O5 0.388119 0.747412 0.017423
O O6 0.442617 0.609773 0.868427
O O7 0.558183 0.105817 0.169324
O O8 0.515810 0.211850 0.951545
O O9 0.613536 0.127276 0.681941
O O10 0.000000 0.500000 0.500000
O O11 0.500000 0.500000 0.500000
O O12 0.148797 0.507364 0.310459
#
# Coordination Sequence:
#
# PCOD9291045 Si02
#       7
#     8   8   8   4   4   4   8
#     4  10  22  43  68  96 129 171 224 274 326 391
#     4  10  22  42  63  97 135 173 216 274 326 392
#     4  10  22  42  63  97 135 173 216 274 326 392
#     4  12  24  40  63  91 126 172 220 260 324 384
#     4   8  22  38  62  92 136 170 210 266 314 402
#     4  12  24  40  63  91 126 172 220 260 324 384
#     4  10  22  43  68  96 129 171 224 274 326 391
#
# _framework density 21.779738999999999
#
# number of rings (size 3 to 8) (size 9 to 14) (size 15 to 20)
#    1.091    0.727    0.000    3.818    0.000    3.636 
#    0.000    0.000    0.000    6.545    0.000    0.000 
#    0.000    0.000    0.000    0.000    0.000    0.000 
#
# Total GULP energy -122640.732560 kJ/mol
# GULP energy per Si atom -5574.578753 kJ/mol
# Density = 2.173017 g / cm^3
# Si number density = 21.779739 Si / 1000 Ang^3
#
#
#
# Elastic Constant Matrix: (Units=GPa)
#
#
# Indices 1 2 3 4 5 6 
#
# 1 84.2617 44.9160 34.5425 0.0000 -14.8499 0.0000
# 2 44.9160 120.3868 62.1276 0.0000 -18.6422 0.0000
# 3 34.5425 62.1276 132.6780 0.0000 -5.4366 0.0000
# 4 0.0000 0.0000 0.0000 -12.4168 0.0000 26.9076
# 5 -14.8499 -18.6422 -5.4366 0.0000 37.9736 0.0000
# 6 0.0000 0.0000 0.0000 26.9076 0.0000 16.7460
#
#
#
# Elastic Compliance Matrix: (Units=1/GPa)
#
#
# Indices 1 2 3 4 5 6 
#
# 1 0.015573 -0.004244 -0.001914 0.000000 0.003732 0.000000
# 2 -0.004244 0.013001 -0.004817 0.000000 0.004033 0.000000
# 3 -0.001914 -0.004817 0.010224 0.000000 -0.001650 0.000000
# 4 0.000000 0.000000 0.000000 -0.017969 0.000000 0.028872
# 5 0.003732 0.004033 -0.001650 0.000000 0.029537 0.000000
# 6 0.000000 0.000000 0.000000 0.028872 0.000000 0.013323
#
#
# Mechanical properties :
#
#
# Convention : Reuss Voigt Hill
#
# Bulk Modulus (GPa) = 59.36356 68.94430 64.15393
# Shear Modulus (GPa) = 54.79119 21.50992 38.15055
#
# Velocity S-wave (km/s) = 5.02111 3.14604 4.18982
# Velocity P-wave (km/s) = 7.80583 6.70229 7.27501
#
# Compressibility (1/GPa) = 0.01684535
#
# Stress axis : x y z
#
# Youngs Moduli (GPa) = 64.21519 76.91842 97.81360
#
# Poissons Ratio (x) = 0.32648 0.18720
# Poissons Ratio (y) = 0.27256 0.47121
# Poissons Ratio (z) = 0.12290 0.37055
#
# Static dielectric constant tensor:
#      x y z
#    x 1.856900 0.000000 0.014860 
#    y 0.000000 1.840000 0.000000 
#    z 0.014860 0.000000 1.821160 
# 
# From -- ./inp_files/16923.got.cif
#   From: 2010.05.17/outbox.cif.g08.bks.cpg/sg15_9_cif.got.tgz:16923.got - 2010.06.03 18:47:42.
