data_PCOD9291004
_publ_section_title
;
Structure prediction by ZEFSAII (Michael W. Deem and Ramdas Pophale) SiO2 
 PCOD9291004
Probable space group: C 2/C
;
_chemical_formula_sum "Si O2"
_cell_formula_units_Z 64
_cell_length_a 12.865926
_cell_length_b 14.687093
_cell_length_c 31.330833
_cell_angle_alpha 90.000000
_cell_angle_beta 147.067452
_cell_angle_gamma 90.000000
_cell_volume 3218.616894
_symmetry_space_group_name_H-M "C 2/C"
_symmetry_group_IT_number 15
_symmetry_cell_setting 'monoclinic'
loop_
_space_group_symop_operation_xyz
x,y,z
-x,y,1/2-z
-x,-y,-z
x,-y,1/2+z
1/2+x,1/2+y,z
1/2-x,1/2+y,1/2-z
1/2-x,1/2-y,-z
1/2+x,1/2-y,1/2+z
loop_
_atom_site_type_symbol
_atom_site_label
_atom_site_fract_x
_atom_site_fract_y
_atom_site_fract_z
Si Si1 0.207484 0.477769 0.936186
Si Si2 0.753813 0.717250 0.452580
Si Si3 0.041986 0.866482 0.019297
Si Si4 0.718100 0.966347 0.744113
Si Si5 0.779789 0.385614 0.187289
Si Si6 0.701576 0.604216 0.798535
Si Si7 0.435881 0.966653 0.024360
Si Si8 0.831845 0.756050 0.778397
O O1 0.344471 0.564892 0.973735
O O2 0.152055 0.471363 0.967385
O O3 0.006430 0.486284 0.842388
O O4 0.327827 0.396864 0.956093
O O5 0.750000 0.750000 0.500000
O O6 0.929893 0.767052 0.490261
O O7 0.778598 0.610101 0.461625
O O8 0.561668 0.744248 0.361605
O O9 0.151399 0.874741 0.101720
O O10 0.772991 0.022330 0.805296
O O11 0.821870 0.018002 0.741144
O O12 0.759742 0.859374 0.757810
O O13 0.766227 0.297608 0.213453
O O14 0.000000 0.393363 0.250000
O O15 0.500000 0.621581 0.750000
O O16 0.760951 0.692356 0.792190
O O17 0.876249 0.579063 0.889764
O O18 0.500000 0.000000 0.000000
#
# Coordination Sequence:
#
# PCOD9291004 Si02
#       8
#     8   8   8   8   8   8   8   8
#     4  10  22  42  62  98 129 161 215 264 322 375
#     4  12  22  42  65  93 125 168 217 257 325 382
#     4  11  22  39  70  95 128 167 211 276 313 388
#     4  10  23  41  64  93 129 166 205 264 319 390
#     4  11  21  41  62  94 130 161 208 263 324 366
#     4  10  23  43  60  90 132 163 206 267 312 372
#     4  11  25  42  64  92 130 171 212 263 320 389
#     4  11  24  40  65  94 127 165 214 264 314 396
#
# _framework density 19.884315999999998
#
# number of rings (size 3 to 8) (size 9 to 14) (size 15 to 20)
#    0.000    1.250    5.000    0.750    3.500    5.000 
#    0.000    1.250    0.000    0.000    0.000    0.000 
#    0.000    0.000    0.000    0.000    0.000    0.000 
#
# Total GULP energy -178678.352210 kJ/mol
# GULP energy per Si atom -5583.698507 kJ/mol
# Density = 1.983906 g / cm^3
# Si number density = 19.884316 Si / 1000 Ang^3
#
#
#
# Elastic Constant Matrix: (Units=GPa)
#
#
# Indices 1 2 3 4 5 6 
#
# 1 107.1732 34.0723 23.0757 0.0000 -13.4661 0.0000
# 2 34.0723 103.3953 -2.5654 0.0000 -17.4036 0.0000
# 3 23.0757 -2.5654 26.7950 -0.0002 -17.3934 0.0000
# 4 0.0000 0.0000 -0.0002 17.0737 0.0000 8.4668
# 5 -13.4661 -17.4036 -17.3934 0.0000 37.3910 0.0000
# 6 0.0000 0.0000 0.0000 8.4668 0.0000 32.9075
#
#
#
# Elastic Compliance Matrix: (Units=1/GPa)
#
#
# Indices 1 2 3 4 5 6 
#
# 1 0.013977 -0.005857 -0.015901 0.000000 -0.005089 0.000000
# 2 -0.005857 0.013663 0.013052 0.000000 0.010322 0.000000
# 3 -0.015901 0.013052 0.075197 0.000001 0.035328 0.000000
# 4 0.000000 0.000000 0.000001 0.067135 0.000001 -0.017273
# 5 -0.005089 0.010322 0.035328 0.000001 0.046149 0.000000
# 6 0.000000 0.000000 0.000000 -0.017273 0.000000 0.034832
#
#
# Mechanical properties :
#
#
# Convention : Reuss Voigt Hill
#
# Bulk Modulus (GPa) = 11.70630 38.50318 25.10474
# Shear Modulus (GPa) = 16.84403 29.65984 23.25193
#
# Velocity S-wave (km/s) = 2.91366 3.86634 3.42330
# Velocity P-wave (km/s) = 4.14960 6.27193 5.31772
#
# Compressibility (1/GPa) = 0.08542406
#
# Stress axis : x y z
#
# Youngs Moduli (GPa) = 71.54565 73.19063 13.29848
#
# Poissons Ratio (x) = 0.42869 0.21146
# Poissons Ratio (y) = 0.41905 -0.17358
# Poissons Ratio (z) = 1.13768 -0.95531
#
# Static dielectric constant tensor:
#      x y z
#    x 1.727950 0.000000 -0.033420 
#    y 0.000000 1.706440 0.000000 
#    z -0.033420 0.000000 1.712240 
# 
# From -- ./inp_files/293075.got.cif
#   From: 2010.05.17/outbox.cif.g08.bks.cpg/sg15_147_cif.got.tgz:293075.got - 2010.06.03 18:47:42.
