data_PCOD9291785
_publ_section_title
;
Structure prediction by ZEFSAII (Michael W. Deem and Ramdas Pophale) SiO2 
 PCOD9291785
Probable space group: C 2/C
;
_chemical_formula_sum "Si O2"
_cell_formula_units_Z 48
_cell_length_a 19.556472
_cell_length_b 5.279262
_cell_length_c 19.233323
_cell_angle_alpha 90.000000
_cell_angle_beta 81.829696
_cell_angle_gamma 90.000000
_cell_volume 1965.565172
_symmetry_space_group_name_H-M "C 2/C"
_symmetry_group_IT_number 15
_symmetry_cell_setting 'monoclinic'
loop_
_space_group_symop_operation_xyz
x,y,z
-x,y,1/2-z
-x,-y,-z
x,-y,1/2+z
1/2+x,1/2+y,z
1/2-x,1/2+y,1/2-z
1/2-x,1/2-y,-z
1/2+x,1/2-y,1/2+z
loop_
_atom_site_type_symbol
_atom_site_label
_atom_site_fract_x
_atom_site_fract_y
_atom_site_fract_z
Si Si1 0.129650 0.181925 0.586365
Si Si2 0.893406 0.432951 0.049435
Si Si3 0.837987 0.067437 0.229127
Si Si4 0.023550 0.186654 0.057989
Si Si5 0.582884 0.931714 0.729813
Si Si6 0.768408 0.417774 0.142414
O O1 0.134092 0.233319 0.503425
O O2 0.104198 0.392618 0.645449
O O3 0.070703 0.967014 0.603761
O O4 0.205857 0.112541 0.598894
O O5 0.831697 0.563322 0.098744
O O6 0.952733 0.320770 0.091212
O O7 0.931209 0.615814 0.990522
O O8 0.882172 0.309187 0.248982
O O9 0.806111 0.156156 0.160129
O O10 0.769213 0.038474 0.286382
O O11 0.882584 0.811928 0.235146
O O12 0.000000 0.000000 0.000000
O O13 0.500000 0.932002 0.750000
#
# Coordination Sequence:
#
# PCOD9291785 Si02
#       6
#     8   8   8   8   8   8
#     4  10  23  41  67 104 141 177 241 296 352 439
#     4  10  22  42  71  97 138 187 229 295 362 422
#     4  11  26  48  68 109 143 190 248 300 355 443
#     4   9  21  42  60 102 134 175 235 288 343 430
#     4  11  26  47  77 104 146 192 243 304 364 425
#     4  11  24  46  70 101 142 189 234 296 366 429
#
# _framework density 24.420456999999999
#
# number of rings (size 3 to 8) (size 9 to 14) (size 15 to 20)
#    0.000    1.667    0.000    3.000    7.000    4.667 
#   21.000    0.000    0.000    0.000    0.000    0.000 
#    0.000    0.000    0.000    0.000    0.000    0.000 
#
# Total GULP energy -134127.625137 kJ/mol
# GULP energy per Si atom -5588.651047 kJ/mol
# Density = 2.436487 g / cm^3
# Si number density = 24.420457 Si / 1000 Ang^3
#
#
#
# Elastic Constant Matrix: (Units=GPa)
#
#
# Indices 1 2 3 4 5 6 
#
# 1 195.2594 49.6693 51.4980 0.0000 -5.3456 0.0000
# 2 49.6693 100.8408 16.0030 0.0000 22.7556 0.0000
# 3 51.4980 16.0030 68.4300 0.0000 5.1562 0.0000
# 4 0.0000 0.0000 0.0000 11.6179 0.0000 8.7664
# 5 -5.3456 22.7556 5.1562 0.0000 43.9740 0.0000
# 6 0.0000 0.0000 0.0000 8.7664 0.0000 33.8397
#
#
#
# Elastic Compliance Matrix: (Units=1/GPa)
#
#
# Indices 1 2 3 4 5 6 
#
# 1 0.007465 -0.003643 -0.005021 0.000000 0.003381 0.000000
# 2 -0.003643 0.013346 0.000176 0.000000 -0.007370 0.000000
# 3 -0.005021 0.000176 0.018568 0.000000 -0.002878 0.000000
# 4 0.000000 0.000000 0.000000 0.106987 0.000000 -0.027716
# 5 0.003381 -0.007370 -0.002878 0.000000 0.027303 0.000000
# 6 0.000000 0.000000 0.000000 -0.027716 0.000000 0.036731
#
#
# Mechanical properties :
#
#
# Convention : Reuss Voigt Hill
#
# Bulk Modulus (GPa) = 44.63701 66.54118 55.58909
# Shear Modulus (GPa) = 21.29079 34.37697 27.83388
#
# Velocity S-wave (km/s) = 2.95590 3.75602 3.37972
# Velocity P-wave (km/s) = 5.47430 6.79099 6.16788
#
# Compressibility (1/GPa) = 0.02240294
#
# Stress axis : x y z
#
# Youngs Moduli (GPa) = 133.96190 74.92767 53.85742
#
# Poissons Ratio (x) = 0.27297 0.27039
# Poissons Ratio (y) = 0.48804 -0.00947
# Poissons Ratio (z) = 0.67256 -0.01318
#
# Static dielectric constant tensor:
#      x y z
#    x 1.852350 0.000000 -0.146660 
#    y 0.000000 1.187600 0.000000 
#    z -0.146660 0.000000 1.717640 
# 
# From -- ./inp_files/275625.got.cif
#   From: 2010.05.17/outbox.cif.g08.bks.cpg/sg15_138_cif.got.tgz:275625.got - 2010.06.03 18:47:42.
