data_PCOD9291115
_publ_section_title
;
Structure prediction by ZEFSAII (Michael W. Deem and Ramdas Pophale) SiO2 
 PCOD9291115
Probable space group: C 2/C
;
_chemical_formula_sum "Si O2"
_cell_formula_units_Z 44
_cell_length_a 19.310793
_cell_length_b 21.638178
_cell_length_c 5.513836
_cell_angle_alpha 90.000000
_cell_angle_beta 72.325944
_cell_angle_gamma 90.000000
_cell_volume 2195.209425
_symmetry_space_group_name_H-M "C 2/C"
_symmetry_group_IT_number 15
_symmetry_cell_setting 'monoclinic'
loop_
_space_group_symop_operation_xyz
x,y,z
-x,y,1/2-z
-x,-y,-z
x,-y,1/2+z
1/2+x,1/2+y,z
1/2-x,1/2+y,1/2-z
1/2-x,1/2-y,-z
1/2+x,1/2-y,1/2+z
loop_
_atom_site_type_symbol
_atom_site_label
_atom_site_fract_x
_atom_site_fract_y
_atom_site_fract_z
Si Si1 0.189259 0.265108 0.260020
Si Si2 0.071863 0.738023 0.544313
Si Si3 0.819141 0.171904 0.848250
Si Si4 0.775739 0.036357 0.805349
Si Si5 0.397953 0.037343 0.522782
Si Si6 0.000000 0.355950 0.750000
O O1 0.121570 0.294076 0.196018
O O2 0.164906 0.200771 0.406199
O O3 0.234527 0.307274 0.396040
O O4 0.250000 0.250000 0.000000
O O5 0.123142 0.790850 0.377160
O O6 0.047106 0.688677 0.371965
O O7 0.000000 0.763061 0.750000
O O8 0.819153 0.099775 0.801458
O O9 0.688818 0.049505 0.895439
O O10 0.790872 0.993614 0.025453
O O11 0.446360 0.098298 0.450203
O O12 0.413212 0.002465 0.760788
#
# Coordination Sequence:
#
# PCOD9291115 Si02
#       6
#     8   8   8   8   8   4
#     4   9  21  37  64  93 126 172 213 274 339 390
#     4  11  25  39  60  98 130 175 220 273 335 402
#     4  10  22  42  64  95 132 166 225 281 339 392
#     4  10  24  41  69  99 126 173 227 279 332 395
#     4  10  24  43  62  93 134 183 227 269 319 394
#     4  12  26  38  64  92 136 180 222 262 334 400
#
# _framework density 20.043645999999999
#
# number of rings (size 3 to 8) (size 9 to 14) (size 15 to 20)
#    0.000    1.818    0.000    1.636   17.818    1.455 
#    0.000    0.000    0.000    1.091    0.000    0.000 
#    0.000    0.000    0.000    0.000    0.000    0.000 
#
# Total GULP energy -122770.283678 kJ/mol
# GULP energy per Si atom -5580.467440 kJ/mol
# Density = 1.999803 g / cm^3
# Si number density = 20.043646 Si / 1000 Ang^3
#
#
#
# Elastic Constant Matrix: (Units=GPa)
#
#
# Indices 1 2 3 4 5 6 
#
# 1 101.2078 45.7924 42.5596 0.0000 5.7679 0.0000
# 2 45.7924 113.1540 29.0733 0.0000 -3.2872 0.0000
# 3 42.5596 29.0733 83.7560 0.0000 1.3661 0.0000
# 4 0.0000 0.0000 0.0000 11.6919 0.0000 -14.9889
# 5 5.7679 -3.2872 1.3661 0.0000 35.6880 0.0000
# 6 0.0000 0.0000 0.0000 -14.9889 0.0000 28.5026
#
#
#
# Elastic Compliance Matrix: (Units=1/GPa)
#
#
# Indices 1 2 3 4 5 6 
#
# 1 0.014459 -0.004444 -0.005763 0.000000 -0.002526 0.000000
# 2 -0.004444 0.011106 -0.001626 0.000000 0.001803 0.000000
# 3 -0.005763 -0.001626 0.015429 0.000000 0.000191 0.000000
# 4 0.000000 0.000000 0.000000 0.262500 0.000000 0.138043
# 5 -0.002526 0.001803 0.000191 0.000000 0.028588 0.000000
# 6 0.000000 0.000000 0.000000 0.138043 0.000000 0.107679
#
#
# Mechanical properties :
#
#
# Convention : Reuss Voigt Hill
#
# Bulk Modulus (GPa) = 57.71306 59.21871 58.46588
# Shear Modulus (GPa) = 10.65634 27.22266 18.93950
#
# Velocity S-wave (km/s) = 2.30827 3.68933 3.07728
# Velocity P-wave (km/s) = 5.99669 6.91066 6.46984
#
# Compressibility (1/GPa) = 0.01732710
#
# Stress axis : x y z
#
# Youngs Moduli (GPa) = 69.16167 90.03963 64.81103
#
# Poissons Ratio (x) = 0.40013 0.37353
# Poissons Ratio (y) = 0.30735 0.10541
# Poissons Ratio (z) = 0.39860 0.14645
#
# Static dielectric constant tensor:
#      x y z
#    x 1.742190 0.000000 0.033160 
#    y 0.000000 1.718260 0.000000 
#    z 0.033160 0.000000 1.769610 
# 
# From -- ./inp_files/10271.got.cif
#   From: 2010.05.17/outbox.cif.g08.bks.cpg/sg15_6_cif.got.tgz:10271.got - 2010.06.03 18:47:42.
