data_PCOD9291220
_publ_section_title
;
Structure prediction by ZEFSAII (Michael W. Deem and Ramdas Pophale) SiO2 
 PCOD9291220
Probable space group: C 2/C
;
_chemical_formula_sum "Si O2"
_cell_formula_units_Z 56
_cell_length_a 10.796274
_cell_length_b 9.621513
_cell_length_c 25.285331
_cell_angle_alpha 90.000000
_cell_angle_beta 56.308078
_cell_angle_gamma 90.000000
_cell_volume 2185.375749
_symmetry_space_group_name_H-M "C 2/C"
_symmetry_group_IT_number 15
_symmetry_cell_setting 'monoclinic'
loop_
_space_group_symop_operation_xyz
x,y,z
-x,y,1/2-z
-x,-y,-z
x,-y,1/2+z
1/2+x,1/2+y,z
1/2-x,1/2+y,1/2-z
1/2-x,1/2-y,-z
1/2+x,1/2-y,1/2+z
loop_
_atom_site_type_symbol
_atom_site_label
_atom_site_fract_x
_atom_site_fract_y
_atom_site_fract_z
Si Si1 0.034131 0.842966 0.035394
Si Si2 0.293680 0.074021 0.847005
Si Si3 0.661425 0.648376 0.683795
Si Si4 0.755391 0.637627 0.259821
Si Si5 0.555386 0.145493 0.122743
Si Si6 0.116424 0.859751 0.535801
Si Si7 0.424702 0.633669 0.330882
O O1 0.065291 0.705113 0.061520
O O2 0.877017 0.899094 0.096853
O O3 0.003230 0.818686 0.980960
O O4 0.141859 0.975218 0.018314
O O5 0.301905 0.974941 0.793715
O O6 0.378370 0.001405 0.875705
O O7 0.368180 0.222333 0.821156
O O8 0.500000 0.661391 0.750000
O O9 0.764832 0.716164 0.703896
O O10 0.650537 0.746263 0.635442
O O11 0.682644 0.494959 0.656894
O O12 0.888065 0.650777 0.186453
O O13 0.594683 0.596735 0.275858
O O14 0.250000 0.750000 0.500000
O O15 0.067189 0.852872 0.607788
#
# Coordination Sequence:
#
# PCOD9291220 Si02
#       7
#     8   8   8   8   8   8   8
#     4  11  23  44  73  89 132 183 215 276 339 380
#     4  11  23  40  66  99 132 170 219 272 327 391
#     4   9  20  39  62  89 129 173 210 258 321 393
#     4  10  23  42  62  95 141 170 213 270 325 401
#     4  10  22  42  65  97 135 175 212 264 336 401
#     4  11  23  45  71  95 127 175 230 278 328 390
#     4  12  23  41  67  97 129 172 229 269 326 394
#
# _framework density 25.624883000000001
#
# number of rings (size 3 to 8) (size 9 to 14) (size 15 to 20)
#    0.000    1.429    4.286    1.286    0.000    8.000 
#    0.000    5.000    0.000    0.000    0.000    0.000 
#    0.000    0.000    0.000    0.000    0.000    0.000 
#
# Total GULP energy -156904.540704 kJ/mol
# GULP energy per Si atom -5603.733597 kJ/mol
# Density = 2.556656 g / cm^3
# Si number density = 25.624883 Si / 1000 Ang^3
#
#
#
# Elastic Constant Matrix: (Units=GPa)
#
#
# Indices 1 2 3 4 5 6 
#
# 1 96.8859 54.3196 19.1567 0.0000 1.1103 0.0000
# 2 54.3196 128.7928 9.1932 0.0000 8.2487 0.0000
# 3 19.1567 9.1932 87.8504 0.0000 9.2562 0.0000
# 4 0.0000 0.0000 0.0000 35.3321 0.0000 6.5646
# 5 1.1103 8.2487 9.2562 0.0000 44.1602 0.0000
# 6 0.0000 0.0000 0.0000 6.5646 0.0000 57.3306
#
#
#
# Elastic Compliance Matrix: (Units=1/GPa)
#
#
# Indices 1 2 3 4 5 6 
#
# 1 0.014095 -0.005842 -0.002597 0.000000 0.001281 0.000000
# 2 -0.005842 0.010320 0.000390 0.000000 -0.001862 0.000000
# 3 -0.002597 0.000390 0.012178 0.000000 -0.002560 0.000000
# 4 0.000000 0.000000 0.000000 0.028918 0.000000 -0.003311
# 5 0.001281 -0.001862 -0.002560 0.000000 0.023497 0.000000
# 6 0.000000 0.000000 0.000000 -0.003311 0.000000 0.017822
#
#
# Mechanical properties :
#
#
# Convention : Reuss Voigt Hill
#
# Bulk Modulus (GPa) = 48.79050 53.20757 50.99904
# Shear Modulus (GPa) = 38.53277 42.75520 40.64398
#
# Velocity S-wave (km/s) = 3.88200 4.08916 3.98693
# Velocity P-wave (km/s) = 6.25898 6.56537 6.41400
#
# Compressibility (1/GPa) = 0.02049579
#
# Stress axis : x y z
#
# Youngs Moduli (GPa) = 70.94530 96.90334 82.11337
#
# Poissons Ratio (x) = 0.56606 0.21328
# Poissons Ratio (y) = 0.41443 -0.03204
# Poissons Ratio (z) = 0.18427 -0.03781
#
# Static dielectric constant tensor:
#      x y z
#    x 2.012280 0.000000 0.001120 
#    y 0.000000 2.011550 0.000000 
#    z 0.001120 0.000000 2.057590 
# 
# From -- ./inp_files/310230.got.cif
#   From: 2010.05.17/outbox.cif.g08.bks.cpg/sg15_156_cif.got.tgz:310230.got - 2010.06.03 18:47:42.
