data_PCOD9291250
_publ_section_title
;
Structure prediction by ZEFSAII (Michael W. Deem and Ramdas Pophale) SiO2 
 PCOD9291250
Probable space group: C 2/C
;
_chemical_formula_sum "Si O2"
_cell_formula_units_Z 56
_cell_length_a 8.602529
_cell_length_b 16.344208
_cell_length_c 23.387767
_cell_angle_alpha 90.000000
_cell_angle_beta 126.751318
_cell_angle_gamma 90.000000
_cell_volume 2634.762255
_symmetry_space_group_name_H-M "C 2/C"
_symmetry_group_IT_number 15
_symmetry_cell_setting 'monoclinic'
loop_
_space_group_symop_operation_xyz
x,y,z
-x,y,1/2-z
-x,-y,-z
x,-y,1/2+z
1/2+x,1/2+y,z
1/2-x,1/2+y,1/2-z
1/2-x,1/2-y,-z
1/2+x,1/2-y,1/2+z
loop_
_atom_site_type_symbol
_atom_site_label
_atom_site_fract_x
_atom_site_fract_y
_atom_site_fract_z
Si Si1 0.835028 0.044249 0.427862
Si Si2 0.369085 0.768894 0.777133
Si Si3 0.130540 0.935898 0.699978
Si Si4 0.693988 0.924409 0.576756
Si Si5 0.638095 0.185440 0.438524
Si Si6 0.535822 0.935538 0.423554
Si Si7 0.644454 0.898206 0.227733
O O1 0.852237 0.045860 0.364114
O O2 0.807327 0.133381 0.446462
O O3 0.638490 0.999634 0.403733
O O4 0.000000 0.000000 0.500000
O O5 0.500000 0.758438 0.750000
O O6 0.249612 0.854433 0.743623
O O7 0.514158 0.776980 0.861181
O O8 0.250660 0.686812 0.763726
O O9 0.099653 0.915190 0.846244
O O10 0.218587 0.019735 0.747165
O O11 0.519677 0.867736 0.561115
O O12 0.688423 0.910319 0.506657
O O13 0.630046 0.017593 0.577075
O O14 0.750000 0.250000 0.500000
O O15 0.447562 0.878436 0.355482
O O16 0.500000 0.913931 0.250000
#
# Coordination Sequence:
#
# PCOD9291250 Si02
#       7
#     8   8   8   8   8   8   8
#     4  11  21  42  72 103 133 188 240 290 360 432
#     4  12  29  49  72 108 145 191 247 299 364 437
#     4  12  24  48  75 101 146 193 241 306 363 426
#     4  10  24  41  72 102 138 186 237 296 359 424
#     4  11  27  46  70  99 150 191 236 304 366 426
#     4  10  22  42  66 104 138 173 240 289 348 432
#     4  12  28  44  74 105 144 188 242 295 365 435
#
# _framework density 21.254290000000001
#
# number of rings (size 3 to 8) (size 9 to 14) (size 15 to 20)
#    0.000    0.857    4.286    2.143    8.000    1.143 
#    0.000    1.429    0.000    0.000    0.000    0.000 
#    0.000    0.000    0.000    0.000    0.000    0.000 
#
# Total GULP energy -156187.310949 kJ/mol
# GULP energy per Si atom -5578.118248 kJ/mol
# Density = 2.120591 g / cm^3
# Si number density = 21.254290 Si / 1000 Ang^3
#
#
#
# Elastic Constant Matrix: (Units=GPa)
#
#
# Indices 1 2 3 4 5 6 
#
# 1 58.8570 16.2033 26.3531 0.0000 7.3125 0.0000
# 2 16.2033 93.8176 43.8111 0.0000 20.2202 0.0000
# 3 26.3531 43.8111 152.0792 0.0000 9.3849 0.0000
# 4 0.0000 0.0000 0.0000 38.7086 0.0000 14.1582
# 5 7.3125 20.2202 9.3849 0.0000 41.0883 0.0000
# 6 0.0000 0.0000 0.0000 14.1582 0.0000 22.7391
#
#
#
# Elastic Compliance Matrix: (Units=1/GPa)
#
#
# Indices 1 2 3 4 5 6 
#
# 1 0.018876 -0.001577 -0.002695 0.000000 -0.001967 0.000000
# 2 -0.001577 0.013715 -0.003325 0.000000 -0.005709 0.000000
# 3 -0.002695 -0.003325 0.007982 0.000000 0.000293 0.000000
# 4 0.000000 0.000000 0.000000 0.033453 0.000000 -0.020829
# 5 -0.001967 -0.005709 0.000293 0.000000 0.027431 0.000000
# 6 0.000000 0.000000 0.000000 -0.020829 0.000000 0.056946
#
#
# Mechanical properties :
#
#
# Convention : Reuss Voigt Hill
#
# Bulk Modulus (GPa) = 39.40535 53.05431 46.22983
# Shear Modulus (GPa) = 27.46398 35.06628 31.26513
#
# Velocity S-wave (km/s) = 3.59856 4.06623 3.83953
# Velocity P-wave (km/s) = 5.98719 6.86014 6.43848
#
# Compressibility (1/GPa) = 0.02537726
#
# Stress axis : x y z
#
# Youngs Moduli (GPa) = 52.97806 72.91436 125.27544
#
# Poissons Ratio (x) = 0.11502 0.33762
# Poissons Ratio (y) = 0.08357 0.41658
# Poissons Ratio (z) = 0.14278 0.24246
#
# Static dielectric constant tensor:
#      x y z
#    x 1.892440 0.000000 -0.023650 
#    y 0.000000 1.795240 0.000000 
#    z -0.023650 0.000000 1.817490 
# 
# From -- ./inp_files/232780.got.cif
#   From: 2010.05.17/outbox.cif.g08.bks.cpg/sg15_117_cif.got.tgz:232780.got - 2010.06.03 18:47:42.
