data_PCOD9291734
_publ_section_title
;
Structure prediction by ZEFSAII (Michael W. Deem and Ramdas Pophale) SiO2 
 PCOD9291734
Probable space group: C 2/C
;
_chemical_formula_sum "Si O2"
_cell_formula_units_Z 40
_cell_length_a 12.143441
_cell_length_b 8.232118
_cell_length_c 17.069944
_cell_angle_alpha 90.000000
_cell_angle_beta 69.147771
_cell_angle_gamma 90.000000
_cell_volume 1594.650423
_symmetry_space_group_name_H-M "C 2/C"
_symmetry_group_IT_number 15
_symmetry_cell_setting 'monoclinic'
loop_
_space_group_symop_operation_xyz
x,y,z
-x,y,1/2-z
-x,-y,-z
x,-y,1/2+z
1/2+x,1/2+y,z
1/2-x,1/2+y,1/2-z
1/2-x,1/2-y,-z
1/2+x,1/2-y,1/2+z
loop_
_atom_site_type_symbol
_atom_site_label
_atom_site_fract_x
_atom_site_fract_y
_atom_site_fract_z
Si Si1 0.932033 0.338129 0.434637
Si Si2 0.867140 0.765898 0.797016
Si Si3 0.073654 0.325078 0.652662
Si Si4 0.882589 0.153501 0.600006
Si Si5 0.166210 0.183348 0.364208
O O1 0.073781 0.326879 0.399834
O O2 0.883031 0.202279 0.385403
O O3 0.904257 0.514371 0.406245
O O4 0.885458 0.285099 0.530062
O O5 0.746061 0.665535 0.826325
O O6 0.848124 0.871626 0.723785
O O7 0.000000 0.697644 0.750000
O O8 0.202837 0.268635 0.646186
O O9 0.000000 0.361488 0.750000
O O10 0.992211 0.199121 0.626760
O O11 0.882099 0.967281 0.573257
#
# Coordination Sequence:
#
# PCOD9291734 Si02
#       5
#     8   8   8   8   8
#     4  11  25  48  70 102 145 182 223 291 351 405
#     4  10  22  42  70  97 132 184 224 275 340 408
#     4  12  25  44  72 100 140 186 232 283 341 412
#     4  12  25  46  73 104 139 182 232 287 349 402
#     4  11  25  45  69 101 140 179 234 286 337 419
#
# _framework density 25.083866
#
# number of rings (size 3 to 8) (size 9 to 14) (size 15 to 20)
#    0.000    0.800    4.000    3.600    0.000    3.200 
#    7.200    0.000    0.000    0.000    0.000    0.000 
#    0.000    0.000    0.000    0.000    0.000    0.000 
#
# Total GULP energy -111546.809990 kJ/mol
# GULP energy per Si atom -5577.340499 kJ/mol
# Density = 2.502677 g / cm^3
# Si number density = 25.083866 Si / 1000 Ang^3
#
#
#
# Elastic Constant Matrix: (Units=GPa)
#
#
# Indices 1 2 3 4 5 6 
#
# 1 252.5893 29.3068 43.6124 0.0000 0.4725 0.0000
# 2 29.3068 25.1655 6.1517 0.0000 4.8314 0.0000
# 3 43.6124 6.1517 49.1144 0.0000 5.9338 0.0000
# 4 0.0000 0.0000 0.0000 24.4564 0.0000 8.6440
# 5 0.4725 4.8314 5.9338 0.0000 19.2943 0.0000
# 6 0.0000 0.0000 0.0000 8.6440 0.0000 28.8992
#
#
#
# Elastic Compliance Matrix: (Units=1/GPa)
#
#
# Indices 1 2 3 4 5 6 
#
# 1 0.005370 -0.005691 -0.004374 0.000000 0.002639 0.000000
# 2 -0.005691 0.048592 0.000436 0.000000 -0.012163 0.000000
# 3 -0.004374 0.000436 0.025124 0.000000 -0.007729 0.000000
# 4 0.000000 0.000000 0.000000 0.045723 0.000000 -0.013676
# 5 0.002639 -0.012163 -0.007729 0.000000 0.057187 0.000000
# 6 0.000000 0.000000 0.000000 -0.013676 0.000000 0.038694
#
#
# Mechanical properties :
#
#
# Convention : Reuss Voigt Hill
#
# Bulk Modulus (GPa) = 16.71434 53.89011 35.30222
# Shear Modulus (GPa) = 19.23900 31.04987 25.14444
#
# Velocity S-wave (km/s) = 2.77246 3.52212 3.16953
# Velocity P-wave (km/s) = 4.11419 6.17017 5.24393
#
# Compressibility (1/GPa) = 0.05982886
#
# Stress axis : x y z
#
# Youngs Moduli (GPa) = 186.23597 20.57936 39.80290
#
# Poissons Ratio (x) = 0.11711 0.17410
# Poissons Ratio (y) = 1.05978 -0.01736
# Poissons Ratio (z) = 0.81461 -0.00898
#
# Static dielectric constant tensor:
#      x y z
#    x 1.947150 0.000000 -0.015840 
#    y 0.000000 2.023450 0.000000 
#    z -0.015840 0.000000 2.093540 
# 
# From -- ./inp_files/195109.got.cif
#   From: 2010.05.17/outbox.cif.g08.bks.cpg/sg15_98_cif.got.tgz:195109.got - 2010.06.03 18:47:42.
