data_PCOD9291107
_publ_section_title
;
Structure prediction by ZEFSAII (Michael W. Deem and Ramdas Pophale) SiO2 
 PCOD9291107
Probable space group: C 2/C
;
_chemical_formula_sum "Si O2"
_cell_formula_units_Z 60
_cell_length_a 29.662245
_cell_length_b 15.481464
_cell_length_c 18.418175
_cell_angle_alpha 90.000000
_cell_angle_beta 161.358341
_cell_angle_gamma 90.000000
_cell_volume 2703.554235
_symmetry_space_group_name_H-M "C 2/C"
_symmetry_group_IT_number 15
_symmetry_cell_setting 'monoclinic'
loop_
_space_group_symop_operation_xyz
x,y,z
-x,y,1/2-z
-x,-y,-z
x,-y,1/2+z
1/2+x,1/2+y,z
1/2-x,1/2+y,1/2-z
1/2-x,1/2-y,-z
1/2+x,1/2-y,1/2+z
loop_
_atom_site_type_symbol
_atom_site_label
_atom_site_fract_x
_atom_site_fract_y
_atom_site_fract_z
Si Si1 0.000000 0.752036 0.250000
Si Si2 0.543939 0.758938 0.533939
Si Si3 0.137159 0.028260 0.328004
Si Si4 0.187232 0.027946 0.146860
Si Si5 0.307135 0.357497 0.718953
Si Si6 0.715839 0.843507 0.183589
Si Si7 0.735139 0.384066 0.567416
Si Si8 0.743319 0.817833 0.397608
O O1 0.087268 0.696429 0.441699
O O2 0.106969 0.816294 0.372014
O O3 0.462259 0.686424 0.455782
O O4 0.647338 0.708865 0.637411
O O5 0.629787 0.825586 0.713427
O O6 0.410132 0.811254 0.298122
O O7 0.175586 0.061776 0.307450
O O8 0.162058 0.111611 0.418590
O O9 0.234107 0.948114 0.498622
O O10 0.977230 0.995880 0.093205
O O11 0.229023 0.111980 0.256617
O O12 0.214195 0.052646 0.104841
O O13 0.269153 0.945878 0.303239
O O14 0.210123 0.282549 0.536529
O O15 0.714686 0.836784 0.269142
#
# Coordination Sequence:
#
# PCOD9291107 Si02
#       8
#     4   8   8   8   8   8   8   8
#     4  10  22  42  64  94 128 170 218 274 324 404
#     4   9  23  41  65  94 130 179 210 275 336 391
#     4  12  22  39  67 100 130 174 228 272 320 399
#     4  12  22  42  67 100 127 180 217 284 323 399
#     4  10  23  42  64  93 135 167 226 271 330 386
#     4  11  22  43  68  96 137 169 224 278 339 388
#     4  11  22  41  68  94 131 172 231 265 332 398
#     4  10  23  43  67  97 132 181 216 273 331 402
#
# _framework density 22.193007000000001
#
# number of rings (size 3 to 8) (size 9 to 14) (size 15 to 20)
#    0.800    0.533    4.000    2.400    0.000    0.533 
#    2.400    2.000    0.000    0.000    0.000    0.000 
#    0.000    0.000    0.000    0.000    0.000    0.000 
#
# Total GULP energy -167499.514932 kJ/mol
# GULP energy per Si atom -5583.317164 kJ/mol
# Density = 2.214249 g / cm^3
# Si number density = 22.193007 Si / 1000 Ang^3
#
#
#
# Elastic Constant Matrix: (Units=GPa)
#
#
# Indices 1 2 3 4 5 6 
#
# 1 35.7639 -3.0445 19.3418 0.0000 -7.7505 0.0000
# 2 -3.0445 156.8815 -5.0090 0.0000 -1.2198 0.0000
# 3 19.3418 -5.0090 78.3671 0.0000 -22.7954 0.0000
# 4 0.0000 0.0000 0.0000 34.7760 0.0000 8.2546
# 5 -7.7505 -1.2198 -22.7954 0.0000 9.5601 0.0000
# 6 0.0000 0.0000 0.0000 8.2546 0.0000 20.4905
#
#
#
# Elastic Compliance Matrix: (Units=1/GPa)
#
#
# Indices 1 2 3 4 5 6 
#
# 1 0.034062 0.000829 -0.000948 0.000000 0.025459 0.000000
# 2 0.000829 0.006509 0.002116 0.000000 0.006549 0.000000
# 3 -0.000948 0.002116 0.042376 0.000000 0.100544 0.000000
# 4 0.000000 0.000000 0.000000 0.031796 0.000000 -0.012809
# 5 0.025459 0.006549 0.100544 0.000000 0.365820 0.000000
# 6 0.000000 0.000000 0.000000 -0.012809 0.000000 0.053963
#
#
# Mechanical properties :
#
#
# Convention : Reuss Voigt Hill
#
# Bulk Modulus (GPa) = 11.50214 32.62101 22.06158
# Shear Modulus (GPa) = 8.93636 30.28026 19.60831
#
# Velocity S-wave (km/s) = 2.00883 3.69779 2.97566
# Velocity P-wave (km/s) = 3.25185 5.74128 4.66566
#
# Compressibility (1/GPa) = 0.08694032
#
# Stress axis : x y z
#
# Youngs Moduli (GPa) = 29.35826 153.63801 23.59826
#
# Poissons Ratio (x) = -0.12732 0.02238
# Poissons Ratio (y) = -0.02433 -0.04994
# Poissons Ratio (z) = 0.02784 -0.32515
#
# Static dielectric constant tensor:
#      x y z
#    x 1.804680 0.000000 0.008600 
#    y 0.000000 1.851110 0.000000 
#    z 0.008600 0.000000 1.826390 
# 
# From -- ./inp_files/225794.got.cif
#   From: 2010.05.17/outbox.cif.g08.bks.cpg/sg15_113_cif.got.tgz:225794.got - 2010.06.03 18:47:42.
