data_PCOD9291224
_publ_section_title
;
Structure prediction by ZEFSAII (Michael W. Deem and Ramdas Pophale) SiO2 
 PCOD9291224
Probable space group: C 2/C
;
_chemical_formula_sum "Si O2"
_cell_formula_units_Z 48
_cell_length_a 11.986084
_cell_length_b 7.136523
_cell_length_c 22.779103
_cell_angle_alpha 90.000000
_cell_angle_beta 68.840494
_cell_angle_gamma 90.000000
_cell_volume 1817.131285
_symmetry_space_group_name_H-M "C 2/C"
_symmetry_group_IT_number 15
_symmetry_cell_setting 'monoclinic'
loop_
_space_group_symop_operation_xyz
x,y,z
-x,y,1/2-z
-x,-y,-z
x,-y,1/2+z
1/2+x,1/2+y,z
1/2-x,1/2+y,1/2-z
1/2-x,1/2-y,-z
1/2+x,1/2-y,1/2+z
loop_
_atom_site_type_symbol
_atom_site_label
_atom_site_fract_x
_atom_site_fract_y
_atom_site_fract_z
Si Si1 0.879631 0.493378 0.736201
Si Si2 0.597820 0.231654 0.594626
Si Si3 0.352973 0.657070 0.159951
Si Si4 0.474865 0.792119 0.876912
Si Si5 0.364376 0.779365 0.547174
Si Si6 0.278678 0.808371 0.060400
O O1 0.760894 0.457054 0.796240
O O2 0.838595 0.640959 0.694589
O O3 0.000000 0.554376 0.750000
O O4 0.928336 0.308413 0.693198
O O5 0.495834 0.361209 0.643100
O O6 0.615453 0.289551 0.522856
O O7 0.730773 0.236247 0.594758
O O8 0.560211 0.012669 0.605884
O O9 0.345238 0.668772 0.090977
O O10 0.537172 0.724827 0.924521
O O11 0.353363 0.684099 0.886281
O O12 0.356147 0.005162 0.544903
O O13 0.250000 0.750000 0.000000
#
# Coordination Sequence:
#
# PCOD9291224 Si02
#       6
#     8   8   8   8   8   8
#     4  11  24  45  67  94 134 180 224 281 332 397
#     4  10  22  42  65  98 137 171 220 270 332 398
#     4  11  25  46  68 100 135 176 230 276 332 398
#     4  11  22  42  66  91 136 175 221 277 333 391
#     4  11  22  42  66  99 136 177 215 273 340 398
#     4  12  22  40  72 100 134 174 217 278 339 398
#
# _framework density 26.415262999999999
#
# number of rings (size 3 to 8) (size 9 to 14) (size 15 to 20)
#    0.000    1.000    6.667    1.500    0.000    4.000 
#    3.000    2.500    0.000    0.000    0.000    0.000 
#    0.000    0.000    0.000    0.000    0.000    0.000 
#
# Total GULP energy -134256.091400 kJ/mol
# GULP energy per Si atom -5594.003808 kJ/mol
# Density = 2.635514 g / cm^3
# Si number density = 26.415263 Si / 1000 Ang^3
#
#
#
# Elastic Constant Matrix: (Units=GPa)
#
#
# Indices 1 2 3 4 5 6 
#
# 1 143.8426 16.8850 13.5488 0.0000 -30.1758 0.0000
# 2 16.8850 48.1771 8.3045 0.0000 -9.0323 0.0000
# 3 13.5488 8.3045 86.4094 0.0000 -16.4713 0.0000
# 4 0.0000 0.0000 0.0000 18.6134 0.0000 -9.0802
# 5 -30.1758 -9.0323 -16.4713 0.0000 60.6164 0.0000
# 6 0.0000 0.0000 0.0000 -9.0802 0.0000 44.7872
#
#
#
# Elastic Compliance Matrix: (Units=1/GPa)
#
#
# Indices 1 2 3 4 5 6 
#
# 1 0.007977 -0.002063 -0.000373 0.000000 0.003562 0.000000
# 2 -0.002063 0.022079 -0.001442 0.000000 0.001871 0.000000
# 3 -0.000373 -0.001442 0.012332 0.000000 0.002950 0.000000
# 4 0.000000 0.000000 0.000000 0.059622 0.000000 0.012088
# 5 0.003562 0.001871 0.002950 0.000000 0.019351 0.000000
# 6 0.000000 0.000000 0.000000 0.012088 0.000000 0.024778
#
#
# Mechanical properties :
#
#
# Convention : Reuss Voigt Hill
#
# Bulk Modulus (GPa) = 28.87595 39.54507 34.21051
# Shear Modulus (GPa) = 30.22242 40.78279 35.50260
#
# Velocity S-wave (km/s) = 3.38616 3.93352 3.67006
# Velocity P-wave (km/s) = 5.12283 5.96935 5.56222
#
# Compressibility (1/GPa) = 0.03463090
#
# Stress axis : x y z
#
# Youngs Moduli (GPa) = 125.36540 45.29140 81.08778
#
# Poissons Ratio (x) = 0.09346 0.03028
# Poissons Ratio (y) = 0.25869 0.11691
# Poissons Ratio (z) = 0.04681 0.06530
#
# Static dielectric constant tensor:
#      x y z
#    x 2.029830 0.000000 -0.044890 
#    y 0.000000 2.197520 0.000000 
#    z -0.044890 0.000000 2.129920 
# 
# From -- ./inp_files/267808.got.cif
#   From: 2010.05.17/outbox.cif.g08.bks.cpg/sg15_134_cif.got.tgz:267808.got - 2010.06.03 18:47:42.
