data_PCOD9291384
_publ_section_title
;
Structure prediction by ZEFSAII (Michael W. Deem and Ramdas Pophale) SiO2 
 PCOD9291384
Probable space group: C 2/C
;
_chemical_formula_sum "Si O2"
_cell_formula_units_Z 48
_cell_length_a 15.701988
_cell_length_b 24.751807
_cell_length_c 9.796023
_cell_angle_alpha 90.000000
_cell_angle_beta 36.672285
_cell_angle_gamma 90.000000
_cell_volume 2273.831244
_symmetry_space_group_name_H-M "C 2/C"
_symmetry_group_IT_number 15
_symmetry_cell_setting 'monoclinic'
loop_
_space_group_symop_operation_xyz
x,y,z
-x,y,1/2-z
-x,-y,-z
x,-y,1/2+z
1/2+x,1/2+y,z
1/2-x,1/2+y,1/2-z
1/2-x,1/2-y,-z
1/2+x,1/2-y,1/2+z
loop_
_atom_site_type_symbol
_atom_site_label
_atom_site_fract_x
_atom_site_fract_y
_atom_site_fract_z
Si Si1 0.443985 0.047577 0.475125
Si Si2 0.771671 0.214808 0.837452
Si Si3 0.653011 0.358755 0.685578
Si Si4 0.429118 0.754965 0.150149
Si Si5 0.943182 0.370288 0.458112
Si Si6 0.169019 0.105460 0.856333
O O1 0.500000 0.042036 0.250000
O O2 0.512934 0.100387 0.459796
O O3 0.270854 0.054025 0.698882
O O4 0.500000 0.000000 0.500000
O O5 0.665156 0.235455 0.860319
O O6 0.769144 0.149847 0.830491
O O7 0.927044 0.228517 0.586233
O O8 0.750000 0.250000 0.000000
O O9 0.636340 0.294022 0.678207
O O10 0.775054 0.364205 0.643431
O O11 0.696477 0.381388 0.481631
O O12 0.504596 0.387867 0.923131
O O13 0.474999 0.812803 0.147536
O O14 0.000000 0.401004 0.250000
#
# Coordination Sequence:
#
# PCOD9291384 Si02
#       6
#     8   8   8   8   8   8
#     4  12  28  49  76 102 133 177 243 306 368 418
#     4  11  22  34  53  88 140 179 227 263 338 412
#     4  10  22  42  67 105 146 181 234 278 351 427
#     4  11  22  34  59  97 136 190 221 272 324 421
#     4  12  23  40  71  99 140 184 242 286 349 415
#     4  10  23  43  68  99 141 183 228 297 348 420
#
# _framework density 21.109746999999999
#
# number of rings (size 3 to 8) (size 9 to 14) (size 15 to 20)
#    0.000    1.000    5.000    1.000    7.000    1.333 
#    0.000    1.667    0.000    0.000    0.000    0.000 
#    0.000    0.000    0.000    0.000    0.000    0.000 
#
# Total GULP energy -133848.212513 kJ/mol
# GULP energy per Si atom -5577.008855 kJ/mol
# Density = 2.106170 g / cm^3
# Si number density = 21.109747 Si / 1000 Ang^3
#
#
#
# Elastic Constant Matrix: (Units=GPa)
#
#
# Indices 1 2 3 4 5 6 
#
# 1 161.0879 27.2479 41.5094 0.0000 -12.1664 0.0000
# 2 27.2479 69.3489 38.3003 0.0000 2.7802 0.0000
# 3 41.5094 38.3003 96.7693 0.0000 2.7292 0.0000
# 4 0.0000 0.0000 0.0000 16.9606 0.0000 -1.2378
# 5 -12.1664 2.7802 2.7292 0.0000 54.5548 0.0000
# 6 0.0000 0.0000 0.0000 -1.2378 0.0000 35.1501
#
#
#
# Elastic Compliance Matrix: (Units=1/GPa)
#
#
# Indices 1 2 3 4 5 6 
#
# 1 0.007263 -0.001507 -0.002570 0.000000 0.001825 0.000000
# 2 -0.001507 0.018784 -0.006761 0.000000 -0.000955 0.000000
# 3 -0.002570 -0.006761 0.014139 0.000000 -0.000936 0.000000
# 4 0.000000 0.000000 0.000000 0.059112 0.000000 0.002082
# 5 0.001825 -0.000955 -0.000936 0.000000 0.018833 0.000000
# 6 0.000000 0.000000 0.000000 0.002082 0.000000 0.028523
#
#
# Mechanical properties :
#
#
# Convention : Reuss Voigt Hill
#
# Bulk Modulus (GPa) = 54.02912 60.14678 57.08795
# Shear Modulus (GPa) = 28.65316 36.00967 32.33141
#
# Velocity S-wave (km/s) = 3.68821 4.13465 3.91780
# Velocity P-wave (km/s) = 6.61719 7.16576 6.89693
#
# Compressibility (1/GPa) = 0.01850854
#
# Stress axis : x y z
#
# Youngs Moduli (GPa) = 137.68558 53.23547 70.72716
#
# Poissons Ratio (x) = 0.08024 0.18179
# Poissons Ratio (y) = 0.20753 0.47820
# Poissons Ratio (z) = 0.35390 0.35994
#
# Static dielectric constant tensor:
#      x y z
#    x 1.760600 0.000000 -0.016550 
#    y 0.000000 1.767220 0.000000 
#    z -0.016550 0.000000 1.834240 
# 
# From -- ./inp_files/43806.got.cif
#   From: 2010.05.17/outbox.cif.g08.bks.cpg/sg15_22_cif.got.tgz:43806.got - 2010.06.03 18:47:42.
