data_PCOD9291745
_publ_section_title
;
Structure prediction by ZEFSAII (Michael W. Deem and Ramdas Pophale) SiO2 
 PCOD9291745
Probable space group: C 2/C
;
_chemical_formula_sum "Si O2"
_cell_formula_units_Z 28
_cell_length_a 6.852796
_cell_length_b 23.596147
_cell_length_c 8.703709
_cell_angle_alpha 90.000000
_cell_angle_beta 127.204540
_cell_angle_gamma 90.000000
_cell_volume 1120.957712
_symmetry_space_group_name_H-M "C 2/C"
_symmetry_group_IT_number 15
_symmetry_cell_setting 'monoclinic'
loop_
_space_group_symop_operation_xyz
x,y,z
-x,y,1/2-z
-x,-y,-z
x,-y,1/2+z
1/2+x,1/2+y,z
1/2-x,1/2+y,1/2-z
1/2-x,1/2-y,-z
1/2+x,1/2-y,1/2+z
loop_
_atom_site_type_symbol
_atom_site_label
_atom_site_fract_x
_atom_site_fract_y
_atom_site_fract_z
Si Si1 0.000000 0.149435 0.250000
Si Si2 0.247485 0.066550 0.030700
Si Si3 0.235955 0.555732 0.972915
Si Si4 0.266596 0.312543 0.941278
O O1 0.230859 0.107878 0.394467
O O2 0.050659 0.183730 0.118041
O O3 0.500000 0.064011 0.250000
O O4 0.214134 0.129933 0.947972
O O5 0.261203 0.006720 0.948120
O O6 0.993111 0.060412 0.003746
O O7 0.000000 0.562089 0.750000
O O8 0.000000 0.320090 0.750000
O O9 0.250000 0.250000 0.000000
#
# Coordination Sequence:
#
# PCOD9291745 Si02
#       4
#     4   8   8   8
#     4  10  22  42  70  98 136 180 220 284 352 394
#     4   8  16  35  61  91 139 168 211 283 334 395
#     4   9  17  35  63 100 133 171 218 272 347 415
#     4  10  22  44  64  94 134 177 231 281 329 403
#
# _framework density 24.978643000000002
#
# number of rings (size 3 to 8) (size 9 to 14) (size 15 to 20)
#    0.000    2.857    0.000    0.000    0.000    1.143 
#   12.857   48.571    0.000    0.000    3.714    0.000 
#    0.000    0.000    0.000    0.000    0.000    0.000 
#
# Total GULP energy -77972.201641 kJ/mol
# GULP energy per Si atom -5569.442974 kJ/mol
# Density = 2.492179 g / cm^3
# Si number density = 24.978643 Si / 1000 Ang^3
#
#
#
# Elastic Constant Matrix: (Units=GPa)
#
#
# Indices 1 2 3 4 5 6 
#
# 1 151.6601 45.9831 20.1689 0.0000 14.3761 0.0000
# 2 45.9831 257.9780 33.9467 0.0000 -17.9550 0.0000
# 3 20.1689 33.9467 162.9160 0.0000 30.8586 0.0000
# 4 0.0000 0.0000 0.0000 98.4580 0.0000 -32.6173
# 5 14.3761 -17.9550 30.8586 0.0000 32.3618 0.0000
# 6 0.0000 0.0000 0.0000 -32.6173 0.0000 41.1658
#
#
#
# Elastic Compliance Matrix: (Units=1/GPa)
#
#
# Indices 1 2 3 4 5 6 
#
# 1 0.007499 -0.001690 0.000284 0.000000 -0.004539 0.000000
# 2 -0.001690 0.004758 -0.001738 0.000000 0.005048 0.000000
# 3 0.000284 -0.001738 0.008142 0.000000 -0.008855 0.000000
# 4 0.000000 0.000000 0.000000 0.013771 0.000000 0.010912
# 5 -0.004539 0.005048 -0.008855 0.000000 0.044161 0.000000
# 6 0.000000 0.000000 0.000000 0.010912 0.000000 0.032938
#
#
# Mechanical properties :
#
#
# Convention : Reuss Voigt Hill
#
# Bulk Modulus (GPa) = 70.87413 85.86129 78.36771
# Shear Modulus (GPa) = 40.89617 65.89416 53.39517
#
# Velocity S-wave (km/s) = 4.05068 5.14174 4.62847
# Velocity P-wave (km/s) = 7.09315 8.34856 7.74633
#
# Compressibility (1/GPa) = 0.01410952
#
# Stress axis : x y z
#
# Youngs Moduli (GPa) = 133.35842 210.19241 122.81373
#
# Poissons Ratio (x) = 0.35518 -0.03482
# Poissons Ratio (y) = 0.22535 0.21348
# Poissons Ratio (z) = -0.03781 0.36537
#
# Static dielectric constant tensor:
#      x y z
#    x 2.231160 0.000000 -0.114640 
#    y 0.000000 2.189700 0.000000 
#    z -0.114640 0.000000 1.996620 
# 
# From -- ./inp_files/78081.got.cif
#   From: 2010.05.17/outbox.cif.g08.bks.cpg/sg15_40_cif.got.tgz:78081.got - 2010.06.03 18:47:42.
