data_PCOD9291199
_publ_section_title
;
Structure prediction by ZEFSAII (Michael W. Deem and Ramdas Pophale) SiO2 
 PCOD9291199
Probable space group: C 2/C
;
_chemical_formula_sum "Si O2"
_cell_formula_units_Z 52
_cell_length_a 19.584335
_cell_length_b 16.148874
_cell_length_c 10.660352
_cell_angle_alpha 90.000000
_cell_angle_beta 134.781751
_cell_angle_gamma 90.000000
_cell_volume 2393.071286
_symmetry_space_group_name_H-M "C 2/C"
_symmetry_group_IT_number 15
_symmetry_cell_setting 'monoclinic'
loop_
_space_group_symop_operation_xyz
x,y,z
-x,y,1/2-z
-x,-y,-z
x,-y,1/2+z
1/2+x,1/2+y,z
1/2-x,1/2+y,1/2-z
1/2-x,1/2-y,-z
1/2+x,1/2-y,1/2+z
loop_
_atom_site_type_symbol
_atom_site_label
_atom_site_fract_x
_atom_site_fract_y
_atom_site_fract_z
Si Si1 0.210542 0.813134 0.054086
Si Si2 0.114103 0.270370 0.044254
Si Si3 0.756458 0.831852 0.924698
Si Si4 0.781027 0.487587 0.079822
Si Si5 0.408706 0.025305 0.493225
Si Si6 0.932460 0.294670 0.982465
Si Si7 0.500000 0.108755 0.250000
O O1 0.294259 0.809227 0.267632
O O2 0.212569 0.907580 0.008606
O O3 0.111594 0.773303 0.979514
O O4 0.250000 0.750000 0.000000
O O5 0.150606 0.182800 0.042359
O O6 0.012346 0.452878 0.882582
O O7 0.085947 0.328826 0.890374
O O8 0.660937 0.823093 0.717635
O O9 0.764816 0.921413 0.996313
O O10 0.750000 0.750000 0.000000
O O11 0.842996 0.499327 0.289260
O O12 0.842657 0.474940 0.033157
O O13 0.460209 0.114379 0.566942
O O14 0.021140 0.264774 0.012852
#
# Coordination Sequence:
#
# PCOD9291199 Si02
#       7
#     8   8   8   8   8   8   4
#     4  11  23  43  65  94 138 190 227 286 355 418
#     4  11  23  41  64  98 138 182 234 286 350 423
#     4  10  22  42  65  94 135 190 230 286 342 411
#     4  11  23  42  66  96 137 185 237 282 347 420
#     4  11  23  38  63 102 141 177 223 293 365 415
#     4  10  23  39  63  97 137 178 228 289 352 419
#     4  12  22  36  64 102 140 168 222 290 356 424
#
# _framework density 21.729396999999999
#
# number of rings (size 3 to 8) (size 9 to 14) (size 15 to 20)
#    0.000    1.231    3.077    3.692    4.308    1.846 
#    0.000    0.769    0.000    3.692    0.000    0.000 
#    0.000    0.000    0.000    0.000    0.000    0.000 
#
# Total GULP energy -145057.393173 kJ/mol
# GULP energy per Si atom -5579.130507 kJ/mol
# Density = 2.167994 g / cm^3
# Si number density = 21.729397 Si / 1000 Ang^3
#
#
#
# Elastic Constant Matrix: (Units=GPa)
#
#
# Indices 1 2 3 4 5 6 
#
# 1 182.2738 80.2088 -6.9448 0.0000 -6.6270 0.0000
# 2 80.2088 144.2473 -1.1413 0.0000 -4.6152 0.0000
# 3 -6.9448 -1.1413 66.1914 0.0000 -7.5699 0.0000
# 4 0.0000 0.0000 0.0000 25.7010 0.0000 1.5947
# 5 -6.6270 -4.6152 -7.5699 0.0000 27.9008 0.0000
# 6 0.0000 0.0000 0.0000 1.5947 0.0000 18.6086
#
#
#
# Elastic Compliance Matrix: (Units=1/GPa)
#
#
# Indices 1 2 3 4 5 6 
#
# 1 0.007341 -0.004033 0.000850 0.000000 0.001307 0.000000
# 2 -0.004033 0.009190 -0.000207 0.000000 0.000506 0.000000
# 3 0.000850 -0.000207 0.015700 0.000000 0.004427 0.000000
# 4 0.000000 0.000000 0.000000 0.039117 0.000000 -0.003352
# 5 0.001307 0.000506 0.004427 0.000000 0.037437 0.000000
# 6 0.000000 0.000000 0.000000 -0.003352 0.000000 0.054026
#
#
# Mechanical properties :
#
#
# Convention : Reuss Voigt Hill
#
# Bulk Modulus (GPa) = 39.29226 59.66199 49.47712
# Shear Modulus (GPa) = 28.07824 35.81474 31.94649
#
# Velocity S-wave (km/s) = 3.59859 4.06423 3.83847
# Velocity P-wave (km/s) = 5.94880 7.03849 6.51646
#
# Compressibility (1/GPa) = 0.02545031
#
# Stress axis : x y z
#
# Youngs Moduli (GPa) = 136.21989 108.81517 63.69568
#
# Poissons Ratio (x) = 0.43890 -0.05415
# Poissons Ratio (y) = 0.54944 0.01318
# Poissons Ratio (z) = -0.11581 0.02251
#
# Static dielectric constant tensor:
#      x y z
#    x 1.894280 0.000000 -0.094120 
#    y 0.000000 1.907530 0.000000 
#    z -0.094120 0.000000 1.962730 
# 
# From -- ./inp_files/112458.got.cif
#   From: 2010.05.17/outbox.cif.g08.bks.cpg/sg15_57_cif.got.tgz:112458.got - 2010.06.03 18:47:42.
