data_PCOD9291730
_publ_section_title
;
Structure prediction by ZEFSAII (Michael W. Deem and Ramdas Pophale) SiO2 
 PCOD9291730
Probable space group: C 2/C
;
_chemical_formula_sum "Si O2"
_cell_formula_units_Z 44
_cell_length_a 19.451139
_cell_length_b 12.562268
_cell_length_c 24.179412
_cell_angle_alpha 90.000000
_cell_angle_beta 19.106859
_cell_angle_gamma 90.000000
_cell_volume 1933.953327
_symmetry_space_group_name_H-M "C 2/C"
_symmetry_group_IT_number 15
_symmetry_cell_setting 'monoclinic'
loop_
_space_group_symop_operation_xyz
x,y,z
-x,y,1/2-z
-x,-y,-z
x,-y,1/2+z
1/2+x,1/2+y,z
1/2-x,1/2+y,1/2-z
1/2-x,1/2-y,-z
1/2+x,1/2-y,1/2+z
loop_
_atom_site_type_symbol
_atom_site_label
_atom_site_fract_x
_atom_site_fract_y
_atom_site_fract_z
Si Si1 0.154346 0.929452 0.345060
Si Si2 0.013727 0.706344 0.846728
Si Si3 0.156744 0.875144 0.013323
Si Si4 0.500000 0.000000 0.500000
Si Si5 0.500000 0.304042 0.250000
Si Si6 0.500000 0.940735 0.250000
Si Si7 0.851062 0.095238 0.311766
O O1 0.271802 0.834745 0.288236
O O2 0.338955 0.996891 0.175660
O O3 0.018973 0.878983 0.399264
O O4 0.000000 0.000000 0.500000
O O5 0.989405 0.633933 0.811142
O O6 0.017704 0.830225 0.829481
O O7 0.819691 0.677486 0.033078
O O8 0.061935 0.863840 0.146721
O O9 0.303223 0.773883 0.889438
O O10 0.301299 0.979673 0.899545
O O11 0.293822 0.984073 0.613536
O O12 0.000000 0.062806 0.250000
#
# Coordination Sequence:
#
# PCOD9291730 Si02
#       7
#     8   8   8   4   4   4   8
#     4  11  24  45  68  99 147 186 229 306 364 437
#     4  11  25  41  68 108 135 188 241 290 383 431
#     4  10  22  42  70  96 145 188 240 311 359 443
#     4  10  28  46  66 114 136 196 246 286 378 444
#     4   9  22  44  66 107 128 192 254 289 368 433
#     4  11  22  40  64 105 136 186 244 285 368 441
#     4  11  25  45  73 104 146 187 239 309 361 446
#
# _framework density 22.751324
#
# number of rings (size 3 to 8) (size 9 to 14) (size 15 to 20)
#    0.000    1.455    2.727    0.545    5.091    5.818 
#    3.273    0.000    0.000    0.000    0.000    0.000 
#    0.000    0.000    0.000    0.000    0.000    0.000 
#
# Total GULP energy -122583.664540 kJ/mol
# GULP energy per Si atom -5571.984752 kJ/mol
# Density = 2.269954 g / cm^3
# Si number density = 22.751324 Si / 1000 Ang^3
#
#
#
# Elastic Constant Matrix: (Units=GPa)
#
#
# Indices 1 2 3 4 5 6 
#
# 1 103.5095 16.2773 50.5474 -0.0162 -34.8510 0.0193
# 2 16.2773 39.3058 34.9581 -0.0166 -13.9781 0.0011
# 3 50.5474 34.9581 115.5039 0.0187 -2.7674 -0.0809
# 4 -0.0162 -0.0166 0.0187 27.1868 -0.0164 0.4804
# 5 -34.8510 -13.9781 -2.7674 -0.0164 67.2421 0.0302
# 6 0.0193 0.0011 -0.0809 0.4804 0.0302 15.6622
#
#
#
# Elastic Compliance Matrix: (Units=1/GPa)
#
#
# Indices 1 2 3 4 5 6 
#
# 1 0.015787 0.003381 -0.007727 0.000023 0.008567 -0.000077
# 2 0.003381 0.038958 -0.013048 0.000042 0.009314 -0.000094
# 3 -0.007727 -0.013048 0.015843 -0.000029 -0.006065 0.000105
# 4 0.000023 0.000042 -0.000029 0.036803 0.000029 -0.001129
# 5 0.008567 0.009314 -0.006065 0.000029 0.020999 -0.000084
# 6 -0.000077 -0.000094 0.000105 -0.001129 -0.000084 0.063883
#
#
# Mechanical properties :
#
#
# Convention : Reuss Voigt Hill
#
# Bulk Modulus (GPa) = 27.93180 51.32055 39.62617
# Shear Modulus (GPa) = 20.92110 32.45399 26.68754
#
# Velocity S-wave (km/s) = 3.03571 3.78096 3.42864
# Velocity P-wave (km/s) = 4.95893 6.45500 5.75578
#
# Compressibility (1/GPa) = 0.03580149
#
# Stress axis : x y z
#
# Youngs Moduli (GPa) = 63.34253 25.66866 63.11944
#
# Poissons Ratio (x) = -0.08679 0.48773
# Poissons Ratio (y) = -0.21418 0.82356
# Poissons Ratio (z) = 0.48945 0.33491
#
# Static dielectric constant tensor:
#      x y z
#    x 1.872570 0.000050 0.011000 
#    y 0.000050 1.872000 0.000020 
#    z 0.011000 0.000020 1.859310 
# 
# From -- ./inp_files/47040.got.cif
#   From: 2010.05.17/outbox.cif.g08.bks.cpg/sg15_24_cif.got.tgz:47040.got - 2010.06.03 18:47:42.
