data_PCOD9291916
_publ_section_title
;
Structure prediction by ZEFSAII (Michael W. Deem and Ramdas Pophale) SiO2 
 PCOD9291916
Probable space group: C 2/C
;
_chemical_formula_sum "Si O2"
_cell_formula_units_Z 32
_cell_length_a 13.075508
_cell_length_b 17.952216
_cell_length_c 5.821208
_cell_angle_alpha 90.000000
_cell_angle_beta 101.575212
_cell_angle_gamma 90.000000
_cell_volume 1338.647042
_symmetry_space_group_name_H-M "C 2/C"
_symmetry_group_IT_number 15
_symmetry_cell_setting 'monoclinic'
loop_
_space_group_symop_operation_xyz
x,y,z
-x,y,1/2-z
-x,-y,-z
x,-y,1/2+z
1/2+x,1/2+y,z
1/2-x,1/2+y,1/2-z
1/2-x,1/2-y,-z
1/2+x,1/2-y,1/2+z
loop_
_atom_site_type_symbol
_atom_site_label
_atom_site_fract_x
_atom_site_fract_y
_atom_site_fract_z
Si Si1 0.772368 0.314373 0.189865
Si Si2 0.589491 0.720878 0.965893
Si Si3 0.204513 0.517715 0.948436
Si Si4 0.074765 0.930749 0.479841
O O1 0.684252 0.306788 0.344896
O O2 0.878510 0.290733 0.365207
O O3 0.773041 0.395080 0.076755
O O4 0.750000 0.250000 0.000000
O O5 0.500000 0.745780 0.750000
O O6 0.583950 0.645792 0.124765
O O7 0.154935 0.493754 0.679617
O O8 0.313528 0.469481 0.011195
O O9 0.000000 0.000000 0.500000
O O10 0.000000 0.896284 0.250000
#
# Coordination Sequence:
#
# PCOD9291916 Si02
#       4
#     8   8   8   8
#     4  11  24  39  66  96 139 184 227 283 349 414
#     4  10  22  43  61  98 137 177 227 281 348 420
#     4  12  23  39  62  94 129 174 225 279 339 412
#     4  11  19  33  61  94 134 169 213 276 350 421
#
# _framework density 23.904731000000002
#
# number of rings (size 3 to 8) (size 9 to 14) (size 15 to 20)
#    0.000    1.000    5.000    3.000    3.500    1.000 
#    0.000    0.000    0.000    1.500    0.000    0.000 
#    0.000    0.000    0.000    0.000    0.000    0.000 
#
# Total GULP energy -89081.228540 kJ/mol
# GULP energy per Si atom -5567.576784 kJ/mol
# Density = 2.385032 g / cm^3
# Si number density = 23.904731 Si / 1000 Ang^3
#
#
#
# Elastic Constant Matrix: (Units=GPa)
#
#
# Indices 1 2 3 4 5 6 
#
# 1 21.3310 22.8884 16.9251 0.0000 7.5575 0.0000
# 2 22.8884 138.3234 59.7791 0.0000 6.2474 0.0000
# 3 16.9251 59.7791 145.8511 0.0000 4.5026 0.0000
# 4 0.0000 0.0000 0.0000 38.5660 0.0000 2.8276
# 5 7.5575 6.2474 4.5026 0.0000 50.4561 0.0000
# 6 0.0000 0.0000 0.0000 2.8276 0.0000 17.2011
#
#
#
# Elastic Compliance Matrix: (Units=1/GPa)
#
#
# Indices 1 2 3 4 5 6 
#
# 1 0.061312 -0.008289 -0.003475 0.000000 -0.007847 0.000000
# 2 -0.008289 0.009936 -0.003120 0.000000 0.000290 0.000000
# 3 -0.003475 -0.003120 0.008534 0.000000 0.000145 0.000000
# 4 0.000000 0.000000 0.000000 0.026246 0.000000 -0.004314
# 5 -0.007847 0.000290 0.000145 0.000000 0.020946 0.000000
# 6 0.000000 0.000000 0.000000 -0.004314 0.000000 0.058845
#
#
# Mechanical properties :
#
#
# Convention : Reuss Voigt Hill
#
# Bulk Modulus (GPa) = 19.99435 56.07675 38.03555
# Shear Modulus (GPa) = 21.52786 34.97216 28.25001
#
# Velocity S-wave (km/s) = 3.00420 3.82904 3.44142
# Velocity P-wave (km/s) = 4.51841 6.56187 5.63356
#
# Compressibility (1/GPa) = 0.05001414
#
# Stress axis : x y z
#
# Youngs Moduli (GPa) = 16.31006 100.64321 117.18286
#
# Poissons Ratio (x) = 0.83423 0.40724
# Poissons Ratio (y) = 0.13519 0.36555
# Poissons Ratio (z) = 0.05668 0.31396
#
# Static dielectric constant tensor:
#      x y z
#    x 1.951120 0.000000 -0.215600 
#    y 0.000000 2.031020 0.000000 
#    z -0.215600 0.000000 1.997370 
# 
# From -- ./inp_files/6560.got.cif
#   From: 2010.05.17/outbox.cif.g08.bks.cpg/sg15_4_cif.got.tgz:6560.got - 2010.06.03 18:47:42.
