data_PCOD9291177
_publ_section_title
;
Structure prediction by ZEFSAII (Michael W. Deem and Ramdas Pophale) SiO2 
 PCOD9291177
Probable space group: C 2/C
;
_chemical_formula_sum "Si O2"
_cell_formula_units_Z 48
_cell_length_a 12.515384
_cell_length_b 12.385765
_cell_length_c 17.149803
_cell_angle_alpha 90.000000
_cell_angle_beta 112.145412
_cell_angle_gamma 90.000000
_cell_volume 2462.323238
_symmetry_space_group_name_H-M "C 2/C"
_symmetry_group_IT_number 15
_symmetry_cell_setting 'monoclinic'
loop_
_space_group_symop_operation_xyz
x,y,z
-x,y,1/2-z
-x,-y,-z
x,-y,1/2+z
1/2+x,1/2+y,z
1/2-x,1/2+y,1/2-z
1/2-x,1/2-y,-z
1/2+x,1/2-y,1/2+z
loop_
_atom_site_type_symbol
_atom_site_label
_atom_site_fract_x
_atom_site_fract_y
_atom_site_fract_z
Si Si1 0.049400 0.618491 0.495704
Si Si2 0.202260 0.048596 0.666085
Si Si3 0.462555 0.449319 0.657043
Si Si4 0.113661 0.632171 0.331797
Si Si5 0.864203 0.798612 0.494734
Si Si6 0.279715 0.632043 0.660664
O O1 0.081738 0.626380 0.413862
O O2 0.164836 0.635857 0.577682
O O3 0.000000 0.500000 0.500000
O O4 0.954496 0.708077 0.491769
O O5 0.177218 0.130841 0.589774
O O6 0.249633 0.103303 0.757995
O O7 0.287072 0.953768 0.661735
O O8 0.077496 0.003983 0.656040
O O9 0.500000 0.396550 0.750000
O O10 0.419213 0.370505 0.578265
O O11 0.366115 0.539753 0.650983
O O12 0.157337 0.752783 0.325129
O O13 0.000000 0.608919 0.250000
O O14 0.750000 0.750000 0.500000
#
# Coordination Sequence:
#
# PCOD9291177 Si02
#       6
#     8   8   8   8   8   8
#     4  12  25  43  64  94 130 169 215 267 326 393
#     4  11  24  42  65  92 126 166 210 260 318 385
#     4  10  22  42  65  92 125 165 210 258 317 385
#     4  12  24  42  66  95 128 169 215 269 326 388
#     4  12  25  41  64  92 127 167 210 263 318 381
#     4  11  23  42  67  95 127 168 214 267 325 390
#
# _framework density 19.493784999999999
#
# number of rings (size 3 to 8) (size 9 to 14) (size 15 to 20)
#    0.000    0.667    0.000    9.500    0.000    5.333 
#    0.000    0.833    0.000    0.000    0.000    0.000 
#    0.000    0.000    0.000    0.000    0.000    0.000 
#
# Total GULP energy -134305.563467 kJ/mol
# GULP energy per Si atom -5596.065144 kJ/mol
# Density = 1.944942 g / cm^3
# Si number density = 19.493785 Si / 1000 Ang^3
#
#
#
# Elastic Constant Matrix: (Units=GPa)
#
#
# Indices 1 2 3 4 5 6 
#
# 1 90.7552 24.7613 53.5894 0.0000 -19.2050 0.0000
# 2 24.7613 100.5720 47.5144 0.0000 -24.2904 0.0000
# 3 53.5894 47.5144 172.8057 0.0000 -21.5611 0.0000
# 4 0.0000 0.0000 0.0000 -9.3173 0.0000 3.1254
# 5 -19.2050 -24.2904 -21.5611 0.0000 44.4805 0.0000
# 6 0.0000 0.0000 0.0000 3.1254 0.0000 38.8131
#
#
#
# Elastic Compliance Matrix: (Units=1/GPa)
#
#
# Indices 1 2 3 4 5 6 
#
# 1 0.014260 -0.000812 -0.003710 0.000000 0.003915 0.000000
# 2 -0.000812 0.012634 -0.002560 0.000000 0.005308 0.000000
# 3 -0.003710 -0.002560 0.007735 0.000000 0.000749 0.000000
# 4 0.000000 0.000000 0.000000 -0.104504 0.000000 0.008415
# 5 0.003915 0.005308 0.000749 0.000000 0.027434 0.000000
# 6 0.000000 0.000000 0.000000 0.008415 0.000000 0.025087
#
#
# Mechanical properties :
#
#
# Convention : Reuss Voigt Hill
#
# Bulk Modulus (GPa) = 48.86642 68.42926 58.64784
# Shear Modulus (GPa) = 1376.92462 30.67978 703.80220
#
# Velocity S-wave (km/s) = 26.60590 3.97145 19.02165
# Velocity P-wave (km/s) = 31.12802 7.49728 22.64026
#
# Compressibility (1/GPa) = 0.02046395
#
# Stress axis : x y z
#
# Youngs Moduli (GPa) = 70.12847 79.14855 129.28602
#
# Poissons Ratio (x) = 0.06430 0.47969
# Poissons Ratio (y) = 0.05697 0.33094
# Poissons Ratio (z) = 0.26020 0.20260
#
# Static dielectric constant tensor:
#      x y z
#    x 1.631710 0.000000 -0.003190 
#    y 0.000000 1.630680 0.000000 
#    z -0.003190 0.000000 1.704370 
# 
# From -- ./inp_files/196604.got.cif
#   From: 2010.05.17/outbox.cif.g08.bks.cpg/sg15_99_cif.got.tgz:196604.got - 2010.06.03 18:47:42.
