data_PCOD9291534
_publ_section_title
;
Structure prediction by ZEFSAII (Michael W. Deem and Ramdas Pophale) SiO2 
 PCOD9291534
Probable space group: C 2/C
;
_chemical_formula_sum "Si O2"
_cell_formula_units_Z 36
_cell_length_a 5.344336
_cell_length_b 18.806474
_cell_length_c 16.029158
_cell_angle_alpha 90.000000
_cell_angle_beta 109.639699
_cell_angle_gamma 90.000000
_cell_volume 1517.336706
_symmetry_space_group_name_H-M "C 2/C"
_symmetry_group_IT_number 15
_symmetry_cell_setting 'monoclinic'
loop_
_space_group_symop_operation_xyz
x,y,z
-x,y,1/2-z
-x,-y,-z
x,-y,1/2+z
1/2+x,1/2+y,z
1/2-x,1/2+y,1/2-z
1/2-x,1/2-y,-z
1/2+x,1/2-y,1/2+z
loop_
_atom_site_type_symbol
_atom_site_label
_atom_site_fract_x
_atom_site_fract_y
_atom_site_fract_z
Si Si1 0.273432 0.253253 0.155370
Si Si2 0.500000 0.653743 0.250000
Si Si3 0.471008 0.114044 0.110369
Si Si4 0.390798 0.910126 0.410243
Si Si5 0.122736 0.010093 0.605547
O O1 0.500000 0.266201 0.250000
O O2 0.056219 0.207495 0.179954
O O3 0.386244 0.196729 0.101379
O O4 0.173192 0.327901 0.111913
O O5 0.754555 0.610568 0.309458
O O6 0.253115 0.066819 0.135043
O O7 0.486186 0.085208 0.017807
O O8 0.624941 0.937531 0.376781
O O9 0.118272 0.955434 0.369984
O O10 0.000000 0.000000 0.500000
#
# Coordination Sequence:
#
# PCOD9291534 Si02
#       5
#     8   4   8   8   8
#     4  10  24  43  62  96 133 172 223 271 323 391
#     4  10  24  40  68  92 142 172 224 272 326 398
#     4  10  22  42  68  95 130 173 220 266 332 393
#     4  11  24  42  73  96 130 170 220 277 327 385
#     4  10  23  42  68  99 131 163 218 278 326 390
#
# _framework density 23.725781999999999
#
# number of rings (size 3 to 8) (size 9 to 14) (size 15 to 20)
#    0.000    1.778    0.000    3.333   15.556    0.889 
#    2.000    0.000    0.000    0.000    0.000    0.000 
#    0.000    0.000    0.000    0.000    0.000    0.000 
#
# Total GULP energy -100675.937906 kJ/mol
# GULP energy per Si atom -5593.107661 kJ/mol
# Density = 2.367178 g / cm^3
# Si number density = 23.725782 Si / 1000 Ang^3
#
#
#
# Elastic Constant Matrix: (Units=GPa)
#
#
# Indices 1 2 3 4 5 6 
#
# 1 139.2582 59.9099 26.3153 0.0000 32.7508 0.0000
# 2 59.9099 173.4735 41.0179 0.0000 27.9829 0.0000
# 3 26.3153 41.0179 57.0747 0.0000 10.9874 0.0000
# 4 0.0000 0.0000 0.0000 -1.9653 0.0000 -0.7500
# 5 32.7508 27.9829 10.9874 0.0000 30.1902 0.0000
# 6 0.0000 0.0000 0.0000 -0.7500 0.0000 36.1840
#
#
#
# Elastic Compliance Matrix: (Units=1/GPa)
#
#
# Indices 1 2 3 4 5 6 
#
# 1 0.010378 -0.001696 -0.001829 0.000000 -0.009020 0.000000
# 2 -0.001696 0.007992 -0.004183 0.000000 -0.004045 0.000000
# 3 -0.001829 -0.004183 0.021767 0.000000 -0.002061 0.000000
# 4 0.000000 0.000000 0.000000 -0.504843 0.000000 -0.010465
# 5 -0.009020 -0.004045 -0.002061 0.000000 0.047407 0.000000
# 6 0.000000 0.000000 0.000000 -0.010465 0.000000 0.027420
#
#
# Mechanical properties :
#
#
# Convention : Reuss Voigt Hill
#
# Bulk Modulus (GPa) = 40.45339 69.36583 54.90961
# Shear Modulus (GPa) = -13.65290 29.05267 7.69989
#
# Velocity S-wave (km/s) = -2.40145 3.50311 1.80344
# Velocity P-wave (km/s) = 3.06564 6.75739 5.24693
#
# Compressibility (1/GPa) = 0.02471980
#
# Stress axis : x y z
#
# Youngs Moduli (GPa) = 96.36075 125.12571 45.94119
#
# Poissons Ratio (x) = 0.21228 0.08404
# Poissons Ratio (y) = 0.16348 0.19216
# Poissons Ratio (z) = 0.17626 0.52336
#
# Static dielectric constant tensor:
#      x y z
#    x 1.972420 0.000000 -0.054740 
#    y 0.000000 1.887960 0.000000 
#    z -0.054740 0.000000 1.909290 
# 
# From -- ./inp_files/184114.got.cif
#   From: 2010.05.17/outbox.cif.g08.bks.cpg/sg15_93_cif.got.tgz:184114.got - 2010.06.03 18:47:42.
