data_PCOD9291451
_publ_section_title
;
Structure prediction by ZEFSAII (Michael W. Deem and Ramdas Pophale) SiO2 
 PCOD9291451
Probable space group: C 2/C
;
_chemical_formula_sum "Si O2"
_cell_formula_units_Z 52
_cell_length_a 20.448803
_cell_length_b 25.303998
_cell_length_c 4.785195
_cell_angle_alpha 90.000000
_cell_angle_beta 114.656398
_cell_angle_gamma 90.000000
_cell_volume 2250.284227
_symmetry_space_group_name_H-M "C 2/C"
_symmetry_group_IT_number 15
_symmetry_cell_setting 'monoclinic'
loop_
_space_group_symop_operation_xyz
x,y,z
-x,y,1/2-z
-x,-y,-z
x,-y,1/2+z
1/2+x,1/2+y,z
1/2-x,1/2+y,1/2-z
1/2-x,1/2-y,-z
1/2+x,1/2-y,1/2+z
loop_
_atom_site_type_symbol
_atom_site_label
_atom_site_fract_x
_atom_site_fract_y
_atom_site_fract_z
Si Si1 0.904995 0.464095 0.219970
Si Si2 0.231811 0.697011 0.289574
Si Si3 0.762639 0.963759 0.574108
Si Si4 0.428341 0.798823 0.935115
Si Si5 0.000000 0.611663 0.250000
Si Si6 0.050853 0.183686 0.606298
Si Si7 0.802318 0.855887 0.394827
O O1 0.915415 0.482565 0.922148
O O2 0.821727 0.448961 0.105735
O O3 0.957913 0.421520 0.441663
O O4 0.250000 0.750000 0.500000
O O5 0.148508 0.698652 0.051098
O O6 0.218693 0.815270 0.891305
O O7 0.244338 0.651024 0.542669
O O8 0.804426 0.912948 0.541607
O O9 0.776008 0.984546 0.907809
O O10 0.439448 0.849964 0.768181
O O11 0.428103 0.743463 0.766400
O O12 0.500000 0.798722 0.250000
O O13 0.123247 0.156670 0.629156
O O14 0.000000 0.158370 0.750000
O O15 0.000000 0.188364 0.250000
#
# Coordination Sequence:
#
# PCOD9291451 Si02
#       7
#     8   8   8   8   4   8   8
#     4  10  23  40  61  86 126 173 229 284 338 395
#     4  12  26  43  69 102 143 185 242 290 343 415
#     4  10  22  42  67  98 131 174 234 297 354 415
#     4  11  27  40  63  95 142 182 227 282 338 404
#     4  12  24  38  62  88 134 178 236 268 342 402
#     4  11  24  44  67  96 139 180 223 275 362 432
#     4  12  25  44  75 101 138 188 233 295 362 422
#
# _framework density 23.10819
#
# number of rings (size 3 to 8) (size 9 to 14) (size 15 to 20)
#    0.000    0.923    2.308    3.692    6.462    1.231 
#    0.000    0.000    0.000    2.769    0.000    0.000 
#    0.000    0.000    0.000    0.000    0.000    0.000 
#
# Total GULP energy -145531.827596 kJ/mol
# GULP energy per Si atom -5597.377984 kJ/mol
# Density = 2.305559 g / cm^3
# Si number density = 23.108190 Si / 1000 Ang^3
#
#
#
# Elastic Constant Matrix: (Units=GPa)
#
#
# Indices 1 2 3 4 5 6 
#
# 1 177.9010 47.9575 24.7764 0.0000 -3.1914 0.0000
# 2 47.9575 72.5814 -10.8667 0.0000 4.7438 0.0000
# 3 24.7764 -10.8667 69.1013 0.0000 -4.6276 0.0000
# 4 0.0000 0.0000 0.0000 23.9305 0.0000 -3.3683
# 5 -3.1914 4.7438 -4.6276 0.0000 39.8413 0.0000
# 6 0.0000 0.0000 0.0000 -3.3683 0.0000 42.8817
#
#
#
# Elastic Compliance Matrix: (Units=1/GPa)
#
#
# Indices 1 2 3 4 5 6 
#
# 1 0.007659 -0.005653 -0.003577 0.000000 0.000871 0.000000
# 2 -0.005653 0.018364 0.004775 0.000000 -0.002085 0.000000
# 3 -0.003577 0.004775 0.016577 0.000000 0.001070 0.000000
# 4 0.000000 0.000000 0.000000 0.042255 0.000000 0.003319
# 5 0.000871 -0.002085 0.001070 0.000000 0.025542 0.000000
# 6 0.000000 0.000000 0.000000 0.003319 0.000000 0.023581
#
#
# Mechanical properties :
#
#
# Convention : Reuss Voigt Hill
#
# Bulk Modulus (GPa) = 29.68217 49.25758 39.46987
# Shear Modulus (GPa) = 32.44319 38.51180 35.47749
#
# Velocity S-wave (km/s) = 3.75102 4.08681 3.92251
# Velocity P-wave (km/s) = 5.62432 6.60543 6.13452
#
# Compressibility (1/GPa) = 0.03369026
#
# Stress axis : x y z
#
# Youngs Moduli (GPa) = 130.57014 54.45475 60.32627
#
# Poissons Ratio (x) = 0.30782 0.21577
# Poissons Ratio (y) = 0.73809 -0.28806
# Poissons Ratio (z) = 0.46701 -0.26003
#
# Static dielectric constant tensor:
#      x y z
#    x 1.882570 0.000000 -0.018870 
#    y 0.000000 1.917530 0.000000 
#    z -0.018870 0.000000 1.869360 
# 
# From -- ./inp_files/15884.got.cif
#   From: 2010.05.17/outbox.cif.g08.bks.cpg/sg15_8_cif.got.tgz:15884.got - 2010.06.03 18:47:42.
