data_PCOD9291429
_publ_section_title
;
Structure prediction by ZEFSAII (Michael W. Deem and Ramdas Pophale) SiO2 
 PCOD9291429
Probable space group: C 2/C
;
_chemical_formula_sum "Si O2"
_cell_formula_units_Z 52
_cell_length_a 19.929851
_cell_length_b 26.541136
_cell_length_c 4.968326
_cell_angle_alpha 90.000000
_cell_angle_beta 67.804206
_cell_angle_gamma 90.000000
_cell_volume 2433.307191
_symmetry_space_group_name_H-M "C 2/C"
_symmetry_group_IT_number 15
_symmetry_cell_setting 'monoclinic'
loop_
_space_group_symop_operation_xyz
x,y,z
-x,y,1/2-z
-x,-y,-z
x,-y,1/2+z
1/2+x,1/2+y,z
1/2-x,1/2+y,1/2-z
1/2-x,1/2-y,-z
1/2+x,1/2-y,1/2+z
loop_
_atom_site_type_symbol
_atom_site_label
_atom_site_fract_x
_atom_site_fract_y
_atom_site_fract_z
Si Si1 0.427231 0.694180 0.537132
Si Si2 0.296867 0.141221 0.382745
Si Si3 0.402876 0.532786 0.176985
Si Si4 0.735075 0.033540 0.301061
Si Si5 0.273183 0.691493 0.494964
Si Si6 0.000000 0.111811 0.750000
Si Si7 0.949423 0.693624 0.089491
O O1 0.355300 0.689293 0.471699
O O2 0.439465 0.647636 0.713389
O O3 0.426494 0.748439 0.682453
O O4 0.500000 0.694327 0.250000
O O5 0.296172 0.082904 0.296181
O O6 0.275192 0.159180 0.717107
O O7 0.375336 0.163164 0.186828
O O8 0.238353 0.167788 0.278692
O O9 0.413865 0.515541 0.465572
O O10 0.320658 0.545784 0.216609
O O11 0.457126 0.576583 0.019781
O O12 0.717321 0.012663 0.624856
O O13 0.250000 0.750000 0.500000
O O14 0.000000 0.674255 0.250000
O O15 0.000000 0.692690 0.750000
#
# Coordination Sequence:
#
# PCOD9291429 Si02
#       7
#     8   8   8   8   8   4   8
#     4  11  27  39  61  92 139 180 220 278 325 394
#     4  12  25  44  74  99 134 182 227 283 349 409
#     4  10  23  40  60  85 124 168 222 277 325 382
#     4  10  22  42  67  96 127 167 225 287 342 402
#     4  12  26  42  67  99 139 181 235 283 330 399
#     4  12  24  38  62  88 128 178 230 262 330 388
#     4  11  24  44  67  96 138 178 217 266 347 416
#
# _framework density 21.370094000000002
#
# number of rings (size 3 to 8) (size 9 to 14) (size 15 to 20)
#    0.000    0.923    2.308    3.692    8.615    1.231 
#    0.000    0.000    0.000    2.769    0.000    0.000 
#    0.000    0.000    0.000    0.000    0.000    0.000 
#
# Total GULP energy -145429.570140 kJ/mol
# GULP energy per Si atom -5593.445005 kJ/mol
# Density = 2.132145 g / cm^3
# Si number density = 21.370094 Si / 1000 Ang^3
#
#
#
# Elastic Constant Matrix: (Units=GPa)
#
#
# Indices 1 2 3 4 5 6 
#
# 1 126.5179 30.3814 11.1433 0.0000 -5.0882 0.0000
# 2 30.3814 97.0200 -4.3845 0.0000 -5.1341 0.0000
# 3 11.1433 -4.3845 50.1966 0.0000 8.0892 0.0000
# 4 0.0000 0.0000 0.0000 -1.2867 0.0000 -52.9384
# 5 -5.0882 -5.1341 8.0892 0.0000 37.1564 0.0000
# 6 0.0000 0.0000 0.0000 -52.9384 0.0000 -54.4258
#
#
#
# Elastic Compliance Matrix: (Units=1/GPa)
#
#
# Indices 1 2 3 4 5 6 
#
# 1 0.008847 -0.002808 -0.002427 0.000000 0.001352 0.000000
# 2 -0.002808 0.011298 0.001472 0.000000 0.000856 0.000000
# 3 -0.002427 0.001472 0.021359 0.000000 -0.004779 0.000000
# 4 0.000000 0.000000 0.000000 0.019918 0.000000 -0.019374
# 5 0.001352 0.000856 -0.004779 0.000000 0.028257 0.000000
# 6 0.000000 0.000000 0.000000 -0.019374 0.000000 0.000471
#
#
# Mechanical properties :
#
#
# Convention : Reuss Voigt Hill
#
# Bulk Modulus (GPa) = 29.43073 38.66831 34.04952
# Shear Modulus (GPa) = 45.87045 12.06173 28.96609
#
# Velocity S-wave (km/s) = 4.63804 2.37833 3.68564
# Velocity P-wave (km/s) = 6.51795 5.06713 5.83779
#
# Compressibility (1/GPa) = 0.03397809
#
# Stress axis : x y z
#
# Youngs Moduli (GPa) = 113.03850 88.50785 46.81823
#
# Poissons Ratio (x) = 0.24857 0.11363
# Poissons Ratio (y) = 0.31746 -0.06893
# Poissons Ratio (z) = 0.27435 -0.13032
#
# Static dielectric constant tensor:
#      x y z
#    x 1.759750 0.000000 -0.004970 
#    y 0.000000 1.799030 0.000000 
#    z -0.004970 0.000000 1.805210 
# 
# From -- ./inp_files/13844.got.cif
#   From: 2010.05.17/outbox.cif.g08.bks.cpg/sg15_7_cif.got.tgz:13844.got - 2010.06.03 18:47:42.
