data_PCOD9291719
_publ_section_title
;
Structure prediction by ZEFSAII (Michael W. Deem and Ramdas Pophale) SiO2 
 PCOD9291719
Probable space group: C 2/C
;
_chemical_formula_sum "Si O2"
_cell_formula_units_Z 32
_cell_length_a 18.818200
_cell_length_b 4.811313
_cell_length_c 13.722606
_cell_angle_alpha 90.000000
_cell_angle_beta 95.691727
_cell_angle_gamma 90.000000
_cell_volume 1236.322789
_symmetry_space_group_name_H-M "C 2/C"
_symmetry_group_IT_number 15
_symmetry_cell_setting 'monoclinic'
loop_
_space_group_symop_operation_xyz
x,y,z
-x,y,1/2-z
-x,-y,-z
x,-y,1/2+z
1/2+x,1/2+y,z
1/2-x,1/2+y,1/2-z
1/2-x,1/2-y,-z
1/2+x,1/2-y,1/2+z
loop_
_atom_site_type_symbol
_atom_site_label
_atom_site_fract_x
_atom_site_fract_y
_atom_site_fract_z
Si Si1 0.683844 0.772506 0.651219
Si Si2 0.429005 0.165180 0.966189
Si Si3 0.031774 0.976195 0.349933
Si Si4 0.663761 0.257045 0.781887
O O1 0.630265 0.938583 0.572824
O O2 0.670737 0.942268 0.748804
O O3 0.767763 0.814422 0.640275
O O4 0.673230 0.455141 0.686135
O O5 0.463791 0.389330 0.895519
O O6 0.417469 0.320305 0.066301
O O7 0.500000 0.000000 0.000000
O O8 0.086341 0.200602 0.315074
O O9 0.000000 0.821258 0.250000
#
# Coordination Sequence:
#
# PCOD9291719 Si02
#       4
#     8   8   8   8
#     4  10  22  43  67  98 135 170 229 264 336 391
#     4  11  25  39  64  99 132 173 223 282 319 408
#     4  11  23  41  65  94 132 174 223 269 340 385
#     4  10  22  42  70  95 131 184 211 278 327 401
#
# _framework density 25.883210999999999
#
# number of rings (size 3 to 8) (size 9 to 14) (size 15 to 20)
#    0.000    1.500    2.500    1.500    7.000    2.000 
#    0.000    1.250    0.000    0.000    0.000    0.000 
#    0.000    0.000    0.000    0.000    0.000    0.000 
#
# Total GULP energy -89279.623231 kJ/mol
# GULP energy per Si atom -5579.976452 kJ/mol
# Density = 2.582430 g / cm^3
# Si number density = 25.883211 Si / 1000 Ang^3
#
#
#
# Elastic Constant Matrix: (Units=GPa)
#
#
# Indices 1 2 3 4 5 6 
#
# 1 131.2443 -10.5004 19.7553 0.0000 33.0896 0.0000
# 2 -10.5004 62.1319 2.0513 0.0000 -7.5463 0.0000
# 3 19.7553 2.0513 97.2560 0.0000 16.1364 0.0000
# 4 0.0000 0.0000 0.0000 16.5992 0.0000 10.2934
# 5 33.0896 -7.5463 16.1364 0.0000 41.6075 0.0000
# 6 0.0000 0.0000 0.0000 10.2934 0.0000 32.7919
#
#
#
# Elastic Compliance Matrix: (Units=1/GPa)
#
#
# Indices 1 2 3 4 5 6 
#
# 1 0.009615 0.000775 -0.000774 0.000000 -0.007206 0.000000
# 2 0.000775 0.016594 -0.000967 0.000000 0.002768 0.000000
# 3 -0.000774 -0.000967 0.011101 0.000000 -0.003865 0.000000
# 4 0.000000 0.000000 0.000000 0.074805 0.000000 -0.023481
# 5 -0.007206 0.002768 -0.003865 0.000000 0.031766 0.000000
# 6 0.000000 0.000000 0.000000 -0.023481 0.000000 0.037866
#
#
# Mechanical properties :
#
#
# Convention : Reuss Voigt Hill
#
# Bulk Modulus (GPa) = 28.26539 34.80496 31.53518
# Shear Modulus (GPa) = 25.57940 36.82144 31.20042
#
# Velocity S-wave (km/s) = 3.14707 3.77583 3.47570
# Velocity P-wave (km/s) = 4.91421 5.69959 5.32141
#
# Compressibility (1/GPa) = 0.03537896
#
# Stress axis : x y z
#
# Youngs Moduli (GPa) = 104.00888 60.26301 90.08186
#
# Poissons Ratio (x) = -0.04672 0.06971
# Poissons Ratio (y) = -0.08063 0.08709
# Poissons Ratio (z) = 0.08048 0.05826
#
# Static dielectric constant tensor:
#      x y z
#    x 1.989370 0.000000 0.187530 
#    y 0.000000 3.091920 0.000000 
#    z 0.187530 0.000000 1.788770 
# 
# From -- ./inp_files/109031.got.cif
#   From: 2010.05.17/outbox.cif.g08.bks.cpg/sg15_55_cif.got.tgz:109031.got - 2010.06.03 18:47:42.
