data_PCOD9291851
_publ_section_title
;
Structure prediction by ZEFSAII (Michael W. Deem and Ramdas Pophale) SiO2 
 PCOD9291851
Probable space group: C 2/C
;
_chemical_formula_sum "Si O2"
_cell_formula_units_Z 48
_cell_length_a 8.802979
_cell_length_b 29.949189
_cell_length_c 7.944976
_cell_angle_alpha 90.000000
_cell_angle_beta 81.763871
_cell_angle_gamma 90.000000
_cell_volume 2073.026201
_symmetry_space_group_name_H-M "C 2/C"
_symmetry_group_IT_number 15
_symmetry_cell_setting 'monoclinic'
loop_
_space_group_symop_operation_xyz
x,y,z
-x,y,1/2-z
-x,-y,-z
x,-y,1/2+z
1/2+x,1/2+y,z
1/2-x,1/2+y,1/2-z
1/2-x,1/2-y,-z
1/2+x,1/2-y,1/2+z
loop_
_atom_site_type_symbol
_atom_site_label
_atom_site_fract_x
_atom_site_fract_y
_atom_site_fract_z
Si Si1 0.313727 0.735127 0.803953
Si Si2 0.572064 0.626488 0.408784
Si Si3 0.665122 0.951261 0.306896
Si Si4 0.728897 0.356969 0.358015
Si Si5 0.345588 0.525394 0.083949
Si Si6 0.670672 0.828910 0.793120
O O1 0.500000 0.730738 0.750000
O O2 0.244829 0.688650 0.747883
O O3 0.272744 0.777993 0.695810
O O4 0.250000 0.750000 0.000000
O O5 0.500000 0.646114 0.250000
O O6 0.452456 0.637160 0.572312
O O7 0.592726 0.574090 0.380853
O O8 0.736084 0.648747 0.375308
O O9 0.500000 0.957552 0.250000
O O10 0.719067 0.901722 0.245327
O O11 0.695585 0.960233 0.497304
O O12 0.778015 0.989659 0.221614
O O13 0.808193 0.353739 0.531237
O O14 0.500000 0.500000 0.000000
O O15 0.500000 0.827989 0.750000
#
# Coordination Sequence:
#
# PCOD9291851 Si02
#       6
#     8   8   8   8   8   8
#     4  11  25  44  74 108 150 196 252 312 373 446
#     4  10  22  42  73 102 139 188 249 301 360 448
#     4  12  29  45  69 107 145 189 238 310 378 441
#     4  11  25  45  72 105 147 191 251 299 372 445
#     4  12  25  46  73 101 141 188 245 297 369 446
#     4  10  24  44  70 106 143 195 241 312 377 438
#
# _framework density 23.154558000000002
#
# number of rings (size 3 to 8) (size 9 to 14) (size 15 to 20)
#    0.000    1.000    1.667    3.500    9.333    2.000 
#    0.000    5.833    0.000    0.000    0.000    0.000 
#    0.000    0.000    0.000    0.000    0.000    0.000 
#
# Total GULP energy -133908.544257 kJ/mol
# GULP energy per Si atom -5579.522677 kJ/mol
# Density = 2.310186 g / cm^3
# Si number density = 23.154558 Si / 1000 Ang^3
#
#
#
# Elastic Constant Matrix: (Units=GPa)
#
#
# Indices 1 2 3 4 5 6 
#
# 1 92.5874 20.3472 15.7256 0.0000 -3.4568 0.0000
# 2 20.3472 162.1034 13.9011 0.0000 -5.4879 0.0000
# 3 15.7256 13.9011 53.1846 0.0000 10.7381 0.0000
# 4 0.0000 0.0000 0.0000 31.5369 0.0000 10.0444
# 5 -3.4568 -5.4879 10.7381 0.0000 31.9294 0.0000
# 6 0.0000 0.0000 0.0000 10.0444 0.0000 16.7986
#
#
#
# Elastic Compliance Matrix: (Units=1/GPa)
#
#
# Indices 1 2 3 4 5 6 
#
# 1 0.011746 -0.001082 -0.003658 0.000000 0.002316 0.000000
# 2 -0.001082 0.006503 -0.001697 0.000000 0.001571 0.000000
# 3 -0.003658 -0.001697 0.021957 0.000000 -0.008072 0.000000
# 4 0.000000 0.000000 0.000000 0.039168 0.000000 -0.023420
# 5 0.002316 0.001571 -0.008072 0.000000 0.034555 0.000000
# 6 0.000000 0.000000 0.000000 -0.023420 0.000000 0.073532
#
#
# Mechanical properties :
#
#
# Convention : Reuss Voigt Hill
#
# Bulk Modulus (GPa) = 36.58632 45.31369 40.95001
# Shear Modulus (GPa) = 23.87243 33.24642 28.55942
#
# Velocity S-wave (km/s) = 3.21441 3.79337 3.51583
# Velocity P-wave (km/s) = 5.44167 6.22887 5.84853
#
# Compressibility (1/GPa) = 0.02733262
#
# Stress axis : x y z
#
# Youngs Moduli (GPa) = 85.13412 153.76372 45.54289
#
# Poissons Ratio (x) = 0.16642 0.16659
# Poissons Ratio (y) = 0.09214 0.07729
# Poissons Ratio (z) = 0.31140 0.26095
#
# Static dielectric constant tensor:
#      x y z
#    x 2.023270 0.000000 0.023770 
#    y 0.000000 1.636910 0.000000 
#    z 0.023770 0.000000 1.936390 
# 
# From -- ./inp_files/26100.got.cif
#   From: 2010.05.17/outbox.cif.g08.bks.cpg/sg15_14_cif.got.tgz:26100.got - 2010.06.03 18:47:42.
