data_PCOD9291290
_publ_section_title
;
Structure prediction by ZEFSAII (Michael W. Deem and Ramdas Pophale) SiO2 
 PCOD9291290
Probable space group: C 2/C
;
_chemical_formula_sum "Si O2"
_cell_formula_units_Z 52
_cell_length_a 19.893811
_cell_length_b 8.755389
_cell_length_c 16.519880
_cell_angle_alpha 90.000000
_cell_angle_beta 122.095884
_cell_angle_gamma 90.000000
_cell_volume 2437.618920
_symmetry_space_group_name_H-M "C 2/C"
_symmetry_group_IT_number 15
_symmetry_cell_setting 'monoclinic'
loop_
_space_group_symop_operation_xyz
x,y,z
-x,y,1/2-z
-x,-y,-z
x,-y,1/2+z
1/2+x,1/2+y,z
1/2-x,1/2+y,1/2-z
1/2-x,1/2-y,-z
1/2+x,1/2-y,1/2+z
loop_
_atom_site_type_symbol
_atom_site_label
_atom_site_fract_x
_atom_site_fract_y
_atom_site_fract_z
Si Si1 0.841808 0.585393 0.207991
Si Si2 0.769633 0.079159 0.987550
Si Si3 0.013075 0.249114 0.471888
Si Si4 0.383158 0.991387 0.401434
Si Si5 0.000000 0.256919 0.750000
Si Si6 0.756336 0.659909 0.918703
Si Si7 0.560601 0.456502 0.431224
O O1 0.804806 0.481909 0.112952
O O2 0.831024 0.511228 0.288380
O O3 0.932312 0.637690 0.248169
O O4 0.790868 0.740565 0.174301
O O5 0.750000 0.250000 0.000000
O O6 0.780884 0.000553 0.082469
O O7 0.848457 0.011124 0.993915
O O8 0.092200 0.341311 0.549868
O O9 0.957178 0.392186 0.417972
O O10 0.977384 0.148122 0.522489
O O11 0.020288 0.124418 0.405807
O O12 0.342625 0.886691 0.443562
O O13 0.045326 0.146204 0.842507
O O14 0.750000 0.750000 0.000000
#
# Coordination Sequence:
#
# PCOD9291290 Si02
#       7
#     8   8   8   8   4   8   8
#     4  11  25  43  68  98 133 183 229 282 346 417
#     4  11  24  42  68 100 135 181 228 285 343 417
#     4  10  23  41  68  98 132 178 221 286 343 409
#     4  11  23  42  67 100 135 176 232 283 344 413
#     4  12  24  44  72  94 132 182 230 282 348 412
#     4  10  22  42  66  92 135 182 221 275 347 408
#     4  11  23  44  67  96 137 175 228 278 349 412
#
# _framework density 21.332294000000001
#
# number of rings (size 3 to 8) (size 9 to 14) (size 15 to 20)
#    0.000    1.231    3.077    2.769    2.154    4.923 
#    2.769    0.000    0.000    0.000    0.000    0.000 
#    0.000    0.000    0.000    0.000    0.000    0.000 
#
# Total GULP energy -144774.765245 kJ/mol
# GULP energy per Si atom -5568.260202 kJ/mol
# Density = 2.128374 g / cm^3
# Si number density = 21.332294 Si / 1000 Ang^3
#
#
#
# Elastic Constant Matrix: (Units=GPa)
#
#
# Indices 1 2 3 4 5 6 
#
# 1 72.7014 26.1668 15.3492 0.0000 11.1330 0.0000
# 2 26.1668 135.2578 37.2168 0.0000 3.4487 0.0000
# 3 15.3492 37.2168 69.7812 0.0000 -1.5955 0.0000
# 4 0.0000 0.0000 0.0000 30.7871 0.0000 1.6335
# 5 11.1330 3.4487 -1.5955 0.0000 26.5605 0.0000
# 6 0.0000 0.0000 0.0000 1.6335 0.0000 34.2269
#
#
#
# Elastic Compliance Matrix: (Units=1/GPa)
#
#
# Indices 1 2 3 4 5 6 
#
# 1 0.016106 -0.002263 -0.002487 0.000000 -0.006607 0.000000
# 2 -0.002263 0.009036 -0.004332 0.000000 -0.000485 0.000000
# 3 -0.002487 -0.004332 0.017248 0.000000 0.002641 0.000000
# 4 0.000000 0.000000 0.000000 0.032564 0.000000 -0.001554
# 5 -0.006607 -0.000485 0.002641 0.000000 0.040641 0.000000
# 6 0.000000 0.000000 0.000000 -0.001554 0.000000 0.029291
#
#
# Mechanical properties :
#
#
# Convention : Reuss Voigt Hill
#
# Bulk Modulus (GPa) = 41.27841 48.35623 44.81732
# Shear Modulus (GPa) = 29.21842 31.58206 30.40024
#
# Velocity S-wave (km/s) = 3.70493 3.85188 3.77912
# Velocity P-wave (km/s) = 6.13956 6.51919 6.33223
#
# Compressibility (1/GPa) = 0.02422574
#
# Stress axis : x y z
#
# Youngs Moduli (GPa) = 62.08804 110.67432 57.97631
#
# Poissons Ratio (x) = 0.25048 0.14417
# Poissons Ratio (y) = 0.14052 0.25117
# Poissons Ratio (z) = 0.15440 0.47947
#
# Static dielectric constant tensor:
#      x y z
#    x 1.952420 0.000000 0.033060 
#    y 0.000000 1.787570 0.000000 
#    z 0.033060 0.000000 1.785120 
# 
# From -- ./inp_files/214342.got.cif
#   From: 2010.05.17/outbox.cif.g08.bks.cpg/sg15_108_cif.got.tgz:214342.got - 2010.06.03 18:47:42.
