data_PCOD9291804
_publ_section_title
;
Structure prediction by ZEFSAII (Michael W. Deem and Ramdas Pophale) SiO2 
 PCOD9291804
Probable space group: C 2/C
;
_chemical_formula_sum "Si O2"
_cell_formula_units_Z 36
_cell_length_a 9.517955
_cell_length_b 17.425634
_cell_length_c 16.275218
_cell_angle_alpha 90.000000
_cell_angle_beta 145.678125
_cell_angle_gamma 90.000000
_cell_volume 1522.004772
_symmetry_space_group_name_H-M "C 2/C"
_symmetry_group_IT_number 15
_symmetry_cell_setting 'monoclinic'
loop_
_space_group_symop_operation_xyz
x,y,z
-x,y,1/2-z
-x,-y,-z
x,-y,1/2+z
1/2+x,1/2+y,z
1/2-x,1/2+y,1/2-z
1/2-x,1/2-y,-z
1/2+x,1/2-y,1/2+z
loop_
_atom_site_type_symbol
_atom_site_label
_atom_site_fract_x
_atom_site_fract_y
_atom_site_fract_z
Si Si1 0.044568 0.120575 0.578401
Si Si2 0.237721 0.728804 0.090030
Si Si3 0.278793 0.545589 0.300219
Si Si4 0.000000 0.010320 0.250000
Si Si5 0.146035 0.610863 0.518938
O O1 0.192297 0.193517 0.619280
O O2 0.853770 0.095990 0.414036
O O3 0.886357 0.140208 0.583852
O O4 0.211402 0.044127 0.670822
O O5 0.500000 0.697737 0.250000
O O6 0.012989 0.671339 0.005766
O O7 0.250000 0.750000 0.000000
O O8 0.491368 0.552408 0.332478
O O9 0.033630 0.574910 0.136964
O O10 0.241927 0.956126 0.370596
#
# Coordination Sequence:
#
# PCOD9291804 Si02
#       5
#     8   8   8   4   8
#     4  10  24  46  72 103 139 189 234 288 358 434
#     4  12  29  46  72 106 147 189 237 303 356 422
#     4  10  22  42  72 104 136 179 234 293 350 422
#     4  10  24  40  72 102 140 188 226 298 340 428
#     4  11  24  46  69 104 140 191 235 286 357 424
#
# _framework density 23.653013000000001
#
# number of rings (size 3 to 8) (size 9 to 14) (size 15 to 20)
#    0.000    1.333    0.000    3.333   10.889    5.333 
#    4.000    0.000    0.000    0.000    0.000    0.000 
#    0.000    0.000    0.000    0.000    0.000    0.000 
#
# Total GULP energy -100747.902095 kJ/mol
# GULP energy per Si atom -5597.105672 kJ/mol
# Density = 2.359918 g / cm^3
# Si number density = 23.653013 Si / 1000 Ang^3
#
#
#
# Elastic Constant Matrix: (Units=GPa)
#
#
# Indices 1 2 3 4 5 6 
#
# 1 157.8601 40.7261 13.3853 0.0021 3.4083 -0.0009
# 2 40.7261 84.8114 20.3739 0.0025 20.0654 -0.0010
# 3 13.3853 20.3739 66.4098 0.0094 -10.0939 -0.0031
# 4 0.0021 0.0025 0.0094 26.5574 0.0014 5.4904
# 5 3.4083 20.0654 -10.0939 0.0014 40.7844 0.0005
# 6 -0.0009 -0.0010 -0.0031 5.4904 0.0005 43.5974
#
#
#
# Elastic Compliance Matrix: (Units=1/GPa)
#
#
# Indices 1 2 3 4 5 6 
#
# 1 0.007288 -0.003752 -0.000135 0.000000 0.001203 0.000000
# 2 -0.003752 0.017342 -0.006040 0.000001 -0.009713 0.000000
# 3 -0.000135 -0.006040 0.018072 -0.000007 0.007456 0.000002
# 4 0.000000 0.000001 -0.000007 0.038661 -0.000004 -0.004869
# 5 0.001203 -0.009713 0.007456 -0.000004 0.031043 0.000000
# 6 0.000000 0.000000 0.000002 -0.004869 0.000000 0.023550
#
#
# Mechanical properties :
#
#
# Convention : Reuss Voigt Hill
#
# Bulk Modulus (GPa) = 43.77009 50.89464 47.33236
# Shear Modulus (GPa) = 30.59499 37.82758 34.21129
#
# Velocity S-wave (km/s) = 3.60042 4.00343 3.80726
# Velocity P-wave (km/s) = 5.98575 6.55239 6.27547
#
# Compressibility (1/GPa) = 0.02284665
#
# Stress axis : x y z
#
# Youngs Moduli (GPa) = 137.20858 57.66450 55.33559
#
# Poissons Ratio (x) = 0.21636 0.00747
# Poissons Ratio (y) = 0.51482 0.33425
# Poissons Ratio (z) = 0.01852 0.34831
#
# Static dielectric constant tensor:
#      x y z
#    x 1.933850 0.000000 0.059100 
#    y 0.000000 1.941350 0.000000 
#    z 0.059100 0.000000 1.906960 
# 
# From -- ./inp_files/192659.got.cif
#   From: 2010.05.17/outbox.cif.g08.bks.cpg/sg15_97_cif.got.tgz:192659.got - 2010.06.03 18:47:42.
