data_PCOD9291524
_publ_section_title
;
Structure prediction by ZEFSAII (Michael W. Deem and Ramdas Pophale) SiO2 
 PCOD9291524
Probable space group: C 2/C
;
_chemical_formula_sum "Si O2"
_cell_formula_units_Z 52
_cell_length_a 17.755313
_cell_length_b 14.783692
_cell_length_c 11.411116
_cell_angle_alpha 90.000000
_cell_angle_beta 128.600508
_cell_angle_gamma 90.000000
_cell_volume 2340.866487
_symmetry_space_group_name_H-M "C 2/C"
_symmetry_group_IT_number 15
_symmetry_cell_setting 'monoclinic'
loop_
_space_group_symop_operation_xyz
x,y,z
-x,y,1/2-z
-x,-y,-z
x,-y,1/2+z
1/2+x,1/2+y,z
1/2-x,1/2+y,1/2-z
1/2-x,1/2-y,-z
1/2+x,1/2-y,1/2+z
loop_
_atom_site_type_symbol
_atom_site_label
_atom_site_fract_x
_atom_site_fract_y
_atom_site_fract_z
Si Si1 0.906105 0.128836 0.594055
Si Si2 0.500000 0.662631 0.250000
Si Si3 0.756780 0.089984 0.287501
Si Si4 0.312543 0.279362 0.228776
Si Si5 0.514831 0.234948 0.526546
Si Si6 0.216780 0.145246 0.454209
Si Si7 0.162745 0.409025 0.219424
O O1 0.849820 0.060369 0.453734
O O2 0.848759 0.170672 0.648211
O O3 0.938825 0.209856 0.537372
O O4 0.000000 0.087968 0.750000
O O5 0.467103 0.719631 0.330937
O O6 0.606279 0.623394 0.386631
O O7 0.731746 0.180747 0.334630
O O8 0.779614 0.117789 0.177881
O O9 0.676840 0.013273 0.202827
O O10 0.402555 0.248816 0.395378
O O11 0.240164 0.345780 0.225711
O O12 0.561515 0.136150 0.586463
O O13 0.250000 0.250000 0.500000
O O14 0.300059 0.096643 0.610682
#
# Coordination Sequence:
#
# PCOD9291524 Si02
#       7
#     8   4   8   8   8   8   8
#     4  10  22  42  68  94 134 183 227 273 348 409
#     4  12  18  38  72  88 130 176 216 284 326 394
#     4  12  25  43  68 100 142 175 230 290 343 414
#     4  11  23  44  68  93 137 184 219 288 341 405
#     4  11  22  41  69 100 129 182 231 272 342 410
#     4  12  22  44  68  98 133 182 228 275 345 404
#     4  12  26  41  70 102 134 180 228 283 353 405
#
# _framework density 22.213996000000002
#
# number of rings (size 3 to 8) (size 9 to 14) (size 15 to 20)
#    0.000    0.615    7.692    0.462    2.154    0.615 
#    1.385    3.846    5.077    0.000    0.000    0.000 
#    0.000    0.000    0.000    0.000    0.000    0.000 
#
# Total GULP energy -145002.050330 kJ/mol
# GULP energy per Si atom -5577.001936 kJ/mol
# Density = 2.216344 g / cm^3
# Si number density = 22.213996 Si / 1000 Ang^3
#
#
#
# Elastic Constant Matrix: (Units=GPa)
#
#
# Indices 1 2 3 4 5 6 
#
# 1 39.4467 -0.7998 13.5992 0.0000 -12.7202 0.0000
# 2 -0.7998 36.6539 6.2792 0.0000 -7.0099 0.0000
# 3 13.5992 6.2792 126.7527 0.0000 -11.9559 0.0000
# 4 0.0000 0.0000 0.0000 21.6648 0.0000 7.9318
# 5 -12.7202 -7.0099 -11.9559 0.0000 32.0450 0.0000
# 6 0.0000 0.0000 0.0000 7.9318 0.0000 18.8041
#
#
#
# Elastic Compliance Matrix: (Units=1/GPa)
#
#
# Indices 1 2 3 4 5 6 
#
# 1 0.030000 0.003297 -0.002271 0.000000 0.011782 0.000000
# 2 0.003297 0.028925 -0.001105 0.000000 0.007224 0.000000
# 3 -0.002271 -0.001105 0.008375 0.000000 0.001981 0.000000
# 4 0.000000 0.000000 0.000000 0.054588 0.000000 -0.023026
# 5 0.011782 0.007224 0.001981 0.000000 0.038203 0.000000
# 6 0.000000 0.000000 0.000000 -0.023026 0.000000 0.062892
#
#
# Mechanical properties :
#
#
# Convention : Reuss Voigt Hill
#
# Bulk Modulus (GPa) = 14.89395 26.77897 20.83646
# Shear Modulus (GPa) = 20.36492 26.75444 23.55968
#
# Velocity S-wave (km/s) = 3.03109 3.47421 3.26018
# Velocity P-wave (km/s) = 4.35538 5.30798 4.85510
#
# Compressibility (1/GPa) = 0.06714137
#
# Stress axis : x y z
#
# Youngs Moduli (GPa) = 33.33366 34.57216 119.40809
#
# Poissons Ratio (x) = -0.11398 0.27113
# Poissons Ratio (y) = -0.10990 0.13198
# Poissons Ratio (z) = 0.07569 0.03821
#
# Static dielectric constant tensor:
#      x y z
#    x 1.873230 0.000000 0.130120 
#    y 0.000000 1.913380 0.000000 
#    z 0.130120 0.000000 1.974590 
# 
# From -- ./inp_files/112784.got.cif
#   From: 2010.05.17/outbox.cif.g08.bks.cpg/sg15_57_cif.got.tgz:112784.got - 2010.06.03 18:47:42.
