data_PCOD9291092
_publ_section_title
;
Structure prediction by ZEFSAII (Michael W. Deem and Ramdas Pophale) SiO2 
 PCOD9291092
Probable space group: C 2/C
;
_chemical_formula_sum "Si O2"
_cell_formula_units_Z 40
_cell_length_a 5.623134
_cell_length_b 22.297551
_cell_length_c 13.568209
_cell_angle_alpha 90.000000
_cell_angle_beta 78.509522
_cell_angle_gamma 90.000000
_cell_volume 1667.114805
_symmetry_space_group_name_H-M "C 2/C"
_symmetry_group_IT_number 15
_symmetry_cell_setting 'monoclinic'
loop_
_space_group_symop_operation_xyz
x,y,z
-x,y,1/2-z
-x,-y,-z
x,-y,1/2+z
1/2+x,1/2+y,z
1/2-x,1/2+y,1/2-z
1/2-x,1/2-y,-z
1/2+x,1/2-y,1/2+z
loop_
_atom_site_type_symbol
_atom_site_label
_atom_site_fract_x
_atom_site_fract_y
_atom_site_fract_z
Si Si1 0.387194 0.711489 0.865205
Si Si2 0.228648 0.901271 0.793434
Si Si3 0.228671 0.957840 0.294083
Si Si4 0.063488 0.696659 0.494958
Si Si5 0.923036 0.893347 0.009281
O O1 0.500000 0.714515 0.750000
O O2 0.413062 0.776179 0.916346
O O3 0.512164 0.659635 0.919594
O O4 0.106659 0.694095 0.895506
O O5 0.500000 0.877276 0.750000
O O6 0.000000 0.874386 0.750000
O O7 0.240955 0.972006 0.765893
O O8 0.139980 0.900714 0.914483
O O9 0.500000 0.932930 0.250000
O O10 0.158506 0.947554 0.414259
O O11 0.000000 0.932751 0.250000
O O12 0.250000 0.750000 0.500000
O O13 0.194652 0.633900 0.468765
#
# Coordination Sequence:
#
# PCOD9291092 Si02
#       5
#     8   8   8   8   8
#     4  10  22  42  64  91 132 166 218 276 335 390
#     4  10  24  45  63  95 139 178 220 272 330 393
#     4  10  23  41  67 100 135 174 216 272 337 390
#     4   9  22  42  58  92 126 166 217 265 337 391
#     4  11  23  38  66  96 127 172 228 268 326 398
#
# _framework density 23.993547
#
# number of rings (size 3 to 8) (size 9 to 14) (size 15 to 20)
#    0.000    2.000    0.000    1.200    8.400    2.400 
#   10.800    6.000    0.000    0.000    0.000    0.000 
#    0.000    0.000    0.000    0.000    0.000    0.000 
#
# Total GULP energy -111668.430609 kJ/mol
# GULP energy per Si atom -5583.421530 kJ/mol
# Density = 2.393894 g / cm^3
# Si number density = 23.993547 Si / 1000 Ang^3
#
#
#
# Elastic Constant Matrix: (Units=GPa)
#
#
# Indices 1 2 3 4 5 6 
#
# 1 155.7946 13.4665 68.2672 0.0000 -38.5801 0.0000
# 2 13.4665 24.4306 -12.4164 0.0000 2.3019 0.0000
# 3 68.2672 -12.4164 158.9905 0.0000 -39.3136 0.0000
# 4 0.0000 0.0000 0.0000 23.9238 0.0000 -1.5185
# 5 -38.5801 2.3019 -39.3136 0.0000 41.7817 0.0000
# 6 0.0000 0.0000 0.0000 -1.5185 0.0000 11.5859
#
#
#
# Elastic Compliance Matrix: (Units=1/GPa)
#
#
# Indices 1 2 3 4 5 6 
#
# 1 0.010252 -0.007993 -0.003358 0.000000 0.006747 0.000000
# 2 -0.007993 0.048890 0.006202 0.000000 -0.004238 0.000000
# 3 -0.003358 0.006202 0.009598 0.000000 0.005589 0.000000
# 4 0.000000 0.000000 0.000000 0.042150 0.000000 0.005524
# 5 0.006747 -0.004238 0.005589 0.000000 0.035656 0.000000
# 6 0.000000 0.000000 0.000000 0.005524 0.000000 0.087035
#
#
# Mechanical properties :
#
#
# Convention : Reuss Voigt Hill
#
# Bulk Modulus (GPa) = 17.11111 53.09445 35.10278
# Shear Modulus (GPa) = 18.98550 33.45152 26.21851
#
# Velocity S-wave (km/s) = 2.81601 3.73793 3.30924
# Velocity P-wave (km/s) = 4.20954 6.38797 5.40955
#
# Compressibility (1/GPa) = 0.05844158
#
# Stress axis : x y z
#
# Youngs Moduli (GPa) = 97.54404 20.45418 104.19193
#
# Poissons Ratio (x) = 0.16349 0.34985
# Poissons Ratio (y) = 0.77969 -0.64621
# Poissons Ratio (z) = 0.32753 -0.12686
#
# Static dielectric constant tensor:
#      x y z
#    x 2.087260 0.000000 0.089300 
#    y 0.000000 1.915370 0.000000 
#    z 0.089300 0.000000 1.918780 
# 
# From -- ./inp_files/73050.got.cif
#   From: 2010.05.17/outbox.cif.g08.bks.cpg/sg15_37_cif.got.tgz:73050.got - 2010.06.03 18:47:42.
