data_PCOD9291057
_publ_section_title
;
Structure prediction by ZEFSAII (Michael W. Deem and Ramdas Pophale) SiO2 
 PCOD9291057
Probable space group: C 2/C
;
_chemical_formula_sum "Si O2"
_cell_formula_units_Z 52
_cell_length_a 11.117373
_cell_length_b 27.570097
_cell_length_c 9.968225
_cell_angle_alpha 90.000000
_cell_angle_beta 47.477745
_cell_angle_gamma 90.000000
_cell_volume 2251.824559
_symmetry_space_group_name_H-M "C 2/C"
_symmetry_group_IT_number 15
_symmetry_cell_setting 'monoclinic'
loop_
_space_group_symop_operation_xyz
x,y,z
-x,y,1/2-z
-x,-y,-z
x,-y,1/2+z
1/2+x,1/2+y,z
1/2-x,1/2+y,1/2-z
1/2-x,1/2-y,-z
1/2+x,1/2-y,1/2+z
loop_
_atom_site_type_symbol
_atom_site_label
_atom_site_fract_x
_atom_site_fract_y
_atom_site_fract_z
Si Si1 0.834043 0.772791 0.303623
Si Si2 0.686229 0.068134 0.705630
Si Si3 0.383275 0.500047 0.715198
Si Si4 0.770761 0.814607 0.797489
Si Si5 0.000000 0.480800 0.750000
Si Si6 0.843855 0.167754 0.542515
Si Si7 0.121565 0.582955 0.397421
O O1 0.750000 0.750000 0.500000
O O2 0.825746 0.727962 0.204923
O O3 0.779394 0.814539 0.237839
O O4 0.000000 0.789804 0.250000
O O5 0.769687 0.046281 0.775471
O O6 0.800317 0.110556 0.564006
O O7 0.491103 0.087685 0.615666
O O8 0.650643 0.018702 0.647974
O O9 0.500000 0.505925 0.750000
O O10 0.500000 0.500000 0.500000
O O11 0.277586 0.451242 0.803607
O O12 0.686189 0.864278 0.816416
O O13 0.962997 0.818957 0.611492
O O14 0.767149 0.810320 0.962981
O O15 0.973723 0.446043 0.645469
#
# Coordination Sequence:
#
# PCOD9291057 Si02
#       7
#     8   8   8   8   4   8   8
#     4  12  27  52  77 110 148 183 238 304 374 443
#     4  11  25  43  69 102 144 191 250 298 355 432
#     4  11  26  43  69 100 143 193 240 299 364 422
#     4  11  26  48  76 108 144 193 241 299 370 439
#     4  10  22  42  64 102 142 192 240 302 348 414
#     4  11  26  49  76 106 146 190 246 298 364 444
#     4  11  26  42  72 101 146 191 251 299 357 431
#
# _framework density 23.092386999999999
#
# number of rings (size 3 to 8) (size 9 to 14) (size 15 to 20)
#    0.000    0.923    1.538    4.154   16.154    0.615 
#    0.000    0.000    0.000    0.000    0.000    0.000 
#    0.000    0.000    0.000    0.000    0.000    0.000 
#
# Total GULP energy -145072.031253 kJ/mol
# GULP energy per Si atom -5579.693510 kJ/mol
# Density = 2.303983 g / cm^3
# Si number density = 23.092387 Si / 1000 Ang^3
#
#
#
# Elastic Constant Matrix: (Units=GPa)
#
#
# Indices 1 2 3 4 5 6 
#
# 1 109.1574 35.2264 43.9721 0.0000 35.6942 0.0000
# 2 35.2264 110.4708 26.2744 0.0000 24.4956 0.0000
# 3 43.9721 26.2744 94.8918 0.0000 30.0427 0.0000
# 4 0.0000 0.0000 0.0000 30.6829 0.0000 10.1245
# 5 35.6942 24.4956 30.0427 0.0000 49.3325 0.0000
# 6 0.0000 0.0000 0.0000 10.1245 0.0000 31.0892
#
#
#
# Elastic Compliance Matrix: (Units=1/GPa)
#
#
# Indices 1 2 3 4 5 6 
#
# 1 0.013371 -0.001966 -0.003590 0.000000 -0.006512 0.000000
# 2 -0.001966 0.010638 -0.001007 0.000000 -0.003247 0.000000
# 3 -0.003590 -0.001007 0.014247 0.000000 -0.005579 0.000000
# 4 0.000000 0.000000 0.000000 0.036515 0.000000 -0.011892
# 5 -0.006512 -0.003247 -0.005579 0.000000 0.029992 0.000000
# 6 0.000000 0.000000 0.000000 -0.011892 0.000000 0.036038
#
#
# Mechanical properties :
#
#
# Convention : Reuss Voigt Hill
#
# Bulk Modulus (GPa) = 39.79103 58.38511 49.08807
# Shear Modulus (GPa) = 30.80635 36.15739 33.48187
#
# Velocity S-wave (km/s) = 3.65642 3.96128 3.81190
# Velocity P-wave (km/s) = 5.92407 6.80150 6.37789
#
# Compressibility (1/GPa) = 0.02513129
#
# Stress axis : x y z
#
# Youngs Moduli (GPa) = 74.78798 93.99870 70.19102
#
# Poissons Ratio (x) = 0.18479 0.25198
# Poissons Ratio (y) = 0.14702 0.07066
# Poissons Ratio (z) = 0.26849 0.09463
#
# Static dielectric constant tensor:
#      x y z
#    x 1.902700 0.000000 -0.013370 
#    y 0.000000 1.565630 0.000000 
#    z -0.013370 0.000000 1.971920 
# 
# From -- ./inp_files/33485.got.cif
#   From: 2010.05.17/outbox.cif.g08.bks.cpg/sg15_17_cif.got.tgz:33485.got - 2010.06.03 18:47:42.
