data_PCOD9291066
_publ_section_title
;
Structure prediction by ZEFSAII (Michael W. Deem and Ramdas Pophale) SiO2 
 PCOD9291066
Probable space group: C 2/C
;
_chemical_formula_sum "Si O2"
_cell_formula_units_Z 60
_cell_length_a 13.099349
_cell_length_b 29.346786
_cell_length_c 8.540322
_cell_angle_alpha 90.000000
_cell_angle_beta 110.454504
_cell_angle_gamma 90.000000
_cell_volume 3076.103252
_symmetry_space_group_name_H-M "C 2/C"
_symmetry_group_IT_number 15
_symmetry_cell_setting 'monoclinic'
loop_
_space_group_symop_operation_xyz
x,y,z
-x,y,1/2-z
-x,-y,-z
x,-y,1/2+z
1/2+x,1/2+y,z
1/2-x,1/2+y,1/2-z
1/2-x,1/2-y,-z
1/2+x,1/2-y,1/2+z
loop_
_atom_site_type_symbol
_atom_site_label
_atom_site_fract_x
_atom_site_fract_y
_atom_site_fract_z
Si Si1 0.947346 0.148125 0.562034
Si Si2 0.770431 0.702406 0.093622
Si Si3 0.000000 0.657768 0.750000
Si Si4 0.193337 0.940998 0.501957
Si Si5 0.805954 0.295514 0.963558
Si Si6 0.332439 0.373485 0.472118
Si Si7 0.664486 0.124489 0.597020
Si Si8 0.368149 0.536733 0.178436
O O1 0.847804 0.178552 0.450202
O O2 0.897057 0.098374 0.571322
O O3 0.000000 0.167043 0.750000
O O4 0.044208 0.141464 0.492264
O O5 0.826486 0.709395 0.290608
O O6 0.750000 0.750000 0.000000
O O7 0.835484 0.668438 0.014882
O O8 0.058736 0.626720 0.650061
O O9 0.911277 0.689839 0.618905
O O10 0.304603 0.918388 0.495819
O O11 0.183692 0.952225 0.680543
O O12 0.166037 0.986686 0.394568
O O13 0.750000 0.250000 0.000000
O O14 0.724398 0.337979 0.943299
O O15 0.264608 0.371182 0.274137
O O16 0.329815 0.424237 0.538286
O O17 0.500000 0.538493 0.250000
#
# Coordination Sequence:
#
# PCOD9291066 Si02
#       8
#     8   8   4   8   8   8   8   8
#     4  11  21  37  62  89 133 171 207 254 325 396
#     4  11  23  40  60  94 129 165 216 265 324 392
#     4  10  24  48  68  90 122 174 220 280 332 378
#     4  11  22  36  57  93 133 176 215 264 322 403
#     4  11  26  44  66  95 127 168 221 270 328 389
#     4  11  21  38  60  91 128 170 205 261 321 392
#     4  10  22  42  64  86 125 168 223 267 325 384
#     4  12  23  33  59  95 140 174 213 260 337 395
#
# _framework density 19.505196999999999
#
# number of rings (size 3 to 8) (size 9 to 14) (size 15 to 20)
#    0.000    1.067    4.000    4.800    0.000    2.667 
#    0.000    0.000    0.000    7.200    0.000    0.000 
#    0.000    0.000    0.000    0.000    0.000    0.000 
#
# Total GULP energy -167627.215599 kJ/mol
# GULP energy per Si atom -5587.573853 kJ/mol
# Density = 1.946080 g / cm^3
# Si number density = 19.505197 Si / 1000 Ang^3
#
#
#
# Elastic Constant Matrix: (Units=GPa)
#
#
# Indices 1 2 3 4 5 6 
#
# 1 119.6107 40.3831 32.3693 0.0000 -18.5061 0.0000
# 2 40.3831 118.8503 33.1459 0.0000 -7.2154 0.0000
# 3 32.3693 33.1459 104.6365 0.0000 -24.9360 0.0000
# 4 0.0000 0.0000 0.0000 33.4411 0.0000 -9.4839
# 5 -18.5061 -7.2154 -24.9360 0.0000 31.6210 0.0000
# 6 0.0000 0.0000 0.0000 -9.4839 0.0000 13.7833
#
#
#
# Elastic Compliance Matrix: (Units=1/GPa)
#
#
# Indices 1 2 3 4 5 6 
#
# 1 0.010360 -0.002909 -0.001227 0.000000 0.004432 0.000000
# 2 -0.002909 0.010048 -0.002638 0.000000 -0.001490 0.000000
# 3 -0.001227 -0.002638 0.012878 0.000000 0.008835 0.000000
# 4 0.000000 0.000000 0.000000 0.037153 0.000000 0.025564
# 5 0.004432 -0.001490 0.008835 0.000000 0.040845 0.000000
# 6 0.000000 0.000000 0.000000 0.025564 0.000000 0.090142
#
#
# Mechanical properties :
#
#
# Convention : Reuss Voigt Hill
#
# Bulk Modulus (GPa) = 50.66621 61.65490 56.16056
# Shear Modulus (GPa) = 22.56789 31.58237 27.07513
#
# Velocity S-wave (km/s) = 3.40519 4.02827 3.72976
# Velocity P-wave (km/s) = 6.44147 7.30164 6.88500
#
# Compressibility (1/GPa) = 0.01973702
#
# Stress axis : x y z
#
# Youngs Moduli (GPa) = 96.52141 99.52637 77.65367
#
# Poissons Ratio (x) = 0.28951 0.09531
# Poissons Ratio (y) = 0.28077 0.20485
# Poissons Ratio (z) = 0.11847 0.26255
#
# Static dielectric constant tensor:
#      x y z
#    x 1.697100 0.000000 -0.024430 
#    y 0.000000 1.651670 0.000000 
#    z -0.024430 0.000000 1.709240 
# 
# From -- ./inp_files/44311.got.cif
#   From: 2010.05.17/outbox.cif.g08.bks.cpg/sg15_23_cif.got.tgz:44311.got - 2010.06.03 18:47:42.
