data_PCOD9291579
_publ_section_title
;
Structure prediction by ZEFSAII (Michael W. Deem and Ramdas Pophale) SiO2 
 PCOD9291579
Probable space group: C 2/C
;
_chemical_formula_sum "Si O2"
_cell_formula_units_Z 44
_cell_length_a 9.705763
_cell_length_b 15.997881
_cell_length_c 13.001971
_cell_angle_alpha 90.000000
_cell_angle_beta 100.950145
_cell_angle_gamma 90.000000
_cell_volume 1982.080087
_symmetry_space_group_name_H-M "C 2/C"
_symmetry_group_IT_number 15
_symmetry_cell_setting 'monoclinic'
loop_
_space_group_symop_operation_xyz
x,y,z
-x,y,1/2-z
-x,-y,-z
x,-y,1/2+z
1/2+x,1/2+y,z
1/2-x,1/2+y,1/2-z
1/2-x,1/2-y,-z
1/2+x,1/2-y,1/2+z
loop_
_atom_site_type_symbol
_atom_site_label
_atom_site_fract_x
_atom_site_fract_y
_atom_site_fract_z
Si Si1 0.500000 0.598618 0.750000
Si Si2 0.500000 0.844525 0.250000
Si Si3 0.500000 0.880569 0.750000
Si Si4 0.106135 0.484427 0.420837
Si Si5 0.100375 0.969323 0.924425
Si Si6 0.859747 0.240423 0.863205
Si Si7 0.549140 0.279646 0.900441
O O1 0.592929 0.537623 0.833775
O O2 0.399690 0.658507 0.803214
O O3 0.562388 0.776623 0.176840
O O4 0.572656 0.907760 0.339998
O O5 0.408820 0.936847 0.658477
O O6 0.400052 0.821069 0.802703
O O7 0.249851 0.465064 0.499573
O O8 0.000000 0.500000 0.500000
O O9 0.048301 0.878354 0.881374
O O10 0.000000 0.000000 0.000000
O O11 0.701663 0.248150 0.881882
O O12 0.955444 0.236306 0.979055
#
# Coordination Sequence:
#
# PCOD9291579 Si02
#       7
#     4   4   4   8   8   8   8
#     4  11  25  45  73 100 150 194 247 301 379 419
#     4  11  25  39  71 102 134 196 235 293 363 423
#     4  10  22  42  68  98 138 184 238 302 362 416
#     4  11  25  44  69 105 145 186 248 298 362 440
#     4  12  26  45  72 108 145 192 243 308 367 436
#     4  10  22  44  67 100 140 191 239 305 348 440
#     4  11  22  43  68  98 145 183 244 292 367 429
#
# _framework density 22.198902
#
# number of rings (size 3 to 8) (size 9 to 14) (size 15 to 20)
#    0.000    1.091    1.818    4.909    2.545    4.364 
#    0.000    1.818    0.000    0.000    0.000    0.000 
#    0.000    0.000    0.000    0.000    0.000    0.000 
#
# Total GULP energy -122914.323888 kJ/mol
# GULP energy per Si atom -5587.014722 kJ/mol
# Density = 2.214838 g / cm^3
# Si number density = 22.198902 Si / 1000 Ang^3
#
#
#
# Elastic Constant Matrix: (Units=GPa)
#
#
# Indices 1 2 3 4 5 6 
#
# 1 55.4094 26.1051 26.6167 0.0000 -5.5994 0.0000
# 2 26.1051 204.6497 96.5493 0.0000 -0.8559 0.0000
# 3 26.6167 96.5493 187.2839 0.0000 5.7056 0.0000
# 4 0.0000 0.0000 0.0000 50.1815 0.0000 -5.5389
# 5 -5.5994 -0.8559 5.7056 0.0000 38.5279 0.0000
# 6 0.0000 0.0000 0.0000 -5.5389 0.0000 16.7414
#
#
#
# Elastic Compliance Matrix: (Units=1/GPa)
#
#
# Indices 1 2 3 4 5 6 
#
# 1 0.020136 -0.001531 -0.002170 0.000000 0.003214 0.000000
# 2 -0.001531 0.006589 -0.003191 0.000000 0.000396 0.000000
# 3 -0.002170 -0.003191 0.007338 0.000000 -0.001473 0.000000
# 4 0.000000 0.000000 0.000000 0.020683 0.000000 0.006843
# 5 0.003214 0.000396 -0.001473 0.000000 0.026649 0.000000
# 6 0.000000 0.000000 0.000000 0.006843 0.000000 0.061996
#
#
# Mechanical properties :
#
#
# Convention : Reuss Voigt Hill
#
# Bulk Modulus (GPa) = 49.31542 82.87614 66.09578
# Shear Modulus (GPa) = 30.49970 40.96161 35.73065
#
# Velocity S-wave (km/s) = 3.71068 4.30025 4.01630
# Velocity P-wave (km/s) = 6.37356 7.87849 7.16565
#
# Compressibility (1/GPa) = 0.02027763
#
# Stress axis : x y z
#
# Youngs Moduli (GPa) = 49.66181 151.76988 136.27805
#
# Poissons Ratio (x) = 0.23240 0.29576
# Poissons Ratio (y) = 0.07604 0.43489
# Poissons Ratio (z) = 0.10778 0.48433
#
# Static dielectric constant tensor:
#      x y z
#    x 1.831460 0.000000 0.056170 
#    y 0.000000 1.829990 0.000000 
#    z 0.056170 0.000000 1.865970 
# 
# From -- ./inp_files/86210.got.cif
#   From: 2010.05.17/outbox.cif.g08.bks.cpg/sg15_44_cif.got.tgz:86210.got - 2010.06.03 18:47:42.
