data_PCOD9291431
_publ_section_title
;
Structure prediction by ZEFSAII (Michael W. Deem and Ramdas Pophale) SiO2 
 PCOD9291431
Probable space group: C 2/C
;
_chemical_formula_sum "Si O2"
_cell_formula_units_Z 44
_cell_length_a 7.970399
_cell_length_b 21.608166
_cell_length_c 12.728561
_cell_angle_alpha 90.000000
_cell_angle_beta 113.336598
_cell_angle_gamma 90.000000
_cell_volume 2012.850455
_symmetry_space_group_name_H-M "C 2/C"
_symmetry_group_IT_number 15
_symmetry_cell_setting 'monoclinic'
loop_
_space_group_symop_operation_xyz
x,y,z
-x,y,1/2-z
-x,-y,-z
x,-y,1/2+z
1/2+x,1/2+y,z
1/2-x,1/2+y,1/2-z
1/2-x,1/2-y,-z
1/2+x,1/2-y,1/2+z
loop_
_atom_site_type_symbol
_atom_site_label
_atom_site_fract_x
_atom_site_fract_y
_atom_site_fract_z
Si Si1 0.758029 0.751637 0.875697
Si Si2 0.204449 0.493874 0.007717
Si Si3 0.322084 0.615897 0.385547
Si Si4 0.500000 0.360435 0.250000
Si Si5 0.500000 0.535346 0.250000
Si Si6 0.187199 0.113599 0.595007
Si Si7 0.000000 0.705542 0.750000
O O1 0.703099 0.822843 0.838873
O O2 0.646936 0.688779 0.827453
O O3 0.919148 0.743213 0.828793
O O4 0.750000 0.750000 0.000000
O O5 0.355011 0.501739 0.136846
O O6 0.237083 0.431241 0.949785
O O7 0.239234 0.551591 0.938716
O O8 0.000000 0.500000 0.000000
O O9 0.373763 0.577934 0.294558
O O10 0.518919 0.637568 0.482333
O O11 0.403016 0.399226 0.315124
O O12 0.343952 0.162853 0.658313
#
# Coordination Sequence:
#
# PCOD9291431 Si02
#       7
#     8   8   8   4   4   8   4
#     4  11  23  44  66 101 137 175 226 280 332 412
#     4  11  27  43  69 102 133 178 226 283 344 409
#     4  11  24  44  67  97 135 175 220 281 343 401
#     4  10  22  43  68  96 130 183 220 270 340 402
#     4  10  23  47  66  98 138 174 222 284 344 402
#     4  10  22  42  67  96 131 172 225 279 331 409
#     4  10  25  42  70 104 130 183 230 274 344 412
#
# _framework density 21.859546999999999
#
# number of rings (size 3 to 8) (size 9 to 14) (size 15 to 20)
#    0.000    1.455    1.818    2.727    2.545    8.727 
#    3.273    0.000    0.000    0.000    0.000    0.000 
#    0.000    0.000    0.000    0.000    0.000    0.000 
#
# Total GULP energy -122695.916313 kJ/mol
# GULP energy per Si atom -5577.087105 kJ/mol
# Density = 2.180979 g / cm^3
# Si number density = 21.859547 Si / 1000 Ang^3
#
#
#
# Elastic Constant Matrix: (Units=GPa)
#
#
# Indices 1 2 3 4 5 6 
#
# 1 146.6473 81.3304 80.0349 0.0000 -33.5482 0.0000
# 2 81.3304 133.3727 71.3540 0.0000 -15.1055 0.0000
# 3 80.0349 71.3540 122.7949 0.0000 -34.4068 0.0000
# 4 0.0000 0.0000 0.0000 32.1947 0.0000 -13.6293
# 5 -33.5482 -15.1055 -34.4068 0.0000 39.4137 0.0000
# 6 0.0000 0.0000 0.0000 -13.6293 0.0000 42.2671
#
#
#
# Elastic Compliance Matrix: (Units=1/GPa)
#
#
# Indices 1 2 3 4 5 6 
#
# 1 0.013230 -0.005322 -0.003901 0.000000 0.005816 0.000000
# 2 -0.005322 0.013117 -0.005314 0.000000 -0.004142 0.000000
# 3 -0.003901 -0.005314 0.016247 0.000000 0.008826 0.000000
# 4 0.000000 0.000000 0.000000 0.035971 0.000000 0.011599
# 5 0.005816 -0.004142 0.008826 0.000000 0.036440 0.000000
# 6 0.000000 0.000000 0.000000 0.011599 0.000000 0.027399
#
#
# Mechanical properties :
#
#
# Convention : Reuss Voigt Hill
#
# Bulk Modulus (GPa) = 73.96008 96.47262 85.21635
# Shear Modulus (GPa) = 28.41147 34.11479 31.26313
#
# Velocity S-wave (km/s) = 3.60909 3.95477 3.78588
# Velocity P-wave (km/s) = 7.16066 8.06737 7.62750
#
# Compressibility (1/GPa) = 0.01352081
#
# Stress axis : x y z
#
# Youngs Moduli (GPa) = 75.58442 76.23750 61.55015
#
# Poissons Ratio (x) = 0.40574 0.24010
# Poissons Ratio (y) = 0.40227 0.32706
# Poissons Ratio (z) = 0.29485 0.40510
#
# Static dielectric constant tensor:
#      x y z
#    x 1.809690 0.000000 0.018490 
#    y 0.000000 1.813700 0.000000 
#    z 0.018490 0.000000 1.820320 
# 
# From -- ./inp_files/78396.got.cif
#   From: 2010.05.17/outbox.cif.g08.bks.cpg/sg15_40_cif.got.tgz:78396.got - 2010.06.03 18:47:42.
