data_PCOD9291288
_publ_section_title
;
Structure prediction by ZEFSAII (Michael W. Deem and Ramdas Pophale) SiO2 
 PCOD9291288
Probable space group: C 2/C
;
_chemical_formula_sum "Si O2"
_cell_formula_units_Z 52
_cell_length_a 28.947814
_cell_length_b 12.410457
_cell_length_c 11.617582
_cell_angle_alpha 90.000000
_cell_angle_beta 40.979434
_cell_angle_gamma 90.000000
_cell_volume 2737.050547
_symmetry_space_group_name_H-M "C 2/C"
_symmetry_group_IT_number 15
_symmetry_cell_setting 'monoclinic'
loop_
_space_group_symop_operation_xyz
x,y,z
-x,y,1/2-z
-x,-y,-z
x,-y,1/2+z
1/2+x,1/2+y,z
1/2-x,1/2+y,1/2-z
1/2-x,1/2-y,-z
1/2+x,1/2-y,1/2+z
loop_
_atom_site_type_symbol
_atom_site_label
_atom_site_fract_x
_atom_site_fract_y
_atom_site_fract_z
Si Si1 0.664697 0.692910 0.278226
Si Si2 0.070303 0.355649 0.069804
Si Si3 0.331232 0.326193 0.459756
Si Si4 0.323686 0.126709 0.920833
Si Si5 0.425364 0.477088 0.699537
Si Si6 0.000000 0.849314 0.750000
Si Si7 0.676271 0.890330 0.673432
O O1 0.650638 0.690277 0.440360
O O2 0.654260 0.807671 0.235077
O O3 0.618990 0.604092 0.296622
O O4 0.746610 0.664986 0.104214
O O5 0.122077 0.345833 0.080435
O O6 0.000000 0.413805 0.250000
O O7 0.042089 0.235722 0.090773
O O8 0.113595 0.402201 0.883327
O O9 0.381422 0.415660 0.308478
O O10 0.336163 0.213340 0.383359
O O11 0.250726 0.368687 0.597404
O O12 0.320083 0.999946 0.904747
O O13 0.500000 0.500000 0.500000
O O14 0.445210 0.419422 0.782189
#
# Coordination Sequence:
#
# PCOD9291288 Si02
#       7
#     8   8   8   8   8   4   8
#     4  11  23  42  66 103 131 173 229 274 333 394
#     4  10  22  43  66  95 127 178 218 271 335 398
#     4  11  25  40  66 103 136 174 222 280 332 397
#     4  11  23  42  69  96 133 173 226 276 333 401
#     4  12  23  43  66  99 134 179 219 272 336 395
#     4  10  22  42  66  92 132 174 220 264 336 400
#     4  11  24  43  66 100 134 175 225 275 338 396
#
# _framework density 18.998553000000001
#
# number of rings (size 3 to 8) (size 9 to 14) (size 15 to 20)
#    0.462    0.615    4.615    1.846    2.154    0.615 
#    0.000    0.000    1.692    0.000    0.000    0.000 
#    0.000    0.000    0.000    0.000    0.000    0.000 
#
# Total GULP energy -145156.516829 kJ/mol
# GULP energy per Si atom -5582.942955 kJ/mol
# Density = 1.895531 g / cm^3
# Si number density = 18.998553 Si / 1000 Ang^3
#
#
#
# Elastic Constant Matrix: (Units=GPa)
#
#
# Indices 1 2 3 4 5 6 
#
# 1 103.7755 22.6929 16.3748 0.0000 -2.5985 0.0000
# 2 22.6929 87.5868 2.9987 0.0000 3.2998 0.0000
# 3 16.3748 2.9987 85.2553 0.0000 -4.2187 0.0000
# 4 0.0000 0.0000 0.0000 15.1233 0.0000 -13.9014
# 5 -2.5985 3.2998 -4.2187 0.0000 29.9061 0.0000
# 6 0.0000 0.0000 0.0000 -13.9014 0.0000 18.7241
#
#
#
# Elastic Compliance Matrix: (Units=1/GPa)
#
#
# Indices 1 2 3 4 5 6 
#
# 1 0.010549 -0.002704 -0.001884 0.000000 0.000949 0.000000
# 2 -0.002704 0.012177 0.000013 0.000000 -0.001577 0.000000
# 3 -0.001884 0.000013 0.012168 0.000000 0.001551 0.000000
# 4 0.000000 0.000000 0.000000 0.208226 0.000000 0.154594
# 5 0.000949 -0.001577 0.001551 0.000000 0.033913 0.000000
# 6 0.000000 0.000000 0.000000 0.154594 0.000000 0.168183
#
#
# Mechanical properties :
#
#
# Convention : Reuss Voigt Hill
#
# Bulk Modulus (GPa) = 38.84590 40.08337 39.46464
# Shear Modulus (GPa) = 10.80038 28.38744 19.59391
#
# Velocity S-wave (km/s) = 2.38688 3.86967 3.21493
# Velocity P-wave (km/s) = 5.29975 6.41168 5.88205
#
# Compressibility (1/GPa) = 0.02574274
#
# Stress axis : x y z
#
# Youngs Moduli (GPa) = 94.79945 82.12303 82.18525
#
# Poissons Ratio (x) = 0.22209 0.15483
# Poissons Ratio (y) = 0.25637 -0.00108
# Poissons Ratio (z) = 0.17860 -0.00107
#
# Static dielectric constant tensor:
#      x y z
#    x 1.665610 0.000000 0.022930 
#    y 0.000000 1.636790 0.000000 
#    z 0.022930 0.000000 1.690030 
# 
# From -- ./inp_files/126413.got.cif
#   From: 2010.05.17/outbox.cif.g08.bks.cpg/sg15_64_cif.got.tgz:126413.got - 2010.06.03 18:47:42.
