data_PCOD9291359
_publ_section_title
;
Structure prediction by ZEFSAII (Michael W. Deem and Ramdas Pophale) SiO2 
 PCOD9291359
Probable space group: C 2/C
;
_chemical_formula_sum "Si O2"
_cell_formula_units_Z 60
_cell_length_a 18.503322
_cell_length_b 12.371335
_cell_length_c 14.016247
_cell_angle_alpha 90.000000
_cell_angle_beta 77.680174
_cell_angle_gamma 90.000000
_cell_volume 3134.584954
_symmetry_space_group_name_H-M "C 2/C"
_symmetry_group_IT_number 15
_symmetry_cell_setting 'monoclinic'
loop_
_space_group_symop_operation_xyz
x,y,z
-x,y,1/2-z
-x,-y,-z
x,-y,1/2+z
1/2+x,1/2+y,z
1/2-x,1/2+y,1/2-z
1/2-x,1/2-y,-z
1/2+x,1/2-y,1/2+z
loop_
_atom_site_type_symbol
_atom_site_label
_atom_site_fract_x
_atom_site_fract_y
_atom_site_fract_z
Si Si1 0.417208 0.553852 0.529516
Si Si2 0.162043 0.879198 0.062468
Si Si3 0.928239 0.470958 0.457342
Si Si4 0.416075 0.514627 0.737158
Si Si5 0.338243 0.245106 0.950730
Si Si6 0.667634 0.826331 0.464997
Si Si7 0.000000 0.399179 0.250000
Si Si8 0.621271 0.737591 0.278275
O O1 0.500000 0.500000 0.500000
O O2 0.362557 0.458512 0.514238
O O3 0.407776 0.581707 0.642585
O O4 0.389252 0.653358 0.471903
O O5 0.248313 0.856738 0.037653
O O6 0.134549 0.935357 0.166369
O O7 0.130656 0.761259 0.046543
O O8 0.882312 0.358681 0.479854
O O9 0.874205 0.563751 0.506627
O O10 0.000000 0.500000 0.500000
O O11 0.953739 0.468349 0.339051
O O12 0.500000 0.518798 0.750000
O O13 0.398797 0.389286 0.717842
O O14 0.341167 0.240991 0.834656
O O15 0.250000 0.250000 0.000000
O O16 0.664340 0.773664 0.360605
O O17 0.050205 0.316609 0.297108
#
# Coordination Sequence:
#
# PCOD9291359 Si02
#       8
#     8   8   8   8   8   8   4   8
#     4  12  24  42  70 100 135 174 226 294 343 401
#     4  11  25  44  65 100 139 176 225 284 353 413
#     4  11  24  43  69  94 135 181 231 276 343 419
#     4  12  23  40  70 104 129 170 227 291 346 406
#     4  11  26  45  66 102 138 177 234 289 340 419
#     4  11  25  46  66  96 142 185 219 283 357 417
#     4  10  22  42  66  98 124 180 228 290 326 414
#     4  11  21  40  72  93 131 172 231 275 351 405
#
# _framework density 19.141290999999999
#
# number of rings (size 3 to 8) (size 9 to 14) (size 15 to 20)
#    0.000    0.800    6.000    0.800    5.600    0.000 
#    3.600    0.000    0.000    0.000    0.000    0.000 
#    0.000    0.000    0.000    0.000    0.000    0.000 
#
# Total GULP energy -167212.818398 kJ/mol
# GULP energy per Si atom -5573.760613 kJ/mol
# Density = 1.909772 g / cm^3
# Si number density = 19.141291 Si / 1000 Ang^3
#
#
#
# Elastic Constant Matrix: (Units=GPa)
#
#
# Indices 1 2 3 4 5 6 
#
# 1 102.8164 56.0957 34.2208 0.0000 10.7891 0.0000
# 2 56.0957 128.7037 38.8549 0.0000 2.8392 0.0000
# 3 34.2208 38.8549 99.9571 0.0000 4.4938 0.0000
# 4 0.0000 0.0000 0.0000 24.4762 0.0000 3.9738
# 5 10.7891 2.8392 4.4938 0.0000 28.3087 0.0000
# 6 0.0000 0.0000 0.0000 3.9738 0.0000 17.7695
#
#
#
# Elastic Compliance Matrix: (Units=1/GPa)
#
#
# Indices 1 2 3 4 5 6 
#
# 1 0.013851 -0.005176 -0.002534 0.000000 -0.004357 0.000000
# 2 -0.005176 0.010740 -0.002461 0.000000 0.001286 0.000000
# 3 -0.002534 -0.002461 0.011858 0.000000 -0.000670 0.000000
# 4 0.000000 0.000000 0.000000 0.042395 0.000000 -0.009481
# 5 -0.004357 0.001286 -0.000670 0.000000 0.036963 0.000000
# 6 0.000000 0.000000 0.000000 -0.009481 0.000000 0.058396
#
#
# Mechanical properties :
#
#
# Convention : Reuss Voigt Hill
#
# Bulk Modulus (GPa) = 62.08003 65.53555 63.80779
# Shear Modulus (GPa) = 25.01075 27.59792 26.30433
#
# Velocity S-wave (km/s) = 3.61867 3.80122 3.71107
# Velocity P-wave (km/s) = 7.06842 7.31969 7.19515
#
# Compressibility (1/GPa) = 0.01610824
#
# Stress axis : x y z
#
# Youngs Moduli (GPa) = 72.19938 93.10880 84.32773
#
# Poissons Ratio (x) = 0.48190 0.21369
# Poissons Ratio (y) = 0.37368 0.20751
# Poissons Ratio (z) = 0.18296 0.22912
#
# Static dielectric constant tensor:
#      x y z
#    x 1.662170 0.000000 0.008020 
#    y 0.000000 2.082150 0.000000 
#    z 0.008020 0.000000 1.670800 
# 
# From -- ./inp_files/160885.got.cif
#   From: 2010.05.17/outbox.cif.g08.bks.cpg/sg15_81_cif.got.tgz:160885.got - 2010.06.03 18:47:42.
