data_PCOD9291099
_publ_section_title
;
Structure prediction by ZEFSAII (Michael W. Deem and Ramdas Pophale) SiO2 
 PCOD9291099
Probable space group: C 2/C
;
_chemical_formula_sum "Si O2"
_cell_formula_units_Z 48
_cell_length_a 11.543865
_cell_length_b 13.208818
_cell_length_c 16.667749
_cell_angle_alpha 90.000000
_cell_angle_beta 112.575419
_cell_angle_gamma 90.000000
_cell_volume 2346.768555
_symmetry_space_group_name_H-M "C 2/C"
_symmetry_group_IT_number 15
_symmetry_cell_setting 'monoclinic'
loop_
_space_group_symop_operation_xyz
x,y,z
-x,y,1/2-z
-x,-y,-z
x,-y,1/2+z
1/2+x,1/2+y,z
1/2-x,1/2+y,1/2-z
1/2-x,1/2-y,-z
1/2+x,1/2-y,1/2+z
loop_
_atom_site_type_symbol
_atom_site_label
_atom_site_fract_x
_atom_site_fract_y
_atom_site_fract_z
Si Si1 0.134405 0.685307 0.932932
Si Si2 0.500000 0.709477 0.250000
Si Si3 0.897121 0.051605 0.342207
Si Si4 0.140689 0.258214 0.869564
Si Si5 0.930809 0.211043 0.478954
Si Si6 0.875072 0.507783 0.167386
Si Si7 0.500000 0.604428 0.750000
O O1 0.086676 0.731331 0.835729
O O2 0.150675 0.567379 0.914561
O O3 0.023795 0.707496 0.966046
O O4 0.250000 0.750000 0.000000
O O5 0.407097 0.642380 0.280236
O O6 0.948010 0.103712 0.437632
O O7 0.756032 0.011959 0.318252
O O8 0.980795 0.967212 0.321498
O O9 0.288254 0.258529 0.922807
O O10 0.102883 0.375006 0.850087
O O11 0.113722 0.182758 0.789782
O O12 0.064617 0.213315 0.924531
O O13 0.000000 0.476100 0.250000
#
# Coordination Sequence:
#
# PCOD9291099 Si02
#       7
#     8   4   8   8   8   8   4
#     4  11  24  41  68  96 128 174 216 269 331 392
#     4   9  20  47  62  92 130 167 216 271 318 384
#     4   9  22  40  63  92 121 173 215 264 319 387
#     4  10  22  42  64  92 129 169 210 269 329 385
#     4   9  22  45  60  89 132 166 211 272 315 382
#     4  11  23  40  63  96 131 168 210 269 333 387
#     4  11  22  37  68  96 118 167 222 257 324 396
#
# _framework density 20.453655000000001
#
# number of rings (size 3 to 8) (size 9 to 14) (size 15 to 20)
#    0.000    2.000    1.667    0.000    4.667    4.000 
#   24.000    0.000    0.000    0.000    0.000    0.000 
#    0.000    0.000    0.000    0.000    0.000    0.000 
#
# Total GULP energy -133722.782970 kJ/mol
# GULP energy per Si atom -5571.782624 kJ/mol
# Density = 2.040710 g / cm^3
# Si number density = 20.453655 Si / 1000 Ang^3
#
#
#
# Elastic Constant Matrix: (Units=GPa)
#
#
# Indices 1 2 3 4 5 6 
#
# 1 78.7114 43.7487 24.0345 0.0000 -15.4259 0.0000
# 2 43.7487 110.2850 29.8787 0.0000 -10.9965 0.0000
# 3 24.0345 29.8787 53.3454 0.0000 -2.2318 0.0000
# 4 0.0000 0.0000 0.0000 0.9993 0.0000 14.8397
# 5 -15.4259 -10.9965 -2.2318 0.0000 25.1708 0.0000
# 6 0.0000 0.0000 0.0000 14.8397 0.0000 4.7264
#
#
#
# Elastic Compliance Matrix: (Units=1/GPa)
#
#
# Indices 1 2 3 4 5 6 
#
# 1 0.018938 -0.005208 -0.005245 0.000000 0.008866 0.000000
# 2 -0.005208 0.012573 -0.004616 0.000000 0.001892 0.000000
# 3 -0.005245 -0.004616 0.023563 0.000000 -0.003142 0.000000
# 4 0.000000 0.000000 0.000000 -0.021933 0.000000 0.068864
# 5 0.008866 0.001892 -0.003142 0.000000 0.045710 0.000000
# 6 0.000000 0.000000 0.000000 0.068864 0.000000 -0.004637
#
#
# Mechanical properties :
#
#
# Convention : Reuss Voigt Hill
#
# Bulk Modulus (GPa) = 40.10264 48.62953 44.36608
# Shear Modulus (GPa) = 44.38009 15.82464 30.10236
#
# Velocity S-wave (km/s) = 4.66315 2.78453 3.84048
# Velocity P-wave (km/s) = 6.97441 5.84510 6.43458
#
# Compressibility (1/GPa) = 0.02493602
#
# Stress axis : x y z
#
# Youngs Moduli (GPa) = 52.80350 79.53843 42.43937
#
# Poissons Ratio (x) = 0.41420 0.22259
# Poissons Ratio (y) = 0.27498 0.19592
# Poissons Ratio (z) = 0.27694 0.36719
#
# Static dielectric constant tensor:
#      x y z
#    x 1.724650 0.000000 0.018870 
#    y 0.000000 1.760360 0.000000 
#    z 0.018870 0.000000 1.802130 
# 
# From -- ./inp_files/196623.got.cif
#   From: 2010.05.17/outbox.cif.g08.bks.cpg/sg15_99_cif.got.tgz:196623.got - 2010.06.03 18:47:42.
