data_PCOD9291929
_publ_section_title
;
Structure prediction by ZEFSAII (Michael W. Deem and Ramdas Pophale) SiO2 
 PCOD9291929
Probable space group: C 2/C
;
_chemical_formula_sum "Si O2"
_cell_formula_units_Z 64
_cell_length_a 15.584801
_cell_length_b 20.498377
_cell_length_c 15.527181
_cell_angle_alpha 90.000000
_cell_angle_beta 35.011841
_cell_angle_gamma 90.000000
_cell_volume 2845.986313
_symmetry_space_group_name_H-M "C 2/C"
_symmetry_group_IT_number 15
_symmetry_cell_setting 'monoclinic'
loop_
_space_group_symop_operation_xyz
x,y,z
-x,y,1/2-z
-x,-y,-z
x,-y,1/2+z
1/2+x,1/2+y,z
1/2-x,1/2+y,1/2-z
1/2-x,1/2-y,-z
1/2+x,1/2-y,1/2+z
loop_
_atom_site_type_symbol
_atom_site_label
_atom_site_fract_x
_atom_site_fract_y
_atom_site_fract_z
Si Si1 0.185496 0.801932 0.172881
Si Si2 0.036499 0.802809 0.858557
Si Si3 0.707850 0.104747 0.411184
Si Si4 0.545462 0.626764 0.535124
Si Si5 0.830858 0.346179 0.878868
Si Si6 0.595981 0.157492 0.851773
Si Si7 0.535239 0.501113 0.320420
Si Si8 0.279338 0.392554 0.041904
O O1 0.172660 0.725680 0.161857
O O2 0.293239 0.819189 0.164050
O O3 0.022651 0.826143 0.335557
O O4 0.257767 0.838228 0.032632
O O5 0.187759 0.832901 0.695560
O O6 0.036508 0.725558 0.861510
O O7 0.889951 0.831258 0.933930
O O8 0.028333 0.834764 0.960875
O O9 0.547282 0.115890 0.500367
O O10 0.813441 0.043612 0.299804
O O11 0.685026 0.098738 0.532729
O O12 0.718318 0.612323 0.413326
O O13 0.459253 0.559489 0.620045
O O14 0.000000 0.368939 0.750000
O O15 0.685105 0.120132 0.704251
O O16 0.500000 0.479832 0.250000
O O17 0.396515 0.548337 0.455574
#
# Coordination Sequence:
#
# PCOD9291929 Si02
#       8
#     8   8   8   8   8   8   8   8
#     4  11  23  40  61  95 135 172 216 268 338 406
#     4  11  23  37  65  94 132 173 219 269 343 412
#     4  10  24  40  64  94 135 173 229 281 331 392
#     4  12  23  43  70  94 131 180 224 269 341 408
#     4  11  24  39  65  96 132 171 222 276 338 403
#     4  12  23  39  64  99 133 170 214 286 338 390
#     4   9  21  45  70  91 127 181 235 275 324 406
#     4  10  22  43  62  95 128 176 226 277 335 399
#
# _framework density 22.48781
#
# number of rings (size 3 to 8) (size 9 to 14) (size 15 to 20)
#    0.000    1.250    2.500    4.875    1.750    5.000 
#    0.000    4.375    0.000    0.000    0.000    0.000 
#    0.000    0.000    0.000    0.000    0.000    0.000 
#
# Total GULP energy -179026.489759 kJ/mol
# GULP energy per Si atom -5594.577805 kJ/mol
# Density = 2.243663 g / cm^3
# Si number density = 22.487810 Si / 1000 Ang^3
#
#
#
# Elastic Constant Matrix: (Units=GPa)
#
#
# Indices 1 2 3 4 5 6 
#
# 1 53.2827 4.9238 34.6377 0.0007 -2.4198 -0.0008
# 2 4.9238 54.9340 17.9272 0.0009 16.0836 -0.0006
# 3 34.6377 17.9272 107.4962 0.0006 -3.8043 0.0001
# 4 0.0007 0.0009 0.0006 21.0800 -0.0002 7.5644
# 5 -2.4198 16.0836 -3.8043 -0.0002 42.9379 -0.0001
# 6 -0.0008 -0.0006 0.0001 7.5644 -0.0001 8.4718
#
#
#
# Elastic Compliance Matrix: (Units=1/GPa)
#
#
# Indices 1 2 3 4 5 6 
#
# 1 0.023761 0.000202 -0.007669 -0.000002 0.000584 0.000004
# 2 0.000202 0.022021 -0.004042 -0.000002 -0.008595 0.000004
# 3 -0.007669 -0.004042 0.012526 0.000001 0.002191 -0.000002
# 4 -0.000002 -0.000002 0.000001 0.069804 0.000001 -0.062328
# 5 0.000584 -0.008595 0.002191 0.000001 0.026736 -0.000001
# 6 0.000004 0.000004 -0.000002 -0.062328 -0.000001 0.173691
#
#
# Mechanical properties :
#
#
# Convention : Reuss Voigt Hill
#
# Bulk Modulus (GPa) = 28.33685 36.74337 32.54011
# Shear Modulus (GPa) = 13.76195 25.04623 19.40409
#
# Velocity S-wave (km/s) = 2.47649 3.34094 2.94065
# Velocity P-wave (km/s) = 4.56133 5.59081 5.10210
#
# Compressibility (1/GPa) = 0.03528974
#
# Stress axis : x y z
#
# Youngs Moduli (GPa) = 42.08509 45.41099 79.83684
#
# Poissons Ratio (x) = -0.00918 0.61231
# Poissons Ratio (y) = -0.00851 0.32268
# Poissons Ratio (z) = 0.32277 0.18354
#
# Static dielectric constant tensor:
#      x y z
#    x 1.877700 0.000000 0.004500 
#    y 0.000000 1.816520 0.000000 
#    z 0.004500 0.000000 1.830430 
# 
# From -- ./inp_files/211955.got.cif
#   From: 2010.05.17/outbox.cif.g08.bks.cpg/sg15_106_cif.got.tgz:211955.got - 2010.06.03 18:47:42.
