data_PCOD9291235
_publ_section_title
;
Structure prediction by ZEFSAII (Michael W. Deem and Ramdas Pophale) SiO2 
 PCOD9291235
Probable space group: C 2/C
;
_chemical_formula_sum "Si O2"
_cell_formula_units_Z 36
_cell_length_a 7.130304
_cell_length_b 12.200930
_cell_length_c 19.342220
_cell_angle_alpha 90.000000
_cell_angle_beta 54.480478
_cell_angle_gamma 90.000000
_cell_volume 1369.581076
_symmetry_space_group_name_H-M "C 2/C"
_symmetry_group_IT_number 15
_symmetry_cell_setting 'monoclinic'
loop_
_space_group_symop_operation_xyz
x,y,z
-x,y,1/2-z
-x,-y,-z
x,-y,1/2+z
1/2+x,1/2+y,z
1/2-x,1/2+y,1/2-z
1/2-x,1/2-y,-z
1/2+x,1/2-y,1/2+z
loop_
_atom_site_type_symbol
_atom_site_label
_atom_site_fract_x
_atom_site_fract_y
_atom_site_fract_z
Si Si1 0.122038 0.264072 0.653620
Si Si2 0.189093 0.669810 0.660503
Si Si3 0.177619 0.472629 0.564197
Si Si4 0.500000 0.384269 0.750000
Si Si5 0.703992 0.467258 0.120976
O O1 0.247493 0.362694 0.588991
O O2 0.266353 0.154233 0.634046
O O3 0.000000 0.301119 0.750000
O O4 0.922849 0.208175 0.648490
O O5 0.239157 0.584913 0.589159
O O6 0.000000 0.611482 0.750000
O O7 0.068823 0.789088 0.678028
O O8 0.260398 0.474720 0.467830
O O9 0.898029 0.460185 0.618650
O O10 0.532948 0.480602 0.802031
#
# Coordination Sequence:
#
# PCOD9291235 Si02
#       5
#     8   8   8   4   8
#     4  12  24  42  69  96 132 176 224 273 328 397
#     4  10  23  42  65  97 130 172 223 268 329 390
#     4  11  24  46  66 102 134 174 221 275 329 394
#     4  10  22  42  66 100 132 174 224 264 334 402
#     4  11  24  43  70  98 140 172 217 277 332 391
#
# _framework density 26.285408
#
# number of rings (size 3 to 8) (size 9 to 14) (size 15 to 20)
#    0.667    0.444    3.333    2.667    0.000    3.556 
#    0.000    0.000    0.000    0.000    0.000    0.000 
#    0.000    0.000    0.000    0.000    0.000    0.000 
#
# Total GULP energy -100247.601500 kJ/mol
# GULP energy per Si atom -5569.311194 kJ/mol
# Density = 2.622558 g / cm^3
# Si number density = 26.285408 Si / 1000 Ang^3
#
#
#
# Elastic Constant Matrix: (Units=GPa)
#
#
# Indices 1 2 3 4 5 6 
#
# 1 58.1043 10.5827 -0.9332 -0.0001 -3.3532 0.0005
# 2 10.5827 206.4374 68.2990 -0.0001 14.4080 0.0001
# 3 -0.9332 68.2990 148.2347 -0.0001 3.9826 0.0001
# 4 -0.0001 -0.0001 -0.0001 40.5483 0.0001 10.8665
# 5 -3.3532 14.4080 3.9826 0.0001 20.4970 -0.0003
# 6 0.0005 0.0001 0.0001 10.8665 -0.0003 22.8803
#
#
#
# Elastic Compliance Matrix: (Units=1/GPa)
#
#
# Indices 1 2 3 4 5 6 
#
# 1 0.017688 -0.001382 0.000648 0.000000 0.003739 0.000000
# 2 -0.001382 0.006088 -0.002707 0.000000 -0.003980 0.000000
# 3 0.000648 -0.002707 0.007985 0.000000 0.000457 0.000000
# 4 0.000000 0.000000 0.000000 0.028259 0.000000 -0.013421
# 5 0.003739 -0.003980 0.000457 0.000000 0.052108 0.000001
# 6 0.000000 0.000000 0.000000 -0.013421 0.000001 0.050080
#
#
# Mechanical properties :
#
#
# Convention : Reuss Voigt Hill
#
# Bulk Modulus (GPa) = 40.19443 63.18595 51.69019
# Shear Modulus (GPa) = 28.18752 39.10698 33.64725
#
# Velocity S-wave (km/s) = 3.27825 3.86136 3.58169
# Velocity P-wave (km/s) = 5.44554 6.63105 6.06732
#
# Compressibility (1/GPa) = 0.02487907
#
# Stress axis : x y z
#
# Youngs Moduli (GPa) = 56.53440 164.25017 125.23368
#
# Poissons Ratio (x) = 0.22700 -0.08111
# Poissons Ratio (y) = 0.07813 0.33900
# Poissons Ratio (z) = -0.03661 0.44462
#
# Static dielectric constant tensor:
#      x y z
#    x 2.452330 0.000000 -0.208660 
#    y 0.000000 2.064130 0.000000 
#    z -0.208660 0.000000 2.163020 
# 
# From -- ./inp_files/187752.got.cif
#   From: 2010.05.17/outbox.cif.g08.bks.cpg/sg15_94_cif.got.tgz:187752.got - 2010.06.03 18:47:42.
