data_PCOD9291069
_publ_section_title
;
Structure prediction by ZEFSAII (Michael W. Deem and Ramdas Pophale) SiO2 
 PCOD9291069
Probable space group: C 2/C
;
_chemical_formula_sum "Si O2"
_cell_formula_units_Z 52
_cell_length_a 27.921493
_cell_length_b 13.082495
_cell_length_c 8.232751
_cell_angle_alpha 90.000000
_cell_angle_beta 55.521528
_cell_angle_gamma 90.000000
_cell_volume 2479.019910
_symmetry_space_group_name_H-M "C 2/C"
_symmetry_group_IT_number 15
_symmetry_cell_setting 'monoclinic'
loop_
_space_group_symop_operation_xyz
x,y,z
-x,y,1/2-z
-x,-y,-z
x,-y,1/2+z
1/2+x,1/2+y,z
1/2-x,1/2+y,1/2-z
1/2-x,1/2-y,-z
1/2+x,1/2-y,1/2+z
loop_
_atom_site_type_symbol
_atom_site_label
_atom_site_fract_x
_atom_site_fract_y
_atom_site_fract_z
Si Si1 0.116488 0.053529 0.473242
Si Si2 0.000000 0.935004 0.750000
Si Si3 0.314956 0.864668 0.826895
Si Si4 0.546548 0.088140 0.879754
Si Si5 0.873560 0.485945 0.000294
Si Si6 0.523508 0.687621 0.518464
Si Si7 0.320313 0.369044 0.332767
O O1 0.088076 0.137658 0.407292
O O2 0.151682 0.111624 0.544581
O O3 0.058499 0.000317 0.655811
O O4 0.154631 0.962223 0.322871
O O5 0.007930 0.876317 0.563821
O O6 0.322248 0.942039 0.662587
O O7 0.332897 0.747898 0.753968
O O8 0.249300 0.870928 0.017040
O O9 0.355728 0.911719 0.889164
O O10 0.576175 0.063843 0.652467
O O11 0.598950 0.078894 0.908363
O O12 0.521208 0.198649 0.954865
O O13 0.500000 0.000000 0.000000
O O14 0.500000 0.690422 0.750000
#
# Coordination Sequence:
#
# PCOD9291069 Si02
#       7
#     8   4   8   8   8   8   8
#     4  12  23  44  63  98 135 178 218 281 334 416
#     4  12  26  42  64  98 140 178 226 268 344 412
#     4  10  23  44  65  99 122 178 222 288 347 407
#     4  11  24  40  63  98 128 178 227 274 341 415
#     4  10  22  42  64  87 137 163 220 286 339 404
#     4  12  25  42  65  94 141 181 219 276 334 412
#     4  11  24  40  71  93 132 170 233 276 347 408
#
# _framework density 20.976033000000001
#
# number of rings (size 3 to 8) (size 9 to 14) (size 15 to 20)
#    0.000    0.923    2.308    4.615    4.308    2.462 
#    0.000    0.000    0.000   10.154    0.000    0.000 
#    0.000    0.000    0.000    0.000    0.000    0.000 
#
# Total GULP energy -145177.536521 kJ/mol
# GULP energy per Si atom -5583.751405 kJ/mol
# Density = 2.092829 g / cm^3
# Si number density = 20.976033 Si / 1000 Ang^3
#
#
#
# Elastic Constant Matrix: (Units=GPa)
#
#
# Indices 1 2 3 4 5 6 
#
# 1 57.5319 5.9765 -16.4084 0.0000 2.6584 0.0000
# 2 5.9765 116.1886 12.5180 0.0000 -13.2256 0.0000
# 3 -16.4084 12.5180 45.9508 0.0000 -8.0929 0.0000
# 4 0.0000 0.0000 0.0000 28.9132 0.0000 1.4423
# 5 2.6584 -13.2256 -8.0929 0.0000 32.2373 0.0000
# 6 0.0000 0.0000 0.0000 1.4423 0.0000 31.2639
#
#
#
# Elastic Compliance Matrix: (Units=1/GPa)
#
#
# Indices 1 2 3 4 5 6 
#
# 1 0.019730 -0.001879 0.007465 0.000000 -0.000524 0.000000
# 2 -0.001879 0.009367 -0.002635 0.000000 0.003336 0.000000
# 3 0.007465 -0.002635 0.025996 0.000000 0.004830 0.000000
# 4 0.000000 0.000000 0.000000 0.034666 0.000000 -0.001599
# 5 -0.000524 0.003336 0.004830 0.000000 0.033644 0.000000
# 6 0.000000 0.000000 0.000000 -0.001599 0.000000 0.032060
#
#
# Mechanical properties :
#
#
# Convention : Reuss Voigt Hill
#
# Bulk Modulus (GPa) = 16.39458 24.87149 20.63304
# Shear Modulus (GPa) = 29.43026 32.98856 31.20941
#
# Velocity S-wave (km/s) = 3.74978 3.97000 3.86146
# Velocity P-wave (km/s) = 5.15565 5.73563 5.45335
#
# Compressibility (1/GPa) = 0.06099575
#
# Stress axis : x y z
#
# Youngs Moduli (GPa) = 50.68406 106.75778 38.46675
#
# Poissons Ratio (x) = 0.20057 -0.28715
# Poissons Ratio (y) = 0.09522 0.10136
# Poissons Ratio (z) = -0.37835 0.28131
#
# Static dielectric constant tensor:
#      x y z
#    x 1.754390 0.000000 -0.003380 
#    y 0.000000 1.724580 0.000000 
#    z -0.003380 0.000000 1.778290 
# 
# From -- ./inp_files/65359.got.cif
#   From: 2010.05.17/outbox.cif.g08.bks.cpg/sg15_33_cif.got.tgz:65359.got - 2010.06.03 18:47:42.
