data_PCOD9291664
_publ_section_title
;
Structure prediction by ZEFSAII (Michael W. Deem and Ramdas Pophale) SiO2 
 PCOD9291664
Probable space group: C 2/C
;
_chemical_formula_sum "Si O2"
_cell_formula_units_Z 36
_cell_length_a 10.872722
_cell_length_b 15.550373
_cell_length_c 12.837343
_cell_angle_alpha 90.000000
_cell_angle_beta 136.470157
_cell_angle_gamma 90.000000
_cell_volume 1494.874352
_symmetry_space_group_name_H-M "C 2/C"
_symmetry_group_IT_number 15
_symmetry_cell_setting 'monoclinic'
loop_
_space_group_symop_operation_xyz
x,y,z
-x,y,1/2-z
-x,-y,-z
x,-y,1/2+z
1/2+x,1/2+y,z
1/2-x,1/2+y,1/2-z
1/2-x,1/2-y,-z
1/2+x,1/2-y,1/2+z
loop_
_atom_site_type_symbol
_atom_site_label
_atom_site_fract_x
_atom_site_fract_y
_atom_site_fract_z
Si Si1 0.500000 0.634979 0.750000
Si Si2 0.000000 0.792417 0.750000
Si Si3 0.677961 0.235804 0.573084
Si Si4 0.865493 0.928337 0.959507
Si Si5 0.000000 0.487634 0.250000
Si Si6 0.391311 0.850250 0.012096
O O1 0.358614 0.692674 0.729417
O O2 0.397322 0.578470 0.603114
O O3 0.047768 0.728661 0.874777
O O4 0.815936 0.845293 0.646489
O O5 0.750000 0.250000 0.500000
O O6 0.618296 0.330641 0.571278
O O7 0.522284 0.166829 0.495343
O O8 0.666241 0.957252 0.815654
O O9 0.000000 0.000000 0.000000
O O10 0.064630 0.430656 0.387775
#
# Coordination Sequence:
#
# PCOD9291664 Si02
#       6
#     4   4   8   8   4   8
#     4  10  23  47  68 100 132 188 240 266 343 429
#     4   9  22  37  67 102 131 170 232 279 332 399
#     4  10  23  42  71  99 135 183 228 276 340 427
#     4  11  25  45  69 101 143 178 224 298 355 399
#     4  11  25  46  65 102 143 178 228 299 355 396
#     4  10  22  42  70 100 135 179 235 278 340 423
#
# _framework density 24.082291999999999
#
# number of rings (size 3 to 8) (size 9 to 14) (size 15 to 20)
#    0.000    1.778    0.000    2.000   15.556    0.889 
#    0.000    5.556    0.000    0.000    0.000    0.000 
#    0.000    0.000    0.000    0.000    0.000    0.000 
#
# Total GULP energy -100581.977194 kJ/mol
# GULP energy per Si atom -5587.887622 kJ/mol
# Density = 2.402748 g / cm^3
# Si number density = 24.082292 Si / 1000 Ang^3
#
#
#
# Elastic Constant Matrix: (Units=GPa)
#
#
# Indices 1 2 3 4 5 6 
#
# 1 87.7899 36.4152 46.9029 0.0000 24.0885 0.0000
# 2 36.4152 108.6019 43.8695 0.0000 16.5897 0.0000
# 3 46.9029 43.8695 162.4894 0.0000 32.1522 0.0000
# 4 0.0000 0.0000 0.0000 40.9842 0.0000 0.8282
# 5 24.0885 16.5897 32.1522 0.0000 55.2384 0.0000
# 6 0.0000 0.0000 0.0000 0.8282 0.0000 32.6555
#
#
#
# Elastic Compliance Matrix: (Units=1/GPa)
#
#
# Indices 1 2 3 4 5 6 
#
# 1 0.015387 -0.003442 -0.002700 0.000000 -0.004105 0.000000
# 2 -0.003442 0.011243 -0.001888 0.000000 -0.000777 0.000000
# 3 -0.002700 -0.001888 0.008022 0.000000 -0.002925 0.000000
# 4 0.000000 0.000000 0.000000 0.024412 0.000000 -0.000619
# 5 -0.004105 -0.000777 -0.002925 0.000000 0.021829 0.000000
# 6 0.000000 0.000000 0.000000 -0.000619 0.000000 0.030638
#
#
# Mechanical properties :
#
#
# Convention : Reuss Voigt Hill
#
# Bulk Modulus (GPa) = 53.78522 68.13960 60.96241
# Shear Modulus (GPa) = 37.37177 41.22186 39.29681
#
# Velocity S-wave (km/s) = 3.94361 4.14177 4.04390
# Velocity P-wave (km/s) = 6.56647 7.15739 6.86829
#
# Compressibility (1/GPa) = 0.01859247
#
# Stress axis : x y z
#
# Youngs Moduli (GPa) = 64.98823 88.94061 124.65370
#
# Poissons Ratio (x) = 0.30611 0.33658
# Poissons Ratio (y) = 0.22367 0.23540
# Poissons Ratio (z) = 0.17548 0.16795
#
# Static dielectric constant tensor:
#      x y z
#    x 2.015320 0.000000 -0.030670 
#    y 0.000000 1.936710 0.000000 
#    z -0.030670 0.000000 1.887540 
# 
# From -- ./inp_files/144467.got.cif
#   From: 2010.05.17/outbox.cif.g08.bks.cpg/sg15_73_cif.got.tgz:144467.got - 2010.06.03 18:47:42.
