data_PCOD9291271
_publ_section_title
;
Structure prediction by ZEFSAII (Michael W. Deem and Ramdas Pophale) SiO2 
 PCOD9291271
Probable space group: C 2/C
;
_chemical_formula_sum "Si O2"
_cell_formula_units_Z 40
_cell_length_a 9.157472
_cell_length_b 11.878654
_cell_length_c 16.174969
_cell_angle_alpha 90.000000
_cell_angle_beta 107.061166
_cell_angle_gamma 90.000000
_cell_volume 1682.056532
_symmetry_space_group_name_H-M "C 2/C"
_symmetry_group_IT_number 15
_symmetry_cell_setting 'monoclinic'
loop_
_space_group_symop_operation_xyz
x,y,z
-x,y,1/2-z
-x,-y,-z
x,-y,1/2+z
1/2+x,1/2+y,z
1/2-x,1/2+y,1/2-z
1/2-x,1/2-y,-z
1/2+x,1/2-y,1/2+z
loop_
_atom_site_type_symbol
_atom_site_label
_atom_site_fract_x
_atom_site_fract_y
_atom_site_fract_z
Si Si1 0.494255 0.758840 0.501908
Si Si2 0.779138 0.613578 0.288332
Si Si3 0.000000 0.547136 0.750000
Si Si4 0.718953 0.186061 0.898156
Si Si5 0.500000 0.536544 0.750000
Si Si6 0.666404 0.260704 0.361523
O O1 0.608288 0.822313 0.458494
O O2 0.609207 0.655483 0.545121
O O3 0.435082 0.794475 0.582745
O O4 0.338097 0.753073 0.424794
O O5 0.737564 0.687620 0.361886
O O6 0.628311 0.546023 0.235392
O O7 0.827757 0.699138 0.224684
O O8 0.915757 0.523344 0.307859
O O9 0.864625 0.618162 0.687037
O O10 0.407038 0.617527 0.671424
#
# Coordination Sequence:
#
# PCOD9291271 Si02
#       6
#     8   8   4   8   4   8
#     4  10  22  42  66  90 136 176 200 270 342 370
#     4  12  24  42  70  98 126 174 226 268 320 388
#     4  12  24  42  70  98 126 174 226 268 320 388
#     4  11  23  44  65  95 134 168 216 273 319 386
#     4  12  24  42  70  98 126 174 226 268 320 388
#     4  11  23  44  65  95 134 168 216 273 319 386
#
# _framework density 23.780414
#
# number of rings (size 3 to 8) (size 9 to 14) (size 15 to 20)
#    0.000    0.800    0.000    9.600    0.000    0.000 
#    0.000   40.000    0.000    0.000    0.000    0.000 
#    0.000    0.000    0.000    0.000    0.000    0.000 
#
# Total GULP energy -111501.084448 kJ/mol
# GULP energy per Si atom -5575.054222 kJ/mol
# Density = 2.372629 g / cm^3
# Si number density = 23.780414 Si / 1000 Ang^3
#
#
#
# Elastic Constant Matrix: (Units=GPa)
#
#
# Indices 1 2 3 4 5 6 
#
# 1 186.4186 42.1157 35.6696 0.0000 0.7946 0.0000
# 2 42.1157 73.8718 30.0522 0.0000 -2.2371 0.0000
# 3 35.6696 30.0522 125.6818 0.0000 -14.6325 0.0000
# 4 0.0000 0.0000 0.0000 -17.3394 0.0000 3.1679
# 5 0.7946 -2.2371 -14.6325 0.0000 52.3283 0.0000
# 6 0.0000 0.0000 0.0000 3.1679 0.0000 31.6636
#
#
#
# Elastic Compliance Matrix: (Units=1/GPa)
#
#
# Indices 1 2 3 4 5 6 
#
# 1 0.006289 -0.003157 -0.001092 0.000000 -0.000536 0.000000
# 2 -0.003157 0.016588 -0.003083 0.000000 -0.000105 0.000000
# 3 -0.001092 -0.003083 0.009293 0.000000 0.002483 0.000000
# 4 0.000000 0.000000 0.000000 -0.056637 0.000000 0.005666
# 5 -0.000536 -0.000105 0.002483 0.000000 0.019808 0.000000
# 6 0.000000 0.000000 0.000000 0.005666 0.000000 0.031015
#
#
# Mechanical properties :
#
#
# Convention : Reuss Voigt Hill
#
# Bulk Modulus (GPa) = 57.12543 66.84969 61.98756
# Shear Modulus (GPa) = 106.71238 31.87283 69.29261
#
# Velocity S-wave (km/s) = 6.70608 3.66498 5.40387
# Velocity P-wave (km/s) = 9.16712 6.78835 8.06591
#
# Compressibility (1/GPa) = 0.01750534
#
# Stress axis : x y z
#
# Youngs Moduli (GPa) = 159.01182 60.28521 107.61024
#
# Poissons Ratio (x) = 0.19034 0.11754
# Poissons Ratio (y) = 0.50204 0.33171
# Poissons Ratio (z) = 0.17369 0.18583
#
# Static dielectric constant tensor:
#      x y z
#    x 1.934160 0.000000 0.050690 
#    y 0.000000 1.958820 0.000000 
#    z 0.050690 0.000000 1.945770 
# 
# From -- ./inp_files/187988.got.cif
#   From: 2010.05.17/outbox.cif.g08.bks.cpg/sg15_94_cif.got.tgz:187988.got - 2010.06.03 18:47:42.
