data_PCOD9291051
_publ_section_title
;
Structure prediction by ZEFSAII (Michael W. Deem and Ramdas Pophale) SiO2 
 PCOD9291051
Probable space group: C 2/C
;
_chemical_formula_sum "Si O2"
_cell_formula_units_Z 48
_cell_length_a 26.312808
_cell_length_b 5.711224
_cell_length_c 14.240785
_cell_angle_alpha 90.000000
_cell_angle_beta 96.365008
_cell_angle_gamma 90.000000
_cell_volume 2126.889670
_symmetry_space_group_name_H-M "C 2/C"
_symmetry_group_IT_number 15
_symmetry_cell_setting 'monoclinic'
loop_
_space_group_symop_operation_xyz
x,y,z
-x,y,1/2-z
-x,-y,-z
x,-y,1/2+z
1/2+x,1/2+y,z
1/2-x,1/2+y,1/2-z
1/2-x,1/2-y,-z
1/2+x,1/2-y,1/2+z
loop_
_atom_site_type_symbol
_atom_site_label
_atom_site_fract_x
_atom_site_fract_y
_atom_site_fract_z
Si Si1 0.625162 0.020585 0.652844
Si Si2 0.802810 0.154367 0.050146
Si Si3 0.607467 0.589408 0.024725
Si Si4 0.256409 0.054980 0.804664
Si Si5 0.615510 0.979085 0.864579
Si Si6 0.954620 0.318325 0.012072
O O1 0.608978 0.287202 0.625921
O O2 0.685733 0.020477 0.646475
O O3 0.614998 0.929648 0.754783
O O4 0.589709 0.886981 0.572169
O O5 0.785707 0.959430 0.121959
O O6 0.834815 0.359980 0.106754
O O7 0.750000 0.250000 0.000000
O O8 0.840418 0.056177 0.978781
O O9 0.553519 0.459800 0.999349
O O10 0.613168 0.767830 0.937904
O O11 0.246730 0.813010 0.743323
O O12 0.566406 0.128840 0.887917
O O13 0.000000 0.500000 0.000000
#
# Coordination Sequence:
#
# PCOD9291051 Si02
#       6
#     8   8   8   8   8   8
#     4  11  24  41  68 100 141 191 251 301 374 443
#     4  11  23  37  61  93 139 191 244 302 365 434
#     4  10  23  42  68  95 144 183 237 307 365 442
#     4  12  26  41  66 102 147 197 254 303 369 453
#     4  10  22  42  63  98 136 186 236 305 368 445
#     4  10  24  44  69 102 135 182 243 308 384 451
#
# _framework density 22.568163999999999
#
# number of rings (size 3 to 8) (size 9 to 14) (size 15 to 20)
#    0.000    1.333    1.667    4.000    4.667    7.333 
#    0.000    0.000    0.000   12.000    0.000    0.000 
#    0.000    0.000    0.000    0.000    0.000    0.000 
#
# Total GULP energy -133813.771594 kJ/mol
# GULP energy per Si atom -5575.573816 kJ/mol
# Density = 2.251680 g / cm^3
# Si number density = 22.568164 Si / 1000 Ang^3
#
#
#
# Elastic Constant Matrix: (Units=GPa)
#
#
# Indices 1 2 3 4 5 6 
#
# 1 108.1841 10.0928 23.7295 0.0000 -15.8017 0.0000
# 2 10.0928 55.3343 3.7899 0.0000 -0.0523 0.0000
# 3 23.7295 3.7899 61.7782 0.0000 -6.0753 0.0000
# 4 0.0000 0.0000 0.0000 36.0789 0.0000 -3.3102
# 5 -15.8017 -0.0523 -6.0753 0.0000 16.3331 0.0000
# 6 0.0000 0.0000 0.0000 -3.3102 0.0000 39.3005
#
#
#
# Elastic Compliance Matrix: (Units=1/GPa)
#
#
# Indices 1 2 3 4 5 6 
#
# 1 0.011614 -0.001879 -0.003365 0.000000 0.009979 0.000000
# 2 -0.001879 0.018454 -0.000606 0.000000 -0.001984 0.000000
# 3 -0.003365 -0.000606 0.017849 0.000000 0.003382 0.000000
# 4 0.000000 0.000000 0.000000 0.027933 0.000000 0.002353
# 5 0.009979 -0.001984 0.003382 0.000000 0.072131 0.000000
# 6 0.000000 0.000000 0.000000 0.002353 0.000000 0.025643
#
#
# Mechanical properties :
#
#
# Convention : Reuss Voigt Hill
#
# Bulk Modulus (GPa) = 27.60897 33.39124 30.50010
# Shear Modulus (GPa) = 25.32986 30.85480 28.09233
#
# Velocity S-wave (km/s) = 3.35382 3.70155 3.53197
# Velocity P-wave (km/s) = 5.22088 5.75296 5.49336
#
# Compressibility (1/GPa) = 0.03622012
#
# Stress axis : x y z
#
# Youngs Moduli (GPa) = 86.10079 54.18812 56.02538
#
# Poissons Ratio (x) = 0.10179 0.18850
# Poissons Ratio (y) = 0.16174 0.03393
# Poissons Ratio (z) = 0.28969 0.03282
#
# Static dielectric constant tensor:
#      x y z
#    x 1.832740 0.000000 -0.012080 
#    y 0.000000 2.219860 0.000000 
#    z -0.012080 0.000000 1.823720 
# 
# From -- ./inp_files/175730.got.cif
#   From: 2010.05.17/outbox.cif.g08.bks.cpg/sg15_88_cif.got.tgz:175730.got - 2010.06.03 18:47:42.
