data_PCOD9291448
_publ_section_title
;
Structure prediction by ZEFSAII (Michael W. Deem and Ramdas Pophale) SiO2 
 PCOD9291448
Probable space group: C 2/C
;
_chemical_formula_sum "Si O2"
_cell_formula_units_Z 56
_cell_length_a 10.266090
_cell_length_b 26.674932
_cell_length_c 11.669571
_cell_angle_alpha 90.000000
_cell_angle_beta 60.493850
_cell_angle_gamma 90.000000
_cell_volume 2781.209328
_symmetry_space_group_name_H-M "C 2/C"
_symmetry_group_IT_number 15
_symmetry_cell_setting 'monoclinic'
loop_
_space_group_symop_operation_xyz
x,y,z
-x,y,1/2-z
-x,-y,-z
x,-y,1/2+z
1/2+x,1/2+y,z
1/2-x,1/2+y,1/2-z
1/2-x,1/2-y,-z
1/2+x,1/2-y,1/2+z
loop_
_atom_site_type_symbol
_atom_site_label
_atom_site_fract_x
_atom_site_fract_y
_atom_site_fract_z
Si Si1 0.272403 0.334855 0.525940
Si Si2 0.601439 0.046797 0.416546
Si Si3 0.091750 0.974133 0.605448
Si Si4 0.695498 0.442062 0.882119
Si Si5 0.500000 0.299992 0.250000
Si Si6 0.261298 0.772602 0.736329
Si Si7 0.017802 0.658759 0.492359
Si Si8 0.000000 0.293659 0.250000
O O1 0.256945 0.390312 0.582580
O O2 0.406724 0.332682 0.378856
O O3 0.299884 0.297863 0.620573
O O4 0.124405 0.320625 0.517867
O O5 0.756068 0.051165 0.420252
O O6 0.669298 0.040915 0.259247
O O7 0.518336 0.099185 0.471625
O O8 0.500000 0.000000 0.500000
O O9 0.000000 0.999687 0.750000
O O10 0.964063 0.936539 0.614683
O O11 0.149794 0.015324 0.491655
O O12 0.611747 0.265312 0.274198
O O13 0.337955 0.816097 0.628447
O O14 0.140743 0.742281 0.715263
O O15 0.014459 0.673673 0.627464
#
# Coordination Sequence:
#
# PCOD9291448 Si02
#       8
#     8   8   8   8   4   8   8   4
#     4  12  24  43  73 100 132 180 241 280 343 419
#     4  11  24  42  68  99 136 180 229 284 353 414
#     4   9  21  41  64  93 139 170 219 282 342 408
#     4  10  22  42  67  98 127 180 226 281 340 409
#     4  12  24  42  70  97 133 178 222 290 336 406
#     4  12  24  47  72  98 139 181 232 287 352 412
#     4  12  25  45  69 102 141 182 230 291 349 419
#     4  12  28  44  66 107 143 184 228 292 358 412
#
# _framework density 20.135126
#
# number of rings (size 3 to 8) (size 9 to 14) (size 15 to 20)
#    0.000    0.857    4.286    2.571    1.000    5.143 
#    2.571    0.000    0.000    0.000    0.000    0.000 
#    0.000    0.000    0.000    0.000    0.000    0.000 
#
# Total GULP energy -156375.081098 kJ/mol
# GULP energy per Si atom -5584.824325 kJ/mol
# Density = 2.008930 g / cm^3
# Si number density = 20.135126 Si / 1000 Ang^3
#
#
#
# Elastic Constant Matrix: (Units=GPa)
#
#
# Indices 1 2 3 4 5 6 
#
# 1 101.0244 22.7591 24.2519 0.0000 3.8501 0.0000
# 2 22.7591 83.0336 50.8037 0.0000 0.0757 0.0000
# 3 24.2519 50.8037 151.4721 0.0000 2.0476 0.0000
# 4 0.0000 0.0000 0.0000 4.1902 0.0000 -17.4129
# 5 3.8501 0.0757 2.0476 0.0000 27.9535 0.0000
# 6 0.0000 0.0000 0.0000 -17.4129 0.0000 15.1265
#
#
#
# Elastic Compliance Matrix: (Units=1/GPa)
#
#
# Indices 1 2 3 4 5 6 
#
# 1 0.010704 -0.002385 -0.000895 0.000000 -0.001402 0.000000
# 2 -0.002385 0.015687 -0.004888 0.000000 0.000644 0.000000
# 3 -0.000895 -0.004888 0.008391 0.000000 -0.000478 0.000000
# 4 0.000000 0.000000 0.000000 -0.063073 0.000000 -0.072606
# 5 -0.001402 0.000644 -0.000478 0.000000 0.036000 0.000000
# 6 0.000000 0.000000 0.000000 -0.072606 0.000000 -0.017472
#
#
# Mechanical properties :
#
#
# Convention : Reuss Voigt Hill
#
# Bulk Modulus (GPa) = 54.21247 59.01775 56.61511
# Shear Modulus (GPa) = 392.97155 25.30174 209.13664
#
# Velocity S-wave (km/s) = 13.98538 3.54870 10.20255
# Velocity P-wave (km/s) = 16.96380 6.79452 12.92161
#
# Compressibility (1/GPa) = 0.01844594
#
# Stress axis : x y z
#
# Youngs Moduli (GPa) = 93.42125 63.74535 119.17273
#
# Poissons Ratio (x) = 0.15204 0.10665
# Poissons Ratio (y) = 0.22282 0.58256
# Poissons Ratio (z) = 0.08360 0.31161
#
# Static dielectric constant tensor:
#      x y z
#    x 1.770160 0.000000 0.042770 
#    y 0.000000 1.675730 0.000000 
#    z 0.042770 0.000000 1.728700 
# 
# From -- ./inp_files/92030.got.cif
#   From: 2010.05.17/outbox.cif.g08.bks.cpg/sg15_47_cif.got.tgz:92030.got - 2010.06.03 18:47:42.
