data_PCOD9291860
_publ_section_title
;
Structure prediction by ZEFSAII (Michael W. Deem and Ramdas Pophale) SiO2 
 PCOD9291860
Probable space group: C 2/C
;
_chemical_formula_sum "Si O2"
_cell_formula_units_Z 32
_cell_length_a 14.614711
_cell_length_b 8.846807
_cell_length_c 26.224258
_cell_angle_alpha 90.000000
_cell_angle_beta 20.192647
_cell_angle_gamma 90.000000
_cell_volume 1170.368957
_symmetry_space_group_name_H-M "C 2/C"
_symmetry_group_IT_number 15
_symmetry_cell_setting 'monoclinic'
loop_
_space_group_symop_operation_xyz
x,y,z
-x,y,1/2-z
-x,-y,-z
x,-y,1/2+z
1/2+x,1/2+y,z
1/2-x,1/2+y,1/2-z
1/2-x,1/2-y,-z
1/2+x,1/2-y,1/2+z
loop_
_atom_site_type_symbol
_atom_site_label
_atom_site_fract_x
_atom_site_fract_y
_atom_site_fract_z
Si Si1 0.504237 0.400434 0.846392
Si Si2 0.302525 0.699406 0.618749
Si Si3 0.739698 0.943512 0.566036
Si Si4 0.248255 0.216822 0.689614
O O1 0.621884 0.308769 0.832173
O O2 0.656064 0.549666 0.749914
O O3 0.552803 0.288346 0.773395
O O4 0.238056 0.467921 0.012514
O O5 0.249107 0.558304 0.608947
O O6 0.474889 0.637296 0.576650
O O7 0.525517 0.793498 0.471930
O O8 0.508107 0.820406 0.689495
#
# Coordination Sequence:
#
# PCOD9291860 Si02
#       4
#     8   8   8   8
#     4  11  22  41  74 111 141 189 250 302 352 445
#     4  10  22  42  73 108 144 189 245 302 358 442
#     4  10  22  44  75 102 149 197 234 301 377 425
#     4  11  23  43  75 102 151 192 242 299 370 430
#
# _framework density 27.341805999999998
#
# number of rings (size 3 to 8) (size 9 to 14) (size 15 to 20)
#    0.000    1.500    2.500    2.250    0.000    0.000 
#    0.000    5.000   22.000    0.000    0.000    0.000 
#    0.000    0.000    0.000    0.000    0.000    0.000 
#
# Total GULP energy -89553.372381 kJ/mol
# GULP energy per Si atom -5597.085774 kJ/mol
# Density = 2.727957 g / cm^3
# Si number density = 27.341806 Si / 1000 Ang^3
#
#
#
# Elastic Constant Matrix: (Units=GPa)
#
#
# Indices 1 2 3 4 5 6 
#
# 1 69.6093 19.8235 21.3754 -0.0128 28.4120 -0.0051
# 2 19.8235 136.1659 41.4128 -0.0158 9.9471 -0.0074
# 3 21.3754 41.4128 147.1307 -0.0681 23.7487 -0.0084
# 4 -0.0128 -0.0158 -0.0681 53.8294 0.0075 17.5600
# 5 28.4120 9.9471 23.7487 0.0075 41.4513 0.0007
# 6 -0.0051 -0.0074 -0.0084 17.5600 0.0007 23.3460
#
#
#
# Elastic Compliance Matrix: (Units=1/GPa)
#
#
# Indices 1 2 3 4 5 6 
#
# 1 0.020471 -0.001918 -0.000268 0.000006 -0.013417 0.000000
# 2 -0.001918 0.008230 -0.002128 -0.000002 0.000559 0.000003
# 3 -0.000268 -0.002128 0.008069 0.000012 -0.003928 -0.000007
# 4 0.000006 -0.000002 0.000012 0.024618 -0.000015 -0.018516
# 5 -0.013417 0.000559 -0.003928 -0.000015 0.035438 0.000006
# 6 0.000000 0.000003 -0.000007 -0.018516 0.000006 0.056761
#
#
# Mechanical properties :
#
#
# Convention : Reuss Voigt Hill
#
# Bulk Modulus (GPa) = 35.53674 57.56993 46.55334
# Shear Modulus (GPa) = 29.13829 41.74494 35.44162
#
# Velocity S-wave (km/s) = 3.26805 3.91164 3.60424
# Velocity P-wave (km/s) = 5.22165 6.44225 5.86380
#
# Compressibility (1/GPa) = 0.02813989
#
# Stress axis : x y z
#
# Youngs Moduli (GPa) = 48.84918 121.51253 123.93597
#
# Poissons Ratio (x) = 0.23312 0.03326
# Poissons Ratio (y) = 0.09372 0.26373
# Poissons Ratio (z) = 0.01311 0.25857
#
# Static dielectric constant tensor:
#      x y z
#    x 2.222490 0.000000 -0.026180 
#    y 0.000000 2.092740 0.000050 
#    z -0.026180 0.000050 2.218600 
# 
# From -- ./inp_files/315432.got.cif
#   From: 2010.05.17/outbox.cif.g08.bks.cpg/sg15_158_cif.got.tgz:315432.got - 2010.06.03 18:47:42.
