data_PCOD9291551
_publ_section_title
;
Structure prediction by ZEFSAII (Michael W. Deem and Ramdas Pophale) SiO2 
 PCOD9291551
Probable space group: C 2/C
;
_chemical_formula_sum "Si O2"
_cell_formula_units_Z 40
_cell_length_a 8.587723
_cell_length_b 24.725008
_cell_length_c 8.901924
_cell_angle_alpha 90.000000
_cell_angle_beta 92.787359
_cell_angle_gamma 90.000000
_cell_volume 1887.922788
_symmetry_space_group_name_H-M "C 2/C"
_symmetry_group_IT_number 15
_symmetry_cell_setting 'monoclinic'
loop_
_space_group_symop_operation_xyz
x,y,z
-x,y,1/2-z
-x,-y,-z
x,-y,1/2+z
1/2+x,1/2+y,z
1/2-x,1/2+y,1/2-z
1/2-x,1/2-y,-z
1/2+x,1/2-y,1/2+z
loop_
_atom_site_type_symbol
_atom_site_label
_atom_site_fract_x
_atom_site_fract_y
_atom_site_fract_z
Si Si1 0.817328 0.777667 0.269417
Si Si2 0.673528 0.446687 0.821143
Si Si3 0.786155 0.329613 0.920927
Si Si4 0.665254 0.971374 0.974146
Si Si5 0.405392 0.856127 0.401798
O O1 0.764869 0.715898 0.293341
O O2 0.784594 0.807029 0.427154
O O3 0.719296 0.809594 0.139779
O O4 0.000000 0.779399 0.250000
O O5 0.500000 0.450101 0.750000
O O6 0.710583 0.386199 0.875450
O O7 0.797662 0.461961 0.697739
O O8 0.704188 0.488782 0.955042
O O9 0.968920 0.338811 0.967091
O O10 0.667820 0.913036 0.054073
O O11 0.500000 0.000000 0.000000
O O12 0.500000 0.864197 0.250000
#
# Coordination Sequence:
#
# PCOD9291551 Si02
#       5
#     8   8   8   8   8
#     4  10  24  41  70  99 138 179 236 289 342 405
#     4  12  28  45  70 102 143 178 230 295 344 410
#     4  10  24  45  65 101 138 184 228 280 348 416
#     4  12  25  45  73 102 134 186 231 281 343 421
#     4  10  22  42  68  96 136 180 230 282 340 415
#
# _framework density 21.187308000000002
#
# number of rings (size 3 to 8) (size 9 to 14) (size 15 to 20)
#    0.000    1.200    2.000    2.400    8.400    5.600 
#    0.000    0.000    0.000    0.000    0.000    0.000 
#    0.000    0.000    0.000    0.000    0.000    0.000 
#
# Total GULP energy -111951.908985 kJ/mol
# GULP energy per Si atom -5597.595449 kJ/mol
# Density = 2.113908 g / cm^3
# Si number density = 21.187308 Si / 1000 Ang^3
#
#
#
# Elastic Constant Matrix: (Units=GPa)
#
#
# Indices 1 2 3 4 5 6 
#
# 1 74.0593 22.3021 -1.9182 0.0000 11.0229 0.0000
# 2 22.3021 160.2840 32.0676 0.0000 13.5925 0.0000
# 3 -1.9182 32.0676 34.8835 0.0000 8.1172 0.0000
# 4 0.0000 0.0000 0.0000 36.1628 0.0000 4.1541
# 5 11.0229 13.5925 8.1172 0.0000 34.2164 0.0000
# 6 0.0000 0.0000 0.0000 4.1541 0.0000 2.0111
#
#
#
# Elastic Compliance Matrix: (Units=1/GPa)
#
#
# Indices 1 2 3 4 5 6 
#
# 1 0.015108 -0.002551 0.004311 0.000000 -0.004876 0.000000
# 2 -0.002551 0.008144 -0.007478 0.000000 -0.000639 0.000000
# 3 0.004311 -0.007478 0.037479 0.000000 -0.007309 0.000000
# 4 0.000000 0.000000 0.000000 0.036255 0.000000 -0.074889
# 5 -0.004876 -0.000639 -0.007309 0.000000 0.032785 0.000000
# 6 0.000000 0.000000 0.000000 -0.074889 0.000000 0.651941
#
#
# Mechanical properties :
#
#
# Convention : Reuss Voigt Hill
#
# Bulk Modulus (GPa) = 20.28626 41.56999 30.92813
# Shear Modulus (GPa) = 6.17603 28.92974 17.55288
#
# Velocity S-wave (km/s) = 1.70918 3.69918 2.88142
# Velocity P-wave (km/s) = 3.67295 6.15695 5.06945
#
# Compressibility (1/GPa) = 0.04929445
#
# Stress axis : x y z
#
# Youngs Moduli (GPa) = 66.18852 122.78557 26.68134
#
# Poissons Ratio (x) = 0.31324 -0.11501
# Poissons Ratio (y) = 0.16885 0.19953
# Poissons Ratio (z) = -0.28532 0.91823
#
# Static dielectric constant tensor:
#      x y z
#    x 1.749300 0.000000 -0.010870 
#    y 0.000000 1.733060 0.000000 
#    z -0.010870 0.000000 1.771230 
# 
# From -- ./inp_files/23416.got.cif
#   From: 2010.05.17/outbox.cif.g08.bks.cpg/sg15_12_cif.got.tgz:23416.got - 2010.06.03 18:47:42.
