data_PCOD9291728
_publ_section_title
;
Structure prediction by ZEFSAII (Michael W. Deem and Ramdas Pophale) SiO2 
 PCOD9291728
Probable space group: C 2/C
;
_chemical_formula_sum "Si O2"
_cell_formula_units_Z 52
_cell_length_a 14.556579
_cell_length_b 15.901802
_cell_length_c 15.025722
_cell_angle_alpha 90.000000
_cell_angle_beta 137.069463
_cell_angle_gamma 90.000000
_cell_volume 2368.967116
_symmetry_space_group_name_H-M "C 2/C"
_symmetry_group_IT_number 15
_symmetry_cell_setting 'monoclinic'
loop_
_space_group_symop_operation_xyz
x,y,z
-x,y,1/2-z
-x,-y,-z
x,-y,1/2+z
1/2+x,1/2+y,z
1/2-x,1/2+y,1/2-z
1/2-x,1/2-y,-z
1/2+x,1/2-y,1/2+z
loop_
_atom_site_type_symbol
_atom_site_label
_atom_site_fract_x
_atom_site_fract_y
_atom_site_fract_z
Si Si1 0.000000 0.415203 0.250000
Si Si2 0.382565 0.380695 0.721359
Si Si3 0.198713 0.486522 0.992027
Si Si4 0.766477 0.718098 0.615124
Si Si5 0.797579 0.703643 0.942856
Si Si6 0.424247 0.298054 0.366209
Si Si7 0.547230 0.476117 0.436900
O O1 0.945953 0.477519 0.135904
O O2 0.877907 0.354697 0.192736
O O3 0.500000 0.333423 0.750000
O O4 0.270329 0.437949 0.595432
O O5 0.305911 0.299760 0.702624
O O6 0.473939 0.451002 0.830754
O O7 0.200770 0.397227 0.041799
O O8 0.294621 0.476156 0.972979
O O9 0.750000 0.750000 0.500000
O O10 0.636845 0.686019 0.577956
O O11 0.691804 0.724020 0.788452
O O12 0.750000 0.750000 0.000000
O O13 0.950929 0.734187 0.035569
O O14 0.489265 0.384446 0.375284
O O15 0.500000 0.500000 0.500000
#
# Coordination Sequence:
#
# PCOD9291728 Si02
#       7
#     4   8   8   8   8   8   8
#     4  12  26  44  78 108 148 194 252 308 378 442
#     4  10  22  42  70  96 140 191 236 297 367 432
#     4  11  24  46  71 104 147 192 242 311 375 438
#     4  12  27  48  73 108 151 197 247 310 380 451
#     4  12  27  49  76 110 154 199 252 315 384 446
#     4  12  29  47  76 113 151 201 259 311 380 467
#     4  11  24  44  73 105 141 192 253 298 373 454
#
# _framework density 21.950496000000001
#
# number of rings (size 3 to 8) (size 9 to 14) (size 15 to 20)
#    0.000    0.615    5.385    1.385    8.615    0.000 
#    2.769    1.538    0.000    0.000    0.000    0.000 
#    0.000    0.000    0.000    0.000    0.000    0.000 
#
# Total GULP energy -145037.927928 kJ/mol
# GULP energy per Si atom -5578.381843 kJ/mol
# Density = 2.190054 g / cm^3
# Si number density = 21.950496 Si / 1000 Ang^3
#
#
#
# Elastic Constant Matrix: (Units=GPa)
#
#
# Indices 1 2 3 4 5 6 
#
# 1 98.0866 18.3970 32.1797 0.0000 10.2325 0.0000
# 2 18.3970 118.4977 32.9221 0.0000 15.6421 0.0000
# 3 32.1797 32.9221 132.3487 0.0000 9.6215 0.0000
# 4 0.0000 0.0000 0.0000 44.2697 0.0000 8.4938
# 5 10.2325 15.6421 9.6215 0.0000 27.7124 0.0000
# 6 0.0000 0.0000 0.0000 8.4938 0.0000 29.2000
#
#
#
# Elastic Compliance Matrix: (Units=1/GPa)
#
#
# Indices 1 2 3 4 5 6 
#
# 1 0.011423 -0.000718 -0.002382 0.000000 -0.002986 0.000000
# 2 -0.000718 0.009678 -0.001903 0.000000 -0.004537 0.000000
# 3 -0.002382 -0.001903 0.008686 0.000000 -0.001062 0.000000
# 4 0.000000 0.000000 0.000000 0.023924 0.000000 -0.006959
# 5 -0.002986 -0.004537 -0.001062 0.000000 0.040117 0.000000
# 6 0.000000 0.000000 0.000000 -0.006959 0.000000 0.036271
#
#
# Mechanical properties :
#
#
# Convention : Reuss Voigt Hill
#
# Bulk Modulus (GPa) = 50.55306 57.32563 53.93934
# Shear Modulus (GPa) = 34.08398 37.93204 36.00801
#
# Velocity S-wave (km/s) = 3.94479 4.16152 4.05460
# Velocity P-wave (km/s) = 6.62035 7.01880 6.82248
#
# Compressibility (1/GPa) = 0.01978120
#
# Stress axis : x y z
#
# Youngs Moduli (GPa) = 87.54639 103.32684 115.13425
#
# Poissons Ratio (x) = 0.07414 0.27422
# Poissons Ratio (y) = 0.06282 0.21912
# Poissons Ratio (z) = 0.20851 0.19665
#
# Static dielectric constant tensor:
#      x y z
#    x 1.620880 0.000000 0.049410 
#    y 0.000000 1.866610 0.000000 
#    z 0.049410 0.000000 1.860910 
# 
# From -- ./inp_files/205778.got.cif
#   From: 2010.05.17/outbox.cif.g08.bks.cpg/sg15_103_cif.got.tgz:205778.got - 2010.06.03 18:47:42.
