data_PCOD9291147
_publ_section_title
;
Structure prediction by ZEFSAII (Michael W. Deem and Ramdas Pophale) SiO2 
 PCOD9291147
Probable space group: C 2/C
;
_chemical_formula_sum "Si O2"
_cell_formula_units_Z 44
_cell_length_a 11.891018
_cell_length_b 12.485239
_cell_length_c 13.507782
_cell_angle_alpha 90.000000
_cell_angle_beta 93.503299
_cell_angle_gamma 90.000000
_cell_volume 2001.647537
_symmetry_space_group_name_H-M "C 2/C"
_symmetry_group_IT_number 15
_symmetry_cell_setting 'monoclinic'
loop_
_space_group_symop_operation_xyz
x,y,z
-x,y,1/2-z
-x,-y,-z
x,-y,1/2+z
1/2+x,1/2+y,z
1/2-x,1/2+y,1/2-z
1/2-x,1/2-y,-z
1/2+x,1/2-y,1/2+z
loop_
_atom_site_type_symbol
_atom_site_label
_atom_site_fract_x
_atom_site_fract_y
_atom_site_fract_z
Si Si1 0.559458 0.895348 0.545516
Si Si2 0.000000 0.702498 0.250000
Si Si3 0.463020 0.672342 0.466296
Si Si4 0.818174 0.102267 0.101200
Si Si5 0.119059 0.260704 0.227272
Si Si6 0.826922 0.129318 0.653194
O O1 0.531170 0.870660 0.658678
O O2 0.507016 0.792668 0.487958
O O3 0.695132 0.901805 0.545712
O O4 0.500000 0.000000 0.500000
O O5 0.099862 0.785288 0.281694
O O6 0.579292 0.606004 0.471867
O O7 0.411751 0.668667 0.354079
O O8 0.370051 0.646081 0.543092
O O9 0.828126 0.205778 0.172892
O O10 0.838425 0.996999 0.168946
O O11 0.200581 0.339596 0.173770
O O12 0.000000 0.312054 0.250000
#
# Coordination Sequence:
#
# PCOD9291147 Si02
#       6
#     8   4   8   8   8   8
#     4  11  23  46  68 101 144 183 233 284 354 419
#     4  10  24  44  68 102 136 184 232 284 348 422
#     4  10  23  42  68  98 140 174 235 286 345 418
#     4  11  23  43  67 106 134 181 235 285 356 408
#     4  10  22  42  64  99 141 175 234 286 342 422
#     4  11  22  43  68  95 141 181 228 288 351 409
#
# _framework density 21.981891999999998
#
# number of rings (size 3 to 8) (size 9 to 14) (size 15 to 20)
#    0.000    1.455    1.818    2.727    3.818    1.455 
#   13.091    0.000    0.000    0.000    0.000    0.000 
#    0.000    0.000    0.000    0.000    0.000    0.000 
#
# Total GULP energy -122901.728398 kJ/mol
# GULP energy per Si atom -5586.442200 kJ/mol
# Density = 2.193186 g / cm^3
# Si number density = 21.981892 Si / 1000 Ang^3
#
#
#
# Elastic Constant Matrix: (Units=GPa)
#
#
# Indices 1 2 3 4 5 6 
#
# 1 154.6490 38.2713 37.2414 0.0000 -38.8547 0.0000
# 2 38.2713 88.4036 2.5057 0.0000 -16.7811 0.0000
# 3 37.2414 2.5057 71.7090 0.0000 -13.4143 0.0000
# 4 0.0000 0.0000 0.0000 19.6224 0.0000 -3.1792
# 5 -38.8547 -16.7811 -13.4143 0.0000 29.0547 0.0000
# 6 0.0000 0.0000 0.0000 -3.1792 0.0000 24.1222
#
#
#
# Elastic Compliance Matrix: (Units=1/GPa)
#
#
# Indices 1 2 3 4 5 6 
#
# 1 0.010736 -0.002382 -0.003354 0.000000 0.011433 0.000000
# 2 -0.002382 0.013301 0.001766 0.000000 0.005312 0.000000
# 3 -0.003354 0.001766 0.016393 0.000000 0.004104 0.000000
# 4 0.000000 0.000000 0.000000 0.052074 0.000000 0.006863
# 5 0.011433 0.005312 0.004104 0.000000 0.054669 0.000000
# 6 0.000000 0.000000 0.000000 0.006863 0.000000 0.042360
#
#
# Mechanical properties :
#
#
# Convention : Reuss Voigt Hill
#
# Bulk Modulus (GPa) = 30.77845 52.31094 41.54469
# Shear Modulus (GPa) = 24.00345 30.34275 27.17310
#
# Velocity S-wave (km/s) = 3.30807 3.71934 3.51972
# Velocity P-wave (km/s) = 5.35007 6.50335 5.95470
#
# Compressibility (1/GPa) = 0.03249027
#
# Stress axis : x y z
#
# Youngs Moduli (GPa) = 93.14616 75.17999 61.00201
#
# Poissons Ratio (x) = 0.17911 0.20458
# Poissons Ratio (y) = 0.22192 -0.10774
# Poissons Ratio (z) = 0.31238 -0.13278
#
# Static dielectric constant tensor:
#      x y z
#    x 1.850760 0.000000 0.013300 
#    y 0.000000 1.771260 0.000000 
#    z 0.013300 0.000000 1.815520 
# 
# From -- ./inp_files/142330.got.cif
#   From: 2010.05.17/outbox.cif.g08.bks.cpg/sg15_72_cif.got.tgz:142330.got - 2010.06.03 18:47:42.
