data_PCOD9291082
_publ_section_title
;
Structure prediction by ZEFSAII (Michael W. Deem and Ramdas Pophale) SiO2 
 PCOD9291082
Probable space group: C 2/C
;
_chemical_formula_sum "Si O2"
_cell_formula_units_Z 52
_cell_length_a 23.664944
_cell_length_b 11.158612
_cell_length_c 10.521526
_cell_angle_alpha 90.000000
_cell_angle_beta 123.206341
_cell_angle_gamma 90.000000
_cell_volume 2324.695552
_symmetry_space_group_name_H-M "C 2/C"
_symmetry_group_IT_number 15
_symmetry_cell_setting 'monoclinic'
loop_
_space_group_symop_operation_xyz
x,y,z
-x,y,1/2-z
-x,-y,-z
x,-y,1/2+z
1/2+x,1/2+y,z
1/2-x,1/2+y,1/2-z
1/2-x,1/2-y,-z
1/2+x,1/2-y,1/2+z
loop_
_atom_site_type_symbol
_atom_site_label
_atom_site_fract_x
_atom_site_fract_y
_atom_site_fract_z
Si Si1 0.699490 0.343935 0.377744
Si Si2 0.352955 0.115074 0.791190
Si Si3 0.000000 0.000000 0.000000
Si Si4 0.300243 0.712896 0.898152
Si Si5 0.533299 0.699367 0.153870
Si Si6 0.679649 0.014764 0.999571
Si Si7 0.603343 0.504820 0.388433
O O1 0.750000 0.250000 0.500000
O O2 0.676179 0.292397 0.217028
O O3 0.745133 0.460775 0.404187
O O4 0.641680 0.385393 0.399653
O O5 0.279636 0.181646 0.697324
O O6 0.411662 0.207033 0.823418
O O7 0.348774 0.011479 0.678329
O O8 0.359658 0.055938 0.938419
O O9 0.057960 0.015394 0.953969
O O10 0.985097 0.152566 0.985590
O O11 0.315441 0.844343 0.966712
O O12 0.342753 0.610874 0.021148
O O13 0.500000 0.730561 0.250000
O O14 0.562483 0.559783 0.214835
#
# Coordination Sequence:
#
# PCOD9291082 Si02
#       7
#     8   8   4   8   8   8   8
#     4  11  24  35  58  99 138 168 216 284 337 401
#     4  11  22  39  67  93 138 173 224 274 338 407
#     4  10  24  38  68  92 122 174 224 282 318 408
#     4  11  22  37  66  93 134 174 217 275 342 406
#     4  10  22  42  64  90 124 176 224 276 330 404
#     4  11  22  39  61  98 130 177 218 270 342 405
#     4  11  21  41  64  93 131 168 227 266 351 395
#
# _framework density 22.368521999999999
#
# number of rings (size 3 to 8) (size 9 to 14) (size 15 to 20)
#    0.000    1.231    3.077    3.231    6.462    0.000 
#    0.000    0.769    0.000    0.000    0.000    0.000 
#    0.000    0.000    0.000    0.000    0.000    0.000 
#
# Total GULP energy -144920.813778 kJ/mol
# GULP energy per Si atom -5573.877453 kJ/mol
# Density = 2.231761 g / cm^3
# Si number density = 22.368522 Si / 1000 Ang^3
#
#
#
# Elastic Constant Matrix: (Units=GPa)
#
#
# Indices 1 2 3 4 5 6 
#
# 1 159.5335 49.5767 31.4035 0.0000 -33.2295 0.0000
# 2 49.5767 56.2303 12.5669 0.0000 -13.4397 0.0000
# 3 31.4035 12.5669 47.1718 0.0000 -15.9669 0.0000
# 4 0.0000 0.0000 0.0000 34.7167 0.0000 4.8907
# 5 -33.2295 -13.4397 -15.9669 0.0000 36.4239 0.0000
# 6 0.0000 0.0000 0.0000 4.8907 0.0000 41.4664
#
#
#
# Elastic Compliance Matrix: (Units=1/GPa)
#
#
# Indices 1 2 3 4 5 6 
#
# 1 0.010162 -0.006993 -0.003097 0.000000 0.005333 0.000000
# 2 -0.006993 0.024747 -0.001182 0.000000 0.002234 0.000000
# 3 -0.003097 -0.001182 0.026387 0.000000 0.008306 0.000000
# 4 0.000000 0.000000 0.000000 0.029291 0.000000 -0.003455
# 5 0.005333 0.002234 0.008306 0.000000 0.036785 0.000000
# 6 0.000000 0.000000 0.000000 -0.003455 0.000000 0.024523
#
#
# Mechanical properties :
#
#
# Convention : Reuss Voigt Hill
#
# Bulk Modulus (GPa) = 25.80398 50.00333 37.90365
# Shear Modulus (GPa) = 26.68727 33.81398 30.25062
#
# Velocity S-wave (km/s) = 3.45784 3.89225 3.68145
# Velocity P-wave (km/s) = 5.24434 6.52704 5.92053
#
# Compressibility (1/GPa) = 0.03875371
#
# Stress axis : x y z
#
# Youngs Moduli (GPa) = 98.40893 40.40873 37.89747
#
# Poissons Ratio (x) = 0.28256 0.11737
# Poissons Ratio (y) = 0.68813 0.04478
# Poissons Ratio (z) = 0.30477 0.04774
#
# Static dielectric constant tensor:
#      x y z
#    x 1.808980 0.000000 0.032710 
#    y 0.000000 2.756150 0.000000 
#    z 0.032710 0.000000 2.777420 
# 
# From -- ./inp_files/111185.got.cif
#   From: 2010.05.17/outbox.cif.g08.bks.cpg/sg15_56_cif.got.tgz:111185.got - 2010.06.03 18:47:42.
