data_PCOD9291910
_publ_section_title
;
Structure prediction by ZEFSAII (Michael W. Deem and Ramdas Pophale) SiO2 
 PCOD9291910
Probable space group: C 2/C
;
_chemical_formula_sum "Si O2"
_cell_formula_units_Z 64
_cell_length_a 19.164441
_cell_length_b 8.590706
_cell_length_c 19.093903
_cell_angle_alpha 90.000000
_cell_angle_beta 89.461071
_cell_angle_gamma 90.000000
_cell_volume 3143.406248
_symmetry_space_group_name_H-M "C 2/C"
_symmetry_group_IT_number 15
_symmetry_cell_setting 'monoclinic'
loop_
_space_group_symop_operation_xyz
x,y,z
-x,y,1/2-z
-x,-y,-z
x,-y,1/2+z
1/2+x,1/2+y,z
1/2-x,1/2+y,1/2-z
1/2-x,1/2-y,-z
1/2+x,1/2-y,1/2+z
loop_
_atom_site_type_symbol
_atom_site_label
_atom_site_fract_x
_atom_site_fract_y
_atom_site_fract_z
Si Si1 0.785860 0.833970 0.100703
Si Si2 0.059711 0.744199 0.190059
Si Si3 0.938369 0.909678 0.807570
Si Si4 0.127991 0.394740 0.379503
Si Si5 0.160609 0.584860 0.507157
Si Si6 0.188617 0.365042 0.772143
Si Si7 0.537498 0.911893 0.110923
Si Si8 0.176155 0.083496 0.307403
O O1 0.822716 0.737380 0.039085
O O2 0.768858 0.723167 0.166825
O O3 0.839720 0.950562 0.136336
O O4 0.718623 0.916081 0.067518
O O5 0.134987 0.735540 0.227192
O O6 0.051268 0.581764 0.147121
O O7 0.000000 0.740953 0.250000
O O8 0.054306 0.918655 0.155955
O O9 0.938522 0.747333 0.849672
O O10 0.869926 0.917704 0.760925
O O11 0.000000 0.897067 0.750000
O O12 0.165335 0.447760 0.450474
O O13 0.141479 0.517228 0.316980
O O14 0.161318 0.240263 0.348849
O O15 0.045556 0.390561 0.394782
O O16 0.084010 0.586390 0.540753
O O17 0.244455 0.436311 0.718781
#
# Coordination Sequence:
#
# PCOD9291910 Si02
#       8
#     8   8   8   8   8   8   8   8
#     4  10  22  43  61  88 131 167 218 275 314 387
#     4  11  22  39  66  96 134 167 207 271 339 397
#     4  11  23  39  64 100 133 166 210 273 339 390
#     4  11  24  40  65  93 129 173 219 266 320 396
#     4  10  24  44  64  87 126 185 221 257 322 381
#     4  11  21  39  64  96 127 169 208 273 348 385
#     4  12  22  44  66  96 136 174 214 271 327 393
#     4  12  22  39  65  97 129 163 214 281 332 391
#
# _framework density 20.360078000000001
#
# number of rings (size 3 to 8) (size 9 to 14) (size 15 to 20)
#    0.000    1.000    3.750    3.750    0.000    0.500 
#    2.250    0.625    0.000    0.000    0.000    0.000 
#    0.000    0.000    0.000    0.000    0.000    0.000 
#
# Total GULP energy -178461.883323 kJ/mol
# GULP energy per Si atom -5576.933854 kJ/mol
# Density = 2.031374 g / cm^3
# Si number density = 20.360078 Si / 1000 Ang^3
#
#
#
# Elastic Constant Matrix: (Units=GPa)
#
#
# Indices 1 2 3 4 5 6 
#
# 1 81.9139 -4.2060 15.1104 0.0000 -10.9871 0.0000
# 2 -4.2060 100.9974 31.3736 0.0000 -2.7068 0.0000
# 3 15.1104 31.3736 58.0316 0.0000 -2.9606 0.0000
# 4 0.0000 0.0000 0.0000 0.4991 0.0000 -6.0824
# 5 -10.9871 -2.7068 -2.9606 0.0000 30.3846 0.0000
# 6 0.0000 0.0000 0.0000 -6.0824 0.0000 11.3052
#
#
#
# Elastic Compliance Matrix: (Units=1/GPa)
#
#
# Indices 1 2 3 4 5 6 
#
# 1 0.013776 0.002091 -0.004476 0.000000 0.004731 0.000000
# 2 0.002091 0.012223 -0.007094 0.000000 0.001154 0.000000
# 3 -0.004476 -0.007094 0.022228 0.000000 -0.000085 0.000000
# 4 0.000000 0.000000 0.000000 -0.360581 0.000000 -0.193998
# 5 0.004731 0.001154 -0.000085 0.000000 0.034717 0.000000
# 6 0.000000 0.000000 0.000000 -0.193998 0.000000 -0.015919
#
#
# Mechanical properties :
#
#
# Convention : Reuss Voigt Hill
#
# Bulk Modulus (GPa) = 34.16554 36.16653 35.16603
# Shear Modulus (GPa) = -18.87908 21.68213 1.40152
#
# Velocity S-wave (km/s) = -3.04840 3.26687 0.83058
# Velocity P-wave (km/s) = 2.10399 5.65968 4.26959
#
# Compressibility (1/GPa) = 0.02926926
#
# Stress axis : x y z
#
# Youngs Moduli (GPa) = 72.59219 81.81460 44.98814
#
# Poissons Ratio (x) = -0.17106 0.20136
# Poissons Ratio (y) = -0.15178 0.31913
# Poissons Ratio (z) = 0.32492 0.58035
#
# Static dielectric constant tensor:
#      x y z
#    x 1.801670 0.000000 0.005560 
#    y 0.000000 1.830400 0.000000 
#    z 0.005560 0.000000 1.704080 
# 
# From -- ./inp_files/251574.got.cif
#   From: 2010.05.17/outbox.cif.g08.bks.cpg/sg15_126_cif.got.tgz:251574.got - 2010.06.03 18:47:42.
