data_PCOD9291710
_publ_section_title
;
Structure prediction by ZEFSAII (Michael W. Deem and Ramdas Pophale) SiO2 
 PCOD9291710
Probable space group: C 2/C
;
_chemical_formula_sum "Si O2"
_cell_formula_units_Z 44
_cell_length_a 14.816698
_cell_length_b 9.293525
_cell_length_c 19.295494
_cell_angle_alpha 90.000000
_cell_angle_beta 55.968953
_cell_angle_gamma 90.000000
_cell_volume 2201.928383
_symmetry_space_group_name_H-M "C 2/C"
_symmetry_group_IT_number 15
_symmetry_cell_setting 'monoclinic'
loop_
_space_group_symop_operation_xyz
x,y,z
-x,y,1/2-z
-x,-y,-z
x,-y,1/2+z
1/2+x,1/2+y,z
1/2-x,1/2+y,1/2-z
1/2-x,1/2-y,-z
1/2+x,1/2-y,1/2+z
loop_
_atom_site_type_symbol
_atom_site_label
_atom_site_fract_x
_atom_site_fract_y
_atom_site_fract_z
Si Si1 0.000000 0.660690 0.250000
Si Si2 0.904031 0.086763 0.001320
Si Si3 0.041975 0.596524 0.078904
Si Si4 0.758348 0.907142 0.963021
Si Si5 0.737233 0.784762 0.684050
Si Si6 0.699461 0.959189 0.840285
O O1 0.016207 0.576598 0.171556
O O2 0.114122 0.741502 0.210233
O O3 0.809420 0.129637 0.096925
O O4 0.937790 0.237339 0.950940
O O5 0.853560 0.988543 0.962831
O O6 0.000000 0.000000 0.000000
O O7 0.928932 0.560106 0.090388
O O8 0.148609 0.502246 0.019557
O O9 0.768751 0.902304 0.875615
O O10 0.750000 0.750000 0.000000
O O11 0.730412 0.874134 0.757711
O O12 0.785252 0.628328 0.675724
#
# Coordination Sequence:
#
# PCOD9291710 Si02
#       6
#     4   8   8   8   8   8
#     4  10  22  42  70  94 128 184 224 282 346 416
#     4  12  26  45  71  99 140 191 237 284 356 428
#     4  11  23  45  69  97 139 183 226 287 360 411
#     4  12  25  42  70 104 138 177 237 287 349 417
#     4  11  25  45  70  99 140 182 237 283 355 417
#     4  11  26  44  70 100 140 180 231 294 348 420
#
# _framework density 19.982483999999999
#
# number of rings (size 3 to 8) (size 9 to 14) (size 15 to 20)
#    0.000    0.727    3.636    3.273   10.182    0.000 
#    0.000    0.000    0.000    0.000    0.000    0.000 
#    0.000    0.000    0.000    0.000    0.000    0.000 
#
# Total GULP energy -122895.235006 kJ/mol
# GULP energy per Si atom -5586.147046 kJ/mol
# Density = 1.993700 g / cm^3
# Si number density = 19.982484 Si / 1000 Ang^3
#
#
#
# Elastic Constant Matrix: (Units=GPa)
#
#
# Indices 1 2 3 4 5 6 
#
# 1 157.4150 59.7368 43.6852 0.0000 12.6733 0.0000
# 2 59.7368 108.6645 6.9773 0.0000 1.8680 0.0000
# 3 43.6852 6.9773 87.0720 0.0000 16.4902 0.0000
# 4 0.0000 0.0000 0.0000 15.5389 0.0000 0.5001
# 5 12.6733 1.8680 16.4902 0.0000 39.4117 0.0000
# 6 0.0000 0.0000 0.0000 0.5001 0.0000 34.4831
#
#
#
# Elastic Compliance Matrix: (Units=1/GPa)
#
#
# Indices 1 2 3 4 5 6 
#
# 1 0.009454 -0.004912 -0.004146 0.000000 -0.001072 0.000000
# 2 -0.004912 0.011804 0.001440 0.000000 0.000418 0.000000
# 3 -0.004146 0.001440 0.014347 0.000000 -0.004738 0.000000
# 4 0.000000 0.000000 0.000000 0.064385 0.000000 -0.000934
# 5 -0.001072 0.000418 -0.004738 0.000000 0.027681 0.000000
# 6 0.000000 0.000000 0.000000 -0.000934 0.000000 0.029013
#
#
# Mechanical properties :
#
#
# Convention : Reuss Voigt Hill
#
# Bulk Modulus (GPa) = 49.10142 63.77222 56.43682
# Shear Modulus (GPa) = 27.97831 34.07022 31.02426
#
# Velocity S-wave (km/s) = 3.74591 4.13365 3.94454
# Velocity P-wave (km/s) = 6.58291 7.40041 7.00360
#
# Compressibility (1/GPa) = 0.02036601
#
# Stress axis : x y z
#
# Youngs Moduli (GPa) = 105.77672 84.72009 69.70107
#
# Poissons Ratio (x) = 0.41618 0.28901
# Poissons Ratio (y) = 0.51962 -0.10035
# Poissons Ratio (z) = 0.43860 -0.12197
#
# Static dielectric constant tensor:
#      x y z
#    x 1.742460 0.000000 -0.006210 
#    y 0.000000 1.672970 0.000000 
#    z -0.006210 0.000000 1.735250 
# 
# From -- ./inp_files/202582.got.cif
#   From: 2010.05.17/outbox.cif.g08.bks.cpg/sg15_102_cif.got.tgz:202582.got - 2010.06.03 18:47:42.
