data_PCOD9291521
_publ_section_title
;
Structure prediction by ZEFSAII (Michael W. Deem and Ramdas Pophale) SiO2 
 PCOD9291521
Probable space group: C 2/C
;
_chemical_formula_sum "Si O2"
_cell_formula_units_Z 52
_cell_length_a 12.225705
_cell_length_b 12.355354
_cell_length_c 21.588984
_cell_angle_alpha 90.000000
_cell_angle_beta 127.560544
_cell_angle_gamma 90.000000
_cell_volume 2585.088649
_symmetry_space_group_name_H-M "C 2/C"
_symmetry_group_IT_number 15
_symmetry_cell_setting 'monoclinic'
loop_
_space_group_symop_operation_xyz
x,y,z
-x,y,1/2-z
-x,-y,-z
x,-y,1/2+z
1/2+x,1/2+y,z
1/2-x,1/2+y,1/2-z
1/2-x,1/2-y,-z
1/2+x,1/2-y,1/2+z
loop_
_atom_site_type_symbol
_atom_site_label
_atom_site_fract_x
_atom_site_fract_y
_atom_site_fract_z
Si Si1 0.262595 0.234841 0.103996
Si Si2 0.500000 0.332025 0.250000
Si Si3 0.825214 0.352156 0.055279
Si Si4 0.583871 0.492369 0.178514
Si Si5 0.894781 0.237811 0.321693
Si Si6 0.711277 0.426395 0.476511
Si Si7 0.336480 0.901648 0.198394
O O1 0.422467 0.254926 0.175170
O O2 0.194603 0.226112 0.147426
O O3 0.227430 0.343941 0.053418
O O4 0.228687 0.135064 0.047951
O O5 0.592845 0.415578 0.242175
O O6 0.782750 0.374507 0.111545
O O7 0.983170 0.317495 0.115270
O O8 0.750000 0.250000 0.000000
O O9 0.790720 0.460446 0.006182
O O10 0.556383 0.618565 0.181510
O O11 0.449809 0.449584 0.094426
O O12 0.728709 0.483079 0.192501
O O13 0.829807 0.295767 0.239770
O O14 0.500000 0.934036 0.250000
#
# Coordination Sequence:
#
# PCOD9291521 Si02
#       7
#     8   4   8   8   8   8   8
#     4  10  22  43  64  98 130 172 221 262 329 387
#     4  10  22  42  68  94 130 174 218 270 326 388
#     4  11  23  41  64  96 128 171 213 273 326 382
#     4  11  22  41  69  94 128 178 217 268 328 390
#     4  11  23  41  65  94 132 168 217 274 322 391
#     4  10  23  42  68  94 133 172 216 272 320 400
#     4  10  24  42  59  94 132 166 218 269 326 383
#
# _framework density 20.115365000000001
#
# number of rings (size 3 to 8) (size 9 to 14) (size 15 to 20)
#    0.000    1.538    3.077    0.923    5.385    1.846 
#   11.077    0.000    0.000    0.000    0.000    0.000 
#    0.000    0.000    0.000    0.000    0.000    0.000 
#
# Total GULP energy -145014.528225 kJ/mol
# GULP energy per Si atom -5577.481855 kJ/mol
# Density = 2.006958 g / cm^3
# Si number density = 20.115365 Si / 1000 Ang^3
#
#
#
# Elastic Constant Matrix: (Units=GPa)
#
#
# Indices 1 2 3 4 5 6 
#
# 1 54.4863 10.3424 -14.2248 0.0000 -6.6522 0.0000
# 2 10.3424 126.8312 34.3706 0.0000 11.3693 0.0000
# 3 -14.2248 34.3706 62.2789 0.0000 -0.7614 0.0000
# 4 0.0000 0.0000 0.0000 33.5506 0.0000 6.5918
# 5 -6.6522 11.3693 -0.7614 0.0000 16.5618 0.0000
# 6 0.0000 0.0000 0.0000 6.5918 0.0000 18.2039
#
#
#
# Elastic Compliance Matrix: (Units=1/GPa)
#
#
# Indices 1 2 3 4 5 6 
#
# 1 0.023213 -0.005380 0.008435 0.000000 0.013405 0.000000
# 2 -0.005380 0.011301 -0.007591 0.000000 -0.010268 0.000000
# 3 0.008435 -0.007591 0.022291 0.000000 0.009624 0.000000
# 4 0.000000 0.000000 0.000000 0.032089 0.000000 -0.011620
# 5 0.013405 -0.010268 0.009624 0.000000 0.073255 0.000000
# 6 0.000000 0.000000 0.000000 -0.011620 0.000000 0.059141
#
#
# Mechanical properties :
#
#
# Convention : Reuss Voigt Hill
#
# Bulk Modulus (GPa) = 20.95029 33.84142 27.39586
# Shear Modulus (GPa) = 20.30268 27.87049 24.08659
#
# Velocity S-wave (km/s) = 3.18041 3.72631 3.46413
# Velocity P-wave (km/s) = 4.89126 5.94761 5.44511
#
# Compressibility (1/GPa) = 0.04773203
#
# Stress axis : x y z
#
# Youngs Moduli (GPa) = 43.07863 88.48914 44.86207
#
# Poissons Ratio (x) = 0.47612 -0.37843
# Poissons Ratio (y) = 0.23178 0.34056
# Poissons Ratio (z) = -0.36338 0.67174
#
# Static dielectric constant tensor:
#      x y z
#    x 1.764670 0.000000 0.030310 
#    y 0.000000 1.705900 0.000000 
#    z 0.030310 0.000000 1.760410 
# 
# From -- ./inp_files/237704.got.cif
#   From: 2010.05.17/outbox.cif.g08.bks.cpg/sg15_119_cif.got.tgz:237704.got - 2010.06.03 18:47:42.
