data_PCOD9291073
_publ_section_title
;
Structure prediction by ZEFSAII (Michael W. Deem and Ramdas Pophale) SiO2 
 PCOD9291073
Probable space group: C 2/C
;
_chemical_formula_sum "Si O2"
_cell_formula_units_Z 40
_cell_length_a 10.475475
_cell_length_b 9.519369
_cell_length_c 20.601988
_cell_angle_alpha 90.000000
_cell_angle_beta 101.677525
_cell_angle_gamma 90.000000
_cell_volume 2011.906448
_symmetry_space_group_name_H-M "C 2/C"
_symmetry_group_IT_number 15
_symmetry_cell_setting 'monoclinic'
loop_
_space_group_symop_operation_xyz
x,y,z
-x,y,1/2-z
-x,-y,-z
x,-y,1/2+z
1/2+x,1/2+y,z
1/2-x,1/2+y,1/2-z
1/2-x,1/2-y,-z
1/2+x,1/2-y,1/2+z
loop_
_atom_site_type_symbol
_atom_site_label
_atom_site_fract_x
_atom_site_fract_y
_atom_site_fract_z
Si Si1 0.108790 0.024061 0.710802
Si Si2 0.382412 0.119582 0.420828
Si Si3 0.312564 0.901831 0.518337
Si Si4 0.399122 0.441149 0.436312
Si Si5 0.359501 0.850613 0.766332
O O1 0.235503 0.926011 0.722214
O O2 0.000000 0.970952 0.750000
O O3 0.051802 0.040857 0.632234
O O4 0.148897 0.181064 0.737738
O O5 0.536936 0.103280 0.447465
O O6 0.360251 0.279025 0.441990
O O7 0.354889 0.109633 0.341895
O O8 0.306623 0.003876 0.455032
O O9 0.250000 0.750000 0.500000
O O10 0.230952 0.970600 0.567185
O O11 0.500000 0.500000 0.500000
O O12 0.500000 0.889832 0.750000
#
# Coordination Sequence:
#
# PCOD9291073 Si02
#       5
#     8   8   8   8   8
#     4  10  24  42  63  92 126 167 209 256 316 375
#     4  10  23  39  61  93 123 165 206 258 311 375
#     4  11  22  39  62  92 123 160 207 257 318 368
#     4  11  22  40  63  91 127 162 205 259 311 371
#     4  10  22  42  64  88 128 165 209 258 312 375
#
# _framework density 19.881641999999999
#
# number of rings (size 3 to 8) (size 9 to 14) (size 15 to 20)
#    0.000    1.600    2.000    1.800    2.800    4.000 
#    0.000    0.000    0.000    0.000    0.000    0.000 
#    0.000    0.000    0.000    0.000    0.000    0.000 
#
# Total GULP energy -111696.291002 kJ/mol
# GULP energy per Si atom -5584.814550 kJ/mol
# Density = 1.983639 g / cm^3
# Si number density = 19.881642 Si / 1000 Ang^3
#
#
#
# Elastic Constant Matrix: (Units=GPa)
#
#
# Indices 1 2 3 4 5 6 
#
# 1 86.4369 40.2179 28.2324 0.0000 -12.2301 0.0000
# 2 40.2179 102.5948 49.7287 0.0000 -6.9790 0.0000
# 3 28.2324 49.7287 90.0094 0.0000 -2.0264 0.0000
# 4 0.0000 0.0000 0.0000 24.3990 0.0000 -4.8449
# 5 -12.2301 -6.9790 -2.0264 0.0000 33.3756 0.0000
# 6 0.0000 0.0000 0.0000 -4.8449 0.0000 35.2143
#
#
#
# Elastic Compliance Matrix: (Units=1/GPa)
#
#
# Indices 1 2 3 4 5 6 
#
# 1 0.015000 -0.004572 -0.002080 0.000000 0.004414 0.000000
# 2 -0.004572 0.014890 -0.006770 0.000000 0.001027 0.000000
# 3 -0.002080 -0.006770 0.015474 0.000000 -0.001238 0.000000
# 4 0.000000 0.000000 0.000000 0.042136 0.000000 0.005797
# 5 0.004414 0.001027 -0.001238 0.000000 0.031719 0.000000
# 6 0.000000 0.000000 0.000000 0.005797 0.000000 0.029195
#
#
# Mechanical properties :
#
#
# Convention : Reuss Voigt Hill
#
# Bulk Modulus (GPa) = 53.98736 57.26656 55.62696
# Shear Modulus (GPa) = 27.55844 29.32194 28.44019
#
# Velocity S-wave (km/s) = 3.72711 3.84451 3.78626
# Velocity P-wave (km/s) = 6.76277 6.96945 6.86689
#
# Compressibility (1/GPa) = 0.01852285
#
# Stress axis : x y z
#
# Youngs Moduli (GPa) = 66.66556 67.15714 64.62250
#
# Poissons Ratio (x) = 0.30703 0.13440
# Poissons Ratio (y) = 0.30479 0.43747
# Poissons Ratio (z) = 0.13865 0.45463
#
# Static dielectric constant tensor:
#      x y z
#    x 1.686940 0.000000 0.011690 
#    y 0.000000 1.681700 0.000000 
#    z 0.011690 0.000000 1.724200 
# 
# From -- ./inp_files/195173.got.cif
#   From: 2010.05.17/outbox.cif.g08.bks.cpg/sg15_98_cif.got.tgz:195173.got - 2010.06.03 18:47:42.
