data_PCOD9291342
_publ_section_title
;
Structure prediction by ZEFSAII (Michael W. Deem and Ramdas Pophale) SiO2 
 PCOD9291342
Probable space group: C 2/C
;
_chemical_formula_sum "Si O2"
_cell_formula_units_Z 48
_cell_length_a 22.397559
_cell_length_b 7.954141
_cell_length_c 10.965708
_cell_angle_alpha 90.000000
_cell_angle_beta 91.136578
_cell_angle_gamma 90.000000
_cell_volume 1953.193170
_symmetry_space_group_name_H-M "C 2/C"
_symmetry_group_IT_number 15
_symmetry_cell_setting 'monoclinic'
loop_
_space_group_symop_operation_xyz
x,y,z
-x,y,1/2-z
-x,-y,-z
x,-y,1/2+z
1/2+x,1/2+y,z
1/2-x,1/2+y,1/2-z
1/2-x,1/2-y,-z
1/2+x,1/2-y,1/2+z
loop_
_atom_site_type_symbol
_atom_site_label
_atom_site_fract_x
_atom_site_fract_y
_atom_site_fract_z
Si Si1 0.159034 0.901464 0.723740
Si Si2 0.797530 0.976237 0.019823
Si Si3 0.438464 0.380145 0.318567
Si Si4 0.180823 0.531985 0.655125
Si Si5 0.933225 0.574735 0.487327
Si Si6 0.145982 0.660709 0.358429
O O1 0.188761 0.020625 0.619267
O O2 0.184158 0.718792 0.702332
O O3 0.168941 0.931873 0.867325
O O4 0.090268 0.934127 0.679973
O O5 0.728412 0.001752 0.051003
O O6 0.822561 0.785460 0.043666
O O7 0.500000 0.383665 0.250000
O O8 0.395583 0.281797 0.223158
O O9 0.439515 0.270604 0.444179
O O10 0.112013 0.498854 0.616484
O O11 0.194609 0.409572 0.767469
O O12 0.894976 0.496288 0.598295
O O13 0.000000 0.500000 0.500000
#
# Coordination Sequence:
#
# PCOD9291342 Si02
#       6
#     8   8   8   8   8   8
#     4  11  25  44  70 104 138 182 226 288 355 412
#     4  11  24  46  69 103 144 177 226 291 355 416
#     4  10  22  43  62  95 137 176 225 290 340 403
#     4  11  24  41  70  97 134 182 228 285 348 416
#     4  11  22  41  69  92 129 182 235 279 337 410
#     4  10  22  42  66  96 132 178 230 283 339 412
#
# _framework density 24.575142
#
# number of rings (size 3 to 8) (size 9 to 14) (size 15 to 20)
#    0.000    1.333    3.333    1.500    4.667    0.000 
#    3.000    7.500    0.000    0.000    0.000    0.000 
#    0.000    0.000    0.000    0.000    0.000    0.000 
#
# Total GULP energy -133773.742082 kJ/mol
# GULP energy per Si atom -5573.905920 kJ/mol
# Density = 2.451921 g / cm^3
# Si number density = 24.575142 Si / 1000 Ang^3
#
#
#
# Elastic Constant Matrix: (Units=GPa)
#
#
# Indices 1 2 3 4 5 6 
#
# 1 135.3486 18.4891 23.1766 0.0000 -5.1862 0.0000
# 2 18.4891 32.8304 1.3191 0.0000 -10.1358 0.0000
# 3 23.1766 1.3191 78.4649 0.0000 -13.6174 0.0000
# 4 0.0000 0.0000 0.0000 19.2416 0.0000 0.1210
# 5 -5.1862 -10.1358 -13.6174 0.0000 38.7448 0.0000
# 6 0.0000 0.0000 0.0000 0.1210 0.0000 18.8140
#
#
#
# Elastic Compliance Matrix: (Units=1/GPa)
#
#
# Indices 1 2 3 4 5 6 
#
# 1 0.008477 -0.005006 -0.002609 0.000000 -0.001092 0.000000
# 2 -0.005006 0.036168 0.002552 0.000000 0.009688 0.000000
# 3 -0.002609 0.002552 0.014406 0.000000 0.005382 0.000000
# 4 0.000000 0.000000 0.000000 0.051973 0.000000 -0.000334
# 5 -0.001092 0.009688 0.005382 0.000000 0.030090 0.000000
# 6 0.000000 0.000000 0.000000 -0.000334 0.000000 0.053154
#
#
# Mechanical properties :
#
#
# Convention : Reuss Voigt Hill
#
# Bulk Modulus (GPa) = 20.43986 36.95704 28.69845
# Shear Modulus (GPa) = 22.65488 28.93735 25.79612
#
# Velocity S-wave (km/s) = 3.03951 3.43520 3.24340
# Velocity P-wave (km/s) = 4.54461 5.55024 5.07241
#
# Compressibility (1/GPa) = 0.04892402
#
# Stress axis : x y z
#
# Youngs Moduli (GPa) = 117.96375 27.64907 69.41379
#
# Poissons Ratio (x) = 0.13842 0.18112
# Poissons Ratio (y) = 0.59057 -0.17715
# Poissons Ratio (z) = 0.30780 -0.07056
#
# Static dielectric constant tensor:
#      x y z
#    x 1.979220 0.000000 0.013170 
#    y 0.000000 2.024380 0.000000 
#    z 0.013170 0.000000 2.072820 
# 
# From -- ./inp_files/116299.got.cif
#   From: 2010.05.17/outbox.cif.g08.bks.cpg/sg15_59_cif.got.tgz:116299.got - 2010.06.03 18:47:42.
