data_PCOD9291767
_publ_section_title
;
Structure prediction by ZEFSAII (Michael W. Deem and Ramdas Pophale) SiO2 
 PCOD9291767
Probable space group: C 2/C
;
_chemical_formula_sum "Si O2"
_cell_formula_units_Z 44
_cell_length_a 19.542190
_cell_length_b 15.918516
_cell_length_c 11.749067
_cell_angle_alpha 90.000000
_cell_angle_beta 30.759487
_cell_angle_gamma 90.000000
_cell_volume 1869.261054
_symmetry_space_group_name_H-M "C 2/C"
_symmetry_group_IT_number 15
_symmetry_cell_setting 'monoclinic'
loop_
_space_group_symop_operation_xyz
x,y,z
-x,y,1/2-z
-x,-y,-z
x,-y,1/2+z
1/2+x,1/2+y,z
1/2-x,1/2+y,1/2-z
1/2-x,1/2-y,-z
1/2+x,1/2-y,1/2+z
loop_
_atom_site_type_symbol
_atom_site_label
_atom_site_fract_x
_atom_site_fract_y
_atom_site_fract_z
Si Si1 0.720970 0.751796 0.221168
Si Si2 0.891956 0.429028 0.189737
Si Si3 0.014837 0.125733 0.498996
Si Si4 0.368704 0.279041 0.406976
Si Si5 0.880730 0.023656 0.510659
Si Si6 0.000000 0.324058 0.250000
O O1 0.613549 0.695188 0.305994
O O2 0.703700 0.709547 0.369885
O O3 0.871026 0.732564 0.967722
O O4 0.155144 0.655562 0.812409
O O5 0.751577 0.478270 0.376371
O O6 0.946279 0.386428 0.227340
O O7 0.000000 0.500000 0.000000
O O8 0.939429 0.153559 0.722783
O O9 0.908706 0.102556 0.553925
O O10 0.105685 0.049316 0.414120
O O11 0.500000 0.223231 0.250000
O O12 0.250000 0.250000 0.500000
O O13 0.000000 0.020829 0.250000
#
# Coordination Sequence:
#
# PCOD9291767 Si02
#       6
#     8   8   8   8   8   4
#     4  11  25  47  79 110 152 203 257 321 390 472
#     4  12  29  49  73 112 157 204 256 330 397 470
#     4  10  23  46  75 114 148 201 259 315 384 480
#     4  10  22  42  71 110 144 193 256 317 385 463
#     4  11  23  44  75 109 155 199 255 318 402 465
#     4  12  28  50  80 116 160 204 272 324 398 480
#
# _framework density 23.538712
#
# number of rings (size 3 to 8) (size 9 to 14) (size 15 to 20)
#    0.000    1.091    0.000    5.455    8.909    1.455 
#    4.909    0.000    0.000    0.000    0.000    0.000 
#    0.000    0.000    0.000    0.000    0.000    0.000 
#
# Total GULP energy -122508.800368 kJ/mol
# GULP energy per Si atom -5568.581835 kJ/mol
# Density = 2.348514 g / cm^3
# Si number density = 23.538712 Si / 1000 Ang^3
#
#
#
# Elastic Constant Matrix: (Units=GPa)
#
#
# Indices 1 2 3 4 5 6 
#
# 1 151.4997 41.6046 69.7230 0.0000 -33.8861 0.0000
# 2 41.6046 108.3483 68.0876 0.0000 -16.5311 0.0000
# 3 69.7230 68.0876 188.9335 0.0000 -24.1598 0.0000
# 4 0.0000 0.0000 0.0000 26.0019 0.0000 -2.2021
# 5 -33.8861 -16.5311 -24.1598 0.0000 42.3265 0.0000
# 6 0.0000 0.0000 0.0000 -2.2021 0.0000 35.0906
#
#
#
# Elastic Compliance Matrix: (Units=1/GPa)
#
#
# Indices 1 2 3 4 5 6 
#
# 1 0.009236 -0.001291 -0.002224 0.000000 0.005620 0.000000
# 2 -0.001291 0.012338 -0.003760 0.000000 0.001639 0.000000
# 3 -0.002224 -0.003760 0.007609 0.000000 0.001094 0.000000
# 4 0.000000 0.000000 0.000000 0.038664 0.000000 0.002426
# 5 0.005620 0.001639 0.001094 0.000000 0.029390 0.000000
# 6 0.000000 0.000000 0.000000 0.002426 0.000000 0.028650
#
#
# Mechanical properties :
#
#
# Convention : Reuss Voigt Hill
#
# Bulk Modulus (GPa) = 68.34725 89.73468 79.04096
# Shear Modulus (GPa) = 34.40769 38.64155 36.52462
#
# Velocity S-wave (km/s) = 3.82743 4.05608 3.94341
# Velocity P-wave (km/s) = 6.97362 7.75504 7.37469
#
# Compressibility (1/GPa) = 0.01463117
#
# Stress axis : x y z
#
# Youngs Moduli (GPa) = 108.27102 81.04743 131.42713
#
# Poissons Ratio (x) = 0.10465 0.29235
# Poissons Ratio (y) = 0.13980 0.49423
# Poissons Ratio (z) = 0.24084 0.30478
#
# Static dielectric constant tensor:
#      x y z
#    x 1.954550 0.000000 -0.000640 
#    y 0.000000 2.055040 0.000000 
#    z -0.000640 0.000000 1.872130 
# 
# From -- ./inp_files/107892.got.cif
#   From: 2010.05.17/outbox.cif.g08.bks.cpg/sg15_54_cif.got.tgz:107892.got - 2010.06.03 18:47:42.
