data_PCOD9291706
_publ_section_title
;
Structure prediction by ZEFSAII (Michael W. Deem and Ramdas Pophale) SiO2 
 PCOD9291706
Probable space group: C 2/C
;
_chemical_formula_sum "Si O2"
_cell_formula_units_Z 36
_cell_length_a 22.519703
_cell_length_b 11.015685
_cell_length_c 14.830046
_cell_angle_alpha 90.000000
_cell_angle_beta 156.725438
_cell_angle_gamma 90.000000
_cell_volume 1453.667654
_symmetry_space_group_name_H-M "C 2/C"
_symmetry_group_IT_number 15
_symmetry_cell_setting 'monoclinic'
loop_
_space_group_symop_operation_xyz
x,y,z
-x,y,1/2-z
-x,-y,-z
x,-y,1/2+z
1/2+x,1/2+y,z
1/2-x,1/2+y,1/2-z
1/2-x,1/2-y,-z
1/2+x,1/2-y,1/2+z
loop_
_atom_site_type_symbol
_atom_site_label
_atom_site_fract_x
_atom_site_fract_y
_atom_site_fract_z
Si Si1 0.009176 0.818406 0.565702
Si Si2 0.822356 0.048375 0.362504
Si Si3 0.868213 0.665635 0.216780
Si Si4 0.000000 0.795211 0.250000
Si Si5 0.518221 0.077200 0.668895
O O1 0.121825 0.879327 0.650384
O O2 0.069348 0.713313 0.714615
O O3 0.912790 0.921817 0.480521
O O4 0.899888 0.737692 0.351120
O O5 0.878131 0.111935 0.534014
O O6 0.643246 0.040869 0.100689
O O7 0.004143 0.700176 0.338598
O O8 0.863607 0.521887 0.202419
O O9 0.750000 0.750000 0.000000
O O10 0.500000 0.069740 0.750000
#
# Coordination Sequence:
#
# PCOD9291706 Si02
#       5
#     8   8   8   4   8
#     4  10  24  42  65 100 137 181 224 287 339 400
#     4  10  24  45  67  99 142 178 231 279 346 405
#     4  11  22  42  67  99 132 178 233 280 339 407
#     4  10  22  42  70  92 134 186 220 280 340 402
#     4  12  25  41  71 101 135 184 228 284 338 412
#
# _framework density 24.764945000000001
#
# number of rings (size 3 to 8) (size 9 to 14) (size 15 to 20)
#    0.000    1.333    1.111    3.333    7.778    0.889 
#    0.000    0.000    0.000    0.000    0.000    0.000 
#    0.000    0.000    0.000    0.000    0.000    0.000 
#
# Total GULP energy -100333.392646 kJ/mol
# GULP energy per Si atom -5574.077369 kJ/mol
# Density = 2.470858 g / cm^3
# Si number density = 24.764945 Si / 1000 Ang^3
#
#
#
# Elastic Constant Matrix: (Units=GPa)
#
#
# Indices 1 2 3 4 5 6 
#
# 1 25.5192 30.8507 11.3426 0.0000 -7.8323 0.0000
# 2 30.8507 191.4931 19.4436 0.0000 9.5638 0.0000
# 3 11.3426 19.4436 65.2147 0.0000 -12.9691 0.0000
# 4 0.0000 0.0000 0.0000 17.6257 0.0000 -8.5651
# 5 -7.8323 9.5638 -12.9691 0.0000 34.8985 0.0000
# 6 0.0000 0.0000 0.0000 -8.5651 0.0000 21.2866
#
#
#
# Elastic Compliance Matrix: (Units=1/GPa)
#
#
# Indices 1 2 3 4 5 6 
#
# 1 0.056631 -0.009365 -0.004340 0.000000 0.013663 0.000000
# 2 -0.009365 0.007101 -0.001396 0.000000 -0.004567 0.000000
# 3 -0.004340 -0.001396 0.017695 0.000000 0.005985 0.000000
# 4 0.000000 0.000000 0.000000 0.070525 0.000000 0.028377
# 5 0.013663 -0.004567 0.005985 0.000000 0.035197 0.000000
# 6 0.000000 0.000000 0.000000 0.028377 0.000000 0.058396
#
#
# Mechanical properties :
#
#
# Convention : Reuss Voigt Hill
#
# Bulk Modulus (GPa) = 19.52242 45.05565 32.28904
# Shear Modulus (GPa) = 17.07518 29.46816 23.27167
#
# Velocity S-wave (km/s) = 2.62866 3.45326 3.06878
# Velocity P-wave (km/s) = 4.13683 5.84233 5.06192
#
# Compressibility (1/GPa) = 0.05122315
#
# Stress axis : x y z
#
# Youngs Moduli (GPa) = 17.65826 140.82960 56.51213
#
# Poissons Ratio (x) = 1.31890 0.24527
# Poissons Ratio (y) = 0.16537 0.07891
# Poissons Ratio (z) = 0.07664 0.19665
#
# Static dielectric constant tensor:
#      x y z
#    x 2.014620 0.000000 0.027880 
#    y 0.000000 2.005770 0.000000 
#    z 0.027880 0.000000 2.061910 
# 
# From -- ./inp_files/224943.got.cif
#   From: 2010.05.17/outbox.cif.g08.bks.cpg/sg15_113_cif.got.tgz:224943.got - 2010.06.03 18:47:42.
