data_PCOD9291670
_publ_section_title
;
Structure prediction by ZEFSAII (Michael W. Deem and Ramdas Pophale) SiO2 
 PCOD9291670
Probable space group: C 2/C
;
_chemical_formula_sum "Si O2"
_cell_formula_units_Z 44
_cell_length_a 9.443035
_cell_length_b 18.060250
_cell_length_c 13.393843
_cell_angle_alpha 90.000000
_cell_angle_beta 120.808866
_cell_angle_gamma 90.000000
_cell_volume 1961.884251
_symmetry_space_group_name_H-M "C 2/C"
_symmetry_group_IT_number 15
_symmetry_cell_setting 'monoclinic'
loop_
_space_group_symop_operation_xyz
x,y,z
-x,y,1/2-z
-x,-y,-z
x,-y,1/2+z
1/2+x,1/2+y,z
1/2-x,1/2+y,1/2-z
1/2-x,1/2-y,-z
1/2+x,1/2-y,1/2+z
loop_
_atom_site_type_symbol
_atom_site_label
_atom_site_fract_x
_atom_site_fract_y
_atom_site_fract_z
Si Si1 0.754806 0.154126 0.149282
Si Si2 0.837964 0.048463 0.499686
Si Si3 0.346852 0.611989 0.964292
Si Si4 0.500000 0.478186 0.750000
Si Si5 0.868228 0.682203 0.003401
Si Si6 0.347360 0.194123 0.760060
O O1 0.844598 0.218311 0.242158
O O2 0.840449 0.075776 0.208456
O O3 0.791001 0.155794 0.042651
O O4 0.563393 0.175181 0.096892
O O5 0.703142 0.106859 0.478929
O O6 0.961889 0.089126 0.468668
O O7 0.766945 0.970096 0.436718
O O8 0.947305 0.027665 0.636960
O O9 0.307445 0.658172 0.851983
O O10 0.854985 0.679535 0.878891
O O11 0.750000 0.750000 0.000000
O O12 0.500000 0.163901 0.750000
#
# Coordination Sequence:
#
# PCOD9291670 Si02
#       6
#     8   8   8   4   8   8
#     4  11  24  43  69 102 140 183 236 286 350 419
#     4  10  23  43  68 100 144 181 231 291 363 413
#     4  10  22  42  70  98 136 187 230 288 347 422
#     4  10  22  42  70 100 140 192 232 292 352 426
#     4  12  28  46  70 106 147 183 234 302 357 416
#     4  12  24  42  71 101 133 187 237 284 344 427
#
# _framework density 22.427419
#
# number of rings (size 3 to 8) (size 9 to 14) (size 15 to 20)
#    0.000    1.091    2.727    2.727    2.545    6.545 
#    3.273    0.000    0.000    0.000    0.000    0.000 
#    0.000    0.000    0.000    0.000    0.000    0.000 
#
# Total GULP energy -122838.281468 kJ/mol
# GULP energy per Si atom -5583.558249 kJ/mol
# Density = 2.237637 g / cm^3
# Si number density = 22.427419 Si / 1000 Ang^3
#
#
#
# Elastic Constant Matrix: (Units=GPa)
#
#
# Indices 1 2 3 4 5 6 
#
# 1 119.6062 39.9782 19.6423 0.0000 2.8409 0.0000
# 2 39.9782 86.5402 -4.8366 0.0000 1.5892 0.0000
# 3 19.6423 -4.8366 45.0906 0.0000 4.2289 0.0000
# 4 0.0000 0.0000 0.0000 40.4171 0.0000 -11.8638
# 5 2.8409 1.5892 4.2289 0.0000 28.5670 0.0000
# 6 0.0000 0.0000 0.0000 -11.8638 0.0000 90.5314
#
#
#
# Elastic Compliance Matrix: (Units=1/GPa)
#
#
# Indices 1 2 3 4 5 6 
#
# 1 0.011055 -0.005408 -0.005396 0.000000 0.000000 0.000000
# 2 -0.005408 0.014291 0.003968 0.000000 -0.000845 0.000000
# 3 -0.005396 0.003968 0.025275 0.000000 -0.003426 0.000000
# 4 0.000000 0.000000 0.000000 0.025732 0.000000 0.003372
# 5 0.000000 -0.000845 -0.003426 0.000000 0.035560 0.000000
# 6 0.000000 0.000000 0.000000 0.003372 0.000000 0.011488
#
#
# Mechanical properties :
#
#
# Convention : Reuss Voigt Hill
#
# Bulk Modulus (GPa) = 27.06455 40.08943 33.57699
# Shear Modulus (GPa) = 33.46987 44.99998 39.23492
#
# Velocity S-wave (km/s) = 3.86730 4.48422 4.18714
# Velocity P-wave (km/s) = 5.65996 6.68768 6.19517
#
# Compressibility (1/GPa) = 0.03694870
#
# Stress axis : x y z
#
# Youngs Moduli (GPa) = 90.45988 69.97374 39.56475
#
# Poissons Ratio (x) = 0.37844 0.21348
# Poissons Ratio (y) = 0.48924 -0.15700
# Poissons Ratio (z) = 0.48810 -0.27766
#
# Static dielectric constant tensor:
#      x y z
#    x 1.905540 0.000000 0.008760 
#    y 0.000000 1.823470 0.000000 
#    z 0.008760 0.000000 1.841210 
# 
# From -- ./inp_files/134937.got.cif
#   From: 2010.05.17/outbox.cif.g08.bks.cpg/sg15_68_cif.got.tgz:134937.got - 2010.06.03 18:47:42.
