data_PCOD9291917
_publ_section_title
;
Structure prediction by ZEFSAII (Michael W. Deem and Ramdas Pophale) SiO2 
 PCOD9291917
Probable space group: C 2/C
;
_chemical_formula_sum "Si O2"
_cell_formula_units_Z 32
_cell_length_a 5.285107
_cell_length_b 32.860650
_cell_length_c 7.934673
_cell_angle_alpha 90.000000
_cell_angle_beta 70.187365
_cell_angle_gamma 90.000000
_cell_volume 1296.459838
_symmetry_space_group_name_H-M "C 2/C"
_symmetry_group_IT_number 15
_symmetry_cell_setting 'monoclinic'
loop_
_space_group_symop_operation_xyz
x,y,z
-x,y,1/2-z
-x,-y,-z
x,-y,1/2+z
1/2+x,1/2+y,z
1/2-x,1/2+y,1/2-z
1/2-x,1/2-y,-z
1/2+x,1/2-y,1/2+z
loop_
_atom_site_type_symbol
_atom_site_label
_atom_site_fract_x
_atom_site_fract_y
_atom_site_fract_z
Si Si1 0.010467 0.202569 0.544224
Si Si2 0.500000 0.237491 0.750000
Si Si3 0.649412 0.388989 0.035589
Si Si4 0.211166 0.562908 0.435602
Si Si5 0.000000 0.500663 0.250000
O O1 0.688087 0.207726 0.596137
O O2 0.112316 0.232297 0.372531
O O3 0.000000 0.210537 0.750000
O O4 0.143984 0.158877 0.496577
O O5 0.500000 0.394360 0.250000
O O6 0.457720 0.410099 0.941623
O O7 0.945851 0.408351 0.976375
O O8 0.147801 0.529769 0.593073
O O9 0.213624 0.531847 0.279198
#
# Coordination Sequence:
#
# PCOD9291917 Si02
#       5
#     8   4   8   8   4
#     4  10  23  39  68  90 133 168 217 267 327 386
#     4  10  22  43  62 100 124 170 220 264 326 393
#     4  11  23  41  67  92 131 168 214 258 329 382
#     4  11  24  42  63  95 124 171 212 265 318 388
#     4  10  24  41  66  90 130 164 216 266 320 375
#
# _framework density 24.682600999999998
#
# number of rings (size 3 to 8) (size 9 to 14) (size 15 to 20)
#    0.000    1.500    2.500    0.750    7.000    9.000 
#    0.000    0.000    0.000    0.000    0.000    0.000 
#    0.000    0.000    0.000    0.000    0.000    0.000 
#
# Total GULP energy -89230.731305 kJ/mol
# GULP energy per Si atom -5576.920707 kJ/mol
# Density = 2.462642 g / cm^3
# Si number density = 24.682601 Si / 1000 Ang^3
#
#
#
# Elastic Constant Matrix: (Units=GPa)
#
#
# Indices 1 2 3 4 5 6 
#
# 1 120.5915 74.5357 31.7644 0.0000 7.9755 0.0000
# 2 74.5357 151.4552 54.7446 0.0000 -6.1532 0.0000
# 3 31.7644 54.7446 70.7352 0.0000 22.9485 0.0000
# 4 0.0000 0.0000 0.0000 37.7639 0.0000 56.1292
# 5 7.9755 -6.1532 22.9485 0.0000 43.6613 0.0000
# 6 0.0000 0.0000 0.0000 56.1292 0.0000 -137.9380
#
#
#
# Elastic Compliance Matrix: (Units=1/GPa)
#
#
# Indices 1 2 3 4 5 6 
#
# 1 0.012337 -0.006402 0.000529 0.000000 -0.003434 0.000000
# 2 -0.006402 0.014041 -0.010866 0.000000 0.008860 0.000000
# 3 0.000529 -0.010866 0.027532 0.000000 -0.016099 0.000000
# 4 0.000000 0.000000 0.000000 0.016501 0.000000 0.006714
# 5 -0.003434 0.008860 -0.016099 0.000000 0.033241 0.000000
# 6 0.000000 0.000000 0.000000 0.006714 0.000000 -0.004517
#
#
# Mechanical properties :
#
#
# Convention : Reuss Voigt Hill
#
# Bulk Modulus (GPa) = 48.94379 73.87458 61.40918
# Shear Modulus (GPa) = 35.86161 0.81326 18.33743
#
# Velocity S-wave (km/s) = 3.81584 0.57463 2.72863
# Velocity P-wave (km/s) = 6.26790 5.51680 5.90430
#
# Compressibility (1/GPa) = 0.02043160
#
# Stress axis : x y z
#
# Youngs Moduli (GPa) = 81.05430 71.22049 36.32072
#
# Poissons Ratio (x) = 0.45597 -0.01920
# Poissons Ratio (y) = 0.51893 0.39466
# Poissons Ratio (z) = -0.04285 0.77389
#
# Static dielectric constant tensor:
#      x y z
#    x 2.368690 0.000000 -0.022300 
#    y 0.000000 1.863670 0.000000 
#    z -0.022300 0.000000 2.107210 
# 
# From -- ./inp_files/20157.got.cif
#   From: 2010.05.17/outbox.cif.g08.bks.cpg/sg15_11_cif.got.tgz:20157.got - 2010.06.03 18:47:42.
