data_PCOD9291799
_publ_section_title
;
Structure prediction by ZEFSAII (Michael W. Deem and Ramdas Pophale) SiO2 
 PCOD9291799
Probable space group: C 2/C
;
_chemical_formula_sum "Si O2"
_cell_formula_units_Z 36
_cell_length_a 18.388304
_cell_length_b 7.272822
_cell_length_c 14.362941
_cell_angle_alpha 90.000000
_cell_angle_beta 61.422967
_cell_angle_gamma 90.000000
_cell_volume 1686.820905
_symmetry_space_group_name_H-M "C 2/C"
_symmetry_group_IT_number 15
_symmetry_cell_setting 'monoclinic'
loop_
_space_group_symop_operation_xyz
x,y,z
-x,y,1/2-z
-x,-y,-z
x,-y,1/2+z
1/2+x,1/2+y,z
1/2-x,1/2+y,1/2-z
1/2-x,1/2-y,-z
1/2+x,1/2-y,1/2+z
loop_
_atom_site_type_symbol
_atom_site_label
_atom_site_fract_x
_atom_site_fract_y
_atom_site_fract_z
Si Si1 0.679665 0.884554 0.090608
Si Si2 0.930928 0.098728 0.101466
Si Si3 0.324309 0.907101 0.085425
Si Si4 0.787348 0.197686 0.695361
Si Si5 0.000000 0.764401 0.750000
O O1 0.711158 0.869198 0.177044
O O2 0.581812 0.834820 0.156348
O O3 0.750000 0.750000 0.000000
O O4 0.682741 0.059979 0.020414
O O5 0.902815 0.289035 0.070371
O O6 0.962389 0.125989 0.186559
O O7 0.854523 0.960220 0.148501
O O8 0.000000 0.000000 0.000000
O O9 0.321328 0.110512 0.134300
O O10 0.246743 0.800970 0.178886
#
# Coordination Sequence:
#
# PCOD9291799 Si02
#       5
#     8   8   8   8   4
#     4  10  22  42  72 102 143 190 236 297 369 429
#     4  12  26  45  70 103 143 189 245 300 362 434
#     4  11  22  44  71 101 140 188 235 292 366 430
#     4  11  22  45  69 101 143 186 237 296 358 438
#     4  12  24  48  70 102 152 186 236 318 364 416
#
# _framework density 21.341922
#
# number of rings (size 3 to 8) (size 9 to 14) (size 15 to 20)
#    0.000    0.889    4.444    4.000    0.000    4.444 
#    4.000    1.111    0.000    0.000    0.000    0.000 
#    0.000    0.000    0.000    0.000    0.000    0.000 
#
# Total GULP energy -100389.368803 kJ/mol
# GULP energy per Si atom -5577.187156 kJ/mol
# Density = 2.129335 g / cm^3
# Si number density = 21.341922 Si / 1000 Ang^3
#
#
#
# Elastic Constant Matrix: (Units=GPa)
#
#
# Indices 1 2 3 4 5 6 
#
# 1 108.9903 59.6861 22.9115 0.0000 -16.8015 0.0000
# 2 59.6861 123.8741 35.5912 0.0000 5.5339 0.0001
# 3 22.9115 35.5912 107.7617 0.0000 -12.2666 0.0000
# 4 0.0000 0.0000 0.0000 42.2286 0.0000 7.0794
# 5 -16.8015 5.5339 -12.2666 0.0000 41.5847 0.0000
# 6 0.0000 0.0001 0.0000 7.0794 0.0000 13.9698
#
#
#
# Elastic Compliance Matrix: (Units=1/GPa)
#
#
# Indices 1 2 3 4 5 6 
#
# 1 0.014073 -0.007112 0.000116 0.000000 0.006667 0.000000
# 2 -0.007112 0.012699 -0.003313 0.000000 -0.005540 0.000000
# 3 0.000116 -0.003313 0.010766 0.000000 0.003663 0.000000
# 4 0.000000 0.000000 0.000000 0.025879 0.000000 -0.013115
# 5 0.006667 -0.005540 0.003663 0.000000 0.028559 0.000000
# 6 0.000000 0.000000 0.000000 -0.013115 0.000000 0.078229
#
#
# Mechanical properties :
#
#
# Convention : Reuss Voigt Hill
#
# Bulk Modulus (GPa) = 59.10089 64.11152 61.60620
# Shear Modulus (GPa) = 25.45005 34.38577 29.91791
#
# Velocity S-wave (km/s) = 3.45699 4.01831 3.74817
# Velocity P-wave (km/s) = 6.60961 7.18571 6.90367
#
# Compressibility (1/GPa) = 0.01692022
#
# Stress axis : x y z
#
# Youngs Moduli (GPa) = 71.05722 78.74800 92.88269
#
# Poissons Ratio (x) = 0.56005 -0.01074
# Poissons Ratio (y) = 0.50535 0.30769
# Poissons Ratio (z) = -0.00822 0.26087
#
# Static dielectric constant tensor:
#      x y z
#    x 1.763510 0.000000 -0.014960 
#    y 0.000000 1.813010 0.000000 
#    z -0.014960 0.000000 1.832440 
# 
# From -- ./inp_files/158675.got.cif
#   From: 2010.05.17/outbox.cif.g08.bks.cpg/sg15_80_cif.got.tgz:158675.got - 2010.06.03 18:47:42.
