data_PCOD9291445
_publ_section_title
;
Structure prediction by ZEFSAII (Michael W. Deem and Ramdas Pophale) SiO2 
 PCOD9291445
Probable space group: C 2/C
;
_chemical_formula_sum "Si O2"
_cell_formula_units_Z 48
_cell_length_a 7.914024
_cell_length_b 25.589443
_cell_length_c 13.622898
_cell_angle_alpha 90.000000
_cell_angle_beta 51.184842
_cell_angle_gamma 90.000000
_cell_volume 2149.617209
_symmetry_space_group_name_H-M "C 2/C"
_symmetry_group_IT_number 15
_symmetry_cell_setting 'monoclinic'
loop_
_space_group_symop_operation_xyz
x,y,z
-x,y,1/2-z
-x,-y,-z
x,-y,1/2+z
1/2+x,1/2+y,z
1/2-x,1/2+y,1/2-z
1/2-x,1/2-y,-z
1/2+x,1/2-y,1/2+z
loop_
_atom_site_type_symbol
_atom_site_label
_atom_site_fract_x
_atom_site_fract_y
_atom_site_fract_z
Si Si1 0.264808 0.389062 0.796136
Si Si2 0.595816 0.943250 0.484939
Si Si3 0.500000 0.611272 0.750000
Si Si4 0.429490 0.340824 0.065343
Si Si5 0.234545 0.714393 0.190140
Si Si6 0.500000 0.217121 0.750000
Si Si7 0.618569 0.553412 0.428622
O O1 0.500000 0.374979 0.750000
O O2 0.181548 0.340230 0.764455
O O3 0.295301 0.439176 0.712985
O O4 0.101989 0.402985 0.941904
O O5 0.693356 0.940496 0.559446
O O6 0.790089 0.925169 0.344256
O O7 0.500000 0.000000 0.500000
O O8 0.534590 0.645877 0.833748
O O9 0.192708 0.317455 0.134598
O O10 0.613787 0.301968 0.956514
O O11 0.463490 0.396609 0.000333
O O12 0.379081 0.748663 0.211279
O O13 0.000000 0.737879 0.250000
O O14 0.500000 0.500000 0.500000
#
# Coordination Sequence:
#
# PCOD9291445 Si02
#       7
#     8   8   4   8   8   4   8
#     4  11  22  41  68 100 135 181 240 295 350 432
#     4  11  24  39  67  99 140 184 236 291 359 429
#     4  10  24  46  65 100 146 187 228 298 368 414
#     4  10  25  46  69 104 147 183 241 297 359 433
#     4  11  24  48  74 104 139 189 244 297 361 427
#     4  12  26  46  73 112 144 185 238 298 368 428
#     4  10  22  42  67  97 137 184 233 292 358 423
#
# _framework density 22.329557999999999
#
# number of rings (size 3 to 8) (size 9 to 14) (size 15 to 20)
#    0.000    1.333    0.833    5.000    7.000    4.667 
#    6.000    0.000    0.000    0.000    0.000    0.000 
#    0.000    0.000    0.000    0.000    0.000    0.000 
#
# Total GULP energy -134279.546823 kJ/mol
# GULP energy per Si atom -5594.981118 kJ/mol
# Density = 2.227873 g / cm^3
# Si number density = 22.329558 Si / 1000 Ang^3
#
#
#
# Elastic Constant Matrix: (Units=GPa)
#
#
# Indices 1 2 3 4 5 6 
#
# 1 129.5545 47.8830 53.8067 0.0000 -20.3948 0.0000
# 2 47.8830 103.3057 58.4362 0.0000 -20.6536 0.0000
# 3 53.8067 58.4362 158.0425 0.0000 -29.9081 0.0000
# 4 0.0000 0.0000 0.0000 16.5972 0.0000 -8.9129
# 5 -20.3948 -20.6536 -29.9081 0.0000 44.4150 0.0000
# 6 0.0000 0.0000 0.0000 -8.9129 0.0000 33.5347
#
#
#
# Elastic Compliance Matrix: (Units=1/GPa)
#
#
# Indices 1 2 3 4 5 6 
#
# 1 0.009963 -0.003198 -0.001863 0.000000 0.001834 0.000000
# 2 -0.003198 0.013633 -0.003473 0.000000 0.002533 0.000000
# 3 -0.001863 -0.003473 0.008914 0.000000 0.003532 0.000000
# 4 0.000000 0.000000 0.000000 0.070282 0.000000 0.018680
# 5 0.001834 0.002533 0.003532 0.000000 0.026913 0.000000
# 6 0.000000 0.000000 0.000000 0.018680 0.000000 0.034785
#
#
# Mechanical properties :
#
#
# Convention : Reuss Voigt Hill
#
# Bulk Modulus (GPa) = 64.75123 79.01715 71.88419
# Shear Modulus (GPa) = 26.78037 34.29450 30.53744
#
# Velocity S-wave (km/s) = 3.46688 3.92322 3.70209
# Velocity P-wave (km/s) = 6.71466 7.48237 7.10889
#
# Compressibility (1/GPa) = 0.01544372
#
# Stress axis : x y z
#
# Youngs Moduli (GPa) = 100.37304 73.35170 112.18197
#
# Poissons Ratio (x) = 0.23455 0.20895
# Poissons Ratio (y) = 0.32096 0.38959
# Poissons Ratio (z) = 0.18695 0.25474
#
# Static dielectric constant tensor:
#      x y z
#    x 1.873600 0.000000 -0.009920 
#    y 0.000000 1.821000 0.000000 
#    z -0.009920 0.000000 1.894550 
# 
# From -- ./inp_files/138971.got.cif
#   From: 2010.05.17/outbox.cif.g08.bks.cpg/sg15_70_cif.got.tgz:138971.got - 2010.06.03 18:47:42.
