data_PCOD9291928
_publ_section_title
;
Structure prediction by ZEFSAII (Michael W. Deem and Ramdas Pophale) SiO2 
 PCOD9291928
Probable space group: C 2/C
;
_chemical_formula_sum "Si O2"
_cell_formula_units_Z 64
_cell_length_a 14.888462
_cell_length_b 25.419201
_cell_length_c 9.621295
_cell_angle_alpha 90.000000
_cell_angle_beta 113.439780
_cell_angle_gamma 90.000000
_cell_volume 3340.728932
_symmetry_space_group_name_H-M "C 2/C"
_symmetry_group_IT_number 15
_symmetry_cell_setting 'monoclinic'
loop_
_space_group_symop_operation_xyz
x,y,z
-x,y,1/2-z
-x,-y,-z
x,-y,1/2+z
1/2+x,1/2+y,z
1/2-x,1/2+y,1/2-z
1/2-x,1/2-y,-z
1/2+x,1/2-y,1/2+z
loop_
_atom_site_type_symbol
_atom_site_label
_atom_site_fract_x
_atom_site_fract_y
_atom_site_fract_z
Si Si1 0.018947 0.281418 0.552448
Si Si2 0.264900 0.002497 0.145157
Si Si3 0.391834 0.987050 0.977279
Si Si4 0.009391 0.166229 0.423033
Si Si5 0.410980 0.874632 0.096468
Si Si6 0.328017 0.792652 0.608342
Si Si7 0.703950 0.391195 0.003467
Si Si8 0.692153 0.383185 0.658981
O O1 0.003928 0.225455 0.472337
O O2 0.059242 0.323424 0.468212
O O3 0.103267 0.274040 0.720940
O O4 0.914693 0.302029 0.548635
O O5 0.206543 0.952876 0.046641
O O6 0.308809 0.991425 0.323721
O O7 0.209654 0.057590 0.118038
O O8 0.361447 0.007522 0.109128
O O9 0.390068 0.923711 0.982343
O O10 0.500000 0.000000 0.000000
O O11 0.112784 0.138292 0.514686
O O12 0.000000 0.165952 0.250000
O O13 0.918591 0.135523 0.434003
O O14 0.500000 0.890332 0.250000
O O15 0.308891 0.868042 0.114416
O O16 0.250000 0.750000 0.500000
O O17 0.267192 0.842853 0.629728
O O18 0.700732 0.382980 0.833681
#
# Coordination Sequence:
#
# PCOD9291928 Si02
#       8
#     8   8   8   8   8   8   8   8
#     4  11  23  40  63  99 125 167 218 260 323 391
#     4  11  21  40  65  89 130 172 219 271 328 388
#     4  11  22  38  58  94 131 171 216 269 329 393
#     4  10  23  42  69  89 127 170 217 272 328 378
#     4  11  22  39  62  94 131 164 215 259 326 399
#     4  11  23  42  65  89 134 170 209 266 321 390
#     4  10  22  43  62  95 128 169 218 273 321 391
#     4  11  21  45  65  91 128 174 214 270 334 380
#
# _framework density 19.157495000000001
#
# number of rings (size 3 to 8) (size 9 to 14) (size 15 to 20)
#    0.000    1.250    5.000    2.250    1.750    2.000 
#    2.250    0.000    0.000    0.000    0.000    0.000 
#    0.000    0.000    0.000    0.000    0.000    0.000 
#
# Total GULP energy -178470.381600 kJ/mol
# GULP energy per Si atom -5577.199425 kJ/mol
# Density = 1.911389 g / cm^3
# Si number density = 19.157495 Si / 1000 Ang^3
#
#
#
# Elastic Constant Matrix: (Units=GPa)
#
#
# Indices 1 2 3 4 5 6 
#
# 1 149.3165 61.3404 16.4904 0.0000 16.8574 0.0000
# 2 61.3404 96.0322 15.5632 0.0000 -3.6631 0.0000
# 3 16.4904 15.5632 33.2001 0.0000 6.7693 0.0000
# 4 0.0000 0.0000 0.0000 33.0590 0.0000 0.4051
# 5 16.8574 -3.6631 6.7693 0.0000 21.1856 0.0000
# 6 0.0000 0.0000 0.0000 0.4051 0.0000 30.6212
#
#
#
# Elastic Compliance Matrix: (Units=1/GPa)
#
#
# Indices 1 2 3 4 5 6 
#
# 1 0.010796 -0.007283 0.000064 0.000000 -0.009870 0.000000
# 2 -0.007283 0.016490 -0.006285 0.000000 0.010655 0.000000
# 3 0.000064 -0.006285 0.035585 0.000000 -0.012508 0.000000
# 4 0.000000 0.000000 0.000000 0.030254 0.000000 -0.000400
# 5 -0.009870 0.010655 -0.012508 0.000000 0.060895 0.000000
# 6 0.000000 0.000000 0.000000 -0.000400 0.000000 0.032662
#
#
# Mechanical properties :
#
#
# Convention : Reuss Voigt Hill
#
# Bulk Modulus (GPa) = 27.88342 51.70410 39.79376
# Shear Modulus (GPa) = 22.15867 29.31681 25.73774
#
# Velocity S-wave (km/s) = 3.40466 3.91616 3.66933
# Velocity P-wave (km/s) = 5.48106 6.89173 6.22647
#
# Compressibility (1/GPa) = 0.03586360
#
# Stress axis : x y z
#
# Youngs Moduli (GPa) = 92.62342 60.64210 28.10169
#
# Poissons Ratio (x) = 0.44166 -0.00180
# Poissons Ratio (y) = 0.67458 0.17662
# Poissons Ratio (z) = -0.00593 0.38114
#
# Static dielectric constant tensor:
#      x y z
#    x 1.610750 0.000000 0.073380 
#    y 0.000000 1.649950 0.000000 
#    z 0.073380 0.000000 1.637520 
# 
# From -- ./inp_files/43578.got.cif
#   From: 2010.05.17/outbox.cif.g08.bks.cpg/sg15_22_cif.got.tgz:43578.got - 2010.06.03 18:47:42.
