data_PCOD9291646
_publ_section_title
;
Structure prediction by ZEFSAII (Michael W. Deem and Ramdas Pophale) SiO2 
 PCOD9291646
Probable space group: C 2/C
;
_chemical_formula_sum "Si O2"
_cell_formula_units_Z 60
_cell_length_a 7.838201
_cell_length_b 32.770121
_cell_length_c 11.932637
_cell_angle_alpha 90.000000
_cell_angle_beta 80.278866
_cell_angle_gamma 90.000000
_cell_volume 3020.993165
_symmetry_space_group_name_H-M "C 2/C"
_symmetry_group_IT_number 15
_symmetry_cell_setting 'monoclinic'
loop_
_space_group_symop_operation_xyz
x,y,z
-x,y,1/2-z
-x,-y,-z
x,-y,1/2+z
1/2+x,1/2+y,z
1/2-x,1/2+y,1/2-z
1/2-x,1/2-y,-z
1/2+x,1/2-y,1/2+z
loop_
_atom_site_type_symbol
_atom_site_label
_atom_site_fract_x
_atom_site_fract_y
_atom_site_fract_z
Si Si1 0.500000 0.899441 0.750000
Si Si2 0.130768 0.525462 0.642300
Si Si3 0.207397 0.183428 0.750747
Si Si4 0.202769 0.091808 0.706245
Si Si5 0.313114 0.703990 0.493667
Si Si6 0.865180 0.552435 0.478982
Si Si7 0.818393 0.237134 0.113075
Si Si8 0.788476 0.835361 0.773387
O O1 0.544764 0.923541 0.631642
O O2 0.673472 0.872972 0.749350
O O3 0.222101 0.561245 0.705265
O O4 0.222643 0.487107 0.571578
O O5 0.000000 0.507307 0.750000
O O6 0.016287 0.542137 0.552285
O O7 0.267604 0.138590 0.706035
O O8 0.314758 0.220604 0.683551
O O9 0.000000 0.189533 0.750000
O O10 0.219404 0.185401 0.882654
O O11 0.235687 0.075706 0.576733
O O12 0.000000 0.093935 0.750000
O O13 0.250000 0.750000 0.500000
O O14 0.510408 0.712072 0.437875
O O15 0.235520 0.676642 0.405035
O O16 0.732822 0.203557 0.203399
O O17 0.750000 0.250000 0.000000
O O18 0.000000 0.841833 0.750000
#
# Coordination Sequence:
#
# PCOD9291646 Si02
#       8
#     4   8   8   8   8   8   8   8
#     4  12  26  42  72  98 134 178 224 270 350 394
#     4   9  19  44  69  93 133 165 219 273 327 409
#     4  11  23  40  63  90 126 171 219 274 331 388
#     4  10  24  41  65 102 135 171 218 278 342 400
#     4  11  23  40  59  85 125 167 225 278 323 385
#     4  10  22  42  69  98 126 175 219 265 338 415
#     4  11  23  40  62  85 123 176 224 267 331 386
#     4  10  26  43  59  96 133 172 224 284 330 395
#
# _framework density 19.861018999999999
#
# number of rings (size 3 to 8) (size 9 to 14) (size 15 to 20)
#    0.000    1.600    3.333    0.000    6.533    1.600 
#    4.800    0.667    0.000    0.000    0.000    0.000 
#    0.000    0.000    0.000    0.000    0.000    0.000 
#
# Total GULP energy -167023.325927 kJ/mol
# GULP energy per Si atom -5567.444198 kJ/mol
# Density = 1.981581 g / cm^3
# Si number density = 19.861019 Si / 1000 Ang^3
#
#
#
# Elastic Constant Matrix: (Units=GPa)
#
#
# Indices 1 2 3 4 5 6 
#
# 1 26.3197 12.0543 16.8895 0.0000 1.6484 0.0000
# 2 12.0543 98.3141 56.7662 0.0000 -11.3407 0.0000
# 3 16.8895 56.7662 181.3024 0.0000 -3.5898 0.0000
# 4 0.0000 0.0000 0.0000 35.5876 0.0000 -22.0714
# 5 1.6484 -11.3407 -3.5898 0.0000 25.4117 0.0000
# 6 0.0000 0.0000 0.0000 -22.0714 0.0000 10.5546
#
#
#
# Elastic Compliance Matrix: (Units=1/GPa)
#
#
# Indices 1 2 3 4 5 6 
#
# 1 0.041942 -0.004152 -0.002705 0.000000 -0.004956 0.000000
# 2 -0.004152 0.013496 -0.003725 0.000000 0.005766 0.000000
# 3 -0.002705 -0.003725 0.006924 0.000000 -0.000509 0.000000
# 4 0.000000 0.000000 0.000000 -0.094633 0.000000 -0.197892
# 5 -0.004956 0.005766 -0.000509 0.000000 0.042175 0.000000
# 6 0.000000 0.000000 0.000000 -0.197892 0.000000 -0.319079
#
#
# Mechanical properties :
#
#
# Convention : Reuss Voigt Hill
#
# Bulk Modulus (GPa) = 24.27294 53.03958 38.65626
# Shear Modulus (GPa) = -18.22977 28.99253 5.38138
#
# Velocity S-wave (km/s) = -3.03292 3.82484 1.64785
# Velocity P-wave (km/s) = 0.12986 6.80215 4.80897
#
# Compressibility (1/GPa) = 0.04119814
#
# Stress axis : x y z
#
# Youngs Moduli (GPa) = 23.84219 74.09374 144.42889
#
# Poissons Ratio (x) = 0.30765 0.39072
# Poissons Ratio (y) = 0.09900 0.53797
# Poissons Ratio (z) = 0.06450 0.27598
#
# Static dielectric constant tensor:
#      x y z
#    x 1.721300 0.000000 0.013120 
#    y 0.000000 1.744850 0.000000 
#    z 0.013120 0.000000 1.685400 
# 
# From -- ./inp_files/81373.got.cif
#   From: 2010.05.17/outbox.cif.g08.bks.cpg/sg15_41_cif.got.tgz:81373.got - 2010.06.03 18:47:42.
