data_PCOD9291939
_publ_section_title
;
Structure prediction by ZEFSAII (Michael W. Deem and Ramdas Pophale) SiO2 
 PCOD9291939
Probable space group: C 2/C
;
_chemical_formula_sum "Si O2"
_cell_formula_units_Z 52
_cell_length_a 18.005740
_cell_length_b 28.275875
_cell_length_c 5.707917
_cell_angle_alpha 90.000000
_cell_angle_beta 124.712473
_cell_angle_gamma 90.000000
_cell_volume 2388.840262
_symmetry_space_group_name_H-M "C 2/C"
_symmetry_group_IT_number 15
_symmetry_cell_setting 'monoclinic'
loop_
_space_group_symop_operation_xyz
x,y,z
-x,y,1/2-z
-x,-y,-z
x,-y,1/2+z
1/2+x,1/2+y,z
1/2-x,1/2+y,1/2-z
1/2-x,1/2-y,-z
1/2+x,1/2-y,1/2+z
loop_
_atom_site_type_symbol
_atom_site_label
_atom_site_fract_x
_atom_site_fract_y
_atom_site_fract_z
Si Si1 0.410756 0.813882 0.246831
Si Si2 0.343443 0.391923 0.672891
Si Si3 0.500000 0.404030 0.250000
Si Si4 0.000000 0.248128 0.750000
Si Si5 0.271724 0.167330 0.165684
Si Si6 0.596265 0.325794 0.109552
Si Si7 0.000000 0.472900 0.750000
Si Si8 0.340251 0.100211 0.905111
O O1 0.500000 0.814294 0.250000
O O2 0.424927 0.781180 0.497447
O O3 0.385718 0.866275 0.290359
O O4 0.329376 0.798562 0.932096
O O5 0.285086 0.366922 0.767539
O O6 0.393950 0.348437 0.629546
O O7 0.263870 0.412018 0.359315
O O8 0.422029 0.424359 0.933216
O O9 0.560075 0.370822 0.191071
O O10 0.964831 0.216356 0.902156
O O11 0.197339 0.188992 0.862807
O O12 0.333963 0.133640 0.120978
O O13 0.908161 0.442023 0.576762
O O14 0.000000 0.500000 0.500000
#
# Coordination Sequence:
#
# PCOD9291939 Si02
#       8
#     8   8   4   4   8   8   4   8
#     4  11  22  36  57  77 107 165 210 256 318 369
#     4   9  18  33  61  85 117 160 201 262 309 368
#     4   9  16  30  53  88 116 150 208 252 318 357
#     4  11  23  34  50  80 116 156 206 274 318 364
#     4   9  19  36  59  77 107 162 206 250 308 369
#     4   9  19  34  50  79 118 151 203 266 313 360
#     4  12  29  44  73 110 138 172 202 252 324 377
#     4  10  22  43  63  87 126 159 209 253 301 393
#
# _framework density 21.767885
#
# number of rings (size 3 to 8) (size 9 to 14) (size 15 to 20)
#    0.000    2.154    0.000    2.769    5.385    4.308 
#    0.000   10.769    0.000    1.846    0.000    1.077 
#    0.000    0.000    0.000    0.000    0.000    0.000 
#
# Total GULP energy -144849.007711 kJ/mol
# GULP energy per Si atom -5571.115681 kJ/mol
# Density = 2.171834 g / cm^3
# Si number density = 21.767885 Si / 1000 Ang^3
#
#
#
# Elastic Constant Matrix: (Units=GPa)
#
#
# Indices 1 2 3 4 5 6 
#
# 1 97.4050 28.3132 29.3185 0.0000 -7.1483 0.0000
# 2 28.3132 48.1472 37.3794 0.0000 6.6468 0.0000
# 3 29.3185 37.3794 159.9731 0.0000 28.2609 0.0000
# 4 0.0000 0.0000 0.0000 9.0368 0.0000 0.6243
# 5 -7.1483 6.6468 28.2609 0.0000 46.6424 0.0000
# 6 0.0000 0.0000 0.0000 0.6243 0.0000 0.2116
#
#
#
# Elastic Compliance Matrix: (Units=1/GPa)
#
#
# Indices 1 2 3 4 5 6 
#
# 1 0.013041 -0.007106 -0.001413 0.000000 0.003867 0.000000
# 2 -0.007106 0.029244 -0.005154 0.000000 -0.002134 0.000000
# 3 -0.001413 -0.005154 0.008537 0.000000 -0.004654 0.000000
# 4 0.000000 0.000000 0.000000 0.138994 0.000000 -0.410142
# 5 0.003867 -0.002134 -0.004654 0.000000 0.025157 0.000000
# 6 0.000000 0.000000 0.000000 -0.410142 0.000000 5.936577
#
#
# Mechanical properties :
#
#
# Convention : Reuss Voigt Hill
#
# Bulk Modulus (GPa) = 42.59616 55.06082 48.82849
# Shear Modulus (GPa) = 0.80818 25.21243 13.01031
#
# Velocity S-wave (km/s) = 0.60998 3.40698 2.44741
# Velocity P-wave (km/s) = 4.48408 6.38953 5.51965
#
# Compressibility (1/GPa) = 0.02347629
#
# Stress axis : x y z
#
# Youngs Moduli (GPa) = 76.68131 34.19487 117.14361
#
# Poissons Ratio (x) = 0.24298 0.16551
# Poissons Ratio (y) = 0.54488 0.60376
# Poissons Ratio (z) = 0.10834 0.17624
#
# Static dielectric constant tensor:
#      x y z
#    x 1.824250 0.000000 0.024990 
#    y 0.000000 1.755690 0.000000 
#    z 0.024990 0.000000 1.970300 
# 
# From -- ./inp_files/11641.got.cif
#   From: 2010.05.17/outbox.cif.g08.bks.cpg/sg15_6_cif.got.tgz:11641.got - 2010.06.03 18:47:42.
