data_PCOD9291769
_publ_section_title
;
Structure prediction by ZEFSAII (Michael W. Deem and Ramdas Pophale) SiO2 
 PCOD9291769
Probable space group: C 2/C
;
_chemical_formula_sum "Si O2"
_cell_formula_units_Z 52
_cell_length_a 11.094122
_cell_length_b 18.032770
_cell_length_c 18.857340
_cell_angle_alpha 90.000000
_cell_angle_beta 148.837692
_cell_angle_gamma 90.000000
_cell_volume 1952.163186
_symmetry_space_group_name_H-M "C 2/C"
_symmetry_group_IT_number 15
_symmetry_cell_setting 'monoclinic'
loop_
_space_group_symop_operation_xyz
x,y,z
-x,y,1/2-z
-x,-y,-z
x,-y,1/2+z
1/2+x,1/2+y,z
1/2-x,1/2+y,1/2-z
1/2-x,1/2-y,-z
1/2+x,1/2-y,1/2+z
loop_
_atom_site_type_symbol
_atom_site_label
_atom_site_fract_x
_atom_site_fract_y
_atom_site_fract_z
Si Si1 0.000000 0.089814 0.750000
Si Si2 0.928798 0.659295 0.046532
Si Si3 0.835283 0.067243 0.897844
Si Si4 0.678599 0.868374 0.468692
Si Si5 0.371926 0.726215 0.303333
Si Si6 0.880201 0.491385 0.348683
Si Si7 0.761460 0.659623 0.110629
O O1 0.800473 0.142460 0.615034
O O2 0.849953 0.035858 0.725970
O O3 0.853939 0.692949 0.084575
O O4 0.152068 0.710792 0.141170
O O5 0.044315 0.576535 0.111951
O O6 0.739048 0.103079 0.920491
O O7 0.666855 0.034589 0.754994
O O8 0.027306 0.122720 0.964796
O O9 0.000000 0.000000 0.000000
O O10 0.468914 0.809298 0.355953
O O11 0.596494 0.936669 0.476669
O O12 0.910058 0.825369 0.609745
O O13 0.308360 0.701850 0.352492
O O14 0.000000 0.613930 0.250000
#
# Coordination Sequence:
#
# PCOD9291769 Si02
#       7
#     4   8   8   8   8   8   8
#     4  12  28  48  64 108 154 216 268 318 404 482
#     4  11  23  45  74 105 150 208 270 323 395 478
#     4  11  20  37  70 111 149 186 245 318 394 457
#     4  10  22  42  71 118 153 191 247 324 410 476
#     4   9  21  43  74 111 153 194 244 328 411 475
#     4  12  25  44  70 104 154 199 261 329 394 478
#     4   9  17  35  67 103 138 181 248 313 383 461
#
# _framework density 26.637115999999999
#
# number of rings (size 3 to 8) (size 9 to 14) (size 15 to 20)
#    0.000    1.538    1.538    4.615    2.154    1.231 
#    4.154    8.462    0.000    0.000    0.000    0.000 
#    0.000    0.000    0.000    0.000    0.000    0.000 
#
# Total GULP energy -145316.791929 kJ/mol
# GULP energy per Si atom -5589.107382 kJ/mol
# Density = 2.657649 g / cm^3
# Si number density = 26.637116 Si / 1000 Ang^3
#
#
#
# Elastic Constant Matrix: (Units=GPa)
#
#
# Indices 1 2 3 4 5 6 
#
# 1 109.3929 25.3908 14.2164 -0.0019 23.3909 0.0006
# 2 25.3908 121.5372 34.2364 -0.0017 21.6517 -0.0009
# 3 14.2164 34.2364 173.2105 0.0096 17.4974 -0.0020
# 4 -0.0019 -0.0017 0.0096 40.2562 0.0019 3.2315
# 5 23.3909 21.6517 17.4974 0.0019 41.9146 0.0001
# 6 0.0006 -0.0009 -0.0020 3.2315 0.0001 22.9480
#
#
#
# Elastic Compliance Matrix: (Units=1/GPa)
#
#
# Indices 1 2 3 4 5 6 
#
# 1 0.010557 -0.001252 -0.000093 0.000001 -0.005206 0.000000
# 2 -0.001252 0.009536 -0.001415 0.000001 -0.003637 0.000000
# 3 -0.000093 -0.001415 0.006245 -0.000002 -0.001824 0.000001
# 4 0.000001 0.000001 -0.000002 0.025125 -0.000001 -0.003538
# 5 -0.005206 -0.003637 -0.001824 -0.000001 0.029403 0.000000
# 6 0.000000 0.000000 0.000001 -0.003538 0.000000 0.044075
#
#
# Mechanical properties :
#
#
# Convention : Reuss Voigt Hill
#
# Bulk Modulus (GPa) = 48.03426 61.31420 54.67423
# Shear Modulus (GPa) = 36.39008 43.04357 39.71682
#
# Velocity S-wave (km/s) = 3.70015 4.02422 3.86558
# Velocity P-wave (km/s) = 6.02717 6.68287 6.36347
#
# Compressibility (1/GPa) = 0.02081847
#
# Stress axis : x y z
#
# Youngs Moduli (GPa) = 94.72204 104.86730 160.13146
#
# Poissons Ratio (x) = 0.13128 0.01492
# Poissons Ratio (y) = 0.11858 0.22654
# Poissons Ratio (z) = 0.00882 0.14836
#
# Static dielectric constant tensor:
#      x y z
#    x 2.046100 0.000000 -0.032270 
#    y 0.000000 1.944570 0.000000 
#    z -0.032270 0.000000 2.068380 
# 
# From -- ./inp_files/240559.got.cif
#   From: 2010.05.17/outbox.cif.g08.bks.cpg/sg15_121_cif.got.tgz:240559.got - 2010.06.03 18:47:42.
