data_PCOD9291364
_publ_section_title
;
Structure prediction by ZEFSAII (Michael W. Deem and Ramdas Pophale) SiO2 
 PCOD9291364
Probable space group: C 2/C
;
_chemical_formula_sum "Si O2"
_cell_formula_units_Z 44
_cell_length_a 23.682328
_cell_length_b 6.314501
_cell_length_c 19.006461
_cell_angle_alpha 90.000000
_cell_angle_beta 136.212925
_cell_angle_gamma 90.000000
_cell_volume 1966.792041
_symmetry_space_group_name_H-M "C 2/C"
_symmetry_group_IT_number 15
_symmetry_cell_setting 'monoclinic'
loop_
_space_group_symop_operation_xyz
x,y,z
-x,y,1/2-z
-x,-y,-z
x,-y,1/2+z
1/2+x,1/2+y,z
1/2-x,1/2+y,1/2-z
1/2-x,1/2-y,-z
1/2+x,1/2-y,1/2+z
loop_
_atom_site_type_symbol
_atom_site_label
_atom_site_fract_x
_atom_site_fract_y
_atom_site_fract_z
Si Si1 0.607476 0.143634 0.933473
Si Si2 0.342832 0.456585 0.406965
Si Si3 0.925953 0.361322 0.464194
Si Si4 0.168150 0.615437 0.225216
Si Si5 0.590245 0.842227 0.804324
Si Si6 0.000000 0.936544 0.750000
O O1 0.530468 0.287957 0.840431
O O2 0.642030 0.007510 0.898513
O O3 0.659703 0.308083 0.026622
O O4 0.587752 0.963386 0.972304
O O5 0.421080 0.611258 0.473067
O O6 0.260695 0.593393 0.333464
O O7 0.343588 0.310776 0.338340
O O8 0.856484 0.413954 0.344164
O O9 0.000000 0.500000 0.500000
O O10 0.111652 0.628707 0.242800
O O11 0.500000 0.904576 0.750000
O O12 0.578580 0.588877 0.806051
#
# Coordination Sequence:
#
# PCOD9291364 Si02
#       6
#     8   8   8   8   8   4
#     4  11  23  41  66  99 141 176 236 283 357 412
#     4  11  25  44  68 104 140 191 228 288 358 422
#     4  11  25  41  71 103 138 180 243 293 341 423
#     4  11  24  45  71  98 148 182 233 290 355 419
#     4  10  23  41  69 102 136 180 232 292 346 410
#     4  10  22  42  66  98 136 176 230 290 352 412
#
# _framework density 22.371455000000001
#
# number of rings (size 3 to 8) (size 9 to 14) (size 15 to 20)
#    0.545    0.727    2.727    2.182    5.091    2.182 
#    0.000    3.636    0.000    0.000    0.000    0.000 
#    0.000    0.000    0.000    0.000    0.000    0.000 
#
# Total GULP energy -122520.404175 kJ/mol
# GULP energy per Si atom -5569.109281 kJ/mol
# Density = 2.232054 g / cm^3
# Si number density = 22.371455 Si / 1000 Ang^3
#
#
#
# Elastic Constant Matrix: (Units=GPa)
#
#
# Indices 1 2 3 4 5 6 
#
# 1 62.1597 0.5451 23.1661 0.0000 -17.0670 0.0000
# 2 0.5451 75.5281 29.0143 0.0000 -12.1233 0.0002
# 3 23.1661 29.0143 96.3989 0.0000 -23.0710 0.0000
# 4 0.0000 0.0000 0.0000 8.8829 0.0000 -4.5090
# 5 -17.0670 -12.1233 -23.0710 0.0000 37.3083 0.0000
# 6 0.0000 0.0002 0.0000 -4.5090 0.0000 6.7909
#
#
#
# Elastic Compliance Matrix: (Units=1/GPa)
#
#
# Indices 1 2 3 4 5 6 
#
# 1 0.019467 0.002451 -0.003631 0.000000 0.007456 0.000000
# 2 0.002451 0.015471 -0.004430 0.000000 0.003410 -0.000001
# 3 -0.003631 -0.004430 0.013894 0.000000 0.005491 0.000000
# 4 0.000000 0.000000 0.000000 0.169809 0.000000 0.112750
# 5 0.007456 0.003410 0.005491 0.000000 0.034718 0.000000
# 6 0.000000 -0.000001 0.000000 0.112750 0.000000 0.222120
#
#
# Mechanical properties :
#
#
# Convention : Reuss Voigt Hill
#
# Bulk Modulus (GPa) = 26.58721 37.72643 32.15682
# Shear Modulus (GPa) = 10.01529 22.68717 16.35123
#
# Velocity S-wave (km/s) = 2.11814 3.18797 2.70644
# Velocity P-wave (km/s) = 4.22993 5.51825 4.91647
#
# Compressibility (1/GPa) = 0.03761208
#
# Stress axis : x y z
#
# Youngs Moduli (GPa) = 51.36975 64.63555 71.97526
#
# Poissons Ratio (x) = -0.15845 0.26138
# Poissons Ratio (y) = -0.12593 0.31883
# Poissons Ratio (z) = 0.18655 0.28632
#
# Static dielectric constant tensor:
#      x y z
#    x 1.817050 0.000000 0.080330 
#    y 0.000000 1.907150 0.000000 
#    z 0.080330 0.000000 1.923630 
# 
# From -- ./inp_files/221392.got.cif
#   From: 2010.05.17/outbox.cif.g08.bks.cpg/sg15_111_cif.got.tgz:221392.got - 2010.06.03 18:47:42.
