data_PCOD9291009
_publ_section_title
;
Structure prediction by ZEFSAII (Michael W. Deem and Ramdas Pophale) SiO2 
 PCOD9291009
Probable space group: C 2/C
;
_chemical_formula_sum "Si O2"
_cell_formula_units_Z 52
_cell_length_a 8.476940
_cell_length_b 28.251304
_cell_length_c 14.583957
_cell_angle_alpha 90.000000
_cell_angle_beta 134.312133
_cell_angle_gamma 90.000000
_cell_volume 2499.135625
_symmetry_space_group_name_H-M "C 2/C"
_symmetry_group_IT_number 15
_symmetry_cell_setting 'monoclinic'
loop_
_space_group_symop_operation_xyz
x,y,z
-x,y,1/2-z
-x,-y,-z
x,-y,1/2+z
1/2+x,1/2+y,z
1/2-x,1/2+y,1/2-z
1/2-x,1/2-y,-z
1/2+x,1/2-y,1/2+z
loop_
_atom_site_type_symbol
_atom_site_label
_atom_site_fract_x
_atom_site_fract_y
_atom_site_fract_z
Si Si1 0.000000 0.738741 0.750000
Si Si2 0.000000 0.254141 0.750000
Si Si3 0.246183 0.481034 0.876197
Si Si4 0.073779 0.182306 0.632617
Si Si5 0.500000 0.601649 0.750000
Si Si6 0.308491 0.588501 0.231653
Si Si7 0.574357 0.688244 0.134716
Si Si8 0.597573 0.949376 0.011261
O O1 0.182912 0.705143 0.778265
O O2 0.933865 0.775502 0.641278
O O3 0.936872 0.220055 0.639016
O O4 0.194272 0.286252 0.791133
O O5 0.267451 0.444249 0.802145
O O6 0.196877 0.455630 0.951260
O O7 0.000000 0.506277 0.750000
O O8 0.500000 0.500000 0.000000
O O9 0.042787 0.134813 0.678756
O O10 0.010933 0.177141 0.501383
O O11 0.286679 0.569172 0.653134
O O12 0.500000 0.565261 0.250000
O O13 0.383078 0.639780 0.294783
O O14 0.096260 0.588694 0.080142
O O15 0.500000 0.000000 0.000000
#
# Coordination Sequence:
#
# PCOD9291009 Si02
#       8
#     4   4   8   8   4   8   8   8
#     4  10  22  42  63 100 136 186 223 278 340 408
#     4   9  22  36  64  94 134 180 218 276 342 403
#     4  10  23  42  68  98 132 179 235 291 357 426
#     4  10  22  42  64  99 137 174 229 274 341 407
#     4  11  26  44  69 102 136 182 219 290 346 411
#     4  11  24  42  66 101 136 178 233 289 342 419
#     4  11  21  39  65  98 134 179 228 280 338 408
#     4  11  26  45  72  97 137 179 231 287 353 428
#
# _framework density 20.807193999999999
#
# number of rings (size 3 to 8) (size 9 to 14) (size 15 to 20)
#    0.000    1.538    0.769    2.769   10.769    1.231 
#    5.538    1.538    0.000    0.000    0.000    0.000 
#    0.000    0.000    0.000    0.000    0.000    0.000 
#
# Total GULP energy -144818.924989 kJ/mol
# GULP energy per Si atom -5569.958653 kJ/mol
# Density = 2.075984 g / cm^3
# Si number density = 20.807194 Si / 1000 Ang^3
#
#
#
# Elastic Constant Matrix: (Units=GPa)
#
#
# Indices 1 2 3 4 5 6 
#
# 1 102.4601 25.8603 10.2616 0.0000 -12.0944 0.0000
# 2 25.8603 86.7609 46.2372 0.0000 -4.3676 0.0000
# 3 10.2616 46.2372 115.7948 0.0000 1.0626 0.0000
# 4 0.0000 0.0000 0.0000 27.5263 0.0000 -0.4740
# 5 -12.0944 -4.3676 1.0626 0.0000 36.7795 0.0000
# 6 0.0000 0.0000 0.0000 -0.4740 0.0000 23.5142
#
#
#
# Elastic Compliance Matrix: (Units=1/GPa)
#
#
# Indices 1 2 3 4 5 6 
#
# 1 0.010929 -0.003258 0.000303 0.000000 0.003198 0.000000
# 2 -0.003258 0.015748 -0.006008 0.000000 0.000972 0.000000
# 3 0.000303 -0.006008 0.011017 0.000000 -0.000932 0.000000
# 4 0.000000 0.000000 0.000000 0.036342 0.000000 0.000733
# 5 0.003198 0.000972 -0.000932 0.000000 0.028383 0.000000
# 6 0.000000 0.000000 0.000000 0.000733 0.000000 0.042542
#
#
# Mechanical properties :
#
#
# Convention : Reuss Voigt Hill
#
# Bulk Modulus (GPa) = 50.58862 52.19266 51.39064
# Shear Modulus (GPa) = 29.50246 32.40779 30.95513
#
# Velocity S-wave (km/s) = 3.76958 3.95083 3.86127
# Velocity P-wave (km/s) = 6.58120 6.77868 6.68067
#
# Compressibility (1/GPa) = 0.01976729
#
# Stress axis : x y z
#
# Youngs Moduli (GPa) = 91.49623 63.49979 90.77003
#
# Poissons Ratio (x) = 0.20689 -0.02751
# Poissons Ratio (y) = 0.29811 0.54539
# Poissons Ratio (z) = -0.02773 0.38153
#
# Static dielectric constant tensor:
#      x y z
#    x 0.715040 0.000000 -3.559230 
#    y 0.000000 1.729350 0.000000 
#    z -3.559230 0.000000 -10.794600 
# 
# From -- ./inp_files/139918.got.cif
#   From: 2010.05.17/outbox.cif.g08.bks.cpg/sg15_70_cif.got.tgz:139918.got - 2010.06.03 18:47:42.
