data_PCOD9291818
_publ_section_title
;
Structure prediction by ZEFSAII (Michael W. Deem and Ramdas Pophale) SiO2 
 PCOD9291818
Probable space group: C 2/C
;
_chemical_formula_sum "Si O2"
_cell_formula_units_Z 36
_cell_length_a 9.934765
_cell_length_b 19.936866
_cell_length_c 9.297844
_cell_angle_alpha 90.000000
_cell_angle_beta 131.049838
_cell_angle_gamma 90.000000
_cell_volume 1388.826298
_symmetry_space_group_name_H-M "C 2/C"
_symmetry_group_IT_number 15
_symmetry_cell_setting 'monoclinic'
loop_
_space_group_symop_operation_xyz
x,y,z
-x,y,1/2-z
-x,-y,-z
x,-y,1/2+z
1/2+x,1/2+y,z
1/2-x,1/2+y,1/2-z
1/2-x,1/2-y,-z
1/2+x,1/2-y,1/2+z
loop_
_atom_site_type_symbol
_atom_site_label
_atom_site_fract_x
_atom_site_fract_y
_atom_site_fract_z
Si Si1 0.843730 0.307203 0.469243
Si Si2 0.191929 0.554403 0.381785
Si Si3 0.740716 0.847789 0.677989
Si Si4 0.375371 0.350498 0.451576
Si Si5 0.500000 0.500000 0.500000
O O1 0.750000 0.250000 0.500000
O O2 0.815012 0.377316 0.535174
O O3 0.057120 0.311271 0.591271
O O4 0.926920 0.179252 0.375619
O O5 0.230015 0.577098 0.242009
O O6 0.357234 0.509563 0.533287
O O7 0.000000 0.520550 0.250000
O O8 0.740869 0.686386 0.747870
O O9 0.771482 0.850453 0.529953
O O10 0.417365 0.423932 0.418731
#
# Coordination Sequence:
#
# PCOD9291818 Si02
#       5
#     8   8   8   8   4
#     4  11  24  44  71 109 144 203 267 313 387 468
#     4   9  21  42  65 105 146 189 249 315 383 455
#     4   9  21  44  66 101 148 189 248 314 390 451
#     4  10  22  42  74 106 152 196 249 321 392 466
#     4  10  22  42  72 110 150 198 258 308 396 476
#
# _framework density 25.921167000000001
#
# number of rings (size 3 to 8) (size 9 to 14) (size 15 to 20)
#    0.000    2.222    0.000    0.667    0.000   13.333 
#   24.000    8.889    9.778    0.000    5.778    0.000 
#    0.000    0.000    0.000    0.000    0.000    0.000 
#
# Total GULP energy -100254.425950 kJ/mol
# GULP energy per Si atom -5569.690331 kJ/mol
# Density = 2.586217 g / cm^3
# Si number density = 25.921167 Si / 1000 Ang^3
#
#
#
# Elastic Constant Matrix: (Units=GPa)
#
#
# Indices 1 2 3 4 5 6 
#
# 1 191.2492 -0.8312 52.2236 0.0000 -3.3886 0.0000
# 2 -0.8312 46.9194 13.3548 0.0000 8.2604 0.0000
# 3 52.2236 13.3548 176.0643 0.0000 -10.5549 0.0000
# 4 0.0000 0.0000 0.0000 -953.7442 0.0000 -751.6502
# 5 -3.3886 8.2604 -10.5549 0.0000 38.1256 0.0000
# 6 0.0000 0.0000 0.0000 -751.6502 0.0000 -541.5986
#
#
#
# Elastic Compliance Matrix: (Units=1/GPa)
#
#
# Indices 1 2 3 4 5 6 
#
# 1 0.005706 0.000617 -0.001746 0.000000 -0.000110 0.000000
# 2 0.000617 0.022941 -0.002255 0.000000 -0.005540 0.000000
# 3 -0.001746 -0.002255 0.006497 0.000000 0.002132 0.000000
# 4 0.000000 0.000000 0.000000 0.011183 0.000000 -0.015520
# 5 -0.000110 -0.005540 0.002132 0.000000 0.028010 0.000000
# 6 0.000000 0.000000 0.000000 -0.015520 0.000000 0.019693
#
#
# Mechanical properties :
#
#
# Convention : Reuss Voigt Hill
#
# Bulk Modulus (GPa) = 35.24077 60.41415 47.82746
# Shear Modulus (GPa) = 45.34891 -268.14439 -111.39774
#
# Velocity S-wave (km/s) = 4.18723 -10.18188 -6.56269
# Velocity P-wave (km/s) = 6.08293 10.71775 6.23971
#
# Compressibility (1/GPa) = 0.02837622
#
# Stress axis : x y z
#
# Youngs Moduli (GPa) = 175.24525 43.58934 153.92835
#
# Poissons Ratio (x) = -0.02691 0.26876
# Poissons Ratio (y) = -0.10820 0.34717
# Poissons Ratio (z) = 0.30598 0.09831
#
# Static dielectric constant tensor:
#      x y z
#    x 2.423430 0.000000 0.399730 
#    y 0.000000 2.342480 0.000000 
#    z 0.399730 0.000000 2.689310 
# 
# From -- ./inp_files/77382.got.cif
#   From: 2010.05.17/outbox.cif.g08.bks.cpg/sg15_39_cif.got.tgz:77382.got - 2010.06.03 18:47:42.
