data_PCOD9291136
_publ_section_title
;
Structure prediction by ZEFSAII (Michael W. Deem and Ramdas Pophale) SiO2 
 PCOD9291136
Probable space group: C 2/C
;
_chemical_formula_sum "Si O2"
_cell_formula_units_Z 52
_cell_length_a 14.095672
_cell_length_b 17.052720
_cell_length_c 14.910418
_cell_angle_alpha 90.000000
_cell_angle_beta 38.273102
_cell_angle_gamma 90.000000
_cell_volume 2219.973850
_symmetry_space_group_name_H-M "C 2/C"
_symmetry_group_IT_number 15
_symmetry_cell_setting 'monoclinic'
loop_
_space_group_symop_operation_xyz
x,y,z
-x,y,1/2-z
-x,-y,-z
x,-y,1/2+z
1/2+x,1/2+y,z
1/2-x,1/2+y,1/2-z
1/2-x,1/2-y,-z
1/2+x,1/2-y,1/2+z
loop_
_atom_site_type_symbol
_atom_site_label
_atom_site_fract_x
_atom_site_fract_y
_atom_site_fract_z
Si Si1 0.850001 0.008686 0.817171
Si Si2 0.394711 0.909693 0.405983
Si Si3 0.166002 0.208967 0.452140
Si Si4 0.773418 0.212838 0.589510
Si Si5 0.603305 0.651632 0.312119
Si Si6 0.348162 0.868092 0.146032
Si Si7 0.000000 0.761122 0.250000
O O1 0.908987 0.935419 0.714697
O O2 0.000000 0.045366 0.750000
O O3 0.743512 0.066340 0.839694
O O4 0.743209 0.967309 0.970189
O O5 0.500000 0.945756 0.250000
O O6 0.333402 0.829447 0.404925
O O7 0.497421 0.896552 0.418674
O O8 0.153856 0.151044 0.377700
O O9 0.125156 0.294728 0.440285
O O10 0.343884 0.213064 0.348171
O O11 0.051373 0.195539 0.619967
O O12 0.716531 0.297618 0.665085
O O13 0.753859 0.162992 0.695591
O O14 0.944883 0.199291 0.429452
#
# Coordination Sequence:
#
# PCOD9291136 Si02
#       7
#     8   8   8   8   8   8   4
#     4  12  26  45  69 103 139 182 234 285 344 414
#     4  10  23  46  64 100 139 177 226 275 346 412
#     4  10  22  42  67  96 132 179 227 287 338 398
#     4  10  23  45  71 104 140 179 226 290 344 408
#     4  11  24  42  74 104 137 177 229 288 352 406
#     4  10  24  44  70  94 145 181 226 280 349 413
#     4  10  22  42  64  98 128 170 246 278 330 402
#
# _framework density 23.423698000000002
#
# number of rings (size 3 to 8) (size 9 to 14) (size 15 to 20)
#    0.000    1.538    1.538    2.308    9.692    4.308 
#    1.385    0.000    0.000    0.000    0.000    0.000 
#    0.000    0.000    0.000    0.000    0.000    0.000 
#
# Total GULP energy -145538.366536 kJ/mol
# GULP energy per Si atom -5597.629482 kJ/mol
# Density = 2.337039 g / cm^3
# Si number density = 23.423698 Si / 1000 Ang^3
#
#
#
# Elastic Constant Matrix: (Units=GPa)
#
#
# Indices 1 2 3 4 5 6 
#
# 1 163.9853 47.9599 58.4474 -0.0001 -1.1898 0.0000
# 2 47.9599 92.2307 33.9876 -0.0002 7.2472 0.0001
# 3 58.4474 33.9876 165.6904 0.0000 10.0634 -0.0001
# 4 -0.0001 -0.0002 0.0000 18.6385 -0.0001 4.0193
# 5 -1.1898 7.2472 10.0634 -0.0001 46.8875 0.0000
# 6 0.0000 0.0001 -0.0001 4.0193 0.0000 33.9096
#
#
#
# Elastic Compliance Matrix: (Units=1/GPa)
#
#
# Indices 1 2 3 4 5 6 
#
# 1 0.007865 -0.003390 -0.002151 0.000000 0.001185 0.000000
# 2 -0.003390 0.013271 -0.001415 0.000000 -0.001834 0.000000
# 3 -0.002151 -0.001415 0.007168 0.000000 -0.001374 0.000000
# 4 0.000000 0.000000 0.000000 0.055060 0.000000 -0.006526
# 5 0.001185 -0.001834 -0.001374 0.000000 0.021936 0.000000
# 6 0.000000 0.000000 0.000000 -0.006526 0.000000 0.030264
#
#
# Mechanical properties :
#
#
# Convention : Reuss Voigt Hill
#
# Bulk Modulus (GPa) = 69.48631 78.07734 73.78182
# Shear Modulus (GPa) = 32.41026 38.65456 35.53241
#
# Velocity S-wave (km/s) = 3.72378 4.06671 3.89902
# Velocity P-wave (km/s) = 6.94393 7.44687 7.19979
#
# Compressibility (1/GPa) = 0.01439132
#
# Stress axis : x y z
#
# Youngs Moduli (GPa) = 127.14815 75.35357 139.51300
#
# Poissons Ratio (x) = 0.25547 0.30008
# Poissons Ratio (y) = 0.43106 0.19740
# Poissons Ratio (z) = 0.27348 0.10662
#
# Static dielectric constant tensor:
#      x y z
#    x 1.939670 0.000000 0.003930 
#    y 0.000000 1.850720 0.000000 
#    z 0.003930 0.000000 1.883290 
# 
# From -- ./inp_files/155430.got.cif
#   From: 2010.05.17/outbox.cif.g08.bks.cpg/sg15_78_cif.got.tgz:155430.got - 2010.06.03 18:47:42.
