data_PCOD9291411
_publ_section_title
;
Structure prediction by ZEFSAII (Michael W. Deem and Ramdas Pophale) SiO2 
 PCOD9291411
Probable space group: C 2/C
;
_chemical_formula_sum "Si O2"
_cell_formula_units_Z 40
_cell_length_a 14.563640
_cell_length_b 28.147040
_cell_length_c 7.951662
_cell_angle_alpha 90.000000
_cell_angle_beta 140.362107
_cell_angle_gamma 90.000000
_cell_volume 2079.389954
_symmetry_space_group_name_H-M "C 2/C"
_symmetry_group_IT_number 15
_symmetry_cell_setting 'monoclinic'
loop_
_space_group_symop_operation_xyz
x,y,z
-x,y,1/2-z
-x,-y,-z
x,-y,1/2+z
1/2+x,1/2+y,z
1/2-x,1/2+y,1/2-z
1/2-x,1/2-y,-z
1/2+x,1/2-y,1/2+z
loop_
_atom_site_type_symbol
_atom_site_label
_atom_site_fract_x
_atom_site_fract_y
_atom_site_fract_z
Si Si1 0.814785 0.058255 0.738578
Si Si2 0.588407 0.253531 0.207128
Si Si3 0.456619 0.844636 0.382501
Si Si4 0.633835 0.344199 0.050336
Si Si5 0.000000 0.582183 0.250000
Si Si6 0.000000 0.995334 0.750000
O O1 0.837801 0.114884 0.772315
O O2 0.645997 0.051822 0.467061
O O3 0.917608 0.030382 0.758751
O O4 0.873515 0.037649 0.997084
O O5 0.500000 0.265095 0.250000
O O6 0.750000 0.250000 0.500000
O O7 0.588021 0.295195 0.070920
O O8 0.529814 0.204636 0.045107
O O9 0.500000 0.855041 0.250000
O O10 0.283446 0.839449 0.159311
O O11 0.501612 0.884411 0.584647
O O12 0.500000 0.359972 0.750000
#
# Coordination Sequence:
#
# PCOD9291411 Si02
#       6
#     8   8   8   8   4   4
#     4  10  22  43  65  94 129 161 212 265 326 388
#     4  12  23  40  61  90 130 172 218 267 314 370
#     4  11  24  43  64  93 134 175 216 267 315 372
#     4  11  24  40  61  93 126 167 220 261 313 388
#     4  10  22  46  65  98 132 168 215 264 312 394
#     4  10  22  42  67  94 126 164 203 272 332 386
#
# _framework density 19.236412000000001
#
# number of rings (size 3 to 8) (size 9 to 14) (size 15 to 20)
#    0.000    1.200    4.000    1.800    4.200    4.000 
#    3.600    0.000    0.000    0.000    0.000    0.000 
#    0.000    0.000    0.000    0.000    0.000    0.000 
#
# Total GULP energy -111592.703546 kJ/mol
# GULP energy per Si atom -5579.635177 kJ/mol
# Density = 1.919263 g / cm^3
# Si number density = 19.236412 Si / 1000 Ang^3
#
#
#
# Elastic Constant Matrix: (Units=GPa)
#
#
# Indices 1 2 3 4 5 6 
#
# 1 125.3660 31.3983 51.2812 0.0000 5.5798 0.0000
# 2 31.3983 57.7343 16.1602 0.0000 11.6578 0.0000
# 3 51.2812 16.1602 133.4345 0.0000 32.4501 0.0000
# 4 0.0000 0.0000 0.0000 14.2397 0.0000 27.5023
# 5 5.5798 11.6578 32.4501 0.0000 39.1566 0.0000
# 6 0.0000 0.0000 0.0000 27.5023 0.0000 -39.5268
#
#
#
# Elastic Compliance Matrix: (Units=1/GPa)
#
#
# Indices 1 2 3 4 5 6 
#
# 1 0.011024 -0.005503 -0.004492 0.000000 0.003790 0.000000
# 2 -0.005503 0.021311 0.001110 0.000000 -0.006481 0.000000
# 3 -0.004492 0.001110 0.011285 0.000000 -0.009043 0.000000
# 4 0.000000 0.000000 0.000000 0.029962 0.000000 0.020847
# 5 0.003790 -0.006481 -0.009043 0.000000 0.034422 0.000000
# 6 0.000000 0.000000 0.000000 0.020847 0.000000 -0.010794
#
#
# Mechanical properties :
#
#
# Convention : Reuss Voigt Hill
#
# Bulk Modulus (GPa) = 38.68410 57.13491 47.90951
# Shear Modulus (GPa) = 40.45411 17.28693 28.87052
#
# Velocity S-wave (km/s) = 4.59082 3.00101 3.87825
# Velocity P-wave (km/s) = 6.94653 6.46328 6.70926
#
# Compressibility (1/GPa) = 0.02585041
#
# Stress axis : x y z
#
# Youngs Moduli (GPa) = 90.71449 46.92322 88.61093
#
# Poissons Ratio (x) = 0.25822 0.39802
# Poissons Ratio (y) = 0.49921 -0.09835
# Poissons Ratio (z) = 0.40747 -0.05208
#
# Static dielectric constant tensor:
#      x y z
#    x 1.646540 0.000000 -0.022250 
#    y 0.000000 1.760020 0.000000 
#    z -0.022250 0.000000 1.652170 
# 
# From -- ./inp_files/42463.got.cif
#   From: 2010.05.17/outbox.cif.g08.bks.cpg/sg15_22_cif.got.tgz:42463.got - 2010.06.03 18:47:42.
