data_PCOD9291680
_publ_section_title
;
Structure prediction by ZEFSAII (Michael W. Deem and Ramdas Pophale) SiO2 
 PCOD9291680
Probable space group: C 2/C
;
_chemical_formula_sum "Si O2"
_cell_formula_units_Z 36
_cell_length_a 18.305415
_cell_length_b 10.078660
_cell_length_c 8.162303
_cell_angle_alpha 90.000000
_cell_angle_beta 57.716378
_cell_angle_gamma 90.000000
_cell_volume 1273.106692
_symmetry_space_group_name_H-M "C 2/C"
_symmetry_group_IT_number 15
_symmetry_cell_setting 'monoclinic'
loop_
_space_group_symop_operation_xyz
x,y,z
-x,y,1/2-z
-x,-y,-z
x,-y,1/2+z
1/2+x,1/2+y,z
1/2-x,1/2+y,1/2-z
1/2-x,1/2-y,-z
1/2+x,1/2-y,1/2+z
loop_
_atom_site_type_symbol
_atom_site_label
_atom_site_fract_x
_atom_site_fract_y
_atom_site_fract_z
Si Si1 0.317451 0.887939 0.810322
Si Si2 0.205442 0.039030 0.761313
Si Si3 0.545182 0.341141 0.360792
Si Si4 0.930942 0.364510 0.199785
Si Si5 0.750000 0.250000 0.500000
O O1 0.373071 0.757343 0.765639
O O2 0.244667 0.891037 0.751951
O O3 0.387444 0.001951 0.680716
O O4 0.264970 0.911950 0.040207
O O5 0.102176 0.037997 0.864690
O O6 0.228796 0.124604 0.892304
O O7 0.500000 0.384270 0.250000
O O8 0.479128 0.244854 0.532751
O O9 0.852728 0.288096 0.376682
O O10 0.000000 0.411495 0.250000
#
# Coordination Sequence:
#
# PCOD9291680 Si02
#       5
#     8   8   8   8   4
#     4  11  24  44  74 116 146 199 255 314 373 453
#     4  11  25  45  74 108 156 199 245 313 385 450
#     4  12  24  45  75 115 151 197 259 314 376 450
#     4  11  21  41  73 104 148 192 255 307 377 437
#     4  10  22  42  70 102 140 198 240 304 374 438
#
# _framework density 28.277283000000001
#
# number of rings (size 3 to 8) (size 9 to 14) (size 15 to 20)
#    0.000    0.889    2.222    6.000    3.111    0.000 
#    0.000    1.111    0.000    0.000    0.000    0.000 
#    0.000    0.000    0.000    0.000    0.000    0.000 
#
# Total GULP energy -100557.586628 kJ/mol
# GULP energy per Si atom -5586.532590 kJ/mol
# Density = 2.821292 g / cm^3
# Si number density = 28.277283 Si / 1000 Ang^3
#
#
#
# Elastic Constant Matrix: (Units=GPa)
#
#
# Indices 1 2 3 4 5 6 
#
# 1 211.0678 23.7917 29.3690 0.0000 -24.4981 0.0000
# 2 23.7917 109.4250 28.8764 0.0000 -24.8936 0.0000
# 3 29.3690 28.8764 134.8423 0.0000 -21.4002 0.0000
# 4 0.0000 0.0000 0.0000 50.0945 0.0000 -8.5573
# 5 -24.4981 -24.8936 -21.4002 0.0000 32.2475 0.0000
# 6 0.0000 0.0000 0.0000 -8.5573 0.0000 21.5024
#
#
#
# Elastic Compliance Matrix: (Units=1/GPa)
#
#
# Indices 1 2 3 4 5 6 
#
# 1 0.005239 -0.000208 -0.000548 0.000000 0.003455 0.000000
# 2 -0.000208 0.011251 -0.001130 0.000000 0.007778 0.000000
# 3 -0.000548 -0.001130 0.008464 0.000000 0.004329 0.000000
# 4 0.000000 0.000000 0.000000 0.021418 0.000000 0.008524
# 5 0.003455 0.007778 0.004329 0.000000 0.042512 0.000000
# 6 0.000000 0.000000 0.000000 0.008524 0.000000 0.049899
#
#
# Mechanical properties :
#
#
# Convention : Reuss Voigt Hill
#
# Bulk Modulus (GPa) = 47.20947 68.82326 58.01636
# Shear Modulus (GPa) = 33.41888 45.65542 39.53715
#
# Velocity S-wave (km/s) = 3.44150 4.02252 3.74330
# Velocity P-wave (km/s) = 5.70292 6.77981 6.26455
#
# Compressibility (1/GPa) = 0.02118219
#
# Stress axis : x y z
#
# Youngs Moduli (GPa) = 190.89118 88.87712 118.14255
#
# Poissons Ratio (x) = 0.01852 0.06474
# Poissons Ratio (y) = 0.03977 0.13347
# Poissons Ratio (z) = 0.10461 0.10041
#
# Static dielectric constant tensor:
#      x y z
#    x 2.152710 0.000000 -0.029010 
#    y 0.000000 2.129170 0.000000 
#    z -0.029010 0.000000 1.778610 
# 
# From -- ./inp_files/46632.got.cif
#   From: 2010.05.17/outbox.cif.g08.bks.cpg/sg15_24_cif.got.tgz:46632.got - 2010.06.03 18:47:42.
