data_PCOD9291243
_publ_section_title
;
Structure prediction by ZEFSAII (Michael W. Deem and Ramdas Pophale) SiO2 
 PCOD9291243
Probable space group: C 2/C
;
_chemical_formula_sum "Si O2"
_cell_formula_units_Z 36
_cell_length_a 11.029262
_cell_length_b 15.470273
_cell_length_c 15.092963
_cell_angle_alpha 90.000000
_cell_angle_beta 33.347869
_cell_angle_gamma 90.000000
_cell_volume 1415.667308
_symmetry_space_group_name_H-M "C 2/C"
_symmetry_group_IT_number 15
_symmetry_cell_setting 'monoclinic'
loop_
_space_group_symop_operation_xyz
x,y,z
-x,y,1/2-z
-x,-y,-z
x,-y,1/2+z
1/2+x,1/2+y,z
1/2-x,1/2+y,1/2-z
1/2-x,1/2-y,-z
1/2+x,1/2-y,1/2+z
loop_
_atom_site_type_symbol
_atom_site_label
_atom_site_fract_x
_atom_site_fract_y
_atom_site_fract_z
Si Si1 0.291164 0.562203 0.622633
Si Si2 0.165427 0.327203 0.350729
Si Si3 0.500000 0.209615 0.250000
Si Si4 0.986541 0.828921 0.864126
Si Si5 0.453547 0.083007 0.132276
O O1 0.500000 0.500000 0.500000
O O2 0.314682 0.638018 0.680159
O O3 0.300534 0.609891 0.522132
O O4 0.094873 0.503749 0.783014
O O5 0.308457 0.267674 0.327433
O O6 0.986576 0.264766 0.412231
O O7 0.080937 0.407143 0.461897
O O8 0.578157 0.145905 0.124667
O O9 0.217262 0.873437 0.753703
O O10 0.000000 0.823746 0.750000
#
# Coordination Sequence:
#
# PCOD9291243 Si02
#       5
#     8   8   4   8   8
#     4  10  23  44  61  95 142 171 221 280 337 396
#     4  11  22  41  73  98 131 180 229 276 334 409
#     4  10  22  42  70 102 134 174 230 282 332 398
#     4  10  22  43  69  94 133 180 225 274 332 398
#     4  10  22  42  66 101 135 174 224 276 341 402
#
# _framework density 25.429703
#
# number of rings (size 3 to 8) (size 9 to 14) (size 15 to 20)
#    0.000    1.778    0.000    4.000    0.000    7.111 
#   22.000    0.000    0.000    0.000    0.000    0.000 
#    0.000    0.000    0.000    0.000    0.000    0.000 
#
# Total GULP energy -100647.723258 kJ/mol
# GULP energy per Si atom -5591.540181 kJ/mol
# Density = 2.537182 g / cm^3
# Si number density = 25.429703 Si / 1000 Ang^3
#
#
#
# Elastic Constant Matrix: (Units=GPa)
#
#
# Indices 1 2 3 4 5 6 
#
# 1 127.3759 85.5343 61.5729 -0.0016 37.3132 0.0012
# 2 85.5343 112.2097 62.6529 -0.0089 22.8106 0.0029
# 3 61.5729 62.6529 150.1695 -0.0263 51.5766 0.0081
# 4 -0.0016 -0.0089 -0.0263 5.5964 0.0097 4.2355
# 5 37.3132 22.8106 51.5766 0.0097 47.2463 -0.0031
# 6 0.0012 0.0029 0.0081 4.2355 -0.0031 41.2051
#
#
#
# Elastic Compliance Matrix: (Units=1/GPa)
#
#
# Indices 1 2 3 4 5 6 
#
# 1 0.019004 -0.013066 0.001036 0.000007 -0.009831 -0.000001
# 2 -0.013066 0.020609 -0.005388 -0.000008 0.006250 0.000001
# 3 0.001036 -0.005388 0.012591 0.000080 -0.011961 -0.000011
# 4 0.000007 -0.000008 0.000080 0.193762 -0.000130 -0.019917
# 5 -0.009831 0.006250 -0.011961 -0.000130 0.038969 0.000018
# 6 -0.000001 0.000001 -0.000011 -0.019917 0.000018 0.026316
#
#
# Mechanical properties :
#
#
# Convention : Reuss Voigt Hill
#
# Bulk Modulus (GPa) = 57.57874 89.91950 73.74912
# Shear Modulus (GPa) = 14.20951 30.80923 22.50937
#
# Velocity S-wave (km/s) = 2.36641 3.48450 2.97839
# Velocity P-wave (km/s) = 5.49163 7.18511 6.39468
#
# Compressibility (1/GPa) = 0.01736752
#
# Stress axis : x y z
#
# Youngs Moduli (GPa) = 52.62097 48.52138 79.42455
#
# Poissons Ratio (x) = 0.63398 -0.08227
# Poissons Ratio (y) = 0.68754 0.42794
# Poissons Ratio (z) = -0.05450 0.26143
#
# Static dielectric constant tensor:
#      x y z
#    x 2.071610 0.000000 -0.037930 
#    y 0.000000 2.009130 0.000000 
#    z -0.037930 0.000000 1.975980 
# 
# From -- ./inp_files/28718.got.cif
#   From: 2010.05.17/outbox.cif.g08.bks.cpg/sg15_15_cif.got.tgz:28718.got - 2010.06.03 18:47:42.
