data_PCOD9291508
_publ_section_title
;
Structure prediction by ZEFSAII (Michael W. Deem and Ramdas Pophale) SiO2 
 PCOD9291508
Probable space group: C 2/C
;
_chemical_formula_sum "Si O2"
_cell_formula_units_Z 52
_cell_length_a 15.525898
_cell_length_b 23.086312
_cell_length_c 7.728916
_cell_angle_alpha 90.000000
_cell_angle_beta 57.490662
_cell_angle_gamma 90.000000
_cell_volume 2336.221240
_symmetry_space_group_name_H-M "C 2/C"
_symmetry_group_IT_number 15
_symmetry_cell_setting 'monoclinic'
loop_
_space_group_symop_operation_xyz
x,y,z
-x,y,1/2-z
-x,-y,-z
x,-y,1/2+z
1/2+x,1/2+y,z
1/2-x,1/2+y,1/2-z
1/2-x,1/2-y,-z
1/2+x,1/2-y,1/2+z
loop_
_atom_site_type_symbol
_atom_site_label
_atom_site_fract_x
_atom_site_fract_y
_atom_site_fract_z
Si Si1 0.929017 0.175082 0.667143
Si Si2 0.000000 0.871462 0.750000
Si Si3 0.709749 0.770914 0.297858
Si Si4 0.806449 0.928075 0.452934
Si Si5 0.608610 0.846853 0.692463
Si Si6 0.314255 0.167989 0.038333
Si Si7 0.687225 0.559043 0.160450
O O1 0.825412 0.208541 0.721962
O O2 0.885972 0.112025 0.767478
O O3 0.000000 0.195409 0.750000
O O4 0.995359 0.168299 0.423586
O O5 0.901991 0.912868 0.855647
O O6 0.642256 0.794239 0.528971
O O7 0.723458 0.703030 0.238973
O O8 0.673527 0.800141 0.157267
O O9 0.699131 0.893591 0.574532
O O10 0.845151 0.934766 0.606087
O O11 0.792514 0.992302 0.396342
O O12 0.500000 0.869365 0.750000
O O13 0.600725 0.831206 0.904553
O O14 0.282515 0.102276 0.034006
#
# Coordination Sequence:
#
# PCOD9291508 Si02
#       7
#     8   4   8   8   8   8   8
#     4  11  22  38  60 100 130 167 208 254 322 401
#     4  12  22  36  62  94 134 162 212 250 316 406
#     4  10  22  42  68  90 135 169 208 268 332 375
#     4  10  23  39  62  90 131 166 211 265 323 380
#     4  10  23  44  66  95 123 167 224 272 320 379
#     4  10  22  43  63  93 126 170 211 266 324 389
#     4  11  22  38  62  90 131 170 212 261 319 390
#
# _framework density 22.258165999999999
#
# number of rings (size 3 to 8) (size 9 to 14) (size 15 to 20)
#    0.000    1.538    3.077    1.385    3.231    2.462 
#    2.769    3.077    0.000    0.000    0.000    0.000 
#    0.000    0.000    0.000    0.000    0.000    0.000 
#
# Total GULP energy -145339.532384 kJ/mol
# GULP energy per Si atom -5589.982015 kJ/mol
# Density = 2.220751 g / cm^3
# Si number density = 22.258166 Si / 1000 Ang^3
#
#
#
# Elastic Constant Matrix: (Units=GPa)
#
#
# Indices 1 2 3 4 5 6 
#
# 1 144.1114 16.4699 53.1324 0.0000 24.0798 0.0000
# 2 16.4699 84.7149 23.3673 0.0000 7.4724 0.0000
# 3 53.1324 23.3673 70.9588 0.0000 29.1613 0.0000
# 4 0.0000 0.0000 0.0000 15.1345 0.0000 8.0648
# 5 24.0798 7.4724 29.1613 0.0000 39.4797 0.0000
# 6 0.0000 0.0000 0.0000 8.0648 0.0000 22.0975
#
#
#
# Elastic Compliance Matrix: (Units=1/GPa)
#
#
# Indices 1 2 3 4 5 6 
#
# 1 0.009603 0.000107 -0.006907 0.000000 -0.000776 0.000000
# 2 0.000107 0.013013 -0.004776 0.000000 0.001000 0.000000
# 3 -0.006907 -0.004776 0.026900 0.000000 -0.014753 0.000000
# 4 0.000000 0.000000 0.000000 0.082027 0.000000 -0.029937
# 5 -0.000776 0.001000 -0.014753 0.000000 0.036510 0.000000
# 6 0.000000 0.000000 0.000000 -0.029937 0.000000 0.056180
#
#
# Mechanical properties :
#
#
# Convention : Reuss Voigt Hill
#
# Bulk Modulus (GPa) = 37.93129 53.96937 45.95033
# Shear Modulus (GPa) = 19.51808 29.13004 24.32406
#
# Velocity S-wave (km/s) = 2.96445 3.62157 3.30936
# Velocity P-wave (km/s) = 5.36617 6.46431 5.94067
#
# Compressibility (1/GPa) = 0.02636346
#
# Stress axis : x y z
#
# Youngs Moduli (GPa) = 104.13431 76.84775 37.17475
#
# Poissons Ratio (x) = -0.00819 0.25676
# Poissons Ratio (y) = -0.01110 0.17754
# Poissons Ratio (z) = 0.71924 0.36701
#
# Static dielectric constant tensor:
#      x y z
#    x 1.828150 0.000000 0.032790 
#    y 0.000000 1.829010 0.000000 
#    z 0.032790 0.000000 1.836720 
# 
# From -- ./inp_files/42076.got.cif
#   From: 2010.05.17/outbox.cif.g08.bks.cpg/sg15_22_cif.got.tgz:42076.got - 2010.06.03 18:47:42.
