data_PCOD9291402
_publ_section_title
;
Structure prediction by ZEFSAII (Michael W. Deem and Ramdas Pophale) SiO2 
 PCOD9291402
Probable space group: C 2/C
;
_chemical_formula_sum "Si O2"
_cell_formula_units_Z 40
_cell_length_a 13.925174
_cell_length_b 12.526086
_cell_length_c 16.225612
_cell_angle_alpha 90.000000
_cell_angle_beta 140.903661
_cell_angle_gamma 90.000000
_cell_volume 1784.798242
_symmetry_space_group_name_H-M "C 2/C"
_symmetry_group_IT_number 15
_symmetry_cell_setting 'monoclinic'
loop_
_space_group_symop_operation_xyz
x,y,z
-x,y,1/2-z
-x,-y,-z
x,-y,1/2+z
1/2+x,1/2+y,z
1/2-x,1/2+y,1/2-z
1/2-x,1/2-y,-z
1/2+x,1/2-y,1/2+z
loop_
_atom_site_type_symbol
_atom_site_label
_atom_site_fract_x
_atom_site_fract_y
_atom_site_fract_z
Si Si1 0.163004 0.814592 0.011619
Si Si2 0.121166 0.043906 0.016148
Si Si3 0.038683 0.236123 0.679837
Si Si4 0.353199 0.186328 0.808942
Si Si5 0.560215 0.966173 0.697769
O O1 0.992929 0.768348 0.910152
O O2 0.156019 0.939863 0.983963
O O3 0.250000 0.750000 0.000000
O O4 0.262914 0.803848 0.161291
O O5 0.061178 0.145045 0.928699
O O6 0.268492 0.068457 0.167324
O O7 0.000000 0.000000 0.000000
O O8 0.214278 0.203186 0.779401
O O9 0.993695 0.355633 0.618682
O O10 0.000000 0.239173 0.750000
O O11 0.430078 0.068662 0.854020
O O12 0.500000 0.994666 0.750000
#
# Coordination Sequence:
#
# PCOD9291402 Si02
#       5
#     8   8   8   8   8
#     4  11  23  42  74 103 136 180 233 284 357 408
#     4  11  21  45  67  91 141 183 214 285 362 402
#     4  11  25  41  67  98 129 184 231 276 335 426
#     4  11  23  44  69 100 141 182 227 292 346 412
#     4  10  22  42  67  92 132 176 225 276 353 406
#
# _framework density 22.411497000000001
#
# number of rings (size 3 to 8) (size 9 to 14) (size 15 to 20)
#    0.000    1.200    4.000    4.200    0.000    4.800 
#    0.000    3.000    0.000    0.000    0.000    0.000 
#    0.000    0.000    0.000    0.000    0.000    0.000 
#
# Total GULP energy -111819.530197 kJ/mol
# GULP energy per Si atom -5590.976510 kJ/mol
# Density = 2.236049 g / cm^3
# Si number density = 22.411497 Si / 1000 Ang^3
#
#
#
# Elastic Constant Matrix: (Units=GPa)
#
#
# Indices 1 2 3 4 5 6 
#
# 1 104.1848 13.5072 -8.7837 0.0000 -2.1326 0.0000
# 2 13.5072 189.1885 28.0540 0.0000 -16.8907 0.0000
# 3 -8.7837 28.0540 72.6947 0.0000 11.9004 0.0000
# 4 0.0000 0.0000 0.0000 41.4934 0.0000 0.9644
# 5 -2.1326 -16.8907 11.9004 0.0000 20.7234 0.0000
# 6 0.0000 0.0000 0.0000 0.9644 0.0000 35.3204
#
#
#
# Elastic Compliance Matrix: (Units=1/GPa)
#
#
# Indices 1 2 3 4 5 6 
#
# 1 0.009861 -0.001033 0.001724 0.000000 -0.000817 0.000000
# 2 -0.001033 0.006611 -0.003908 0.000000 0.007526 0.000000
# 3 0.001724 -0.003908 0.017622 0.000000 -0.013127 0.000000
# 4 0.000000 0.000000 0.000000 0.024116 0.000000 -0.000658
# 5 -0.000817 0.007526 -0.013127 0.000000 0.061843 0.000000
# 6 0.000000 0.000000 0.000000 -0.000658 0.000000 0.028330
#
#
# Mechanical properties :
#
#
# Convention : Reuss Voigt Hill
#
# Bulk Modulus (GPa) = 36.15416 47.95810 42.05613
# Shear Modulus (GPa) = 30.48115 41.72681 36.10398
#
# Velocity S-wave (km/s) = 3.69191 4.31960 4.01803
# Velocity P-wave (km/s) = 5.86008 6.80616 6.35077
#
# Compressibility (1/GPa) = 0.02765934
#
# Stress axis : x y z
#
# Youngs Moduli (GPa) = 101.41175 151.26524 56.74863
#
# Poissons Ratio (x) = 0.15618 -0.09781
# Poissons Ratio (y) = 0.10471 0.22178
# Poissons Ratio (z) = -0.17480 0.59116
#
# Static dielectric constant tensor:
#      x y z
#    x 1.766700 0.000000 -0.022310 
#    y 0.000000 1.790700 0.000000 
#    z -0.022310 0.000000 1.786340 
# 
# From -- ./inp_files/94523.got.cif
#   From: 2010.05.17/outbox.cif.g08.bks.cpg/sg15_48_cif.got.tgz:94523.got - 2010.06.03 18:47:42.
