data_PCOD9291827
_publ_section_title
;
Structure prediction by ZEFSAII (Michael W. Deem and Ramdas Pophale) SiO2 
 PCOD9291827
Probable space group: C 2/C
;
_chemical_formula_sum "Si O2"
_cell_formula_units_Z 44
_cell_length_a 11.829165
_cell_length_b 19.662017
_cell_length_c 14.122283
_cell_angle_alpha 90.000000
_cell_angle_beta 140.507804
_cell_angle_gamma 90.000000
_cell_volume 2088.939315
_symmetry_space_group_name_H-M "C 2/C"
_symmetry_group_IT_number 15
_symmetry_cell_setting 'monoclinic'
loop_
_space_group_symop_operation_xyz
x,y,z
-x,y,1/2-z
-x,-y,-z
x,-y,1/2+z
1/2+x,1/2+y,z
1/2-x,1/2+y,1/2-z
1/2-x,1/2-y,-z
1/2+x,1/2-y,1/2+z
loop_
_atom_site_type_symbol
_atom_site_label
_atom_site_fract_x
_atom_site_fract_y
_atom_site_fract_z
Si Si1 0.282687 0.186758 0.856058
Si Si2 0.019485 0.438654 0.087887
Si Si3 0.183490 0.326772 0.429079
Si Si4 0.480984 0.309092 0.479360
Si Si5 0.314932 0.850229 0.588073
Si Si6 0.500000 0.020009 0.250000
O O1 0.338336 0.111747 0.863582
O O2 0.122153 0.205832 0.684751
O O3 0.443986 0.237310 0.935089
O O4 0.260284 0.184391 0.954481
O O5 0.859310 0.386597 0.020643
O O6 0.086154 0.473437 0.227008
O O7 0.000000 0.500000 0.000000
O O8 0.250000 0.250000 0.500000
O O9 0.346982 0.345552 0.464257
O O10 0.000000 0.320496 0.250000
O O11 0.661084 0.346688 0.566034
O O12 0.500000 0.820973 0.750000
O O13 0.365972 0.929411 0.609511
#
# Coordination Sequence:
#
# PCOD9291827 Si02
#       6
#     8   8   8   8   8   4
#     4  12  23  40  71 101 140 180 228 293 355 415
#     4  12  22  44  72  98 142 189 226 286 362 426
#     4  12  24  45  73 105 139 184 237 300 359 416
#     4  12  23  42  70 105 139 175 242 292 349 422
#     4  10  23  42  68 100 139 182 232 282 349 418
#     4  10  22  42  72  92 132 188 226 268 358 410
#
# _framework density 21.063320999999998
#
# number of rings (size 3 to 8) (size 9 to 14) (size 15 to 20)
#    0.545    0.000    6.364    2.182    0.000    0.000 
#    3.273    3.636    0.000    0.000    0.000    0.000 
#    0.000    0.000    0.000    0.000    0.000    0.000 
#
# Total GULP energy -122548.922534 kJ/mol
# GULP energy per Si atom -5570.405570 kJ/mol
# Density = 2.101538 g / cm^3
# Si number density = 21.063321 Si / 1000 Ang^3
#
#
#
# Elastic Constant Matrix: (Units=GPa)
#
#
# Indices 1 2 3 4 5 6 
#
# 1 129.4176 26.5504 31.1954 0.0000 9.7712 0.0000
# 2 26.5504 106.1444 26.8426 0.0000 -0.0746 0.0000
# 3 31.1954 26.8426 85.5769 -0.0001 10.6341 -0.0001
# 4 0.0000 0.0000 -0.0001 16.4799 0.0000 -13.8145
# 5 9.7712 -0.0746 10.6341 0.0000 36.6972 0.0000
# 6 0.0000 0.0000 -0.0001 -13.8145 0.0000 51.5109
#
#
#
# Elastic Compliance Matrix: (Units=1/GPa)
#
#
# Indices 1 2 3 4 5 6 
#
# 1 0.008774 -0.001561 -0.002508 0.000000 -0.001612 0.000000
# 2 -0.001561 0.010545 -0.002897 0.000000 0.001277 0.000000
# 3 -0.002508 -0.002897 0.013928 0.000000 -0.003374 0.000000
# 4 0.000000 0.000000 0.000000 0.078278 0.000000 0.020993
# 5 -0.001612 0.001277 -0.003374 0.000000 0.028660 0.000000
# 6 0.000000 0.000000 0.000000 0.020993 0.000000 0.025043
#
#
# Mechanical properties :
#
#
# Convention : Reuss Voigt Hill
#
# Bulk Modulus (GPa) = 51.77825 54.47954 53.12889
# Shear Modulus (GPa) = 26.93984 36.70762 31.82373
#
# Velocity S-wave (km/s) = 3.58018 4.17913 3.89120
# Velocity P-wave (km/s) = 6.45955 7.01481 6.74290
#
# Compressibility (1/GPa) = 0.01931313
#
# Stress axis : x y z
#
# Youngs Moduli (GPa) = 113.97873 94.82944 71.79946
#
# Poissons Ratio (x) = 0.14807 0.18008
# Poissons Ratio (y) = 0.17797 0.20801
# Poissons Ratio (z) = 0.28587 0.27473
#
# Static dielectric constant tensor:
#      x y z
#    x 1.923340 0.000000 -0.088510 
#    y 0.000000 1.819650 0.000000 
#    z -0.088510 0.000000 1.764710 
# 
# From -- ./inp_files/147280.got.cif
#   From: 2010.05.17/outbox.cif.g08.bks.cpg/sg15_74_cif.got.tgz:147280.got - 2010.06.03 18:47:42.
