data_PCOD9291495
_publ_section_title
;
Structure prediction by ZEFSAII (Michael W. Deem and Ramdas Pophale) SiO2 
 PCOD9291495
Probable space group: C 2/C
;
_chemical_formula_sum "Si O2"
_cell_formula_units_Z 40
_cell_length_a 22.148002
_cell_length_b 14.638621
_cell_length_c 9.495118
_cell_angle_alpha 90.000000
_cell_angle_beta 144.536046
_cell_angle_gamma 90.000000
_cell_volume 1786.100216
_symmetry_space_group_name_H-M "C 2/C"
_symmetry_group_IT_number 15
_symmetry_cell_setting 'monoclinic'
loop_
_space_group_symop_operation_xyz
x,y,z
-x,y,1/2-z
-x,-y,-z
x,-y,1/2+z
1/2+x,1/2+y,z
1/2-x,1/2+y,1/2-z
1/2-x,1/2-y,-z
1/2+x,1/2-y,1/2+z
loop_
_atom_site_type_symbol
_atom_site_label
_atom_site_fract_x
_atom_site_fract_y
_atom_site_fract_z
Si Si1 0.951737 0.782009 0.382504
Si Si2 0.583781 0.548311 0.024961
Si Si3 0.500000 0.130386 0.250000
Si Si4 0.000000 0.320252 0.250000
Si Si5 0.302083 0.569154 0.530267
Si Si6 0.399227 0.012712 0.707076
O O1 0.038111 0.857627 0.500734
O O2 0.985229 0.696088 0.352955
O O3 0.952028 0.745924 0.541240
O O4 0.840386 0.827092 0.132477
O O5 0.615130 0.484635 0.212513
O O6 0.500000 0.513089 0.750000
O O7 0.681935 0.559114 0.106598
O O8 0.594185 0.059862 0.409058
O O9 0.083079 0.387785 0.329937
O O10 0.196611 0.523760 0.383370
O O11 0.500000 0.000000 0.000000
#
# Coordination Sequence:
#
# PCOD9291495 Si02
#       6
#     8   8   4   4   8   8
#     4  11  22  45  69 103 137 176 235 295 347 418
#     4  10  22  42  68 105 141 178 226 298 360 413
#     4  11  22  44  65  94 142 178 231 296 340 413
#     4  11  26  44  73 100 148 188 229 298 348 409
#     4  11  25  41  74 102 139 188 235 286 364 420
#     4  11  26  47  70  98 146 192 235 285 358 419
#
# _framework density 22.395160000000001
#
# number of rings (size 3 to 8) (size 9 to 14) (size 15 to 20)
#    0.000    1.200    5.000    2.400    9.800    0.800 
#    3.600    1.000    0.000    0.000    0.000    0.000 
#    0.000    0.000    0.000    0.000    0.000    0.000 
#
# Total GULP energy -111438.026678 kJ/mol
# GULP energy per Si atom -5571.901334 kJ/mol
# Density = 2.234419 g / cm^3
# Si number density = 22.395160 Si / 1000 Ang^3
#
#
#
# Elastic Constant Matrix: (Units=GPa)
#
#
# Indices 1 2 3 4 5 6 
#
# 1 171.4799 62.3760 38.2825 0.0000 -2.5371 0.0000
# 2 62.3760 91.6369 27.2029 0.0000 -4.3977 0.0000
# 3 38.2825 27.2029 64.1264 0.0000 3.9078 0.0000
# 4 0.0000 0.0000 0.0000 22.9831 0.0000 -5.8627
# 5 -2.5371 -4.3977 3.9078 0.0000 49.8199 0.0000
# 6 0.0000 0.0000 0.0000 -5.8627 0.0000 120.6214
#
#
#
# Elastic Compliance Matrix: (Units=1/GPa)
#
#
# Indices 1 2 3 4 5 6 
#
# 1 0.008196 -0.004703 -0.002912 0.000000 0.000231 0.000000
# 2 -0.004703 0.015300 -0.003768 0.000000 0.001407 0.000000
# 3 -0.002912 -0.003768 0.019051 0.000000 -0.001975 0.000000
# 4 0.000000 0.000000 0.000000 0.044056 0.000000 0.002141
# 5 0.000231 0.001407 -0.001975 0.000000 0.020363 0.000000
# 6 0.000000 0.000000 0.000000 0.002141 0.000000 0.008394
#
#
# Mechanical properties :
#
#
# Convention : Reuss Voigt Hill
#
# Bulk Modulus (GPa) = 50.55429 64.77400 57.66414
# Shear Modulus (GPa) = 34.54895 51.97700 43.26297
#
# Velocity S-wave (km/s) = 3.93198 4.82280 4.39999
# Velocity P-wave (km/s) = 6.57546 7.74587 7.18454
#
# Compressibility (1/GPa) = 0.01978072
#
# Stress axis : x y z
#
# Youngs Moduli (GPa) = 122.01225 65.35786 52.48965
#
# Poissons Ratio (x) = 0.30741 0.15283
# Poissons Ratio (y) = 0.57388 0.19780
# Poissons Ratio (z) = 0.35526 0.24629
#
# Static dielectric constant tensor:
#      x y z
#    x 1.957370 0.000000 0.050340 
#    y 0.000000 1.875210 0.000000 
#    z 0.050340 0.000000 1.927640 
# 
# From -- ./inp_files/123222.got.cif
#   From: 2010.05.17/outbox.cif.g08.bks.cpg/sg15_62_cif.got.tgz:123222.got - 2010.06.03 18:47:42.
