data_PCOD9291441
_publ_section_title
;
Structure prediction by ZEFSAII (Michael W. Deem and Ramdas Pophale) SiO2 
 PCOD9291441
Probable space group: C 2/C
;
_chemical_formula_sum "Si O2"
_cell_formula_units_Z 56
_cell_length_a 22.688934
_cell_length_b 16.407661
_cell_length_c 9.273592
_cell_angle_alpha 90.000000
_cell_angle_beta 131.316745
_cell_angle_gamma 90.000000
_cell_volume 2592.924477
_symmetry_space_group_name_H-M "C 2/C"
_symmetry_group_IT_number 15
_symmetry_cell_setting 'monoclinic'
loop_
_space_group_symop_operation_xyz
x,y,z
-x,y,1/2-z
-x,-y,-z
x,-y,1/2+z
1/2+x,1/2+y,z
1/2-x,1/2+y,1/2-z
1/2-x,1/2-y,-z
1/2+x,1/2-y,1/2+z
loop_
_atom_site_type_symbol
_atom_site_label
_atom_site_fract_x
_atom_site_fract_y
_atom_site_fract_z
Si Si1 0.581072 0.801090 0.920564
Si Si2 0.470023 0.912087 0.414029
Si Si3 0.583618 0.401275 0.201469
Si Si4 0.396349 0.831995 0.065950
Si Si5 0.168097 0.270507 0.798816
Si Si6 0.666311 0.285273 0.813455
Si Si7 0.398380 0.565590 0.431673
O O1 0.500000 0.755057 0.750000
O O2 0.623271 0.825087 0.843360
O O3 0.554519 0.874590 0.975593
O O4 0.639069 0.751654 0.116235
O O5 0.398325 0.905212 0.184203
O O6 0.533641 0.854742 0.433303
O O7 0.500000 0.000000 0.500000
O O8 0.617883 0.313508 0.209095
O O9 0.609292 0.472215 0.131982
O O10 0.611990 0.420775 0.412360
O O11 0.488650 0.405984 0.047860
O O12 0.394501 0.751557 0.165131
O O13 0.325844 0.816023 0.842578
O O14 0.250000 0.250000 0.000000
O O15 0.656211 0.380121 0.762457
O O16 0.750000 0.250000 0.000000
#
# Coordination Sequence:
#
# PCOD9291441 Si02
#       7
#     8   8   8   8   8   8   8
#     4  11  21  41  68  92 127 177 229 278 343 398
#     4  10  23  42  65  98 134 165 221 293 338 403
#     4  10  23  41  66  99 131 175 225 286 341 404
#     4  10  24  37  64 101 124 172 230 273 340 409
#     4  12  24  41  67  98 137 176 232 287 345 425
#     4  11  23  42  66  94 139 178 223 286 350 423
#     4  10  22  42  67  97 132 174 226 284 346 403
#
# _framework density 21.597235000000001
#
# number of rings (size 3 to 8) (size 9 to 14) (size 15 to 20)
#    0.000    1.429    2.857    1.714    8.000    0.000 
#    0.000    4.286    0.000    0.000    0.000    0.000 
#    0.000    0.000    0.000    0.000    0.000    0.000 
#
# Total GULP energy -156083.478008 kJ/mol
# GULP energy per Si atom -5574.409929 kJ/mol
# Density = 2.154808 g / cm^3
# Si number density = 21.597235 Si / 1000 Ang^3
#
#
#
# Elastic Constant Matrix: (Units=GPa)
#
#
# Indices 1 2 3 4 5 6 
#
# 1 64.8071 28.5001 33.8886 0.0000 -16.0750 0.0000
# 2 28.5001 101.1900 37.7744 0.0000 -8.7914 0.0000
# 3 33.8886 37.7744 166.3134 0.0000 -12.3604 0.0000
# 4 0.0000 0.0000 0.0000 25.0122 0.0000 5.0912
# 5 -16.0750 -8.7914 -12.3604 0.0000 42.0174 0.0000
# 6 0.0000 0.0000 0.0000 5.0912 0.0000 12.2174
#
#
#
# Elastic Compliance Matrix: (Units=1/GPa)
#
#
# Indices 1 2 3 4 5 6 
#
# 1 0.020175 -0.004141 -0.002721 0.000000 0.006052 0.000000
# 2 -0.004141 0.011750 -0.001799 0.000000 0.000345 0.000000
# 3 -0.002721 -0.001799 0.007024 0.000000 0.000649 0.000000
# 4 0.000000 0.000000 0.000000 0.043686 0.000000 -0.018205
# 5 0.006052 0.000345 0.000649 0.000000 0.026378 0.000000
# 6 0.000000 0.000000 0.000000 -0.018205 0.000000 0.089436
#
#
# Mechanical properties :
#
#
# Convention : Reuss Voigt Hill
#
# Bulk Modulus (GPa) = 46.23717 59.18185 52.70951
# Shear Modulus (GPa) = 22.42337 31.32591 26.87464
#
# Velocity S-wave (km/s) = 3.22569 3.81262 3.53137
# Velocity P-wave (km/s) = 5.94380 6.84423 6.40984
#
# Compressibility (1/GPa) = 0.02162762
#
# Stress axis : x y z
#
# Youngs Moduli (GPa) = 49.56559 85.10349 142.36805
#
# Poissons Ratio (x) = 0.35241 0.38734
# Poissons Ratio (y) = 0.20525 0.25618
# Poissons Ratio (z) = 0.13485 0.15314
#
# Static dielectric constant tensor:
#      x y z
#    x 1.762320 0.000000 0.011480 
#    y 0.000000 1.808130 0.000000 
#    z 0.011480 0.000000 1.843890 
# 
# From -- ./inp_files/62767.got.cif
#   From: 2010.05.17/outbox.cif.g08.bks.cpg/sg15_32_cif.got.tgz:62767.got - 2010.06.03 18:47:42.
