data_PCOD9291644
_publ_section_title
;
Structure prediction by ZEFSAII (Michael W. Deem and Ramdas Pophale) SiO2 
 PCOD9291644
Probable space group: C 2/C
;
_chemical_formula_sum "Si O2"
_cell_formula_units_Z 48
_cell_length_a 14.894644
_cell_length_b 29.502507
_cell_length_c 9.940325
_cell_angle_alpha 90.000000
_cell_angle_beta 27.927119
_cell_angle_gamma 90.000000
_cell_volume 2045.777327
_symmetry_space_group_name_H-M "C 2/C"
_symmetry_group_IT_number 15
_symmetry_cell_setting 'monoclinic'
loop_
_space_group_symop_operation_xyz
x,y,z
-x,y,1/2-z
-x,-y,-z
x,-y,1/2+z
1/2+x,1/2+y,z
1/2-x,1/2+y,1/2-z
1/2-x,1/2-y,-z
1/2+x,1/2-y,1/2+z
loop_
_atom_site_type_symbol
_atom_site_label
_atom_site_fract_x
_atom_site_fract_y
_atom_site_fract_z
Si Si1 0.861531 0.503560 0.553356
Si Si2 0.046697 0.734487 0.823135
Si Si3 0.427196 0.679049 0.620159
Si Si4 0.355903 0.584144 0.563918
Si Si5 0.442250 0.904984 0.470991
Si Si6 0.705135 0.824510 0.681780
O O1 0.683770 0.537408 0.802658
O O2 0.000000 0.500000 0.500000
O O3 0.823256 0.450095 0.586622
O O4 0.000000 0.519335 0.250000
O O5 0.250000 0.750000 0.500000
O O6 0.000000 0.707107 0.750000
O O7 0.927812 0.780756 0.010462
O O8 0.986813 0.702520 0.024901
O O9 0.417201 0.629243 0.565621
O O10 0.621141 0.690189 0.449075
O O11 0.263809 0.681384 0.950390
O O12 0.144684 0.590432 0.779406
O O13 0.500000 0.577519 0.250000
O O14 0.500000 0.885367 0.250000
O O15 0.321192 0.875858 0.735881
#
# Coordination Sequence:
#
# PCOD9291644 Si02
#       6
#     8   8   8   8   8   8
#     4   9  21  42  66  96 137 177 227 279 348 409
#     4  12  25  45  71  98 136 182 226 281 343 411
#     4  11  26  44  65 102 137 180 230 282 338 407
#     4  11  24  41  68 102 135 173 237 281 336 418
#     4  10  22  42  69  97 135 183 218 280 351 403
#     4  11  25  45  66  96 144 181 225 284 343 399
#
# _framework density 23.462963999999999
#
# number of rings (size 3 to 8) (size 9 to 14) (size 15 to 20)
#    0.000    1.333    1.667    2.500    9.333    0.000 
#    3.000    8.333    0.000    0.000    0.000    0.000 
#    0.000    0.000    0.000    0.000    0.000    0.000 
#
# Total GULP energy -133784.021284 kJ/mol
# GULP energy per Si atom -5574.334220 kJ/mol
# Density = 2.340956 g / cm^3
# Si number density = 23.462964 Si / 1000 Ang^3
#
#
#
# Elastic Constant Matrix: (Units=GPa)
#
#
# Indices 1 2 3 4 5 6 
#
# 1 62.2000 16.9527 24.8709 0.0000 18.9597 0.0000
# 2 16.9527 173.2300 77.4400 0.0000 21.8095 0.0000
# 3 24.8709 77.4400 187.5340 0.0001 47.4938 0.0000
# 4 0.0000 0.0000 0.0001 -4.2216 0.0000 4.0580
# 5 18.9597 21.8095 47.4938 0.0000 37.3468 0.0000
# 6 0.0000 0.0000 0.0000 4.0580 0.0000 18.1810
#
#
#
# Elastic Compliance Matrix: (Units=1/GPa)
#
#
# Indices 1 2 3 4 5 6 
#
# 1 0.019102 -0.000756 0.000181 0.000000 -0.009487 0.000000
# 2 -0.000756 0.007119 -0.002779 0.000000 -0.000240 0.000000
# 3 0.000181 -0.002779 0.008951 0.000000 -0.009852 0.000000
# 4 0.000000 0.000000 0.000000 -0.195032 -0.000001 0.043532
# 5 -0.009487 -0.000240 -0.009852 -0.000001 0.044261 0.000000
# 6 0.000000 0.000000 0.000000 0.043532 0.000000 0.045286
#
#
# Mechanical properties :
#
#
# Convention : Reuss Voigt Hill
#
# Bulk Modulus (GPa) = 35.13023 73.49903 54.31463
# Shear Modulus (GPa) = -92.39210 30.50792 -30.94209
#
# Velocity S-wave (km/s) = -6.28198 3.60982 -3.63542
# Velocity P-wave (km/s) = 6.13291 6.98341 2.36171
#
# Compressibility (1/GPa) = 0.02846552
#
# Stress axis : x y z
#
# Youngs Moduli (GPa) = 52.34925 140.46822 111.72104
#
# Poissons Ratio (x) = 0.10621 -0.02027
# Poissons Ratio (y) = 0.03958 0.31044
# Poissons Ratio (z) = -0.00950 0.39032
#
# Static dielectric constant tensor:
#      x y z
#    x 2.090330 0.000000 -0.086900 
#    y 0.000000 2.027130 0.000000 
#    z -0.086900 0.000000 1.852840 
# 
# From -- ./inp_files/115132.got.cif
#   From: 2010.05.17/outbox.cif.g08.bks.cpg/sg15_58_cif.got.tgz:115132.got - 2010.06.03 18:47:42.
