data_PCOD9291452
_publ_section_title
;
Structure prediction by ZEFSAII (Michael W. Deem and Ramdas Pophale) SiO2 
 PCOD9291452
Probable space group: C 2/C
;
_chemical_formula_sum "Si O2"
_cell_formula_units_Z 64
_cell_length_a 26.530786
_cell_length_b 5.138671
_cell_length_c 21.753297
_cell_angle_alpha 90.000000
_cell_angle_beta 112.604059
_cell_angle_gamma 90.000000
_cell_volume 2737.876241
_symmetry_space_group_name_H-M "C 2/C"
_symmetry_group_IT_number 15
_symmetry_cell_setting 'monoclinic'
loop_
_space_group_symop_operation_xyz
x,y,z
-x,y,1/2-z
-x,-y,-z
x,-y,1/2+z
1/2+x,1/2+y,z
1/2-x,1/2+y,1/2-z
1/2-x,1/2-y,-z
1/2+x,1/2-y,1/2+z
loop_
_atom_site_type_symbol
_atom_site_label
_atom_site_fract_x
_atom_site_fract_y
_atom_site_fract_z
Si Si1 0.132115 0.898386 0.839235
Si Si2 0.772051 0.418032 0.068115
Si Si3 0.369572 0.239390 0.065342
Si Si4 0.324137 0.469429 0.379787
Si Si5 0.560973 0.189693 0.649418
Si Si6 0.461309 0.947629 0.182837
Si Si7 0.112650 0.459506 0.061188
Si Si8 0.130158 0.810396 0.216711
O O1 0.129064 0.966376 0.910945
O O2 0.142506 0.117422 0.792869
O O3 0.184885 0.719171 0.865599
O O4 0.073528 0.772316 0.798481
O O5 0.808909 0.643046 0.054445
O O6 0.722744 0.479178 0.090951
O O7 0.750000 0.250000 0.000000
O O8 0.415080 0.120146 0.131345
O O9 0.386335 0.152843 0.006344
O O10 0.343678 0.767548 0.385033
O O11 0.319849 0.359519 0.307758
O O12 0.368461 0.258334 0.426746
O O13 0.501750 0.164891 0.651107
O O14 0.559946 0.105169 0.577248
O O15 0.585802 0.475210 0.672319
O O16 0.602422 0.971159 0.697157
O O17 0.500000 0.089461 0.250000
#
# Coordination Sequence:
#
# PCOD9291452 Si02
#       8
#     8   8   8   8   8   8   8   8
#     4  11  25  40  63 101 130 172 223 279 314 401
#     4  11  23  42  66  94 132 174 223 266 337 384
#     4  11  25  39  66  98 130 171 221 278 315 401
#     4  10  22  42  69  94 128 181 208 275 330 393
#     4  10  22  42  70  95 130 179 209 275 327 394
#     4  11  23  41  66  94 130 173 217 264 334 382
#     4  10  22  42  67  98 132 166 226 264 330 389
#     4  10  22  44  66  96 134 167 226 265 332 388
#
# _framework density 23.375779999999999
#
# number of rings (size 3 to 8) (size 9 to 14) (size 15 to 20)
#    0.000    1.500    2.500    1.500    7.000    2.000 
#    2.250    0.625    0.000    0.000    0.000    0.000 
#    0.000    0.000    0.000    0.000    0.000    0.000 
#
# Total GULP energy -178549.932274 kJ/mol
# GULP energy per Si atom -5579.685384 kJ/mol
# Density = 2.332258 g / cm^3
# Si number density = 23.375780 Si / 1000 Ang^3
#
#
#
# Elastic Constant Matrix: (Units=GPa)
#
#
# Indices 1 2 3 4 5 6 
#
# 1 128.1852 9.2015 41.0841 0.0000 -22.8659 -0.0002
# 2 9.2015 70.9387 5.9656 -0.0040 3.6094 0.0027
# 3 41.0841 5.9656 86.7554 0.0002 -26.1374 -0.0001
# 4 0.0000 -0.0040 0.0002 30.5009 0.0000 -8.6602
# 5 -22.8659 3.6094 -26.1374 0.0000 45.1926 0.0001
# 6 -0.0002 0.0027 -0.0001 -8.6602 0.0001 18.7858
#
#
#
# Elastic Compliance Matrix: (Units=1/GPa)
#
#
# Indices 1 2 3 4 5 6 
#
# 1 0.009534 -0.001079 -0.003586 0.000000 0.002836 0.000000
# 2 -0.001079 0.014460 -0.001206 0.000002 -0.002398 -0.000001
# 3 -0.003586 -0.001206 0.015489 0.000000 0.007240 0.000000
# 4 0.000000 0.000002 0.000000 0.037724 0.000000 0.017390
# 5 0.002836 -0.002398 0.007240 0.000000 0.027941 0.000000
# 6 0.000000 -0.000001 0.000000 0.017390 0.000000 0.061248
#
#
# Mechanical properties :
#
#
# Convention : Reuss Voigt Hill
#
# Bulk Modulus (GPa) = 36.04852 44.26463 40.15658
# Shear Modulus (GPa) = 26.68284 34.20440 30.44362
#
# Velocity S-wave (km/s) = 3.38224 3.82938 3.61273
# Velocity P-wave (km/s) = 5.54143 6.20721 5.88375
#
# Compressibility (1/GPa) = 0.02774039
#
# Stress axis : x y z
#
# Youngs Moduli (GPa) = 104.88768 69.15573 64.56123
#
# Poissons Ratio (x) = 0.07464 0.23154
# Poissons Ratio (y) = 0.11321 0.07784
# Poissons Ratio (z) = 0.37616 0.08338
#
# Static dielectric constant tensor:
#      x y z
#    x 1.876840 0.000000 -0.041580 
#    y 0.000000 1.945030 0.000000 
#    z -0.041580 0.000000 1.955890 
# 
# From -- ./inp_files/281205.got.cif
#   From: 2010.05.17/outbox.cif.g08.bks.cpg/sg15_141_cif.got.tgz:281205.got - 2010.06.03 18:47:42.
