data_PCOD9291348
_publ_section_title
;
Structure prediction by ZEFSAII (Michael W. Deem and Ramdas Pophale) SiO2 
 PCOD9291348
Probable space group: C 2/C
;
_chemical_formula_sum "Si O2"
_cell_formula_units_Z 40
_cell_length_a 22.192308
_cell_length_b 8.780500
_cell_length_c 9.556297
_cell_angle_alpha 90.000000
_cell_angle_beta 76.800263
_cell_angle_gamma 90.000000
_cell_volume 1812.938113
_symmetry_space_group_name_H-M "C 2/C"
_symmetry_group_IT_number 15
_symmetry_cell_setting 'monoclinic'
loop_
_space_group_symop_operation_xyz
x,y,z
-x,y,1/2-z
-x,-y,-z
x,-y,1/2+z
1/2+x,1/2+y,z
1/2-x,1/2+y,1/2-z
1/2-x,1/2-y,-z
1/2+x,1/2-y,1/2+z
loop_
_atom_site_type_symbol
_atom_site_label
_atom_site_fract_x
_atom_site_fract_y
_atom_site_fract_z
Si Si1 0.039069 0.402527 0.367514
Si Si2 0.833196 0.441814 0.714107
Si Si3 0.064001 0.914203 0.000370
Si Si4 0.757365 0.433062 0.010150
Si Si5 0.361245 0.409068 0.262445
O O1 0.100292 0.489873 0.284956
O O2 0.058573 0.252296 0.439010
O O3 0.000000 0.365058 0.250000
O O4 0.000000 0.500000 0.500000
O O5 0.813703 0.510821 0.576432
O O6 0.841492 0.259869 0.722893
O O7 0.777555 0.489769 0.847453
O O8 0.117029 0.998702 0.883423
O O9 0.083207 0.904409 0.152665
O O10 0.000000 0.000000 0.000000
O O11 0.695187 0.483985 0.120935
O O12 0.750000 0.250000 0.000000
#
# Coordination Sequence:
#
# PCOD9291348 Si02
#       5
#     8   8   8   8   8
#     4  12  24  41  65  96 130 173 222 274 330 395
#     4  11  23  43  68  96 131 174 220 271 327 392
#     4  12  25  44  66  96 134 174 220 274 332 393
#     4  10  22  42  66  97 131 171 219 272 327 391
#     4  11  24  44  66  95 131 174 218 271 330 393
#
# _framework density 22.063632999999999
#
# number of rings (size 3 to 8) (size 9 to 14) (size 15 to 20)
#    0.000    0.800    0.000    9.000    0.000    3.200 
#    0.000    6.000    0.000    0.000    0.000    0.000 
#    0.000    0.000    0.000    0.000    0.000    0.000 
#
# Total GULP energy -111858.239725 kJ/mol
# GULP energy per Si atom -5592.911986 kJ/mol
# Density = 2.201341 g / cm^3
# Si number density = 22.063633 Si / 1000 Ang^3
#
#
#
# Elastic Constant Matrix: (Units=GPa)
#
#
# Indices 1 2 3 4 5 6 
#
# 1 81.1703 20.1615 9.7535 0.0000 -3.8090 0.0000
# 2 20.1615 85.0717 27.4190 0.0000 -5.5279 0.0000
# 3 9.7535 27.4190 99.3111 0.0000 10.7770 0.0000
# 4 0.0000 0.0000 0.0000 26.7374 0.0000 2.5551
# 5 -3.8090 -5.5279 10.7770 0.0000 65.3136 0.0000
# 6 0.0000 0.0000 0.0000 2.5551 0.0000 38.1526
#
#
#
# Elastic Compliance Matrix: (Units=1/GPa)
#
#
# Indices 1 2 3 4 5 6 
#
# 1 0.013134 -0.002893 -0.000558 0.000000 0.000613 0.000000
# 2 -0.002893 0.013731 -0.003680 0.000000 0.001601 0.000000
# 3 -0.000558 -0.003680 0.011381 0.000000 -0.002222 0.000000
# 4 0.000000 0.000000 0.000000 0.037642 0.000000 -0.002521
# 5 0.000613 0.001601 -0.002222 0.000000 0.015849 0.000000
# 6 0.000000 0.000000 0.000000 -0.002521 0.000000 0.026379
#
#
# Mechanical properties :
#
#
# Convention : Reuss Voigt Hill
#
# Bulk Modulus (GPa) = 41.69508 42.24679 41.97093
# Shear Modulus (GPa) = 35.61932 39.92198 37.77065
#
# Velocity S-wave (km/s) = 4.02231 4.25832 4.14200
# Velocity P-wave (km/s) = 6.36479 6.58536 6.47602
#
# Compressibility (1/GPa) = 0.02398364
#
# Stress axis : x y z
#
# Youngs Moduli (GPa) = 76.13723 72.82948 87.86247
#
# Poissons Ratio (x) = 0.21071 0.04900
# Poissons Ratio (y) = 0.22028 0.32338
# Poissons Ratio (z) = 0.04246 0.26805
#
# Static dielectric constant tensor:
#      x y z
#    x 1.844570 0.000000 -0.011250 
#    y 0.000000 1.806710 0.000000 
#    z -0.011250 0.000000 1.798200 
# 
# From -- ./inp_files/59957.got.cif
#   From: 2010.05.17/outbox.cif.g08.bks.cpg/sg15_30_cif.got.tgz:59957.got - 2010.06.03 18:47:42.
