data_PCOD9291678
_publ_section_title
;
Structure prediction by ZEFSAII (Michael W. Deem and Ramdas Pophale) SiO2 
 PCOD9291678
Probable space group: C 2/C
;
_chemical_formula_sum "Si O2"
_cell_formula_units_Z 52
_cell_length_a 26.842366
_cell_length_b 7.658834
_cell_length_c 11.901406
_cell_angle_alpha 90.000000
_cell_angle_beta 63.359479
_cell_angle_gamma 90.000000
_cell_volume 2186.956868
_symmetry_space_group_name_H-M "C 2/C"
_symmetry_group_IT_number 15
_symmetry_cell_setting 'monoclinic'
loop_
_space_group_symop_operation_xyz
x,y,z
-x,y,1/2-z
-x,-y,-z
x,-y,1/2+z
1/2+x,1/2+y,z
1/2-x,1/2+y,1/2-z
1/2-x,1/2-y,-z
1/2+x,1/2-y,1/2+z
loop_
_atom_site_type_symbol
_atom_site_label
_atom_site_fract_x
_atom_site_fract_y
_atom_site_fract_z
Si Si1 0.937554 0.703049 0.584634
Si Si2 0.243072 0.004412 0.721769
Si Si3 0.854118 0.178407 0.809266
Si Si4 0.937002 0.698823 0.040186
Si Si5 0.250000 0.250000 0.000000
Si Si6 0.828913 0.235714 0.076682
Si Si7 0.119361 0.789947 0.634519
O O1 0.938958 0.511088 0.528567
O O2 0.888346 0.806864 0.571176
O O3 0.918492 0.696989 0.733346
O O4 0.000269 0.770929 0.513291
O O5 0.199593 0.143332 0.713714
O O6 0.301914 0.100506 0.669287
O O7 0.246342 0.854247 0.625579
O O8 0.213658 0.927117 0.862614
O O9 0.901574 0.261060 0.686462
O O10 0.875329 0.992173 0.834019
O O11 0.835365 0.279029 0.939910
O O12 0.907272 0.772352 0.960401
O O13 0.317866 0.221004 0.928937
#
# Coordination Sequence:
#
# PCOD9291678 Si02
#       7
#     8   8   8   8   4   8   8
#     4  11  26  48  71 104 138 192 245 288 355 422
#     4  11  26  43  69 104 141 183 225 292 358 425
#     4  11  26  45  70 106 141 183 239 286 365 421
#     4  11  27  47  74 100 145 190 239 297 350 418
#     4  10  22  42  70 102 136 176 228 284 352 414
#     4  12  26  45  71 106 141 185 235 294 353 432
#     4  11  24  48  71 104 145 185 232 298 352 421
#
# _framework density 23.777332999999999
#
# number of rings (size 3 to 8) (size 9 to 14) (size 15 to 20)
#    0.000    0.923    3.077    2.769   12.923    1.231 
#    2.769    0.000    0.000    0.000    0.000    0.000 
#    0.000    0.000    0.000    0.000    0.000    0.000 
#
# Total GULP energy -145178.866497 kJ/mol
# GULP energy per Si atom -5583.802558 kJ/mol
# Density = 2.372321 g / cm^3
# Si number density = 23.777333 Si / 1000 Ang^3
#
#
#
# Elastic Constant Matrix: (Units=GPa)
#
#
# Indices 1 2 3 4 5 6 
#
# 1 111.1463 13.3487 64.4147 0.0000 -7.8609 0.0000
# 2 13.3487 35.3465 -0.7799 0.0000 4.7716 0.0000
# 3 64.4147 -0.7799 137.3178 0.0000 -16.3410 0.0000
# 4 0.0000 0.0000 0.0000 37.4656 0.0000 0.4640
# 5 -7.8609 4.7716 -16.3410 0.0000 27.8260 0.0000
# 6 0.0000 0.0000 0.0000 0.4640 0.0000 12.0194
#
#
#
# Elastic Compliance Matrix: (Units=1/GPa)
#
#
# Indices 1 2 3 4 5 6 
#
# 1 0.013254 -0.005283 -0.006122 0.000000 0.001055 0.000000
# 2 -0.005283 0.031094 0.001981 0.000000 -0.005661 0.000000
# 3 -0.006122 0.001981 0.010664 0.000000 0.004194 0.000000
# 4 0.000000 0.000000 0.000000 0.026704 0.000000 -0.001031
# 5 0.001055 -0.005661 0.004194 0.000000 0.039669 0.000000
# 6 0.000000 0.000000 0.000000 -0.001031 0.000000 0.083238
#
#
# Mechanical properties :
#
#
# Convention : Reuss Voigt Hill
#
# Bulk Modulus (GPa) = 27.65062 48.64196 38.14629
# Shear Modulus (GPa) = 21.22898 29.25068 25.23983
#
# Velocity S-wave (km/s) = 2.99126 3.51121 3.26161
# Velocity P-wave (km/s) = 4.85638 6.07782 5.50110
#
# Compressibility (1/GPa) = 0.03616555
#
# Stress axis : x y z
#
# Youngs Moduli (GPa) = 75.44773 32.16008 93.76993
#
# Poissons Ratio (x) = 0.16990 0.57405
# Poissons Ratio (y) = 0.39859 -0.18577
# Poissons Ratio (z) = 0.46188 -0.06371
#
# Static dielectric constant tensor:
#      x y z
#    x 1.860740 0.000000 -0.006190 
#    y 0.000000 1.991290 0.000000 
#    z -0.006190 0.000000 1.876910 
# 
# From -- ./inp_files/121812.got.cif
#   From: 2010.05.17/outbox.cif.g08.bks.cpg/sg15_61_cif.got.tgz:121812.got - 2010.06.03 18:47:42.
