data_PCOD9291478
_publ_section_title
;
Structure prediction by ZEFSAII (Michael W. Deem and Ramdas Pophale) SiO2 
 PCOD9291478
Probable space group: C 2/C
;
_chemical_formula_sum "Si O2"
_cell_formula_units_Z 60
_cell_length_a 15.009162
_cell_length_b 25.013969
_cell_length_c 16.320585
_cell_angle_alpha 90.000000
_cell_angle_beta 26.015918
_cell_angle_gamma 90.000000
_cell_volume 2687.596276
_symmetry_space_group_name_H-M "C 2/C"
_symmetry_group_IT_number 15
_symmetry_cell_setting 'monoclinic'
loop_
_space_group_symop_operation_xyz
x,y,z
-x,y,1/2-z
-x,-y,-z
x,-y,1/2+z
1/2+x,1/2+y,z
1/2-x,1/2+y,1/2-z
1/2-x,1/2-y,-z
1/2+x,1/2-y,1/2+z
loop_
_atom_site_type_symbol
_atom_site_label
_atom_site_fract_x
_atom_site_fract_y
_atom_site_fract_z
Si Si1 0.215918 0.601212 0.837320
Si Si2 0.000000 0.394347 0.250000
Si Si3 0.317439 0.197877 0.995480
Si Si4 0.234593 0.049988 0.540803
Si Si5 0.671677 0.678021 0.297711
Si Si6 0.325355 0.424701 0.594808
Si Si7 0.422416 0.973274 0.176153
Si Si8 0.754812 0.708242 0.774214
O O1 0.217413 0.595247 0.932662
O O2 0.434444 0.582073 0.620578
O O3 0.060420 0.561344 0.920456
O O4 0.190863 0.662145 0.834030
O O5 0.163130 0.355372 0.073775
O O6 0.117237 0.429796 0.220138
O O7 0.796880 0.180001 0.326489
O O8 0.547637 0.211198 0.832426
O O9 0.250000 0.250000 0.000000
O O10 0.263667 0.070859 0.424613
O O11 0.000000 0.034517 0.750000
O O12 0.377903 0.002157 0.453067
O O13 0.733773 0.624930 0.297071
O O14 0.438497 0.688725 0.515190
O O15 0.783914 0.733273 0.230814
O O16 0.248542 0.481320 0.693000
#
# Coordination Sequence:
#
# PCOD9291478 Si02
#       8
#     8   4   8   8   8   8   8   8
#     4  10  23  41  71  97 143 188 241 304 374 430
#     4  12  26  44  68 104 146 186 246 300 350 432
#     4  12  27  45  69  98 145 191 237 292 362 427
#     4  10  22  42  68 102 142 188 240 304 368 429
#     4  11  25  44  70  99 139 190 239 289 370 426
#     4  10  23  43  67 105 140 186 245 303 363 443
#     4  12  22  42  69 101 146 187 237 304 368 437
#     4  11  23  44  68 102 137 184 244 301 345 446
#
# _framework density 22.324781000000002
#
# number of rings (size 3 to 8) (size 9 to 14) (size 15 to 20)
#    0.000    1.067    4.000    1.600    1.867    1.600 
#    0.000    3.333    2.933    3.200    0.000    0.000 
#    0.000    0.000    0.000    0.000    0.000    0.000 
#
# Total GULP energy -167654.972331 kJ/mol
# GULP energy per Si atom -5588.499078 kJ/mol
# Density = 2.227397 g / cm^3
# Si number density = 22.324781 Si / 1000 Ang^3
#
#
#
# Elastic Constant Matrix: (Units=GPa)
#
#
# Indices 1 2 3 4 5 6 
#
# 1 104.5618 71.2469 40.4413 0.0745 16.3603 0.0070
# 2 71.2469 181.0170 42.9870 0.0883 16.2642 -0.0220
# 3 40.4413 42.9870 85.5178 0.0461 10.6566 -0.0149
# 4 0.0745 0.0883 0.0461 22.6475 -0.0496 3.2052
# 5 16.3603 16.2642 10.6566 -0.0496 44.2067 0.0238
# 6 0.0070 -0.0220 -0.0149 3.2052 0.0238 55.1774
#
#
#
# Elastic Compliance Matrix: (Units=1/GPa)
#
#
# Indices 1 2 3 4 5 6 
#
# 1 0.014768 -0.004529 -0.004365 -0.000028 -0.002747 -0.000002
# 2 -0.004529 0.007773 -0.001668 -0.000014 -0.000782 0.000004
# 3 -0.004365 -0.001668 0.014762 -0.000013 -0.001329 0.000005
# 4 -0.000028 -0.000014 -0.000013 0.044521 0.000070 -0.002586
# 5 -0.002747 -0.000782 -0.001329 0.000070 0.024246 -0.000015
# 6 -0.000002 0.000004 0.000005 -0.002586 -0.000015 0.018274
#
#
# Mechanical properties :
#
#
# Convention : Reuss Voigt Hill
#
# Bulk Modulus (GPa) = 61.80916 75.60521 68.70719
# Shear Modulus (GPa) = 33.14319 38.83441 35.98880
#
# Velocity S-wave (km/s) = 3.85722 4.17528 4.01940
# Velocity P-wave (km/s) = 6.89811 7.56198 7.23766
#
# Compressibility (1/GPa) = 0.01617883
#
# Stress axis : x y z
#
# Youngs Moduli (GPa) = 67.71506 128.64439 67.74266
#
# Poissons Ratio (x) = 0.58265 0.29568
# Poissons Ratio (y) = 0.30669 0.11301
# Poissons Ratio (z) = 0.29556 0.21460
#
# Static dielectric constant tensor:
#      x y z
#    x 1.840240 -0.000030 0.008740 
#    y -0.000030 1.861980 0.000080 
#    z 0.008740 0.000080 1.924200 
# 
# From -- ./inp_files/207237.got.cif
#   From: 2010.05.17/outbox.cif.g08.bks.cpg/sg15_104_cif.got.tgz:207237.got - 2010.06.03 18:47:42.
