data_PCOD9291016
_publ_section_title
;
Structure prediction by ZEFSAII (Michael W. Deem and Ramdas Pophale) SiO2 
 PCOD9291016
Probable space group: C 2/C
;
_chemical_formula_sum "Si O2"
_cell_formula_units_Z 48
_cell_length_a 8.418578
_cell_length_b 22.906700
_cell_length_c 20.589369
_cell_angle_alpha 90.000000
_cell_angle_beta 140.450562
_cell_angle_gamma 90.000000
_cell_volume 2528.185984
_symmetry_space_group_name_H-M "C 2/C"
_symmetry_group_IT_number 15
_symmetry_cell_setting 'monoclinic'
loop_
_space_group_symop_operation_xyz
x,y,z
-x,y,1/2-z
-x,-y,-z
x,-y,1/2+z
1/2+x,1/2+y,z
1/2-x,1/2+y,1/2-z
1/2-x,1/2-y,-z
1/2+x,1/2-y,1/2+z
loop_
_atom_site_type_symbol
_atom_site_label
_atom_site_fract_x
_atom_site_fract_y
_atom_site_fract_z
Si Si1 0.584306 0.104267 0.661803
Si Si2 0.828222 0.982189 0.759721
Si Si3 0.500000 0.683182 0.750000
Si Si4 0.500000 0.195500 0.750000
Si Si5 0.546039 0.445031 0.967405
Si Si6 0.565284 0.883469 0.846050
Si Si7 0.495957 0.240737 0.380086
O O1 0.762326 0.140132 0.669749
O O2 0.526040 0.151864 0.698016
O O3 0.326849 0.078062 0.554737
O O4 0.738556 0.048977 0.737335
O O5 0.586099 0.940456 0.678519
O O6 0.000000 0.976428 0.750000
O O7 0.963078 0.962611 0.868589
O O8 0.499268 0.723775 0.686384
O O9 0.253744 0.235085 0.664755
O O10 0.359729 0.396129 0.937773
O O11 0.500000 0.500000 0.000000
O O12 0.500000 0.873588 0.750000
O O13 0.483417 0.827672 0.860535
O O14 0.750000 0.250000 0.500000
#
# Coordination Sequence:
#
# PCOD9291016 Si02
#       7
#     8   8   4   4   8   8   8
#     4  11  21  43  62  92 129 160 213 261 317 372
#     4  11  24  39  62  96 131 163 204 271 321 369
#     4  10  24  44  62  90 128 166 206 276 306 374
#     4  10  24  40  68  94 122 170 216 264 308 392
#     4  11  22  39  66  95 122 173 210 248 326 395
#     4  10  22  42  63  88 132 165 205 264 318 379
#     4  11  23  44  66  91 124 170 216 261 323 377
#
# _framework density 18.985944
#
# number of rings (size 3 to 8) (size 9 to 14) (size 15 to 20)
#    0.000    1.333    3.333    2.000    2.333    3.333 
#    3.000    2.500    0.000    0.000    0.000    0.000 
#    0.000    0.000    0.000    0.000    0.000    0.000 
#
# Total GULP energy -133981.754529 kJ/mol
# GULP energy per Si atom -5582.573105 kJ/mol
# Density = 1.894273 g / cm^3
# Si number density = 18.985944 Si / 1000 Ang^3
#
#
#
# Elastic Constant Matrix: (Units=GPa)
#
#
# Indices 1 2 3 4 5 6 
#
# 1 95.9139 31.3357 32.1601 0.0000 10.0042 0.0000
# 2 31.3357 104.7682 16.0708 0.0000 1.5457 0.0000
# 3 32.1601 16.0708 77.4312 -0.0001 18.8698 0.0000
# 4 0.0000 0.0000 -0.0001 19.7186 0.0000 9.4758
# 5 10.0042 1.5457 18.8698 0.0000 25.0251 0.0000
# 6 0.0000 0.0000 0.0000 9.4758 0.0000 42.3683
#
#
#
# Elastic Compliance Matrix: (Units=1/GPa)
#
#
# Indices 1 2 3 4 5 6 
#
# 1 0.013125 -0.003232 -0.004350 0.000000 -0.001767 0.000000
# 2 -0.003232 0.010682 -0.001260 0.000000 0.001583 0.000000
# 3 -0.004350 -0.001260 0.017813 0.000000 -0.011615 0.000000
# 4 0.000000 0.000000 0.000000 0.056820 0.000000 -0.012708
# 5 -0.001767 0.001583 -0.011615 0.000000 0.049327 0.000000
# 6 0.000000 0.000000 0.000000 -0.012708 0.000000 0.026445
#
#
# Mechanical properties :
#
#
# Convention : Reuss Voigt Hill
#
# Bulk Modulus (GPa) = 41.77867 48.58296 45.18081
# Shear Modulus (GPa) = 25.01567 30.65884 27.83726
#
# Velocity S-wave (km/s) = 3.63380 4.02284 3.83326
# Velocity P-wave (km/s) = 6.29752 6.87183 6.59094
#
# Compressibility (1/GPa) = 0.02393566
#
# Stress axis : x y z
#
# Youngs Moduli (GPa) = 76.19143 93.61900 56.13733
#
# Poissons Ratio (x) = 0.30260 0.24418
# Poissons Ratio (y) = 0.24627 0.07074
# Poissons Ratio (z) = 0.33141 0.11797
#
# Static dielectric constant tensor:
#      x y z
#    x 1.701540 0.000000 0.007960 
#    y 0.000000 1.642120 0.000000 
#    z 0.007960 0.000000 1.662200 
# 
# From -- ./inp_files/79309.got.cif
#   From: 2010.05.17/outbox.cif.g08.bks.cpg/sg15_40_cif.got.tgz:79309.got - 2010.06.03 18:47:42.
