data_PCOD9291893
_publ_section_title
;
Structure prediction by ZEFSAII (Michael W. Deem and Ramdas Pophale) SiO2 
 PCOD9291893
Probable space group: C 2/C
;
_chemical_formula_sum "Si O2"
_cell_formula_units_Z 36
_cell_length_a 21.757951
_cell_length_b 9.878841
_cell_length_c 13.465750
_cell_angle_alpha 90.000000
_cell_angle_beta 32.584091
_cell_angle_gamma 90.000000
_cell_volume 1558.726644
_symmetry_space_group_name_H-M "C 2/C"
_symmetry_group_IT_number 15
_symmetry_cell_setting 'monoclinic'
loop_
_space_group_symop_operation_xyz
x,y,z
-x,y,1/2-z
-x,-y,-z
x,-y,1/2+z
1/2+x,1/2+y,z
1/2-x,1/2+y,1/2-z
1/2-x,1/2-y,-z
1/2+x,1/2-y,1/2+z
loop_
_atom_site_type_symbol
_atom_site_label
_atom_site_fract_x
_atom_site_fract_y
_atom_site_fract_z
Si Si1 0.000000 0.488582 0.250000
Si Si2 0.212130 0.908560 0.941285
Si Si3 0.152361 0.670618 0.698447
Si Si4 0.903664 0.909499 0.583696
Si Si5 0.240800 0.383636 0.393884
O O1 0.893890 0.586706 0.419239
O O2 0.946056 0.391287 0.238480
O O3 0.204577 0.891315 0.070061
O O4 0.097227 0.912947 0.033685
O O5 0.286036 0.043785 0.833717
O O6 0.250000 0.750000 0.500000
O O7 0.102476 0.768662 0.850394
O O8 0.209828 0.992921 0.734556
O O9 0.767126 0.268964 0.824446
O O10 0.000000 0.000000 0.500000
#
# Coordination Sequence:
#
# PCOD9291893 Si02
#       5
#     4   8   8   8   8
#     4  10  22  42  76  94 136 190 238 284 362 422
#     4  10  23  44  69  92 138 177 231 290 342 422
#     4  11  23  45  70  98 139 189 228 295 355 423
#     4  12  26  40  68 106 136 183 235 287 352 425
#     4  10  23  46  66  97 135 181 233 293 356 405
#
# _framework density 23.095775
#
# number of rings (size 3 to 8) (size 9 to 14) (size 15 to 20)
#    0.000    1.333    4.444    1.333    3.111    8.000 
#    0.000    6.667    0.000    0.000    0.000    0.000 
#    0.000    0.000    0.000    0.000    0.000    0.000 
#
# Total GULP energy -100500.458094 kJ/mol
# GULP energy per Si atom -5583.358783 kJ/mol
# Density = 2.304321 g / cm^3
# Si number density = 23.095775 Si / 1000 Ang^3
#
#
#
# Elastic Constant Matrix: (Units=GPa)
#
#
# Indices 1 2 3 4 5 6 
#
# 1 210.4240 70.4785 32.8372 0.0000 -11.7504 0.0000
# 2 70.4785 195.7052 29.3829 0.0000 -2.7548 0.0000
# 3 32.8372 29.3829 61.6553 0.0000 -14.0334 0.0000
# 4 0.0000 0.0000 0.0000 1.9592 0.0000 7.8756
# 5 -11.7504 -2.7548 -14.0334 0.0000 23.5888 0.0000
# 6 0.0000 0.0000 0.0000 7.8756 0.0000 30.7268
#
#
#
# Elastic Compliance Matrix: (Units=1/GPa)
#
#
# Indices 1 2 3 4 5 6 
#
# 1 0.005717 -0.001758 -0.001857 0.000000 0.001538 0.000000
# 2 -0.001758 0.006067 -0.002305 0.000000 -0.001539 0.000000
# 3 -0.001857 -0.002305 0.020860 0.000000 0.011216 0.000000
# 4 0.000000 0.000000 0.000000-16.830960 0.000000 4.313970
# 5 0.001538 -0.001539 0.011216 0.000000 0.049652 0.000000
# 6 0.000000 0.000000 0.000000 4.313970 0.000000 -1.073176
#
#
# Mechanical properties :
#
#
# Convention : Reuss Voigt Hill
#
# Bulk Modulus (GPa) = 48.07004 81.46464 64.76734
# Shear Modulus (GPa) = -0.28085 33.59401 16.65658
#
# Velocity S-wave (km/s) = -0.34909 3.81800 2.68842
# Velocity P-wave (km/s) = 4.54929 7.40170 6.14334
#
# Compressibility (1/GPa) = 0.02080298
#
# Stress axis : x y z
#
# Youngs Moduli (GPa) = 174.92062 164.81483 47.93973
#
# Poissons Ratio (x) = 0.28981 0.08901
# Poissons Ratio (y) = 0.30758 0.11051
# Poissons Ratio (z) = 0.32479 0.37994
#
# Static dielectric constant tensor:
#      x y z
#    x 1.908270 0.000000 0.011140 
#    y 0.000000 1.883160 0.000000 
#    z 0.011140 0.000000 1.996400 
# 
# From -- ./inp_files/221423.got.cif
#   From: 2010.05.17/outbox.cif.g08.bks.cpg/sg15_111_cif.got.tgz:221423.got - 2010.06.03 18:47:42.
