data_PCOD9291454
_publ_section_title
;
Structure prediction by ZEFSAII (Michael W. Deem and Ramdas Pophale) SiO2 
 PCOD9291454
Probable space group: C 2/C
;
_chemical_formula_sum "Si O2"
_cell_formula_units_Z 40
_cell_length_a 5.784329
_cell_length_b 28.232581
_cell_length_c 11.152395
_cell_angle_alpha 90.000000
_cell_angle_beta 86.177644
_cell_angle_gamma 90.000000
_cell_volume 1817.207677
_symmetry_space_group_name_H-M "C 2/C"
_symmetry_group_IT_number 15
_symmetry_cell_setting 'monoclinic'
loop_
_space_group_symop_operation_xyz
x,y,z
-x,y,1/2-z
-x,-y,-z
x,-y,1/2+z
1/2+x,1/2+y,z
1/2-x,1/2+y,1/2-z
1/2-x,1/2-y,-z
1/2+x,1/2-y,1/2+z
loop_
_atom_site_type_symbol
_atom_site_label
_atom_site_fract_x
_atom_site_fract_y
_atom_site_fract_z
Si Si1 0.000000 0.443636 0.250000
Si Si2 0.500000 0.343357 0.250000
Si Si3 0.542900 0.617251 0.385162
Si Si4 0.365015 0.484538 0.626970
Si Si5 0.648735 0.123046 0.567710
Si Si6 0.788276 0.696412 0.536196
O O1 0.831745 0.478416 0.329575
O O2 0.051510 0.407615 0.360040
O O3 0.652135 0.373495 0.337421
O O4 0.326941 0.311082 0.330930
O O5 0.500000 0.629862 0.250000
O O6 0.700755 0.570355 0.390442
O O7 0.292135 0.603914 0.450563
O O8 0.654828 0.660960 0.450742
O O9 0.500000 0.483209 0.750000
O O10 0.500000 0.500000 0.500000
O O11 0.545254 0.174304 0.538309
O O12 0.750000 0.750000 0.500000
#
# Coordination Sequence:
#
# PCOD9291454 Si02
#       6
#     4   4   8   8   8   8
#     4  12  24  40  75 100 134 185 240 284 362 420
#     4  10  22  42  67  98 136 167 236 284 342 416
#     4  10  25  46  64  99 148 179 228 295 352 423
#     4  11  26  43  67 102 141 186 238 294 357 430
#     4  11  23  42  72  99 135 184 228 292 348 414
#     4  11  25  42  71 100 134 180 232 288 355 422
#
# _framework density 22.011794999999999
#
# number of rings (size 3 to 8) (size 9 to 14) (size 15 to 20)
#    0.000    1.200    4.000    0.000    4.200   11.200 
#    0.000    0.000    0.000    0.000    0.000    0.000 
#    0.000    0.000    0.000    0.000    0.000    0.000 
#
# Total GULP energy -111496.970480 kJ/mol
# GULP energy per Si atom -5574.848524 kJ/mol
# Density = 2.196169 g / cm^3
# Si number density = 22.011795 Si / 1000 Ang^3
#
#
#
# Elastic Constant Matrix: (Units=GPa)
#
#
# Indices 1 2 3 4 5 6 
#
# 1 50.8467 19.8184 30.7280 0.0000 -7.8351 0.0000
# 2 19.8184 156.2734 35.5566 0.0000 -1.9154 0.0000
# 3 30.7280 35.5566 171.2809 0.0000 -17.0548 0.0000
# 4 0.0000 0.0000 0.0000 26.3920 0.0000 5.1936
# 5 -7.8351 -1.9154 -17.0548 0.0000 35.4777 0.0000
# 6 0.0000 0.0000 0.0000 5.1936 0.0000 25.8708
#
#
#
# Elastic Compliance Matrix: (Units=1/GPa)
#
#
# Indices 1 2 3 4 5 6 
#
# 1 0.023040 -0.002116 -0.003360 0.000000 0.003359 0.000000
# 2 -0.002116 0.006914 -0.001119 0.000000 -0.000632 0.000000
# 3 -0.003360 -0.001119 0.006925 0.000000 0.002527 0.000000
# 4 0.000000 0.000000 0.000000 0.039449 0.000000 -0.007919
# 5 0.003359 -0.000632 0.002527 0.000000 0.030109 0.000000
# 6 0.000000 0.000000 0.000000 -0.007919 0.000000 0.040243
#
#
# Mechanical properties :
#
#
# Convention : Reuss Voigt Hill
#
# Bulk Modulus (GPa) = 42.21218 61.17856 51.69537
# Shear Modulus (GPa) = 29.80354 37.03464 33.41909
#
# Velocity S-wave (km/s) = 3.68364 4.10627 3.90068
# Velocity P-wave (km/s) = 6.10827 7.09477 6.61992
#
# Compressibility (1/GPa) = 0.02368985
#
# Stress axis : x y z
#
# Youngs Moduli (GPa) = 43.40342 144.63005 144.40739
#
# Poissons Ratio (x) = 0.30608 0.48514
# Poissons Ratio (y) = 0.09185 0.16153
# Poissons Ratio (z) = 0.14582 0.16178
#
# Static dielectric constant tensor:
#      x y z
#    x 1.907760 0.000000 0.006630 
#    y 0.000000 1.835970 0.000000 
#    z 0.006630 0.000000 1.787300 
# 
# From -- ./inp_files/73095.got.cif
#   From: 2010.05.17/outbox.cif.g08.bks.cpg/sg15_37_cif.got.tgz:73095.got - 2010.06.03 18:47:42.
