data_PCOD9291993
_publ_section_title
;
Structure prediction by ZEFSAII (Michael W. Deem and Ramdas Pophale) SiO2 
 PCOD9291993
Probable space group: C 2/C
;
_chemical_formula_sum "Si O2"
_cell_formula_units_Z 48
_cell_length_a 13.367492
_cell_length_b 13.327657
_cell_length_c 15.167073
_cell_angle_alpha 90.000000
_cell_angle_beta 60.228185
_cell_angle_gamma 90.000000
_cell_volume 2345.471476
_symmetry_space_group_name_H-M "C 2/C"
_symmetry_group_IT_number 15
_symmetry_cell_setting 'monoclinic'
loop_
_space_group_symop_operation_xyz
x,y,z
-x,y,1/2-z
-x,-y,-z
x,-y,1/2+z
1/2+x,1/2+y,z
1/2-x,1/2+y,1/2-z
1/2-x,1/2-y,-z
1/2+x,1/2-y,1/2+z
loop_
_atom_site_type_symbol
_atom_site_label
_atom_site_fract_x
_atom_site_fract_y
_atom_site_fract_z
Si Si1 0.310790 0.743402 0.222675
Si Si2 0.026772 0.053733 0.336262
Si Si3 0.127361 0.556195 0.723498
Si Si4 0.152249 0.006000 0.454162
Si Si5 0.936391 0.357876 0.683039
Si Si6 0.867353 0.760132 0.503406
O O1 0.400879 0.656040 0.210448
O O2 0.311412 0.840155 0.282462
O O3 0.183555 0.700079 0.267734
O O4 0.348928 0.778431 0.109686
O O5 0.000000 0.011249 0.250000
O O6 0.909082 0.063036 0.445645
O O7 0.104837 0.993059 0.374136
O O8 0.210412 0.503292 0.615123
O O9 0.103335 0.473890 0.810448
O O10 0.000000 0.584082 0.750000
O O11 0.116371 0.119591 0.495362
O O12 0.000000 0.356663 0.750000
O O13 0.027142 0.301786 0.581998
O O14 0.750000 0.750000 0.500000
#
# Coordination Sequence:
#
# PCOD9291993 Si02
#       6
#     8   8   8   8   8   8
#     4  11  24  40  64  98 130 167 225 269 326 391
#     4  10  22  43  64  96 130 168 227 267 319 395
#     4  11  23  45  65  93 134 172 206 272 340 383
#     4  10  23  43  70  94 129 179 218 268 326 398
#     4  11  22  41  67  92 132 174 212 275 332 381
#     4  11  21  40  64  95 128 167 221 271 327 390
#
# _framework density 20.464967999999999
#
# number of rings (size 3 to 8) (size 9 to 14) (size 15 to 20)
#    0.000    1.333    5.000    1.500    7.000    2.667 
#    3.000    1.667    0.000    0.000    0.000    0.000 
#    0.000    0.000    0.000    0.000    0.000    0.000 
#
# Total GULP energy -133743.009545 kJ/mol
# GULP energy per Si atom -5572.625398 kJ/mol
# Density = 2.041839 g / cm^3
# Si number density = 20.464968 Si / 1000 Ang^3
#
#
#
# Elastic Constant Matrix: (Units=GPa)
#
#
# Indices 1 2 3 4 5 6 
#
# 1 87.0822 24.5652 27.6437 0.0000 -14.1468 0.0000
# 2 24.5652 86.2480 9.3383 0.0000 -14.6250 0.0000
# 3 27.6437 9.3383 75.5996 0.0000 -10.6366 0.0000
# 4 0.0000 0.0000 0.0000 23.6062 0.0000 -14.7796
# 5 -14.1468 -14.6250 -10.6366 0.0000 39.8847 0.0000
# 6 0.0000 0.0000 0.0000 -14.7796 0.0000 16.7518
#
#
#
# Elastic Compliance Matrix: (Units=1/GPa)
#
#
# Indices 1 2 3 4 5 6 
#
# 1 0.014207 -0.003106 -0.004429 0.000000 0.002719 0.000000
# 2 -0.003106 0.013105 0.000040 0.000000 0.003714 0.000000
# 3 -0.004429 0.000040 0.015193 0.000000 0.002495 0.000000
# 4 0.000000 0.000000 0.000000 0.094637 0.000000 0.083495
# 5 0.002719 0.003714 0.002495 0.000000 0.028064 0.000000
# 6 0.000000 0.000000 0.000000 0.083495 0.000000 0.133360
#
#
# Mechanical properties :
#
#
# Convention : Reuss Voigt Hill
#
# Bulk Modulus (GPa) = 36.34406 41.33603 38.84005
# Shear Modulus (GPa) = 15.49289 28.54071 22.01680
#
# Velocity S-wave (km/s) = 2.75443 3.73850 3.28354
# Velocity P-wave (km/s) = 5.28333 6.23518 5.77889
#
# Compressibility (1/GPa) = 0.02751481
#
# Stress axis : x y z
#
# Youngs Moduli (GPa) = 70.38694 76.30898 65.81889
#
# Poissons Ratio (x) = 0.23701 0.29150
# Poissons Ratio (y) = 0.21861 -0.00260
# Poissons Ratio (z) = 0.31173 -0.00302
#
# Static dielectric constant tensor:
#      x y z
#    x 1.720650 0.000000 0.011590 
#    y 0.000000 2.051570 0.000000 
#    z 0.011590 0.000000 1.750170 
# 
# From -- ./inp_files/152432.got.cif
#   From: 2010.05.17/outbox.cif.g08.bks.cpg/sg15_77_cif.got.tgz:152432.got - 2010.06.03 18:47:42.
