data_PCOD9291334
_publ_section_title
;
Structure prediction by ZEFSAII (Michael W. Deem and Ramdas Pophale) SiO2 
 PCOD9291334
Probable space group: C 2/C
;
_chemical_formula_sum "Si O2"
_cell_formula_units_Z 60
_cell_length_a 7.631371
_cell_length_b 13.215963
_cell_length_c 28.162516
_cell_angle_alpha 90.000000
_cell_angle_beta 87.281897
_cell_angle_gamma 90.000000
_cell_volume 2837.160803
_symmetry_space_group_name_H-M "C 2/C"
_symmetry_group_IT_number 15
_symmetry_cell_setting 'monoclinic'
loop_
_space_group_symop_operation_xyz
x,y,z
-x,y,1/2-z
-x,-y,-z
x,-y,1/2+z
1/2+x,1/2+y,z
1/2-x,1/2+y,1/2-z
1/2-x,1/2-y,-z
1/2+x,1/2-y,1/2+z
loop_
_atom_site_type_symbol
_atom_site_label
_atom_site_fract_x
_atom_site_fract_y
_atom_site_fract_z
Si Si1 0.844554 0.642054 0.217094
Si Si2 0.406308 0.255145 0.849813
Si Si3 0.500000 0.531592 0.250000
Si Si4 0.071614 0.031826 0.347502
Si Si5 0.423597 0.516675 0.552840
Si Si6 0.536997 0.051615 0.050343
Si Si7 0.813834 0.752809 0.053269
Si Si8 0.979812 0.529460 0.849865
O O1 0.761118 0.723564 0.182178
O O2 0.678229 0.597364 0.247664
O O3 0.000000 0.676103 0.250000
O O4 0.918673 0.548687 0.184756
O O5 0.536044 0.349123 0.840884
O O6 0.335846 0.257338 0.904828
O O7 0.491731 0.147372 0.837379
O O8 0.497788 0.477822 0.301183
O O9 0.980208 0.010476 0.399362
O O10 0.273436 0.999572 0.348955
O O11 0.500000 0.500000 0.500000
O O12 0.246113 0.450317 0.553785
O O13 0.386826 0.635105 0.559092
O O14 0.452073 0.161807 0.055917
O O15 0.467544 0.986965 0.095884
O O16 0.500000 0.000000 0.000000
O O17 0.750000 0.750000 0.000000
#
# Coordination Sequence:
#
# PCOD9291334 Si02
#       8
#     8   8   4   8   8   8   8   8
#     4  11  23  45  73  97 145 181 231 296 346 408
#     4  11  23  43  69  99 134 181 228 280 350 411
#     4  10  22  42  70 102 136 186 226 284 350 410
#     4  10  22  42  66  95 140 170 230 285 334 410
#     4  11  24  41  65  96 137 173 227 290 336 417
#     4  11  22  38  66  96 129 179 224 272 346 409
#     4  12  21  39  67  94 133 179 222 278 349 407
#     4  11  22  45  68  98 137 178 232 284 343 417
#
# _framework density 21.147902999999999
#
# number of rings (size 3 to 8) (size 9 to 14) (size 15 to 20)
#    0.000    1.067    6.667    0.800    0.000    0.533 
#    6.000    9.333    0.000    0.000    0.000    0.000 
#    0.000    0.000    0.000    0.000    0.000    0.000 
#
# Total GULP energy -167416.208424 kJ/mol
# GULP energy per Si atom -5580.540281 kJ/mol
# Density = 2.109977 g / cm^3
# Si number density = 21.147903 Si / 1000 Ang^3
#
#
#
# Elastic Constant Matrix: (Units=GPa)
#
#
# Indices 1 2 3 4 5 6 
#
# 1 39.4433 1.3575 9.9744 0.0000 3.9953 0.0000
# 2 1.3575 114.6139 14.1533 0.0000 8.1932 0.0000
# 3 9.9744 14.1533 168.6509 0.0000 12.1896 0.0000
# 4 0.0000 0.0000 0.0000 21.8281 0.0000 -1.4940
# 5 3.9953 8.1932 12.1896 0.0000 41.6433 0.0000
# 6 0.0000 0.0000 0.0000 -1.4940 0.0000 40.2205
#
#
#
# Elastic Compliance Matrix: (Units=1/GPa)
#
#
# Indices 1 2 3 4 5 6 
#
# 1 0.025913 0.000013 -0.001383 0.000000 -0.002084 0.000000
# 2 0.000013 0.008915 -0.000636 0.000000 -0.001569 0.000000
# 3 -0.001383 -0.000636 0.006177 0.000000 -0.001550 0.000000
# 4 0.000000 0.000000 0.000000 0.045929 0.000000 0.001706
# 5 -0.002084 -0.001569 -0.001550 0.000000 0.024976 0.000000
# 6 0.000000 0.000000 0.000000 0.001706 0.000000 0.024926
#
#
# Mechanical properties :
#
#
# Convention : Reuss Voigt Hill
#
# Bulk Modulus (GPa) = 27.03156 41.51984 34.27570
# Shear Modulus (GPa) = 32.64146 40.55326 36.59736
#
# Velocity S-wave (km/s) = 3.93298 4.38379 4.16449
# Velocity P-wave (km/s) = 5.78225 6.73047 6.27430
#
# Compressibility (1/GPa) = 0.03699379
#
# Stress axis : x y z
#
# Youngs Moduli (GPa) = 38.59034 112.16480 161.90182
#
# Poissons Ratio (x) = -0.00144 0.22392
# Poissons Ratio (y) = -0.00050 0.10289
# Poissons Ratio (z) = 0.05337 0.07128
#
# Static dielectric constant tensor:
#      x y z
#    x 1.779400 0.000000 -0.000180 
#    y 0.000000 1.540950 0.000000 
#    z -0.000180 0.000000 1.887510 
# 
# From -- ./inp_files/307164.got.cif
#   From: 2010.05.17/outbox.cif.g08.bks.cpg/sg15_154_cif.got.tgz:307164.got - 2010.06.03 18:47:42.
