data_PCOD9291006
_publ_section_title
;
Structure prediction by ZEFSAII (Michael W. Deem and Ramdas Pophale) SiO2 
 PCOD9291006
Probable space group: C 2/C
;
_chemical_formula_sum "Si O2"
_cell_formula_units_Z 48
_cell_length_a 21.755670
_cell_length_b 11.917128
_cell_length_c 26.084879
_cell_angle_alpha 90.000000
_cell_angle_beta 158.385968
_cell_angle_gamma 90.000000
_cell_volume 2491.129003
_symmetry_space_group_name_H-M "C 2/C"
_symmetry_group_IT_number 15
_symmetry_cell_setting 'monoclinic'
loop_
_space_group_symop_operation_xyz
x,y,z
-x,y,1/2-z
-x,-y,-z
x,-y,1/2+z
1/2+x,1/2+y,z
1/2-x,1/2+y,1/2-z
1/2-x,1/2-y,-z
1/2+x,1/2-y,1/2+z
loop_
_atom_site_type_symbol
_atom_site_label
_atom_site_fract_x
_atom_site_fract_y
_atom_site_fract_z
Si Si1 0.825341 0.077523 0.711511
Si Si2 0.055740 0.655624 0.582410
Si Si3 0.054099 0.275073 0.850579
Si Si4 0.666803 0.336598 0.750439
Si Si5 0.932986 0.697358 0.642083
Si Si6 0.940542 0.486961 0.574434
O O1 0.681834 0.136670 0.633851
O O2 0.734135 0.035310 0.589346
O O3 0.964610 0.164548 0.803075
O O4 0.881376 0.967718 0.786504
O O5 0.113341 0.763052 0.660049
O O6 0.865544 0.669759 0.415328
O O7 0.054650 0.544147 0.618267
O O8 0.011453 0.375325 0.857397
O O9 0.000000 0.300007 0.750000
O O10 0.250000 0.250000 0.000000
O O11 0.564989 0.280162 0.717755
O O12 0.750000 0.750000 0.500000
O O13 0.924230 0.584844 0.602720
O O14 0.000000 0.672802 0.750000
#
# Coordination Sequence:
#
# PCOD9291006 Si02
#       6
#     8   8   8   8   8   8
#     4  11  24  41  71  89 131 174 209 271 328 391
#     4  10  23  42  70  93 128 164 216 272 332 379
#     4  12  26  44  64  95 133 178 218 259 327 396
#     4  10  22  42  62  99 124 163 217 260 325 392
#     4  11  22  38  68  95 130 170 210 268 321 380
#     4  10  22  43  63  93 129 167 216 265 316 385
#
# _framework density 19.268373
#
# number of rings (size 3 to 8) (size 9 to 14) (size 15 to 20)
#    0.000    1.333    1.667    5.500    7.000    0.667 
#    6.000    0.833    0.000    0.000    0.000    0.000 
#    0.000    0.000    0.000    0.000    0.000    0.000 
#
# Total GULP energy -134048.921358 kJ/mol
# GULP energy per Si atom -5585.371723 kJ/mol
# Density = 1.922452 g / cm^3
# Si number density = 19.268373 Si / 1000 Ang^3
#
#
#
# Elastic Constant Matrix: (Units=GPa)
#
#
# Indices 1 2 3 4 5 6 
#
# 1 48.2955 18.9055 53.4769 0.0082 15.7228 0.0019
# 2 18.9055 114.9657 47.9871 0.0037 12.5362 0.0019
# 3 53.4769 47.9871 101.1279 -0.0028 12.0505 -0.0003
# 4 0.0082 0.0037 -0.0028 34.3757 -0.0004 -7.1643
# 5 15.7228 12.5362 12.0505 -0.0004 31.9798 0.0002
# 6 0.0019 0.0019 -0.0003 -7.1643 0.0002 12.5261
#
#
#
# Elastic Compliance Matrix: (Units=1/GPa)
#
#
# Indices 1 2 3 4 5 6 
#
# 1 0.061175 0.005774 -0.032704 -0.000023 -0.020016 -0.000024
# 2 0.005774 0.011574 -0.008026 -0.000004 -0.004351 -0.000005
# 3 -0.032704 -0.008026 0.030050 0.000014 0.007902 0.000015
# 4 -0.000023 -0.000004 0.000014 0.033027 0.000008 0.018890
# 5 -0.020016 -0.004351 0.007902 0.000008 0.039839 0.000008
# 6 -0.000024 -0.000005 0.000015 0.018890 0.000008 0.090638
#
#
# Mechanical properties :
#
#
# Convention : Reuss Voigt Hill
#
# Bulk Modulus (GPa) = 30.40981 56.12533 43.26757
# Shear Modulus (GPa) = 14.40185 25.37762 19.88973
#
# Velocity S-wave (km/s) = 2.73689 3.63307 3.21635
# Velocity P-wave (km/s) = 5.07976 6.84035 6.02471
#
# Compressibility (1/GPa) = 0.03288413
#
# Stress axis : x y z
#
# Youngs Moduli (GPa) = 16.34653 86.40404 33.27825
#
# Poissons Ratio (x) = -0.49886 1.08834
# Poissons Ratio (y) = -0.09438 0.26711
# Poissons Ratio (z) = 0.53460 0.69352
#
# Static dielectric constant tensor:
#      x y z
#    x 1.718580 0.000000 -0.006330 
#    y 0.000000 1.683220 0.000000 
#    z -0.006330 0.000000 1.637070 
# 
# From -- ./inp_files/65249.got.cif
#   From: 2010.05.17/outbox.cif.g08.bks.cpg/sg15_33_cif.got.tgz:65249.got - 2010.06.03 18:47:42.
