data_PCOD9291977
_publ_section_title
;
Structure prediction by ZEFSAII (Michael W. Deem and Ramdas Pophale) SiO2 
 PCOD9291977
Probable space group: C 2/C
;
_chemical_formula_sum "Si O2"
_cell_formula_units_Z 52
_cell_length_a 15.784629
_cell_length_b 10.882328
_cell_length_c 18.223484
_cell_angle_alpha 90.000000
_cell_angle_beta 51.753730
_cell_angle_gamma 90.000000
_cell_volume 2458.413023
_symmetry_space_group_name_H-M "C 2/C"
_symmetry_group_IT_number 15
_symmetry_cell_setting 'monoclinic'
loop_
_space_group_symop_operation_xyz
x,y,z
-x,y,1/2-z
-x,-y,-z
x,-y,1/2+z
1/2+x,1/2+y,z
1/2-x,1/2+y,1/2-z
1/2-x,1/2-y,-z
1/2+x,1/2-y,1/2+z
loop_
_atom_site_type_symbol
_atom_site_label
_atom_site_fract_x
_atom_site_fract_y
_atom_site_fract_z
Si Si1 0.125993 0.587145 0.305183
Si Si2 0.331411 0.498194 0.608054
Si Si3 0.936621 0.868827 0.173169
Si Si4 0.242604 0.986245 0.639172
Si Si5 0.000000 0.565438 0.750000
Si Si6 0.319730 0.372332 0.459905
Si Si7 0.294373 0.778366 0.394914
O O1 0.243550 0.572506 0.204773
O O2 0.092723 0.728471 0.330559
O O3 0.147854 0.522789 0.372109
O O4 0.047758 0.517867 0.290124
O O5 0.429076 0.537776 0.607895
O O6 0.339653 0.418015 0.531271
O O7 0.283644 0.627933 0.605684
O O8 0.058724 0.864237 0.136929
O O9 0.842757 0.923892 0.275240
O O10 0.198378 0.848151 0.654165
O O11 0.249978 0.035761 0.552584
O O12 0.907851 0.651762 0.833290
O O13 0.250000 0.250000 0.500000
O O14 0.250000 0.750000 0.500000
#
# Coordination Sequence:
#
# PCOD9291977 Si02
#       7
#     8   8   8   8   4   8   8
#     4  10  23  45  68  92 130 174 224 270 335 402
#     4  10  22  43  64  94 131 173 216 279 330 399
#     4  11  24  42  67  97 131 177 222 275 337 406
#     4  11  24  42  68  98 127 176 223 273 332 402
#     4  10  26  42  68  98 132 180 220 274 342 400
#     4  12  26  42  65  98 137 172 223 280 338 397
#     4  11  22  43  68  95 135 170 223 279 334 401
#
# _framework density 21.151858000000001
#
# number of rings (size 3 to 8) (size 9 to 14) (size 15 to 20)
#    0.000    1.231    3.077    1.846    8.615    0.000 
#    2.769    1.538    0.000    0.000    0.000    0.000 
#    0.000    0.000    0.000    0.000    0.000    0.000 
#
# Total GULP energy -145132.274959 kJ/mol
# GULP energy per Si atom -5582.010575 kJ/mol
# Density = 2.110372 g / cm^3
# Si number density = 21.151858 Si / 1000 Ang^3
#
#
#
# Elastic Constant Matrix: (Units=GPa)
#
#
# Indices 1 2 3 4 5 6 
#
# 1 144.1127 39.8382 15.0354 0.0000 13.0936 0.0000
# 2 39.8382 88.3175 -8.7902 0.0000 -2.5328 0.0000
# 3 15.0354 -8.7902 22.9897 0.0000 11.9108 0.0000
# 4 0.0000 0.0000 0.0000 28.2848 0.0000 5.5239
# 5 13.0936 -2.5328 11.9108 0.0000 25.1296 0.0000
# 6 0.0000 0.0000 0.0000 5.5239 0.0000 21.3246
#
#
#
# Elastic Compliance Matrix: (Units=1/GPa)
#
#
# Indices 1 2 3 4 5 6 
#
# 1 0.009185 -0.004880 -0.006811 0.000000 -0.002049 0.000000
# 2 -0.004880 0.014393 0.008782 0.000000 -0.000169 0.000000
# 3 -0.006811 0.008782 0.064966 0.000000 -0.026358 0.000000
# 4 0.000000 0.000000 0.000000 0.037238 0.000000 -0.009646
# 5 -0.002049 -0.000169 -0.026358 0.000000 0.053338 0.000000
# 6 0.000000 0.000000 0.000000 -0.009646 0.000000 0.049393
#
#
# Mechanical properties :
#
#
# Convention : Reuss Voigt Hill
#
# Bulk Modulus (GPa) = 12.08789 38.62075 25.35432
# Shear Modulus (GPa) = 19.09088 28.90357 23.99723
#
# Velocity S-wave (km/s) = 3.00753 3.70060 3.37192
# Velocity P-wave (km/s) = 4.21752 6.04630 5.21274
#
# Compressibility (1/GPa) = 0.08272743
#
# Stress axis : x y z
#
# Youngs Moduli (GPa) = 108.87651 69.47750 15.39266
#
# Poissons Ratio (x) = 0.33903 0.10484
# Poissons Ratio (y) = 0.53128 -0.13518
# Poissons Ratio (z) = 0.74155 -0.61018
#
# Static dielectric constant tensor:
#      x y z
#    x 1.813910 0.000000 0.050320 
#    y 0.000000 1.711970 0.000000 
#    z 0.050320 0.000000 1.833420 
# 
# From -- ./inp_files/203899.got.cif
#   From: 2010.05.17/outbox.cif.g08.bks.cpg/sg15_102_cif.got.tgz:203899.got - 2010.06.03 18:47:42.
