data_PCOD9291424
_publ_section_title
;
Structure prediction by ZEFSAII (Michael W. Deem and Ramdas Pophale) SiO2 
 PCOD9291424
Probable space group: C 2/C
;
_chemical_formula_sum "Si O2"
_cell_formula_units_Z 40
_cell_length_a 11.981789
_cell_length_b 8.723980
_cell_length_c 25.570026
_cell_angle_alpha 90.000000
_cell_angle_beta 43.796663
_cell_angle_gamma 90.000000
_cell_volume 1849.852328
_symmetry_space_group_name_H-M "C 2/C"
_symmetry_group_IT_number 15
_symmetry_cell_setting 'monoclinic'
loop_
_space_group_symop_operation_xyz
x,y,z
-x,y,1/2-z
-x,-y,-z
x,-y,1/2+z
1/2+x,1/2+y,z
1/2-x,1/2+y,1/2-z
1/2-x,1/2-y,-z
1/2+x,1/2-y,1/2+z
loop_
_atom_site_type_symbol
_atom_site_label
_atom_site_fract_x
_atom_site_fract_y
_atom_site_fract_z
Si Si1 0.658763 0.937249 0.015639
Si Si2 0.897144 0.676524 0.078518
Si Si3 0.354103 0.503411 0.766719
Si Si4 0.596728 0.243870 0.833639
Si Si5 0.520193 0.505807 0.431405
O O1 0.558396 0.858807 0.097160
O O2 0.567730 0.092873 0.030330
O O3 0.639142 0.828797 0.971182
O O4 0.843367 0.972345 0.965974
O O5 0.765537 0.572258 0.150986
O O6 0.902551 0.840369 0.104316
O O7 0.500000 0.574492 0.750000
O O8 0.418903 0.366815 0.707641
O O9 0.245929 0.630032 0.774455
O O10 0.625082 0.353853 0.874361
O O11 0.500000 0.500000 0.500000
#
# Coordination Sequence:
#
# PCOD9291424 Si02
#       5
#     8   8   8   8   8
#     4  10  22  42  67  95 133 164 216 272 322 385
#     4  10  22  42  67  97 127 173 214 267 328 382
#     4  11  25  45  67  90 136 177 215 268 325 383
#     4  11  24  46  64  97 130 173 223 264 323 393
#     4  12  23  38  66 100 130 162 215 271 327 383
#
# _framework density 21.623348
#
# number of rings (size 3 to 8) (size 9 to 14) (size 15 to 20)
#    0.000    1.200    2.000    3.600    2.800    0.000 
#   10.800    1.000    0.000    0.000    0.000    0.000 
#    0.000    0.000    0.000    0.000    0.000    0.000 
#
# Total GULP energy -111735.657441 kJ/mol
# GULP energy per Si atom -5586.782872 kJ/mol
# Density = 2.157413 g / cm^3
# Si number density = 21.623348 Si / 1000 Ang^3
#
#
#
# Elastic Constant Matrix: (Units=GPa)
#
#
# Indices 1 2 3 4 5 6 
#
# 1 90.2507 16.3282 22.8899 0.0000 -8.0981 0.0000
# 2 16.3282 68.1440 -4.0492 0.0000 -13.0827 0.0000
# 3 22.8899 -4.0492 71.1174 0.0000 9.8745 0.0000
# 4 0.0000 0.0000 0.0000 38.7598 0.0000 1.7202
# 5 -8.0981 -13.0827 9.8745 0.0000 26.0528 0.0000
# 6 0.0000 0.0000 0.0000 1.7202 0.0000 30.7187
#
#
#
# Elastic Compliance Matrix: (Units=1/GPa)
#
#
# Indices 1 2 3 4 5 6 
#
# 1 0.013258 -0.002565 -0.005074 0.000000 0.004756 0.000000
# 2 -0.002565 0.016740 0.000762 0.000000 0.007320 0.000000
# 3 -0.005074 0.000762 0.016787 0.000000 -0.007557 0.000000
# 4 0.000000 0.000000 0.000000 0.025864 0.000000 -0.001448
# 5 0.004756 0.007320 -0.007557 0.000000 0.046402 0.000000
# 6 0.000000 0.000000 0.000000 -0.001448 0.000000 0.032635
#
#
# Mechanical properties :
#
#
# Convention : Reuss Voigt Hill
#
# Bulk Modulus (GPa) = 30.27356 33.31665 31.79510
# Shear Modulus (GPa) = 28.33683 32.06247 30.19965
#
# Velocity S-wave (km/s) = 3.62397 3.85485 3.74120
# Velocity P-wave (km/s) = 5.61620 5.93754 5.77910
#
# Compressibility (1/GPa) = 0.03303213
#
# Stress axis : x y z
#
# Youngs Moduli (GPa) = 75.42692 59.73690 59.57033
#
# Poissons Ratio (x) = 0.15324 0.30223
# Poissons Ratio (y) = 0.19348 -0.04542
# Poissons Ratio (z) = 0.38268 -0.04554
#
# Static dielectric constant tensor:
#      x y z
#    x 1.771370 0.000000 0.020350 
#    y 0.000000 1.849740 0.000000 
#    z 0.020350 0.000000 1.809000 
# 
# From -- ./inp_files/195073.got.cif
#   From: 2010.05.17/outbox.cif.g08.bks.cpg/sg15_98_cif.got.tgz:195073.got - 2010.06.03 18:47:42.
