data_PCOD9291166
_publ_section_title
;
Structure prediction by ZEFSAII (Michael W. Deem and Ramdas Pophale) SiO2 
 PCOD9291166
Probable space group: C 2/C
;
_chemical_formula_sum "Si O2"
_cell_formula_units_Z 48
_cell_length_a 11.740838
_cell_length_b 24.200455
_cell_length_c 8.055997
_cell_angle_alpha 90.000000
_cell_angle_beta 60.229231
_cell_angle_gamma 90.000000
_cell_volume 1986.877524
_symmetry_space_group_name_H-M "C 2/C"
_symmetry_group_IT_number 15
_symmetry_cell_setting 'monoclinic'
loop_
_space_group_symop_operation_xyz
x,y,z
-x,y,1/2-z
-x,-y,-z
x,-y,1/2+z
1/2+x,1/2+y,z
1/2-x,1/2+y,1/2-z
1/2-x,1/2-y,-z
1/2+x,1/2-y,1/2+z
loop_
_atom_site_type_symbol
_atom_site_label
_atom_site_fract_x
_atom_site_fract_y
_atom_site_fract_z
Si Si1 0.697781 0.460063 0.106802
Si Si2 0.152008 0.718415 0.696200
Si Si3 0.984344 0.436808 0.957502
Si Si4 0.836579 0.858294 0.232999
Si Si5 0.231577 0.920991 0.703616
Si Si6 0.116322 0.819329 0.938182
O O1 0.606044 0.421248 0.286004
O O2 0.689156 0.525892 0.127092
O O3 0.710667 0.446236 0.904246
O O4 0.829658 0.432308 0.093256
O O5 0.250000 0.750000 0.500000
O O6 0.218615 0.661042 0.700820
O O7 0.151548 0.758411 0.856794
O O8 0.000000 0.713426 0.750000
O O9 0.113332 0.408679 0.940300
O O10 0.000000 0.429082 0.750000
O O11 0.000000 0.500000 0.000000
O O12 0.815518 0.837919 0.439062
O O13 0.961805 0.824188 0.077682
O O14 0.155798 0.863589 0.766867
#
# Coordination Sequence:
#
# PCOD9291166 Si02
#       6
#     8   8   8   8   8   8
#     4   9  18  33  55  88 123 162 208 255 309 381
#     4  12  25  45  67  95 128 164 215 277 333 377
#     4   8  14  27  46  72 111 149 194 244 288 349
#     4  10  22  42  65  91 127 169 215 264 321 392
#     4   9  18  33  56  86 121 165 205 253 315 376
#     4  10  22  42  65  90 128 170 214 264 321 393
#
# _framework density 24.158511000000001
#
# number of rings (size 3 to 8) (size 9 to 14) (size 15 to 20)
#    0.000    2.333    1.667    0.500    0.000    3.333 
#    0.000    8.333    0.000    0.000    0.000    0.000 
#    0.000    0.000    0.000    0.000    0.000    0.000 
#
# Total GULP energy -133706.863158 kJ/mol
# GULP energy per Si atom -5571.119298 kJ/mol
# Density = 2.410353 g / cm^3
# Si number density = 24.158511 Si / 1000 Ang^3
#
#
#
# Elastic Constant Matrix: (Units=GPa)
#
#
# Indices 1 2 3 4 5 6 
#
# 1 94.8470 11.4166 11.7289 0.0000 1.9728 0.0000
# 2 11.4166 48.9534 -2.9742 0.0000 11.0445 0.0000
# 3 11.7289 -2.9742 37.9028 0.0000 -9.6380 0.0000
# 4 0.0000 0.0000 0.0000 32.7788 0.0000 2.4739
# 5 1.9728 11.0445 -9.6380 0.0000 24.8659 0.0000
# 6 0.0000 0.0000 0.0000 2.4739 0.0000 19.0392
#
#
#
# Elastic Compliance Matrix: (Units=1/GPa)
#
#
# Indices 1 2 3 4 5 6 
#
# 1 0.011387 -0.002604 -0.004064 0.000000 -0.001322 0.000000
# 2 -0.002604 0.023324 0.000060 0.000000 -0.010130 0.000000
# 3 -0.004064 0.000060 0.030752 0.000000 0.012215 0.000000
# 4 0.000000 0.000000 0.000000 0.030810 0.000000 -0.004003
# 5 -0.001322 -0.010130 0.012215 0.000000 0.049554 0.000000
# 6 0.000000 0.000000 0.000000 -0.004003 0.000000 0.053043
#
#
# Mechanical properties :
#
#
# Convention : Reuss Voigt Hill
#
# Bulk Modulus (GPa) = 19.14008 24.67175 21.90591
# Shear Modulus (GPa) = 21.78635 26.10557 23.94596
#
# Velocity S-wave (km/s) = 3.00627 3.29081 3.15175
# Velocity P-wave (km/s) = 4.47103 4.96728 4.72567
#
# Compressibility (1/GPa) = 0.05224640
#
# Stress axis : x y z
#
# Youngs Moduli (GPa) = 87.82075 42.87430 32.51855
#
# Poissons Ratio (x) = 0.11165 0.13216
# Poissons Ratio (y) = 0.22871 -0.00196
# Poissons Ratio (z) = 0.35691 -0.00258
#
# Static dielectric constant tensor:
#      x y z
#    x 2.185450 0.000000 -0.121360 
#    y 0.000000 2.223580 0.000000 
#    z -0.121360 0.000000 2.033290 
# 
# From -- ./inp_files/33383.got.cif
#   From: 2010.05.17/outbox.cif.g08.bks.cpg/sg15_17_cif.got.tgz:33383.got - 2010.06.03 18:47:42.
