data_PCOD9291878
_publ_section_title
;
Structure prediction by ZEFSAII (Michael W. Deem and Ramdas Pophale) SiO2 
 PCOD9291878
Probable space group: C 2/C
;
_chemical_formula_sum "Si O2"
_cell_formula_units_Z 36
_cell_length_a 5.168591
_cell_length_b 19.422797
_cell_length_c 17.206813
_cell_angle_alpha 90.000000
_cell_angle_beta 59.103329
_cell_angle_gamma 90.000000
_cell_volume 1482.243716
_symmetry_space_group_name_H-M "C 2/C"
_symmetry_group_IT_number 15
_symmetry_cell_setting 'monoclinic'
loop_
_space_group_symop_operation_xyz
x,y,z
-x,y,1/2-z
-x,-y,-z
x,-y,1/2+z
1/2+x,1/2+y,z
1/2-x,1/2+y,1/2-z
1/2-x,1/2-y,-z
1/2+x,1/2-y,1/2+z
loop_
_atom_site_type_symbol
_atom_site_label
_atom_site_fract_x
_atom_site_fract_y
_atom_site_fract_z
Si Si1 0.898352 0.167977 0.895257
Si Si2 0.703222 0.964165 0.350913
Si Si3 0.098479 0.805950 0.925226
Si Si4 0.500000 0.121730 0.750000
Si Si5 0.722296 0.878333 0.853274
O O1 0.761595 0.091861 0.907823
O O2 0.669311 0.225879 0.900839
O O3 0.202073 0.167404 0.797363
O O4 0.972831 0.184538 0.972753
O O5 0.466568 0.928767 0.329154
O O6 0.000000 0.965959 0.250000
O O7 0.649426 0.041955 0.383089
O O8 0.420452 0.844542 0.865639
O O9 0.846049 0.837378 0.908750
O O10 0.000000 0.876506 0.750000
#
# Coordination Sequence:
#
# PCOD9291878 Si02
#       5
#     8   8   8   4   8
#     4  10  25  44  68  99 138 180 230 279 342 410
#     4   9  22  41  67  97 135 181 230 278 335 416
#     4  11  27  44  69 103 139 175 230 290 336 402
#     4  10  22  42  74  96 136 188 232 278 348 422
#     4  11  26  44  69 100 138 181 226 284 344 401
#
# _framework density 24.287506
#
# number of rings (size 3 to 8) (size 9 to 14) (size 15 to 20)
#    0.000    1.778    0.000    0.667   17.111    7.111 
#    0.000    0.000    0.000    0.000    0.000    0.000 
#    0.000    0.000    0.000    0.000    0.000    0.000 
#
# Total GULP energy -100822.343898 kJ/mol
# GULP energy per Si atom -5601.241328 kJ/mol
# Density = 2.423223 g / cm^3
# Si number density = 24.287506 Si / 1000 Ang^3
#
#
#
# Elastic Constant Matrix: (Units=GPa)
#
#
# Indices 1 2 3 4 5 6 
#
# 1 89.0429 26.5017 24.5312 0.0000 0.8585 0.0000
# 2 26.5017 144.6057 59.7996 0.0000 -11.0346 0.0000
# 3 24.5312 59.7996 79.3566 0.0000 -0.7767 0.0000
# 4 0.0000 0.0000 0.0000 34.4460 0.0000 -0.6161
# 5 0.8585 -11.0346 -0.7767 0.0000 34.7359 0.0000
# 6 0.0000 0.0000 0.0000 -0.6161 0.0000 52.9539
#
#
#
# Elastic Compliance Matrix: (Units=1/GPa)
#
#
# Indices 1 2 3 4 5 6 
#
# 1 0.012391 -0.001073 -0.003029 0.000000 -0.000715 0.000000
# 2 -0.001073 0.010466 -0.007524 0.000000 0.003183 0.000000
# 3 -0.003029 -0.007524 0.019189 0.000000 -0.001886 0.000000
# 4 0.000000 0.000000 0.000000 0.029037 0.000000 0.000338
# 5 -0.000715 0.003183 -0.001886 0.000000 0.029775 0.000000
# 6 0.000000 0.000000 0.000000 0.000338 0.000000 0.018888
#
#
# Mechanical properties :
#
#
# Convention : Reuss Voigt Hill
#
# Bulk Modulus (GPa) = 53.20664 59.40778 56.30721
# Shear Modulus (GPa) = 33.49762 37.90534 35.70148
#
# Velocity S-wave (km/s) = 3.71780 3.95485 3.83816
# Velocity P-wave (km/s) = 6.35484 6.73556 6.54797
#
# Compressibility (1/GPa) = 0.01879465
#
# Stress axis : x y z
#
# Youngs Moduli (GPa) = 80.70225 95.54379 52.11290
#
# Poissons Ratio (x) = 0.10251 0.15785
# Poissons Ratio (y) = 0.08658 0.39211
# Poissons Ratio (z) = 0.24444 0.71889
#
# Static dielectric constant tensor:
#      x y z
#    x 1.953520 0.000000 0.004170 
#    y 0.000000 1.895590 0.000000 
#    z 0.004170 0.000000 1.944980 
# 
# From -- ./inp_files/184138.got.cif
#   From: 2010.05.17/outbox.cif.g08.bks.cpg/sg15_93_cif.got.tgz:184138.got - 2010.06.03 18:47:42.
