data_PCOD9291986
_publ_section_title
;
Structure prediction by ZEFSAII (Michael W. Deem and Ramdas Pophale) SiO2 
 PCOD9291986
Probable space group: C 2/C
;
_chemical_formula_sum "Si O2"
_cell_formula_units_Z 56
_cell_length_a 30.441453
_cell_length_b 11.630042
_cell_length_c 9.409447
_cell_angle_alpha 90.000000
_cell_angle_beta 123.099052
_cell_angle_gamma 90.000000
_cell_volume 2790.703290
_symmetry_space_group_name_H-M "C 2/C"
_symmetry_group_IT_number 15
_symmetry_cell_setting 'monoclinic'
loop_
_space_group_symop_operation_xyz
x,y,z
-x,y,1/2-z
-x,-y,-z
x,-y,1/2+z
1/2+x,1/2+y,z
1/2-x,1/2+y,1/2-z
1/2-x,1/2-y,-z
1/2+x,1/2-y,1/2+z
loop_
_atom_site_type_symbol
_atom_site_label
_atom_site_fract_x
_atom_site_fract_y
_atom_site_fract_z
Si Si1 0.354967 0.453184 0.874461
Si Si2 0.469983 0.583890 0.553066
Si Si3 0.603597 0.238288 0.694663
Si Si4 0.181963 0.382099 0.887227
Si Si5 0.463337 0.955382 0.562993
Si Si6 0.370249 0.918058 0.011651
Si Si7 0.694120 0.617903 0.934982
O O1 0.355235 0.325877 0.803629
O O2 0.338526 0.552618 0.741017
O O3 0.416027 0.470658 0.018524
O O4 0.317165 0.448222 0.940084
O O5 0.500000 0.619198 0.750000
O O6 0.500000 0.500000 0.500000
O O7 0.449346 0.685719 0.413361
O O8 0.583630 0.126165 0.574808
O O9 0.627141 0.193273 0.882778
O O10 0.160450 0.399916 0.689413
O O11 0.173740 0.248716 0.914747
O O12 0.154809 0.475730 0.942489
O O13 0.244915 0.391568 0.996285
O O14 0.500000 0.901417 0.750000
O O15 0.500000 0.000000 0.500000
O O16 0.430851 0.056443 0.580790
#
# Coordination Sequence:
#
# PCOD9291986 Si02
#       7
#     8   8   8   8   8   8   8
#     4  10  24  43  69  94 140 170 226 271 337 395
#     4  10  22  43  64  95 129 173 216 262 323 393
#     4  10  24  40  67  94 133 176 220 270 335 385
#     4  11  26  43  74  93 138 168 233 278 343 400
#     4  12  22  41  63  95 133 172 217 270 329 395
#     4  12  23  47  65 103 129 180 222 282 338 399
#     4  11  24  47  66 104 125 183 219 285 336 405
#
# _framework density 20.066624999999998
#
# number of rings (size 3 to 8) (size 9 to 14) (size 15 to 20)
#    0.857    0.286    2.857    3.000    2.000    0.000 
#    7.714    1.429    0.000    0.000    0.000    0.000 
#    0.000    0.000    0.000    0.000    0.000    0.000 
#
# Total GULP energy -156056.784726 kJ/mol
# GULP energy per Si atom -5573.456597 kJ/mol
# Density = 2.002095 g / cm^3
# Si number density = 20.066625 Si / 1000 Ang^3
#
#
#
# Elastic Constant Matrix: (Units=GPa)
#
#
# Indices 1 2 3 4 5 6 
#
# 1 75.1682 28.8291 4.1861 0.0000 -11.4800 0.0000
# 2 28.8291 50.5296 7.1527 0.0000 -3.6197 0.0000
# 3 4.1861 7.1527 66.9651 0.0000 6.1086 0.0000
# 4 0.0000 0.0000 0.0000 31.8713 0.0000 3.2706
# 5 -11.4800 -3.6197 6.1086 0.0000 29.6155 0.0000
# 6 0.0000 0.0000 0.0000 3.2706 0.0000 30.5955
#
#
#
# Elastic Compliance Matrix: (Units=1/GPa)
#
#
# Indices 1 2 3 4 5 6 
#
# 1 0.017978 -0.009746 -0.000622 0.000000 0.005906 0.000000
# 2 -0.009746 0.025635 -0.002110 0.000000 -0.000210 0.000000
# 3 -0.000622 -0.002110 0.015535 0.000000 -0.003703 0.000000
# 4 0.000000 0.000000 0.000000 0.031724 0.000000 -0.003391
# 5 0.005906 -0.000210 -0.003703 0.000000 0.036794 0.000000
# 6 0.000000 0.000000 0.000000 -0.003391 0.000000 0.033047
#
#
# Mechanical properties :
#
#
# Convention : Reuss Voigt Hill
#
# Bulk Modulus (GPa) = 29.24582 30.33319 29.78950
# Shear Modulus (GPa) = 25.37235 28.58280 26.97757
#
# Velocity S-wave (km/s) = 3.55971 3.77821 3.67058
# Velocity P-wave (km/s) = 5.61260 5.84656 5.73077
#
# Compressibility (1/GPa) = 0.03419292
#
# Stress axis : x y z
#
# Youngs Moduli (GPa) = 55.62353 39.00987 64.37014
#
# Poissons Ratio (x) = 0.38019 0.04001
# Poissons Ratio (y) = 0.54211 0.13580
# Poissons Ratio (z) = 0.03457 0.08230
#
# Static dielectric constant tensor:
#      x y z
#    x 1.650180 0.000000 -0.000860 
#    y 0.000000 1.760770 0.000000 
#    z -0.000860 0.000000 1.699390 
# 
# From -- ./inp_files/69453.got.cif
#   From: 2010.05.17/outbox.cif.g08.bks.cpg/sg15_35_cif.got.tgz:69453.got - 2010.06.03 18:47:42.
