data_PCOD9291204
_publ_section_title
;
Structure prediction by ZEFSAII (Michael W. Deem and Ramdas Pophale) SiO2 
 PCOD9291204
Probable space group: C 2/C
;
_chemical_formula_sum "Si O2"
_cell_formula_units_Z 56
_cell_length_a 15.508107
_cell_length_b 9.644725
_cell_length_c 22.495164
_cell_angle_alpha 90.000000
_cell_angle_beta 55.287968
_cell_angle_gamma 90.000000
_cell_volume 2765.811323
_symmetry_space_group_name_H-M "C 2/C"
_symmetry_group_IT_number 15
_symmetry_cell_setting 'monoclinic'
loop_
_space_group_symop_operation_xyz
x,y,z
-x,y,1/2-z
-x,-y,-z
x,-y,1/2+z
1/2+x,1/2+y,z
1/2-x,1/2+y,1/2-z
1/2-x,1/2-y,-z
1/2+x,1/2-y,1/2+z
loop_
_atom_site_type_symbol
_atom_site_label
_atom_site_fract_x
_atom_site_fract_y
_atom_site_fract_z
Si Si1 0.941738 0.921828 0.575308
Si Si2 0.189387 0.628020 0.448377
Si Si3 0.912920 0.758237 0.897467
Si Si4 0.396079 0.788385 0.754941
Si Si5 0.683237 0.150652 0.882227
Si Si6 0.608501 0.103856 0.778994
Si Si7 0.328056 0.687797 0.655537
O O1 0.890665 0.779532 0.573210
O O2 0.020869 0.878851 0.596441
O O3 0.854867 0.027214 0.634009
O O4 0.000000 0.000000 0.500000
O O5 0.128494 0.658328 0.533302
O O6 0.309313 0.678182 0.409335
O O7 0.184426 0.470072 0.429761
O O8 0.144056 0.723260 0.413242
O O9 0.994586 0.675754 0.824091
O O10 0.500000 0.749965 0.750000
O O11 0.296868 0.716421 0.825175
O O12 0.390465 0.737017 0.689007
O O13 0.389978 0.955347 0.753077
O O14 0.640320 0.089208 0.836398
O O15 0.703252 0.198005 0.716758
#
# Coordination Sequence:
#
# PCOD9291204 Si02
#       7
#     8   8   8   8   8   8   8
#     4  11  22  42  68  92 129 172 217 264 329 391
#     4  11  23  45  66  97 135 171 221 267 331 398
#     4  10  25  40  68  99 131 172 223 271 327 402
#     4  11  24  40  63  99 130 164 218 274 323 385
#     4  10  23  42  65  94 129 170 215 268 322 393
#     4  10  22  42  65  95 129 171 221 271 327 389
#     4  11  23  42  67  92 130 177 212 270 330 392
#
# _framework density 20.247223000000002
#
# number of rings (size 3 to 8) (size 9 to 14) (size 15 to 20)
#    0.000    1.429    4.286    0.000    4.000    3.429 
#    0.000    0.714    0.000    0.000    0.000    0.000 
#    0.000    0.000    0.000    0.000    0.000    0.000 
#
# Total GULP energy -156501.669264 kJ/mol
# GULP energy per Si atom -5589.345331 kJ/mol
# Density = 2.020114 g / cm^3
# Si number density = 20.247223 Si / 1000 Ang^3
#
#
#
# Elastic Constant Matrix: (Units=GPa)
#
#
# Indices 1 2 3 4 5 6 
#
# 1 113.3649 45.2492 40.7213 0.0000 -12.7342 0.0000
# 2 45.2492 96.4129 24.3932 0.0000 11.6593 0.0000
# 3 40.7213 24.3932 65.1646 0.0000 -0.5980 0.0000
# 4 0.0000 0.0000 0.0000 23.9921 0.0000 1.0415
# 5 -12.7342 11.6593 -0.5980 0.0000 27.4503 0.0000
# 6 0.0000 0.0000 0.0000 1.0415 0.0000 20.2232
#
#
#
# Elastic Compliance Matrix: (Units=1/GPa)
#
#
# Indices 1 2 3 4 5 6 
#
# 1 0.014896 -0.006413 -0.006821 0.000000 0.009485 0.000000
# 2 -0.006413 0.014935 -0.001669 0.000000 -0.009355 0.000000
# 3 -0.006821 -0.001669 0.020215 0.000000 -0.002015 0.000000
# 4 0.000000 0.000000 0.000000 0.041774 0.000000 -0.002151
# 5 0.009485 -0.009355 -0.002015 0.000000 0.044759 0.000000
# 6 0.000000 0.000000 0.000000 -0.002151 0.000000 0.049559
#
#
# Mechanical properties :
#
#
# Convention : Reuss Voigt Hill
#
# Bulk Modulus (GPa) = 49.40708 55.07440 52.24074
# Shear Modulus (GPa) = 22.45260 25.30505 23.87882
#
# Velocity S-wave (km/s) = 3.33366 3.53909 3.43791
# Velocity P-wave (km/s) = 6.26679 6.63025 6.45108
#
# Compressibility (1/GPa) = 0.02024002
#
# Stress axis : x y z
#
# Youngs Moduli (GPa) = 67.13067 66.95556 49.46882
#
# Poissons Ratio (x) = 0.42935 0.33744
# Poissons Ratio (y) = 0.43048 0.08258
# Poissons Ratio (z) = 0.45791 0.11178
#
# Static dielectric constant tensor:
#      x y z
#    x 1.725090 0.000000 -0.007380 
#    y 0.000000 1.691890 0.000000 
#    z -0.007380 0.000000 1.722190 
# 
# From -- ./inp_files/273057.got.cif
#   From: 2010.05.17/outbox.cif.g08.bks.cpg/sg15_137_cif.got.tgz:273057.got - 2010.06.03 18:47:42.
