data_PCOD9291098
_publ_section_title
;
Structure prediction by ZEFSAII (Michael W. Deem and Ramdas Pophale) SiO2 
 PCOD9291098
Probable space group: C 2/C
;
_chemical_formula_sum "Si O2"
_cell_formula_units_Z 48
_cell_length_a 23.176722
_cell_length_b 6.312703
_cell_length_c 20.023118
_cell_angle_alpha 90.000000
_cell_angle_beta 131.590770
_cell_angle_gamma 90.000000
_cell_volume 2191.015917
_symmetry_space_group_name_H-M "C 2/C"
_symmetry_group_IT_number 15
_symmetry_cell_setting 'monoclinic'
loop_
_space_group_symop_operation_xyz
x,y,z
-x,y,1/2-z
-x,-y,-z
x,-y,1/2+z
1/2+x,1/2+y,z
1/2-x,1/2+y,1/2-z
1/2-x,1/2-y,-z
1/2+x,1/2-y,1/2+z
loop_
_atom_site_type_symbol
_atom_site_label
_atom_site_fract_x
_atom_site_fract_y
_atom_site_fract_z
Si Si1 0.091457 0.861265 0.681366
Si Si2 0.657243 0.357367 0.347118
Si Si3 0.691112 0.915070 0.541954
Si Si4 0.358302 0.689745 0.421434
Si Si5 0.706632 0.964420 0.320308
Si Si6 0.081265 0.916085 0.907133
O O1 0.090828 0.885669 0.601484
O O2 0.139958 0.644905 0.727061
O O3 0.136213 0.040833 0.758629
O O4 0.006438 0.855942 0.646201
O O5 0.741692 0.437017 0.435898
O O6 0.664671 0.107818 0.343387
O O7 0.596481 0.451686 0.352043
O O8 0.741052 0.726556 0.612620
O O9 0.632695 0.796817 0.448190
O O10 0.646428 0.063639 0.560827
O O11 0.270148 0.619301 0.336380
O O12 0.387834 0.564863 0.509153
#
# Coordination Sequence:
#
# PCOD9291098 Si02
#       6
#     8   8   8   8   8   8
#     4  11  24  39  64  96 133 172 217 275 334 389
#     4  10  22  42  64  92 128 176 224 270 322 393
#     4   9  21  40  64  91 122 168 220 266 323 390
#     4  10  23  39  65  94 131 171 219 274 328 393
#     4   9  22  39  66  92 122 172 223 266 321 389
#     4  11  23  41  62  95 135 171 217 272 332 392
#
# _framework density 21.907644000000001
#
# number of rings (size 3 to 8) (size 9 to 14) (size 15 to 20)
#    0.000    2.000    0.000    1.500    7.000   12.000 
#    0.000    3.333    0.000    0.000    0.000    0.000 
#    0.000    0.000    0.000    0.000    0.000    0.000 
#
# Total GULP energy -133972.697933 kJ/mol
# GULP energy per Si atom -5582.195747 kJ/mol
# Density = 2.185778 g / cm^3
# Si number density = 21.907644 Si / 1000 Ang^3
#
#
#
# Elastic Constant Matrix: (Units=GPa)
#
#
# Indices 1 2 3 4 5 6 
#
# 1 54.2155 -2.0376 0.9622 -0.0001 -8.6714 0.0003
# 2 -2.0376 84.0004 24.3525 -0.0001 -12.2296 0.0011
# 3 0.9622 24.3525 42.9635 -0.0002 -1.1972 0.0001
# 4 -0.0001 -0.0001 -0.0002 8.8236 -0.0003 -4.1745
# 5 -8.6714 -12.2296 -1.1972 -0.0003 44.0179 0.0000
# 6 0.0003 0.0011 0.0001 -4.1745 0.0000 22.0176
#
#
#
# Elastic Compliance Matrix: (Units=1/GPa)
#
#
# Indices 1 2 3 4 5 6 
#
# 1 0.019178 0.001386 -0.001100 0.000000 0.004133 0.000000
# 2 0.001386 0.014989 -0.008410 0.000000 0.004209 -0.000001
# 3 -0.001100 -0.008410 0.028017 0.000001 -0.001791 0.000000
# 4 0.000000 0.000000 0.000001 0.124500 0.000001 0.023605
# 5 0.004133 0.004209 -0.001791 0.000001 0.024653 0.000000
# 6 0.000000 -0.000001 0.000000 0.023605 0.000000 0.049894
#
#
# Mechanical properties :
#
#
# Convention : Reuss Voigt Hill
#
# Bulk Modulus (GPa) = 21.76943 25.30374 23.53659
# Shear Modulus (GPa) = 17.07707 25.49865 21.28786
#
# Velocity S-wave (km/s) = 2.79499 3.41532 3.12061
# Velocity P-wave (km/s) = 4.51380 5.20844 4.87351
#
# Compressibility (1/GPa) = 0.04593598
#
# Stress axis : x y z
#
# Youngs Moduli (GPa) = 52.14432 66.71489 35.69245
#
# Poissons Ratio (x) = -0.09245 0.03926
# Poissons Ratio (y) = -0.07226 0.30017
# Poissons Ratio (z) = 0.05735 0.56106
#
# Static dielectric constant tensor:
#      x y z
#    x 1.835070 0.000000 -0.032000 
#    y 0.000000 1.829790 0.000000 
#    z -0.032000 0.000000 1.826940 
# 
# From -- ./inp_files/254443.got.cif
#   From: 2010.05.17/outbox.cif.g08.bks.cpg/sg15_128_cif.got.tgz:254443.got - 2010.06.03 18:47:42.
