data_PCOD9291809
_publ_section_title
;
Structure prediction by ZEFSAII (Michael W. Deem and Ramdas Pophale) SiO2 
 PCOD9291809
Probable space group: C 2/C
;
_chemical_formula_sum "Si O2"
_cell_formula_units_Z 52
_cell_length_a 8.323411
_cell_length_b 27.468781
_cell_length_c 10.409823
_cell_angle_alpha 90.000000
_cell_angle_beta 69.489517
_cell_angle_gamma 90.000000
_cell_volume 2229.163795
_symmetry_space_group_name_H-M "C 2/C"
_symmetry_group_IT_number 15
_symmetry_cell_setting 'monoclinic'
loop_
_space_group_symop_operation_xyz
x,y,z
-x,y,1/2-z
-x,-y,-z
x,-y,1/2+z
1/2+x,1/2+y,z
1/2-x,1/2+y,1/2-z
1/2-x,1/2-y,-z
1/2+x,1/2-y,1/2+z
loop_
_atom_site_type_symbol
_atom_site_label
_atom_site_fract_x
_atom_site_fract_y
_atom_site_fract_z
Si Si1 0.120989 0.773697 0.933876
Si Si2 0.815692 0.896947 0.226267
Si Si3 0.841472 0.534114 0.533115
Si Si4 0.090709 0.043395 0.044863
Si Si5 0.353616 0.369679 0.695110
Si Si6 0.500000 0.089905 0.250000
Si Si7 0.340075 0.283597 0.192873
O O1 0.150986 0.831716 0.920475
O O2 0.186801 0.750151 0.784016
O O3 0.250000 0.750000 0.000000
O O4 0.928348 0.766733 0.036190
O O5 0.684698 0.922713 0.359414
O O6 0.811768 0.925623 0.092041
O O7 0.787133 0.840048 0.208361
O O8 0.000000 0.901893 0.250000
O O9 0.701766 0.491302 0.604650
O O10 0.882707 0.559474 0.383378
O O11 0.000000 0.500000 0.500000
O O12 0.950813 0.080536 0.135227
O O13 0.000000 0.000000 0.000000
O O14 0.500000 0.347456 0.750000
O O15 0.152358 0.379941 0.782682
O O16 0.500000 0.280268 0.250000
#
# Coordination Sequence:
#
# PCOD9291809 Si02
#       7
#     8   8   8   8   8   4   8
#     4  10  22  42  72 106 136 185 240 307 378 447
#     4  11  21  39  66  97 132 183 237 282 357 437
#     4  12  26  40  65 100 143 189 244 295 354 435
#     4  12  23  42  68  96 141 190 238 288 358 439
#     4  12  27  46  73 107 146 193 248 307 374 453
#     4  12  26  44  68 106 146 194 244 302 368 428
#     4   9  20  37  69 101 132 175 236 296 365 445
#
# _framework density 23.327133
#
# number of rings (size 3 to 8) (size 9 to 14) (size 15 to 20)
#    0.000    0.923    4.615    1.846    9.692    0.000 
#    0.000    0.769    3.385    0.000    0.000    0.000 
#    0.000    0.000    0.000    0.000    0.000    0.000 
#
# Total GULP energy -144820.741975 kJ/mol
# GULP energy per Si atom -5570.028537 kJ/mol
# Density = 2.327404 g / cm^3
# Si number density = 23.327133 Si / 1000 Ang^3
#
#
#
# Elastic Constant Matrix: (Units=GPa)
#
#
# Indices 1 2 3 4 5 6 
#
# 1 74.2163 37.1917 18.7608 0.0000 -17.4666 0.0000
# 2 37.1917 124.4197 56.8382 0.0000 -25.6570 0.0000
# 3 18.7608 56.8382 137.2703 0.0000 -39.2067 0.0000
# 4 0.0000 0.0000 0.0000 46.0193 0.0000 -4.6766
# 5 -17.4666 -25.6570 -39.2067 0.0000 27.8933 0.0000
# 6 0.0000 0.0000 0.0000 -4.6766 0.0000 20.5503
#
#
#
# Elastic Compliance Matrix: (Units=1/GPa)
#
#
# Indices 1 2 3 4 5 6 
#
# 1 0.017382 -0.004109 0.002264 0.000000 0.010287 0.000000
# 2 -0.004109 0.011435 -0.003181 0.000000 0.003474 0.000000
# 3 0.002264 -0.003181 0.013135 0.000000 0.016954 0.000000
# 4 0.000000 0.000000 0.000000 0.022244 0.000000 0.005062
# 5 0.010287 0.003474 0.016954 0.000000 0.069319 0.000000
# 6 0.000000 0.000000 0.000000 0.005062 0.000000 0.049813
#
#
# Mechanical properties :
#
#
# Convention : Reuss Voigt Hill
#
# Bulk Modulus (GPa) = 31.34750 62.38752 46.86751
# Shear Modulus (GPa) = 24.50816 33.76695 29.13755
#
# Velocity S-wave (km/s) = 3.24486 3.80878 3.53807
# Velocity P-wave (km/s) = 5.24463 6.79302 6.06841
#
# Compressibility (1/GPa) = 0.03190047
#
# Stress axis : x y z
#
# Youngs Moduli (GPa) = 57.53118 87.45031 76.13260
#
# Poissons Ratio (x) = 0.35930 -0.17235
# Poissons Ratio (y) = 0.23637 0.24217
# Poissons Ratio (z) = -0.13024 0.27817
#
# Static dielectric constant tensor:
#      x y z
#    x 1.935010 0.000000 0.017220 
#    y 0.000000 1.931500 0.000000 
#    z 0.017220 0.000000 2.303020 
# 
# From -- ./inp_files/82094.got.cif
#   From: 2010.05.17/outbox.cif.g08.bks.cpg/sg15_42_cif.got.tgz:82094.got - 2010.06.03 18:47:42.
