data_PCOD9291394
_publ_section_title
;
Structure prediction by ZEFSAII (Michael W. Deem and Ramdas Pophale) SiO2 
 PCOD9291394
Probable space group: C 2/C
;
_chemical_formula_sum "Si O2"
_cell_formula_units_Z 52
_cell_length_a 20.968763
_cell_length_b 10.042782
_cell_length_c 13.117219
_cell_angle_alpha 90.000000
_cell_angle_beta 79.140394
_cell_angle_gamma 90.000000
_cell_volume 2712.818217
_symmetry_space_group_name_H-M "C 2/C"
_symmetry_group_IT_number 15
_symmetry_cell_setting 'monoclinic'
loop_
_space_group_symop_operation_xyz
x,y,z
-x,y,1/2-z
-x,-y,-z
x,-y,1/2+z
1/2+x,1/2+y,z
1/2-x,1/2+y,1/2-z
1/2-x,1/2-y,-z
1/2+x,1/2-y,1/2+z
loop_
_atom_site_type_symbol
_atom_site_label
_atom_site_fract_x
_atom_site_fract_y
_atom_site_fract_z
Si Si1 0.000000 0.675058 0.250000
Si Si2 0.337818 0.812480 0.392237
Si Si3 0.808192 0.815848 0.422073
Si Si4 0.446115 0.651459 0.953557
Si Si5 0.971572 0.152009 0.374142
Si Si6 0.639993 0.918596 0.736976
Si Si7 0.241215 0.408176 0.885730
O O1 0.024488 0.761106 0.146809
O O2 0.062693 0.596760 0.272005
O O3 0.405342 0.737894 0.398264
O O4 0.292528 0.708454 0.344523
O O5 0.296520 0.858967 0.502406
O O6 0.350630 0.947557 0.329071
O O7 0.750000 0.750000 0.500000
O O8 0.868948 0.833115 0.479049
O O9 0.833557 0.713469 0.328741
O O10 0.782798 0.957624 0.389424
O O11 0.457589 0.499876 0.912986
O O12 0.478024 0.692208 0.051524
O O13 0.000000 0.157125 0.250000
O O14 0.684628 0.930141 0.822004
#
# Coordination Sequence:
#
# PCOD9291394 Si02
#       7
#     4   8   8   8   8   8   8
#     4  10  22  44  62  92 128 168 216 250 322 384
#     4  11  24  43  62  97 128 162 216 263 319 378
#     4  11  22  44  63  94 127 167 218 253 321 388
#     4  10  22  42  67  90 126 172 207 267 311 375
#     4  11  23  41  65  95 127 163 218 260 315 379
#     4  11  24  41  67  93 127 169 209 264 323 374
#     4  11  23  43  66  91 130 167 212 266 313 383
#
# _framework density 19.168257000000001
#
# number of rings (size 3 to 8) (size 9 to 14) (size 15 to 20)
#    0.000    1.231    3.846    1.846    1.077    2.462 
#    0.000    2.308    0.000    0.000    0.000    0.000 
#    0.000    0.000    0.000    0.000    0.000    0.000 
#
# Total GULP energy -145096.129362 kJ/mol
# GULP energy per Si atom -5580.620360 kJ/mol
# Density = 1.912463 g / cm^3
# Si number density = 19.168257 Si / 1000 Ang^3
#
#
#
# Elastic Constant Matrix: (Units=GPa)
#
#
# Indices 1 2 3 4 5 6 
#
# 1 199.5560 68.6896 61.3475 0.0000 17.0038 0.0000
# 2 68.6896 79.5323 40.1959 0.0000 -3.6732 0.0000
# 3 61.3475 40.1959 70.9896 0.0000 15.5956 0.0000
# 4 0.0000 0.0000 0.0000 -1.2172 0.0000 -2.3783
# 5 17.0038 -3.6732 15.5956 0.0000 37.3511 0.0000
# 6 0.0000 0.0000 0.0000 -2.3783 0.0000 41.3290
#
#
#
# Elastic Compliance Matrix: (Units=1/GPa)
#
#
# Indices 1 2 3 4 5 6 
#
# 1 0.008173 -0.005524 -0.003302 0.000000 -0.002885 0.000000
# 2 -0.005524 0.022903 -0.010176 0.000000 0.009016 0.000000
# 3 -0.003302 -0.010176 0.024873 0.000000 -0.009883 0.000000
# 4 0.000000 0.000000 0.000000 -0.738507 0.000000 -0.042499
# 5 -0.002885 0.009016 -0.009883 0.000000 0.033100 0.000000
# 6 0.000000 0.000000 0.000000 -0.042499 0.000000 0.021750
#
#
# Mechanical properties :
#
#
# Convention : Reuss Voigt Hill
#
# Bulk Modulus (GPa) = 55.71838 76.72708 66.22273
# Shear Modulus (GPa) = -8.56570 27.48223 9.45827
#
# Velocity S-wave (km/s) = -2.11622 3.79058 2.22375
# Velocity P-wave (km/s) = 4.81248 7.69890 6.42001
#
# Compressibility (1/GPa) = 0.01794740
#
# Stress axis : x y z
#
# Youngs Moduli (GPa) = 122.35003 43.66187 40.20479
#
# Poissons Ratio (x) = 0.24117 0.13274
# Poissons Ratio (y) = 0.67581 0.40911
# Poissons Ratio (z) = 0.40396 0.44429
#
# Static dielectric constant tensor:
#      x y z
#    x 1.670210 0.000000 0.015190 
#    y 0.000000 1.663390 0.000000 
#    z 0.015190 0.000000 1.650230 
# 
# From -- ./inp_files/166251.got.cif
#   From: 2010.05.17/outbox.cif.g08.bks.cpg/sg15_84_cif.got.tgz:166251.got - 2010.06.03 18:47:42.
