data_PCOD9291580
_publ_section_title
;
Structure prediction by ZEFSAII (Michael W. Deem and Ramdas Pophale) SiO2 
 PCOD9291580
Probable space group: C 2/C
;
_chemical_formula_sum "Si O2"
_cell_formula_units_Z 44
_cell_length_a 7.846876
_cell_length_b 9.237544
_cell_length_c 29.247854
_cell_angle_alpha 90.000000
_cell_angle_beta 119.682702
_cell_angle_gamma 90.000000
_cell_volume 1841.864422
_symmetry_space_group_name_H-M "C 2/C"
_symmetry_group_IT_number 15
_symmetry_cell_setting 'monoclinic'
loop_
_space_group_symop_operation_xyz
x,y,z
-x,y,1/2-z
-x,-y,-z
x,-y,1/2+z
1/2+x,1/2+y,z
1/2-x,1/2+y,1/2-z
1/2-x,1/2-y,-z
1/2+x,1/2-y,1/2+z
loop_
_atom_site_type_symbol
_atom_site_label
_atom_site_fract_x
_atom_site_fract_y
_atom_site_fract_z
Si Si1 0.219633 0.791417 0.292885
Si Si2 0.500000 0.148169 0.750000
Si Si3 0.774936 0.461467 0.645898
Si Si4 0.036680 0.191938 0.563208
Si Si5 0.584930 0.854232 0.034330
Si Si6 0.867240 0.470148 0.871237
O O1 0.356613 0.777704 0.267002
O O2 0.305239 0.679136 0.340594
O O3 0.215883 0.948835 0.317277
O O4 0.000000 0.751435 0.250000
O O5 0.353262 0.059526 0.697763
O O6 0.632930 0.545692 0.593350
O O7 0.961382 0.424262 0.640143
O O8 0.812747 0.180683 0.552462
O O9 0.027125 0.225509 0.507663
O O10 0.160349 0.324408 0.602878
O O11 0.569460 0.903920 0.084660
O O12 0.500000 0.000000 0.000000
#
# Coordination Sequence:
#
# PCOD9291580 Si02
#       6
#     8   4   8   8   8   8
#     4  11  25  48  68  99 139 182 232 288 341 412
#     4  10  26  44  64 100 134 178 232 282 346 404
#     4  11  24  44  65 100 136 170 232 283 333 419
#     4  10  22  42  68  98 139 177 226 282 335 419
#     4   9  20  41  68 100 133 180 228 275 344 411
#     4  10  23  43  67  98 134 178 225 280 345 403
#
# _framework density 23.888839000000001
#
# number of rings (size 3 to 8) (size 9 to 14) (size 15 to 20)
#    0.000    1.818    0.909    1.091    5.091    6.545 
#    3.273   12.727    0.000    0.000    0.000    0.000 
#    0.000    0.000    0.000    0.000    0.000    0.000 
#
# Total GULP energy -122758.382449 kJ/mol
# GULP energy per Si atom -5579.926475 kJ/mol
# Density = 2.383447 g / cm^3
# Si number density = 23.888839 Si / 1000 Ang^3
#
#
#
# Elastic Constant Matrix: (Units=GPa)
#
#
# Indices 1 2 3 4 5 6 
#
# 1 41.8777 28.8855 16.0443 0.0000 -18.7986 0.0000
# 2 28.8855 72.2624 33.1772 0.0000 2.7039 0.0000
# 3 16.0443 33.1772 75.1449 0.0000 -12.0446 0.0000
# 4 0.0000 0.0000 0.0000 35.8595 0.0000 -12.5949
# 5 -18.7986 2.7039 -12.0446 0.0000 44.2463 0.0000
# 6 0.0000 0.0000 0.0000 -12.5949 0.0000 15.9590
#
#
#
# Elastic Compliance Matrix: (Units=1/GPa)
#
#
# Indices 1 2 3 4 5 6 
#
# 1 0.047179 -0.020924 0.002701 0.000000 0.022058 0.000000
# 2 -0.020924 0.027107 -0.009610 0.000000 -0.013163 0.000000
# 3 0.002701 -0.009610 0.018039 0.000000 0.006645 0.000000
# 4 0.000000 0.000000 0.000000 0.038581 0.000000 0.030448
# 5 0.022058 -0.013163 0.006645 0.000000 0.034586 0.000000
# 6 0.000000 0.000000 0.000000 0.030448 0.000000 0.086690
#
#
# Mechanical properties :
#
#
# Convention : Reuss Voigt Hill
#
# Bulk Modulus (GPa) = 27.27941 38.38875 32.83408
# Shear Modulus (GPa) = 15.62163 26.62484 21.12323
#
# Velocity S-wave (km/s) = 2.55998 3.34208 2.97683
# Velocity P-wave (km/s) = 4.49245 5.56752 5.05863
#
# Compressibility (1/GPa) = 0.03665769
#
# Stress axis : x y z
#
# Youngs Moduli (GPa) = 21.19591 36.89040 55.43478
#
# Poissons Ratio (x) = 0.77190 -0.14971
# Poissons Ratio (y) = 0.44351 0.53275
# Poissons Ratio (z) = -0.05724 0.35453
#
# Static dielectric constant tensor:
#      x y z
#    x 1.948150 0.000000 -0.079670 
#    y 0.000000 1.948530 0.000000 
#    z -0.079670 0.000000 2.045470 
# 
# From -- ./inp_files/306611.got.cif
#   From: 2010.05.17/outbox.cif.g08.bks.cpg/sg15_154_cif.got.tgz:306611.got - 2010.06.03 18:47:42.
