data_PCOD9291500
_publ_section_title
;
Structure prediction by ZEFSAII (Michael W. Deem and Ramdas Pophale) SiO2 
 PCOD9291500
Probable space group: C 2/C
;
_chemical_formula_sum "Si O2"
_cell_formula_units_Z 32
_cell_length_a 25.752330
_cell_length_b 6.991667
_cell_length_c 9.238508
_cell_angle_alpha 90.000000
_cell_angle_beta 49.065825
_cell_angle_gamma 90.000000
_cell_volume 1256.643791
_symmetry_space_group_name_H-M "C 2/C"
_symmetry_group_IT_number 15
_symmetry_cell_setting 'monoclinic'
loop_
_space_group_symop_operation_xyz
x,y,z
-x,y,1/2-z
-x,-y,-z
x,-y,1/2+z
1/2+x,1/2+y,z
1/2-x,1/2+y,1/2-z
1/2-x,1/2-y,-z
1/2+x,1/2-y,1/2+z
loop_
_atom_site_type_symbol
_atom_site_label
_atom_site_fract_x
_atom_site_fract_y
_atom_site_fract_z
Si Si1 0.147305 0.242578 0.024742
Si Si2 0.432274 0.994943 0.029164
Si Si3 0.695659 0.112928 0.022347
Si Si4 0.360613 0.359003 0.631664
O O1 0.208215 0.397148 0.940730
O O2 0.144797 0.141533 0.185340
O O3 0.083022 0.371279 0.082552
O O4 0.149273 0.070480 0.908676
O O5 0.367433 0.064005 0.250927
O O6 0.429645 0.770326 0.990199
O O7 0.500000 0.000000 0.000000
O O8 0.750000 0.250000 0.000000
O O9 0.681046 0.223074 0.900950
#
# Coordination Sequence:
#
# PCOD9291500 Si02
#       4
#     8   8   8   8
#     4  10  22  44  70 109 147 197 255 320 391 473
#     4  10  23  46  74 105 147 196 253 323 391 467
#     4  10  23  46  70 101 143 194 257 317 387 460
#     4  10  22  42  68 108 144 198 250 317 390 463
#
# _framework density 25.464656000000002
#
# number of rings (size 3 to 8) (size 9 to 14) (size 15 to 20)
#    0.000    2.000    0.000    1.500    0.000   13.000 
#   27.000    5.000    0.000    0.000    0.000    0.000 
#    0.000    0.000    0.000    0.000    0.000    0.000 
#
# Total GULP energy -89085.162003 kJ/mol
# GULP energy per Si atom -5567.822625 kJ/mol
# Density = 2.540670 g / cm^3
# Si number density = 25.464656 Si / 1000 Ang^3
#
#
#
# Elastic Constant Matrix: (Units=GPa)
#
#
# Indices 1 2 3 4 5 6 
#
# 1 198.9323 81.6388 68.6449 0.0000 42.6245 0.0000
# 2 81.6388 227.7384 50.7198 0.0000 20.7898 0.0000
# 3 68.6449 50.7198 115.9396 0.0000 20.9590 0.0000
# 4 0.0000 0.0000 0.0000 45.5596 0.0000 38.1768
# 5 42.6245 20.7898 20.9590 0.0000 46.3046 0.0000
# 6 0.0000 0.0000 0.0000 38.1768 0.0000 48.6149
#
#
#
# Elastic Compliance Matrix: (Units=1/GPa)
#
#
# Indices 1 2 3 4 5 6 
#
# 1 0.007841 -0.001680 -0.002983 0.000000 -0.005114 0.000000
# 2 -0.001680 0.005301 -0.001278 0.000000 -0.000255 0.000000
# 3 -0.002983 -0.001278 0.011273 0.000000 -0.001782 0.000000
# 4 0.000000 0.000000 0.000000 0.064186 0.000000 -0.050405
# 5 -0.005114 -0.000255 -0.001782 0.000000 0.027225 0.000000
# 6 0.000000 0.000000 0.000000 -0.050405 0.000000 0.060152
#
#
# Mechanical properties :
#
#
# Convention : Reuss Voigt Hill
#
# Bulk Modulus (GPa) = 79.79309 104.95749 92.37529
# Shear Modulus (GPa) = 26.03638 50.86961 38.45300
#
# Velocity S-wave (km/s) = 3.20105 4.47436 3.89016
# Velocity P-wave (km/s) = 6.71306 8.24619 7.51880
#
# Compressibility (1/GPa) = 0.01253241
#
# Stress axis : x y z
#
# Youngs Moduli (GPa) = 127.52987 188.63826 88.70709
#
# Poissons Ratio (x) = 0.31685 0.26465
# Poissons Ratio (y) = 0.21421 0.11341
# Poissons Ratio (z) = 0.38048 0.24116
#
# Static dielectric constant tensor:
#      x y z
#    x 2.061740 0.000000 -0.112400 
#    y 0.000000 2.073610 0.000000 
#    z -0.112400 0.000000 2.233830 
# 
# From -- ./inp_files/59710.got.cif
#   From: 2010.05.17/outbox.cif.g08.bks.cpg/sg15_30_cif.got.tgz:59710.got - 2010.06.03 18:47:42.
