data_PCOD9291613
_publ_section_title
;
Structure prediction by ZEFSAII (Michael W. Deem and Ramdas Pophale) SiO2 
 PCOD9291613
Probable space group: C 2/C
;
_chemical_formula_sum "Si O2"
_cell_formula_units_Z 60
_cell_length_a 5.253321
_cell_length_b 26.053183
_cell_length_c 18.916531
_cell_angle_alpha 90.000000
_cell_angle_beta 78.673938
_cell_angle_gamma 90.000000
_cell_volume 2538.604735
_symmetry_space_group_name_H-M "C 2/C"
_symmetry_group_IT_number 15
_symmetry_cell_setting 'monoclinic'
loop_
_space_group_symop_operation_xyz
x,y,z
-x,y,1/2-z
-x,-y,-z
x,-y,1/2+z
1/2+x,1/2+y,z
1/2-x,1/2+y,1/2-z
1/2-x,1/2-y,-z
1/2+x,1/2-y,1/2+z
loop_
_atom_site_type_symbol
_atom_site_label
_atom_site_fract_x
_atom_site_fract_y
_atom_site_fract_z
Si Si1 0.691952 0.643908 0.008931
Si Si2 0.266613 0.165009 0.573048
Si Si3 0.170328 0.738997 0.168873
Si Si4 0.000000 0.198769 0.250000
Si Si5 0.269778 0.471060 0.976606
Si Si6 0.208673 0.413216 0.296883
Si Si7 0.242596 0.031495 0.183887
Si Si8 0.900401 0.639206 0.153057
O O1 0.421689 0.653305 0.983312
O O2 0.937514 0.675837 0.966876
O O3 0.759711 0.584791 0.988924
O O4 0.722060 0.644313 0.092504
O O5 0.147298 0.214454 0.617732
O O6 0.282874 0.119651 0.631184
O O7 0.459300 0.734268 0.184839
O O8 0.000000 0.748352 0.250000
O O9 0.111925 0.684083 0.136134
O O10 0.764830 0.160592 0.272804
O O11 0.354871 0.468026 0.890795
O O12 0.500000 0.500000 0.000000
O O13 0.000000 0.500000 0.000000
O O14 0.500000 0.410698 0.250000
O O15 0.148781 0.474073 0.311072
O O16 0.000000 0.393608 0.250000
O O17 0.446320 0.079440 0.168624
O O18 0.000000 0.040242 0.250000
#
# Coordination Sequence:
#
# PCOD9291613 Si02
#       8
#     8   8   8   4   8   8   8   8
#     4  11  26  42  69 103 137 186 231 285 359 412
#     4  12  26  46  69  99 144 181 236 290 338 433
#     4  10  25  43  71  98 130 187 234 289 358 414
#     4  10  22  44  68  94 132 170 234 284 354 408
#     4  11  23  44  69  98 144 194 236 283 355 443
#     4  11  24  41  67 101 138 180 230 290 356 413
#     4  10  22  42  69 104 137 182 235 301 356 424
#     4  10  23  45  68 100 137 180 233 293 353 423
#
# _framework density 23.635031000000001
#
# number of rings (size 3 to 8) (size 9 to 14) (size 15 to 20)
#    0.000    1.333    0.667    3.600    6.533    5.867 
#    2.400    0.000    0.000    0.000    0.000    0.000 
#    0.000    0.000    0.000    0.000    0.000    0.000 
#
# Total GULP energy -167445.758770 kJ/mol
# GULP energy per Si atom -5581.525292 kJ/mol
# Density = 2.358124 g / cm^3
# Si number density = 23.635031 Si / 1000 Ang^3
#
#
#
# Elastic Constant Matrix: (Units=GPa)
#
#
# Indices 1 2 3 4 5 6 
#
# 1 99.6526 29.5811 39.7311 0.0000 21.2526 0.0000
# 2 29.5811 106.0038 43.9505 0.0000 10.0542 0.0000
# 3 39.7311 43.9505 121.1503 0.0000 13.8267 0.0000
# 4 0.0000 0.0000 0.0000 24.4967 0.0000 12.7886
# 5 21.2526 10.0542 13.8267 0.0000 48.4366 0.0000
# 6 0.0000 0.0000 0.0000 12.7886 0.0000 14.2571
#
#
#
# Elastic Compliance Matrix: (Units=1/GPa)
#
#
# Indices 1 2 3 4 5 6 
#
# 1 0.012713 -0.001899 -0.002986 0.000000 -0.004331 0.000000
# 2 -0.001899 0.011455 -0.003470 0.000000 -0.000554 0.000000
# 3 -0.002986 -0.003470 0.010606 0.000000 -0.000997 0.000000
# 4 0.000000 0.000000 0.000000 0.076773 0.000000 -0.068866
# 5 -0.004331 -0.000554 -0.000997 0.000000 0.022946 0.000000
# 6 0.000000 0.000000 0.000000 -0.068866 0.000000 0.131913
#
#
# Mechanical properties :
#
#
# Convention : Reuss Voigt Hill
#
# Bulk Modulus (GPa) = 55.35632 61.48136 58.41884
# Shear Modulus (GPa) = 17.29293 31.67436 24.48364
#
# Velocity S-wave (km/s) = 2.70787 3.66477 3.22204
# Velocity P-wave (km/s) = 5.76618 6.63149 6.21392
#
# Compressibility (1/GPa) = 0.01806478
#
# Stress axis : x y z
#
# Youngs Moduli (GPa) = 78.66124 87.30170 94.28691
#
# Poissons Ratio (x) = 0.16576 0.28154
# Poissons Ratio (y) = 0.14936 0.32713
# Poissons Ratio (z) = 0.23488 0.30289
#
# Static dielectric constant tensor:
#      x y z
#    x 1.708350 0.000000 -0.033840 
#    y 0.000000 1.936170 0.000000 
#    z -0.033840 0.000000 1.935380 
# 
# From -- ./inp_files/186178.got.cif
#   From: 2010.05.17/outbox.cif.g08.bks.cpg/sg15_94_cif.got.tgz:186178.got - 2010.06.03 18:47:42.
