data_PCOD9291724
_publ_section_title
;
Structure prediction by ZEFSAII (Michael W. Deem and Ramdas Pophale) SiO2 
 PCOD9291724
Probable space group: C 2/C
;
_chemical_formula_sum "Si O2"
_cell_formula_units_Z 36
_cell_length_a 5.175880
_cell_length_b 29.046926
_cell_length_c 12.473539
_cell_angle_alpha 90.000000
_cell_angle_beta 53.471349
_cell_angle_gamma 90.000000
_cell_volume 1506.926281
_symmetry_space_group_name_H-M "C 2/C"
_symmetry_group_IT_number 15
_symmetry_cell_setting 'monoclinic'
loop_
_space_group_symop_operation_xyz
x,y,z
-x,y,1/2-z
-x,-y,-z
x,-y,1/2+z
1/2+x,1/2+y,z
1/2-x,1/2+y,1/2-z
1/2-x,1/2-y,-z
1/2+x,1/2-y,1/2+z
loop_
_atom_site_type_symbol
_atom_site_label
_atom_site_fract_x
_atom_site_fract_y
_atom_site_fract_z
Si Si1 0.350903 0.364904 0.446840
Si Si2 0.887048 0.820110 0.662047
Si Si3 0.818248 0.726860 0.598425
Si Si4 0.500000 0.098748 0.750000
Si Si5 0.163027 0.542205 0.899504
O O1 0.452041 0.350113 0.541136
O O2 0.118436 0.325875 0.453757
O O3 0.211947 0.415828 0.470393
O O4 0.693937 0.369944 0.302950
O O5 0.500000 0.817510 0.750000
O O6 0.008069 0.767185 0.616218
O O7 0.000000 0.837106 0.750000
O O8 0.500000 0.721838 0.750000
O O9 0.750000 0.750000 0.500000
O O10 0.438451 0.064950 0.864354
O O11 0.500000 0.532625 0.750000
O O12 0.000000 0.500000 0.000000
#
# Coordination Sequence:
#
# PCOD9291724 Si02
#       5
#     8   8   8   4   8
#     4  10  22  43  67  98 137 185 239 286 363 432
#     4  10  23  44  66 104 146 186 241 293 355 424
#     4   9  18  39  61  92 136 182 230 287 341 418
#     4  10  22  42  70  96 132 180 238 296 350 446
#     4  10  23  45  68 102 139 177 240 297 373 438
#
# _framework density 23.889686999999999
#
# number of rings (size 3 to 8) (size 9 to 14) (size 15 to 20)
#    0.000    2.222    0.000    2.000    3.111    3.556 
#   28.000   10.000    0.000    0.000    2.889    0.000 
#    0.000    0.000    0.000    0.000    0.000    0.000 
#
# Total GULP energy -100440.636938 kJ/mol
# GULP energy per Si atom -5580.035385 kJ/mol
# Density = 2.383531 g / cm^3
# Si number density = 23.889687 Si / 1000 Ang^3
#
#
#
# Elastic Constant Matrix: (Units=GPa)
#
#
# Indices 1 2 3 4 5 6 
#
# 1 102.0587 59.6770 29.3517 0.0000 33.1133 0.0000
# 2 59.6770 215.8901 82.3464 0.0000 12.0761 0.0000
# 3 29.3517 82.3464 133.1939 0.0000 32.3333 0.0000
# 4 0.0000 0.0000 0.0000 22.9965 0.0000 -16.7548
# 5 33.1133 12.0761 32.3333 0.0000 43.6827 0.0000
# 6 0.0000 0.0000 0.0000 -16.7548 0.0000 -7.5969
#
#
#
# Elastic Compliance Matrix: (Units=1/GPa)
#
#
# Indices 1 2 3 4 5 6 
#
# 1 0.015859 -0.004593 0.002383 0.000000 -0.012516 0.000000
# 2 -0.004593 0.007456 -0.004806 0.000000 0.004977 0.000000
# 3 0.002383 -0.004806 0.012276 0.000000 -0.009564 0.000000
# 4 0.000000 0.000000 0.000000 0.016681 0.000000 -0.036789
# 5 -0.012516 0.004977 -0.009564 0.000000 0.038083 0.000000
# 6 0.000000 0.000000 0.000000 -0.036789 0.000000 -0.050495
#
#
# Mechanical properties :
#
#
# Convention : Reuss Voigt Hill
#
# Bulk Modulus (GPa) = 46.38283 88.21030 67.29657
# Shear Modulus (GPa) = 81.86114 30.46762 56.16438
#
# Velocity S-wave (km/s) = 5.86009 3.57507 4.85396
# Velocity P-wave (km/s) = 8.07745 7.35158 7.72305
#
# Compressibility (1/GPa) = 0.02155970
#
# Stress axis : x y z
#
# Youngs Moduli (GPa) = 63.05406 134.11615 81.46160
#
# Poissons Ratio (x) = 0.61595 -0.19411
# Poissons Ratio (y) = 0.28959 0.39150
# Poissons Ratio (z) = -0.15025 0.64456
#
# Static dielectric constant tensor:
#      x y z
#    x 2.373150 0.000000 -0.447060 
#    y 0.000000 1.897620 0.000000 
#    z -0.447060 0.000000 2.992680 
# 
# From -- ./inp_files/73540.got.cif
#   From: 2010.05.17/outbox.cif.g08.bks.cpg/sg15_37_cif.got.tgz:73540.got - 2010.06.03 18:47:42.
