data_PCOD9291933
_publ_section_title
;
Structure prediction by ZEFSAII (Michael W. Deem and Ramdas Pophale) SiO2 
 PCOD9291933
Probable space group: C 2/C
;
_chemical_formula_sum "Si O2"
_cell_formula_units_Z 56
_cell_length_a 18.674263
_cell_length_b 18.672820
_cell_length_c 21.269441
_cell_angle_alpha 90.000000
_cell_angle_beta 20.749999
_cell_angle_gamma 90.000000
_cell_volume 2627.662628
_symmetry_space_group_name_H-M "C 2/C"
_symmetry_group_IT_number 15
_symmetry_cell_setting 'monoclinic'
loop_
_space_group_symop_operation_xyz
x,y,z
-x,y,1/2-z
-x,-y,-z
x,-y,1/2+z
1/2+x,1/2+y,z
1/2-x,1/2+y,1/2-z
1/2-x,1/2-y,-z
1/2+x,1/2-y,1/2+z
loop_
_atom_site_type_symbol
_atom_site_label
_atom_site_fract_x
_atom_site_fract_y
_atom_site_fract_z
Si Si1 0.000000 0.022381 0.250000
Si Si2 0.222633 0.146238 0.137463
Si Si3 0.268345 0.977988 0.919295
Si Si4 0.041681 0.106027 0.033950
Si Si5 0.426980 0.802769 0.240633
Si Si6 0.589662 0.790156 0.548640
Si Si7 0.689266 0.352231 0.892987
Si Si8 0.000000 0.796744 0.250000
O O1 0.842113 0.077640 0.349295
O O2 0.878947 0.978682 0.400446
O O3 0.082696 0.216915 0.246574
O O4 0.160411 0.119823 0.258454
O O5 0.432081 0.170879 0.932738
O O6 0.500000 0.992354 0.750000
O O7 0.248949 0.901813 0.902063
O O8 0.169120 0.037774 0.954342
O O9 0.970094 0.108687 0.020924
O O10 0.202091 0.169610 0.912486
O O11 0.500000 0.828870 0.250000
O O12 0.614411 0.724867 0.479465
O O13 0.400636 0.837244 0.684632
O O14 0.795795 0.833345 0.393067
O O15 0.545302 0.753755 0.652739
#
# Coordination Sequence:
#
# PCOD9291933 Si02
#       8
#     4   8   8   8   8   8   8   4
#     4  10  22  43  62  96 127 162 232 274 328 390
#     4  11  21  35  63  96 133 176 214 275 322 386
#     4  11  25  47  71  95 126 180 231 278 326 393
#     4  11  25  43  64  95 144 178 220 263 330 415
#     4  12  21  35  63  99 133 177 224 272 328 371
#     4   9  20  37  66  98 129 163 218 276 340 391
#     4  11  25  43  66  97 138 174 215 275 345 399
#     4   8  16  35  62  92 127 152 208 282 318 378
#
# _framework density 21.311716000000001
#
# number of rings (size 3 to 8) (size 9 to 14) (size 15 to 20)
#    0.000    1.429    2.143    3.857    8.000    0.571 
#    5.143    0.000    0.000    5.143    0.000    0.000 
#    0.000    0.000    0.000    0.000    0.000    0.000 
#
# Total GULP energy -156101.816646 kJ/mol
# GULP energy per Si atom -5575.064880 kJ/mol
# Density = 2.126321 g / cm^3
# Si number density = 21.311716 Si / 1000 Ang^3
#
#
#
# Elastic Constant Matrix: (Units=GPa)
#
#
# Indices 1 2 3 4 5 6 
#
# 1 80.8195 27.2123 35.3579 -0.0608 -22.3903 -0.0986
# 2 27.2123 85.6469 33.4142 0.0068 -5.3916 -0.0860
# 3 35.3579 33.4142 121.9289 -0.0059 -5.7301 -0.1753
# 4 -0.0608 0.0068 -0.0059 29.6186 0.0054 -4.9270
# 5 -22.3903 -5.3916 -5.7301 0.0054 29.6651 0.0881
# 6 -0.0986 -0.0860 -0.1753 -4.9270 0.0881 -1.5477
#
#
#
# Elastic Compliance Matrix: (Units=1/GPa)
#
#
# Indices 1 2 3 4 5 6 
#
# 1 0.018848 -0.003678 -0.003856 0.000042 0.012813 0.000035
# 2 -0.003678 0.013877 -0.002774 -0.000036 -0.000789 -0.000152
# 3 -0.003856 -0.002774 0.010009 -0.000092 -0.001479 -0.000524
# 4 0.000042 -0.000036 -0.000092 0.022076 0.000212 -0.070255
# 5 0.012813 -0.000789 -0.001479 0.000212 0.042947 0.001165
# 6 0.000035 -0.000152 -0.000524 -0.070255 0.001165 -0.422333
#
#
# Mechanical properties :
#
#
# Convention : Reuss Voigt Hill
#
# Bulk Modulus (GPa) = 45.20775 53.37380 49.29077
# Shear Modulus (GPa) = -17.44665 24.37459 3.46397
#
# Velocity S-wave (km/s) = -2.86429 3.38556 1.27629
# Velocity P-wave (km/s) = 3.21244 6.35464 5.03494
#
# Compressibility (1/GPa) = 0.02212010
#
# Stress axis : x y z
#
# Youngs Moduli (GPa) = 53.05588 72.06361 99.90579
#
# Poissons Ratio (x) = 0.26503 0.38520
# Poissons Ratio (y) = 0.19512 0.27710
# Poissons Ratio (z) = 0.20457 0.19988
#
# Static dielectric constant tensor:
#      x y z
#    x 1.774010 -0.000010 0.022060 
#    y -0.000010 1.772340 0.000020 
#    z 0.022060 0.000020 1.829680 
# 
# From -- ./inp_files/250036.got.cif
#   From: 2010.05.17/outbox.cif.g08.bks.cpg/sg15_126_cif.got.tgz:250036.got - 2010.06.03 18:47:42.
