data_PCOD9291955
_publ_section_title
;
Structure prediction by ZEFSAII (Michael W. Deem and Ramdas Pophale) SiO2 
 PCOD9291955
Probable space group: C 2/C
;
_chemical_formula_sum "Si O2"
_cell_formula_units_Z 44
_cell_length_a 16.956228
_cell_length_b 9.829380
_cell_length_c 12.946637
_cell_angle_alpha 90.000000
_cell_angle_beta 67.644020
_cell_angle_gamma 90.000000
_cell_volume 1995.621899
_symmetry_space_group_name_H-M "C 2/C"
_symmetry_group_IT_number 15
_symmetry_cell_setting 'monoclinic'
loop_
_space_group_symop_operation_xyz
x,y,z
-x,y,1/2-z
-x,-y,-z
x,-y,1/2+z
1/2+x,1/2+y,z
1/2-x,1/2+y,1/2-z
1/2-x,1/2-y,-z
1/2+x,1/2-y,1/2+z
loop_
_atom_site_type_symbol
_atom_site_label
_atom_site_fract_x
_atom_site_fract_y
_atom_site_fract_z
Si Si1 0.816247 0.002533 0.722517
Si Si2 0.781870 0.379980 0.048189
Si Si3 0.500000 0.766590 0.750000
Si Si4 0.961836 0.856206 0.053131
Si Si5 0.855052 0.509708 0.317661
Si Si6 0.916382 0.725799 0.649639
O O1 0.794642 0.063437 0.844363
O O2 0.863332 0.114873 0.627782
O O3 0.726929 0.965493 0.713967
O O4 0.876038 0.870887 0.700640
O O5 0.856117 0.332059 0.088383
O O6 0.750000 0.250000 0.000000
O O7 0.818777 0.492053 0.951533
O O8 0.497025 0.683036 0.857261
O O9 0.581621 0.863492 0.718383
O O10 0.992025 0.751070 0.949899
O O11 0.000000 0.000000 0.000000
O O12 0.904881 0.379428 0.248507
#
# Coordination Sequence:
#
# PCOD9291955 Si02
#       6
#     8   8   4   8   8   8
#     4  10  23  40  70 102 135 181 235 292 338 415
#     4  11  20  40  68  98 136 182 232 278 357 419
#     4  12  24  44  74 102 136 188 226 278 360 414
#     4  10  23  43  70 102 138 184 233 291 339 416
#     4  11  24  41  70 103 137 183 228 286 355 414
#     4  10  22  43  64 102 138 174 238 289 340 415
#
# _framework density 22.048264
#
# number of rings (size 3 to 8) (size 9 to 14) (size 15 to 20)
#    0.000    1.455    3.636    1.091    2.545    1.455 
#    0.000    5.455    0.000    0.000    0.000    0.000 
#    0.000    0.000    0.000    0.000    0.000    0.000 
#
# Total GULP energy -123000.600484 kJ/mol
# GULP energy per Si atom -5590.936386 kJ/mol
# Density = 2.199808 g / cm^3
# Si number density = 22.048264 Si / 1000 Ang^3
#
#
#
# Elastic Constant Matrix: (Units=GPa)
#
#
# Indices 1 2 3 4 5 6 
#
# 1 83.3101 36.9832 38.3818 0.0000 -9.4791 0.0000
# 2 36.9832 89.0038 75.1878 0.0000 -8.9246 0.0000
# 3 38.3818 75.1878 185.7914 0.0000 -29.5034 0.0000
# 4 0.0000 0.0000 0.0000 48.7780 0.0000 9.7147
# 5 -9.4791 -8.9246 -29.5034 0.0000 19.2455 0.0000
# 6 0.0000 0.0000 0.0000 9.7147 0.0000 22.0892
#
#
#
# Elastic Compliance Matrix: (Units=1/GPa)
#
#
# Indices 1 2 3 4 5 6 
#
# 1 0.015122 -0.005780 -0.000037 0.000000 0.004712 0.000000
# 2 -0.005780 0.019465 -0.007537 0.000000 -0.005374 0.000000
# 3 -0.000037 -0.007537 0.010418 0.000000 0.012458 0.000000
# 4 0.000000 0.000000 0.000000 0.022469 0.000000 -0.009882
# 5 0.004712 -0.005374 0.012458 0.000000 0.070888 0.000000
# 6 0.000000 0.000000 0.000000 -0.009882 0.000000 0.049617
#
#
# Mechanical properties :
#
#
# Convention : Reuss Voigt Hill
#
# Bulk Modulus (GPa) = 54.64873 73.24566 63.94719
# Shear Modulus (GPa) = 22.64636 31.85938 27.25287
#
# Velocity S-wave (km/s) = 3.20836 3.80542 3.51957
# Velocity P-wave (km/s) = 6.21003 7.25265 6.75150
#
# Compressibility (1/GPa) = 0.01829869
#
# Stress axis : x y z
#
# Youngs Moduli (GPa) = 66.12739 51.37379 95.98469
#
# Poissons Ratio (x) = 0.29696 0.00351
# Poissons Ratio (y) = 0.38224 0.72340
# Poissons Ratio (z) = 0.00242 0.38719
#
# Static dielectric constant tensor:
#      x y z
#    x 1.809320 0.000000 -0.036000 
#    y 0.000000 1.806980 0.000000 
#    z -0.036000 0.000000 1.840430 
# 
# From -- ./inp_files/110500.got.cif
#   From: 2010.05.17/outbox.cif.g08.bks.cpg/sg15_56_cif.got.tgz:110500.got - 2010.06.03 18:47:42.
