data_PCOD9291533
_publ_section_title
;
Structure prediction by ZEFSAII (Michael W. Deem and Ramdas Pophale) SiO2 
 PCOD9291533
Probable space group: C 2/C
;
_chemical_formula_sum "Si O2"
_cell_formula_units_Z 64
_cell_length_a 9.719019
_cell_length_b 10.785662
_cell_length_c 30.898931
_cell_angle_alpha 90.000000
_cell_angle_beta 97.718062
_cell_angle_gamma 90.000000
_cell_volume 3209.670504
_symmetry_space_group_name_H-M "C 2/C"
_symmetry_group_IT_number 15
_symmetry_cell_setting 'monoclinic'
loop_
_space_group_symop_operation_xyz
x,y,z
-x,y,1/2-z
-x,-y,-z
x,-y,1/2+z
1/2+x,1/2+y,z
1/2-x,1/2+y,1/2-z
1/2-x,1/2-y,-z
1/2+x,1/2-y,1/2+z
loop_
_atom_site_type_symbol
_atom_site_label
_atom_site_fract_x
_atom_site_fract_y
_atom_site_fract_z
Si Si1 0.132625 0.930402 0.725553
Si Si2 0.159454 0.005255 0.927432
Si Si3 0.903345 0.114440 0.376070
Si Si4 0.142919 0.599972 0.637626
Si Si5 0.347370 0.132228 0.502992
Si Si6 0.658856 0.855818 0.239650
Si Si7 0.607234 0.244814 0.467761
Si Si8 0.365266 0.980200 0.591903
O O1 0.080444 0.912754 0.674165
O O2 0.191396 0.793427 0.742750
O O3 0.000000 0.957782 0.750000
O O4 0.241080 0.044756 0.732509
O O5 0.235387 0.042752 0.886232
O O6 0.083189 0.117691 0.948957
O O7 0.279740 0.956646 0.964142
O O8 0.040538 0.909517 0.909679
O O9 0.869931 0.258913 0.378839
O O10 0.776602 0.029676 0.387399
O O11 0.169281 0.605828 0.689762
O O12 0.998661 0.528128 0.623306
O O13 0.250000 0.250000 0.500000
O O14 0.495054 0.182895 0.494181
O O15 0.350345 0.066004 0.549081
O O16 0.500000 0.867406 0.250000
O O17 0.750000 0.250000 0.500000
O O18 0.612210 0.156471 0.426413
#
# Coordination Sequence:
#
# PCOD9291533 Si02
#       8
#     8   8   8   8   8   8   8   8
#     4  10  22  44  66  98 132 166 210 262 325 389
#     4  12  24  42  63  91 127 165 217 261 316 374
#     4  11  25  41  66  95 126 164 210 264 315 377
#     4  11  23  43  65  91 127 165 206 263 316 372
#     4  12  26  40  62  90 123 171 217 259 314 375
#     4  10  22  42  68  95 130 167 208 261 323 392
#     4  12  24  41  62  87 123 169 213 262 317 366
#     4  12  23  41  62  89 127 163 212 260 312 371
#
# _framework density 19.939741999999999
#
# number of rings (size 3 to 8) (size 9 to 14) (size 15 to 20)
#    0.000    0.750    3.750    4.125    1.750    1.500 
#    2.250    0.000    0.000    0.000    0.000    0.000 
#    0.000    0.000    0.000    0.000    0.000    0.000 
#
# Total GULP energy -178866.981756 kJ/mol
# GULP energy per Si atom -5589.593180 kJ/mol
# Density = 1.989436 g / cm^3
# Si number density = 19.939742 Si / 1000 Ang^3
#
#
#
# Elastic Constant Matrix: (Units=GPa)
#
#
# Indices 1 2 3 4 5 6 
#
# 1 73.8406 20.9060 5.3095 0.0000 -7.3955 0.0000
# 2 20.9060 68.9309 5.1110 0.0000 4.0711 0.0000
# 3 5.3095 5.1110 42.9676 0.0000 -12.3455 0.0000
# 4 0.0000 0.0000 0.0000 19.1200 0.0000 3.3301
# 5 -7.3955 4.0711 -12.3455 0.0000 38.7006 0.0000
# 6 0.0000 0.0000 0.0000 3.3301 0.0000 34.5244
#
#
#
# Elastic Compliance Matrix: (Units=1/GPa)
#
#
# Indices 1 2 3 4 5 6 
#
# 1 0.015258 -0.004795 -0.000366 0.000000 0.003303 0.000000
# 2 -0.004795 0.016333 -0.002320 0.000000 -0.003375 0.000000
# 3 -0.000366 -0.002320 0.026030 0.000000 0.008478 0.000000
# 4 0.000000 0.000000 0.000000 0.053195 0.000000 -0.005131
# 5 0.003303 -0.003375 0.008478 0.000000 0.029530 0.000000
# 6 0.000000 0.000000 0.000000 -0.005131 0.000000 0.029460
#
#
# Mechanical properties :
#
#
# Convention : Reuss Voigt Hill
#
# Bulk Modulus (GPa) = 23.44181 27.59910 25.52046
# Shear Modulus (GPa) = 25.12719 28.76317 26.94518
#
# Velocity S-wave (km/s) = 3.55372 3.80215 3.68003
# Velocity P-wave (km/s) = 5.34980 5.75730 5.55729
#
# Compressibility (1/GPa) = 0.04265881
#
# Stress axis : x y z
#
# Youngs Moduli (GPa) = 65.54134 61.22581 38.41667
#
# Poissons Ratio (x) = 0.29360 0.01405
# Poissons Ratio (y) = 0.31430 0.08912
# Poissons Ratio (z) = 0.02398 0.14203
#
# Static dielectric constant tensor:
#      x y z
#    x 1.719530 0.000000 -0.029090 
#    y 0.000000 1.710380 0.000000 
#    z -0.029090 0.000000 1.692340 
# 
# From -- ./inp_files/307498.got.cif
#   From: 2010.05.17/outbox.cif.g08.bks.cpg/sg15_154_cif.got.tgz:307498.got - 2010.06.03 18:47:42.
