data_PCOD9291988
_publ_section_title
;
Structure prediction by ZEFSAII (Michael W. Deem and Ramdas Pophale) SiO2 
 PCOD9291988
Probable space group: C 2/C
;
_chemical_formula_sum "Si O2"
_cell_formula_units_Z 48
_cell_length_a 13.695718
_cell_length_b 24.287068
_cell_length_c 9.488026
_cell_angle_alpha 90.000000
_cell_angle_beta 138.672775
_cell_angle_gamma 90.000000
_cell_volume 2084.085718
_symmetry_space_group_name_H-M "C 2/C"
_symmetry_group_IT_number 15
_symmetry_cell_setting 'monoclinic'
loop_
_space_group_symop_operation_xyz
x,y,z
-x,y,1/2-z
-x,-y,-z
x,-y,1/2+z
1/2+x,1/2+y,z
1/2-x,1/2+y,1/2-z
1/2-x,1/2-y,-z
1/2+x,1/2-y,1/2+z
loop_
_atom_site_type_symbol
_atom_site_label
_atom_site_fract_x
_atom_site_fract_y
_atom_site_fract_z
Si Si1 0.919463 0.712110 0.808383
Si Si2 0.913291 0.175897 0.026596
Si Si3 0.648920 0.369672 0.338959
Si Si4 0.168024 0.001666 0.943435
Si Si5 0.850641 0.530077 0.390074
Si Si6 0.082093 0.636861 0.204719
O O1 0.744404 0.702908 0.603172
O O2 0.000000 0.694232 0.750000
O O3 0.974313 0.774621 0.890890
O O4 0.979990 0.677893 0.007155
O O5 0.000000 0.147669 0.250000
O O6 0.871688 0.139092 0.848521
O O7 0.500000 0.351056 0.250000
O O8 0.670135 0.434416 0.395007
O O9 0.779005 0.337889 0.562025
O O10 0.000000 0.981820 0.750000
O O11 0.295581 0.972280 0.990260
O O12 0.218517 0.001894 0.159261
O O13 0.865511 0.591925 0.350354
O O14 0.000000 0.500000 0.500000
O O15 0.000000 0.608974 0.250000
#
# Coordination Sequence:
#
# PCOD9291988 Si02
#       6
#     8   8   8   8   8   8
#     4  11  25  42  68  96 138 169 219 270 328 392
#     4  11  24  44  67  96 137 172 217 269 330 394
#     4  10  23  41  67  95 131 173 220 268 327 387
#     4  10  22  43  64  95 132 174 221 274 324 393
#     4  11  22  39  69  92 133 171 220 270 336 386
#     4  11  23  44  65  98 133 171 218 279 323 393
#
# _framework density 23.031680999999999
#
# number of rings (size 3 to 8) (size 9 to 14) (size 15 to 20)
#    0.000    1.333    1.667    5.000    4.667    2.667 
#    0.000    0.833    0.000    0.000    0.000    0.000 
#    0.000    0.000    0.000    0.000    0.000    0.000 
#
# Total GULP energy -134082.554418 kJ/mol
# GULP energy per Si atom -5586.773101 kJ/mol
# Density = 2.297926 g / cm^3
# Si number density = 23.031681 Si / 1000 Ang^3
#
#
#
# Elastic Constant Matrix: (Units=GPa)
#
#
# Indices 1 2 3 4 5 6 
#
# 1 58.3785 2.6143 -1.3295 0.0000 8.2641 0.0000
# 2 2.6143 34.6829 27.9527 0.0000 -6.8954 0.0000
# 3 -1.3295 27.9527 143.7739 0.0000 11.9680 0.0000
# 4 0.0000 0.0000 0.0000 21.1985 0.0000 -11.7842
# 5 8.2641 -6.8954 11.9680 0.0000 52.1076 0.0000
# 6 0.0000 0.0000 0.0000 -11.7842 0.0000 8.5578
#
#
#
# Elastic Compliance Matrix: (Units=1/GPa)
#
#
# Indices 1 2 3 4 5 6 
#
# 1 0.017763 -0.002823 0.000998 0.000000 -0.003420 0.000000
# 2 -0.002823 0.036701 -0.007751 0.000000 0.007085 0.000000
# 3 0.000998 -0.007751 0.008737 0.000000 -0.003191 0.000000
# 4 0.000000 0.000000 0.000000 0.201150 0.000000 0.276987
# 5 -0.003420 0.007085 -0.003191 0.000000 0.021404 0.000000
# 6 0.000000 0.000000 0.000000 0.276987 0.000000 0.498268
#
#
# Mechanical properties :
#
#
# Convention : Reuss Voigt Hill
#
# Bulk Modulus (GPa) = 22.70241 32.81225 27.75733
# Shear Modulus (GPa) = 6.11352 30.21264 18.16308
#
# Velocity S-wave (km/s) = 1.63100 3.62579 2.81127
# Velocity P-wave (km/s) = 3.66406 5.63968 4.75559
#
# Compressibility (1/GPa) = 0.04404820
#
# Stress axis : x y z
#
# Youngs Moduli (GPa) = 56.29721 27.24711 114.45300
#
# Poissons Ratio (x) = 0.07692 -0.11420
# Poissons Ratio (y) = 0.15893 0.88716
# Poissons Ratio (z) = -0.05617 0.21120
#
# Static dielectric constant tensor:
#      x y z
#    x 1.899430 0.000000 -0.018660 
#    y 0.000000 1.868910 0.000000 
#    z -0.018660 0.000000 0.901220 
# 
# From -- ./inp_files/43925.got.cif
#   From: 2010.05.17/outbox.cif.g08.bks.cpg/sg15_22_cif.got.tgz:43925.got - 2010.06.03 18:47:42.
