data_PCOD9291757
_publ_section_title
;
Structure prediction by ZEFSAII (Michael W. Deem and Ramdas Pophale) SiO2 
 PCOD9291757
Probable space group: C 2/C
;
_chemical_formula_sum "Si O2"
_cell_formula_units_Z 64
_cell_length_a 24.376189
_cell_length_b 19.600798
_cell_length_c 18.653363
_cell_angle_alpha 90.000000
_cell_angle_beta 18.620059
_cell_angle_gamma 90.000000
_cell_volume 2845.663317
_symmetry_space_group_name_H-M "C 2/C"
_symmetry_group_IT_number 15
_symmetry_cell_setting 'monoclinic'
loop_
_space_group_symop_operation_xyz
x,y,z
-x,y,1/2-z
-x,-y,-z
x,-y,1/2+z
1/2+x,1/2+y,z
1/2-x,1/2+y,1/2-z
1/2-x,1/2-y,-z
1/2+x,1/2-y,1/2+z
loop_
_atom_site_type_symbol
_atom_site_label
_atom_site_fract_x
_atom_site_fract_y
_atom_site_fract_z
Si Si1 0.665240 0.637209 0.998168
Si Si2 0.566338 0.746709 0.850246
Si Si3 0.310307 0.875692 0.002650
Si Si4 0.741237 0.488271 0.854281
Si Si5 0.022649 0.639368 0.639818
Si Si6 0.193796 0.247134 0.840030
Si Si7 0.606044 0.008518 0.985096
Si Si8 0.817793 0.136170 0.988422
O O1 0.658335 0.557268 0.986607
O O2 0.840099 0.647414 0.826205
O O3 0.679833 0.681525 0.907852
O O4 0.500000 0.656508 0.250000
O O5 0.673011 0.681127 0.694582
O O6 0.550918 0.747058 0.955492
O O7 0.668396 0.812169 0.695438
O O8 0.366644 0.749181 0.078217
O O9 0.500000 0.846856 0.750000
O O10 0.337833 0.931756 0.030536
O O11 0.242441 0.901842 0.009692
O O12 0.762821 0.495965 0.742587
O O13 0.927832 0.478943 0.662183
O O14 0.648396 0.419482 0.992312
O O15 0.000000 0.658929 0.750000
O O16 0.160176 0.686983 0.430042
O O17 0.079328 0.560937 0.562103
O O18 0.000000 0.172747 0.750000
#
# Coordination Sequence:
#
# PCOD9291757 Si02
#       8
#     8   8   8   8   8   8   8   8
#     4  11  25  44  71 102 134 180 230 281 343 411
#     4  12  26  43  68 100 139 180 233 282 339 409
#     4  12  23  43  70 102 134 184 233 280 339 416
#     4  10  22  42  71 100 136 177 229 283 343 405
#     4  11  25  44  70  98 140 177 225 287 345 403
#     4  12  25  45  67  99 136 183 230 282 342 406
#     4  10  22  42  71 101 133 180 228 281 344 408
#     4  12  25  44  68 101 143 180 225 286 350 405
#
# _framework density 22.490362999999999
#
# number of rings (size 3 to 8) (size 9 to 14) (size 15 to 20)
#    0.000    0.750    2.500    4.875    7.000    1.000 
#    0.000    1.250    0.000    0.000    0.000    0.000 
#    0.000    0.000    0.000    0.000    0.000    0.000 
#
# Total GULP energy -179062.394958 kJ/mol
# GULP energy per Si atom -5595.699842 kJ/mol
# Density = 2.243917 g / cm^3
# Si number density = 22.490363 Si / 1000 Ang^3
#
#
#
# Elastic Constant Matrix: (Units=GPa)
#
#
# Indices 1 2 3 4 5 6 
#
# 1 97.4184 28.8986 9.8465 -0.0071 25.5909 -0.0019
# 2 28.8986 115.4208 44.2114 -0.0157 11.0467 0.0007
# 3 9.8465 44.2114 124.7694 -0.0198 14.4553 0.0097
# 4 -0.0071 -0.0157 -0.0198 34.7032 0.0089 4.6709
# 5 25.5909 11.0467 14.4553 0.0089 33.2443 0.0021
# 6 -0.0019 0.0007 0.0097 4.6709 0.0021 32.9735
#
#
#
# Elastic Compliance Matrix: (Units=1/GPa)
#
#
# Indices 1 2 3 4 5 6 
#
# 1 0.013641 -0.002879 0.001105 0.000005 -0.010024 0.000000
# 2 -0.002879 0.010745 -0.003605 0.000002 0.000213 0.000000
# 3 0.001105 -0.003605 0.009651 0.000006 -0.003849 -0.000003
# 4 0.000005 0.000002 0.000006 0.029376 -0.000014 -0.004161
# 5 -0.010024 0.000213 -0.003849 -0.000014 0.039400 0.000000
# 6 0.000000 0.000000 -0.000003 -0.004161 0.000000 0.030917
#
#
# Mechanical properties :
#
#
# Convention : Reuss Voigt Hill
#
# Bulk Modulus (GPa) = 42.95786 55.94682 49.45234
# Shear Modulus (GPa) = 32.84137 37.16101 35.00119
#
# Velocity S-wave (km/s) = 3.82546 4.06927 3.94925
# Velocity P-wave (km/s) = 6.21725 6.85628 6.54457
#
# Compressibility (1/GPa) = 0.02327863
#
# Stress axis : x y z
#
# Youngs Moduli (GPa) = 73.31033 93.06389 103.61669
#
# Poissons Ratio (x) = 0.26795 -0.11451
# Poissons Ratio (y) = 0.21108 0.37354
# Poissons Ratio (z) = -0.08102 0.33550
#
# Static dielectric constant tensor:
#      x y z
#    x 1.810000 -0.000010 0.003930 
#    y -0.000010 1.801060 0.000020 
#    z 0.003930 0.000020 1.836870 
# 
# From -- ./inp_files/220242.got.cif
#   From: 2010.05.17/outbox.cif.g08.bks.cpg/sg15_111_cif.got.tgz:220242.got - 2010.06.03 18:47:42.
