data_PCOD9291335
_publ_section_title
;
Structure prediction by ZEFSAII (Michael W. Deem and Ramdas Pophale) SiO2 
 PCOD9291335
Probable space group: C 2/C
;
_chemical_formula_sum "Si O2"
_cell_formula_units_Z 56
_cell_length_a 26.888575
_cell_length_b 8.639578
_cell_length_c 11.164000
_cell_angle_alpha 90.000000
_cell_angle_beta 74.002049
_cell_angle_gamma 90.000000
_cell_volume 2493.022710
_symmetry_space_group_name_H-M "C 2/C"
_symmetry_group_IT_number 15
_symmetry_cell_setting 'monoclinic'
loop_
_space_group_symop_operation_xyz
x,y,z
-x,y,1/2-z
-x,-y,-z
x,-y,1/2+z
1/2+x,1/2+y,z
1/2-x,1/2+y,1/2-z
1/2-x,1/2-y,-z
1/2+x,1/2-y,1/2+z
loop_
_atom_site_type_symbol
_atom_site_label
_atom_site_fract_x
_atom_site_fract_y
_atom_site_fract_z
Si Si1 0.217308 0.822755 0.777934
Si Si2 0.500000 0.949668 0.750000
Si Si3 0.500000 0.465605 0.750000
Si Si4 0.274983 0.026570 0.574378
Si Si5 0.075671 0.211840 0.598439
Si Si6 0.651017 0.174719 0.614286
Si Si7 0.445169 0.192116 0.654299
Si Si8 0.331748 0.499371 0.999457
O O1 0.225630 0.699909 0.877089
O O2 0.192967 0.728176 0.685017
O O3 0.266402 0.912258 0.693409
O O4 0.178060 0.951277 0.856590
O O5 0.550061 0.841011 0.700052
O O6 0.489511 0.064101 0.645496
O O7 0.535280 0.571208 0.641877
O O8 0.465956 0.355217 0.689069
O O9 0.224652 0.001442 0.524833
O O10 0.325996 0.969964 0.472565
O O11 0.074304 0.283966 0.466630
O O12 0.130808 0.129691 0.582044
O O13 0.600112 0.145455 0.724138
O O14 0.645572 0.327678 0.534469
#
# Coordination Sequence:
#
# PCOD9291335 Si02
#       8
#     8   4   4   8   8   8   8   8
#     4  11  22  42  63  89 131 167 215 259 316 373
#     4  10  26  42  66  96 132 164 210 272 320 380
#     4  10  22  42  66  96 120 166 216 272 312 378
#     4  11  24  41  63  96 129 171 211 262 314 380
#     4  11  22  43  68  94 125 167 217 262 321 382
#     4  11  23  40  65  93 131 167 210 261 320 379
#     4  11  22  42  67  93 132 167 208 265 326 378
#     4  11  22  40  65  92 128 166 216 262 311 378
#
# _framework density 22.462691
#
# number of rings (size 3 to 8) (size 9 to 14) (size 15 to 20)
#    0.000    1.143    2.857    4.714    2.000    0.000 
#    0.000    0.000    6.286    0.000    0.000    0.000 
#    0.000    0.000    0.000    0.000    0.000    0.000 
#
# Total GULP energy -156485.270286 kJ/mol
# GULP energy per Si atom -5588.759653 kJ/mol
# Density = 2.241157 g / cm^3
# Si number density = 22.462691 Si / 1000 Ang^3
#
#
#
# Elastic Constant Matrix: (Units=GPa)
#
#
# Indices 1 2 3 4 5 6 
#
# 1 35.7713 21.9817 4.6812 0.0000 -11.1782 0.0000
# 2 21.9817 93.5762 32.3719 0.0000 -4.7299 0.0000
# 3 4.6812 32.3719 89.3255 0.0000 -16.1623 0.0000
# 4 0.0000 0.0000 0.0000 68.9230 0.0000 1.2567
# 5 -11.1782 -4.7299 -16.1623 0.0000 31.7098 0.0000
# 6 0.0000 0.0000 0.0000 1.2567 0.0000 33.7883
#
#
#
# Elastic Compliance Matrix: (Units=1/GPa)
#
#
# Indices 1 2 3 4 5 6 
#
# 1 0.037615 -0.009514 0.003987 0.000000 0.013873 0.000000
# 2 -0.009514 0.014631 -0.005525 0.000000 -0.003988 0.000000
# 3 0.003987 -0.005525 0.014424 0.000000 0.007933 0.000000
# 4 0.000000 0.000000 0.000000 0.014519 0.000000 -0.000540
# 5 0.013873 -0.003988 0.007933 0.000000 0.039875 0.000000
# 6 0.000000 0.000000 0.000000 -0.000540 0.000000 0.029616
#
#
# Mechanical properties :
#
#
# Convention : Reuss Voigt Hill
#
# Bulk Modulus (GPa) = 22.43905 37.41584 29.92744
# Shear Modulus (GPa) = 26.64666 37.52677 32.08672
#
# Velocity S-wave (km/s) = 3.44795 4.09176 3.78358
# Velocity P-wave (km/s) = 5.08550 6.24631 5.69556
#
# Compressibility (1/GPa) = 0.04456517
#
# Stress axis : x y z
#
# Youngs Moduli (GPa) = 26.58493 68.34669 69.32954
#
# Poissons Ratio (x) = 0.65026 -0.27640
# Poissons Ratio (y) = 0.25293 0.38307
# Poissons Ratio (z) = -0.10599 0.37764
#
# Static dielectric constant tensor:
#      x y z
#    x 1.839810 0.000000 -0.011850 
#    y 0.000000 1.833930 0.000000 
#    z -0.011850 0.000000 1.849740 
# 
# From -- ./inp_files/122030.got.cif
#   From: 2010.05.17/outbox.cif.g08.bks.cpg/sg15_62_cif.got.tgz:122030.got - 2010.06.03 18:47:42.
