data_PCOD9291507
_publ_section_title
;
Structure prediction by ZEFSAII (Michael W. Deem and Ramdas Pophale) SiO2 
 PCOD9291507
Probable space group: C 2/C
;
_chemical_formula_sum "Si O2"
_cell_formula_units_Z 56
_cell_length_a 21.840293
_cell_length_b 13.234769
_cell_length_c 9.427993
_cell_angle_alpha 90.000000
_cell_angle_beta 122.992009
_cell_angle_gamma 90.000000
_cell_volume 2285.729370
_symmetry_space_group_name_H-M "C 2/C"
_symmetry_group_IT_number 15
_symmetry_cell_setting 'monoclinic'
loop_
_space_group_symop_operation_xyz
x,y,z
-x,y,1/2-z
-x,-y,-z
x,-y,1/2+z
1/2+x,1/2+y,z
1/2-x,1/2+y,1/2-z
1/2-x,1/2-y,-z
1/2+x,1/2-y,1/2+z
loop_
_atom_site_type_symbol
_atom_site_label
_atom_site_fract_x
_atom_site_fract_y
_atom_site_fract_z
Si Si1 0.318856 0.976821 0.223456
Si Si2 0.828626 0.772025 0.166806
Si Si3 0.075496 0.469769 0.411382
Si Si4 0.851588 0.983852 0.061864
Si Si5 0.436235 0.801891 0.578868
Si Si6 0.243529 0.737485 0.823146
Si Si7 0.614892 0.625823 0.155752
O O1 0.366329 0.049668 0.386106
O O2 0.304006 0.863925 0.268947
O O3 0.368415 0.966798 0.148004
O O4 0.235194 0.003013 0.077852
O O5 0.876024 0.699077 0.128062
O O6 0.815659 0.766559 0.319001
O O7 0.750000 0.750000 0.000000
O O8 0.855297 0.884287 0.163636
O O9 0.048241 0.581083 0.431304
O O10 0.000000 0.422452 0.250000
O O11 0.896634 0.959400 0.977044
O O12 0.882745 0.078736 0.187045
O O13 0.500000 0.752804 0.750000
O O14 0.428169 0.727909 0.434658
O O15 0.196699 0.834838 0.722428
O O16 0.250000 0.750000 0.000000
#
# Coordination Sequence:
#
# PCOD9291507 Si02
#       7
#     8   8   8   8   8   8   8
#     4  12  22  38  60  91 125 164 209 260 315 372
#     4  11  20  40  63  92 125 167 213 264 325 383
#     4  11  24  39  59  89 128 173 212 250 309 393
#     4  11  22  35  63  92 121 155 208 268 324 380
#     4  10  22  42  68  90 126 173 213 259 328 396
#     4  12  23  36  59  93 131 162 209 269 323 360
#     4  11  22  40  59  94 123 159 208 266 324 380
#
# _framework density 24.499838
#
# number of rings (size 3 to 8) (size 9 to 14) (size 15 to 20)
#    0.000    0.857    5.714    3.857    0.000    0.000 
#    0.000    2.857    0.000    0.000    0.000    0.000 
#    0.000    0.000    0.000    0.000    0.000    0.000 
#
# Total GULP energy -156071.534110 kJ/mol
# GULP energy per Si atom -5573.983361 kJ/mol
# Density = 2.444408 g / cm^3
# Si number density = 24.499838 Si / 1000 Ang^3
#
#
#
# Elastic Constant Matrix: (Units=GPa)
#
#
# Indices 1 2 3 4 5 6 
#
# 1 25.9633 -13.5505 13.7832 0.0000 -9.2811 0.0000
# 2 -13.5505 84.0754 10.6517 0.0000 -4.6477 0.0000
# 3 13.7832 10.6517 100.2772 0.0000 -20.1560 0.0000
# 4 0.0000 0.0000 0.0000 38.8553 0.0000 -8.4418
# 5 -9.2811 -4.6477 -20.1560 0.0000 38.7390 0.0000
# 6 0.0000 0.0000 0.0000 -8.4418 0.0000 9.9182
#
#
#
# Elastic Compliance Matrix: (Units=1/GPa)
#
#
# Indices 1 2 3 4 5 6 
#
# 1 0.050127 0.009379 -0.005859 0.000000 0.010086 0.000000
# 2 0.009379 0.013838 -0.002204 0.000000 0.002760 0.000000
# 3 -0.005859 -0.002204 0.011923 0.000000 0.004536 0.000000
# 4 0.000000 0.000000 0.000000 0.031576 0.000000 0.026876
# 5 0.010086 0.002760 0.004536 0.000000 0.030921 0.000000
# 6 0.000000 0.000000 0.000000 0.026876 0.000000 0.123700
#
#
# Mechanical properties :
#
#
# Convention : Reuss Voigt Hill
#
# Bulk Modulus (GPa) = 12.73576 25.78719 19.26148
# Shear Modulus (GPa) = 17.50540 30.79793 24.15167
#
# Velocity S-wave (km/s) = 2.67593 3.54936 3.14313
# Velocity P-wave (km/s) = 3.84149 5.22930 4.58817
#
# Compressibility (1/GPa) = 0.07851908
#
# Stress axis : x y z
#
# Youngs Moduli (GPa) = 19.94951 72.26737 83.86812
#
# Poissons Ratio (x) = -0.67778 0.49137
# Poissons Ratio (y) = -0.18710 0.18486
# Poissons Ratio (z) = 0.11688 0.15929
#
# Static dielectric constant tensor:
#      x y z
#    x 1.863200 0.000000 0.081670 
#    y 0.000000 2.031860 0.000000 
#    z 0.081670 0.000000 2.151480 
# 
# From -- ./inp_files/61977.got.cif
#   From: 2010.05.17/outbox.cif.g08.bks.cpg/sg15_31_cif.got.tgz:61977.got - 2010.06.03 18:47:42.
