data_PCOD9291594
_publ_section_title
;
Structure prediction by ZEFSAII (Michael W. Deem and Ramdas Pophale) SiO2 
 PCOD9291594
Probable space group: C 2/C
;
_chemical_formula_sum "Si O2"
_cell_formula_units_Z 36
_cell_length_a 11.234326
_cell_length_b 31.827613
_cell_length_c 4.991563
_cell_angle_alpha 90.000000
_cell_angle_beta 51.902150
_cell_angle_gamma 90.000000
_cell_volume 1404.556776
_symmetry_space_group_name_H-M "C 2/C"
_symmetry_group_IT_number 15
_symmetry_cell_setting 'monoclinic'
loop_
_space_group_symop_operation_xyz
x,y,z
-x,y,1/2-z
-x,-y,-z
x,-y,1/2+z
1/2+x,1/2+y,z
1/2-x,1/2+y,1/2-z
1/2-x,1/2-y,-z
1/2+x,1/2-y,1/2+z
loop_
_atom_site_type_symbol
_atom_site_label
_atom_site_fract_x
_atom_site_fract_y
_atom_site_fract_z
Si Si1 0.679677 0.024741 0.193845
Si Si2 0.260639 0.694496 0.724412
Si Si3 0.500000 0.374486 0.750000
Si Si4 0.000000 0.348381 0.750000
Si Si5 0.000000 0.741403 0.750000
Si Si6 0.500000 0.563103 0.750000
Si Si7 0.000000 0.404804 0.250000
O O1 0.616537 0.065105 0.434665
O O2 0.639940 0.985273 0.441123
O O3 0.856509 0.033175 0.946570
O O4 0.355603 0.656402 0.463515
O O5 0.126105 0.715268 0.735235
O O6 0.393537 0.728657 0.585750
O O7 0.154487 0.676609 0.109698
O O8 0.499437 0.405385 0.500166
O O9 0.050275 0.375759 0.426161
#
# Coordination Sequence:
#
# PCOD9291594 Si02
#       7
#     8   8   4   4   4   4   4
#     4  12  24  42  66  95 132 174 222 275 334 398
#     4  10  22  42  69 101 137 181 228 280 339 401
#     4  11  24  43  69  98 138 180 228 280 338 402
#     4  12  24  41  67  96 133 174 224 278 333 398
#     4   9  21  44  70 101 139 180 228 280 337 405
#     4  12  24  43  67  99 134 176 226 280 336 399
#     4  12  25  43  65  96 132 174 222 274 334 398
#
# _framework density 25.630862
#
# number of rings (size 3 to 8) (size 9 to 14) (size 15 to 20)
#    0.000    0.889    0.000    7.333    0.000    2.667 
#    0.000    7.778    0.000    0.000    0.000    0.000 
#    0.000    0.000    0.000    0.000    0.000    0.000 
#
# Total GULP energy -100737.347895 kJ/mol
# GULP energy per Si atom -5596.519328 kJ/mol
# Density = 2.557253 g / cm^3
# Si number density = 25.630862 Si / 1000 Ang^3
#
#
#
# Elastic Constant Matrix: (Units=GPa)
#
#
# Indices 1 2 3 4 5 6 
#
# 1 107.3461 29.0847 60.5615 0.0000 4.2356 0.0000
# 2 29.0847 83.7877 41.6562 0.0000 9.1261 0.0000
# 3 60.5615 41.6562 126.9857 0.0000 -9.6026 0.0000
# 4 0.0000 0.0000 0.0000 -31.7129 0.0000 49.6833
# 5 4.2356 9.1261 -9.6026 0.0000 68.1667 0.0000
# 6 0.0000 0.0000 0.0000 49.6833 0.0000 -3.9361
#
#
#
# Elastic Compliance Matrix: (Units=1/GPa)
#
#
# Indices 1 2 3 4 5 6 
#
# 1 0.013079 -0.001467 -0.005866 0.000000 -0.001443 0.000000
# 2 -0.001467 0.014895 -0.004377 0.000000 -0.002520 0.000000
# 3 -0.005866 -0.004377 0.012311 0.000000 0.002685 0.000000
# 4 0.000000 0.000000 0.000000 0.001679 0.000000 0.021200
# 5 -0.001443 -0.002520 0.002685 0.000000 0.015475 0.000000
# 6 0.000000 0.000000 0.000000 0.021200 0.000000 0.013532
#
#
# Mechanical properties :
#
#
# Convention : Reuss Voigt Hill
#
# Bulk Modulus (GPa) = 59.29039 64.52495 61.90767
# Shear Modulus (GPa) = 49.99400 18.95802 34.47601
#
# Velocity S-wave (km/s) = 4.42128 2.72261 3.67154
# Velocity P-wave (km/s) = 7.01757 5.92561 6.49458
#
# Compressibility (1/GPa) = 0.01686614
#
# Stress axis : x y z
#
# Youngs Moduli (GPa) = 76.45722 67.13848 81.22722
#
# Poissons Ratio (x) = 0.09848 0.47645
# Poissons Ratio (y) = 0.11215 0.35553
# Poissons Ratio (z) = 0.44847 0.29386
#
# Static dielectric constant tensor:
#      x y z
#    x 1.982630 0.000000 -0.019850 
#    y 0.000000 2.100910 0.000000 
#    z -0.019850 0.000000 2.010510 
# 
# From -- ./inp_files/8921.got.cif
#   From: 2010.05.17/outbox.cif.g08.bks.cpg/sg15_5_cif.got.tgz:8921.got - 2010.06.03 18:47:42.
