data_PCOD9291866
_publ_section_title
;
Structure prediction by ZEFSAII (Michael W. Deem and Ramdas Pophale) SiO2 
 PCOD9291866
Probable space group: C 2/C
;
_chemical_formula_sum "Si O2"
_cell_formula_units_Z 40
_cell_length_a 18.088010
_cell_length_b 9.657114
_cell_length_c 26.031348
_cell_angle_alpha 90.000000
_cell_angle_beta 20.535564
_cell_angle_gamma 90.000000
_cell_volume 1595.072467
_symmetry_space_group_name_H-M "C 2/C"
_symmetry_group_IT_number 15
_symmetry_cell_setting 'monoclinic'
loop_
_space_group_symop_operation_xyz
x,y,z
-x,y,1/2-z
-x,-y,-z
x,-y,1/2+z
1/2+x,1/2+y,z
1/2-x,1/2+y,1/2-z
1/2-x,1/2-y,-z
1/2+x,1/2-y,1/2+z
loop_
_atom_site_type_symbol
_atom_site_label
_atom_site_fract_x
_atom_site_fract_y
_atom_site_fract_z
Si Si1 0.919838 0.927126 0.395167
Si Si2 0.520603 0.717060 0.178040
Si Si3 0.410250 0.137150 0.089043
Si Si4 0.856511 0.923337 0.552060
Si Si5 0.458868 0.137210 0.168001
O O1 0.873158 0.976314 0.483557
O O2 0.707493 0.879017 0.506040
O O3 0.076647 0.800402 0.301292
O O4 0.992442 0.050514 0.313183
O O5 0.500000 0.768775 0.250000
O O6 0.293157 0.729125 0.297446
O O7 0.750000 0.750000 0.000000
O O8 0.360267 0.084598 0.179413
O O9 0.579274 0.260458 0.988435
O O10 0.500000 0.000000 0.000000
O O11 0.626534 0.936913 0.726223
O O12 0.000000 0.000000 0.500000
#
# Coordination Sequence:
#
# PCOD9291866 Si02
#       5
#     8   8   8   8   8
#     4  10  23  44  67 103 138 189 244 307 376 450
#     4  12  29  47  74 107 155 197 253 316 394 463
#     4  11  25  46  72 103 146 198 251 306 379 462
#     4  11  24  39  69 103 144 186 245 308 372 443
#     4  10  22  42  73  98 138 189 252 304 368 454
#
# _framework density 25.077231000000001
#
# number of rings (size 3 to 8) (size 9 to 14) (size 15 to 20)
#    0.000    1.200    0.000    4.200    8.400    4.800 
#    0.000    0.000    0.000    0.000    0.000    0.000 
#    0.000    0.000    0.000    0.000    0.000    0.000 
#
# Total GULP energy -111476.764875 kJ/mol
# GULP energy per Si atom -5573.838244 kJ/mol
# Density = 2.502015 g / cm^3
# Si number density = 25.077231 Si / 1000 Ang^3
#
#
#
# Elastic Constant Matrix: (Units=GPa)
#
#
# Indices 1 2 3 4 5 6 
#
# 1 180.0107 15.0045 48.7116 -0.0002 20.7021 0.0007
# 2 15.0045 81.9372 -1.6377 0.0083 11.1518 0.0017
# 3 48.7116 -1.6377 97.2412 0.0361 9.6937 0.0162
# 4 -0.0002 0.0083 0.0361 28.0724 0.0194 2.5637
# 5 20.7021 11.1518 9.6937 0.0194 37.6555 -0.0008
# 6 0.0007 0.0017 0.0162 2.5637 -0.0008 39.4920
#
#
#
# Elastic Compliance Matrix: (Units=1/GPa)
#
#
# Indices 1 2 3 4 5 6 
#
# 1 0.006792 -0.000947 -0.003155 0.000006 -0.002641 0.000001
# 2 -0.000947 0.012884 0.001047 -0.000003 -0.003564 -0.000001
# 3 -0.003155 0.001047 0.012049 -0.000014 -0.001677 -0.000004
# 4 0.000006 -0.000003 -0.000014 0.035835 -0.000017 -0.002326
# 5 -0.002641 -0.003564 -0.001677 -0.000017 0.029496 0.000003
# 6 0.000001 -0.000001 -0.000004 -0.002326 0.000003 0.025473
#
#
# Mechanical properties :
#
#
# Convention : Reuss Voigt Hill
#
# Bulk Modulus (GPa) = 39.04118 53.70509 46.37314
# Shear Modulus (GPa) = 36.44943 40.85137 38.65040
#
# Velocity S-wave (km/s) = 3.81660 4.04049 3.93014
# Velocity P-wave (km/s) = 5.91811 6.57494 6.25515
#
# Compressibility (1/GPa) = 0.02561398
#
# Stress axis : x y z
#
# Youngs Moduli (GPa) = 147.23963 77.61576 82.99490
#
# Poissons Ratio (x) = 0.07352 0.26184
# Poissons Ratio (y) = 0.13948 -0.08688
# Poissons Ratio (z) = 0.46452 -0.08125
#
# Static dielectric constant tensor:
#      x y z
#    x 1.988100 0.000000 -0.028980 
#    y 0.000000 2.172440 0.000000 
#    z -0.028980 0.000000 2.154740 
# 
# From -- ./inp_files/317441.got.cif
#   From: 2010.05.17/outbox.cif.g08.bks.cpg/sg15_159_cif.got.tgz:317441.got - 2010.06.03 18:47:42.
