data_PCOD9291937
_publ_section_title
;
Structure prediction by ZEFSAII (Michael W. Deem and Ramdas Pophale) SiO2 
 PCOD9291937
Probable space group: C 2/C
;
_chemical_formula_sum "Si O2"
_cell_formula_units_Z 48
_cell_length_a 8.766200
_cell_length_b 16.409128
_cell_length_c 18.445995
_cell_angle_alpha 90.000000
_cell_angle_beta 93.040174
_cell_angle_gamma 90.000000
_cell_volume 2649.642642
_symmetry_space_group_name_H-M "C 2/C"
_symmetry_group_IT_number 15
_symmetry_cell_setting 'monoclinic'
loop_
_space_group_symop_operation_xyz
x,y,z
-x,y,1/2-z
-x,-y,-z
x,-y,1/2+z
1/2+x,1/2+y,z
1/2-x,1/2+y,1/2-z
1/2-x,1/2-y,-z
1/2+x,1/2-y,1/2+z
loop_
_atom_site_type_symbol
_atom_site_label
_atom_site_fract_x
_atom_site_fract_y
_atom_site_fract_z
Si Si1 0.076372 0.335488 0.329448
Si Si2 0.058919 0.148033 0.670365
Si Si3 0.083422 0.007963 0.925016
Si Si4 0.582552 0.921793 0.037215
Si Si5 0.027077 0.728069 0.050806
Si Si6 0.378636 0.322526 0.585272
O O1 0.257944 0.348318 0.329233
O O2 0.060888 0.241305 0.354051
O O3 0.000000 0.351245 0.250000
O O4 0.004378 0.389540 0.392656
O O5 0.988322 0.223204 0.622406
O O6 0.000000 0.151806 0.750000
O O7 0.009405 0.065002 0.630980
O O8 0.247649 0.049822 0.940067
O O9 0.098951 0.916219 0.896452
O O10 0.000000 0.000000 0.000000
O O11 0.575220 0.846015 0.980640
O O12 0.500000 0.000000 0.000000
O O13 0.198169 0.692556 0.066602
O O14 0.040715 0.795493 0.987694
#
# Coordination Sequence:
#
# PCOD9291937 Si02
#       6
#     8   8   8   8   8   8
#     4  10  22  43  63  83 116 166 206 240 300 372
#     4  11  23  39  61  87 126 155 196 254 309 349
#     4  12  22  37  60  97 123 152 196 259 305 347
#     4  11  21  37  66  90 117 160 206 242 295 365
#     4   9  18  38  60  85 115 158 200 236 288 361
#     4   9  18  36  64  84 115 155 197 242 294 351
#
# _framework density 18.115651
#
# number of rings (size 3 to 8) (size 9 to 14) (size 15 to 20)
#    0.000    1.667    3.333    3.000    0.000    1.333 
#    3.000    0.833    3.667    0.000    0.000    0.000 
#    0.000    0.000    0.000    0.000    0.000    0.000 
#
# Total GULP energy -134004.785279 kJ/mol
# GULP energy per Si atom -5583.532720 kJ/mol
# Density = 1.807442 g / cm^3
# Si number density = 18.115651 Si / 1000 Ang^3
#
#
#
# Elastic Constant Matrix: (Units=GPa)
#
#
# Indices 1 2 3 4 5 6 
#
# 1 76.1854 50.5779 47.1834 0.0000 -5.1479 0.0000
# 2 50.5779 168.3941 81.9480 0.0000 3.2554 0.0000
# 3 47.1834 81.9480 148.0014 0.0000 -6.5428 0.0000
# 4 0.0000 0.0000 0.0000 28.3781 0.0000 5.5749
# 5 -5.1479 3.2554 -6.5428 0.0000 30.4282 0.0000
# 6 0.0000 0.0000 0.0000 5.5749 0.0000 25.6836
#
#
#
# Elastic Compliance Matrix: (Units=1/GPa)
#
#
# Indices 1 2 3 4 5 6 
#
# 1 0.017978 -0.003723 -0.003552 0.000000 0.002676 0.000000
# 2 -0.003723 0.009005 -0.003907 0.000000 -0.002433 0.000000
# 3 -0.003552 -0.003907 0.010140 0.000000 0.001998 0.000000
# 4 0.000000 0.000000 0.000000 0.036808 0.000000 -0.007990
# 5 0.002676 -0.002433 0.001998 0.000000 0.034007 0.000000
# 6 0.000000 0.000000 0.000000 -0.007990 0.000000 0.040670
#
#
# Mechanical properties :
#
#
# Convention : Reuss Voigt Hill
#
# Bulk Modulus (GPa) = 67.74846 83.55550 75.65198
# Shear Modulus (GPa) = 28.42673 31.08941 29.75807
#
# Velocity S-wave (km/s) = 3.96559 4.14715 4.05739
# Velocity P-wave (km/s) = 7.64505 8.31597 7.98756
#
# Compressibility (1/GPa) = 0.01476048
#
# Stress axis : x y z
#
# Youngs Moduli (GPa) = 55.62337 111.05100 98.61588
#
# Poissons Ratio (x) = 0.41346 0.35025
# Poissons Ratio (y) = 0.20709 0.38525
# Poissons Ratio (z) = 0.19756 0.43383
#
# Static dielectric constant tensor:
#      x y z
#    x 1.621500 0.000000 -0.003040 
#    y 0.000000 1.614010 0.000000 
#    z -0.003040 0.000000 1.602430 
# 
# From -- ./inp_files/189239.got.cif
#   From: 2010.05.17/outbox.cif.g08.bks.cpg/sg15_95_cif.got.tgz:189239.got - 2010.06.03 18:47:42.
