data_PCOD9291143
_publ_section_title
;
Structure prediction by ZEFSAII (Michael W. Deem and Ramdas Pophale) SiO2 
 PCOD9291143
Probable space group: C 2/C
;
_chemical_formula_sum "Si O2"
_cell_formula_units_Z 60
_cell_length_a 6.534569
_cell_length_b 23.625055
_cell_length_c 16.720930
_cell_angle_alpha 90.000000
_cell_angle_beta 86.375180
_cell_angle_gamma 90.000000
_cell_volume 2576.205484
_symmetry_space_group_name_H-M "C 2/C"
_symmetry_group_IT_number 15
_symmetry_cell_setting 'monoclinic'
loop_
_space_group_symop_operation_xyz
x,y,z
-x,y,1/2-z
-x,-y,-z
x,-y,1/2+z
1/2+x,1/2+y,z
1/2-x,1/2+y,1/2-z
1/2-x,1/2-y,-z
1/2+x,1/2-y,1/2+z
loop_
_atom_site_type_symbol
_atom_site_label
_atom_site_fract_x
_atom_site_fract_y
_atom_site_fract_z
Si Si1 0.259730 0.229450 0.376142
Si Si2 0.311275 0.102249 0.941326
Si Si3 0.000000 0.538240 0.250000
Si Si4 0.763110 0.965116 0.901346
Si Si5 0.862980 0.652861 0.676225
Si Si6 0.127720 0.112581 0.320847
Si Si7 0.437294 0.285844 0.025725
Si Si8 0.987900 0.062809 0.837424
O O1 0.168571 0.279701 0.324448
O O2 0.261085 0.165880 0.346209
O O3 0.475327 0.255978 0.397574
O O4 0.111855 0.220799 0.455724
O O5 0.513630 0.134293 0.906481
O O6 0.140274 0.150438 0.963076
O O7 0.213148 0.071914 0.866615
O O8 0.337244 0.061772 0.017016
O O9 0.104283 0.519262 0.333042
O O10 0.200210 0.569362 0.210973
O O11 0.947914 0.920605 0.873924
O O12 0.877324 0.024894 0.907052
O O13 0.650772 0.618068 0.677252
O O14 0.000000 0.638086 0.750000
O O15 0.000000 0.136744 0.250000
O O16 0.250000 0.250000 0.000000
O O17 0.000000 0.033327 0.750000
#
# Coordination Sequence:
#
# PCOD9291143 Si02
#       8
#     8   8   4   8   8   8   8   8
#     4  11  23  40  67  98 136 184 229 281 344 422
#     4  12  25  46  71 104 141 183 236 289 352 417
#     4  10  24  42  68 106 136 186 228 294 344 402
#     4  11  26  45  75  99 139 186 235 290 351 412
#     4  12  26  44  70 104 140 185 235 288 352 421
#     4  10  22  42  64  98 138 179 232 285 343 410
#     4  11  23  39  67  98 136 180 224 287 348 402
#     4  12  26  48  70 100 142 186 233 289 351 416
#
# _framework density 23.290068000000002
#
# number of rings (size 3 to 8) (size 9 to 14) (size 15 to 20)
#    0.000    0.800    5.333    2.000    2.800    2.667 
#    3.600    0.000    0.000    0.000    0.000    0.000 
#    0.000    0.000    0.000    0.000    0.000    0.000 
#
# Total GULP energy -167353.436121 kJ/mol
# GULP energy per Si atom -5578.447871 kJ/mol
# Density = 2.323706 g / cm^3
# Si number density = 23.290068 Si / 1000 Ang^3
#
#
#
# Elastic Constant Matrix: (Units=GPa)
#
#
# Indices 1 2 3 4 5 6 
#
# 1 74.2410 2.9487 12.6765 0.0000 8.2692 0.0000
# 2 2.9487 72.4716 4.7504 0.0000 1.8714 0.0000
# 3 12.6765 4.7504 55.6168 0.0000 3.0422 0.0000
# 4 0.0000 0.0000 0.0000 21.1087 0.0000 1.1409
# 5 8.2692 1.8714 3.0422 0.0000 32.8859 0.0000
# 6 0.0000 0.0000 0.0000 1.1409 0.0000 26.2011
#
#
#
# Elastic Compliance Matrix: (Units=1/GPa)
#
#
# Indices 1 2 3 4 5 6 
#
# 1 0.014375 -0.000298 -0.003070 0.000000 -0.003314 0.000000
# 2 -0.000298 0.013898 -0.001085 0.000000 -0.000615 0.000000
# 3 -0.003070 -0.001085 0.018822 0.000000 -0.000908 0.000000
# 4 0.000000 0.000000 0.000000 0.047486 0.000000 -0.002068
# 5 -0.003314 -0.000615 -0.000908 0.000000 0.031360 0.000000
# 6 0.000000 0.000000 0.000000 -0.002068 0.000000 0.038256
#
#
# Mechanical properties :
#
#
# Convention : Reuss Voigt Hill
#
# Bulk Modulus (GPa) = 26.18609 27.00895 26.59752
# Shear Modulus (GPa) = 26.90592 28.16938 27.53765
#
# Velocity S-wave (km/s) = 3.40259 3.48156 3.44230
# Velocity P-wave (km/s) = 5.16766 5.27102 5.21959
#
# Compressibility (1/GPa) = 0.03818822
#
# Stress axis : x y z
#
# Youngs Moduli (GPa) = 69.56669 71.95442 53.12875
#
# Poissons Ratio (x) = 0.02145 0.16309
# Poissons Ratio (y) = 0.02074 0.05767
# Poissons Ratio (z) = 0.21355 0.07810
#
# Static dielectric constant tensor:
#      x y z
#    x 1.925480 0.000000 0.056320 
#    y 0.000000 1.910520 0.000000 
#    z 0.056320 0.000000 1.937730 
# 
# From -- ./inp_files/186183.got.cif
#   From: 2010.05.17/outbox.cif.g08.bks.cpg/sg15_94_cif.got.tgz:186183.got - 2010.06.03 18:47:42.
