data_PCOD9291674
_publ_section_title
;
Structure prediction by ZEFSAII (Michael W. Deem and Ramdas Pophale) SiO2 
 PCOD9291674
Probable space group: C 2/C
;
_chemical_formula_sum "Si O2"
_cell_formula_units_Z 64
_cell_length_a 11.823287
_cell_length_b 22.460106
_cell_length_c 11.883415
_cell_angle_alpha 90.000000
_cell_angle_beta 66.334900
_cell_angle_gamma 90.000000
_cell_volume 2890.299169
_symmetry_space_group_name_H-M "C 2/C"
_symmetry_group_IT_number 15
_symmetry_cell_setting 'monoclinic'
loop_
_space_group_symop_operation_xyz
x,y,z
-x,y,1/2-z
-x,-y,-z
x,-y,1/2+z
1/2+x,1/2+y,z
1/2-x,1/2+y,1/2-z
1/2-x,1/2-y,-z
1/2+x,1/2-y,1/2+z
loop_
_atom_site_type_symbol
_atom_site_label
_atom_site_fract_x
_atom_site_fract_y
_atom_site_fract_z
Si Si1 0.241702 0.385681 0.334618
Si Si2 0.532548 0.628992 0.113118
Si Si3 0.895645 0.253870 0.465300
Si Si4 0.162754 0.932045 0.970793
Si Si5 0.760196 0.936135 0.080273
Si Si6 0.951777 0.613353 0.960770
Si Si7 0.633590 0.130235 0.252436
Si Si8 0.129671 0.236980 0.761534
O O1 0.319753 0.407583 0.410445
O O2 0.269225 0.419695 0.207414
O O3 0.276976 0.316572 0.300151
O O4 0.097316 0.396721 0.417563
O O5 0.500000 0.605604 0.250000
O O6 0.526399 0.700288 0.118067
O O7 0.449506 0.598644 0.050297
O O8 0.671171 0.613801 0.021009
O O9 0.750000 0.250000 0.500000
O O10 0.939554 0.319777 0.416574
O O11 0.906483 0.242690 0.594019
O O12 0.279461 0.914367 0.847430
O O13 0.167904 0.003076 0.972502
O O14 0.619550 0.932812 0.091420
O O15 0.885648 0.615068 0.109169
O O16 0.500000 0.129859 0.250000
O O17 0.683470 0.197507 0.213260
O O18 0.000000 0.227132 0.750000
#
# Coordination Sequence:
#
# PCOD9291674 Si02
#       8
#     8   8   8   8   8   8   8   8
#     4  12  26  44  75 105 137 191 233 292 358 420
#     4  12  27  48  74 107 139 188 234 294 358 421
#     4  11  22  43  72 105 142 182 228 293 358 417
#     4  12  29  46  74 103 137 197 237 288 351 431
#     4  12  28  50  67 103 148 183 245 293 346 424
#     4  11  24  45  73 106 145 184 234 293 357 423
#     4  10  22  45  68 106 144 178 232 292 356 421
#     4  10  22  42  70 101 146 180 226 300 352 423
#
# _framework density 22.143037
#
# number of rings (size 3 to 8) (size 9 to 14) (size 15 to 20)
#    0.000    0.750    3.750    2.250    7.000    3.000 
#    0.000    0.000    0.000    0.000    0.000    0.000 
#    0.000    0.000    0.000    0.000    0.000    0.000 
#
# Total GULP energy -179023.916397 kJ/mol
# GULP energy per Si atom -5594.497387 kJ/mol
# Density = 2.209264 g / cm^3
# Si number density = 22.143037 Si / 1000 Ang^3
#
#
#
# Elastic Constant Matrix: (Units=GPa)
#
#
# Indices 1 2 3 4 5 6 
#
# 1 103.5711 1.2477 23.4317 0.0000 31.9626 0.0000
# 2 1.2477 55.9281 5.2832 0.0000 8.5539 0.0000
# 3 23.4317 5.2832 90.8757 0.0000 21.9063 0.0000
# 4 0.0000 0.0000 0.0000 16.2745 0.0000 -5.3567
# 5 31.9626 8.5539 21.9063 0.0000 32.4716 0.0000
# 6 0.0000 0.0000 0.0000 -5.3567 0.0000 31.8187
#
#
#
# Elastic Compliance Matrix: (Units=1/GPa)
#
#
# Indices 1 2 3 4 5 6 
#
# 1 0.014063 0.001876 -0.000333 0.000000 -0.014112 0.000000
# 2 0.001876 0.018882 0.000075 0.000000 -0.006871 0.000000
# 3 -0.000333 0.000075 0.013150 0.000000 -0.008563 0.000000
# 4 0.000000 0.000000 0.000000 0.065050 0.000000 0.010951
# 5 -0.014112 -0.006871 -0.008563 0.000000 0.052274 0.000000
# 6 0.000000 0.000000 0.000000 0.010951 0.000000 0.033272
#
#
# Mechanical properties :
#
#
# Convention : Reuss Voigt Hill
#
# Bulk Modulus (GPa) = 20.27149 34.47778 27.37463
# Shear Modulus (GPa) = 23.82101 30.80712 27.31406
#
# Velocity S-wave (km/s) = 3.28346 3.73403 3.51597
# Velocity P-wave (km/s) = 4.85278 5.84764 5.37329
#
# Compressibility (1/GPa) = 0.04933037
#
# Stress axis : x y z
#
# Youngs Moduli (GPa) = 71.10831 52.96023 76.04684
#
# Poissons Ratio (x) = -0.09936 0.02535
# Poissons Ratio (y) = -0.13341 -0.00570
# Poissons Ratio (z) = 0.02370 -0.00397
#
# Static dielectric constant tensor:
#      x y z
#    x 1.834390 0.000000 -0.009150 
#    y 0.000000 1.831160 0.000000 
#    z -0.009150 0.000000 1.789440 
# 
# From -- ./inp_files/91264.got.cif
#   From: 2010.05.17/outbox.cif.g08.bks.cpg/sg15_46_cif.got.tgz:91264.got - 2010.06.03 18:47:42.
