data_PCOD9291227
_publ_section_title
;
Structure prediction by ZEFSAII (Michael W. Deem and Ramdas Pophale) SiO2 
 PCOD9291227
Probable space group: C 2/C
;
_chemical_formula_sum "Si O2"
_cell_formula_units_Z 40
_cell_length_a 12.407644
_cell_length_b 8.287870
_cell_length_c 14.679623
_cell_angle_alpha 90.000000
_cell_angle_beta 74.692239
_cell_angle_gamma 90.000000
_cell_volume 1455.992523
_symmetry_space_group_name_H-M "C 2/C"
_symmetry_group_IT_number 15
_symmetry_cell_setting 'monoclinic'
loop_
_space_group_symop_operation_xyz
x,y,z
-x,y,1/2-z
-x,-y,-z
x,-y,1/2+z
1/2+x,1/2+y,z
1/2-x,1/2+y,1/2-z
1/2-x,1/2-y,-z
1/2+x,1/2-y,1/2+z
loop_
_atom_site_type_symbol
_atom_site_label
_atom_site_fract_x
_atom_site_fract_y
_atom_site_fract_z
Si Si1 0.746106 0.786089 0.710786
Si Si2 0.639884 0.172556 0.974544
Si Si3 0.395674 0.552049 0.648988
Si Si4 0.094271 0.550973 0.649444
Si Si5 0.423518 0.635091 0.444161
O O1 0.798606 0.642135 0.636568
O O2 0.655112 0.708445 0.794929
O O3 0.852367 0.894405 0.712968
O O4 0.682267 0.932232 0.675714
O O5 0.535125 0.279089 0.962121
O O6 0.750000 0.250000 0.000000
O O7 0.583880 0.043221 0.054513
O O8 0.363253 0.574455 0.548524
O O9 0.528906 0.521373 0.618955
O O10 0.000000 0.565036 0.750000
O O11 0.128270 0.730054 0.608499
#
# Coordination Sequence:
#
# PCOD9291227 Si02
#       5
#     8   8   8   8   8
#     4  10  23  40  68 100 133 183 234 282 352 416
#     4   9  20  40  65  98 134 174 227 283 344 410
#     4  10  23  42  69  97 137 182 231 289 348 414
#     4  11  23  38  65 101 136 184 232 277 347 416
#     4  10  22  42  65  98 142 181 228 292 349 412
#
# _framework density 27.472667999999999
#
# number of rings (size 3 to 8) (size 9 to 14) (size 15 to 20)
#    0.000    2.000    0.000    1.800    8.400    0.800 
#    0.000   15.000    0.000    0.000    0.000    0.000 
#    0.000    0.000    0.000    0.000    0.000    0.000 
#
# Total GULP energy -111357.940343 kJ/mol
# GULP energy per Si atom -5567.897017 kJ/mol
# Density = 2.741014 g / cm^3
# Si number density = 27.472668 Si / 1000 Ang^3
#
#
#
# Elastic Constant Matrix: (Units=GPa)
#
#
# Indices 1 2 3 4 5 6 
#
# 1 73.7600 33.4099 44.2174 0.0000 -5.4015 0.0000
# 2 33.4099 118.6781 96.9918 0.0000 -24.5595 0.0000
# 3 44.2174 96.9918 158.1369 0.0000 -35.7439 0.0000
# 4 0.0000 0.0000 0.0000 77.9274 0.0000 -1.5847
# 5 -5.4015 -24.5595 -35.7439 0.0000 38.5098 0.0000
# 6 0.0000 0.0000 0.0000 -1.5847 0.0000 45.0114
#
#
#
# Elastic Compliance Matrix: (Units=1/GPa)
#
#
# Indices 1 2 3 4 5 6 
#
# 1 0.016682 -0.001892 -0.004110 0.000000 -0.002682 0.000000
# 2 -0.001892 0.017175 -0.009604 0.000000 0.001774 0.000000
# 3 -0.004110 -0.009604 0.014995 0.000000 0.007216 0.000000
# 4 0.000000 0.000000 0.000000 0.012842 0.000000 0.000452
# 5 -0.002682 0.001774 0.007216 0.000000 0.033420 0.000000
# 6 0.000000 0.000000 0.000000 0.000452 0.000000 0.022233
#
#
# Mechanical properties :
#
#
# Convention : Reuss Voigt Hill
#
# Bulk Modulus (GPa) = 56.69363 77.75701 67.22532
# Shear Modulus (GPa) = 32.37526 44.02009 38.19768
#
# Velocity S-wave (km/s) = 3.43659 4.00725 3.73284
# Velocity P-wave (km/s) = 6.03556 7.05518 6.56519
#
# Compressibility (1/GPa) = 0.01763867
#
# Stress axis : x y z
#
# Youngs Moduli (GPa) = 59.94435 58.22403 66.69043
#
# Poissons Ratio (x) = 0.11017 0.27411
# Poissons Ratio (y) = 0.11342 0.64051
# Poissons Ratio (z) = 0.24639 0.55920
#
# Static dielectric constant tensor:
#      x y z
#    x 2.381300 0.000000 0.015670 
#    y 0.000000 2.186930 0.000000 
#    z 0.015670 0.000000 2.254190 
# 
# From -- ./inp_files/150609.got.cif
#   From: 2010.05.17/outbox.cif.g08.bks.cpg/sg15_76_cif.got.tgz:150609.got - 2010.06.03 18:47:42.
