data_PCOD9291655
_publ_section_title
;
Structure prediction by ZEFSAII (Michael W. Deem and Ramdas Pophale) SiO2 
 PCOD9291655
Probable space group: C 2/C
;
_chemical_formula_sum "Si O2"
_cell_formula_units_Z 64
_cell_length_a 31.492825
_cell_length_b 10.740517
_cell_length_c 19.170180
_cell_angle_alpha 90.000000
_cell_angle_beta 153.578716
_cell_angle_gamma 90.000000
_cell_volume 2885.304571
_symmetry_space_group_name_H-M "C 2/C"
_symmetry_group_IT_number 15
_symmetry_cell_setting 'monoclinic'
loop_
_space_group_symop_operation_xyz
x,y,z
-x,y,1/2-z
-x,-y,-z
x,-y,1/2+z
1/2+x,1/2+y,z
1/2-x,1/2+y,1/2-z
1/2-x,1/2-y,-z
1/2+x,1/2-y,1/2+z
loop_
_atom_site_type_symbol
_atom_site_label
_atom_site_fract_x
_atom_site_fract_y
_atom_site_fract_z
Si Si1 0.413134 0.437530 0.670872
Si Si2 0.874426 0.404243 0.430234
Si Si3 0.093286 0.566780 0.252233
Si Si4 0.859630 0.295616 0.163713
Si Si5 0.115462 0.070490 0.723155
Si Si6 0.758613 0.446920 0.653042
Si Si7 0.918020 0.189001 0.396041
Si Si8 0.180253 0.685303 0.503855
O O1 0.500000 0.476914 0.750000
O O2 0.421079 0.294420 0.705329
O O3 0.406901 0.515858 0.733187
O O4 0.313202 0.451821 0.484306
O O5 0.801500 0.499378 0.286904
O O6 0.869542 0.267427 0.386528
O O7 0.858264 0.394628 0.488537
O O8 0.982365 0.445396 0.573959
O O9 0.131123 0.438774 0.342182
O O10 0.155036 0.577569 0.273434
O O11 0.112888 0.675208 0.337253
O O12 0.899233 0.272293 0.299898
O O13 0.750000 0.250000 0.000000
O O14 0.217104 0.135826 0.870244
O O15 0.029807 0.162618 0.575352
O O16 0.118851 0.950029 0.676661
O O17 0.696704 0.321975 0.559093
#
# Coordination Sequence:
#
# PCOD9291655 Si02
#       8
#     8   8   8   8   8   8   8   8
#     4  11  25  43  71 106 139 189 245 294 352 432
#     4  12  28  43  71 109 140 187 241 308 355 436
#     4  12  24  48  75 102 142 193 240 290 372 432
#     4  11  21  45  71  98 137 187 237 295 360 432
#     4  10  23  44  70  99 139 194 232 297 366 430
#     4  12  26  48  72 105 141 190 241 299 362 437
#     4  10  22  42  69  98 136 182 238 295 358 425
#     4  12  28  44  70 102 146 187 237 295 369 430
#
# _framework density 22.181367999999999
#
# number of rings (size 3 to 8) (size 9 to 14) (size 15 to 20)
#    0.000    0.750    3.750    2.625    7.000    3.000 
#    0.000    0.000    0.000    0.000    0.000    0.000 
#    0.000    0.000    0.000    0.000    0.000    0.000 
#
# Total GULP energy -179075.197368 kJ/mol
# GULP energy per Si atom -5596.099918 kJ/mol
# Density = 2.213088 g / cm^3
# Si number density = 22.181368 Si / 1000 Ang^3
#
#
#
# Elastic Constant Matrix: (Units=GPa)
#
#
# Indices 1 2 3 4 5 6 
#
# 1 78.1993 -8.6797 -9.3308 0.0000 -3.0645 0.0000
# 2 -8.6797 71.0566 -8.8377 0.0000 0.6760 0.0000
# 3 -9.3308 -8.8377 79.2783 0.0000 -6.9358 0.0000
# 4 0.0000 0.0000 0.0000 37.0731 0.0000 -1.7411
# 5 -3.0645 0.6760 -6.9358 0.0000 20.3220 0.0000
# 6 0.0000 0.0000 0.0000 -1.7411 0.0000 18.7502
#
#
#
# Elastic Compliance Matrix: (Units=1/GPa)
#
#
# Indices 1 2 3 4 5 6 
#
# 1 0.013336 0.001854 0.002007 0.000000 0.002634 0.000000
# 2 0.001854 0.014529 0.001876 0.000000 0.000436 0.000000
# 3 0.002007 0.001876 0.013483 0.000000 0.004842 0.000000
# 4 0.000000 0.000000 0.000000 0.027092 0.000000 0.002516
# 5 0.002634 0.000436 0.004842 0.000000 0.051243 0.000000
# 6 0.000000 0.000000 0.000000 0.002516 0.000000 0.053566
#
#
# Mechanical properties :
#
#
# Convention : Reuss Voigt Hill
#
# Bulk Modulus (GPa) = 18.93208 19.42643 19.17926
# Shear Modulus (GPa) = 27.87328 32.25455 30.06391
#
# Velocity S-wave (km/s) = 3.54871 3.81744 3.68553
# Velocity P-wave (km/s) = 5.03436 5.31107 5.17457
#
# Compressibility (1/GPa) = 0.05282039
#
# Stress axis : x y z
#
# Youngs Moduli (GPa) = 74.98352 68.82845 74.16916
#
# Poissons Ratio (x) = -0.12758 -0.14884
# Poissons Ratio (y) = -0.13899 -0.13914
# Poissons Ratio (z) = -0.15047 -0.12912
#
# Static dielectric constant tensor:
#      x y z
#    x 1.770640 0.000000 -0.009250 
#    y 0.000000 1.872980 0.000000 
#    z -0.009250 0.000000 1.789420 
# 
# From -- ./inp_files/225203.got.cif
#   From: 2010.05.17/outbox.cif.g08.bks.cpg/sg15_113_cif.got.tgz:225203.got - 2010.06.03 18:47:42.
