data_PCOD9291488
_publ_section_title
;
Structure prediction by ZEFSAII (Michael W. Deem and Ramdas Pophale) SiO2 
 PCOD9291488
Probable space group: C 2/C
;
_chemical_formula_sum "Si O2"
_cell_formula_units_Z 60
_cell_length_a 11.742019
_cell_length_b 8.213860
_cell_length_c 29.462393
_cell_angle_alpha 90.000000
_cell_angle_beta 94.056439
_cell_angle_gamma 90.000000
_cell_volume 2834.449715
_symmetry_space_group_name_H-M "C 2/C"
_symmetry_group_IT_number 15
_symmetry_cell_setting 'monoclinic'
loop_
_space_group_symop_operation_xyz
x,y,z
-x,y,1/2-z
-x,-y,-z
x,-y,1/2+z
1/2+x,1/2+y,z
1/2-x,1/2+y,1/2-z
1/2-x,1/2-y,-z
1/2+x,1/2-y,1/2+z
loop_
_atom_site_type_symbol
_atom_site_label
_atom_site_fract_x
_atom_site_fract_y
_atom_site_fract_z
Si Si1 0.612593 0.011947 0.680691
Si Si2 0.885266 0.555769 0.632567
Si Si3 0.000000 0.306954 0.750000
Si Si4 0.963707 0.086930 0.576540
Si Si5 0.673796 0.756962 0.610507
Si Si6 0.849345 0.190766 0.665707
Si Si7 0.406001 0.066567 0.032397
Si Si8 0.775100 0.912972 0.527945
O O1 0.498867 0.107453 0.662508
O O2 0.728625 0.110932 0.676392
O O3 0.591207 0.927750 0.728438
O O4 0.606898 0.859396 0.645667
O O5 0.786924 0.686432 0.635468
O O6 0.842131 0.379828 0.649396
O O7 0.906083 0.536606 0.579127
O O8 0.065112 0.199510 0.789167
O O9 0.902291 0.095932 0.623946
O O10 0.932664 0.252005 0.548912
O O11 0.098154 0.108089 0.588883
O O12 0.905510 0.945861 0.545441
O O13 0.705907 0.883970 0.572285
O O14 0.500000 0.000000 0.000000
O O15 0.284622 0.050337 0.003887
O O16 0.750000 0.750000 0.500000
#
# Coordination Sequence:
#
# PCOD9291488 Si02
#       8
#     8   8   4   8   8   8   8   8
#     4  11  22  45  71  92 132 167 206 269 330 394
#     4  10  23  41  63  94 128 173 218 260 324 383
#     4  10  22  42  68 104 122 156 216 264 326 406
#     4  11  23  41  65  90 129 184 216 265 339 382
#     4  12  22  42  66  93 133 173 216 273 323 382
#     4  10  22  44  69  94 129 171 209 264 335 394
#     4  11  20  40  60  87 128 173 227 272 310 376
#     4  12  24  39  59  96 132 172 230 272 313 380
#
# _framework density 21.168130000000001
#
# number of rings (size 3 to 8) (size 9 to 14) (size 15 to 20)
#    0.000    1.067    8.000    0.400    0.000    3.733 
#    0.000    0.000    0.000    0.000    0.000    0.000 
#    0.000    0.000    0.000    0.000    0.000    0.000 
#
# Total GULP energy -167567.492160 kJ/mol
# GULP energy per Si atom -5585.583072 kJ/mol
# Density = 2.111995 g / cm^3
# Si number density = 21.168130 Si / 1000 Ang^3
#
#
#
# Elastic Constant Matrix: (Units=GPa)
#
#
# Indices 1 2 3 4 5 6 
#
# 1 107.8732 25.4773 27.3929 0.0000 27.8427 0.0000
# 2 25.4773 41.5773 22.0829 0.0000 12.3492 0.0000
# 3 27.3929 22.0829 90.1133 0.0000 15.3544 0.0000
# 4 0.0000 0.0000 0.0000 24.1603 0.0000 7.2495
# 5 27.8427 12.3492 15.3544 0.0000 40.2202 0.0000
# 6 0.0000 0.0000 0.0000 7.2495 0.0000 43.8028
#
#
#
# Elastic Compliance Matrix: (Units=1/GPa)
#
#
# Indices 1 2 3 4 5 6 
#
# 1 0.012507 -0.004926 -0.001473 0.000000 -0.006583 0.000000
# 2 -0.004926 0.031176 -0.005447 0.000000 -0.004083 0.000000
# 3 -0.001473 -0.005447 0.013285 0.000000 -0.002380 0.000000
# 4 0.000000 0.000000 0.000000 0.043553 0.000000 -0.007208
# 5 -0.006583 -0.004083 -0.002380 0.000000 0.031582 0.000000
# 6 0.000000 0.000000 0.000000 -0.007208 0.000000 0.024023
#
#
# Mechanical properties :
#
#
# Convention : Reuss Voigt Hill
#
# Bulk Modulus (GPa) = 30.05175 43.27444 36.66309
# Shear Modulus (GPa) = 26.19047 32.61072 29.40059
#
# Velocity S-wave (km/s) = 3.52129 3.92925 3.73085
# Velocity P-wave (km/s) = 5.54618 6.40882 5.99304
#
# Compressibility (1/GPa) = 0.03327594
#
# Stress axis : x y z
#
# Youngs Moduli (GPa) = 79.95678 32.07626 75.27217
#
# Poissons Ratio (x) = 0.15801 0.11087
# Poissons Ratio (y) = 0.39388 0.40999
# Poissons Ratio (z) = 0.11777 0.17471
#
# Static dielectric constant tensor:
#      x y z
#    x 1.789580 0.000000 0.013750 
#    y 0.000000 1.768310 0.000000 
#    z 0.013750 0.000000 1.693940 
# 
# From -- ./inp_files/310012.got.cif
#   From: 2010.05.17/outbox.cif.g08.bks.cpg/sg15_156_cif.got.tgz:310012.got - 2010.06.03 18:47:42.
