data_PCOD9291259
_publ_section_title
;
Structure prediction by ZEFSAII (Michael W. Deem and Ramdas Pophale) SiO2 
 PCOD9291259
Probable space group: C 2/C
;
_chemical_formula_sum "Si O2"
_cell_formula_units_Z 56
_cell_length_a 23.386566
_cell_length_b 9.018195
_cell_length_c 14.203843
_cell_angle_alpha 90.000000
_cell_angle_beta 125.934804
_cell_angle_gamma 90.000000
_cell_volume 2425.538638
_symmetry_space_group_name_H-M "C 2/C"
_symmetry_group_IT_number 15
_symmetry_cell_setting 'monoclinic'
loop_
_space_group_symop_operation_xyz
x,y,z
-x,y,1/2-z
-x,-y,-z
x,-y,1/2+z
1/2+x,1/2+y,z
1/2-x,1/2+y,1/2-z
1/2-x,1/2-y,-z
1/2+x,1/2-y,1/2+z
loop_
_atom_site_type_symbol
_atom_site_label
_atom_site_fract_x
_atom_site_fract_y
_atom_site_fract_z
Si Si1 0.920147 0.571469 0.184787
Si Si2 0.799401 0.906298 0.942551
Si Si3 0.240213 0.242045 0.604582
Si Si4 0.389273 0.956277 0.964668
Si Si5 0.674221 0.311932 0.321102
Si Si6 0.950723 0.655223 0.859460
Si Si7 0.129942 0.090490 0.169855
O O1 0.880962 0.560651 0.048343
O O2 0.880472 0.680543 0.215020
O O3 0.925558 0.408864 0.235334
O O4 0.000000 0.624726 0.250000
O O5 0.746667 0.771524 0.867573
O O6 0.865720 0.895985 0.937935
O O7 0.765787 0.065691 0.884794
O O8 0.815338 0.894870 0.068595
O O9 0.250000 0.250000 0.500000
O O10 0.172947 0.335301 0.581636
O O11 0.306875 0.315625 0.720241
O O12 0.467107 0.883200 0.049204
O O13 0.402239 0.063969 0.887972
O O14 0.644191 0.425301 0.217303
O O15 0.939192 0.828637 0.860009
#
# Coordination Sequence:
#
# PCOD9291259 Si02
#       7
#     8   8   8   8   8   8   8
#     4  10  22  42  66  89 124 176 216 261 326 401
#     4  11  25  41  62  92 131 172 208 267 337 389
#     4  12  24  42  65  99 129 171 223 279 332 391
#     4  10  23  43  71  94 133 176 222 273 334 399
#     4  11  24  42  61  95 133 167 213 268 332 390
#     4  10  23  44  69  97 129 175 226 268 331 404
#     4  12  25  39  67 100 126 171 219 276 326 394
#
# _framework density 23.087657
#
# number of rings (size 3 to 8) (size 9 to 14) (size 15 to 20)
#    0.000    1.143    1.429    4.286   10.000    0.000 
#    2.571    0.714    0.000    0.000    0.000    0.000 
#    0.000    0.000    0.000    0.000    0.000    0.000 
#
# Total GULP energy -156621.345460 kJ/mol
# GULP energy per Si atom -5593.619481 kJ/mol
# Density = 2.303511 g / cm^3
# Si number density = 23.087657 Si / 1000 Ang^3
#
#
#
# Elastic Constant Matrix: (Units=GPa)
#
#
# Indices 1 2 3 4 5 6 
#
# 1 80.3022 21.1975 11.2577 0.0000 -7.1150 0.0000
# 2 21.1975 94.9866 6.4182 0.0000 2.7665 0.0000
# 3 11.2577 6.4182 41.8830 0.0000 -16.1066 0.0000
# 4 0.0000 0.0000 0.0000 23.4710 0.0000 0.2221
# 5 -7.1150 2.7665 -16.1066 0.0000 33.3556 0.0000
# 6 0.0000 0.0000 0.0000 0.2221 0.0000 40.7765
#
#
#
# Elastic Compliance Matrix: (Units=1/GPa)
#
#
# Indices 1 2 3 4 5 6 
#
# 1 0.013758 -0.002960 -0.002482 0.000000 0.001982 0.000000
# 2 -0.002960 0.011390 -0.001911 0.000000 -0.002499 0.000000
# 3 -0.002482 -0.001911 0.030325 0.000000 0.014272 0.000000
# 4 0.000000 0.000000 0.000000 0.042608 0.000000 -0.000232
# 5 0.001982 -0.002499 0.014272 0.000000 0.037502 0.000000
# 6 0.000000 0.000000 0.000000 -0.000232 0.000000 0.024525
#
#
# Mechanical properties :
#
#
# Convention : Reuss Voigt Hill
#
# Bulk Modulus (GPa) = 24.53016 32.76874 28.64945
# Shear Modulus (GPa) = 26.53888 31.40717 28.97303
#
# Velocity S-wave (km/s) = 3.39408 3.69229 3.54632
# Velocity P-wave (km/s) = 5.09976 5.69221 5.40411
#
# Compressibility (1/GPa) = 0.04076615
#
# Stress axis : x y z
#
# Youngs Moduli (GPa) = 72.68521 87.79398 32.97663
#
# Poissons Ratio (x) = 0.25989 0.08186
# Poissons Ratio (y) = 0.21517 0.06301
# Poissons Ratio (z) = 0.18043 0.16775
#
# Static dielectric constant tensor:
#      x y z
#    x 1.885330 0.000000 -0.025450 
#    y 0.000000 1.872840 0.000000 
#    z -0.025450 0.000000 1.872900 
# 
# From -- ./inp_files/172502.got.cif
#   From: 2010.05.17/outbox.cif.g08.bks.cpg/sg15_87_cif.got.tgz:172502.got - 2010.06.03 18:47:42.
