data_PCOD9291514
_publ_section_title
;
Structure prediction by ZEFSAII (Michael W. Deem and Ramdas Pophale) SiO2 
 PCOD9291514
Probable space group: C 2/C
;
_chemical_formula_sum "Si O2"
_cell_formula_units_Z 48
_cell_length_a 15.073104
_cell_length_b 29.589391
_cell_length_c 8.941504
_cell_angle_alpha 90.000000
_cell_angle_beta 147.675508
_cell_angle_gamma 90.000000
_cell_volume 2132.409187
_symmetry_space_group_name_H-M "C 2/C"
_symmetry_group_IT_number 15
_symmetry_cell_setting 'monoclinic'
loop_
_space_group_symop_operation_xyz
x,y,z
-x,y,1/2-z
-x,-y,-z
x,-y,1/2+z
1/2+x,1/2+y,z
1/2-x,1/2+y,1/2-z
1/2-x,1/2-y,-z
1/2+x,1/2-y,1/2+z
loop_
_atom_site_type_symbol
_atom_site_label
_atom_site_fract_x
_atom_site_fract_y
_atom_site_fract_z
Si Si1 0.304231 0.118079 0.779265
Si Si2 0.873132 0.274118 0.785315
Si Si3 0.675061 0.536843 0.066241
Si Si4 0.746558 0.217341 0.853912
Si Si5 0.200275 0.626683 0.376630
Si Si6 0.325571 0.964980 0.090381
O O1 0.237831 0.163581 0.603190
O O2 0.271855 0.074779 0.628280
O O3 0.504117 0.116899 0.080652
O O4 0.249118 0.122157 0.875547
O O5 0.750000 0.250000 0.500000
O O6 0.876047 0.240761 0.929596
O O7 0.791053 0.323544 0.682758
O O8 0.064579 0.280141 0.015438
O O9 0.699828 0.589721 0.071875
O O10 0.818063 0.510498 0.177488
O O11 0.697002 0.528677 0.271928
O O12 0.500000 0.522064 0.750000
O O13 0.750000 0.250000 0.000000
O O14 0.500000 0.956583 0.250000
#
# Coordination Sequence:
#
# PCOD9291514 Si02
#       6
#     8   8   8   8   8   8
#     4  10  22  42  68  97 127 175 226 279 315 391
#     4  11  22  43  66  96 129 182 221 269 330 389
#     4  12  27  45  67 102 136 172 211 282 339 391
#     4  11  24  40  65  97 138 172 222 277 326 388
#     4  10  22  42  68  93 133 174 228 266 328 398
#     4  12  25  45  73 100 129 177 227 268 329 409
#
# _framework density 22.50975
#
# number of rings (size 3 to 8) (size 9 to 14) (size 15 to 20)
#    0.000    1.000    3.333    3.000    4.667    1.333 
#    0.000    1.667    0.000    0.000    0.000    0.000 
#    0.000    0.000    0.000    0.000    0.000    0.000 
#
# Total GULP energy -133961.131943 kJ/mol
# GULP energy per Si atom -5581.713831 kJ/mol
# Density = 2.245852 g / cm^3
# Si number density = 22.509750 Si / 1000 Ang^3
#
#
#
# Elastic Constant Matrix: (Units=GPa)
#
#
# Indices 1 2 3 4 5 6 
#
# 1 31.4843 16.6977 7.9801 0.0000 1.2591 0.0000
# 2 16.6977 128.1334 20.0769 0.0000 -4.8304 0.0000
# 3 7.9801 20.0769 90.8965 0.0000 -19.3624 0.0000
# 4 0.0000 0.0000 0.0000 32.1840 0.0000 -6.7173
# 5 1.2591 -4.8304 -19.3624 0.0000 31.8378 0.0000
# 6 0.0000 0.0000 0.0000 -6.7173 0.0000 34.4759
#
#
#
# Elastic Compliance Matrix: (Units=1/GPa)
#
#
# Indices 1 2 3 4 5 6 
#
# 1 0.034904 -0.004231 -0.002942 0.000000 -0.003811 0.000000
# 2 -0.004231 0.008598 -0.001395 0.000000 0.000624 0.000000
# 3 -0.002942 -0.001395 0.013266 0.000000 0.007973 0.000000
# 4 0.000000 0.000000 0.000000 0.032388 0.000000 0.006311
# 5 -0.003811 0.000624 0.007973 0.000000 0.036503 0.000000
# 6 0.000000 0.000000 0.000000 0.006311 0.000000 0.030235
#
#
# Mechanical properties :
#
#
# Convention : Reuss Voigt Hill
#
# Bulk Modulus (GPa) = 25.23172 37.78039 31.50605
# Shear Modulus (GPa) = 26.84694 33.41684 30.13189
#
# Velocity S-wave (km/s) = 3.45727 3.85717 3.66268
# Velocity P-wave (km/s) = 5.21253 6.05454 5.64924
#
# Compressibility (1/GPa) = 0.03963265
#
# Stress axis : x y z
#
# Youngs Moduli (GPa) = 28.65009 116.30872 75.37980
#
# Poissons Ratio (x) = 0.49213 0.22174
# Poissons Ratio (y) = 0.12123 0.10514
# Poissons Ratio (z) = 0.08428 0.16222
#
# Static dielectric constant tensor:
#      x y z
#    x 1.842940 0.000000 0.009680 
#    y 0.000000 1.724530 0.000000 
#    z 0.009680 0.000000 1.869930 
# 
# From -- ./inp_files/44663.got.cif
#   From: 2010.05.17/outbox.cif.g08.bks.cpg/sg15_23_cif.got.tgz:44663.got - 2010.06.03 18:47:42.
