data_PCOD9291604
_publ_section_title
;
Structure prediction by ZEFSAII (Michael W. Deem and Ramdas Pophale) SiO2 
 PCOD9291604
Probable space group: C 2/C
;
_chemical_formula_sum "Si O2"
_cell_formula_units_Z 52
_cell_length_a 18.494227
_cell_length_b 5.998777
_cell_length_c 23.127890
_cell_angle_alpha 90.000000
_cell_angle_beta 60.405972
_cell_angle_gamma 90.000000
_cell_volume 2231.144409
_symmetry_space_group_name_H-M "C 2/C"
_symmetry_group_IT_number 15
_symmetry_cell_setting 'monoclinic'
loop_
_space_group_symop_operation_xyz
x,y,z
-x,y,1/2-z
-x,-y,-z
x,-y,1/2+z
1/2+x,1/2+y,z
1/2-x,1/2+y,1/2-z
1/2-x,1/2-y,-z
1/2+x,1/2-y,1/2+z
loop_
_atom_site_type_symbol
_atom_site_label
_atom_site_fract_x
_atom_site_fract_y
_atom_site_fract_z
Si Si1 0.935275 0.176026 0.499097
Si Si2 0.607920 0.811233 0.768284
Si Si3 0.234508 0.091763 0.450938
Si Si4 0.440176 0.996315 0.104913
Si Si5 0.000000 0.051893 0.250000
Si Si6 0.242599 0.604984 0.831626
Si Si7 0.147653 0.701053 0.662146
O O1 0.920917 0.357200 0.555668
O O2 0.987566 0.320625 0.432880
O O3 0.852416 0.045304 0.512794
O O4 0.000000 0.000000 0.500000
O O5 0.566138 0.608530 0.752052
O O6 0.700741 0.717697 0.740255
O O7 0.546743 0.849287 0.845558
O O8 0.620763 0.021843 0.721556
O O9 0.250000 0.250000 0.500000
O O10 0.236795 0.242546 0.391855
O O11 0.308485 0.916586 0.409443
O O12 0.350344 0.897145 0.155351
O O13 0.058536 0.189330 0.183645
O O14 0.284845 0.374481 0.837290
#
# Coordination Sequence:
#
# PCOD9291604 Si02
#       7
#     8   8   8   8   4   8   8
#     4  11  24  47  68 102 149 185 244 301 349 447
#     4  10  24  42  71 104 134 184 234 294 363 429
#     4  11  24  47  72 105 141 194 244 295 363 437
#     4  11  24  44  71 102 142 188 235 297 373 420
#     4  10  22  48  66 102 144 182 242 294 356 438
#     4  10  22  42  69 102 138 177 241 295 350 440
#     4  10  22  46  70  98 145 180 232 306 353 435
#
# _framework density 23.306425000000001
#
# number of rings (size 3 to 8) (size 9 to 14) (size 15 to 20)
#    0.000    1.538    3.077    0.462    2.154    3.077 
#   22.154    0.000    0.000    0.000    0.000    0.000 
#    0.000    0.000    0.000    0.000    0.000    0.000 
#
# Total GULP energy -145218.252559 kJ/mol
# GULP energy per Si atom -5585.317406 kJ/mol
# Density = 2.325338 g / cm^3
# Si number density = 23.306425 Si / 1000 Ang^3
#
#
#
# Elastic Constant Matrix: (Units=GPa)
#
#
# Indices 1 2 3 4 5 6 
#
# 1 59.7399 40.0282 44.7708 -0.0039 -27.0742 0.0097
# 2 40.0282 100.8611 57.7124 0.0276 -20.9815 0.0256
# 3 44.7708 57.7124 122.1967 0.0079 -25.4568 0.0061
# 4 -0.0039 0.0276 0.0079 40.5133 0.0075 -12.6894
# 5 -27.0742 -20.9815 -25.4568 0.0075 40.2998 0.0002
# 6 0.0097 0.0256 0.0061 -12.6894 0.0002 28.6576
#
#
#
# Elastic Compliance Matrix: (Units=1/GPa)
#
#
# Indices 1 2 3 4 5 6 
#
# 1 0.031794 -0.006394 -0.005611 0.000005 0.014486 -0.000002
# 2 -0.006394 0.015309 -0.004747 -0.000016 0.000677 -0.000017
# 3 -0.005611 -0.004747 0.012875 0.000001 0.001892 0.000004
# 4 0.000005 -0.000016 0.000001 0.028658 -0.000009 0.012689
# 5 0.014486 0.000677 0.001892 -0.000009 0.036094 -0.000010
# 6 -0.000002 -0.000017 0.000004 0.012689 -0.000010 0.040514
#
#
# Mechanical properties :
#
#
# Convention : Reuss Voigt Hill
#
# Bulk Modulus (GPa) = 37.77166 63.09115 50.43140
# Shear Modulus (GPa) = 24.08817 31.24657 27.66737
#
# Velocity S-wave (km/s) = 3.21836 3.66551 3.44919
# Velocity P-wave (km/s) = 5.48199 6.71146 6.12764
#
# Compressibility (1/GPa) = 0.02647488
#
# Stress axis : x y z
#
# Youngs Moduli (GPa) = 31.45293 65.32168 77.66749
#
# Poissons Ratio (x) = 0.41764 0.43580
# Poissons Ratio (y) = 0.20110 0.36867
# Poissons Ratio (z) = 0.17649 0.31007
#
# Static dielectric constant tensor:
#      x y z
#    x 1.839490 -0.000060 0.191540 
#    y -0.000060 1.973630 0.000120 
#    z 0.191540 0.000120 1.681270 
# 
# From -- ./inp_files/300069.got.cif
#   From: 2010.05.17/outbox.cif.g08.bks.cpg/sg15_151_cif.got.tgz:300069.got - 2010.06.03 18:47:42.
