data_PCOD9291347
_publ_section_title
;
Structure prediction by ZEFSAII (Michael W. Deem and Ramdas Pophale) SiO2 
 PCOD9291347
Probable space group: C 2/C
;
_chemical_formula_sum "Si O2"
_cell_formula_units_Z 32
_cell_length_a 17.903078
_cell_length_b 6.923976
_cell_length_c 12.393755
_cell_angle_alpha 90.000000
_cell_angle_beta 103.383548
_cell_angle_gamma 90.000000
_cell_volume 1494.612627
_symmetry_space_group_name_H-M "C 2/C"
_symmetry_group_IT_number 15
_symmetry_cell_setting 'monoclinic'
loop_
_space_group_symop_operation_xyz
x,y,z
-x,y,1/2-z
-x,-y,-z
x,-y,1/2+z
1/2+x,1/2+y,z
1/2-x,1/2+y,1/2-z
1/2-x,1/2-y,-z
1/2+x,1/2-y,1/2+z
loop_
_atom_site_type_symbol
_atom_site_label
_atom_site_fract_x
_atom_site_fract_y
_atom_site_fract_z
Si Si1 0.687659 0.249041 0.655395
Si Si2 0.414353 0.286824 0.682147
Si Si3 0.913456 0.426995 0.962052
Si Si4 0.856284 0.139100 0.771665
O O1 0.777589 0.212923 0.692983
O O2 0.666846 0.475318 0.646213
O O3 0.648781 0.802434 0.258406
O O4 0.644949 0.108095 0.558667
O O5 0.500000 0.235030 0.750000
O O6 0.400200 0.212532 0.558671
O O7 0.403411 0.516094 0.699430
O O8 0.900376 0.305188 0.848833
O O9 0.000000 0.500000 0.000000
#
# Coordination Sequence:
#
# PCOD9291347 Si02
#       4
#     8   8   8   8
#     4  10  22  42  66  96 140 177 227 283 337 411
#     4  10  23  43  64 101 137 175 238 285 331 412
#     4  12  22  44  72  98 137 186 228 288 347 399
#     4  10  23  43  65 101 141 176 230 284 337 415
#
# _framework density 21.410229999999999
#
# number of rings (size 3 to 8) (size 9 to 14) (size 15 to 20)
#    1.500    0.000    5.000    0.000    0.000    8.000 
#    9.000    2.500    0.000    0.000    0.000    0.000 
#    0.000    0.000    0.000    0.000    0.000    0.000 
#
# Total GULP energy -89235.961079 kJ/mol
# GULP energy per Si atom -5577.247567 kJ/mol
# Density = 2.136150 g / cm^3
# Si number density = 21.410230 Si / 1000 Ang^3
#
#
#
# Elastic Constant Matrix: (Units=GPa)
#
#
# Indices 1 2 3 4 5 6 
#
# 1 65.2243 8.4465 32.8072 0.0000 22.0547 0.0000
# 2 8.4465 105.3950 28.7726 0.0000 27.4418 0.0000
# 3 32.8072 28.7726 64.4754 0.0000 31.9118 0.0000
# 4 0.0000 0.0000 0.0000 47.1006 0.0000 7.3220
# 5 22.0547 27.4418 31.9118 0.0000 38.1730 0.0000
# 6 0.0000 0.0000 0.0000 7.3220 0.0000 28.8079
#
#
#
# Elastic Compliance Matrix: (Units=1/GPa)
#
#
# Indices 1 2 3 4 5 6 
#
# 1 0.021774 0.002472 -0.008660 0.000000 -0.007118 0.000000
# 2 0.002472 0.012078 -0.002803 0.000000 -0.007767 0.000000
# 3 -0.008660 -0.002803 0.030181 0.000000 -0.018212 0.000000
# 4 0.000000 0.000000 0.000000 0.022105 0.000000 -0.005618
# 5 -0.007118 -0.007767 -0.018212 0.000000 0.051118 0.000000
# 6 0.000000 0.000000 0.000000 -0.005618 0.000000 0.036141
#
#
# Mechanical properties :
#
#
# Convention : Reuss Voigt Hill
#
# Bulk Modulus (GPa) = 21.71468 41.68305 31.69887
# Shear Modulus (GPa) = 24.18636 33.82086 29.00361
#
# Velocity S-wave (km/s) = 3.36469 3.97880 3.68457
# Velocity P-wave (km/s) = 5.02584 6.37329 5.73925
#
# Compressibility (1/GPa) = 0.04605179
#
# Stress axis : x y z
#
# Youngs Moduli (GPa) = 45.92596 82.79744 33.13315
#
# Poissons Ratio (x) = -0.20471 0.28692
# Poissons Ratio (y) = -0.11355 0.09289
# Poissons Ratio (z) = 0.39770 0.23212
#
# Static dielectric constant tensor:
#      x y z
#    x 1.742710 0.000000 -0.023820 
#    y 0.000000 1.816440 0.000000 
#    z -0.023820 0.000000 1.745060 
# 
# From -- ./inp_files/165189.got.cif
#   From: 2010.05.17/outbox.cif.g08.bks.cpg/sg15_83_cif.got.tgz:165189.got - 2010.06.03 18:47:42.
