data_PCOD9291720
_publ_section_title
;
Structure prediction by ZEFSAII (Michael W. Deem and Ramdas Pophale) SiO2 
 PCOD9291720
Probable space group: C 2/C
;
_chemical_formula_sum "Si O2"
_cell_formula_units_Z 44
_cell_length_a 23.574521
_cell_length_b 5.249599
_cell_length_c 17.231487
_cell_angle_alpha 90.000000
_cell_angle_beta 116.902732
_cell_angle_gamma 90.000000
_cell_volume 1901.724155
_symmetry_space_group_name_H-M "C 2/C"
_symmetry_group_IT_number 15
_symmetry_cell_setting 'monoclinic'
loop_
_space_group_symop_operation_xyz
x,y,z
-x,y,1/2-z
-x,-y,-z
x,-y,1/2+z
1/2+x,1/2+y,z
1/2-x,1/2+y,1/2-z
1/2-x,1/2-y,-z
1/2+x,1/2-y,1/2+z
loop_
_atom_site_type_symbol
_atom_site_label
_atom_site_fract_x
_atom_site_fract_y
_atom_site_fract_z
Si Si1 0.000000 0.991806 0.250000
Si Si2 0.233970 0.880704 0.195403
Si Si3 0.781926 0.496377 0.056823
Si Si4 0.099744 0.990489 0.553911
Si Si5 0.086585 0.316936 0.898781
Si Si6 0.007767 0.697931 0.595432
O O1 0.061725 0.822298 0.306827
O O2 0.991265 0.154568 0.322128
O O3 0.255655 0.600776 0.234320
O O4 0.270126 0.979668 0.141223
O O5 0.159586 0.875035 0.128258
O O6 0.750000 0.250000 0.000000
O O7 0.857553 0.489875 0.086475
O O8 0.750000 0.750000 0.000000
O O9 0.116329 0.867971 0.481379
O O10 0.073255 0.766340 0.593412
O O11 0.044424 0.812924 0.996488
O O12 0.022528 0.429419 0.898777
#
# Coordination Sequence:
#
# PCOD9291720 Si02
#       6
#     4   8   8   8   8   8
#     4  10  24  38  62 108 130 176 222 290 350 412
#     4  12  28  46  70 109 147 189 239 299 358 422
#     4  12  26  48  77 102 141 194 244 292 357 433
#     4  10  23  43  68  96 134 180 234 284 352 424
#     4  11  23  42  70  97 137 177 238 284 355 422
#     4  10  22  42  70  95 135 177 228 290 352 411
#
# _framework density 23.136899
#
# number of rings (size 3 to 8) (size 9 to 14) (size 15 to 20)
#    0.000    1.091    1.818    3.273    7.636    2.909 
#    0.000    0.000    0.000    0.000    0.000    0.000 
#    0.000    0.000    0.000    0.000    0.000    0.000 
#
# Total GULP energy -123055.521699 kJ/mol
# GULP energy per Si atom -5593.432805 kJ/mol
# Density = 2.308424 g / cm^3
# Si number density = 23.136899 Si / 1000 Ang^3
#
#
#
# Elastic Constant Matrix: (Units=GPa)
#
#
# Indices 1 2 3 4 5 6 
#
# 1 63.1832 -7.7837 29.9256 0.0000 0.4790 -0.0001
# 2 -7.7837 76.9493 24.8399 -0.0001 8.9295 -0.0001
# 3 29.9256 24.8399 107.0565 0.0001 16.6681 -0.0001
# 4 0.0000 -0.0001 0.0001 44.1101 0.0000 0.3652
# 5 0.4790 8.9295 16.6681 0.0000 33.6099 0.0000
# 6 -0.0001 -0.0001 -0.0001 0.3652 0.0000 20.9723
#
#
#
# Elastic Compliance Matrix: (Units=1/GPa)
#
#
# Indices 1 2 3 4 5 6 
#
# 1 0.019436 0.003880 -0.006642 0.000000 0.001986 0.000000
# 2 0.003880 0.014987 -0.004262 0.000000 -0.001923 0.000000
# 3 -0.006642 -0.004262 0.012999 0.000000 -0.005220 0.000000
# 4 0.000000 0.000000 0.000000 0.022674 0.000000 -0.000395
# 5 0.001986 -0.001923 -0.005220 0.000000 0.032824 0.000000
# 6 0.000000 0.000000 0.000000 -0.000395 0.000000 0.047689
#
#
# Mechanical properties :
#
#
# Convention : Reuss Voigt Hill
#
# Bulk Modulus (GPa) = 29.96519 37.90585 33.93552
# Shear Modulus (GPa) = 28.44407 33.08563 30.76485
#
# Velocity S-wave (km/s) = 3.51006 3.78563 3.65044
# Velocity P-wave (km/s) = 5.42279 5.96044 5.69796
#
# Compressibility (1/GPa) = 0.03337206
#
# Stress axis : x y z
#
# Youngs Moduli (GPa) = 51.45103 66.72381 76.92728
#
# Poissons Ratio (x) = -0.25887 0.51098
# Poissons Ratio (y) = -0.19962 0.32790
# Poissons Ratio (z) = 0.34176 0.28441
#
# Static dielectric constant tensor:
#      x y z
#    x 1.888760 0.000000 -0.024480 
#    y 0.000000 1.913950 0.000000 
#    z -0.024480 0.000000 1.830530 
# 
# From -- ./inp_files/179796.got.cif
#   From: 2010.05.17/outbox.cif.g08.bks.cpg/sg15_90_cif.got.tgz:179796.got - 2010.06.03 18:47:42.
