data_PCOD9291584
_publ_section_title
;
Structure prediction by ZEFSAII (Michael W. Deem and Ramdas Pophale) SiO2 
 PCOD9291584
Probable space group: C 2/C
;
_chemical_formula_sum "Si O2"
_cell_formula_units_Z 64
_cell_length_a 16.683018
_cell_length_b 9.550870
_cell_length_c 31.792017
_cell_angle_alpha 90.000000
_cell_angle_beta 148.870517
_cell_angle_gamma 90.000000
_cell_volume 2618.811447
_symmetry_space_group_name_H-M "C 2/C"
_symmetry_group_IT_number 15
_symmetry_cell_setting 'monoclinic'
loop_
_space_group_symop_operation_xyz
x,y,z
-x,y,1/2-z
-x,-y,-z
x,-y,1/2+z
1/2+x,1/2+y,z
1/2-x,1/2+y,1/2-z
1/2-x,1/2-y,-z
1/2+x,1/2-y,1/2+z
loop_
_atom_site_type_symbol
_atom_site_label
_atom_site_fract_x
_atom_site_fract_y
_atom_site_fract_z
Si Si1 0.761369 0.585807 0.016610
Si Si2 0.583366 0.860901 0.656083
Si Si3 0.770523 0.956312 0.416253
Si Si4 0.685048 0.755044 0.837474
Si Si5 0.021525 0.754191 0.697234
Si Si6 0.214894 0.344706 0.207896
Si Si7 0.161289 0.278116 0.605254
Si Si8 0.786105 0.990051 0.595527
O O1 0.666094 0.514693 0.011017
O O2 0.935346 0.580025 0.112721
O O3 0.750000 0.750000 0.000000
O O4 0.754590 0.493833 0.971666
O O5 0.635802 0.722235 0.702927
O O6 0.549979 0.823971 0.592755
O O7 0.704067 0.988687 0.708458
O O8 0.619928 0.852224 0.355489
O O9 0.885377 0.856926 0.441930
O O10 0.727148 0.088017 0.368379
O O11 0.500000 0.747833 0.750000
O O12 0.772269 0.701714 0.834578
O O13 0.718496 0.646548 0.889655
O O14 0.078202 0.722403 0.675134
O O15 0.175331 0.745642 0.795974
O O16 0.950785 0.909035 0.671904
O O17 0.181760 0.400494 0.580587
#
# Coordination Sequence:
#
# PCOD9291584 Si02
#       8
#     8   8   8   8   8   8   8   8
#     4  12  26  45  64  96 140 186 225 266 338 414
#     4  11  25  45  67 103 136 177 221 287 338 402
#     4  11  22  42  65  95 131 178 218 276 340 390
#     4  12  23  38  66 102 132 172 224 276 343 395
#     4  10  22  43  69 101 130 170 227 290 334 389
#     4  11  25  42  71 102 135 168 227 286 349 388
#     4  10  22  42  68  99 130 165 230 288 332 385
#     4  11  23  41  66  91 136 178 222 269 331 408
#
# _framework density 24.438566999999999
#
# number of rings (size 3 to 8) (size 9 to 14) (size 15 to 20)
#    0.000    1.000    3.750    3.750    5.250    2.500 
#    0.000    0.625    0.000    0.000    0.000    0.000 
#    0.000    0.000    0.000    0.000    0.000    0.000 
#
# Total GULP energy -178971.698509 kJ/mol
# GULP energy per Si atom -5592.865578 kJ/mol
# Density = 2.438294 g / cm^3
# Si number density = 24.438567 Si / 1000 Ang^3
#
#
#
# Elastic Constant Matrix: (Units=GPa)
#
#
# Indices 1 2 3 4 5 6 
#
# 1 110.9644 18.8403 14.2659 0.0000 -22.1896 0.0000
# 2 18.8403 104.0133 13.6519 0.0000 -12.4718 0.0000
# 3 14.2659 13.6519 44.2023 0.0000 -17.3598 0.0000
# 4 0.0000 0.0000 0.0000 35.2093 0.0000 -15.7547
# 5 -22.1896 -12.4718 -17.3598 0.0000 35.0590 0.0000
# 6 0.0000 0.0000 0.0000 -15.7547 0.0000 39.8742
#
#
#
# Elastic Compliance Matrix: (Units=1/GPa)
#
#
# Indices 1 2 3 4 5 6 
#
# 1 0.010466 -0.001095 -0.000734 0.000000 0.005871 0.000000
# 2 -0.001095 0.010318 -0.002066 0.000000 0.001954 0.000000
# 3 -0.000734 -0.002066 0.028586 0.000000 0.012956 0.000000
# 4 0.000000 0.000000 0.000000 0.034501 0.000000 0.013632
# 5 0.005871 0.001954 0.012956 0.000000 0.039350 0.000000
# 6 0.000000 0.000000 0.000000 0.013632 0.000000 0.030465
#
#
# Mechanical properties :
#
#
# Convention : Reuss Voigt Hill
#
# Bulk Modulus (GPa) = 24.04952 39.18848 31.61900
# Shear Modulus (GPa) = 28.51662 36.18994 32.35328
#
# Velocity S-wave (km/s) = 3.41965 3.85236 3.64244
# Velocity P-wave (km/s) = 5.04522 5.98815 5.53679
#
# Compressibility (1/GPa) = 0.04158086
#
# Stress axis : x y z
#
# Youngs Moduli (GPa) = 95.54451 96.91763 34.98205
#
# Poissons Ratio (x) = 0.10617 0.02567
# Poissons Ratio (y) = 0.10467 0.07226
# Poissons Ratio (z) = 0.07010 0.20019
#
# Static dielectric constant tensor:
#      x y z
#    x 1.959420 0.000000 0.024490 
#    y 0.000000 1.888930 0.000000 
#    z 0.024490 0.000000 1.967400 
# 
# From -- ./inp_files/315760.got.cif
#   From: 2010.05.17/outbox.cif.g08.bks.cpg/sg15_158_cif.got.tgz:315760.got - 2010.06.03 18:47:42.
