data_PCOD9291353
_publ_section_title
;
Structure prediction by ZEFSAII (Michael W. Deem and Ramdas Pophale) SiO2 
 PCOD9291353
Probable space group: C 2/C
;
_chemical_formula_sum "Si O2"
_cell_formula_units_Z 48
_cell_length_a 15.364430
_cell_length_b 29.889382
_cell_length_c 9.497813
_cell_angle_alpha 90.000000
_cell_angle_beta 147.448294
_cell_angle_gamma 90.000000
_cell_volume 2346.865031
_symmetry_space_group_name_H-M "C 2/C"
_symmetry_group_IT_number 15
_symmetry_cell_setting 'monoclinic'
loop_
_space_group_symop_operation_xyz
x,y,z
-x,y,1/2-z
-x,-y,-z
x,-y,1/2+z
1/2+x,1/2+y,z
1/2-x,1/2+y,1/2-z
1/2-x,1/2-y,-z
1/2+x,1/2-y,1/2+z
loop_
_atom_site_type_symbol
_atom_site_label
_atom_site_fract_x
_atom_site_fract_y
_atom_site_fract_z
Si Si1 0.185249 0.963841 0.958689
Si Si2 0.179907 0.464831 0.054650
Si Si3 0.387504 0.714574 0.727609
Si Si4 0.666138 0.860236 0.058477
Si Si5 0.330560 0.868422 0.099901
Si Si6 0.617178 0.285994 0.779332
O O1 0.000000 0.956290 0.750000
O O2 0.200816 0.004557 0.872422
O O3 0.291453 0.974833 0.242157
O O4 0.256833 0.918138 0.992115
O O5 0.208036 0.411703 0.079753
O O6 0.000000 0.474074 0.750000
O O7 0.500000 0.701812 0.750000
O O8 0.250000 0.750000 0.500000
O O9 0.301973 0.672765 0.685767
O O10 0.510790 0.734145 0.009708
O O11 0.500000 0.849365 0.750000
O O12 0.649594 0.857461 0.205647
O O13 0.500000 0.866368 0.250000
O O14 0.208263 0.832056 0.868300
O O15 0.500000 0.294936 0.750000
O O16 0.750000 0.250000 0.000000
#
# Coordination Sequence:
#
# PCOD9291353 Si02
#       6
#     8   8   8   8   8   8
#     4  11  23  41  68 100 137 174 224 281 331 392
#     4  10  22  42  66  97 134 180 222 270 332 399
#     4  12  27  45  70  99 136 175 217 275 338 398
#     4  10  24  44  68  99 138 175 225 276 331 398
#     4  11  25  44  70  98 134 181 228 277 333 396
#     4  12  25  45  70  99 133 172 225 274 328 400
#
# _framework density 20.452817
#
# number of rings (size 3 to 8) (size 9 to 14) (size 15 to 20)
#    0.000    1.000    1.667    4.000    7.000    3.333 
#    0.000    0.000    0.000    0.000    0.000    0.000 
#    0.000    0.000    0.000    0.000    0.000    0.000 
#
# Total GULP energy -134272.953034 kJ/mol
# GULP energy per Si atom -5594.706376 kJ/mol
# Density = 2.040627 g / cm^3
# Si number density = 20.452817 Si / 1000 Ang^3
#
#
#
# Elastic Constant Matrix: (Units=GPa)
#
#
# Indices 1 2 3 4 5 6 
#
# 1 146.7924 64.4070 30.3974 0.0000 25.2968 0.0000
# 2 64.4070 73.6056 41.1639 0.0000 10.3934 0.0000
# 3 30.3974 41.1639 120.1218 0.0000 1.1687 0.0000
# 4 0.0000 0.0000 0.0000 16.3665 0.0000 -30.2909
# 5 25.2968 10.3934 1.1687 0.0000 32.7518 0.0000
# 6 0.0000 0.0000 0.0000 -30.2909 0.0000 -77.4476
#
#
#
# Elastic Compliance Matrix: (Units=1/GPa)
#
#
# Indices 1 2 3 4 5 6 
#
# 1 0.012205 -0.010023 0.000407 0.000000 -0.006260 0.000000
# 2 -0.010023 0.025947 -0.006352 0.000000 -0.000265 0.000000
# 3 0.000407 -0.006352 0.010386 0.000000 0.001331 0.000000
# 4 0.000000 0.000000 0.000000 0.035444 0.000000 -0.013863
# 5 -0.006260 -0.000265 0.001331 0.000000 0.035405 0.000000
# 6 0.000000 0.000000 0.000000 -0.013863 0.000000 -0.007490
#
#
# Mechanical properties :
#
#
# Convention : Reuss Voigt Hill
#
# Bulk Modulus (GPa) = 60.24031 68.05070 64.14550
# Shear Modulus (GPa) = 33.47489 7.97093 20.72291
#
# Velocity S-wave (km/s) = 4.04999 1.97628 3.18654
# Velocity P-wave (km/s) = 7.16848 6.20901 6.70593
#
# Compressibility (1/GPa) = 0.01660018
#
# Stress axis : x y z
#
# Youngs Moduli (GPa) = 81.93594 38.54072 96.28551
#
# Poissons Ratio (x) = 0.38630 -0.03921
# Poissons Ratio (y) = 0.82126 0.61165
# Poissons Ratio (z) = -0.03337 0.24483
#
# Static dielectric constant tensor:
#      x y z
#    x 1.754260 0.000000 -0.004640 
#    y 0.000000 1.704800 0.000000 
#    z -0.004640 0.000000 1.759320 
# 
# From -- ./inp_files/44644.got.cif
#   From: 2010.05.17/outbox.cif.g08.bks.cpg/sg15_23_cif.got.tgz:44644.got - 2010.06.03 18:47:42.
