data_PCOD9291526
_publ_section_title
;
Structure prediction by ZEFSAII (Michael W. Deem and Ramdas Pophale) SiO2 
 PCOD9291526
Probable space group: C 2/C
;
_chemical_formula_sum "Si O2"
_cell_formula_units_Z 64
_cell_length_a 11.624807
_cell_length_b 24.142002
_cell_length_c 12.081760
_cell_angle_alpha 90.000000
_cell_angle_beta 113.550356
_cell_angle_gamma 90.000000
_cell_volume 3108.285193
_symmetry_space_group_name_H-M "C 2/C"
_symmetry_group_IT_number 15
_symmetry_cell_setting 'monoclinic'
loop_
_space_group_symop_operation_xyz
x,y,z
-x,y,1/2-z
-x,-y,-z
x,-y,1/2+z
1/2+x,1/2+y,z
1/2-x,1/2+y,1/2-z
1/2-x,1/2-y,-z
1/2+x,1/2-y,1/2+z
loop_
_atom_site_type_symbol
_atom_site_label
_atom_site_fract_x
_atom_site_fract_y
_atom_site_fract_z
Si Si1 0.368117 0.559790 0.705465
Si Si2 0.877737 0.144617 0.127038
Si Si3 0.889028 0.834851 0.374778
Si Si4 0.012282 0.473389 0.879049
Si Si5 0.752746 0.948517 0.705374
Si Si6 0.650939 0.287512 0.525881
Si Si7 0.230438 0.908986 0.562285
Si Si8 0.860162 0.258917 0.234533
O O1 0.500000 0.527872 0.750000
O O2 0.374531 0.611802 0.790005
O O3 0.264926 0.513831 0.691366
O O4 0.351650 0.582329 0.576791
O O5 0.797427 0.090723 0.125375
O O6 0.826070 0.204421 0.147875
O O7 0.000000 0.139034 0.250000
O O8 0.901669 0.146226 0.006777
O O9 0.759598 0.799713 0.315769
O O10 0.020663 0.801100 0.410170
O O11 0.139816 0.439008 0.919193
O O12 0.000000 0.503824 0.750000
O O13 0.891699 0.433974 0.829614
O O14 0.000000 0.500000 0.000000
O O15 0.822496 0.936067 0.846790
O O16 0.750000 0.250000 0.500000
O O17 0.726447 0.343923 0.580763
O O18 0.619588 0.259864 0.631164
O O19 0.000000 0.279234 0.250000
#
# Coordination Sequence:
#
# PCOD9291526 Si02
#       8
#     8   8   8   8   8   8   8   8
#     4  12  26  40  68 100 140 181 232 291 346 422
#     4  11  22  44  70  97 133 177 234 289 350 423
#     4  12  26  46  70 106 145 184 237 299 362 423
#     4  10  22  42  68  94 140 180 231 288 351 420
#     4  11  24  43  70  98 131 190 229 288 356 419
#     4  12  25  45  74  99 145 186 234 297 362 432
#     4  11  23  46  65  99 137 177 239 283 348 426
#     4  11  24  46  72 104 136 184 234 299 358 430
#
# _framework density 20.590131
#
# number of rings (size 3 to 8) (size 9 to 14) (size 15 to 20)
#    0.000    0.750    6.250    1.500    1.750    1.500 
#    4.500    1.875    0.000    0.000    0.000    0.000 
#    0.000    0.000    0.000    0.000    0.000    0.000 
#
# Total GULP energy -178308.576300 kJ/mol
# GULP energy per Si atom -5572.143009 kJ/mol
# Density = 2.054327 g / cm^3
# Si number density = 20.590131 Si / 1000 Ang^3
#
#
#
# Elastic Constant Matrix: (Units=GPa)
#
#
# Indices 1 2 3 4 5 6 
#
# 1 98.9448 37.9752 21.0904 0.0000 5.6119 0.0000
# 2 37.9752 64.3892 21.7698 0.0000 2.2310 0.0000
# 3 21.0904 21.7698 98.6656 0.0000 -4.2978 0.0000
# 4 0.0000 0.0000 0.0000 18.8140 0.0000 -7.1618
# 5 5.6119 2.2310 -4.2978 0.0000 32.6354 0.0000
# 6 0.0000 0.0000 0.0000 -7.1618 0.0000 34.6319
#
#
#
# Elastic Compliance Matrix: (Units=1/GPa)
#
#
# Indices 1 2 3 4 5 6 
#
# 1 0.013315 -0.007342 -0.001312 0.000000 -0.001961 0.000000
# 2 -0.007342 0.020919 -0.003071 0.000000 -0.000572 0.000000
# 3 -0.001312 -0.003071 0.011176 0.000000 0.001907 0.000000
# 4 0.000000 0.000000 0.000000 0.057693 0.000000 0.011931
# 5 -0.001961 -0.000572 0.001907 0.000000 0.031269 0.000000
# 6 0.000000 0.000000 0.000000 0.011931 0.000000 0.031342
#
#
# Mechanical properties :
#
#
# Convention : Reuss Voigt Hill
#
# Bulk Modulus (GPa) = 45.53477 47.07449 46.30463
# Shear Modulus (GPa) = 25.44735 29.29387 27.37061
#
# Velocity S-wave (km/s) = 3.51935 3.77598 3.64992
# Velocity P-wave (km/s) = 6.21911 6.47480 6.34824
#
# Compressibility (1/GPa) = 0.02196124
#
# Stress axis : x y z
#
# Youngs Moduli (GPa) = 75.10252 47.80443 89.47473
#
# Poissons Ratio (x) = 0.35096 0.11737
# Poissons Ratio (y) = 0.55137 0.27479
# Poissons Ratio (z) = 0.09852 0.14681
#
# Static dielectric constant tensor:
#      x y z
#    x 1.778330 0.000000 0.037380 
#    y 0.000000 1.748470 0.000000 
#    z 0.037380 0.000000 1.874370 
# 
# From -- ./inp_files/91298.got.cif
#   From: 2010.05.17/outbox.cif.g08.bks.cpg/sg15_46_cif.got.tgz:91298.got - 2010.06.03 18:47:42.
