data_PCOD9291400
_publ_section_title
;
Structure prediction by ZEFSAII (Michael W. Deem and Ramdas Pophale) SiO2 
 PCOD9291400
Probable space group: C 2/C
;
_chemical_formula_sum "Si O2"
_cell_formula_units_Z 56
_cell_length_a 14.593058
_cell_length_b 9.193838
_cell_length_c 30.413136
_cell_angle_alpha 90.000000
_cell_angle_beta 136.893641
_cell_angle_gamma 90.000000
_cell_volume 2788.371360
_symmetry_space_group_name_H-M "C 2/C"
_symmetry_group_IT_number 15
_symmetry_cell_setting 'monoclinic'
loop_
_space_group_symop_operation_xyz
x,y,z
-x,y,1/2-z
-x,-y,-z
x,-y,1/2+z
1/2+x,1/2+y,z
1/2-x,1/2+y,1/2-z
1/2-x,1/2-y,-z
1/2+x,1/2-y,1/2+z
loop_
_atom_site_type_symbol
_atom_site_label
_atom_site_fract_x
_atom_site_fract_y
_atom_site_fract_z
Si Si1 0.538508 0.024910 0.142786
Si Si2 0.412371 0.417461 0.638989
Si Si3 0.961710 0.830865 0.989148
Si Si4 0.184300 0.692633 0.125166
Si Si5 0.682583 0.262379 0.426703
Si Si6 0.905720 0.681431 0.756049
Si Si7 0.407407 0.765425 0.054277
O O1 0.651375 0.061216 0.146520
O O2 0.452161 0.166304 0.124327
O O3 0.588037 0.928697 0.201065
O O4 0.434066 0.924860 0.080810
O O5 0.283506 0.349158 0.619773
O O6 0.363704 0.580117 0.608796
O O7 0.534337 0.343566 0.710618
O O8 0.452388 0.349862 0.606221
O O9 0.047210 0.756840 0.058112
O O10 0.804698 0.801888 0.940438
O O11 0.018432 0.759693 0.964901
O O12 0.000000 0.000000 0.000000
O O13 0.260940 0.804600 0.183594
O O14 0.750000 0.250000 0.500000
O O15 0.000000 0.624541 0.750000
O O16 0.250000 0.750000 0.000000
#
# Coordination Sequence:
#
# PCOD9291400 Si02
#       7
#     8   8   8   8   8   8   8
#     4  11  24  42  65  97 127 172 213 271 323 386
#     4  10  22  42  67  92 129 172 215 267 320 390
#     4  12  25  38  64 102 135 168 217 268 330 390
#     4  11  23  43  68  92 133 171 220 266 323 386
#     4  12  24  39  63 100 135 162 214 271 332 384
#     4   9  23  46  67  86 125 179 223 263 323 383
#     4  11  21  38  65  94 131 171 208 257 332 390
#
# _framework density 20.083407999999999
#
# number of rings (size 3 to 8) (size 9 to 14) (size 15 to 20)
#    0.000    1.143    2.857    3.429    4.000    2.286 
#    2.571    3.571    0.000    0.000    0.000    0.000 
#    0.000    0.000    0.000    0.000    0.000    0.000 
#
# Total GULP energy -155992.967936 kJ/mol
# GULP energy per Si atom -5571.177426 kJ/mol
# Density = 2.003770 g / cm^3
# Si number density = 20.083408 Si / 1000 Ang^3
#
#
#
# Elastic Constant Matrix: (Units=GPa)
#
#
# Indices 1 2 3 4 5 6 
#
# 1 78.7276 4.6323 22.3137 0.0000 -13.7865 0.0000
# 2 4.6323 81.3584 13.8879 0.0000 -12.3591 0.0000
# 3 22.3137 13.8879 66.0752 0.0000 -19.9599 0.0000
# 4 0.0000 0.0000 0.0000 25.9852 0.0000 -0.7512
# 5 -13.7865 -12.3591 -19.9599 0.0000 28.4331 0.0000
# 6 0.0000 0.0000 0.0000 -0.7512 0.0000 20.3972
#
#
#
# Elastic Compliance Matrix: (Units=1/GPa)
#
#
# Indices 1 2 3 4 5 6 
#
# 1 0.014517 0.000505 -0.003574 0.000000 0.004750 0.000000
# 2 0.000505 0.013269 -0.001451 0.000000 0.004994 0.000000
# 3 -0.003574 -0.001451 0.020220 0.000000 0.011831 0.000000
# 4 0.000000 0.000000 0.000000 0.038524 0.000000 0.001419
# 5 0.004750 0.004994 0.011831 0.000000 0.047949 0.000000
# 6 0.000000 0.000000 0.000000 0.001419 0.000000 0.049079
#
#
# Mechanical properties :
#
#
# Convention : Reuss Voigt Hill
#
# Bulk Modulus (GPa) = 25.66310 34.20321 29.93315
# Shear Modulus (GPa) = 24.32072 27.31826 25.81949
#
# Velocity S-wave (km/s) = 3.48370 3.69214 3.58943
# Velocity P-wave (km/s) = 5.38401 5.93662 5.66705
#
# Compressibility (1/GPa) = 0.03896646
#
# Stress axis : x y z
#
# Youngs Moduli (GPa) = 68.88496 75.36460 49.45612
#
# Poissons Ratio (x) = -0.03806 0.17675
# Poissons Ratio (y) = -0.03479 0.07175
# Poissons Ratio (z) = 0.24618 0.10934
#
# Static dielectric constant tensor:
#      x y z
#    x 1.607890 0.000000 0.008900 
#    y 0.000000 1.756670 0.000000 
#    z 0.008900 0.000000 1.711010 
# 
# From -- ./inp_files/272821.got.cif
#   From: 2010.05.17/outbox.cif.g08.bks.cpg/sg15_137_cif.got.tgz:272821.got - 2010.06.03 18:47:42.
