data_PCOD9291892
_publ_section_title
;
Structure prediction by ZEFSAII (Michael W. Deem and Ramdas Pophale) SiO2 
 PCOD9291892
Probable space group: C 2/C
;
_chemical_formula_sum "Si O2"
_cell_formula_units_Z 28
_cell_length_a 7.503006
_cell_length_b 28.438563
_cell_length_c 5.341123
_cell_angle_alpha 90.000000
_cell_angle_beta 72.372410
_cell_angle_gamma 90.000000
_cell_volume 1086.147752
_symmetry_space_group_name_H-M "C 2/C"
_symmetry_group_IT_number 15
_symmetry_cell_setting 'monoclinic'
loop_
_space_group_symop_operation_xyz
x,y,z
-x,y,1/2-z
-x,-y,-z
x,-y,1/2+z
1/2+x,1/2+y,z
1/2-x,1/2+y,1/2-z
1/2-x,1/2-y,-z
1/2+x,1/2-y,1/2+z
loop_
_atom_site_type_symbol
_atom_site_label
_atom_site_fract_x
_atom_site_fract_y
_atom_site_fract_z
Si Si1 0.000000 0.635756 0.750000
Si Si2 0.292836 0.392080 0.746702
Si Si3 0.292851 0.695522 0.946101
Si Si4 0.276228 0.474044 0.385260
O O1 0.863341 0.670510 0.655538
O O2 0.132153 0.604043 0.519145
O O3 0.500000 0.406423 0.750000
O O4 0.293528 0.336445 0.692528
O O5 0.249730 0.422135 0.515789
O O6 0.500000 0.689999 0.750000
O O7 0.250000 0.750000 0.000000
O O8 0.500000 0.477525 0.250000
O O9 0.210108 0.507214 0.643730
#
# Coordination Sequence:
#
# PCOD9291892 Si02
#       4
#     4   8   8   8
#     4  12  28  48  74 110 158 200 260 324 392 466
#     4  12  25  46  77 109 152 206 259 324 393 472
#     4  12  27  48  77 111 153 203 260 323 393 469
#     4  10  22  42  76 115 154 205 265 327 398 470
#
# _framework density 25.77918
#
# number of rings (size 3 to 8) (size 9 to 14) (size 15 to 20)
#    0.000    0.571    2.857    6.000    6.000    2.286 
#    0.000    1.429    0.000    0.000    0.000    0.000 
#    0.000    0.000    0.000    0.000    0.000    0.000 
#
# Total GULP energy -78461.116033 kJ/mol
# GULP energy per Si atom -5604.365431 kJ/mol
# Density = 2.572051 g / cm^3
# Si number density = 25.779180 Si / 1000 Ang^3
#
#
#
# Elastic Constant Matrix: (Units=GPa)
#
#
# Indices 1 2 3 4 5 6 
#
# 1 166.5711 31.6542 61.1744 0.0000 -33.7103 0.0000
# 2 31.6542 205.2683 65.4513 0.0000 6.5142 0.0000
# 3 61.1744 65.4513 214.3022 0.0000 -22.0747 0.0000
# 4 0.0000 0.0000 0.0000 34.5461 0.0000 5.6458
# 5 -33.7103 6.5142 -22.0747 0.0000 45.2830 0.0000
# 6 0.0000 0.0000 0.0000 5.6458 0.0000 20.2369
#
#
#
# Elastic Compliance Matrix: (Units=1/GPa)
#
#
# Indices 1 2 3 4 5 6 
#
# 1 0.007745 -0.000916 -0.001394 0.000000 0.005218 0.000000
# 2 -0.000916 0.005627 -0.001696 0.000000 -0.002318 0.000000
# 3 -0.001394 -0.001696 0.005791 0.000000 0.002029 0.000000
# 4 0.000000 0.000000 0.000000 0.030330 0.000000 -0.008462
# 5 0.005218 -0.002318 0.002029 0.000000 0.027291 0.000000
# 6 0.000000 0.000000 0.000000 -0.008462 0.000000 0.051775
#
#
# Mechanical properties :
#
#
# Convention : Reuss Voigt Hill
#
# Bulk Modulus (GPa) = 89.66261 100.30017 94.98139
# Shear Modulus (GPa) = 35.64093 48.53730 42.08912
#
# Velocity S-wave (km/s) = 3.72230 4.34384 4.04503
# Velocity P-wave (km/s) = 7.30277 8.00940 7.66424
#
# Compressibility (1/GPa) = 0.01115292
#
# Stress axis : x y z
#
# Youngs Moduli (GPa) = 129.10936 177.70781 172.67446
#
# Poissons Ratio (x) = 0.16270 0.24068
# Poissons Ratio (y) = 0.11821 0.29286
# Poissons Ratio (z) = 0.17996 0.30140
#
# Static dielectric constant tensor:
#      x y z
#    x 2.073060 0.000000 0.036690 
#    y 0.000000 2.108330 0.000000 
#    z 0.036690 0.000000 2.054620 
# 
# From -- ./inp_files/2273.got.cif
#   From: 2010.05.17/outbox.cif.g08.bks.cpg/sg15_2_cif.got.tgz:2273.got - 2010.06.03 18:47:42.
