data_PCOD9291231
_publ_section_title
;
Structure prediction by ZEFSAII (Michael W. Deem and Ramdas Pophale) SiO2 
 PCOD9291231
Probable space group: C 2/C
;
_chemical_formula_sum "Si O2"
_cell_formula_units_Z 56
_cell_length_a 10.825808
_cell_length_b 9.681192
_cell_length_c 24.914227
_cell_angle_alpha 90.000000
_cell_angle_beta 68.194583
_cell_angle_gamma 90.000000
_cell_volume 2424.350591
_symmetry_space_group_name_H-M "C 2/C"
_symmetry_group_IT_number 15
_symmetry_cell_setting 'monoclinic'
loop_
_space_group_symop_operation_xyz
x,y,z
-x,y,1/2-z
-x,-y,-z
x,-y,1/2+z
1/2+x,1/2+y,z
1/2-x,1/2+y,1/2-z
1/2-x,1/2-y,-z
1/2+x,1/2-y,1/2+z
loop_
_atom_site_type_symbol
_atom_site_label
_atom_site_fract_x
_atom_site_fract_y
_atom_site_fract_z
Si Si1 0.652545 0.407261 0.215211
Si Si2 0.852609 0.404293 0.088055
Si Si3 0.756903 0.321795 0.577539
Si Si4 0.000000 0.408050 0.250000
Si Si5 0.227046 0.399651 0.718781
Si Si6 0.250000 0.750000 0.000000
Si Si7 0.346218 0.543645 0.517205
Si Si8 0.481335 0.270743 0.652463
O O1 0.500000 0.446367 0.250000
O O2 0.716947 0.390161 0.145818
O O3 0.738266 0.522041 0.232052
O O4 0.668951 0.252897 0.236673
O O5 0.867634 0.567897 0.076676
O O6 0.828245 0.328605 0.036494
O O7 0.967315 0.332188 0.104294
O O8 0.689482 0.382649 0.534000
O O9 0.810018 0.167001 0.563655
O O10 0.629591 0.321999 0.636758
O O11 0.116042 0.506325 0.208916
O O12 0.053351 0.312989 0.288600
O O13 0.366155 0.384084 0.664599
O O14 0.233258 0.900710 0.970617
O O15 0.500000 0.500000 0.500000
#
# Coordination Sequence:
#
# PCOD9291231 Si02
#       8
#     8   8   8   4   8   4   8   8
#     4  11  23  40  66  94 137 174 228 279 345 413
#     4  10  22  42  65  99 133 180 225 284 347 414
#     4  10  23  41  66  96 128 171 225 276 333 410
#     4  12  24  40  62  96 134 174 224 282 342 416
#     4  11  23  41  61  95 130 175 219 280 334 413
#     4  10  22  42  70  98 138 178 224 286 350 410
#     4  10  22  43  67  96 130 173 224 277 338 404
#     4  11  25  41  67  97 136 175 228 282 349 410
#
# _framework density 23.098969
#
# number of rings (size 3 to 8) (size 9 to 14) (size 15 to 20)
#    0.000    1.429    3.571    1.714    3.000    4.571 
#    0.000   10.000    0.000    0.000    0.000    0.000 
#    0.000    0.000    0.000    0.000    0.000    0.000 
#
# Total GULP energy -155869.830045 kJ/mol
# GULP energy per Si atom -5566.779644 kJ/mol
# Density = 2.304640 g / cm^3
# Si number density = 23.098969 Si / 1000 Ang^3
#
#
#
# Elastic Constant Matrix: (Units=GPa)
#
#
# Indices 1 2 3 4 5 6 
#
# 1 55.1439 7.7763 -4.0798 0.0000 -2.4111 0.0000
# 2 7.7763 132.7623 3.6191 0.0000 -5.1171 0.0000
# 3 -4.0798 3.6191 12.2160 0.0000 1.6890 0.0000
# 4 0.0000 0.0000 0.0000 13.0327 0.0000 -6.7542
# 5 -2.4111 -5.1171 1.6890 0.0000 35.1744 0.0000
# 6 0.0000 0.0000 0.0000 -6.7542 0.0000 35.0310
#
#
#
# Elastic Compliance Matrix: (Units=1/GPa)
#
#
# Indices 1 2 3 4 5 6 
#
# 1 0.018830 -0.001251 0.006549 0.000000 0.000794 0.000000
# 2 -0.001251 0.007729 -0.002870 0.000000 0.001177 0.000000
# 3 0.006549 -0.002870 0.085461 0.000000 -0.004072 0.000000
# 4 0.000000 0.000000 0.000000 0.085249 0.000000 0.016437
# 5 0.000794 0.001177 -0.004072 0.000000 0.028851 0.000000
# 6 0.000000 0.000000 0.000000 0.016437 0.000000 0.031715
#
#
# Mechanical properties :
#
#
# Convention : Reuss Voigt Hill
#
# Bulk Modulus (GPa) = 8.55603 23.86148 16.20875
# Shear Modulus (GPa) = 17.12700 29.50138 23.31419
#
# Velocity S-wave (km/s) = 2.72593 3.57763 3.18042
# Velocity P-wave (km/s) = 3.69049 5.23627 4.52980
#
# Compressibility (1/GPa) = 0.11687668
#
# Stress axis : x y z
#
# Youngs Moduli (GPa) = 53.10657 129.38099 11.70129
#
# Poissons Ratio (x) = 0.16184 -0.07664
# Poissons Ratio (y) = 0.06643 0.03359
# Poissons Ratio (z) = -0.34782 0.37135
#
# Static dielectric constant tensor:
#      x y z
#    x 1.875860 0.000000 -0.014150 
#    y 0.000000 1.866060 0.000000 
#    z -0.014150 0.000000 1.892880 
# 
# From -- ./inp_files/309955.got.cif
#   From: 2010.05.17/outbox.cif.g08.bks.cpg/sg15_155_cif.got.tgz:309955.got - 2010.06.03 18:47:42.
