data_PCOD9291291
_publ_section_title
;
Structure prediction by ZEFSAII (Michael W. Deem and Ramdas Pophale) SiO2 
 PCOD9291291
Probable space group: C 2/C
;
_chemical_formula_sum "Si O2"
_cell_formula_units_Z 48
_cell_length_a 6.150892
_cell_length_b 19.387139
_cell_length_c 21.659567
_cell_angle_alpha 90.000000
_cell_angle_beta 55.389753
_cell_angle_gamma 90.000000
_cell_volume 2125.787234
_symmetry_space_group_name_H-M "C 2/C"
_symmetry_group_IT_number 15
_symmetry_cell_setting 'monoclinic'
loop_
_space_group_symop_operation_xyz
x,y,z
-x,y,1/2-z
-x,-y,-z
x,-y,1/2+z
1/2+x,1/2+y,z
1/2-x,1/2+y,1/2-z
1/2-x,1/2-y,-z
1/2+x,1/2-y,1/2+z
loop_
_atom_site_type_symbol
_atom_site_label
_atom_site_fract_x
_atom_site_fract_y
_atom_site_fract_z
Si Si1 0.463505 0.784483 0.051334
Si Si2 0.100623 0.702364 0.664335
Si Si3 0.769892 0.438382 0.400205
Si Si4 0.279712 0.460699 0.958868
Si Si5 0.725344 0.051728 0.330648
Si Si6 0.522875 0.177907 0.084166
O O1 0.423285 0.805409 0.129999
O O2 0.265287 0.722743 0.068409
O O3 0.426529 0.836109 0.997797
O O4 0.750000 0.750000 0.000000
O O5 0.000000 0.709831 0.750000
O O6 0.244281 0.628224 0.639830
O O7 0.278681 0.769314 0.625471
O O8 0.732451 0.415550 0.477602
O O9 0.522950 0.487374 0.427619
O O10 0.041592 0.483542 0.352035
O O11 0.316705 0.430744 0.885760
O O12 0.000000 0.500000 0.000000
O O13 0.524707 0.116255 0.359279
O O14 0.000000 0.048310 0.250000
#
# Coordination Sequence:
#
# PCOD9291291 Si02
#       6
#     8   8   8   8   8   8
#     4   9  21  41  67  94 124 170 220 272 326 395
#     4  11  24  40  62  93 132 163 213 266 334 389
#     4  10  23  41  64  90 125 175 216 267 321 400
#     4   9  21  41  64  91 125 169 222 266 324 392
#     4  11  24  40  64  94 132 167 218 273 339 396
#     4  10  22  42  66  93 126 170 220 271 327 397
#
# _framework density 22.57987
#
# number of rings (size 3 to 8) (size 9 to 14) (size 15 to 20)
#    0.000    2.000    0.000    1.500    2.333   18.000 
#    0.000    1.667    0.000    0.000    0.000    0.000 
#    0.000    0.000    0.000    0.000    0.000    0.000 
#
# Total GULP energy -133768.208668 kJ/mol
# GULP energy per Si atom -5573.675361 kJ/mol
# Density = 2.252848 g / cm^3
# Si number density = 22.579870 Si / 1000 Ang^3
#
#
#
# Elastic Constant Matrix: (Units=GPa)
#
#
# Indices 1 2 3 4 5 6 
#
# 1 50.6700 -13.8923 36.0084 0.0000 8.2573 0.0000
# 2 -13.8923 76.9164 25.1420 0.0000 2.1973 0.0000
# 3 36.0084 25.1420 146.7437 0.0000 19.0066 0.0000
# 4 0.0000 0.0000 0.0000 31.5579 0.0000 -3.0772
# 5 8.2573 2.1973 19.0066 0.0000 20.7663 0.0000
# 6 0.0000 0.0000 0.0000 -3.0772 0.0000 20.9701
#
#
#
# Elastic Compliance Matrix: (Units=1/GPa)
#
#
# Indices 1 2 3 4 5 6 
#
# 1 0.028015 0.007667 -0.007533 0.000000 -0.005056 0.000000
# 2 0.007667 0.015882 -0.004527 0.000000 -0.000586 0.000000
# 3 -0.007533 -0.004527 0.010198 0.000000 -0.005859 0.000000
# 4 0.000000 0.000000 0.000000 0.032148 0.000000 0.004717
# 5 -0.005056 -0.000586 -0.005859 0.000000 0.055590 0.000000
# 6 0.000000 0.000000 0.000000 0.004717 0.000000 0.048379
#
#
# Mechanical properties :
#
#
# Convention : Reuss Voigt Hill
#
# Bulk Modulus (GPa) = 22.07074 40.98291 31.52683
# Shear Modulus (GPa) = 23.35354 29.79698 26.57526
#
# Velocity S-wave (km/s) = 3.21949 3.63661 3.43438
# Velocity P-wave (km/s) = 4.85962 5.98522 5.45154
#
# Compressibility (1/GPa) = 0.04530885
#
# Stress axis : x y z
#
# Youngs Moduli (GPa) = 35.69539 62.96352 98.06315
#
# Poissons Ratio (x) = -0.48272 0.73871
# Poissons Ratio (y) = -0.27367 0.44388
# Poissons Ratio (z) = 0.26890 0.28501
#
# Static dielectric constant tensor:
#      x y z
#    x 1.895160 0.000000 0.051820 
#    y 0.000000 1.896350 0.000000 
#    z 0.051820 0.000000 1.873920 
# 
# From -- ./inp_files/261301.got.cif
#   From: 2010.05.17/outbox.cif.g08.bks.cpg/sg15_131_cif.got.tgz:261301.got - 2010.06.03 18:47:42.
