data_PCOD9291039
_publ_section_title
;
Structure prediction by ZEFSAII (Michael W. Deem and Ramdas Pophale) SiO2 
 PCOD9291039
Probable space group: C 2/C
;
_chemical_formula_sum "Si O2"
_cell_formula_units_Z 60
_cell_length_a 6.794138
_cell_length_b 12.594231
_cell_length_c 29.237843
_cell_angle_alpha 90.000000
_cell_angle_beta 104.796573
_cell_angle_gamma 90.000000
_cell_volume 2418.830068
_symmetry_space_group_name_H-M "C 2/C"
_symmetry_group_IT_number 15
_symmetry_cell_setting 'monoclinic'
loop_
_space_group_symop_operation_xyz
x,y,z
-x,y,1/2-z
-x,-y,-z
x,-y,1/2+z
1/2+x,1/2+y,z
1/2-x,1/2+y,1/2-z
1/2-x,1/2-y,-z
1/2+x,1/2-y,1/2+z
loop_
_atom_site_type_symbol
_atom_site_label
_atom_site_fract_x
_atom_site_fract_y
_atom_site_fract_z
Si Si1 0.132469 0.630204 0.824567
Si Si2 0.734266 0.353484 0.401199
Si Si3 0.000000 0.819225 0.750000
Si Si4 0.330746 0.728794 0.915763
Si Si5 0.961769 0.076531 0.093983
Si Si6 0.946003 0.823443 0.196162
Si Si7 0.294498 0.910114 0.695072
Si Si8 0.058222 0.217932 0.019899
O O1 0.042569 0.734064 0.793795
O O2 0.185727 0.645953 0.880831
O O3 0.361939 0.632345 0.818443
O O4 0.065706 0.514229 0.803930
O O5 0.548933 0.271404 0.402271
O O6 0.645299 0.463025 0.414500
O O7 0.745280 0.359949 0.346423
O O8 0.925340 0.309835 0.440423
O O9 0.170734 0.892085 0.735501
O O10 0.216788 0.840217 0.905296
O O11 0.382452 0.709324 0.971747
O O12 0.129204 0.084717 0.143901
O O13 0.057085 0.113012 0.051205
O O14 0.923667 0.696932 0.196547
O O15 0.000000 0.859123 0.250000
O O16 0.250000 0.250000 0.000000
#
# Coordination Sequence:
#
# PCOD9291039 Si02
#       8
#     8   8   4   8   8   8   8   8
#     4  11  25  44  63  98 130 167 219 263 321 386
#     4  10  23  43  64  94 132 170 216 269 323 388
#     4  12  26  42  70 100 130 170 222 266 322 388
#     4  10  22  42  63  96 130 163 215 272 311 388
#     4  12  22  42  68  95 127 172 218 266 327 381
#     4  11  22  42  64  93 134 168 213 266 317 390
#     4  12  25  41  69  95 129 176 212 265 327 384
#     4  10  23  43  68  94 131 173 216 272 331 385
#
# _framework density 24.805381000000001
#
# number of rings (size 3 to 8) (size 9 to 14) (size 15 to 20)
#    0.000    1.067    6.667    0.400    1.867    2.667 
#    0.000    8.000    0.000    0.000    0.000    0.000 
#    0.000    0.000    0.000    0.000    0.000    0.000 
#
# Total GULP energy -167431.869162 kJ/mol
# GULP energy per Si atom -5581.062305 kJ/mol
# Density = 2.474892 g / cm^3
# Si number density = 24.805381 Si / 1000 Ang^3
#
#
#
# Elastic Constant Matrix: (Units=GPa)
#
#
# Indices 1 2 3 4 5 6 
#
# 1 45.7742 32.7486 44.5581 0.0000 2.3549 0.0000
# 2 32.7486 120.5227 60.2405 0.0000 -4.2604 0.0000
# 3 44.5581 60.2405 217.8817 0.0000 1.0863 0.0000
# 4 0.0000 0.0000 0.0000 17.1458 0.0000 -6.3957
# 5 2.3549 -4.2604 1.0863 0.0000 51.2204 0.0000
# 6 0.0000 0.0000 0.0000 -6.3957 0.0000 46.8605
#
#
#
# Elastic Compliance Matrix: (Units=1/GPa)
#
#
# Indices 1 2 3 4 5 6 
#
# 1 0.030804 -0.006139 -0.004593 0.000000 -0.001829 0.000000
# 2 -0.006139 0.010889 -0.001761 0.000000 0.001225 0.000000
# 3 -0.004593 -0.001761 0.006016 0.000000 -0.000063 0.000000
# 4 0.000000 0.000000 0.000000 0.061452 0.000000 0.008387
# 5 -0.001829 0.001225 -0.000063 0.000000 0.019711 0.000000
# 6 0.000000 0.000000 0.000000 0.008387 0.000000 0.022485
#
#
# Mechanical properties :
#
#
# Convention : Reuss Voigt Hill
#
# Bulk Modulus (GPa) = 44.00982 73.25254 58.63118
# Shear Modulus (GPa) = 27.18622 39.48743 33.33683
#
# Velocity S-wave (km/s) = 3.31415 3.99418 3.66995
# Velocity P-wave (km/s) = 5.69433 7.13206 6.45336
#
# Compressibility (1/GPa) = 0.02272220
#
# Stress axis : x y z
#
# Youngs Moduli (GPa) = 32.46376 91.83662 166.21699
#
# Poissons Ratio (x) = 0.56378 0.76345
# Poissons Ratio (y) = 0.19929 0.29275
# Poissons Ratio (z) = 0.14911 0.16175
#
# Static dielectric constant tensor:
#      x y z
#    x 2.036870 0.000000 -0.008020 
#    y 0.000000 1.996780 0.000000 
#    z -0.008020 0.000000 2.148350 
# 
# From -- ./inp_files/307522.got.cif
#   From: 2010.05.17/outbox.cif.g08.bks.cpg/sg15_154_cif.got.tgz:307522.got - 2010.06.03 18:47:42.
