data_PCOD9291041
_publ_section_title
;
Structure prediction by ZEFSAII (Michael W. Deem and Ramdas Pophale) SiO2 
 PCOD9291041
Probable space group: C 2/C
;
_chemical_formula_sum "Si O2"
_cell_formula_units_Z 40
_cell_length_a 9.657406
_cell_length_b 14.706351
_cell_length_c 12.606126
_cell_angle_alpha 90.000000
_cell_angle_beta 69.915101
_cell_angle_gamma 90.000000
_cell_volume 1681.504808
_symmetry_space_group_name_H-M "C 2/C"
_symmetry_group_IT_number 15
_symmetry_cell_setting 'monoclinic'
loop_
_space_group_symop_operation_xyz
x,y,z
-x,y,1/2-z
-x,-y,-z
x,-y,1/2+z
1/2+x,1/2+y,z
1/2-x,1/2+y,1/2-z
1/2-x,1/2-y,-z
1/2+x,1/2-y,1/2+z
loop_
_atom_site_type_symbol
_atom_site_label
_atom_site_fract_x
_atom_site_fract_y
_atom_site_fract_z
Si Si1 0.711344 0.896828 0.651098
Si Si2 0.705983 0.292816 0.254685
Si Si3 0.571845 0.850629 0.467760
Si Si4 0.167648 0.410219 0.115381
Si Si5 0.028097 0.850545 0.482616
O O1 0.693195 0.814901 0.739115
O O2 0.607125 0.873712 0.578781
O O3 0.878838 0.894543 0.562690
O O4 0.677109 0.000808 0.687043
O O5 0.828837 0.321665 0.310061
O O6 0.564616 0.339892 0.346802
O O7 0.770827 0.334333 0.130188
O O8 0.466442 0.916064 0.429498
O O9 0.487197 0.754536 0.481541
O O10 0.324527 0.399174 0.013570
#
# Coordination Sequence:
#
# PCOD9291041 Si02
#       5
#     8   8   8   8   8
#     4  11  22  41  69  93 127 170 214 262 318 380
#     4   9  22  40  64  90 132 170 209 258 311 384
#     4  11  21  40  64  94 132 164 205 269 322 370
#     4  10  22  42  63  97 129 162 219 262 317 375
#     4   9  21  40  68  86 132 171 211 252 323 376
#
# _framework density 23.788215999999998
#
# number of rings (size 3 to 8) (size 9 to 14) (size 15 to 20)
#    1.200    0.800    0.000    4.800    0.000    3.200 
#   10.800    0.000    0.000    0.000    0.000    0.000 
#    0.000    0.000    0.000    0.000    0.000    0.000 
#
# Total GULP energy -111544.136440 kJ/mol
# GULP energy per Si atom -5577.206822 kJ/mol
# Density = 2.373407 g / cm^3
# Si number density = 23.788216 Si / 1000 Ang^3
#
#
#
# Elastic Constant Matrix: (Units=GPa)
#
#
# Indices 1 2 3 4 5 6 
#
# 1 116.5834 36.6870 32.7841 0.0000 -20.9229 0.0000
# 2 36.6870 98.0018 16.5416 0.0000 5.6632 0.0000
# 3 32.7841 16.5416 67.9582 0.0000 -13.8167 0.0000
# 4 0.0000 0.0000 0.0000 29.0769 0.0000 12.2602
# 5 -20.9229 5.6632 -13.8167 0.0000 45.3914 0.0000
# 6 0.0000 0.0000 0.0000 12.2602 0.0000 25.5366
#
#
#
# Elastic Compliance Matrix: (Units=1/GPa)
#
#
# Indices 1 2 3 4 5 6 
#
# 1 0.011757 -0.004052 -0.003710 0.000000 0.004795 0.000000
# 2 -0.004052 0.012259 -0.001833 0.000000 -0.003955 0.000000
# 3 -0.003710 -0.001833 0.017748 0.000000 0.003921 0.000000
# 4 0.000000 0.000000 0.000000 0.043121 0.000000 -0.020702
# 5 0.004795 -0.003955 0.003921 0.000000 0.025928 0.000000
# 6 0.000000 0.000000 0.000000 -0.020702 0.000000 0.049099
#
#
# Mechanical properties :
#
#
# Convention : Reuss Voigt Hill
#
# Bulk Modulus (GPa) = 44.30185 50.50765 47.40475
# Shear Modulus (GPa) = 26.79150 33.10302 29.94726
#
# Velocity S-wave (km/s) = 3.35961 3.73443 3.55196
# Velocity P-wave (km/s) = 5.80630 6.31450 6.06572
#
# Compressibility (1/GPa) = 0.02257242
#
# Stress axis : x y z
#
# Youngs Moduli (GPa) = 85.05859 81.57449 56.34355
#
# Poissons Ratio (x) = 0.33053 0.20905
# Poissons Ratio (y) = 0.34465 0.10329
# Poissons Ratio (z) = 0.31560 0.14955
#
# Static dielectric constant tensor:
#      x y z
#    x 1.972610 0.000000 -0.065900 
#    y 0.000000 1.914760 0.000000 
#    z -0.065900 0.000000 1.937840 
# 
# From -- ./inp_files/85964.got.cif
#   From: 2010.05.17/outbox.cif.g08.bks.cpg/sg15_43_cif.got.tgz:85964.got - 2010.06.03 18:47:42.
