data_PCOD9291609
_publ_section_title
;
Structure prediction by ZEFSAII (Michael W. Deem and Ramdas Pophale) SiO2 
 PCOD9291609
Probable space group: C 2/C
;
_chemical_formula_sum "Si O2"
_cell_formula_units_Z 56
_cell_length_a 8.432665
_cell_length_b 24.423659
_cell_length_c 12.361552
_cell_angle_alpha 90.000000
_cell_angle_beta 102.410039
_cell_angle_gamma 90.000000
_cell_volume 2486.455546
_symmetry_space_group_name_H-M "C 2/C"
_symmetry_group_IT_number 15
_symmetry_cell_setting 'monoclinic'
loop_
_space_group_symop_operation_xyz
x,y,z
-x,y,1/2-z
-x,-y,-z
x,-y,1/2+z
1/2+x,1/2+y,z
1/2-x,1/2+y,1/2-z
1/2-x,1/2-y,-z
1/2+x,1/2-y,1/2+z
loop_
_atom_site_type_symbol
_atom_site_label
_atom_site_fract_x
_atom_site_fract_y
_atom_site_fract_z
Si Si1 0.587418 0.405751 0.361445
Si Si2 0.739952 0.684327 0.721133
Si Si3 0.915937 0.838991 0.504541
Si Si4 0.500000 0.903813 0.250000
Si Si5 0.500000 0.147300 0.250000
Si Si6 0.347852 0.981839 0.408576
Si Si7 0.759938 0.219702 0.387963
Si Si8 0.809799 0.905130 0.682181
O O1 0.500000 0.437630 0.250000
O O2 0.656705 0.352398 0.306108
O O3 0.459098 0.389422 0.431855
O O4 0.725679 0.438467 0.443449
O O5 0.646187 0.702161 0.598118
O O6 0.789415 0.738191 0.793377
O O7 0.867853 0.640576 0.691481
O O8 0.805067 0.861152 0.583418
O O9 0.083162 0.818622 0.580684
O O10 0.415910 0.944766 0.320962
O O11 0.591842 0.187400 0.346978
O O12 0.344786 0.112272 0.266880
O O13 0.241370 0.034254 0.362459
O O14 0.500000 0.000000 0.500000
O O15 0.750000 0.250000 0.500000
O O16 0.000000 0.905251 0.750000
#
# Coordination Sequence:
#
# PCOD9291609 Si02
#       8
#     8   8   8   4   4   8   8   8
#     4   9  20  40  65  96 136 182 234 295 361 436
#     4  10  22  42  69 103 143 190 240 305 364 441
#     4  11  23  43  71 102 147 187 247 298 372 437
#     4  10  23  44  68 106 146 186 251 310 362 456
#     4  12  29  48  72 102 156 192 255 306 376 440
#     4  11  24  40  70 103 140 187 243 302 381 433
#     4  12  24  43  75 107 144 200 242 301 374 434
#     4  12  27  49  71 107 151 198 245 313 375 450
#
# _framework density 22.522019
#
# number of rings (size 3 to 8) (size 9 to 14) (size 15 to 20)
#    0.000    1.143    2.857    2.571    3.000    4.000 
#    0.000    2.143    0.000    0.000    0.000    0.000 
#    0.000    0.000    0.000    0.000    0.000    0.000 
#
# Total GULP energy -156030.432368 kJ/mol
# GULP energy per Si atom -5572.515442 kJ/mol
# Density = 2.247076 g / cm^3
# Si number density = 22.522019 Si / 1000 Ang^3
#
#
#
# Elastic Constant Matrix: (Units=GPa)
#
#
# Indices 1 2 3 4 5 6 
#
# 1 107.9661 34.2105 40.0173 0.0000 15.9924 0.0000
# 2 34.2105 62.0915 32.9037 0.0000 18.3321 0.0000
# 3 40.0173 32.9037 88.6379 0.0000 30.3617 0.0000
# 4 0.0000 0.0000 0.0000 18.6472 0.0000 9.7519
# 5 15.9924 18.3321 30.3617 0.0000 40.5827 0.0000
# 6 0.0000 0.0000 0.0000 9.7519 0.0000 30.1871
#
#
#
# Elastic Compliance Matrix: (Units=1/GPa)
#
#
# Indices 1 2 3 4 5 6 
#
# 1 0.012139 -0.004737 -0.003787 0.000000 0.000189 0.000000
# 2 -0.004737 0.022585 -0.004558 0.000000 -0.004925 0.000000
# 3 -0.003787 -0.004558 0.018107 0.000000 -0.009996 0.000000
# 4 0.000000 0.000000 0.000000 0.064529 0.000000 -0.020846
# 5 0.000189 -0.004925 -0.009996 0.000000 0.034269 0.000000
# 6 0.000000 0.000000 0.000000 -0.020846 0.000000 0.039861
#
#
# Mechanical properties :
#
#
# Convention : Reuss Voigt Hill
#
# Bulk Modulus (GPa) = 37.49953 52.55097 45.02525
# Shear Modulus (GPa) = 22.07080 27.98765 25.02923
#
# Velocity S-wave (km/s) = 3.13384 3.52899 3.33727
# Velocity P-wave (km/s) = 5.45719 6.32367 5.90634
#
# Compressibility (1/GPa) = 0.02666700
#
# Stress axis : x y z
#
# Youngs Moduli (GPa) = 82.38124 44.27725 55.22644
#
# Poissons Ratio (x) = 0.20976 0.20912
# Poissons Ratio (y) = 0.39027 0.25172
# Poissons Ratio (z) = 0.31194 0.20182
#
# Static dielectric constant tensor:
#      x y z
#    x 1.924840 0.000000 0.062590 
#    y 0.000000 1.873750 0.000000 
#    z 0.062590 0.000000 1.868130 
# 
# From -- ./inp_files/81467.got.cif
#   From: 2010.05.17/outbox.cif.g08.bks.cpg/sg15_41_cif.got.tgz:81467.got - 2010.06.03 18:47:42.
