data_PCOD9291182
_publ_section_title
;
Structure prediction by ZEFSAII (Michael W. Deem and Ramdas Pophale) SiO2 
 PCOD9291182
Probable space group: C 2/C
;
_chemical_formula_sum "Si O2"
_cell_formula_units_Z 32
_cell_length_a 12.279569
_cell_length_b 14.884020
_cell_length_c 8.669825
_cell_angle_alpha 90.000000
_cell_angle_beta 131.171760
_cell_angle_gamma 90.000000
_cell_volume 1192.774623
_symmetry_space_group_name_H-M "C 2/C"
_symmetry_group_IT_number 15
_symmetry_cell_setting 'monoclinic'
loop_
_space_group_symop_operation_xyz
x,y,z
-x,y,1/2-z
-x,-y,-z
x,-y,1/2+z
1/2+x,1/2+y,z
1/2-x,1/2+y,1/2-z
1/2-x,1/2-y,-z
1/2+x,1/2-y,1/2+z
loop_
_atom_site_type_symbol
_atom_site_label
_atom_site_fract_x
_atom_site_fract_y
_atom_site_fract_z
Si Si1 0.308395 0.996612 0.998046
Si Si2 0.750000 0.750000 0.000000
Si Si3 0.501893 0.299565 0.019533
Si Si4 0.446072 0.108717 0.907595
Si Si5 0.000000 0.939845 0.750000
O O1 0.138831 0.996653 0.832330
O O2 0.375348 0.093604 0.011971
O O3 0.393873 0.932700 0.956745
O O4 0.355864 0.947826 0.198918
O O5 0.861823 0.766815 0.253020
O O6 0.862389 0.812242 0.997671
O O7 0.453206 0.211716 0.877599
O O8 0.534302 0.378346 0.930440
#
# Coordination Sequence:
#
# PCOD9291182 Si02
#       5
#     8   4   8   8   4
#     4  10  23  40  64  97 134 179 230 286 349 416
#     4  10  24  40  64 102 138 176 226 288 354 414
#     4  11  23  42  68  99 137 180 232 290 351 418
#     4  10  22  42  65  92 133 185 231 274 347 437
#     4  12  24  42  70 106 138 172 236 308 352 394
#
# _framework density 26.828202999999998
#
# number of rings (size 3 to 8) (size 9 to 14) (size 15 to 20)
#    0.000    1.500    0.000    4.500    0.000   14.000 
#    0.000    2.500    0.000    0.000    0.000    0.000 
#    0.000    0.000    0.000    0.000    0.000    0.000 
#
# Total GULP energy -89105.493589 kJ/mol
# GULP energy per Si atom -5569.093349 kJ/mol
# Density = 2.676714 g / cm^3
# Si number density = 26.828203 Si / 1000 Ang^3
#
#
#
# Elastic Constant Matrix: (Units=GPa)
#
#
# Indices 1 2 3 4 5 6 
#
# 1 196.1543 23.7175 68.8729 0.0000 27.2885 0.0000
# 2 23.7175 72.8496 24.7926 0.0000 -4.8120 0.0000
# 3 68.8729 24.7926 142.1777 0.0000 -4.1895 0.0000
# 4 0.0000 0.0000 0.0000 25.8183 0.0000 5.9213
# 5 27.2885 -4.8120 -4.1895 0.0000 57.7454 0.0000
# 6 0.0000 0.0000 0.0000 5.9213 0.0000 27.4530
#
#
#
# Elastic Compliance Matrix: (Units=1/GPa)
#
#
# Indices 1 2 3 4 5 6 
#
# 1 0.006892 -0.001392 -0.003202 0.000000 -0.003605 0.000000
# 2 -0.001392 0.014936 -0.001878 0.000000 0.001766 0.000000
# 3 -0.003202 -0.001878 0.008971 0.000000 0.002008 0.000000
# 4 0.000000 0.000000 0.000000 0.040748 0.000000 -0.008789
# 5 -0.003605 0.001766 0.002008 0.000000 0.019314 0.000000
# 6 0.000000 0.000000 0.000000 -0.008789 0.000000 0.038321
#
#
# Mechanical properties :
#
#
# Convention : Reuss Voigt Hill
#
# Bulk Modulus (GPa) = 56.00793 71.77196 63.88995
# Shear Modulus (GPa) = 33.76569 41.78993 37.77781
#
# Velocity S-wave (km/s) = 3.55151 3.95104 3.75659
# Velocity P-wave (km/s) = 6.14324 6.90107 6.53315
#
# Compressibility (1/GPa) = 0.01785461
#
# Stress axis : x y z
#
# Youngs Moduli (GPa) = 145.08992 66.95235 111.46688
#
# Poissons Ratio (x) = 0.09322 0.35694
# Poissons Ratio (y) = 0.20200 0.20934
# Poissons Ratio (z) = 0.46460 0.12574
#
# Static dielectric constant tensor:
#      x y z
#    x 1.137370 0.000000 0.766160 
#    y 0.000000 2.352720 0.000000 
#    z 0.766160 0.000000 1.516540 
# 
# From -- ./inp_files/30640.got.cif
#   From: 2010.05.17/outbox.cif.g08.bks.cpg/sg15_16_cif.got.tgz:30640.got - 2010.06.03 18:47:42.
