data_PCOD9291456
_publ_section_title
;
Structure prediction by ZEFSAII (Michael W. Deem and Ramdas Pophale) SiO2 
 PCOD9291456
Probable space group: C 2/C
;
_chemical_formula_sum "Si O2"
_cell_formula_units_Z 32
_cell_length_a 9.295786
_cell_length_b 16.821753
_cell_length_c 9.865102
_cell_angle_alpha 90.000000
_cell_angle_beta 130.803618
_cell_angle_gamma 90.000000
_cell_volume 1167.692037
_symmetry_space_group_name_H-M "C 2/C"
_symmetry_group_IT_number 15
_symmetry_cell_setting 'monoclinic'
loop_
_space_group_symop_operation_xyz
x,y,z
-x,y,1/2-z
-x,-y,-z
x,-y,1/2+z
1/2+x,1/2+y,z
1/2-x,1/2+y,1/2-z
1/2-x,1/2-y,-z
1/2+x,1/2-y,1/2+z
loop_
_atom_site_type_symbol
_atom_site_label
_atom_site_fract_x
_atom_site_fract_y
_atom_site_fract_z
Si Si1 0.715093 0.682151 0.180411
Si Si2 0.043345 0.623248 0.914695
Si Si3 0.085324 0.939518 0.946561
Si Si4 0.725914 0.360509 0.392400
O O1 0.838684 0.664042 0.389722
O O2 0.503450 0.647379 0.074126
O O3 0.728183 0.773303 0.143175
O O4 0.783528 0.637981 0.084903
O O5 0.000000 0.673730 0.750000
O O6 0.857262 0.588338 0.874136
O O7 0.191416 0.561897 0.940084
O O8 0.000000 0.961152 0.750000
O O9 0.000000 0.000000 0.000000
O O10 0.500000 0.369474 0.250000
#
# Coordination Sequence:
#
# PCOD9291456 Si02
#       4
#     8   8   8   8
#     4  10  22  42  67  98 136 177 221 274 335 401
#     4  11  24  41  66 100 133 176 222 273 334 393
#     4  10  24  47  70  95 132 176 229 285 333 391
#     4  11  22  40  67  99 137 176 216 269 337 410
#
# _framework density 27.404485999999999
#
# number of rings (size 3 to 8) (size 9 to 14) (size 15 to 20)
#    0.000    1.500    0.000    5.250    0.000    8.000 
#    0.000   12.500    0.000    0.000    0.000    0.000 
#    0.000    0.000    0.000    0.000    0.000    0.000 
#
# Total GULP energy -89597.263030 kJ/mol
# GULP energy per Si atom -5599.828939 kJ/mol
# Density = 2.734211 g / cm^3
# Si number density = 27.404486 Si / 1000 Ang^3
#
#
#
# Elastic Constant Matrix: (Units=GPa)
#
#
# Indices 1 2 3 4 5 6 
#
# 1 290.2105 55.6609 80.9736 0.0000 -1.6014 0.0000
# 2 55.6609 94.7538 15.6047 0.0000 -3.3140 0.0000
# 3 80.9736 15.6047 211.3060 0.0000 -47.8787 0.0000
# 4 0.0000 0.0000 0.0000 4.5632 0.0000 -21.3474
# 5 -1.6014 -3.3140 -47.8787 0.0000 70.1885 0.0000
# 6 0.0000 0.0000 0.0000 -21.3474 0.0000 50.5116
#
#
#
# Elastic Compliance Matrix: (Units=1/GPa)
#
#
# Indices 1 2 3 4 5 6 
#
# 1 0.004383 -0.002323 -0.001786 0.000000 -0.001228 0.000000
# 2 -0.002323 0.011915 0.000149 0.000000 0.000611 0.000000
# 3 -0.001786 0.000149 0.006385 0.000000 0.004322 0.000000
# 4 0.000000 0.000000 0.000000 -0.224281 0.000000 -0.094786
# 5 -0.001228 0.000611 0.004322 0.000000 0.017196 0.000000
# 6 0.000000 0.000000 0.000000 -0.094786 0.000000 -0.020261
#
#
# Mechanical properties :
#
#
# Convention : Reuss Voigt Hill
#
# Bulk Modulus (GPa) = 67.74175 100.08320 83.91247
# Shear Modulus (GPa) = -26.06607 54.65473 14.29433
#
# Velocity S-wave (km/s) = -3.08744 4.47068 2.28635
# Velocity P-wave (km/s) = 3.47321 7.95295 6.13647
#
# Compressibility (1/GPa) = 0.01476194
#
# Stress axis : x y z
#
# Youngs Moduli (GPa) = 228.15202 83.92507 156.60987
#
# Poissons Ratio (x) = 0.19500 0.27975
# Poissons Ratio (y) = 0.53011 -0.02332
# Poissons Ratio (z) = 0.40755 -0.01250
#
# Static dielectric constant tensor:
#      x y z
#    x 2.174110 0.000000 0.053380 
#    y 0.000000 2.209180 0.000000 
#    z 0.053380 0.000000 2.219100 
# 
# From -- ./inp_files/22933.got.cif
#   From: 2010.05.17/outbox.cif.g08.bks.cpg/sg15_12_cif.got.tgz:22933.got - 2010.06.03 18:47:42.
