data_PCOD9291979
_publ_section_title
;
Structure prediction by ZEFSAII (Michael W. Deem and Ramdas Pophale) SiO2 
 PCOD9291979
Probable space group: C 2/C
;
_chemical_formula_sum "Si O2"
_cell_formula_units_Z 60
_cell_length_a 7.788930
_cell_length_b 12.026957
_cell_length_c 31.585564
_cell_angle_alpha 90.000000
_cell_angle_beta 70.393170
_cell_angle_gamma 90.000000
_cell_volume 2787.283519
_symmetry_space_group_name_H-M "C 2/C"
_symmetry_group_IT_number 15
_symmetry_cell_setting 'monoclinic'
loop_
_space_group_symop_operation_xyz
x,y,z
-x,y,1/2-z
-x,-y,-z
x,-y,1/2+z
1/2+x,1/2+y,z
1/2-x,1/2+y,1/2-z
1/2-x,1/2-y,-z
1/2+x,1/2-y,1/2+z
loop_
_atom_site_type_symbol
_atom_site_label
_atom_site_fract_x
_atom_site_fract_y
_atom_site_fract_z
Si Si1 0.379267 0.457627 0.183659
Si Si2 0.562081 0.975326 0.082858
Si Si3 0.131354 0.810885 0.780154
Si Si4 0.500000 0.327058 0.250000
Si Si5 0.670334 0.137764 0.486933
Si Si6 0.327906 0.196564 0.855103
Si Si7 0.836196 0.961194 0.412021
Si Si8 0.460288 0.215965 0.423515
O O1 0.308416 0.565942 0.212422
O O2 0.511671 0.399000 0.206375
O O3 0.220413 0.376162 0.181951
O O4 0.490880 0.482398 0.131760
O O5 0.641668 0.886691 0.108518
O O6 0.343188 0.970508 0.102237
O O7 0.629951 0.101379 0.085402
O O8 0.602426 0.935679 0.031722
O O9 0.314182 0.740916 0.760300
O O10 0.000000 0.813610 0.750000
O O11 0.005109 0.766066 0.828861
O O12 0.750000 0.250000 0.500000
O O13 0.519306 0.181880 0.466185
O O14 0.806893 0.056915 0.449592
O O15 0.149127 0.267268 0.881899
O O16 0.857704 0.834299 0.428065
#
# Coordination Sequence:
#
# PCOD9291979 Si02
#       8
#     8   8   8   4   8   8   8   8
#     4  11  25  46  68 101 134 174 231 280 345 414
#     4  11  23  40  66  97 134 178 226 279 338 400
#     4  12  25  45  73  97 138 178 217 289 346 407
#     4  12  26  46  70 106 130 174 234 274 348 426
#     4  11  22  40  64  98 134 179 228 280 338 400
#     4  11  24  44  67  99 136 177 221 278 344 406
#     4  10  23  43  66  95 135 177 226 285 336 410
#     4  10  22  43  64  94 132 173 226 277 331 404
#
# _framework density 21.526337000000002
#
# number of rings (size 3 to 8) (size 9 to 14) (size 15 to 20)
#    0.000    1.067    3.333    4.000    0.000    6.933 
#    4.800    0.000    0.000    0.000    0.000    0.000 
#    0.000    0.000    0.000    0.000    0.000    0.000 
#
# Total GULP energy -167599.411066 kJ/mol
# GULP energy per Si atom -5586.647036 kJ/mol
# Density = 2.147734 g / cm^3
# Si number density = 21.526337 Si / 1000 Ang^3
#
#
#
# Elastic Constant Matrix: (Units=GPa)
#
#
# Indices 1 2 3 4 5 6 
#
# 1 31.3674 9.0291 4.9355 0.0000 3.8713 0.0000
# 2 9.0291 127.5224 29.1417 0.0000 11.2753 0.0000
# 3 4.9355 29.1417 62.3050 0.0000 16.4202 0.0000
# 4 0.0000 0.0000 0.0000 36.3067 0.0000 14.5907
# 5 3.8713 11.2753 16.4202 0.0000 30.7752 0.0000
# 6 0.0000 0.0000 0.0000 14.5907 0.0000 22.3419
#
#
#
# Elastic Compliance Matrix: (Units=1/GPa)
#
#
# Indices 1 2 3 4 5 6 
#
# 1 0.032929 -0.001850 -0.000966 0.000000 -0.002949 0.000000
# 2 -0.001850 0.008922 -0.003754 0.000000 -0.001033 0.000000
# 3 -0.000966 -0.003754 0.020350 0.000000 -0.009361 0.000000
# 4 0.000000 0.000000 0.000000 0.037344 0.000000 -0.024388
# 5 -0.002949 -0.001033 -0.009361 0.000000 0.038237 0.000000
# 6 0.000000 0.000000 0.000000 -0.024388 0.000000 0.060686
#
#
# Mechanical properties :
#
#
# Convention : Reuss Voigt Hill
#
# Bulk Modulus (GPa) = 20.38333 34.15638 27.26985
# Shear Modulus (GPa) = 21.93353 29.75733 25.84543
#
# Velocity S-wave (km/s) = 3.19551 3.72206 3.46879
# Velocity P-wave (km/s) = 4.80673 5.86287 5.36087
#
# Compressibility (1/GPa) = 0.04905970
#
# Stress axis : x y z
#
# Youngs Moduli (GPa) = 30.36868 112.08231 49.14124
#
# Poissons Ratio (x) = 0.20735 0.04747
# Poissons Ratio (y) = 0.05618 0.18449
# Poissons Ratio (z) = 0.02934 0.42079
#
# Static dielectric constant tensor:
#      x y z
#    x 1.419810 0.000000 0.321830 
#    y 0.000000 1.809680 0.000000 
#    z 0.321830 0.000000 1.497940 
# 
# From -- ./inp_files/307471.got.cif
#   From: 2010.05.17/outbox.cif.g08.bks.cpg/sg15_154_cif.got.tgz:307471.got - 2010.06.03 18:47:42.
