data_PCOD9291484
_publ_section_title
;
Structure prediction by ZEFSAII (Michael W. Deem and Ramdas Pophale) SiO2 
 PCOD9291484
Probable space group: C 2/C
;
_chemical_formula_sum "Si O2"
_cell_formula_units_Z 48
_cell_length_a 11.120189
_cell_length_b 18.938519
_cell_length_c 11.794515
_cell_angle_alpha 90.000000
_cell_angle_beta 124.369331
_cell_angle_gamma 90.000000
_cell_volume 2050.269937
_symmetry_space_group_name_H-M "C 2/C"
_symmetry_group_IT_number 15
_symmetry_cell_setting 'monoclinic'
loop_
_space_group_symop_operation_xyz
x,y,z
-x,y,1/2-z
-x,-y,-z
x,-y,1/2+z
1/2+x,1/2+y,z
1/2-x,1/2+y,1/2-z
1/2-x,1/2-y,-z
1/2+x,1/2-y,1/2+z
loop_
_atom_site_type_symbol
_atom_site_label
_atom_site_fract_x
_atom_site_fract_y
_atom_site_fract_z
Si Si1 0.162157 0.343846 0.866213
Si Si2 0.873774 0.878003 0.365639
Si Si3 0.914395 0.221014 0.086849
Si Si4 0.936675 0.012437 0.597805
Si Si5 0.831429 0.707772 0.891066
Si Si6 0.669466 0.997219 0.331343
O O1 0.282099 0.285859 0.902136
O O2 0.181145 0.418797 0.813135
O O3 0.000000 0.317218 0.750000
O O4 0.163384 0.346961 0.003137
O O5 0.911112 0.850690 0.510965
O O6 0.791733 0.814724 0.262089
O O7 0.017399 0.905183 0.378979
O O8 0.752911 0.941132 0.297260
O O9 0.000000 0.208683 0.250000
O O10 0.011048 0.281408 0.078373
O O11 0.750000 0.250000 0.000000
O O12 0.767750 0.993689 0.497636
O O13 0.000000 0.983471 0.750000
O O14 0.000000 0.000000 0.500000
O O15 0.500000 0.979889 0.250000
#
# Coordination Sequence:
#
# PCOD9291484 Si02
#       6
#     8   8   8   8   8   8
#     4  10  22  42  68 103 139 177 244 301 367 442
#     4  11  24  42  73 102 139 196 237 301 372 445
#     4  12  26  45  70 104 148 189 248 301 362 446
#     4  10  22  44  71 101 144 190 248 301 372 447
#     4  11  23  43  72 104 136 188 236 307 368 438
#     4  10  23  43  69 103 146 186 240 308 375 435
#
# _framework density 23.411552
#
# number of rings (size 3 to 8) (size 9 to 14) (size 15 to 20)
#    0.000    1.333    1.667    3.000    2.333    6.000 
#    0.000   15.000    0.000    0.000    0.000    0.000 
#    0.000    0.000    0.000    0.000    0.000    0.000 
#
# Total GULP energy -133782.320483 kJ/mol
# GULP energy per Si atom -5574.263353 kJ/mol
# Density = 2.335827 g / cm^3
# Si number density = 23.411552 Si / 1000 Ang^3
#
#
#
# Elastic Constant Matrix: (Units=GPa)
#
#
# Indices 1 2 3 4 5 6 
#
# 1 61.6535 7.7549 65.6793 0.0000 10.1142 0.0000
# 2 7.7549 59.4377 10.5977 0.0000 -14.5410 0.0000
# 3 65.6793 10.5977 168.3606 0.0000 10.0315 0.0000
# 4 0.0000 0.0000 0.0000 29.7435 0.0000 5.4143
# 5 10.1142 -14.5410 10.0315 0.0000 42.6430 0.0000
# 6 0.0000 0.0000 0.0000 5.4143 0.0000 33.1177
#
#
#
# Elastic Compliance Matrix: (Units=1/GPa)
#
#
# Indices 1 2 3 4 5 6 
#
# 1 0.029008 -0.003189 -0.010792 0.000000 -0.005429 0.000000
# 2 -0.003189 0.019114 -0.000398 0.000000 0.007368 0.000000
# 3 -0.010792 -0.000398 0.010173 0.000000 0.000031 0.000000
# 4 0.000000 0.000000 0.000000 0.034652 0.000000 -0.005665
# 5 -0.005429 0.007368 0.000031 0.000000 0.027243 0.000000
# 6 0.000000 0.000000 0.000000 -0.005665 0.000000 0.031122
#
#
# Mechanical properties :
#
#
# Convention : Reuss Voigt Hill
#
# Bulk Modulus (GPa) = 33.85589 50.83505 42.34547
# Shear Modulus (GPa) = 26.32748 34.79551 30.56150
#
# Velocity S-wave (km/s) = 3.35707 3.85938 3.61696
# Velocity P-wave (km/s) = 5.43315 6.45140 5.96405
#
# Compressibility (1/GPa) = 0.02953695
#
# Stress axis : x y z
#
# Youngs Moduli (GPa) = 34.47292 52.31825 98.29891
#
# Poissons Ratio (x) = 0.16682 1.06087
# Poissons Ratio (y) = 0.10992 0.03915
# Poissons Ratio (z) = 0.37204 0.02083
#
# Static dielectric constant tensor:
#      x y z
#    x 1.956100 0.000000 -0.012750 
#    y 0.000000 1.998640 0.000000 
#    z -0.012750 0.000000 1.955560 
# 
# From -- ./inp_files/89792.got.cif
#   From: 2010.05.17/outbox.cif.g08.bks.cpg/sg15_45_cif.got.tgz:89792.got - 2010.06.03 18:47:42.
