data_PCOD9291175
_publ_section_title
;
Structure prediction by ZEFSAII (Michael W. Deem and Ramdas Pophale) SiO2 
 PCOD9291175
Probable space group: C 2/C
;
_chemical_formula_sum "Si O2"
_cell_formula_units_Z 48
_cell_length_a 12.723919
_cell_length_b 15.385775
_cell_length_c 11.422907
_cell_angle_alpha 90.000000
_cell_angle_beta 106.996832
_cell_angle_gamma 90.000000
_cell_volume 2138.555720
_symmetry_space_group_name_H-M "C 2/C"
_symmetry_group_IT_number 15
_symmetry_cell_setting 'monoclinic'
loop_
_space_group_symop_operation_xyz
x,y,z
-x,y,1/2-z
-x,-y,-z
x,-y,1/2+z
1/2+x,1/2+y,z
1/2-x,1/2+y,1/2-z
1/2-x,1/2-y,-z
1/2+x,1/2-y,1/2+z
loop_
_atom_site_type_symbol
_atom_site_label
_atom_site_fract_x
_atom_site_fract_y
_atom_site_fract_z
Si Si1 0.153140 0.683765 0.509983
Si Si2 0.234321 0.862931 0.070024
Si Si3 0.885937 0.441427 0.281189
Si Si4 0.867115 0.188316 0.193084
Si Si5 0.179892 0.620917 0.273137
Si Si6 0.457173 0.712780 0.855445
O O1 0.250000 0.750000 0.500000
O O2 0.146398 0.629066 0.628959
O O3 0.152191 0.616474 0.401686
O O4 0.047542 0.745669 0.468291
O O5 0.294914 0.941205 0.149604
O O6 0.318258 0.781893 0.129465
O O7 0.122699 0.848493 0.102641
O O8 0.192443 0.870626 0.925246
O O9 0.872832 0.541102 0.316520
O O10 0.000000 0.424701 0.250000
O O11 0.805690 0.149829 0.287419
O O12 0.000000 0.189337 0.250000
O O13 0.114278 0.706060 0.210961
O O14 0.500000 0.670786 0.750000
#
# Coordination Sequence:
#
# PCOD9291175 Si02
#       6
#     8   8   8   8   8   8
#     4  11  24  42  68  96 134 178 223 274 335 399
#     4  10  23  37  65  98 125 163 232 271 323 408
#     4  12  26  40  68 101 133 172 222 279 338 397
#     4  10  22  42  65  91 131 173 219 277 330 393
#     4  10  24  42  63  96 136 174 219 277 342 397
#     4   9  19  39  61  92 128 171 216 277 333 388
#
# _framework density 22.445055
#
# number of rings (size 3 to 8) (size 9 to 14) (size 15 to 20)
#    0.000    1.667    0.000    5.000   14.000    1.333 
#    0.000    3.333    0.000    0.000    0.000    0.000 
#    0.000    0.000    0.000    0.000    0.000    0.000 
#
# Total GULP energy -133705.047694 kJ/mol
# GULP energy per Si atom -5571.043654 kJ/mol
# Density = 2.239397 g / cm^3
# Si number density = 22.445055 Si / 1000 Ang^3
#
#
#
# Elastic Constant Matrix: (Units=GPa)
#
#
# Indices 1 2 3 4 5 6 
#
# 1 160.9254 23.5677 39.4411 0.0000 -0.9332 0.0000
# 2 23.5677 31.4636 11.4488 0.0000 -13.5186 0.0000
# 3 39.4411 11.4488 88.8430 0.0000 -0.7313 0.0000
# 4 0.0000 0.0000 0.0000 17.5277 0.0000 -11.8555
# 5 -0.9332 -13.5186 -0.7313 0.0000 28.3343 0.0000
# 6 0.0000 0.0000 0.0000 -11.8555 0.0000 3.1757
#
#
#
# Elastic Compliance Matrix: (Units=1/GPa)
#
#
# Indices 1 2 3 4 5 6 
#
# 1 0.007729 -0.005952 -0.002686 0.000000 -0.002655 0.000000
# 2 -0.005952 0.046910 -0.003221 0.000000 0.022102 0.000000
# 3 -0.002686 -0.003221 0.012853 0.000000 -0.001293 0.000000
# 4 0.000000 0.000000 0.000000 -0.037409 0.000000 -0.139656
# 5 -0.002655 0.022102 -0.001293 0.000000 0.045717 0.000000
# 6 0.000000 0.000000 0.000000 -0.139656 0.000000 -0.206474
#
#
# Mechanical properties :
#
#
# Convention : Reuss Voigt Hill
#
# Bulk Modulus (GPa) = 22.84509 47.79415 35.31962
# Shear Modulus (GPa) = -54.13242 23.59248 -15.26997
#
# Velocity S-wave (km/s) = -4.91631 3.24562 -2.61114
# Velocity P-wave (km/s) = 4.69324 5.94857 2.58447
#
# Compressibility (1/GPa) = 0.04377309
#
# Stress axis : x y z
#
# Youngs Moduli (GPa) = 129.38797 21.31756 77.80559
#
# Poissons Ratio (x) = 0.12689 0.20898
# Poissons Ratio (y) = 0.77018 0.25058
# Poissons Ratio (z) = 0.34752 0.06865
#
# Static dielectric constant tensor:
#      x y z
#    x 1.928450 0.000000 -0.065760 
#    y 0.000000 1.932910 0.000000 
#    z -0.065760 0.000000 2.268430 
# 
# From -- ./inp_files/87475.got.cif
#   From: 2010.05.17/outbox.cif.g08.bks.cpg/sg15_44_cif.got.tgz:87475.got - 2010.06.03 18:47:42.
