data_PCOD9291396
_publ_section_title
;
Structure prediction by ZEFSAII (Michael W. Deem and Ramdas Pophale) SiO2 
 PCOD9291396
Probable space group: C 2/C
;
_chemical_formula_sum "Si O2"
_cell_formula_units_Z 64
_cell_length_a 24.733777
_cell_length_b 9.670168
_cell_length_c 11.676862
_cell_angle_alpha 90.000000
_cell_angle_beta 91.879414
_cell_angle_gamma 90.000000
_cell_volume 2791.366886
_symmetry_space_group_name_H-M "C 2/C"
_symmetry_group_IT_number 15
_symmetry_cell_setting 'monoclinic'
loop_
_space_group_symop_operation_xyz
x,y,z
-x,y,1/2-z
-x,-y,-z
x,-y,1/2+z
1/2+x,1/2+y,z
1/2-x,1/2+y,1/2-z
1/2-x,1/2-y,-z
1/2+x,1/2-y,1/2+z
loop_
_atom_site_type_symbol
_atom_site_label
_atom_site_fract_x
_atom_site_fract_y
_atom_site_fract_z
Si Si1 0.016865 0.427677 0.123110
Si Si2 0.083657 0.263612 0.415486
Si Si3 0.878408 0.926148 0.386002
Si Si4 0.780594 0.280808 0.231611
Si Si5 0.717905 0.450892 0.963893
Si Si6 0.113371 0.770498 0.662517
Si Si7 0.664735 0.702747 0.832113
Si Si8 0.670129 0.998347 0.919733
O O1 0.077592 0.364467 0.130456
O O2 0.000000 0.491333 0.250000
O O3 0.977822 0.296542 0.114730
O O4 0.000000 0.500000 0.000000
O O5 0.090020 0.164584 0.521477
O O6 0.105636 0.206262 0.297994
O O7 0.119898 0.400657 0.442627
O O8 0.878265 0.854661 0.261978
O O9 0.815367 0.918777 0.423023
O O10 0.899647 0.082558 0.392995
O O11 0.821974 0.245909 0.337107
O O12 0.720965 0.262610 0.273363
O O13 0.801178 0.430714 0.189765
O O14 0.784514 0.179279 0.121731
O O15 0.682921 0.574980 0.910308
O O16 0.779964 0.492996 0.988515
O O17 0.649572 0.843851 0.895165
#
# Coordination Sequence:
#
# PCOD9291396 Si02
#       8
#     8   8   8   8   8   8   8   8
#     4  10  24  47  74 101 137 177 229 295 357 409
#     4  10  23  42  66  92 130 172 217 284 352 404
#     4  12  21  40  64  89 130 175 217 274 334 414
#     4  11  20  40  60  86 131 179 222 268 342 411
#     4  12  22  40  57  89 133 172 222 271 332 407
#     4  10  22  42  67  91 126 177 222 276 349 411
#     4  12  24  35  59  95 130 176 227 269 327 414
#     4  11  22  37  59  90 131 176 221 275 341 407
#
# _framework density 22.927834000000001
#
# number of rings (size 3 to 8) (size 9 to 14) (size 15 to 20)
#    0.000    1.000    5.000    3.000    0.000    5.500 
#    0.000    1.250    0.000    0.000    0.000    0.000 
#    0.000    0.000    0.000    0.000    0.000    0.000 
#
# Total GULP energy -178687.504654 kJ/mol
# GULP energy per Si atom -5583.984520 kJ/mol
# Density = 2.287565 g / cm^3
# Si number density = 22.927834 Si / 1000 Ang^3
#
#
#
# Elastic Constant Matrix: (Units=GPa)
#
#
# Indices 1 2 3 4 5 6 
#
# 1 27.4827 -4.3163 10.4226 0.0000 6.6558 0.0000
# 2 -4.3163 88.9280 39.0758 0.0000 3.5459 0.0000
# 3 10.4226 39.0758 104.9644 0.0000 18.4038 0.0000
# 4 0.0000 0.0000 0.0000 31.7960 0.0000 5.3552
# 5 6.6558 3.5459 18.4038 0.0000 28.6202 0.0000
# 6 0.0000 0.0000 0.0000 5.3552 0.0000 19.6940
#
#
#
# Elastic Compliance Matrix: (Units=1/GPa)
#
#
# Indices 1 2 3 4 5 6 
#
# 1 0.040396 0.004134 -0.004298 0.000000 -0.007143 0.000000
# 2 0.004134 0.013946 -0.005783 0.000000 0.001029 0.000000
# 3 -0.004298 -0.005783 0.013306 0.000000 -0.006840 0.000000
# 4 0.000000 0.000000 0.000000 0.032960 0.000000 -0.008963
# 5 -0.007143 0.001029 -0.006840 0.000000 0.040872 0.000000
# 6 0.000000 0.000000 0.000000 -0.008963 0.000000 0.053214
#
#
# Mechanical properties :
#
#
# Convention : Reuss Voigt Hill
#
# Bulk Modulus (GPa) = 17.93584 34.63771 26.28677
# Shear Modulus (GPa) = 22.20537 27.76825 24.98681
#
# Velocity S-wave (km/s) = 3.11543 3.48388 3.30480
# Velocity P-wave (km/s) = 4.55861 5.59672 5.10413
#
# Compressibility (1/GPa) = 0.05575428
#
# Stress axis : x y z
#
# Youngs Moduli (GPa) = 24.75517 71.70733 75.15505
#
# Poissons Ratio (x) = -0.29644 0.32300
# Poissons Ratio (y) = -0.10234 0.43459
# Poissons Ratio (z) = 0.10639 0.41465
#
# Static dielectric constant tensor:
#      x y z
#    x 1.885020 0.000000 -0.040820 
#    y 0.000000 1.873330 0.000000 
#    z -0.040820 0.000000 1.979340 
# 
# From -- ./inp_files/125934.got.cif
#   From: 2010.05.17/outbox.cif.g08.bks.cpg/sg15_63_cif.got.tgz:125934.got - 2010.06.03 18:47:42.
