data_PCOD9291903
_publ_section_title
;
Structure prediction by ZEFSAII (Michael W. Deem and Ramdas Pophale) SiO2 
 PCOD9291903
Probable space group: C 2/C
;
_chemical_formula_sum "Si O2"
_cell_formula_units_Z 52
_cell_length_a 21.658354
_cell_length_b 23.630454
_cell_length_c 5.976028
_cell_angle_alpha 90.000000
_cell_angle_beta 45.194086
_cell_angle_gamma 90.000000
_cell_volume 2170.007893
_symmetry_space_group_name_H-M "C 2/C"
_symmetry_group_IT_number 15
_symmetry_cell_setting 'monoclinic'
loop_
_space_group_symop_operation_xyz
x,y,z
-x,y,1/2-z
-x,-y,-z
x,-y,1/2+z
1/2+x,1/2+y,z
1/2-x,1/2+y,1/2-z
1/2-x,1/2-y,-z
1/2+x,1/2-y,1/2+z
loop_
_atom_site_type_symbol
_atom_site_label
_atom_site_fract_x
_atom_site_fract_y
_atom_site_fract_z
Si Si1 0.331698 0.775885 0.666841
Si Si2 0.086907 0.696826 0.135301
Si Si3 0.000000 0.121209 0.250000
Si Si4 0.905165 0.813873 0.642989
Si Si5 0.769487 0.631470 0.987559
Si Si6 0.661611 0.994858 0.154049
Si Si7 0.147700 0.028600 0.833788
O O1 0.411265 0.798815 0.607345
O O2 0.365422 0.723509 0.442130
O O3 0.297292 0.828544 0.618133
O O4 0.250000 0.750000 0.000000
O O5 0.000000 0.671999 0.250000
O O6 0.091153 0.762470 0.044464
O O7 0.172329 0.661269 0.853720
O O8 0.013079 0.156344 0.447467
O O9 0.914274 0.082962 0.499314
O O10 0.833517 0.860803 0.769611
O O11 0.797586 0.567766 0.945819
O O12 0.618405 0.999648 0.014507
O O13 0.747149 0.035867 0.933192
O O14 0.130027 0.001097 0.627435
#
# Coordination Sequence:
#
# PCOD9291903 Si02
#       7
#     8   8   4   8   8   8   8
#     4  11  20  39  66  94 131 176 224 279 331 412
#     4  11  23  42  63  96 134 170 219 284 339 411
#     4  12  24  38  62  92 142 188 218 272 340 400
#     4  11  22  40  56 100 131 178 231 261 329 418
#     4  11  23  39  69  92 129 180 226 277 348 401
#     4  10  23  42  66  99 130 169 235 288 333 407
#     4  10  22  43  60  88 135 182 232 279 321 388
#
# _framework density 23.963047
#
# number of rings (size 3 to 8) (size 9 to 14) (size 15 to 20)
#    0.000    1.231    3.077    4.154    2.154    4.308 
#   13.846    0.000    0.000    0.923    0.000    0.000 
#    0.000    0.000    0.000    0.000    0.000    0.000 
#
# Total GULP energy -145006.078537 kJ/mol
# GULP energy per Si atom -5577.156867 kJ/mol
# Density = 2.390851 g / cm^3
# Si number density = 23.963047 Si / 1000 Ang^3
#
#
#
# Elastic Constant Matrix: (Units=GPa)
#
#
# Indices 1 2 3 4 5 6 
#
# 1 168.3289 30.2899 28.8368 0.0000 37.6283 0.0000
# 2 30.2899 56.7659 9.6332 0.0000 13.7813 0.0000
# 3 28.8368 9.6332 76.3121 0.0000 22.1826 0.0000
# 4 0.0000 0.0000 0.0000 21.1095 0.0000 11.7642
# 5 37.6283 13.7813 22.1826 0.0000 42.1873 0.0000
# 6 0.0000 0.0000 0.0000 11.7642 0.0000 46.2865
#
#
#
# Elastic Compliance Matrix: (Units=1/GPa)
#
#
# Indices 1 2 3 4 5 6 
#
# 1 0.007842 -0.002655 -0.001000 0.000000 -0.005601 0.000000
# 2 -0.002655 0.020065 -0.000369 0.000000 -0.003993 0.000000
# 3 -0.001000 -0.000369 0.015622 0.000000 -0.007202 0.000000
# 4 0.000000 0.000000 0.000000 0.055189 0.000000 -0.014027
# 5 -0.005601 -0.003993 -0.007202 0.000000 0.033791 0.000000
# 6 0.000000 0.000000 0.000000 -0.014027 0.000000 0.025170
#
#
# Mechanical properties :
#
#
# Convention : Reuss Voigt Hill
#
# Bulk Modulus (GPa) = 28.18414 48.76963 38.47689
# Shear Modulus (GPa) = 28.16055 37.42644 32.79349
#
# Velocity S-wave (km/s) = 3.43179 3.95630 3.70334
# Velocity P-wave (km/s) = 5.24308 6.42386 5.86327
#
# Compressibility (1/GPa) = 0.03548094
#
# Stress axis : x y z
#
# Youngs Moduli (GPa) = 127.51966 49.83865 64.01246
#
# Poissons Ratio (x) = 0.13231 0.06401
# Poissons Ratio (y) = 0.33854 0.02363
# Poissons Ratio (z) = 0.12751 0.01840
#
# Static dielectric constant tensor:
#      x y z
#    x 1.951350 0.000000 0.011020 
#    y 0.000000 1.838200 0.000000 
#    z 0.011020 0.000000 1.852760 
# 
# From -- ./inp_files/13858.got.cif
#   From: 2010.05.17/outbox.cif.g08.bks.cpg/sg15_7_cif.got.tgz:13858.got - 2010.06.03 18:47:42.
