data_PCOD9291961
_publ_section_title
;
Structure prediction by ZEFSAII (Michael W. Deem and Ramdas Pophale) SiO2 
 PCOD9291961
Probable space group: C 2/C
;
_chemical_formula_sum "Si O2"
_cell_formula_units_Z 36
_cell_length_a 6.613035
_cell_length_b 21.684251
_cell_length_c 11.935286
_cell_angle_alpha 90.000000
_cell_angle_beta 88.725440
_cell_angle_gamma 90.000000
_cell_volume 1711.081172
_symmetry_space_group_name_H-M "C 2/C"
_symmetry_group_IT_number 15
_symmetry_cell_setting 'monoclinic'
loop_
_space_group_symop_operation_xyz
x,y,z
-x,y,1/2-z
-x,-y,-z
x,-y,1/2+z
1/2+x,1/2+y,z
1/2-x,1/2+y,1/2-z
1/2-x,1/2-y,-z
1/2+x,1/2-y,1/2+z
loop_
_atom_site_type_symbol
_atom_site_label
_atom_site_fract_x
_atom_site_fract_y
_atom_site_fract_z
Si Si1 0.819477 0.852888 0.677969
Si Si2 0.807514 0.464334 0.953649
Si Si3 0.420203 0.300438 0.024941
Si Si4 0.500000 0.237332 0.250000
Si Si5 0.547949 0.425621 0.376533
O O1 0.673539 0.903734 0.623949
O O2 0.693317 0.806892 0.756518
O O3 0.000000 0.881768 0.750000
O O4 0.925418 0.813329 0.577942
O O5 0.686419 0.514511 0.882750
O O6 0.658385 0.442030 0.055004
O O7 0.000000 0.500000 0.000000
O O8 0.525358 0.276249 0.137103
O O9 0.344861 0.368848 0.060360
O O10 0.250000 0.250000 0.000000
O O11 0.500000 0.409529 0.250000
#
# Coordination Sequence:
#
# PCOD9291961 Si02
#       5
#     8   8   8   4   8
#     4  11  24  42  67  97 132 175 219 275 326 396
#     4  10  24  41  65  95 125 166 221 269 325 388
#     4  11  23  43  66  97 132 171 220 267 331 393
#     4  12  24  42  70  92 136 176 214 270 332 396
#     4  10  22  43  64  90 131 167 210 273 324 380
#
# _framework density 21.03933
#
# number of rings (size 3 to 8) (size 9 to 14) (size 15 to 20)
#    0.000    1.333    3.333    1.333    3.111    4.444 
#    0.000    2.222    0.000    0.000    0.000    0.000 
#    0.000    0.000    0.000    0.000    0.000    0.000 
#
# Total GULP energy -100499.813644 kJ/mol
# GULP energy per Si atom -5583.322980 kJ/mol
# Density = 2.099144 g / cm^3
# Si number density = 21.039330 Si / 1000 Ang^3
#
#
#
# Elastic Constant Matrix: (Units=GPa)
#
#
# Indices 1 2 3 4 5 6 
#
# 1 45.0147 36.0555 26.3283 0.0000 9.7031 0.0000
# 2 36.0555 116.4767 32.9894 0.0000 -7.2113 0.0000
# 3 26.3283 32.9894 90.6708 0.0000 3.9384 0.0000
# 4 0.0000 0.0000 0.0000 14.8083 0.0000 9.6444
# 5 9.7031 -7.2113 3.9384 0.0000 22.4850 0.0000
# 6 0.0000 0.0000 0.0000 9.6444 0.0000 32.2364
#
#
#
# Elastic Compliance Matrix: (Units=1/GPa)
#
#
# Indices 1 2 3 4 5 6 
#
# 1 0.039511 -0.011640 -0.006384 0.000000 -0.019665 0.000000
# 2 -0.011640 0.013318 -0.001884 0.000000 0.009624 0.000000
# 3 -0.006384 -0.001884 0.013578 0.000000 -0.000228 0.000000
# 4 0.000000 0.000000 0.000000 0.083872 0.000000 -0.025093
# 5 -0.019665 0.009624 -0.000228 0.000000 0.056087 0.000000
# 6 0.000000 0.000000 0.000000 -0.025093 0.000000 0.038528
#
#
# Mechanical properties :
#
#
# Convention : Reuss Voigt Hill
#
# Bulk Modulus (GPa) = 37.60537 49.21208 43.40872
# Shear Modulus (GPa) = 17.03155 24.35855 20.69505
#
# Velocity S-wave (km/s) = 2.84828 3.40628 3.13970
# Velocity P-wave (km/s) = 5.36000 6.23792 5.81555
#
# Compressibility (1/GPa) = 0.02659195
#
# Stress axis : x y z
#
# Youngs Moduli (GPa) = 25.30937 75.08613 73.64995
#
# Poissons Ratio (x) = 0.87402 0.47015
# Poissons Ratio (y) = 0.29461 0.13873
# Poissons Ratio (z) = 0.16156 0.14144
#
# Static dielectric constant tensor:
#      x y z
#    x 1.745840 0.000000 0.009610 
#    y 0.000000 1.757090 0.000000 
#    z 0.009610 0.000000 1.736470 
# 
# From -- ./inp_files/72583.got.cif
#   From: 2010.05.17/outbox.cif.g08.bks.cpg/sg15_37_cif.got.tgz:72583.got - 2010.06.03 18:47:42.
