data_PCOD9291240
_publ_section_title
;
Structure prediction by ZEFSAII (Michael W. Deem and Ramdas Pophale) SiO2 
 PCOD9291240
Probable space group: C 2/C
;
_chemical_formula_sum "Si O2"
_cell_formula_units_Z 40
_cell_length_a 29.864263
_cell_length_b 9.370943
_cell_length_c 8.655314
_cell_angle_alpha 90.000000
_cell_angle_beta 135.563399
_cell_angle_gamma 90.000000
_cell_volume 1695.860665
_symmetry_space_group_name_H-M "C 2/C"
_symmetry_group_IT_number 15
_symmetry_cell_setting 'monoclinic'
loop_
_space_group_symop_operation_xyz
x,y,z
-x,y,1/2-z
-x,-y,-z
x,-y,1/2+z
1/2+x,1/2+y,z
1/2-x,1/2+y,1/2-z
1/2-x,1/2-y,-z
1/2+x,1/2-y,1/2+z
loop_
_atom_site_type_symbol
_atom_site_label
_atom_site_fract_x
_atom_site_fract_y
_atom_site_fract_z
Si Si1 0.748860 0.062373 0.541281
Si Si2 0.786751 0.302736 0.846593
Si Si3 0.891460 0.855242 0.280316
Si Si4 0.982165 0.651467 0.383912
Si Si5 0.919108 0.150910 0.198822
O O1 0.744683 0.171608 0.676181
O O2 0.702729 0.102935 0.285018
O O3 0.818769 0.098731 0.642551
O O4 0.742520 0.905586 0.596120
O O5 0.852028 0.232238 0.065338
O O6 0.924788 0.844818 0.528856
O O7 0.910360 0.709390 0.239454
O O8 0.915990 0.987365 0.241015
O O9 0.027243 0.767208 0.576382
O O10 0.000000 0.647178 0.250000
O O11 0.000000 0.500000 0.500000
#
# Coordination Sequence:
#
# PCOD9291240 Si02
#       5
#     8   8   8   8   8
#     4  10  22  42  66 100 143 184 232 286 345 419
#     4  10  23  40  64  98 136 182 232 286 346 410
#     4  11  23  44  69  98 138 185 235 284 345 415
#     4  12  27  47  71 101 136 175 228 292 355 417
#     4  11  24  43  69  99 136 183 234 288 344 415
#
# _framework density 23.586845
#
# number of rings (size 3 to 8) (size 9 to 14) (size 15 to 20)
#    0.000    1.200    0.000    6.000    0.000    9.600 
#    0.000    0.000    0.000    0.000    0.000    0.000 
#    0.000    0.000    0.000    0.000    0.000    0.000 
#
# Total GULP energy -111882.688262 kJ/mol
# GULP energy per Si atom -5594.134413 kJ/mol
# Density = 2.353316 g / cm^3
# Si number density = 23.586845 Si / 1000 Ang^3
#
#
#
# Elastic Constant Matrix: (Units=GPa)
#
#
# Indices 1 2 3 4 5 6 
#
# 1 121.9600 74.0420 40.5548 0.0000 -12.5400 0.0000
# 2 74.0420 150.8530 15.3083 0.0000 -6.4054 0.0000
# 3 40.5548 15.3083 68.5686 0.0000 1.9423 0.0000
# 4 0.0000 0.0000 0.0000 40.6100 0.0000 -21.1714
# 5 -12.5400 -6.4054 1.9423 0.0000 38.9115 0.0000
# 6 0.0000 0.0000 0.0000 -21.1714 0.0000 19.4232
#
#
#
# Elastic Compliance Matrix: (Units=1/GPa)
#
#
# Indices 1 2 3 4 5 6 
#
# 1 0.015067 -0.006448 -0.007590 0.000000 0.004173 0.000000
# 2 -0.006448 0.009598 0.001687 0.000000 -0.000582 0.000000
# 3 -0.007590 0.001687 0.018784 0.000000 -0.003106 0.000000
# 4 0.000000 0.000000 0.000000 0.057035 0.000000 0.062169
# 5 0.004173 -0.000582 -0.003106 0.000000 0.027103 0.000000
# 6 0.000000 0.000000 0.000000 0.062169 0.000000 0.119249
#
#
# Mechanical properties :
#
#
# Convention : Reuss Voigt Hill
#
# Bulk Modulus (GPa) = 53.33917 66.79908 60.06913
# Shear Modulus (GPa) = 17.99945 33.88738 25.94342
#
# Velocity S-wave (km/s) = 2.76545 3.79450 3.32009
# Velocity P-wave (km/s) = 5.73236 6.89780 6.34191
#
# Compressibility (1/GPa) = 0.01874795
#
# Stress axis : x y z
#
# Youngs Moduli (GPa) = 66.37158 104.19181 53.23607
#
# Poissons Ratio (x) = 0.67179 0.40406
# Poissons Ratio (y) = 0.42794 -0.08982
# Poissons Ratio (z) = 0.50375 -0.17579
#
# Static dielectric constant tensor:
#      x y z
#    x 1.971420 0.000000 0.077010 
#    y 0.000000 1.886340 0.000000 
#    z 0.077010 0.000000 1.897110 
# 
# From -- ./inp_files/68443.got.cif
#   From: 2010.05.17/outbox.cif.g08.bks.cpg/sg15_35_cif.got.tgz:68443.got - 2010.06.03 18:47:42.
