data_PCOD9291759
_publ_section_title
;
Structure prediction by ZEFSAII (Michael W. Deem and Ramdas Pophale) SiO2 
 PCOD9291759
Probable space group: C 2/C
;
_chemical_formula_sum "Si O2"
_cell_formula_units_Z 48
_cell_length_a 27.673106
_cell_length_b 5.091425
_cell_length_c 12.974096
_cell_angle_alpha 90.000000
_cell_angle_beta 94.672788
_cell_angle_gamma 90.000000
_cell_volume 1821.916411
_symmetry_space_group_name_H-M "C 2/C"
_symmetry_group_IT_number 15
_symmetry_cell_setting 'monoclinic'
loop_
_space_group_symop_operation_xyz
x,y,z
-x,y,1/2-z
-x,-y,-z
x,-y,1/2+z
1/2+x,1/2+y,z
1/2-x,1/2+y,1/2-z
1/2-x,1/2-y,-z
1/2+x,1/2-y,1/2+z
loop_
_atom_site_type_symbol
_atom_site_label
_atom_site_fract_x
_atom_site_fract_y
_atom_site_fract_z
Si Si1 0.188299 0.307202 0.269508
Si Si2 0.874607 0.007693 0.499660
Si Si3 0.563600 0.437515 0.662314
Si Si4 0.599141 0.145092 0.312575
Si Si5 0.538514 0.230535 0.887358
Si Si6 0.709350 0.695244 0.640668
O O1 0.137333 0.408511 0.303961
O O2 0.233078 0.344545 0.356556
O O3 0.192173 0.012721 0.226255
O O4 0.200069 0.511730 0.179207
O O5 0.893689 0.168990 0.403344
O O6 0.872243 0.167120 0.604163
O O7 0.824794 0.872158 0.460784
O O8 0.920916 0.817517 0.524916
O O9 0.582071 0.727649 0.701888
O O10 0.552589 0.333116 0.775556
O O11 0.513972 0.343336 0.599366
O O12 0.549546 0.074946 0.367185
#
# Coordination Sequence:
#
# PCOD9291759 Si02
#       6
#     8   8   8   8   8   8
#     4  10  22  43  71 100 137 184 229 278 344 414
#     4  11  23  39  65  98 135 173 228 280 343 405
#     4  10  22  44  63  88 135 174 222 281 337 408
#     4  11  24  40  67  97 133 181 229 284 340 412
#     4  10  24  39  64  97 126 175 229 279 340 403
#     4  10  22  42  71 102 136 184 227 279 348 406
#
# _framework density 26.345884999999999
#
# number of rings (size 3 to 8) (size 9 to 14) (size 15 to 20)
#    0.000    1.667    1.667    1.500    4.667    8.000 
#    0.000    0.833    0.000    3.000    0.000    0.000 
#    0.000    0.000    0.000    0.000    0.000    0.000 
#
# Total GULP energy -134030.088547 kJ/mol
# GULP energy per Si atom -5584.587023 kJ/mol
# Density = 2.628592 g / cm^3
# Si number density = 26.345885 Si / 1000 Ang^3
#
#
#
# Elastic Constant Matrix: (Units=GPa)
#
#
# Indices 1 2 3 4 5 6 
#
# 1 181.1026 23.8175 49.0590 0.0000 27.2143 0.0000
# 2 23.8175 58.6312 21.6469 0.0000 -3.0303 0.0000
# 3 49.0590 21.6469 115.1591 0.0000 19.9062 0.0000
# 4 0.0000 0.0000 0.0000 26.2367 0.0000 -11.2429
# 5 27.2143 -3.0303 19.9062 0.0000 57.9952 0.0000
# 6 0.0000 0.0000 0.0000 -11.2429 0.0000 26.2973
#
#
#
# Elastic Compliance Matrix: (Units=1/GPa)
#
#
# Indices 1 2 3 4 5 6 
#
# 1 0.006737 -0.002122 -0.002026 0.000000 -0.002577 0.000000
# 2 -0.002122 0.019283 -0.003260 0.000000 0.003122 0.000000
# 3 -0.002026 -0.003260 0.010657 0.000000 -0.002878 0.000000
# 4 0.000000 0.000000 0.000000 0.046664 0.000000 0.019950
# 5 -0.002577 0.003122 -0.002878 0.000000 0.019603 0.000000
# 6 0.000000 0.000000 0.000000 0.019950 0.000000 0.046556
#
#
# Mechanical properties :
#
#
# Convention : Reuss Voigt Hill
#
# Bulk Modulus (GPa) = 45.74459 60.43774 53.09117
# Shear Modulus (GPa) = 29.13724 39.46381 34.30052
#
# Velocity S-wave (km/s) = 3.32919 3.87449 3.61214
# Velocity P-wave (km/s) = 5.67264 6.55785 6.13124
#
# Compressibility (1/GPa) = 0.02186051
#
# Stress axis : x y z
#
# Youngs Moduli (GPa) = 148.43978 51.85938 93.83598
#
# Poissons Ratio (x) = 0.11004 0.19008
# Poissons Ratio (y) = 0.31498 0.30595
# Poissons Ratio (z) = 0.30068 0.16908
#
# Static dielectric constant tensor:
#      x y z
#    x 2.068710 0.000000 -0.026190 
#    y 0.000000 2.322870 0.000000 
#    z -0.026190 0.000000 2.198590 
# 
# From -- ./inp_files/179748.got.cif
#   From: 2010.05.17/outbox.cif.g08.bks.cpg/sg15_90_cif.got.tgz:179748.got - 2010.06.03 18:47:42.
