data_PCOD9291872
_publ_section_title
;
Structure prediction by ZEFSAII (Michael W. Deem and Ramdas Pophale) SiO2 
 PCOD9291872
Probable space group: C 2/C
;
_chemical_formula_sum "Si O2"
_cell_formula_units_Z 44
_cell_length_a 11.378643
_cell_length_b 10.756690
_cell_length_c 16.494085
_cell_angle_alpha 90.000000
_cell_angle_beta 107.154355
_cell_angle_gamma 90.000000
_cell_volume 1929.008948
_symmetry_space_group_name_H-M "C 2/C"
_symmetry_group_IT_number 15
_symmetry_cell_setting 'monoclinic'
loop_
_space_group_symop_operation_xyz
x,y,z
-x,y,1/2-z
-x,-y,-z
x,-y,1/2+z
1/2+x,1/2+y,z
1/2-x,1/2+y,1/2-z
1/2-x,1/2-y,-z
1/2+x,1/2-y,1/2+z
loop_
_atom_site_type_symbol
_atom_site_label
_atom_site_fract_x
_atom_site_fract_y
_atom_site_fract_z
Si Si1 0.000000 0.944635 0.750000
Si Si2 0.492835 0.002620 0.156902
Si Si3 0.786918 0.382724 0.039770
Si Si4 0.647077 0.253282 0.408607
Si Si5 0.058278 0.071284 0.588929
Si Si6 0.760022 0.998315 0.638147
O O1 0.038476 0.008934 0.672171
O O2 0.136511 0.903615 0.806195
O O3 0.500000 0.959529 0.250000
O O4 0.428726 0.898070 0.089342
O O5 0.629638 0.025084 0.152695
O O6 0.398204 0.120196 0.133966
O O7 0.700608 0.410760 0.098634
O O8 0.750000 0.250000 0.000000
O O9 0.754527 0.474836 0.960167
O O10 0.750000 0.250000 0.500000
O O11 0.521004 0.304230 0.421783
O O12 0.692394 0.356724 0.351122
O O13 0.000000 0.000000 0.500000
#
# Coordination Sequence:
#
# PCOD9291872 Si02
#       6
#     4   8   8   8   8   8
#     4  10  22  42  74 106 146 192 254 310 376 468
#     4  12  27  49  72 113 156 198 261 326 392 473
#     4  12  25  46  72 106 149 200 251 320 390 460
#     4  11  23  42  77 103 142 202 244 311 387 459
#     4  11  21  42  69 104 144 191 247 304 380 459
#     4  11  24  46  73 107 149 192 259 313 382 472
#
# _framework density 22.809640000000002
#
# number of rings (size 3 to 8) (size 9 to 14) (size 15 to 20)
#    0.000    0.727    5.455    2.727    7.636    0.000 
#    4.909    0.000    0.000    0.000    0.000    0.000 
#    0.000    0.000    0.000    0.000    0.000    0.000 
#
# Total GULP energy -122703.635880 kJ/mol
# GULP energy per Si atom -5577.437995 kJ/mol
# Density = 2.275772 g / cm^3
# Si number density = 22.809640 Si / 1000 Ang^3
#
#
#
# Elastic Constant Matrix: (Units=GPa)
#
#
# Indices 1 2 3 4 5 6 
#
# 1 153.1417 1.5945 24.8359 0.0000 10.4252 0.0000
# 2 1.5945 64.2203 -1.8820 0.0000 0.9764 0.0000
# 3 24.8359 -1.8820 105.8063 0.0000 6.5444 0.0000
# 4 0.0000 0.0000 0.0000 -0.8793 0.0000 -1.9241
# 5 10.4252 0.9764 6.5444 0.0000 50.5893 0.0000
# 6 0.0000 0.0000 0.0000 -1.9241 0.0000 29.9346
#
#
#
# Elastic Compliance Matrix: (Units=1/GPa)
#
#
# Indices 1 2 3 4 5 6 
#
# 1 0.006864 -0.000197 -0.001540 0.000000 -0.001212 0.000000
# 2 -0.000197 0.015591 0.000342 0.000000 -0.000305 0.000000
# 3 -0.001540 0.000342 0.009879 0.000000 -0.000967 0.000000
# 4 0.000000 0.000000 0.000000 -0.997007 0.000000 -0.064083
# 5 -0.001212 -0.000305 -0.000967 0.000000 0.020148 0.000000
# 6 0.000000 0.000000 0.000000 -0.064083 0.000000 0.029287
#
#
# Mechanical properties :
#
#
# Convention : Reuss Voigt Hill
#
# Bulk Modulus (GPa) = 33.84702 41.36281 37.60492
# Shear Modulus (GPa) = -5.53954 35.83691 15.14868
#
# Velocity S-wave (km/s) = -1.56009 3.96805 2.57988
# Velocity P-wave (km/s) = 3.40969 6.25837 5.03950
#
# Compressibility (1/GPa) = 0.02954470
#
# Stress axis : x y z
#
# Youngs Moduli (GPa) = 145.68458 64.13970 101.22908
#
# Poissons Ratio (x) = 0.01264 0.15587
# Poissons Ratio (y) = 0.02872 -0.03466
# Poissons Ratio (z) = 0.22432 -0.02196
#
# Static dielectric constant tensor:
#      x y z
#    x 1.845830 0.000000 0.035760 
#    y 0.000000 1.976270 0.000000 
#    z 0.035760 0.000000 1.805690 
# 
# From -- ./inp_files/196285.got.cif
#   From: 2010.05.17/outbox.cif.g08.bks.cpg/sg15_99_cif.got.tgz:196285.got - 2010.06.03 18:47:42.
