data_PCOD9291553
_publ_section_title
;
Structure prediction by ZEFSAII (Michael W. Deem and Ramdas Pophale) SiO2 
 PCOD9291553
Probable space group: C 2/C
;
_chemical_formula_sum "Si O2"
_cell_formula_units_Z 44
_cell_length_a 30.160803
_cell_length_b 10.123680
_cell_length_c 9.761511
_cell_angle_alpha 90.000000
_cell_angle_beta 37.295947
_cell_angle_gamma 90.000000
_cell_volume 1806.019095
_symmetry_space_group_name_H-M "C 2/C"
_symmetry_group_IT_number 15
_symmetry_cell_setting 'monoclinic'
loop_
_space_group_symop_operation_xyz
x,y,z
-x,y,1/2-z
-x,-y,-z
x,-y,1/2+z
1/2+x,1/2+y,z
1/2-x,1/2+y,1/2-z
1/2-x,1/2-y,-z
1/2+x,1/2-y,1/2+z
loop_
_atom_site_type_symbol
_atom_site_label
_atom_site_fract_x
_atom_site_fract_y
_atom_site_fract_z
Si Si1 0.500000 0.223716 0.750000
Si Si2 0.355355 0.679543 0.193009
Si Si3 0.250808 0.285029 0.707527
Si Si4 0.000000 0.500000 0.500000
Si Si5 0.854638 0.129718 0.711115
Si Si6 0.500000 0.791629 0.750000
Si Si7 0.622218 0.102567 0.636390
O O1 0.565178 0.310293 0.523392
O O2 0.541535 0.129589 0.760086
O O3 0.289610 0.724357 0.257719
O O4 0.354046 0.526467 0.232386
O O5 0.361555 0.772498 0.309514
O O6 0.428796 0.702248 0.926486
O O7 0.199587 0.166420 0.781346
O O8 0.313712 0.690066 0.942473
O O9 0.190451 0.404571 0.868382
O O10 0.998679 0.616625 0.385218
O O11 0.906048 0.479824 0.709618
#
# Coordination Sequence:
#
# PCOD9291553 Si02
#       7
#     4   8   8   4   8   4   8
#     4  10  22  42  68  96 138 174 238 278 362 434
#     4  11  24  43  71 104 137 181 245 294 352 435
#     4  10  24  45  65 102 143 186 239 283 375 424
#     4  10  22  44  66  98 142 182 232 296 346 422
#     4  10  24  44  70 100 140 188 226 306 357 426
#     4  10  24  44  72 110 138 190 244 288 370 424
#     4  10  23  44  67 101 135 188 235 289 354 429
#
# _framework density 24.362974999999999
#
# number of rings (size 3 to 8) (size 9 to 14) (size 15 to 20)
#    0.000    1.818    0.000    1.636   10.182    2.182 
#   16.364    0.000    0.000    0.000    0.000    0.000 
#    0.000    0.000    0.000    0.000    0.000    0.000 
#
# Total GULP energy -122656.472442 kJ/mol
# GULP energy per Si atom -5575.294202 kJ/mol
# Density = 2.430752 g / cm^3
# Si number density = 24.362975 Si / 1000 Ang^3
#
#
#
# Elastic Constant Matrix: (Units=GPa)
#
#
# Indices 1 2 3 4 5 6 
#
# 1 125.0801 30.3059 38.3162 0.0000 -15.4663 0.0000
# 2 30.3059 83.0064 37.1104 0.0000 -17.9372 0.0000
# 3 38.3162 37.1104 189.2954 0.0000 -23.2459 0.0000
# 4 0.0000 0.0000 0.0000 -57.0833 0.0000 -19.3656
# 5 -15.4663 -17.9372 -23.2459 0.0000 44.3112 0.0000
# 6 0.0000 0.0000 0.0000 -19.3656 0.0000 20.5987
#
#
#
# Elastic Compliance Matrix: (Units=1/GPa)
#
#
# Indices 1 2 3 4 5 6 
#
# 1 0.009149 -0.002475 -0.001173 0.000000 0.001576 0.000000
# 2 -0.002475 0.014673 -0.001873 0.000000 0.004093 0.000000
# 3 -0.001173 -0.001873 0.006140 0.000000 0.002053 0.000000
# 4 0.000000 0.000000 0.000000 -0.013282 0.000000 -0.012487
# 5 0.001576 0.004093 0.002053 0.000000 0.025852 0.000000
# 6 0.000000 0.000000 0.000000 -0.012487 0.000000 0.036807
#
#
# Mechanical properties :
#
#
# Convention : Reuss Voigt Hill
#
# Bulk Modulus (GPa) = 52.85765 67.64966 60.25365
# Shear Modulus (GPa) = 51.71339 21.00861 36.36100
#
# Velocity S-wave (km/s) = 4.61219 2.93971 3.86744
# Velocity P-wave (km/s) = 7.07856 6.27297 6.68791
#
# Compressibility (1/GPa) = 0.01891874
#
# Stress axis : x y z
#
# Youngs Moduli (GPa) = 109.30362 68.15336 162.87967
#
# Poissons Ratio (x) = 0.16870 0.19107
# Poissons Ratio (y) = 0.27056 0.30505
# Poissons Ratio (z) = 0.12822 0.12764
#
# Static dielectric constant tensor:
#      x y z
#    x 4.108110 0.000000 3.797180 
#    y 0.000000 2.459810 0.000000 
#    z 3.797180 0.000000 8.844050 
# 
# From -- ./inp_files/126231.got.cif
#   From: 2010.05.17/outbox.cif.g08.bks.cpg/sg15_64_cif.got.tgz:126231.got - 2010.06.03 18:47:42.
