data_PCOD9291385
_publ_section_title
;
Structure prediction by ZEFSAII (Michael W. Deem and Ramdas Pophale) SiO2 
 PCOD9291385
Probable space group: C 2/C
;
_chemical_formula_sum "Si O2"
_cell_formula_units_Z 40
_cell_length_a 11.324806
_cell_length_b 18.222197
_cell_length_c 8.092446
_cell_angle_alpha 90.000000
_cell_angle_beta 87.910258
_cell_angle_gamma 90.000000
_cell_volume 1668.869547
_symmetry_space_group_name_H-M "C 2/C"
_symmetry_group_IT_number 15
_symmetry_cell_setting 'monoclinic'
loop_
_space_group_symop_operation_xyz
x,y,z
-x,y,1/2-z
-x,-y,-z
x,-y,1/2+z
1/2+x,1/2+y,z
1/2-x,1/2+y,1/2-z
1/2-x,1/2-y,-z
1/2+x,1/2-y,1/2+z
loop_
_atom_site_type_symbol
_atom_site_label
_atom_site_fract_x
_atom_site_fract_y
_atom_site_fract_z
Si Si1 0.360347 0.988649 0.026545
Si Si2 0.778978 0.385694 0.735391
Si Si3 0.677821 0.157961 0.810691
Si Si4 0.385040 0.772243 0.517483
Si Si5 0.887056 0.801488 0.505901
O O1 0.344742 0.927092 0.168143
O O2 0.280627 0.059815 0.075380
O O3 0.319798 0.941902 0.872009
O O4 0.500000 0.000000 0.000000
O O5 0.875622 0.325173 0.675788
O O6 0.667581 0.344243 0.830308
O O7 0.607732 0.182071 0.652089
O O8 0.634299 0.214610 0.955946
O O9 0.817981 0.171043 0.846108
O O10 0.250000 0.750000 0.500000
O O11 0.472394 0.703342 0.517906
#
# Coordination Sequence:
#
# PCOD9291385 Si02
#       5
#     8   8   8   8   8
#     4  11  23  41  70 102 151 189 242 303 372 438
#     4  11  24  43  68 109 144 193 242 308 373 437
#     4  10  22  42  67 106 143 188 234 309 370 434
#     4  12  24  42  72 104 143 192 244 304 367 432
#     4  10  23  43  66 104 148 183 249 298 372 444
#
# _framework density 23.968319999999999
#
# number of rings (size 3 to 8) (size 9 to 14) (size 15 to 20)
#    0.000    1.200    2.000    3.600    0.000    5.600 
#    0.000    0.000    0.000   21.600    0.000    0.000 
#    0.000    0.000    0.000    0.000    0.000    0.000 
#
# Total GULP energy -111436.925195 kJ/mol
# GULP energy per Si atom -5571.846260 kJ/mol
# Density = 2.391377 g / cm^3
# Si number density = 23.968320 Si / 1000 Ang^3
#
#
#
# Elastic Constant Matrix: (Units=GPa)
#
#
# Indices 1 2 3 4 5 6 
#
# 1 160.4376 59.2327 51.6524 0.0000 -11.5854 0.0000
# 2 59.2327 135.6022 37.3939 0.0000 -20.1307 0.0000
# 3 51.6524 37.3939 130.4999 0.0000 -16.6839 0.0000
# 4 0.0000 0.0000 0.0000 54.4278 0.0000 -3.9577
# 5 -11.5854 -20.1307 -16.6839 0.0000 29.6479 0.0000
# 6 0.0000 0.0000 0.0000 -3.9577 0.0000 29.9018
#
#
#
# Elastic Compliance Matrix: (Units=1/GPa)
#
#
# Indices 1 2 3 4 5 6 
#
# 1 0.008053 -0.002884 -0.002380 0.000000 -0.000151 0.000000
# 2 -0.002884 0.009629 -0.000998 0.000000 0.004850 0.000000
# 3 -0.002380 -0.000998 0.009359 0.000000 0.003659 0.000000
# 4 0.000000 0.000000 0.000000 0.018552 0.000000 0.002455
# 5 -0.000151 0.004850 0.003659 0.000000 0.039022 0.000000
# 6 0.000000 0.000000 0.000000 0.002455 0.000000 0.033768
#
#
# Mechanical properties :
#
#
# Convention : Reuss Voigt Hill
#
# Bulk Modulus (GPa) = 68.88321 80.34418 74.61370
# Shear Modulus (GPa) = 36.83367 41.34620 39.08994
#
# Velocity S-wave (km/s) = 3.92441 4.15786 4.04282
# Velocity P-wave (km/s) = 7.02398 7.52623 7.27944
#
# Compressibility (1/GPa) = 0.01451733
#
# Stress axis : x y z
#
# Youngs Moduli (GPa) = 124.17650 103.85029 106.85253
#
# Poissons Ratio (x) = 0.29946 0.25435
# Poissons Ratio (y) = 0.35808 0.10662
# Poissons Ratio (z) = 0.29559 0.10362
#
# Static dielectric constant tensor:
#      x y z
#    x 1.899620 0.000000 0.289810 
#    y 0.000000 1.952770 0.000000 
#    z 0.289810 0.000000 1.650060 
# 
# From -- ./inp_files/29246.got.cif
#   From: 2010.05.17/outbox.cif.g08.bks.cpg/sg15_15_cif.got.tgz:29246.got - 2010.06.03 18:47:42.
