data_PCOD9291602
_publ_section_title
;
Structure prediction by ZEFSAII (Michael W. Deem and Ramdas Pophale) SiO2 
 PCOD9291602
Probable space group: C 2/C
;
_chemical_formula_sum "Si O2"
_cell_formula_units_Z 56
_cell_length_a 12.085987
_cell_length_b 14.878671
_cell_length_c 14.254787
_cell_angle_alpha 90.000000
_cell_angle_beta 100.905561
_cell_angle_gamma 90.000000
_cell_volume 2517.051517
_symmetry_space_group_name_H-M "C 2/C"
_symmetry_group_IT_number 15
_symmetry_cell_setting 'monoclinic'
loop_
_space_group_symop_operation_xyz
x,y,z
-x,y,1/2-z
-x,-y,-z
x,-y,1/2+z
1/2+x,1/2+y,z
1/2-x,1/2+y,1/2-z
1/2-x,1/2-y,-z
1/2+x,1/2-y,1/2+z
loop_
_atom_site_type_symbol
_atom_site_label
_atom_site_fract_x
_atom_site_fract_y
_atom_site_fract_z
Si Si1 0.087505 0.176125 0.180996
Si Si2 0.745224 0.957153 0.735053
Si Si3 0.664687 0.511985 0.953314
Si Si4 0.029985 0.853912 0.028264
Si Si5 0.408165 0.077356 0.000632
Si Si6 0.554265 0.192942 0.160612
Si Si7 0.379724 0.133447 0.782068
O O1 0.167982 0.091414 0.182710
O O2 0.157680 0.262945 0.227711
O O3 0.000000 0.157508 0.250000
O O4 0.021116 0.191832 0.074049
O O5 0.810501 0.979903 0.648985
O O6 0.647493 0.884588 0.694195
O O7 0.695019 0.050590 0.764230
O O8 0.574477 0.593212 0.940303
O O9 0.614068 0.429960 0.004171
O O10 0.786613 0.541178 0.010180
O O11 0.086148 0.780308 0.104747
O O12 0.456851 0.145572 0.083641
O O13 0.392676 0.117193 0.894790
O O14 0.500000 0.000000 0.000000
O O15 0.500000 0.221321 0.250000
O O16 0.500000 0.128999 0.750000
#
# Coordination Sequence:
#
# PCOD9291602 Si02
#       7
#     8   8   8   8   8   8   8
#     4  11  23  44  71 101 139 182 235 290 351 427
#     4  11  24  46  67 106 140 181 236 295 351 422
#     4  10  24  46  71  99 140 188 235 284 363 423
#     4  11  25  49  69 104 141 192 235 290 361 427
#     4  11  22  43  73 101 138 184 231 295 348 421
#     4  12  27  46  69 104 144 182 242 300 350 422
#     4  10  22  42  69 102 134 181 229 282 361 413
#
# _framework density 22.248252999999998
#
# number of rings (size 3 to 8) (size 9 to 14) (size 15 to 20)
#    0.000    1.143    5.714    0.429    2.000    3.429 
#   15.429    0.000    0.000    0.000    0.000    0.000 
#    0.000    0.000    0.000    0.000    0.000    0.000 
#
# Total GULP energy -156584.971237 kJ/mol
# GULP energy per Si atom -5592.320401 kJ/mol
# Density = 2.219761 g / cm^3
# Si number density = 22.248253 Si / 1000 Ang^3
#
#
#
# Elastic Constant Matrix: (Units=GPa)
#
#
# Indices 1 2 3 4 5 6 
#
# 1 68.9198 28.3035 9.0412 0.0000 -18.0686 0.0000
# 2 28.3035 112.9571 5.6841 0.0000 -8.7081 0.0000
# 3 9.0412 5.6841 78.6775 0.0000 -13.7103 0.0000
# 4 0.0000 0.0000 0.0000 34.8265 0.0000 2.1760
# 5 -18.0686 -8.7081 -13.7103 0.0000 30.7987 0.0000
# 6 0.0000 0.0000 0.0000 2.1760 0.0000 30.7660
#
#
#
# Elastic Compliance Matrix: (Units=1/GPa)
#
#
# Indices 1 2 3 4 5 6 
#
# 1 0.018711 -0.003925 -0.000159 0.000000 0.009796 0.000000
# 2 -0.003925 0.009877 -0.000192 0.000000 0.000405 0.000000
# 3 -0.000159 -0.000192 0.013786 0.000000 0.005989 0.000000
# 4 0.000000 0.000000 0.000000 0.028841 0.000000 -0.002040
# 5 0.009796 0.000405 0.005989 0.000000 0.040996 0.000000
# 6 0.000000 0.000000 0.000000 -0.002040 0.000000 0.032648
#
#
# Mechanical properties :
#
#
# Convention : Reuss Voigt Hill
#
# Bulk Modulus (GPa) = 29.56769 38.51243 34.04006
# Shear Modulus (GPa) = 30.36081 33.77996 32.07038
#
# Velocity S-wave (km/s) = 3.69811 3.90079 3.80080
# Velocity P-wave (km/s) = 5.61724 6.13483 5.88173
#
# Compressibility (1/GPa) = 0.03382070
#
# Stress axis : x y z
#
# Youngs Moduli (GPa) = 53.44539 101.24252 72.53755
#
# Poissons Ratio (x) = 0.39738 0.01157
# Poissons Ratio (y) = 0.20978 0.01393
# Poissons Ratio (z) = 0.00852 0.01944
#
# Static dielectric constant tensor:
#      x y z
#    x 1.792180 0.000000 0.016650 
#    y 0.000000 1.857250 0.000000 
#    z 0.016650 0.000000 1.789290 
# 
# From -- ./inp_files/144236.got.cif
#   From: 2010.05.17/outbox.cif.g08.bks.cpg/sg15_73_cif.got.tgz:144236.got - 2010.06.03 18:47:42.
