data_PCOD9291203
_publ_section_title
;
Structure prediction by ZEFSAII (Michael W. Deem and Ramdas Pophale) SiO2 
 PCOD9291203
Probable space group: C 2/C
;
_chemical_formula_sum "Si O2"
_cell_formula_units_Z 48
_cell_length_a 11.109160
_cell_length_b 9.268604
_cell_length_c 23.128341
_cell_angle_alpha 90.000000
_cell_angle_beta 51.368557
_cell_angle_gamma 90.000000
_cell_volume 1860.330146
_symmetry_space_group_name_H-M "C 2/C"
_symmetry_group_IT_number 15
_symmetry_cell_setting 'monoclinic'
loop_
_space_group_symop_operation_xyz
x,y,z
-x,y,1/2-z
-x,-y,-z
x,-y,1/2+z
1/2+x,1/2+y,z
1/2-x,1/2+y,1/2-z
1/2-x,1/2-y,-z
1/2+x,1/2-y,1/2+z
loop_
_atom_site_type_symbol
_atom_site_label
_atom_site_fract_x
_atom_site_fract_y
_atom_site_fract_z
Si Si1 0.500000 0.244727 0.750000
Si Si2 0.018845 0.218565 0.022969
Si Si3 0.719834 0.493733 0.734026
Si Si4 0.927082 0.916264 0.106289
Si Si5 0.679683 0.216103 0.091451
Si Si6 0.064571 0.570773 0.613096
Si Si7 0.000000 0.234451 0.750000
O O1 0.630789 0.351129 0.738783
O O2 0.558130 0.153312 0.677010
O O3 0.849643 0.272925 0.052548
O O4 0.079766 0.320062 0.054927
O O5 0.985556 0.065180 0.062222
O O6 0.113909 0.186517 0.935961
O O7 0.696192 0.530736 0.808969
O O8 0.894590 0.497108 0.661432
O O9 0.632348 0.629253 0.732698
O O10 0.066371 0.831484 0.096431
O O11 0.587314 0.174926 0.177009
O O12 0.684937 0.057178 0.063401
#
# Coordination Sequence:
#
# PCOD9291203 Si02
#       7
#     4   8   8   8   8   8   4
#     4  11  25  40  62 100 134 164 216 274 326 388
#     4  11  24  47  65  94 135 176 219 264 326 394
#     4  10  22  42  65  95 128 169 214 270 327 379
#     4  10  24  44  69  90 134 183 212 264 331 393
#     4  11  24  41  65  98 128 167 218 270 323 383
#     4  12  26  38  70 102 127 167 222 277 324 383
#     4   9  19  38  62  92 120 164 206 258 326 372
#
# _framework density 25.801873000000001
#
# number of rings (size 3 to 8) (size 9 to 14) (size 15 to 20)
#    0.000    1.333    3.333    1.000    9.333    0.667 
#    0.000    5.000    0.000    0.000    0.000    0.000 
#    0.000    0.000    0.000    0.000    0.000    0.000 
#
# Total GULP energy -134352.880019 kJ/mol
# GULP energy per Si atom -5598.036667 kJ/mol
# Density = 2.574315 g / cm^3
# Si number density = 25.801873 Si / 1000 Ang^3
#
#
#
# Elastic Constant Matrix: (Units=GPa)
#
#
# Indices 1 2 3 4 5 6 
#
# 1 90.1433 27.1285 15.9845 0.0000 4.8264 0.0000
# 2 27.1285 71.3607 -11.5556 0.0000 15.5241 0.0000
# 3 15.9845 -11.5556 88.9562 0.0000 0.8745 0.0000
# 4 0.0000 0.0000 0.0000 29.0534 0.0000 19.2057
# 5 4.8264 15.5241 0.8745 0.0000 44.6686 0.0000
# 6 0.0000 0.0000 0.0000 19.2057 0.0000 36.2509
#
#
#
# Elastic Compliance Matrix: (Units=1/GPa)
#
#
# Indices 1 2 3 4 5 6 
#
# 1 0.013337 -0.005711 -0.003144 0.000000 0.000605 0.000000
# 2 -0.005711 0.017977 0.003418 0.000000 -0.005698 0.000000
# 3 -0.003144 0.003418 0.012261 0.000000 -0.001088 0.000000
# 4 0.000000 0.000000 0.000000 0.052971 0.000000 -0.028064
# 5 0.000605 -0.005698 -0.001088 0.000000 0.024323 0.000000
# 6 0.000000 0.000000 0.000000 -0.028064 0.000000 0.042454
#
#
# Mechanical properties :
#
#
# Convention : Reuss Voigt Hill
#
# Bulk Modulus (GPa) = 30.58126 34.84167 32.71147
# Shear Modulus (GPa) = 27.01241 36.58810 31.80025
#
# Velocity S-wave (km/s) = 3.23912 3.76977 3.51448
# Velocity P-wave (km/s) = 5.08599 5.69922 5.40131
#
# Compressibility (1/GPa) = 0.03269976
#
# Stress axis : x y z
#
# Youngs Moduli (GPa) = 74.97706 55.62535 81.55836
#
# Poissons Ratio (x) = 0.31769 0.25646
# Poissons Ratio (y) = 0.42821 -0.27873
# Poissons Ratio (z) = 0.23576 -0.19010
#
# Static dielectric constant tensor:
#      x y z
#    x 2.129400 0.000000 0.062060 
#    y 0.000000 1.964730 0.000000 
#    z 0.062060 0.000000 2.045660 
# 
# From -- ./inp_files/291086.got.cif
#   From: 2010.05.17/outbox.cif.g08.bks.cpg/sg15_146_cif.got.tgz:291086.got - 2010.06.03 18:47:42.
