data_PCOD9291795
_publ_section_title
;
Structure prediction by ZEFSAII (Michael W. Deem and Ramdas Pophale) SiO2 
 PCOD9291795
Probable space group: C 2/C
;
_chemical_formula_sum "Si O2"
_cell_formula_units_Z 40
_cell_length_a 18.935301
_cell_length_b 8.776229
_cell_length_c 10.476852
_cell_angle_alpha 90.000000
_cell_angle_beta 79.758953
_cell_angle_gamma 90.000000
_cell_volume 1713.311363
_symmetry_space_group_name_H-M "C 2/C"
_symmetry_group_IT_number 15
_symmetry_cell_setting 'monoclinic'
loop_
_space_group_symop_operation_xyz
x,y,z
-x,y,1/2-z
-x,-y,-z
x,-y,1/2+z
1/2+x,1/2+y,z
1/2-x,1/2+y,1/2-z
1/2-x,1/2-y,-z
1/2+x,1/2-y,1/2+z
loop_
_atom_site_type_symbol
_atom_site_label
_atom_site_fract_x
_atom_site_fract_y
_atom_site_fract_z
Si Si1 0.000000 0.485941 0.250000
Si Si2 0.968384 0.759402 0.547859
Si Si3 0.000000 0.999310 0.750000
Si Si4 0.266740 0.677122 0.632587
Si Si5 0.699394 0.685208 0.401908
Si Si6 0.087465 0.259672 0.791222
O O1 0.981478 0.384825 0.134733
O O2 0.929546 0.592600 0.287046
O O3 0.884963 0.787855 0.544543
O O4 0.995060 0.898470 0.626780
O O5 0.023311 0.742433 0.414813
O O6 0.071538 0.102069 0.724568
O O7 0.250000 0.750000 0.500000
O O8 0.281037 0.494888 0.619304
O O9 0.212507 0.725401 0.763413
O O10 0.338980 0.755861 0.660954
O O11 0.750000 0.750000 0.500000
#
# Coordination Sequence:
#
# PCOD9291795 Si02
#       6
#     4   8   4   8   8   8
#     4  10  26  42  72 110 144 178 240 306 368 432
#     4  11  25  44  75 103 140 187 245 298 365 429
#     4  10  22  42  72 102 136 174 252 294 360 416
#     4  12  30  49  76 109 155 199 247 306 374 444
#     4  12  30  49  76 109 155 199 247 306 374 444
#     4  11  25  44  75 103 140 187 245 298 365 429
#
# _framework density 23.346603999999999
#
# number of rings (size 3 to 8) (size 9 to 14) (size 15 to 20)
#    0.000    0.800    2.000    2.400   16.800    0.000 
#    0.000    0.000    0.000    0.000    0.000    0.000 
#    0.000    0.000    0.000    0.000    0.000    0.000 
#
# Total GULP energy -111885.864286 kJ/mol
# GULP energy per Si atom -5594.293214 kJ/mol
# Density = 2.329347 g / cm^3
# Si number density = 23.346604 Si / 1000 Ang^3
#
#
#
# Elastic Constant Matrix: (Units=GPa)
#
#
# Indices 1 2 3 4 5 6 
#
# 1 139.6857 27.1135 42.8357 0.0000 10.6930 0.0000
# 2 27.1135 145.1784 33.5846 0.0000 11.2302 0.0000
# 3 42.8357 33.5846 122.1467 0.0000 -7.7548 0.0000
# 4 0.0000 0.0000 0.0000 32.5923 0.0000 16.7020
# 5 10.6930 11.2302 -7.7548 0.0000 48.8588 0.0000
# 6 0.0000 0.0000 0.0000 16.7020 0.0000 37.6516
#
#
#
# Elastic Compliance Matrix: (Units=1/GPa)
#
#
# Indices 1 2 3 4 5 6 
#
# 1 0.008339 -0.000733 -0.002857 0.000000 -0.002110 0.000000
# 2 -0.000733 0.007626 -0.001960 0.000000 -0.001903 0.000000
# 3 -0.002857 -0.001960 0.009896 0.000000 0.002646 0.000000
# 4 0.000000 0.000000 0.000000 0.039709 0.000000 -0.017614
# 5 -0.002110 -0.001903 0.002646 0.000000 0.021786 0.000000
# 6 0.000000 0.000000 0.000000 -0.017614 0.000000 0.034373
#
#
# Mechanical properties :
#
#
# Convention : Reuss Voigt Hill
#
# Bulk Modulus (GPa) = 67.75283 68.23094 67.99188
# Shear Modulus (GPa) = 36.29794 44.05234 40.17514
#
# Velocity S-wave (km/s) = 3.94730 4.34854 4.15277
# Velocity P-wave (km/s) = 7.06104 7.38253 7.22357
#
# Compressibility (1/GPa) = 0.01475953
#
# Stress axis : x y z
#
# Youngs Moduli (GPa) = 119.92137 131.13414 101.05379
#
# Poissons Ratio (x) = 0.09616 0.28868
# Poissons Ratio (y) = 0.08794 0.19811
# Poissons Ratio (z) = 0.34258 0.25708
#
# Static dielectric constant tensor:
#      x y z
#    x 1.869790 0.000000 -0.011820 
#    y 0.000000 1.968830 0.000000 
#    z -0.011820 0.000000 1.933380 
# 
# From -- ./inp_files/102744.got.cif
#   From: 2010.05.17/outbox.cif.g08.bks.cpg/sg15_52_cif.got.tgz:102744.got - 2010.06.03 18:47:42.
