data_PCOD9291776
_publ_section_title
;
Structure prediction by ZEFSAII (Michael W. Deem and Ramdas Pophale) SiO2 
 PCOD9291776
Probable space group: C 2/C
;
_chemical_formula_sum "Si O2"
_cell_formula_units_Z 48
_cell_length_a 26.373540
_cell_length_b 12.151903
_cell_length_c 18.634882
_cell_angle_alpha 90.000000
_cell_angle_beta 157.749903
_cell_angle_gamma 90.000000
_cell_volume 2261.400797
_symmetry_space_group_name_H-M "C 2/C"
_symmetry_group_IT_number 15
_symmetry_cell_setting 'monoclinic'
loop_
_space_group_symop_operation_xyz
x,y,z
-x,y,1/2-z
-x,-y,-z
x,-y,1/2+z
1/2+x,1/2+y,z
1/2-x,1/2+y,1/2-z
1/2-x,1/2-y,-z
1/2+x,1/2-y,1/2+z
loop_
_atom_site_type_symbol
_atom_site_label
_atom_site_fract_x
_atom_site_fract_y
_atom_site_fract_z
Si Si1 0.917858 0.509304 0.317468
Si Si2 0.976337 0.153993 0.031387
Si Si3 0.587858 0.849810 0.933344
Si Si4 0.716512 0.472073 0.774899
Si Si5 0.906807 0.703659 0.700089
Si Si6 0.209639 0.334917 0.760254
O O1 0.902117 0.401959 0.247794
O O2 0.786577 0.571380 0.174365
O O3 0.000000 0.500000 0.500000
O O4 0.994297 0.598156 0.370374
O O5 0.918442 0.253096 0.906578
O O6 0.867314 0.057855 0.883393
O O7 0.113353 0.102812 0.182274
O O8 0.004314 0.202594 0.145435
O O9 0.500000 0.821820 0.750000
O O10 0.666182 0.745898 0.066775
O O11 0.692528 0.950377 0.056154
O O12 0.793215 0.393304 0.820800
O O13 0.750000 0.750000 0.500000
O O14 0.000000 0.677395 0.750000
#
# Coordination Sequence:
#
# PCOD9291776 Si02
#       6
#     8   8   8   8   8   8
#     4  12  24  45  72 100 137 196 243 292 365 449
#     4  10  23  42  68 100 137 188 244 290 363 441
#     4  11  25  43  68 101 144 177 236 306 373 423
#     4  10  22  42  71  95 136 190 240 295 350 453
#     4  12  30  46  74 113 152 190 244 319 377 433
#     4  11  23  42  72 100 135 186 246 295 357 448
#
# _framework density 21.225781999999999
#
# number of rings (size 3 to 8) (size 9 to 14) (size 15 to 20)
#    0.000    1.000    3.333    1.500    9.333    0.667 
#    3.000    0.000    0.000    0.000    0.000    0.000 
#    0.000    0.000    0.000    0.000    0.000    0.000 
#
# Total GULP energy -133812.142771 kJ/mol
# GULP energy per Si atom -5575.505949 kJ/mol
# Density = 2.117747 g / cm^3
# Si number density = 21.225782 Si / 1000 Ang^3
#
#
#
# Elastic Constant Matrix: (Units=GPa)
#
#
# Indices 1 2 3 4 5 6 
#
# 1 48.9223 40.7426 23.0896 0.0000 -8.6183 0.0000
# 2 40.7426 102.7822 8.5239 0.0000 0.5891 0.0000
# 3 23.0896 8.5239 40.6554 0.0000 1.5564 0.0000
# 4 0.0000 0.0000 0.0000 32.2798 0.0000 -3.7537
# 5 -8.6183 0.5891 1.5564 0.0000 27.4435 0.0000
# 6 0.0000 0.0000 0.0000 -3.7537 0.0000 30.4310
#
#
#
# Elastic Compliance Matrix: (Units=1/GPa)
#
#
# Indices 1 2 3 4 5 6 
#
# 1 0.050802 -0.018106 -0.025738 0.000000 0.017802 0.000000
# 2 -0.018106 0.016354 0.007100 0.000000 -0.006440 0.000000
# 3 -0.025738 0.007100 0.038124 0.000000 -0.010397 0.000000
# 4 0.000000 0.000000 0.000000 0.031430 0.000000 0.003877
# 5 0.017802 -0.006440 -0.010397 0.000000 0.042757 0.000000
# 6 0.000000 0.000000 0.000000 0.003877 0.000000 0.033339
#
#
# Mechanical properties :
#
#
# Convention : Reuss Voigt Hill
#
# Bulk Modulus (GPa) = 31.45205 37.45247 34.45226
# Shear Modulus (GPa) = 16.84118 26.03111 21.43614
#
# Velocity S-wave (km/s) = 2.81985 3.50579 3.18136
# Velocity P-wave (km/s) = 5.04500 5.83699 5.45539
#
# Compressibility (1/GPa) = 0.03179443
#
# Stress axis : x y z
#
# Youngs Moduli (GPa) = 19.68411 61.14576 26.23031
#
# Poissons Ratio (x) = 1.10708 0.67512
# Poissons Ratio (y) = 0.35639 -0.18625
# Poissons Ratio (z) = 0.50663 -0.43416
#
# Static dielectric constant tensor:
#      x y z
#    x 1.783150 0.000000 0.032150 
#    y 0.000000 1.795900 0.000000 
#    z 0.032150 0.000000 1.784060 
# 
# From -- ./inp_files/259235.got.cif
#   From: 2010.05.17/outbox.cif.g08.bks.cpg/sg15_130_cif.got.tgz:259235.got - 2010.06.03 18:47:42.
