data_PCOD9291645
_publ_section_title
;
Structure prediction by ZEFSAII (Michael W. Deem and Ramdas Pophale) SiO2 
 PCOD9291645
Probable space group: C 2/C
;
_chemical_formula_sum "Si O2"
_cell_formula_units_Z 56
_cell_length_a 14.895367
_cell_length_b 11.921826
_cell_length_c 29.006415
_cell_angle_alpha 90.000000
_cell_angle_beta 30.408097
_cell_angle_gamma 90.000000
_cell_volume 2607.186696
_symmetry_space_group_name_H-M "C 2/C"
_symmetry_group_IT_number 15
_symmetry_cell_setting 'monoclinic'
loop_
_space_group_symop_operation_xyz
x,y,z
-x,y,1/2-z
-x,-y,-z
x,-y,1/2+z
1/2+x,1/2+y,z
1/2-x,1/2+y,1/2-z
1/2-x,1/2-y,-z
1/2+x,1/2-y,1/2+z
loop_
_atom_site_type_symbol
_atom_site_label
_atom_site_fract_x
_atom_site_fract_y
_atom_site_fract_z
Si Si1 0.823823 0.219719 0.902574
Si Si2 0.207816 0.685055 0.643390
Si Si3 0.001755 0.992575 0.198530
Si Si4 0.464069 0.238560 0.102376
Si Si5 0.273863 0.154662 0.029948
Si Si6 0.413951 0.971806 0.837397
Si Si7 0.606764 0.014465 0.842938
O O1 0.931489 0.200922 0.902665
O O2 0.851647 0.350084 0.880185
O O3 0.891522 0.122354 0.840296
O O4 0.616908 0.204686 0.999459
O O5 0.318443 0.690712 0.641032
O O6 0.275774 0.778281 0.577465
O O7 0.231884 0.566772 0.606529
O O8 0.000000 0.694650 0.750000
O O9 0.806478 0.955626 0.268152
O O10 0.000000 0.050255 0.250000
O O11 0.108934 0.068265 0.113330
O O12 0.389441 0.119748 0.151224
O O13 0.250000 0.250000 0.000000
O O14 0.450968 0.081777 0.939407
O O15 0.500000 0.953877 0.750000
O O16 0.547435 0.023226 0.816019
#
# Coordination Sequence:
#
# PCOD9291645 Si02
#       7
#     8   8   8   8   8   8   8
#     4  10  23  43  69  99 137 184 234 290 359 432
#     4  11  24  42  71 100 141 183 233 297 357 421
#     4  12  27  44  72 105 140 185 241 296 368 431
#     4  10  22  42  69  97 137 180 233 290 361 420
#     4  12  25  45  70 105 138 184 242 292 358 440
#     4  10  23  44  66 101 142 181 237 291 359 426
#     4  11  24  45  71 100 142 186 231 309 358 427
#
# _framework density 21.479091
#
# number of rings (size 3 to 8) (size 9 to 14) (size 15 to 20)
#    0.000    1.143    2.857    2.571    6.000    4.000 
#    2.571    0.000    0.000    0.000    0.000    0.000 
#    0.000    0.000    0.000    0.000    0.000    0.000 
#
# Total GULP energy -156140.986684 kJ/mol
# GULP energy per Si atom -5576.463810 kJ/mol
# Density = 2.143020 g / cm^3
# Si number density = 21.479091 Si / 1000 Ang^3
#
#
#
# Elastic Constant Matrix: (Units=GPa)
#
#
# Indices 1 2 3 4 5 6 
#
# 1 90.1690 29.7468 33.6733 -0.0001 -2.8038 -0.0001
# 2 29.7468 79.3795 7.4229 -0.0001 -1.5739 -0.0001
# 3 33.6733 7.4229 93.4458 -0.0004 0.4480 -0.0002
# 4 -0.0001 -0.0001 -0.0004 30.3216 -0.0001 11.5673
# 5 -2.8038 -1.5739 0.4480 -0.0001 31.5778 0.0000
# 6 -0.0001 -0.0001 -0.0002 11.5673 0.0000 35.2888
#
#
#
# Elastic Compliance Matrix: (Units=1/GPa)
#
#
# Indices 1 2 3 4 5 6 
#
# 1 0.014588 -0.004990 -0.004866 0.000000 0.001116 0.000000
# 2 -0.004990 0.014412 0.000652 0.000000 0.000266 0.000000
# 3 -0.004866 0.000652 0.012406 0.000000 -0.000576 0.000000
# 4 0.000000 0.000000 0.000000 0.037693 0.000000 -0.012356
# 5 0.001116 0.000266 -0.000576 0.000000 0.031788 0.000000
# 6 0.000000 0.000000 0.000000 -0.012356 0.000000 0.032388
#
#
# Mechanical properties :
#
#
# Convention : Reuss Voigt Hill
#
# Bulk Modulus (GPa) = 43.48079 44.96448 44.22264
# Shear Modulus (GPa) = 29.52491 32.24772 30.88631
#
# Velocity S-wave (km/s) = 3.71157 3.87893 3.79617
# Velocity P-wave (km/s) = 6.21731 6.40633 6.31252
#
# Compressibility (1/GPa) = 0.02299866
#
# Stress axis : x y z
#
# Youngs Moduli (GPa) = 68.54844 69.38732 80.60755
#
# Poissons Ratio (x) = 0.34622 0.39223
# Poissons Ratio (y) = 0.34203 -0.05255
# Poissons Ratio (z) = 0.33355 -0.04524
#
# Static dielectric constant tensor:
#      x y z
#    x 1.784110 0.000000 0.037940 
#    y 0.000000 1.927160 0.000000 
#    z 0.037940 0.000000 1.790160 
# 
# From -- ./inp_files/313694.got.cif
#   From: 2010.05.17/outbox.cif.g08.bks.cpg/sg15_157_cif.got.tgz:313694.got - 2010.06.03 18:47:42.
