data_PCOD9291520
_publ_section_title
;
Structure prediction by ZEFSAII (Michael W. Deem and Ramdas Pophale) SiO2 
 PCOD9291520
Probable space group: C 2/C
;
_chemical_formula_sum "Si O2"
_cell_formula_units_Z 64
_cell_length_a 9.481862
_cell_length_b 12.070800
_cell_length_c 24.390307
_cell_angle_alpha 90.000000
_cell_angle_beta 70.432865
_cell_angle_gamma 90.000000
_cell_volume 2630.346517
_symmetry_space_group_name_H-M "C 2/C"
_symmetry_group_IT_number 15
_symmetry_cell_setting 'monoclinic'
loop_
_space_group_symop_operation_xyz
x,y,z
-x,y,1/2-z
-x,-y,-z
x,-y,1/2+z
1/2+x,1/2+y,z
1/2-x,1/2+y,1/2-z
1/2-x,1/2-y,-z
1/2+x,1/2-y,1/2+z
loop_
_atom_site_type_symbol
_atom_site_label
_atom_site_fract_x
_atom_site_fract_y
_atom_site_fract_z
Si Si1 0.662117 0.248550 0.735664
Si Si2 0.651383 0.024031 0.538258
Si Si3 0.841576 0.948309 0.168785
Si Si4 0.046277 0.571831 0.162201
Si Si5 0.705601 0.482774 0.710852
Si Si6 0.278491 0.718038 0.842117
Si Si7 0.400047 0.822026 0.023611
Si Si8 0.954753 0.896874 0.043125
O O1 0.500000 0.195712 0.750000
O O2 0.784250 0.171491 0.693098
O O3 0.662427 0.360000 0.699796
O O4 0.698286 0.258590 0.795874
O O5 0.554104 0.963309 0.597804
O O6 0.697496 0.917547 0.494817
O O7 0.546496 0.107997 0.519858
O O8 0.777734 0.100947 0.549953
O O9 0.959895 0.935450 0.105354
O O10 0.695452 0.014362 0.166610
O O11 0.884602 0.999564 0.221078
O O12 0.079796 0.701371 0.168080
O O13 0.883950 0.531387 0.202963
O O14 0.691787 0.589167 0.674642
O O15 0.180099 0.721989 0.910505
O O16 0.459321 0.716733 0.981306
O O17 0.000000 0.000000 0.000000
#
# Coordination Sequence:
#
# PCOD9291520 Si02
#       8
#     8   8   8   8   8   8   8   8
#     4  11  25  43  67  98 138 180 226 290 349 406
#     4  10  24  43  71 100 136 190 224 286 355 402
#     4  10  22  42  68  94 129 181 226 275 349 405
#     4  11  21  43  74  98 131 181 231 278 350 415
#     4  11  23  45  66 100 141 174 225 289 346 415
#     4  11  24  44  72 102 133 185 232 282 347 422
#     4  11  23  46  68 100 145 177 237 285 342 422
#     4  11  25  42  67 103 136 179 234 287 340 417
#
# _framework density 24.331396999999999
#
# number of rings (size 3 to 8) (size 9 to 14) (size 15 to 20)
#    0.000    1.250    2.500    3.750    3.500    2.000 
#    6.750    0.000    0.000    0.000    0.000    0.000 
#    0.000    0.000    0.000    0.000    0.000    0.000 
#
# Total GULP energy -178883.693107 kJ/mol
# GULP energy per Si atom -5590.115410 kJ/mol
# Density = 2.427602 g / cm^3
# Si number density = 24.331397 Si / 1000 Ang^3
#
#
#
# Elastic Constant Matrix: (Units=GPa)
#
#
# Indices 1 2 3 4 5 6 
#
# 1 64.8888 21.0941 -1.1105 0.0000 2.5827 0.0000
# 2 21.0941 143.1406 26.7041 0.0000 -5.2842 0.0000
# 3 -1.1105 26.7041 131.0186 0.0000 -8.0729 0.0000
# 4 0.0000 0.0000 0.0000 11.0762 0.0000 -1.4647
# 5 2.5827 -5.2842 -8.0729 0.0000 23.2285 0.0000
# 6 0.0000 0.0000 0.0000 -1.4647 0.0000 20.5804
#
#
#
# Elastic Compliance Matrix: (Units=1/GPa)
#
#
# Indices 1 2 3 4 5 6 
#
# 1 0.016351 -0.002590 0.000530 0.000000 -0.002223 0.000000
# 2 -0.002590 0.007704 -0.001498 0.000000 0.001520 0.000000
# 3 0.000530 -0.001498 0.008091 0.000000 0.002412 0.000000
# 4 0.000000 0.000000 0.000000 0.091141 0.000000 0.006486
# 5 -0.002223 0.001520 0.002412 0.000000 0.044482 0.000000
# 6 0.000000 0.000000 0.000000 0.006486 0.000000 0.049052
#
#
# Mechanical properties :
#
#
# Convention : Reuss Voigt Hill
#
# Bulk Modulus (GPa) = 39.95739 48.04703 44.00221
# Shear Modulus (GPa) = 21.52568 30.46770 25.99669
#
# Velocity S-wave (km/s) = 2.97760 3.54248 3.27225
# Velocity P-wave (km/s) = 5.31782 6.04334 5.69215
#
# Compressibility (1/GPa) = 0.02502666
#
# Stress axis : x y z
#
# Youngs Moduli (GPa) = 61.15971 129.81070 123.59359
#
# Poissons Ratio (x) = 0.33626 -0.06545
# Poissons Ratio (y) = 0.15843 0.18520
# Poissons Ratio (z) = -0.03239 0.19451
#
# Static dielectric constant tensor:
#      x y z
#    x 2.061030 0.000000 0.028780 
#    y 0.000000 1.921410 0.000000 
#    z 0.028780 0.000000 1.936300 
# 
# From -- ./inp_files/269237.got.cif
#   From: 2010.05.17/outbox.cif.g08.bks.cpg/sg15_135_cif.got.tgz:269237.got - 2010.06.03 18:47:42.
