data_PCOD9291123
_publ_section_title
;
Structure prediction by ZEFSAII (Michael W. Deem and Ramdas Pophale) SiO2 
 PCOD9291123
Probable space group: C 2/C
;
_chemical_formula_sum "Si O2"
_cell_formula_units_Z 36
_cell_length_a 15.152815
_cell_length_b 10.381732
_cell_length_c 11.769620
_cell_angle_alpha 90.000000
_cell_angle_beta 78.548338
_cell_angle_gamma 90.000000
_cell_volume 1814.649133
_symmetry_space_group_name_H-M "C 2/C"
_symmetry_group_IT_number 15
_symmetry_cell_setting 'monoclinic'
loop_
_space_group_symop_operation_xyz
x,y,z
-x,y,1/2-z
-x,-y,-z
x,-y,1/2+z
1/2+x,1/2+y,z
1/2-x,1/2+y,1/2-z
1/2-x,1/2-y,-z
1/2+x,1/2-y,1/2+z
loop_
_atom_site_type_symbol
_atom_site_label
_atom_site_fract_x
_atom_site_fract_y
_atom_site_fract_z
Si Si1 0.141118 0.120915 0.076153
Si Si2 0.232384 0.132040 0.587129
Si Si3 0.000000 0.720151 0.750000
Si Si4 0.083999 0.513075 0.893193
Si Si5 0.687219 0.236375 0.335768
O O1 0.221804 0.172838 0.136794
O O2 0.053516 0.186866 0.151265
O O3 0.153847 0.967377 0.072581
O O4 0.153510 0.173058 0.946050
O O5 0.250000 0.250000 0.500000
O O6 0.326942 0.056225 0.562668
O O7 0.210112 0.185321 0.717483
O O8 0.062379 0.622363 0.806037
O O9 0.113752 0.375949 0.833019
O O10 0.000000 0.500000 0.000000
#
# Coordination Sequence:
#
# PCOD9291123 Si02
#       5
#     8   8   4   8   8
#     4  10  23  41  67  92 134 171 216 275 334 392
#     4  11  26  43  68  95 133 179 222 271 335 406
#     4  12  22  44  66 102 130 170 220 282 338 384
#     4  11  24  41  68  97 132 172 225 275 329 402
#     4  10  22  42  64  96 127 177 220 267 335 403
#
# _framework density 19.838545
#
# number of rings (size 3 to 8) (size 9 to 14) (size 15 to 20)
#    0.000    1.333    4.444    0.000    9.333    0.000 
#    4.000    2.222    0.000    0.000    0.000    0.000 
#    0.000    0.000    0.000    0.000    0.000    0.000 
#
# Total GULP energy -100517.921833 kJ/mol
# GULP energy per Si atom -5584.328991 kJ/mol
# Density = 1.979339 g / cm^3
# Si number density = 19.838545 Si / 1000 Ang^3
#
#
#
# Elastic Constant Matrix: (Units=GPa)
#
#
# Indices 1 2 3 4 5 6 
#
# 1 43.3759 25.3865 7.7877 0.0000 -14.6234 0.0000
# 2 25.3865 131.6651 45.3389 0.0000 -6.7205 0.0000
# 3 7.7877 45.3389 84.4090 0.0000 -21.7066 0.0000
# 4 0.0000 0.0000 0.0000 15.2216 0.0000 1.3840
# 5 -14.6234 -6.7205 -21.7066 0.0000 26.0001 0.0000
# 6 0.0000 0.0000 0.0000 1.3840 0.0000 41.1311
#
#
#
# Elastic Compliance Matrix: (Units=1/GPa)
#
#
# Indices 1 2 3 4 5 6 
#
# 1 0.034116 -0.007798 0.006949 0.000000 0.022974 0.000000
# 2 -0.007798 0.011206 -0.007236 0.000000 -0.007531 0.000000
# 3 0.006949 -0.007236 0.019886 0.000000 0.018640 0.000000
# 4 0.000000 0.000000 0.000000 0.065898 0.000000 -0.002217
# 5 0.022974 -0.007531 0.018640 0.000000 0.064998 0.000000
# 6 0.000000 0.000000 0.000000 -0.002217 0.000000 0.024387
#
#
# Mechanical properties :
#
#
# Convention : Reuss Voigt Hill
#
# Bulk Modulus (GPa) = 20.39265 46.27514 33.33389
# Shear Modulus (GPa) = 19.76225 28.53303 24.14764
#
# Velocity S-wave (km/s) = 3.15962 3.79656 3.49264
# Velocity P-wave (km/s) = 4.85927 6.52648 5.75359
#
# Compressibility (1/GPa) = 0.04903727
#
# Stress axis : x y z
#
# Youngs Moduli (GPa) = 29.31194 89.23780 50.28584
#
# Poissons Ratio (x) = 0.69589 -0.34943
# Poissons Ratio (y) = 0.22858 0.36388
# Poissons Ratio (z) = -0.20369 0.64575
#
# Static dielectric constant tensor:
#      x y z
#    x 1.696390 0.000000 0.001890 
#    y 0.000000 1.728160 0.000000 
#    z 0.001890 0.000000 1.646750 
# 
# From -- ./inp_files/45857.got.cif
#   From: 2010.05.17/outbox.cif.g08.bks.cpg/sg15_23_cif.got.tgz:45857.got - 2010.06.03 18:47:42.
