data_PCOD9291076
_publ_section_title
;
Structure prediction by ZEFSAII (Michael W. Deem and Ramdas Pophale) SiO2 
 PCOD9291076
Probable space group: C 2/C
;
_chemical_formula_sum "Si O2"
_cell_formula_units_Z 56
_cell_length_a 9.947452
_cell_length_b 9.060495
_cell_length_c 28.469156
_cell_angle_alpha 90.000000
_cell_angle_beta 70.901948
_cell_angle_gamma 90.000000
_cell_volume 2424.665380
_symmetry_space_group_name_H-M "C 2/C"
_symmetry_group_IT_number 15
_symmetry_cell_setting 'monoclinic'
loop_
_space_group_symop_operation_xyz
x,y,z
-x,y,1/2-z
-x,-y,-z
x,-y,1/2+z
1/2+x,1/2+y,z
1/2-x,1/2+y,1/2-z
1/2-x,1/2-y,-z
1/2+x,1/2-y,1/2+z
loop_
_atom_site_type_symbol
_atom_site_label
_atom_site_fract_x
_atom_site_fract_y
_atom_site_fract_z
Si Si1 0.617456 0.278715 0.790293
Si Si2 0.500000 0.507747 0.750000
Si Si3 0.352889 0.325866 0.606379
Si Si4 0.141266 0.323157 0.048973
Si Si5 0.858302 0.324595 0.951482
Si Si6 0.145561 0.178534 0.894108
Si Si7 0.000000 0.492707 0.250000
Si Si8 0.387360 0.781417 0.707145
O O1 0.484090 0.386281 0.794036
O O2 0.647964 0.260814 0.841235
O O3 0.751729 0.352327 0.748766
O O4 0.596231 0.125996 0.766009
O O5 0.409652 0.627899 0.731337
O O6 0.488146 0.253327 0.565075
O O7 0.212650 0.298429 0.591617
O O8 0.373218 0.502266 0.608262
O O9 0.131249 0.499254 0.042210
O O10 0.211443 0.298611 0.092412
O O11 0.250000 0.250000 0.000000
O O12 0.011488 0.248587 0.936428
O O13 0.750000 0.250000 0.000000
O O14 0.142554 0.252630 0.843399
O O15 0.019177 0.610308 0.204979
#
# Coordination Sequence:
#
# PCOD9291076 Si02
#       8
#     8   4   8   8   8   8   4   8
#     4  11  24  41  64  95 136 177 222 272 324 393
#     4  10  22  42  64  88 134 180 222 262 334 382
#     4  11  26  44  71 100 136 179 226 276 338 400
#     4  11  26  48  72 102 135 172 224 283 340 403
#     4  11  26  48  72 102 135 172 224 283 340 403
#     4  11  26  44  71 100 136 179 226 276 338 400
#     4  10  26  38  64  92 138 172 230 270 326 382
#     4  11  24  41  64  95 136 177 222 272 324 393
#
# _framework density 23.095970000000001
#
# number of rings (size 3 to 8) (size 9 to 14) (size 15 to 20)
#    0.000    1.143    1.429    2.571   10.000    5.714 
#    0.000    0.000    0.000    0.000    0.000    0.000 
#    0.000    0.000    0.000    0.000    0.000    0.000 
#
# Total GULP energy -156244.270849 kJ/mol
# GULP energy per Si atom -5580.152530 kJ/mol
# Density = 2.304340 g / cm^3
# Si number density = 23.095970 Si / 1000 Ang^3
#
#
#
# Elastic Constant Matrix: (Units=GPa)
#
#
# Indices 1 2 3 4 5 6 
#
# 1 57.4339 31.8736 0.8140 0.0000 9.2916 0.0000
# 2 31.8736 115.9756 7.6991 0.0000 15.8949 0.0000
# 3 0.8140 7.6991 75.3910 0.0000 10.6364 0.0000
# 4 0.0000 0.0000 0.0000 25.7908 0.0000 6.8763
# 5 9.2916 15.8949 10.6364 0.0000 41.1459 0.0000
# 6 0.0000 0.0000 0.0000 6.8763 0.0000 31.9629
#
#
#
# Elastic Compliance Matrix: (Units=1/GPa)
#
#
# Indices 1 2 3 4 5 6 
#
# 1 0.020849 -0.005392 0.000722 0.000000 -0.002812 0.000000
# 2 -0.005392 0.010514 -0.000638 0.000000 -0.002679 0.000000
# 3 0.000722 -0.000638 0.013814 0.000000 -0.003488 0.000000
# 4 0.000000 0.000000 0.000000 0.041133 0.000000 -0.008849
# 5 -0.002812 -0.002679 -0.003488 0.000000 0.026875 0.000000
# 6 0.000000 0.000000 0.000000 -0.008849 0.000000 0.033190
#
#
# Mechanical properties :
#
#
# Convention : Reuss Voigt Hill
#
# Bulk Modulus (GPa) = 28.93456 36.61930 32.77693
# Shear Modulus (GPa) = 29.67187 33.67417 31.67302
#
# Velocity S-wave (km/s) = 3.58819 3.82253 3.70721
# Velocity P-wave (km/s) = 5.45178 5.94744 5.70500
#
# Compressibility (1/GPa) = 0.03456075
#
# Stress axis : x y z
#
# Youngs Moduli (GPa) = 47.96506 95.11132 72.39276
#
# Poissons Ratio (x) = 0.51288 -0.05229
# Poissons Ratio (y) = 0.25865 0.04615
# Poissons Ratio (z) = -0.03464 0.06063
#
# Static dielectric constant tensor:
#      x y z
#    x 2.017030 0.000000 -0.024270 
#    y 0.000000 1.833320 0.000000 
#    z -0.024270 0.000000 1.875140 
# 
# From -- ./inp_files/291545.got.cif
#   From: 2010.05.17/outbox.cif.g08.bks.cpg/sg15_146_cif.got.tgz:291545.got - 2010.06.03 18:47:42.
