data_PCOD9291943
_publ_section_title
;
Structure prediction by ZEFSAII (Michael W. Deem and Ramdas Pophale) SiO2 
 PCOD9291943
Probable space group: C 2/C
;
_chemical_formula_sum "Si O2"
_cell_formula_units_Z 60
_cell_length_a 29.863211
_cell_length_b 8.565619
_cell_length_c 11.104514
_cell_angle_alpha 90.000000
_cell_angle_beta 109.326786
_cell_angle_gamma 90.000000
_cell_volume 2680.427517
_symmetry_space_group_name_H-M "C 2/C"
_symmetry_group_IT_number 15
_symmetry_cell_setting 'monoclinic'
loop_
_space_group_symop_operation_xyz
x,y,z
-x,y,1/2-z
-x,-y,-z
x,-y,1/2+z
1/2+x,1/2+y,z
1/2-x,1/2+y,1/2-z
1/2-x,1/2-y,-z
1/2+x,1/2-y,1/2+z
loop_
_atom_site_type_symbol
_atom_site_label
_atom_site_fract_x
_atom_site_fract_y
_atom_site_fract_z
Si Si1 0.143620 0.974756 0.048792
Si Si2 0.256451 0.344536 0.883620
Si Si3 0.864863 0.386565 0.001018
Si Si4 0.951513 0.549611 0.014083
Si Si5 0.392744 0.795375 0.261277
Si Si6 0.500000 0.260436 0.250000
Si Si7 0.587106 0.534303 0.760121
Si Si8 0.698734 0.896418 0.220693
O O1 0.151636 0.792228 0.019415
O O2 0.117144 0.962880 0.158312
O O3 0.194028 0.063034 0.087143
O O4 0.114577 0.062127 0.913115
O O5 0.257759 0.206938 0.785930
O O6 0.216020 0.471545 0.826853
O O7 0.250000 0.250000 0.000000
O O8 0.828167 0.507736 0.909756
O O9 0.915680 0.403759 0.982739
O O10 0.882141 0.425827 0.151769
O O11 0.966388 0.645553 0.144028
O O12 0.923201 0.662514 0.901774
O O13 0.000000 0.500000 0.000000
O O14 0.420155 0.651051 0.229894
O O15 0.338993 0.775262 0.258633
O O16 0.461833 0.369393 0.286863
#
# Coordination Sequence:
#
# PCOD9291943 Si02
#       8
#     8   8   8   8   8   4   8   8
#     4  11  25  46  73 104 150 195 251 307 388 442
#     4  12  27  44  74 108 145 194 252 313 375 472
#     4  10  23  41  69  96 136 193 235 301 366 444
#     4  11  23  41  64 101 142 186 247 303 370 439
#     4  10  22  43  63  93 139 183 236 296 365 432
#     4  12  26  40  74 108 146 198 256 306 368 462
#     4  11  25  45  69 104 145 195 245 308 370 448
#     4  11  24  44  68 103 141 183 244 301 375 443
#
# _framework density 22.384488999999999
#
# number of rings (size 3 to 8) (size 9 to 14) (size 15 to 20)
#    0.000    1.067    1.333    4.000    5.600    5.333 
#    0.000    3.333    0.000    0.000    0.000    0.000 
#    0.000    0.000    0.000    0.000    0.000    0.000 
#
# Total GULP energy -167018.684613 kJ/mol
# GULP energy per Si atom -5567.289487 kJ/mol
# Density = 2.233354 g / cm^3
# Si number density = 22.384489 Si / 1000 Ang^3
#
#
#
# Elastic Constant Matrix: (Units=GPa)
#
#
# Indices 1 2 3 4 5 6 
#
# 1 92.9641 39.5020 24.6940 0.0000 2.1940 0.0000
# 2 39.5020 97.5111 18.5443 0.0000 5.0854 0.0000
# 3 24.6940 18.5443 101.0044 0.0000 8.3042 0.0000
# 4 0.0000 0.0000 0.0000 0.6381 0.0000 5.0095
# 5 2.1940 5.0854 8.3042 0.0000 27.4192 0.0000
# 6 0.0000 0.0000 0.0000 5.0095 0.0000 37.7329
#
#
#
# Elastic Compliance Matrix: (Units=1/GPa)
#
#
# Indices 1 2 3 4 5 6 
#
# 1 0.013535 -0.005052 -0.002430 0.000000 0.000590 0.000000
# 2 -0.005052 0.012566 -0.000937 0.000000 -0.001643 0.000000
# 3 -0.002430 -0.000937 0.010908 0.000000 -0.002935 0.000000
# 4 0.000000 0.000000 0.000000-37.043314 0.000000 4.917941
# 5 0.000590 -0.001643 -0.002935 0.000000 0.037617 0.000000
# 6 0.000000 0.000000 0.000000 4.917941 0.000000 -0.626413
#
#
# Mechanical properties :
#
#
# Convention : Reuss Voigt Hill
#
# Bulk Modulus (GPa) = 49.57577 50.77336 50.17456
# Shear Modulus (GPa) = -0.13308 27.07399 13.47045
#
# Velocity S-wave (km/s) = -0.24409 3.48156 2.45577
# Velocity P-wave (km/s) = 4.70277 6.23645 5.52310
#
# Compressibility (1/GPa) = 0.02017114
#
# Stress axis : x y z
#
# Youngs Moduli (GPa) = 73.88278 79.58287 91.67547
#
# Poissons Ratio (x) = 0.40202 0.22278
# Poissons Ratio (y) = 0.37323 0.08589
# Poissons Ratio (z) = 0.17954 0.07456
#
# Static dielectric constant tensor:
#      x y z
#    x 1.858040 0.000000 -0.127550 
#    y 0.000000 1.881810 0.000000 
#    z -0.127550 0.000000 1.973040 
# 
# From -- ./inp_files/125941.got.cif
#   From: 2010.05.17/outbox.cif.g08.bks.cpg/sg15_63_cif.got.tgz:125941.got - 2010.06.03 18:47:42.
