data_PCOD9291333
_publ_section_title
;
Structure prediction by ZEFSAII (Michael W. Deem and Ramdas Pophale) SiO2 
 PCOD9291333
Probable space group: C 2/C
;
_chemical_formula_sum "Si O2"
_cell_formula_units_Z 60
_cell_length_a 17.818789
_cell_length_b 26.157961
_cell_length_c 12.752276
_cell_angle_alpha 90.000000
_cell_angle_beta 27.978324
_cell_angle_gamma 90.000000
_cell_volume 2788.495327
_symmetry_space_group_name_H-M "C 2/C"
_symmetry_group_IT_number 15
_symmetry_cell_setting 'monoclinic'
loop_
_space_group_symop_operation_xyz
x,y,z
-x,y,1/2-z
-x,-y,-z
x,-y,1/2+z
1/2+x,1/2+y,z
1/2-x,1/2+y,1/2-z
1/2-x,1/2-y,-z
1/2+x,1/2-y,1/2+z
loop_
_atom_site_type_symbol
_atom_site_label
_atom_site_fract_x
_atom_site_fract_y
_atom_site_fract_z
Si Si1 0.468681 0.323181 0.167770
Si Si2 0.563304 0.562179 0.057831
Si Si3 0.838150 0.521829 0.251144
Si Si4 0.660582 0.800448 0.984196
Si Si5 0.794825 0.363818 0.144312
Si Si6 0.803204 0.901413 0.734255
Si Si7 0.500000 0.938835 0.750000
Si Si8 0.061096 0.268689 0.416968
O O1 0.500000 0.328214 0.250000
O O2 0.292175 0.335047 0.344262
O O3 0.575062 0.365357 0.978308
O O4 0.519624 0.268196 0.063506
O O5 0.500000 0.577991 0.250000
O O6 0.406490 0.558681 0.176433
O O7 0.682034 0.514110 0.927848
O O8 0.670965 0.605006 0.869110
O O9 0.801424 0.571365 0.225294
O O10 0.876046 0.530407 0.328150
O O11 0.000000 0.500000 0.000000
O O12 0.709657 0.860144 0.921479
O O13 0.815138 0.764017 0.808599
O O14 0.500000 0.794292 0.250000
O O15 0.599911 0.782182 0.945375
O O16 0.869152 0.321378 0.127489
O O17 0.911242 0.403907 0.945146
#
# Coordination Sequence:
#
# PCOD9291333 Si02
#       8
#     8   8   8   8   8   8   4   8
#     4  10  22  42  66  95 135 182 233 279 345 417
#     4  11  27  46  75 102 138 190 237 298 360 437
#     4  12  26  47  71 103 142 179 237 301 366 431
#     4  11  24  42  69 100 140 192 233 290 346 421
#     4  11  24  45  66 103 141 183 237 291 349 424
#     4  10  25  46  67 102 138 182 237 293 351 425
#     4  12  26  44  74 102 142 186 226 302 370 412
#     4  11  23  42  65 102 141 183 238 284 344 417
#
# _framework density 21.51698
#
# number of rings (size 3 to 8) (size 9 to 14) (size 15 to 20)
#    0.000    1.067    2.667    2.400    4.667    4.800 
#    0.000    0.000    0.000    0.000    0.000    0.000 
#    0.000    0.000    0.000    0.000    0.000    0.000 
#
# Total GULP energy -167542.214171 kJ/mol
# GULP energy per Si atom -5584.740472 kJ/mol
# Density = 2.146801 g / cm^3
# Si number density = 21.516980 Si / 1000 Ang^3
#
#
#
# Elastic Constant Matrix: (Units=GPa)
#
#
# Indices 1 2 3 4 5 6 
#
# 1 97.8409 37.0391 21.1810 -0.0341 -6.5628 -0.0051
# 2 37.0391 82.5236 18.8490 -0.0239 -8.2655 0.0140
# 3 21.1810 18.8490 67.5907 -0.0087 6.6564 0.0101
# 4 -0.0341 -0.0239 -0.0087 95.0151 0.0254 8.0701
# 5 -6.5628 -8.2655 6.6564 0.0254 38.2600 0.0102
# 6 -0.0051 0.0140 0.0101 8.0701 0.0102 23.1908
#
#
#
# Elastic Compliance Matrix: (Units=1/GPa)
#
#
# Indices 1 2 3 4 5 6 
#
# 1 0.012807 -0.004949 -0.002792 0.000002 0.001613 0.000006
# 2 -0.004949 0.015327 -0.003018 0.000002 0.002987 -0.000011
# 3 -0.002792 -0.003018 0.016913 0.000001 -0.004073 -0.000005
# 4 0.000002 0.000002 0.000001 0.010845 -0.000006 -0.003774
# 5 0.001613 0.002987 -0.004073 -0.000006 0.027768 -0.000010
# 6 0.000006 -0.000011 -0.000005 -0.003774 -0.000010 0.044434
#
#
# Mechanical properties :
#
#
# Convention : Reuss Voigt Hill
#
# Bulk Modulus (GPa) = 42.49975 44.67706 43.58841
# Shear Modulus (GPa) = 31.75530 42.68559 37.22044
#
# Velocity S-wave (km/s) = 3.84581 4.45883 4.16362
# Velocity P-wave (km/s) = 6.28610 6.87873 6.58908
#
# Compressibility (1/GPa) = 0.02352955
#
# Stress axis : x y z
#
# Youngs Moduli (GPa) = 78.08374 65.24271 59.12740
#
# Poissons Ratio (x) = 0.32287 0.16509
# Poissons Ratio (y) = 0.38641 0.17843
# Poissons Ratio (z) = 0.21802 0.19689
#
# Static dielectric constant tensor:
#      x y z
#    x 1.768240 -0.000010 -0.018610 
#    y -0.000010 1.802080 0.000030 
#    z -0.018610 0.000030 1.787160 
# 
# From -- ./inp_files/108427.got.cif
#   From: 2010.05.17/outbox.cif.g08.bks.cpg/sg15_55_cif.got.tgz:108427.got - 2010.06.03 18:47:42.
