data_PCOD9291819
_publ_section_title
;
Structure prediction by ZEFSAII (Michael W. Deem and Ramdas Pophale) SiO2 
 PCOD9291819
Probable space group: C 2/C
;
_chemical_formula_sum "Si O2"
_cell_formula_units_Z 52
_cell_length_a 10.231151
_cell_length_b 21.528778
_cell_length_c 11.651586
_cell_angle_alpha 90.000000
_cell_angle_beta 66.285149
_cell_angle_gamma 90.000000
_cell_volume 2349.713759
_symmetry_space_group_name_H-M "C 2/C"
_symmetry_group_IT_number 15
_symmetry_cell_setting 'monoclinic'
loop_
_space_group_symop_operation_xyz
x,y,z
-x,y,1/2-z
-x,-y,-z
x,-y,1/2+z
1/2+x,1/2+y,z
1/2-x,1/2+y,1/2-z
1/2-x,1/2-y,-z
1/2+x,1/2-y,1/2+z
loop_
_atom_site_type_symbol
_atom_site_label
_atom_site_fract_x
_atom_site_fract_y
_atom_site_fract_z
Si Si1 0.500000 0.953520 0.250000
Si Si2 0.843618 0.289010 0.055088
Si Si3 0.049668 0.071066 0.982067
Si Si4 0.192308 0.474077 0.974983
Si Si5 0.425532 0.873545 0.654094
Si Si6 0.762846 0.092054 0.799828
Si Si7 0.392528 0.670959 0.181213
O O1 0.400753 0.987675 0.378586
O O2 0.386007 0.914130 0.217999
O O3 0.740163 0.341093 0.143409
O O4 0.902072 0.240029 0.126647
O O5 0.750000 0.250000 0.000000
O O6 0.971110 0.326618 0.949727
O O7 0.182042 0.070156 0.023868
O O8 0.936996 0.120033 0.069553
O O9 0.109422 0.085086 0.835029
O O10 0.000000 0.000000 0.000000
O O11 0.104243 0.434350 0.913253
O O12 0.254790 0.535634 0.893638
O O13 0.500000 0.886346 0.750000
O O14 0.270824 0.843094 0.728887
O O15 0.500000 0.664202 0.250000
#
# Coordination Sequence:
#
# PCOD9291819 Si02
#       7
#     4   8   8   8   8   8   8
#     4  10  22  42  72 114 146 184 246 312 394 448
#     4  12  29  49  71 112 150 207 255 313 393 469
#     4  11  27  48  77 111 150 202 258 324 396 459
#     4  11  24  47  76 115 149 194 254 318 398 458
#     4  12  26  48  78 110 157 200 255 323 389 462
#     4  11  26  45  74 108 154 191 248 317 387 463
#     4  12  28  50  76 107 154 202 264 317 383 465
#
# _framework density 22.130355000000002
#
# number of rings (size 3 to 8) (size 9 to 14) (size 15 to 20)
#    0.000    0.615    4.615    1.385    6.462    1.846 
#    0.000    0.000    0.000    0.000    0.000    0.000 
#    0.000    0.000    0.000    0.000    0.000    0.000 
#
# Total GULP energy -145619.036585 kJ/mol
# GULP energy per Si atom -5600.732176 kJ/mol
# Density = 2.207999 g / cm^3
# Si number density = 22.130355 Si / 1000 Ang^3
#
#
#
# Elastic Constant Matrix: (Units=GPa)
#
#
# Indices 1 2 3 4 5 6 
#
# 1 80.9899 17.4080 38.7495 0.0000 3.7906 0.0000
# 2 17.4080 162.3431 98.5734 0.0000 -6.1142 0.0000
# 3 38.7495 98.5734 170.8754 0.0000 -7.8513 0.0000
# 4 0.0000 0.0000 0.0000 21.1102 0.0000 8.3984
# 5 3.7906 -6.1142 -7.8513 0.0000 41.1587 0.0000
# 6 0.0000 0.0000 0.0000 8.3984 0.0000 15.4432
#
#
#
# Elastic Compliance Matrix: (Units=1/GPa)
#
#
# Indices 1 2 3 4 5 6 
#
# 1 0.014039 0.000630 -0.003634 0.000000 -0.001893 0.000000
# 2 0.000630 0.009514 -0.005618 0.000000 0.000284 0.000000
# 3 -0.003634 -0.005618 0.009982 0.000000 0.001404 0.000000
# 4 0.000000 0.000000 0.000000 0.060449 0.000000 -0.032874
# 5 -0.001893 0.000284 0.001404 0.000000 0.024781 0.000000
# 6 0.000000 0.000000 0.000000 -0.032874 0.000000 0.082631
#
#
# Mechanical properties :
#
#
# Convention : Reuss Voigt Hill
#
# Bulk Modulus (GPa) = 61.38606 80.40780 70.89693
# Shear Modulus (GPa) = 22.31439 32.84092 27.57766
#
# Velocity S-wave (km/s) = 3.17884 3.85642 3.53391
# Velocity P-wave (km/s) = 6.42433 7.49946 6.98262
#
# Compressibility (1/GPa) = 0.01629034
#
# Stress axis : x y z
#
# Youngs Moduli (GPa) = 71.22980 105.10416 100.18149
#
# Poissons Ratio (x) = -0.06619 0.36405
# Poissons Ratio (y) = -0.04486 0.56286
# Poissons Ratio (z) = 0.25884 0.59051
#
# Static dielectric constant tensor:
#      x y z
#    x 1.863860 0.000000 0.025000 
#    y 0.000000 1.795000 0.000000 
#    z 0.025000 0.000000 1.802240 
# 
# From -- ./inp_files/89502.got.cif
#   From: 2010.05.17/outbox.cif.g08.bks.cpg/sg15_45_cif.got.tgz:89502.got - 2010.06.03 18:47:42.
