data_PCOD9291716
_publ_section_title
;
Structure prediction by ZEFSAII (Michael W. Deem and Ramdas Pophale) SiO2 
 PCOD9291716
Probable space group: C 2/C
;
_chemical_formula_sum "Si O2"
_cell_formula_units_Z 52
_cell_length_a 15.487388
_cell_length_b 9.033569
_cell_length_c 18.819543
_cell_angle_alpha 90.000000
_cell_angle_beta 117.489699
_cell_angle_gamma 90.000000
_cell_volume 2335.695258
_symmetry_space_group_name_H-M "C 2/C"
_symmetry_group_IT_number 15
_symmetry_cell_setting 'monoclinic'
loop_
_space_group_symop_operation_xyz
x,y,z
-x,y,1/2-z
-x,-y,-z
x,-y,1/2+z
1/2+x,1/2+y,z
1/2-x,1/2+y,1/2-z
1/2-x,1/2-y,-z
1/2+x,1/2-y,1/2+z
loop_
_atom_site_type_symbol
_atom_site_label
_atom_site_fract_x
_atom_site_fract_y
_atom_site_fract_z
Si Si1 0.000000 0.432574 0.250000
Si Si2 0.640690 0.946462 0.692256
Si Si3 0.354669 0.784716 0.504920
Si Si4 0.772991 0.259044 0.334087
Si Si5 0.618768 0.703970 0.388261
Si Si6 0.651857 0.129379 0.037920
Si Si7 0.078751 0.873306 0.338787
O O1 0.051495 0.533761 0.211243
O O2 0.077793 0.327252 0.319136
O O3 0.727452 0.863227 0.766182
O O4 0.620752 0.871979 0.608275
O O5 0.674374 0.113210 0.689021
O O6 0.250000 0.750000 0.500000
O O7 0.346669 0.709222 0.424410
O O8 0.426786 0.717444 0.590074
O O9 0.363232 0.960667 0.495582
O O10 0.682075 0.336564 0.340356
O O11 0.601916 0.763362 0.461862
O O12 0.734070 0.674277 0.421209
O O13 0.571279 0.545946 0.355413
O O14 0.000000 0.838954 0.250000
#
# Coordination Sequence:
#
# PCOD9291716 Si02
#       7
#     4   8   8   8   8   8   8
#     4  12  28  38  70  98 144 178 234 284 350 380
#     4  11  24  44  66 105 133 185 228 289 332 413
#     4   9  18  37  62  98 122 178 216 277 323 411
#     4  10  23  41  70  94 139 177 231 274 336 415
#     4  11  22  41  68  99 130 190 219 287 332 416
#     4  10  22  42  70  94 135 177 240 267 342 410
#     4  11  22  39  65 104 139 171 223 278 347 403
#
# _framework density 22.263176999999999
#
# number of rings (size 3 to 8) (size 9 to 14) (size 15 to 20)
#    0.000    1.538    5.385    0.923    5.385    1.846 
#    0.000    1.538    0.000    5.538    0.000    0.000 
#    0.000    0.000    0.000    0.000    0.000    0.000 
#
# Total GULP energy -145379.469704 kJ/mol
# GULP energy per Si atom -5591.518066 kJ/mol
# Density = 2.221251 g / cm^3
# Si number density = 22.263177 Si / 1000 Ang^3
#
#
#
# Elastic Constant Matrix: (Units=GPa)
#
#
# Indices 1 2 3 4 5 6 
#
# 1 72.3336 27.8250 47.6357 0.0000 -26.9652 0.0000
# 2 27.8250 73.9366 94.5781 0.0000 -10.6122 0.0000
# 3 47.6357 94.5781 211.8050 0.0000 -27.0178 0.0000
# 4 0.0000 0.0000 0.0000 53.7724 0.0000 -4.0596
# 5 -26.9652 -10.6122 -27.0178 0.0000 32.4799 0.0000
# 6 0.0000 0.0000 0.0000 -4.0596 0.0000 20.9307
#
#
#
# Elastic Compliance Matrix: (Units=1/GPa)
#
#
# Indices 1 2 3 4 5 6 
#
# 1 0.022338 -0.005366 -0.000543 0.000000 0.016340 0.000000
# 2 -0.005366 0.032903 -0.014188 0.000000 -0.005507 0.000000
# 3 -0.000543 -0.014188 0.011780 0.000000 0.004712 0.000000
# 4 0.000000 0.000000 0.000000 0.018873 0.000000 0.003661
# 5 0.016340 -0.005507 0.004712 0.000000 0.046475 0.000000
# 6 0.000000 0.000000 0.000000 0.003661 0.000000 0.048487
#
#
# Mechanical properties :
#
#
# Convention : Reuss Voigt Hill
#
# Bulk Modulus (GPa) = 37.27680 77.57252 57.42466
# Shear Modulus (GPa) = 21.73975 33.97236 27.85605
#
# Velocity S-wave (km/s) = 3.12827 3.91057 3.54109
# Velocity P-wave (km/s) = 5.46152 7.43701 6.52447
#
# Compressibility (1/GPa) = 0.02682634
#
# Stress axis : x y z
#
# Youngs Moduli (GPa) = 44.76587 30.39231 84.88982
#
# Poissons Ratio (x) = 0.16310 0.04613
# Poissons Ratio (y) = 0.24023 1.20440
# Poissons Ratio (z) = 0.02432 0.43120
#
# Static dielectric constant tensor:
#      x y z
#    x 1.958070 0.000000 0.041790 
#    y 0.000000 1.783510 0.000000 
#    z 0.041790 0.000000 1.853270 
# 
# From -- ./inp_files/209705.got.cif
#   From: 2010.05.17/outbox.cif.g08.bks.cpg/sg15_105_cif.got.tgz:209705.got - 2010.06.03 18:47:42.
