data_PCOD9291064
_publ_section_title
;
Structure prediction by ZEFSAII (Michael W. Deem and Ramdas Pophale) SiO2 
 PCOD9291064
Probable space group: C 2/C
;
_chemical_formula_sum "Si O2"
_cell_formula_units_Z 56
_cell_length_a 8.208951
_cell_length_b 12.221322
_cell_length_c 31.847337
_cell_angle_alpha 90.000000
_cell_angle_beta 57.859215
_cell_angle_gamma 90.000000
_cell_volume 2705.395818
_symmetry_space_group_name_H-M "C 2/C"
_symmetry_group_IT_number 15
_symmetry_cell_setting 'monoclinic'
loop_
_space_group_symop_operation_xyz
x,y,z
-x,y,1/2-z
-x,-y,-z
x,-y,1/2+z
1/2+x,1/2+y,z
1/2-x,1/2+y,1/2-z
1/2-x,1/2-y,-z
1/2+x,1/2-y,1/2+z
loop_
_atom_site_type_symbol
_atom_site_label
_atom_site_fract_x
_atom_site_fract_y
_atom_site_fract_z
Si Si1 0.992463 0.566476 0.582715
Si Si2 0.500000 0.524940 0.750000
Si Si3 0.506365 0.218851 0.505198
Si Si4 0.682650 0.574703 0.502491
Si Si5 0.000000 0.437431 0.750000
Si Si6 0.577221 0.891779 0.310205
Si Si7 0.075877 0.145913 0.310506
Si Si8 0.332933 0.423188 0.920111
O O1 0.992732 0.676729 0.554712
O O2 0.971371 0.587417 0.634595
O O3 0.816907 0.493329 0.588133
O O4 0.187426 0.500777 0.545257
O O5 0.692784 0.595005 0.726496
O O6 0.512166 0.444374 0.708459
O O7 0.462402 0.344711 0.501449
O O8 0.339699 0.151054 0.504211
O O9 0.703037 0.172064 0.458699
O O10 0.597538 0.501755 0.551822
O O11 0.988997 0.517085 0.791857
O O12 0.194682 0.368074 0.724639
O O13 0.517403 0.768926 0.306766
O O14 0.999213 0.120751 0.367525
#
# Coordination Sequence:
#
# PCOD9291064 Si02
#       8
#     8   4   8   8   4   8   8   8
#     4   9  17  32  56  85 114 152 195 237 282 348
#     4  10  22  42  64  82 112 154 198 250 304 350
#     4   8  15  29  52  83 118 155 193 228 283 347
#     4   8  15  29  50  84 126 150 185 240 283 336
#     4  10  26  42  56  86 120 146 194 258 300 354
#     4  11  22  40  62  86 115 153 197 247 301 352
#     4  11  22  40  62  86 115 153 197 247 301 352
#     4   9  17  32  56  85 114 152 195 237 282 348
#
# _framework density 20.699375
#
# number of rings (size 3 to 8) (size 9 to 14) (size 15 to 20)
#    0.000    2.571    1.429    2.571    0.000    2.286 
#    0.000    2.857    0.000    5.143    0.000    0.000 
#    0.000    0.000    0.000    0.000    0.000    0.000 
#
# Total GULP energy -156458.918055 kJ/mol
# GULP energy per Si atom -5587.818502 kJ/mol
# Density = 2.065226 g / cm^3
# Si number density = 20.699375 Si / 1000 Ang^3
#
#
#
# Elastic Constant Matrix: (Units=GPa)
#
#
# Indices 1 2 3 4 5 6 
#
# 1 39.9939 24.4939 1.0849 0.0000 12.7014 0.0000
# 2 24.4939 83.6482 31.2846 0.0000 8.6206 0.0000
# 3 1.0849 31.2846 117.2227 0.0000 18.5849 0.0000
# 4 0.0000 0.0000 0.0000 12.2067 0.0000 -5.9758
# 5 12.7014 8.6206 18.5849 0.0000 20.6608 0.0000
# 6 0.0000 0.0000 0.0000 -5.9758 0.0000 -7.2157
#
#
#
# Elastic Compliance Matrix: (Units=1/GPa)
#
#
# Indices 1 2 3 4 5 6 
#
# 1 0.040235 -0.011667 0.006871 0.000000 -0.026047 0.000000
# 2 -0.011667 0.016798 -0.005133 0.000000 0.004781 0.000000
# 3 0.006871 -0.005133 0.011858 0.000000 -0.012749 0.000000
# 4 0.000000 0.000000 0.000000 0.058290 0.000000 -0.048274
# 5 -0.026047 0.004781 -0.012749 0.000000 0.073887 0.000000
# 6 0.000000 0.000000 0.000000 -0.048274 0.000000 -0.098608
#
#
# Mechanical properties :
#
#
# Convention : Reuss Voigt Hill
#
# Bulk Modulus (GPa) = 20.39427 39.39907 29.89667
# Shear Modulus (GPa) = 36.05865 17.39713 26.72789
#
# Velocity S-wave (km/s) = 4.17827 2.90223 3.59728
# Velocity P-wave (km/s) = 5.75772 5.50507 5.63281
#
# Compressibility (1/GPa) = 0.04903339
#
# Stress axis : x y z
#
# Youngs Moduli (GPa) = 24.85400 59.53001 84.32835
#
# Poissons Ratio (x) = 0.69453 -0.57942
# Poissons Ratio (y) = 0.28997 0.43287
# Poissons Ratio (z) = -0.17077 0.30557
#
# Static dielectric constant tensor:
#      x y z
#    x 1.743890 0.000000 0.012740 
#    y 0.000000 1.734350 0.000000 
#    z 0.012740 0.000000 1.694660 
# 
# From -- ./inp_files/288099.got.cif
#   From: 2010.05.17/outbox.cif.g08.bks.cpg/sg15_145_cif.got.tgz:288099.got - 2010.06.03 18:47:42.
