data_PCOD9291701
_publ_section_title
;
Structure prediction by ZEFSAII (Michael W. Deem and Ramdas Pophale) SiO2 
 PCOD9291701
Probable space group: C 2/C
;
_chemical_formula_sum "Si O2"
_cell_formula_units_Z 48
_cell_length_a 29.240617
_cell_length_b 8.852546
_cell_length_c 14.651614
_cell_angle_alpha 90.000000
_cell_angle_beta 137.190231
_cell_angle_gamma 90.000000
_cell_volume 2577.342222
_symmetry_space_group_name_H-M "C 2/C"
_symmetry_group_IT_number 15
_symmetry_cell_setting 'monoclinic'
loop_
_space_group_symop_operation_xyz
x,y,z
-x,y,1/2-z
-x,-y,-z
x,-y,1/2+z
1/2+x,1/2+y,z
1/2-x,1/2+y,1/2-z
1/2-x,1/2-y,-z
1/2+x,1/2-y,1/2+z
loop_
_atom_site_type_symbol
_atom_site_label
_atom_site_fract_x
_atom_site_fract_y
_atom_site_fract_z
Si Si1 0.173308 0.563768 0.628370
Si Si2 0.192966 0.107676 0.224870
Si Si3 0.884951 0.429369 0.140531
Si Si4 0.055932 0.082191 0.520880
Si Si5 0.071359 0.580715 0.119966
Si Si6 0.000000 0.195960 0.250000
Si Si7 0.250000 0.250000 0.500000
O O1 0.180430 0.742475 0.647317
O O2 0.247169 0.489767 0.732461
O O3 0.134931 0.508926 0.482419
O O4 0.129460 0.502430 0.647844
O O5 0.216767 0.165208 0.359198
O O6 0.125298 0.009780 0.128428
O O7 0.910333 0.555124 0.248212
O O8 0.942344 0.305126 0.205933
O O9 0.820480 0.342088 0.085560
O O10 0.066962 0.248946 0.578324
O O11 0.030825 0.101688 0.379503
O O12 0.000000 0.000000 0.500000
O O13 0.000000 0.500000 0.000000
#
# Coordination Sequence:
#
# PCOD9291701 Si02
#       7
#     8   8   8   8   8   4   4
#     4  11  23  42  66  97 130 173 219 275 334 398
#     4  11  24  44  65  98 133 174 221 278 331 399
#     4  11  22  41  69  98 127 179 220 273 340 399
#     4  12  26  43  66 101 138 177 223 276 331 402
#     4  12  22  42  69  96 133 172 226 271 332 401
#     4  12  24  42  70  96 134 182 216 274 350 384
#     4  10  22  42  70  90 130 178 216 272 348 380
#
# _framework density 18.623836000000001
#
# number of rings (size 3 to 8) (size 9 to 14) (size 15 to 20)
#    0.000    0.667    5.000    3.000    2.333    1.333 
#    3.000    2.500    0.000    0.000    0.000    0.000 
#    0.000    0.000    0.000    0.000    0.000    0.000 
#
# Total GULP energy -133622.481614 kJ/mol
# GULP energy per Si atom -5567.603401 kJ/mol
# Density = 1.858145 g / cm^3
# Si number density = 18.623836 Si / 1000 Ang^3
#
#
#
# Elastic Constant Matrix: (Units=GPa)
#
#
# Indices 1 2 3 4 5 6 
#
# 1 89.4414 41.1544 54.4320 0.0000 8.6296 0.0000
# 2 41.1544 104.3528 39.4806 0.0000 14.2488 0.0000
# 3 54.4320 39.4806 119.6893 0.0000 12.3051 0.0000
# 4 0.0000 0.0000 0.0000 20.2063 0.0000 5.1969
# 5 8.6296 14.2488 12.3051 0.0000 35.3095 0.0000
# 6 0.0000 0.0000 0.0000 5.1969 0.0000 43.7348
#
#
#
# Elastic Compliance Matrix: (Units=1/GPa)
#
#
# Indices 1 2 3 4 5 6 
#
# 1 0.017010 -0.004295 -0.006295 0.000000 -0.000230 0.000000
# 2 -0.004295 0.012412 -0.001798 0.000000 -0.003332 0.000000
# 3 -0.006295 -0.001798 0.012009 0.000000 -0.001921 0.000000
# 4 0.000000 0.000000 0.000000 0.051050 0.000000 -0.006066
# 5 -0.000230 -0.003332 -0.001921 0.000000 0.030391 0.000000
# 6 0.000000 0.000000 0.000000 -0.006066 0.000000 0.023586
#
#
# Mechanical properties :
#
#
# Convention : Reuss Voigt Hill
#
# Bulk Modulus (GPa) = 60.04856 64.84638 62.44747
# Shear Modulus (GPa) = 28.28263 31.74456 30.01360
#
# Velocity S-wave (km/s) = 3.90118 4.13305 4.01879
# Velocity P-wave (km/s) = 7.25294 7.59413 7.42549
#
# Compressibility (1/GPa) = 0.01665319
#
# Stress axis : x y z
#
# Youngs Moduli (GPa) = 58.78791 80.56582 83.27356
#
# Poissons Ratio (x) = 0.34605 0.52424
# Poissons Ratio (y) = 0.25251 0.14975
# Poissons Ratio (z) = 0.37009 0.14488
#
# Static dielectric constant tensor:
#      x y z
#    x 1.601220 0.000000 -0.037960 
#    y 0.000000 1.606510 0.000000 
#    z -0.037960 0.000000 1.624330 
# 
# From -- ./inp_files/166184.got.cif
#   From: 2010.05.17/outbox.cif.g08.bks.cpg/sg15_84_cif.got.tgz:166184.got - 2010.06.03 18:47:42.
