data_PCOD9291901
_publ_section_title
;
Structure prediction by ZEFSAII (Michael W. Deem and Ramdas Pophale) SiO2 
 PCOD9291901
Probable space group: C 2/C
;
_chemical_formula_sum "Si O2"
_cell_formula_units_Z 44
_cell_length_a 16.545101
_cell_length_b 29.751399
_cell_length_c 8.674940
_cell_angle_alpha 90.000000
_cell_angle_beta 155.487760
_cell_angle_gamma 90.000000
_cell_volume 1771.633067
_symmetry_space_group_name_H-M "C 2/C"
_symmetry_group_IT_number 15
_symmetry_cell_setting 'monoclinic'
loop_
_space_group_symop_operation_xyz
x,y,z
-x,y,1/2-z
-x,-y,-z
x,-y,1/2+z
1/2+x,1/2+y,z
1/2-x,1/2+y,1/2-z
1/2-x,1/2-y,-z
1/2+x,1/2-y,1/2+z
loop_
_atom_site_type_symbol
_atom_site_label
_atom_site_fract_x
_atom_site_fract_y
_atom_site_fract_z
Si Si1 0.807830 0.366616 0.308763
Si Si2 0.519546 0.215556 0.095197
Si Si3 0.761916 0.452945 0.677653
Si Si4 0.500000 0.624847 0.750000
Si Si5 0.773974 0.547197 0.559311
Si Si6 0.444580 0.311329 0.396142
O O1 0.728814 0.410361 0.086915
O O2 0.643519 0.341285 0.121579
O O3 0.888417 0.327821 0.334580
O O4 0.000000 0.377688 0.750000
O O5 0.500000 0.222489 0.250000
O O6 0.471845 0.261987 0.927543
O O7 0.743661 0.201920 0.455945
O O8 0.657853 0.407613 0.443560
O O9 0.698861 0.500460 0.498494
O O10 0.719778 0.451324 0.786650
O O11 0.989952 0.451775 0.037405
O O12 0.426005 0.657499 0.487623
#
# Coordination Sequence:
#
# PCOD9291901 Si02
#       6
#     8   8   8   4   8   8
#     4   9  18  31  58  84 112 156 205 239 291 354
#     4   8  14  29  50  86 110 155 196 249 274 355
#     4  10  24  39  64  84 121 152 205 247 302 345
#     4  12  22  36  56  96 118 158 190 260 298 354
#     4  10  22  43  60  87 114 165 200 246 289 373
#     4   9  17  28  52  84 121 146 198 240 298 342
#
# _framework density 24.835842
#
# number of rings (size 3 to 8) (size 9 to 14) (size 15 to 20)
#    0.000    2.909    0.909    2.182    7.636    0.727 
#    0.000    0.000    0.000    1.091    9.455    0.000 
#    0.000    0.000    0.000    0.000    0.000    0.000 
#
# Total GULP energy -122931.980498 kJ/mol
# GULP energy per Si atom -5587.817295 kJ/mol
# Density = 2.477931 g / cm^3
# Si number density = 24.835842 Si / 1000 Ang^3
#
#
#
# Elastic Constant Matrix: (Units=GPa)
#
#
# Indices 1 2 3 4 5 6 
#
# 1 74.8039 50.8521 22.7252 -0.0001 6.9130 -0.0001
# 2 50.8521 180.4197 23.0759 0.0000 -14.7908 0.0000
# 3 22.7252 23.0759 49.4030 -0.0003 4.6910 -0.0002
# 4 -0.0001 0.0000 -0.0003 21.4609 -0.0001 2.2155
# 5 6.9130 -14.7908 4.6910 -0.0001 22.8820 -0.0001
# 6 -0.0001 0.0000 -0.0002 2.2155 -0.0001 52.4581
#
#
#
# Elastic Compliance Matrix: (Units=1/GPa)
#
#
# Indices 1 2 3 4 5 6 
#
# 1 0.019575 -0.005473 -0.005661 0.000000 -0.008291 0.000000
# 2 -0.005473 0.007908 -0.001855 0.000000 0.007146 0.000000
# 3 -0.005661 -0.001855 0.024133 0.000000 -0.004436 0.000000
# 4 0.000000 0.000000 0.000000 0.046800 0.000000 -0.001977
# 5 -0.008291 0.007146 -0.004436 0.000000 0.051736 0.000000
# 6 0.000000 0.000000 0.000000 -0.001977 0.000000 0.019146
#
#
# Mechanical properties :
#
#
# Convention : Reuss Voigt Hill
#
# Bulk Modulus (GPa) = 39.00269 55.32590 47.16430
# Shear Modulus (GPa) = 24.53124 33.22510 28.87817
#
# Velocity S-wave (km/s) = 3.14624 3.66155 3.41363
# Velocity P-wave (km/s) = 5.37928 6.34042 5.87952
#
# Compressibility (1/GPa) = 0.02563926
#
# Stress axis : x y z
#
# Youngs Moduli (GPa) = 51.08629 126.45046 41.43667
#
# Poissons Ratio (x) = 0.69205 0.23456
# Poissons Ratio (y) = 0.27959 0.07686
# Poissons Ratio (z) = 0.28918 0.23455
#
# Static dielectric constant tensor:
#      x y z
#    x 1.967860 0.000000 0.003480 
#    y 0.000000 1.976170 0.000000 
#    z 0.003480 0.000000 2.027480 
# 
# From -- ./inp_files/52704.got.cif
#   From: 2010.05.17/outbox.cif.g08.bks.cpg/sg15_27_cif.got.tgz:52704.got - 2010.06.03 18:47:42.
