data_PCOD9291752
_publ_section_title
;
Structure prediction by ZEFSAII (Michael W. Deem and Ramdas Pophale) SiO2 
 PCOD9291752
Probable space group: C 2/C
;
_chemical_formula_sum "Si O2"
_cell_formula_units_Z 56
_cell_length_a 15.558178
_cell_length_b 8.868904
_cell_length_c 24.895693
_cell_angle_alpha 90.000000
_cell_angle_beta 131.891289
_cell_angle_gamma 90.000000
_cell_volume 2557.212982
_symmetry_space_group_name_H-M "C 2/C"
_symmetry_group_IT_number 15
_symmetry_cell_setting 'monoclinic'
loop_
_space_group_symop_operation_xyz
x,y,z
-x,y,1/2-z
-x,-y,-z
x,-y,1/2+z
1/2+x,1/2+y,z
1/2-x,1/2+y,1/2-z
1/2-x,1/2-y,-z
1/2+x,1/2-y,1/2+z
loop_
_atom_site_type_symbol
_atom_site_label
_atom_site_fract_x
_atom_site_fract_y
_atom_site_fract_z
Si Si1 0.376446 0.722816 0.169989
Si Si2 0.740625 0.336411 0.212339
Si Si3 0.882090 0.009155 0.591807
Si Si4 0.992385 0.679492 0.509354
Si Si5 0.140821 0.408801 0.446993
Si Si6 0.502101 0.792291 0.610798
Si Si7 0.381702 0.651346 0.350772
O O1 0.500000 0.744218 0.250000
O O2 0.280278 0.770135 0.171969
O O3 0.363899 0.551457 0.144456
O O4 0.365600 0.817192 0.110627
O O5 0.626905 0.248806 0.185608
O O6 0.707478 0.511555 0.190906
O O7 0.841005 0.286569 0.294977
O O8 0.998218 0.925488 0.618873
O O9 0.767936 0.972861 0.510443
O O10 0.909248 0.183956 0.599116
O O11 0.891684 0.684099 0.512310
O O12 0.984329 0.748846 0.446854
O O13 0.000000 0.500000 0.500000
O O14 0.095305 0.768350 0.582621
O O15 0.045425 0.540213 0.403927
#
# Coordination Sequence:
#
# PCOD9291752 Si02
#       7
#     8   8   8   8   8   8   8
#     4  12  24  43  67  96 131 179 223 272 344 404
#     4  11  26  43  71  94 138 180 229 281 344 414
#     4  11  23  43  66 100 135 171 225 282 332 408
#     4  10  22  42  70  99 132 178 227 276 340 400
#     4  11  23  43  69  96 137 171 221 281 338 404
#     4  10  25  43  67  99 134 177 224 283 340 397
#     4  11  25  45  67 101 134 180 231 282 335 413
#
# _framework density 21.898841000000001
#
# number of rings (size 3 to 8) (size 9 to 14) (size 15 to 20)
#    0.000    1.143    2.857    1.714   10.000    1.143 
#    0.000    0.714    0.000    0.000    0.000    0.000 
#    0.000    0.000    0.000    0.000    0.000    0.000 
#
# Total GULP energy -156347.059653 kJ/mol
# GULP energy per Si atom -5583.823559 kJ/mol
# Density = 2.184900 g / cm^3
# Si number density = 21.898841 Si / 1000 Ang^3
#
#
#
# Elastic Constant Matrix: (Units=GPa)
#
#
# Indices 1 2 3 4 5 6 
#
# 1 48.2453 25.2331 10.0091 0.0000 2.8003 0.0000
# 2 25.2331 92.7585 25.9365 0.0000 11.6518 0.0000
# 3 10.0091 25.9365 80.6567 0.0000 7.9412 0.0000
# 4 0.0000 0.0000 0.0000 32.3771 0.0000 1.4383
# 5 2.8003 11.6518 7.9412 0.0000 26.7260 0.0000
# 6 0.0000 0.0000 0.0000 1.4383 0.0000 36.3600
#
#
#
# Elastic Compliance Matrix: (Units=1/GPa)
#
#
# Indices 1 2 3 4 5 6 
#
# 1 0.024243 -0.006380 -0.001010 0.000000 0.000542 0.000000
# 2 -0.006380 0.013990 -0.003268 0.000000 -0.004460 0.000000
# 3 -0.001010 -0.003268 0.013828 0.000000 -0.002578 0.000000
# 4 0.000000 0.000000 0.000000 0.030940 0.000000 -0.001224
# 5 0.000542 -0.004460 -0.002578 0.000000 0.040071 0.000000
# 6 0.000000 0.000000 0.000000 -0.001224 0.000000 0.027551
#
#
# Mechanical properties :
#
#
# Convention : Reuss Voigt Hill
#
# Bulk Modulus (GPa) = 32.52609 38.22420 35.37514
# Shear Modulus (GPa) = 27.44420 29.79141 28.61780
#
# Velocity S-wave (km/s) = 3.54393 3.69238 3.61892
# Velocity P-wave (km/s) = 5.62415 5.97252 5.80095
#
# Compressibility (1/GPa) = 0.03074455
#
# Stress axis : x y z
#
# Youngs Moduli (GPa) = 41.24985 71.47806 72.31563
#
# Poissons Ratio (x) = 0.45605 0.07304
# Poissons Ratio (y) = 0.26319 0.23632
# Poissons Ratio (z) = 0.04166 0.23359
#
# Static dielectric constant tensor:
#      x y z
#    x 1.810320 0.000000 0.030220 
#    y 0.000000 1.838720 0.000000 
#    z 0.030220 0.000000 1.815710 
# 
# From -- ./inp_files/298575.got.cif
#   From: 2010.05.17/outbox.cif.g08.bks.cpg/sg15_150_cif.got.tgz:298575.got - 2010.06.03 18:47:42.
