data_PCOD9291548
_publ_section_title
;
Structure prediction by ZEFSAII (Michael W. Deem and Ramdas Pophale) SiO2 
 PCOD9291548
Probable space group: C 2/C
;
_chemical_formula_sum "Si O2"
_cell_formula_units_Z 56
_cell_length_a 23.545330
_cell_length_b 5.531435
_cell_length_c 15.720335
_cell_angle_alpha 90.000000
_cell_angle_beta 96.923578
_cell_angle_gamma 90.000000
_cell_volume 2032.477912
_symmetry_space_group_name_H-M "C 2/C"
_symmetry_group_IT_number 15
_symmetry_cell_setting 'monoclinic'
loop_
_space_group_symop_operation_xyz
x,y,z
-x,y,1/2-z
-x,-y,-z
x,-y,1/2+z
1/2+x,1/2+y,z
1/2-x,1/2+y,1/2-z
1/2-x,1/2-y,-z
1/2+x,1/2-y,1/2+z
loop_
_atom_site_type_symbol
_atom_site_label
_atom_site_fract_x
_atom_site_fract_y
_atom_site_fract_z
Si Si1 0.225314 0.046032 0.054660
Si Si2 0.707615 0.056506 0.678461
Si Si3 0.126310 0.760889 0.048982
Si Si4 0.557118 0.949539 0.915090
Si Si5 0.816330 0.777993 0.656014
Si Si6 0.934046 0.290627 0.240723
Si Si7 0.953853 0.171872 0.427508
O O1 0.203367 0.182098 0.134629
O O2 0.165597 0.951522 0.005757
O O3 0.275938 0.857070 0.079556
O O4 0.250000 0.250000 0.000000
O O5 0.670242 0.857142 0.622939
O O6 0.774279 0.989651 0.679311
O O7 0.687663 0.074251 0.770479
O O8 0.073099 0.901304 0.081820
O O9 0.109109 0.555628 0.979764
O O10 0.562834 0.959215 0.814393
O O11 0.510337 0.162083 0.922799
O O12 0.547222 0.709911 0.968641
O O13 0.883674 0.842941 0.678434
O O14 0.920356 0.290935 0.339106
O O15 0.000000 0.188146 0.250000
#
# Coordination Sequence:
#
# PCOD9291548 Si02
#       7
#     8   8   8   8   8   8   8
#     4  11  26  40  61  97 128 167 218 273 332 392
#     4  11  24  43  66  98 127 176 222 275 335 401
#     4  11  23  39  66  91 131 173 220 270 339 397
#     4  10  22  42  68  96 134 177 225 274 338 400
#     4  11  23  41  70  92 132 175 221 272 333 404
#     4  10  23  41  67 100 132 172 222 280 333 399
#     4  10  22  43  67  97 134 176 223 279 335 403
#
# _framework density 27.552576999999999
#
# number of rings (size 3 to 8) (size 9 to 14) (size 15 to 20)
#    0.000    1.429    1.429    3.000    8.000    1.143 
#    0.000    1.429    0.000    6.000    0.000    0.000 
#    0.000    0.000    0.000    0.000    0.000    0.000 
#
# Total GULP energy -155945.658479 kJ/mol
# GULP energy per Si atom -5569.487803 kJ/mol
# Density = 2.748987 g / cm^3
# Si number density = 27.552577 Si / 1000 Ang^3
#
#
#
# Elastic Constant Matrix: (Units=GPa)
#
#
# Indices 1 2 3 4 5 6 
#
# 1 150.3698 21.4734 7.1428 0.0000 42.2339 0.0000
# 2 21.4734 42.8368 -5.8831 0.0000 12.9806 0.0000
# 3 7.1428 -5.8831 145.9240 0.0000 21.5302 0.0000
# 4 0.0000 0.0000 0.0000 30.1527 0.0000 -4.3234
# 5 42.2339 12.9806 21.5302 0.0000 52.1233 0.0000
# 6 0.0000 0.0000 0.0000 -4.3234 0.0000 3.8408
#
#
#
# Elastic Compliance Matrix: (Units=1/GPa)
#
#
# Indices 1 2 3 4 5 6 
#
# 1 0.008871 -0.002319 0.000477 0.000000 -0.006807 0.000000
# 2 -0.002319 0.026458 0.001997 0.000000 -0.005535 0.000000
# 3 0.000477 0.001997 0.007497 0.000000 -0.003980 0.000000
# 4 0.000000 0.000000 0.000000 0.039547 0.000000 0.044516
# 5 -0.006807 -0.005535 -0.003980 0.000000 0.027723 0.000000
# 6 0.000000 0.000000 0.000000 0.044516 0.000000 0.310470
#
#
# Mechanical properties :
#
#
# Convention : Reuss Voigt Hill
#
# Bulk Modulus (GPa) = 23.18239 42.73297 32.95768
# Shear Modulus (GPa) = 11.50388 38.31654 24.91021
#
# Velocity S-wave (km/s) = 2.04556 3.73321 3.01008
# Velocity P-wave (km/s) = 3.74316 5.84173 4.90597
#
# Compressibility (1/GPa) = 0.04313619
#
# Stress axis : x y z
#
# Youngs Moduli (GPa) = 112.73182 37.79549 133.38055
#
# Poissons Ratio (x) = 0.08763 -0.06358
# Poissons Ratio (y) = 0.26137 -0.26635
# Poissons Ratio (z) = -0.05374 -0.07547
#
# Static dielectric constant tensor:
#      x y z
#    x 2.453550 0.000000 -0.226490 
#    y 0.000000 2.224030 0.000000 
#    z -0.226490 0.000000 2.479670 
# 
# From -- ./inp_files/221281.got.cif
#   From: 2010.05.17/outbox.cif.g08.bks.cpg/sg15_111_cif.got.tgz:221281.got - 2010.06.03 18:47:42.
