data_PCOD9291089
_publ_section_title
;
Structure prediction by ZEFSAII (Michael W. Deem and Ramdas Pophale) SiO2 
 PCOD9291089
Probable space group: C 2/C
;
_chemical_formula_sum "Si O2"
_cell_formula_units_Z 44
_cell_length_a 27.926206
_cell_length_b 6.363639
_cell_length_c 13.483464
_cell_angle_alpha 90.000000
_cell_angle_beta 116.956068
_cell_angle_gamma 90.000000
_cell_volume 2135.843103
_symmetry_space_group_name_H-M "C 2/C"
_symmetry_group_IT_number 15
_symmetry_cell_setting 'monoclinic'
loop_
_space_group_symop_operation_xyz
x,y,z
-x,y,1/2-z
-x,-y,-z
x,-y,1/2+z
1/2+x,1/2+y,z
1/2-x,1/2+y,1/2-z
1/2-x,1/2-y,-z
1/2+x,1/2-y,1/2+z
loop_
_atom_site_type_symbol
_atom_site_label
_atom_site_fract_x
_atom_site_fract_y
_atom_site_fract_z
Si Si1 0.635620 0.409304 0.678092
Si Si2 0.000000 0.084420 0.250000
Si Si3 0.967903 0.614446 0.882578
Si Si4 0.411631 0.256447 0.222065
Si Si5 0.824093 0.251962 0.487386
Si Si6 0.267368 0.437075 0.586745
O O1 0.585527 0.247448 0.638743
O O2 0.616686 0.631382 0.708931
O O3 0.655013 0.388737 0.583618
O O4 0.688221 0.357969 0.793718
O O5 0.996667 0.225646 0.148612
O O6 0.052335 0.940184 0.290771
O O7 0.948582 0.428684 0.794011
O O8 0.000000 0.500000 0.000000
O O9 0.372760 0.165845 0.100989
O O10 0.783736 0.437560 0.416100
O O11 0.794745 0.102594 0.538421
O O12 0.250000 0.250000 0.500000
#
# Coordination Sequence:
#
# PCOD9291089 Si02
#       6
#     8   4   8   8   8   8
#     4  10  24  40  63  99 123 167 217 256 327 385
#     4  10  24  40  66  92 130 170 214 266 324 378
#     4  11  25  41  67  97 127 172 219 260 324 387
#     4  10  23  43  63  92 134 164 217 267 319 391
#     4  10  23  40  66  91 126 167 208 263 323 379
#     4  10  22  42  64  91 127 159 211 265 317 378
#
# _framework density 20.600763000000001
#
# number of rings (size 3 to 8) (size 9 to 14) (size 15 to 20)
#    0.000    1.818    0.000    1.636   10.182    2.909 
#    0.000    0.000    0.000    0.000    0.000    0.000 
#    0.000    0.000    0.000    0.000    0.000    0.000 
#
# Total GULP energy -122776.781712 kJ/mol
# GULP energy per Si atom -5580.762805 kJ/mol
# Density = 2.055387 g / cm^3
# Si number density = 20.600763 Si / 1000 Ang^3
#
#
#
# Elastic Constant Matrix: (Units=GPa)
#
#
# Indices 1 2 3 4 5 6 
#
# 1 82.8999 9.5445 33.5368 0.0000 -10.1238 0.0000
# 2 9.5445 31.5372 2.5492 0.0000 5.4635 0.0000
# 3 33.5368 2.5492 89.9081 0.0000 10.4444 0.0000
# 4 0.0000 0.0000 0.0000 30.5620 0.0000 1.8607
# 5 -10.1238 5.4635 10.4444 0.0000 29.8422 0.0000
# 6 0.0000 0.0000 0.0000 1.8607 0.0000 -2.2968
#
#
#
# Elastic Compliance Matrix: (Units=1/GPa)
#
#
# Indices 1 2 3 4 5 6 
#
# 1 0.016815 -0.006126 -0.007183 0.000000 0.009340 0.000000
# 2 -0.006126 0.034984 0.002375 0.000000 -0.009315 0.000000
# 3 -0.007183 0.002375 0.014664 0.000000 -0.008004 0.000000
# 4 0.000000 0.000000 0.000000 0.031182 0.000000 0.025263
# 5 0.009340 -0.009315 -0.008004 0.000000 0.041185 0.000000
# 6 0.000000 0.000000 0.000000 0.025263 0.000000 -0.414928
#
#
# Mechanical properties :
#
#
# Convention : Reuss Voigt Hill
#
# Bulk Modulus (GPa) = 22.42415 32.84512 27.63464
# Shear Modulus (GPa) = -20.88874 22.20246 0.65686
#
# Velocity S-wave (km/s) = -3.18776 3.28647 0.56528
# Velocity P-wave (km/s) = 1.62491 5.51176 3.72419
#
# Compressibility (1/GPa) = 0.04459477
#
# Stress axis : x y z
#
# Youngs Moduli (GPa) = 59.47188 28.58421 68.19226
#
# Poissons Ratio (x) = 0.17511 0.48985
# Poissons Ratio (y) = 0.36434 -0.16198
# Poissons Ratio (z) = 0.42721 -0.06790
#
# Static dielectric constant tensor:
#      x y z
#    x 1.757030 0.000000 0.023420 
#    y 0.000000 1.718180 0.000000 
#    z 0.023420 0.000000 1.730450 
# 
# From -- ./inp_files/175778.got.cif
#   From: 2010.05.17/outbox.cif.g08.bks.cpg/sg15_88_cif.got.tgz:175778.got - 2010.06.03 18:47:42.
