data_PCOD9291790
_publ_section_title
;
Structure prediction by ZEFSAII (Michael W. Deem and Ramdas Pophale) SiO2 
 PCOD9291790
Probable space group: C 2/C
;
_chemical_formula_sum "Si O2"
_cell_formula_units_Z 40
_cell_length_a 7.568926
_cell_length_b 20.631241
_cell_length_c 11.158789
_cell_angle_alpha 90.000000
_cell_angle_beta 90.573244
_cell_angle_gamma 90.000000
_cell_volume 1742.428397
_symmetry_space_group_name_H-M "C 2/C"
_symmetry_group_IT_number 15
_symmetry_cell_setting 'monoclinic'
loop_
_space_group_symop_operation_xyz
x,y,z
-x,y,1/2-z
-x,-y,-z
x,-y,1/2+z
1/2+x,1/2+y,z
1/2-x,1/2+y,1/2-z
1/2-x,1/2-y,-z
1/2+x,1/2-y,1/2+z
loop_
_atom_site_type_symbol
_atom_site_label
_atom_site_fract_x
_atom_site_fract_y
_atom_site_fract_z
Si Si1 0.309719 0.144472 0.298975
Si Si2 0.000000 0.861726 0.250000
Si Si3 0.000000 0.753371 0.750000
Si Si4 0.214053 0.063906 0.082431
Si Si5 0.678513 0.423577 0.019002
Si Si6 0.796683 0.313392 0.425948
O O1 0.500000 0.165124 0.250000
O O2 0.165760 0.199284 0.268989
O O3 0.260923 0.081183 0.218736
O O4 0.293000 0.124649 0.437805
O O5 0.144679 0.822635 0.325608
O O6 0.890535 0.900840 0.350940
O O7 0.975353 0.706014 0.861422
O O8 0.003158 0.067961 0.058747
O O9 0.294532 0.121986 0.004051
O O10 0.268682 0.993069 0.039160
O O11 0.750000 0.250000 0.500000
#
# Coordination Sequence:
#
# PCOD9291790 Si02
#       6
#     8   4   4   8   8   8
#     4  12  25  44  73 105 141 192 242 297 364 429
#     4  10  24  43  74 114 135 192 252 288 368 428
#     4  12  24  45  72  96 143 192 232 298 354 430
#     4  10  22  42  72 100 146 185 237 292 372 423
#     4  10  22  43  73 107 141 186 238 305 355 437
#     4  11  23  44  66 103 145 184 240 295 349 435
#
# _framework density 22.956465999999999
#
# number of rings (size 3 to 8) (size 9 to 14) (size 15 to 20)
#    0.000    1.200    4.000    1.200    9.800    2.400 
#    1.800    3.000    0.000    0.000    0.000    0.000 
#    0.000    0.000    0.000    0.000    0.000    0.000 
#
# Total GULP energy -111866.534421 kJ/mol
# GULP energy per Si atom -5593.326721 kJ/mol
# Density = 2.290422 g / cm^3
# Si number density = 22.956466 Si / 1000 Ang^3
#
#
#
# Elastic Constant Matrix: (Units=GPa)
#
#
# Indices 1 2 3 4 5 6 
#
# 1 104.7015 45.6393 45.0005 0.0000 -15.1090 0.0000
# 2 45.6393 141.2120 68.9662 0.0000 -21.5588 0.0000
# 3 45.0005 68.9662 155.2398 0.0000 -24.0031 0.0000
# 4 0.0000 0.0000 0.0000 17.2254 0.0000 -5.1825
# 5 -15.1090 -21.5588 -24.0031 0.0000 50.3765 0.0000
# 6 0.0000 0.0000 0.0000 -5.1825 0.0000 20.7386
#
#
#
# Elastic Compliance Matrix: (Units=1/GPa)
#
#
# Indices 1 2 3 4 5 6 
#
# 1 0.011763 -0.002585 -0.002037 0.000000 0.001451 0.000000
# 2 -0.002585 0.009825 -0.003331 0.000000 0.001842 0.000000
# 3 -0.002037 -0.003331 0.008849 0.000000 0.002180 0.000000
# 4 0.000000 0.000000 0.000000 0.062773 0.000000 0.015687
# 5 0.001451 0.001842 0.002180 0.000000 0.022113 0.000000
# 6 0.000000 0.000000 0.000000 0.015687 0.000000 0.052139
#
#
# Mechanical properties :
#
#
# Convention : Reuss Voigt Hill
#
# Bulk Modulus (GPa) = 68.81830 80.04060 74.42945
# Shear Modulus (GPa) = 26.56590 33.77125 30.16858
#
# Velocity S-wave (km/s) = 3.40550 3.83965 3.62907
# Velocity P-wave (km/s) = 6.74582 7.38913 7.07479
#
# Compressibility (1/GPa) = 0.01453102
#
# Stress axis : x y z
#
# Youngs Moduli (GPa) = 85.01421 101.78120 113.01044
#
# Poissons Ratio (x) = 0.26315 0.23018
# Poissons Ratio (y) = 0.21980 0.37638
# Poissons Ratio (z) = 0.17316 0.33898
#
# Static dielectric constant tensor:
#      x y z
#    x 1.904050 0.000000 -0.019390 
#    y 0.000000 1.821410 0.000000 
#    z -0.019390 0.000000 1.866320 
# 
# From -- ./inp_files/77759.got.cif
#   From: 2010.05.17/outbox.cif.g08.bks.cpg/sg15_39_cif.got.tgz:77759.got - 2010.06.03 18:47:42.
