data_PCOD9291268
_publ_section_title
;
Structure prediction by ZEFSAII (Michael W. Deem and Ramdas Pophale) SiO2 
 PCOD9291268
Probable space group: C 2/C
;
_chemical_formula_sum "Si O2"
_cell_formula_units_Z 44
_cell_length_a 10.611359
_cell_length_b 9.237621
_cell_length_c 19.243337
_cell_angle_alpha 90.000000
_cell_angle_beta 108.373264
_cell_angle_gamma 90.000000
_cell_volume 1790.145630
_symmetry_space_group_name_H-M "C 2/C"
_symmetry_group_IT_number 15
_symmetry_cell_setting 'monoclinic'
loop_
_space_group_symop_operation_xyz
x,y,z
-x,y,1/2-z
-x,-y,-z
x,-y,1/2+z
1/2+x,1/2+y,z
1/2-x,1/2+y,1/2-z
1/2-x,1/2-y,-z
1/2+x,1/2-y,1/2+z
loop_
_atom_site_type_symbol
_atom_site_label
_atom_site_fract_x
_atom_site_fract_y
_atom_site_fract_z
Si Si1 0.305378 0.556334 0.561550
Si Si2 0.041139 0.293517 0.991229
Si Si3 0.500000 0.789963 0.250000
Si Si4 0.750000 0.750000 0.500000
Si Si5 0.000000 0.787981 0.250000
Si Si6 0.998889 0.540707 0.347245
Si Si7 0.813604 0.965051 0.718772
O O1 0.177166 0.658987 0.552371
O O2 0.418652 0.651408 0.545919
O O3 0.263914 0.426639 0.504393
O O4 0.340865 0.481311 0.640675
O O5 0.008263 0.418477 0.928853
O O6 0.911776 0.263816 0.012978
O O7 0.616013 0.682090 0.245577
O O8 0.550276 0.893042 0.321463
O O9 0.058627 0.679106 0.317239
O O10 0.887988 0.894231 0.261533
O O11 0.842807 0.537773 0.299982
#
# Coordination Sequence:
#
# PCOD9291268 Si02
#       7
#     8   8   4   4   4   8   8
#     4  11  25  43  68 101 136 177 223 280 335 410
#     4  11  25  44  68 102 137 178 228 276 347 402
#     4  10  26  40  64 100 128 172 232 276 336 402
#     4  12  24  44  68  98 138 174 222 278 336 402
#     4  10  22  42  66  90 132 174 224 280 336 398
#     4  11  22  42  66  95 130 176 221 283 332 403
#     4  11  22  42  66  94 132 172 223 281 336 395
#
# _framework density 24.579007000000001
#
# number of rings (size 3 to 8) (size 9 to 14) (size 15 to 20)
#    0.000    1.091    3.636    2.182    2.545    0.000 
#    0.000    0.000    0.000    0.000    0.000    0.000 
#    0.000    0.000    0.000    0.000    0.000    0.000 
#
# Total GULP energy -122580.874811 kJ/mol
# GULP energy per Si atom -5571.857946 kJ/mol
# Density = 2.452306 g / cm^3
# Si number density = 24.579007 Si / 1000 Ang^3
#
#
#
# Elastic Constant Matrix: (Units=GPa)
#
#
# Indices 1 2 3 4 5 6 
#
# 1 130.4498 34.5987 4.0184 0.0000 5.6778 0.0000
# 2 34.5987 144.4521 4.0974 0.0000 -6.0454 0.0000
# 3 4.0184 4.0974 44.2210 0.0000 2.8900 0.0000
# 4 0.0000 0.0000 0.0000 12.3927 0.0000 6.8560
# 5 5.6778 -6.0454 2.8900 0.0000 16.1922 0.0000
# 6 0.0000 0.0000 0.0000 6.8560 0.0000 45.5697
#
#
#
# Elastic Compliance Matrix: (Units=1/GPa)
#
#
# Indices 1 2 3 4 5 6 
#
# 1 0.008409 -0.002160 -0.000322 0.000000 -0.003698 0.000000
# 2 -0.002160 0.007618 -0.000754 0.000000 0.003736 0.000000
# 3 -0.000322 -0.000754 0.022992 0.000000 -0.004272 0.000000
# 4 0.000000 0.000000 0.000000 0.088019 0.000000 -0.013243
# 5 -0.003698 0.003736 -0.004272 0.000000 0.065212 0.000000
# 6 0.000000 0.000000 0.000000 -0.013243 0.000000 0.023937
#
#
# Mechanical properties :
#
#
# Convention : Reuss Voigt Hill
#
# Bulk Modulus (GPa) = 30.72445 44.95020 37.83732
# Shear Modulus (GPa) = 21.41255 33.25816 27.33535
#
# Velocity S-wave (km/s) = 2.95476 3.68246 3.33850
# Velocity P-wave (km/s) = 4.91612 6.03394 5.50348
#
# Compressibility (1/GPa) = 0.03254737
#
# Stress axis : x y z
#
# Youngs Moduli (GPa) = 118.91316 131.27222 43.49336
#
# Poissons Ratio (x) = 0.28352 0.01402
# Poissons Ratio (y) = 0.25683 0.03278
# Poissons Ratio (z) = 0.03834 0.09894
#
# Static dielectric constant tensor:
#      x y z
#    x 1.892750 0.000000 0.017900 
#    y 0.000000 1.957460 0.000000 
#    z 0.017900 0.000000 2.080020 
# 
# From -- ./inp_files/236140.got.cif
#   From: 2010.05.17/outbox.cif.g08.bks.cpg/sg15_119_cif.got.tgz:236140.got - 2010.06.03 18:47:42.
