data_PCOD9291585
_publ_section_title
;
Structure prediction by ZEFSAII (Michael W. Deem and Ramdas Pophale) SiO2 
 PCOD9291585
Probable space group: C 2/C
;
_chemical_formula_sum "Si O2"
_cell_formula_units_Z 48
_cell_length_a 18.320314
_cell_length_b 27.058561
_cell_length_c 5.090088
_cell_angle_alpha 90.000000
_cell_angle_beta 127.906583
_cell_angle_gamma 90.000000
_cell_volume 1990.890321
_symmetry_space_group_name_H-M "C 2/C"
_symmetry_group_IT_number 15
_symmetry_cell_setting 'monoclinic'
loop_
_space_group_symop_operation_xyz
x,y,z
-x,y,1/2-z
-x,-y,-z
x,-y,1/2+z
1/2+x,1/2+y,z
1/2-x,1/2+y,1/2-z
1/2-x,1/2-y,-z
1/2+x,1/2-y,1/2+z
loop_
_atom_site_type_symbol
_atom_site_label
_atom_site_fract_x
_atom_site_fract_y
_atom_site_fract_z
Si Si1 0.592063 0.307605 0.064650
Si Si2 0.910013 0.714946 0.177975
Si Si3 0.742854 0.148326 0.876714
Si Si4 0.000000 0.886041 0.250000
Si Si5 0.000000 0.630925 0.750000
Si Si6 0.195902 0.409087 0.751865
Si Si7 0.860913 0.029307 0.481068
O O1 0.641426 0.261040 0.305687
O O2 0.659954 0.330698 0.002404
O O3 0.548367 0.351183 0.142906
O O4 0.500000 0.282354 0.750000
O O5 0.000000 0.739103 0.250000
O O6 0.956185 0.669638 0.443716
O O7 0.837846 0.688539 0.829400
O O8 0.714888 0.105133 0.599797
O O9 0.743258 0.133521 0.180249
O O10 0.081929 0.924312 0.502776
O O11 0.910602 0.595026 0.577261
O O12 0.252622 0.456481 0.774971
O O13 0.884381 0.014107 0.830217
#
# Coordination Sequence:
#
# PCOD9291585 Si02
#       7
#     8   8   8   4   4   8   8
#     4  12  25  40  65  98 144 183 233 276 317 392
#     4  11  21  41  62 102 137 186 225 270 320 384
#     4  11  24  42  68  97 141 184 226 269 325 398
#     4  12  26  44  66  97 132 185 222 278 342 400
#     4  10  22  42  68  99 136 181 218 270 332 406
#     4  11  23  45  72 100 131 175 223 276 346 402
#     4  12  27  48  71  98 131 168 225 289 350 414
#
# _framework density 24.109814
#
# number of rings (size 3 to 8) (size 9 to 14) (size 15 to 20)
#    0.000    0.667    5.000    3.000    2.333    0.000 
#    0.000    4.167    0.000    0.000    0.000    0.000 
#    0.000    0.000    0.000    0.000    0.000    0.000 
#
# Total GULP energy -133930.860556 kJ/mol
# GULP energy per Si atom -5580.452523 kJ/mol
# Density = 2.405494 g / cm^3
# Si number density = 24.109814 Si / 1000 Ang^3
#
#
#
# Elastic Constant Matrix: (Units=GPa)
#
#
# Indices 1 2 3 4 5 6 
#
# 1 116.6331 4.5621 14.4174 0.0000 23.5084 0.0000
# 2 4.5621 40.6889 8.9630 0.0000 0.0581 0.0000
# 3 14.4174 8.9630 45.0840 0.0000 0.2304 0.0000
# 4 0.0000 0.0000 0.0000 38.1869 0.0000 12.6329
# 5 23.5084 0.0581 0.2304 0.0000 46.9840 0.0000
# 6 0.0000 0.0000 0.0000 12.6329 0.0000 44.8285
#
#
#
# Elastic Compliance Matrix: (Units=1/GPa)
#
#
# Indices 1 2 3 4 5 6 
#
# 1 0.009974 -0.000433 -0.003078 0.000000 -0.004975 0.000000
# 2 -0.000433 0.025721 -0.004976 0.000000 0.000209 0.000000
# 3 -0.003078 -0.004976 0.024147 0.000000 0.001428 0.000000
# 4 0.000000 0.000000 0.000000 0.028879 0.000000 -0.008138
# 5 -0.004975 0.000209 0.001428 0.000000 0.023766 0.000000
# 6 0.000000 0.000000 0.000000 -0.008138 0.000000 0.024601
#
#
# Mechanical properties :
#
#
# Convention : Reuss Voigt Hill
#
# Bulk Modulus (GPa) = 23.32759 28.69901 26.01330
# Shear Modulus (GPa) = 29.69967 37.63075 33.66521
#
# Velocity S-wave (km/s) = 3.51358 3.95499 3.74080
# Velocity P-wave (km/s) = 5.11438 5.72584 5.42873
#
# Compressibility (1/GPa) = 0.04286770
#
# Stress axis : x y z
#
# Youngs Moduli (GPa) = 100.26013 38.87853 41.41273
#
# Poissons Ratio (x) = 0.01684 0.12747
# Poissons Ratio (y) = 0.04343 0.20607
# Poissons Ratio (z) = 0.30861 0.19346
#
# Static dielectric constant tensor:
#      x y z
#    x 1.969720 0.000000 -0.022280 
#    y 0.000000 1.933080 0.000000 
#    z -0.022280 0.000000 1.994520 
# 
# From -- ./inp_files/11382.got.cif
#   From: 2010.05.17/outbox.cif.g08.bks.cpg/sg15_6_cif.got.tgz:11382.got - 2010.06.03 18:47:42.
