data_PCOD9291564
_publ_section_title
;
Structure prediction by ZEFSAII (Michael W. Deem and Ramdas Pophale) SiO2 
 PCOD9291564
Probable space group: C 2/C
;
_chemical_formula_sum "Si O2"
_cell_formula_units_Z 32
_cell_length_a 8.459376
_cell_length_b 12.063628
_cell_length_c 12.268330
_cell_angle_alpha 90.000000
_cell_angle_beta 91.267547
_cell_angle_gamma 90.000000
_cell_volume 1251.686101
_symmetry_space_group_name_H-M "C 2/C"
_symmetry_group_IT_number 15
_symmetry_cell_setting 'monoclinic'
loop_
_space_group_symop_operation_xyz
x,y,z
-x,y,1/2-z
-x,-y,-z
x,-y,1/2+z
1/2+x,1/2+y,z
1/2-x,1/2+y,1/2-z
1/2-x,1/2-y,-z
1/2+x,1/2-y,1/2+z
loop_
_atom_site_type_symbol
_atom_site_label
_atom_site_fract_x
_atom_site_fract_y
_atom_site_fract_z
Si Si1 0.184155 0.340899 0.633481
Si Si2 0.823429 0.634712 0.711386
Si Si3 0.183464 0.983896 0.524878
Si Si4 0.663461 0.216140 0.373636
O O1 0.321733 0.247755 0.636662
O O2 0.220834 0.449787 0.566679
O O3 0.166573 0.359298 0.762153
O O4 0.018818 0.285677 0.594426
O O5 0.731911 0.549063 0.635250
O O6 0.724814 0.671916 0.816907
O O7 0.000000 0.606669 0.750000
O O8 0.229446 0.855128 0.542739
O O9 0.000000 0.000000 0.500000
#
# Coordination Sequence:
#
# PCOD9291564 Si02
#       4
#     8   8   8   8
#     4   9  21  45  64  96 137 173 226 274 331 397
#     4  10  22  42  68  97 138 177 216 282 336 392
#     4  12  24  41  72  99 130 180 230 274 333 404
#     4   9  22  44  63  98 138 174 221 278 334 394
#
# _framework density 25.565515999999999
#
# number of rings (size 3 to 8) (size 9 to 14) (size 15 to 20)
#    1.500    0.500    0.000    3.000    3.500    0.000 
#    9.000    2.500    0.000    0.000    0.000    0.000 
#    0.000    0.000    0.000    0.000    0.000    0.000 
#
# Total GULP energy -89412.370508 kJ/mol
# GULP energy per Si atom -5588.273157 kJ/mol
# Density = 2.550733 g / cm^3
# Si number density = 25.565516 Si / 1000 Ang^3
#
#
#
# Elastic Constant Matrix: (Units=GPa)
#
#
# Indices 1 2 3 4 5 6 
#
# 1 139.7759 26.1313 44.1661 0.0000 25.9702 0.0000
# 2 26.1313 129.3298 23.9413 0.0000 13.3451 0.0000
# 3 44.1661 23.9413 100.7768 0.0000 3.0282 0.0000
# 4 0.0000 0.0000 0.0000 40.4501 0.0000 29.8350
# 5 25.9702 13.3451 3.0282 0.0000 52.6943 0.0000
# 6 0.0000 0.0000 0.0000 29.8350 0.0000 10.8840
#
#
#
# Elastic Compliance Matrix: (Units=1/GPa)
#
#
# Indices 1 2 3 4 5 6 
#
# 1 0.009251 -0.000746 -0.003752 0.000000 -0.004155 0.000000
# 2 -0.000746 0.008351 -0.001607 0.000000 -0.001655 0.000000
# 3 -0.003752 -0.001607 0.011902 0.000000 0.001572 0.000000
# 4 0.000000 0.000000 0.000000 -0.024194 0.000000 0.066319
# 5 -0.004155 -0.001655 0.001572 0.000000 0.021354 0.000000
# 6 0.000000 0.000000 0.000000 0.066319 0.000000 -0.089916
#
#
# Mechanical properties :
#
#
# Convention : Reuss Voigt Hill
#
# Bulk Modulus (GPa) = 57.82581 62.04000 59.93291
# Shear Modulus (GPa) = -110.43652 39.18195 -35.62729
#
# Velocity S-wave (km/s) = -6.57961 3.91910 -3.73710
# Velocity P-wave (km/s) = 5.92063 6.69320 2.20738
#
# Compressibility (1/GPa) = 0.01729331
#
# Stress axis : x y z
#
# Youngs Moduli (GPa) = 108.09131 119.74320 84.01905
#
# Poissons Ratio (x) = 0.08931 0.31528
# Poissons Ratio (y) = 0.08062 0.13505
# Poissons Ratio (z) = 0.40561 0.19247
#
# Static dielectric constant tensor:
#      x y z
#    x 1.921370 0.000000 0.001320 
#    y 0.000000 2.118980 0.000000 
#    z 0.001320 0.000000 2.123460 
# 
# From -- ./inp_files/132426.got.cif
#   From: 2010.05.17/outbox.cif.g08.bks.cpg/sg15_67_cif.got.tgz:132426.got - 2010.06.03 18:47:42.
