data_PCOD9291897
_publ_section_title
;
Structure prediction by ZEFSAII (Michael W. Deem and Ramdas Pophale) SiO2 
 PCOD9291897
Probable space group: C 2/C
;
_chemical_formula_sum "Si O2"
_cell_formula_units_Z 56
_cell_length_a 16.602506
_cell_length_b 10.199655
_cell_length_c 10.763105
_cell_angle_alpha 90.000000
_cell_angle_beta 97.285156
_cell_angle_gamma 90.000000
_cell_volume 1807.908975
_symmetry_space_group_name_H-M "C 2/C"
_symmetry_group_IT_number 15
_symmetry_cell_setting 'monoclinic'
loop_
_space_group_symop_operation_xyz
x,y,z
-x,y,1/2-z
-x,-y,-z
x,-y,1/2+z
1/2+x,1/2+y,z
1/2-x,1/2+y,1/2-z
1/2-x,1/2-y,-z
1/2+x,1/2-y,1/2+z
loop_
_atom_site_type_symbol
_atom_site_label
_atom_site_fract_x
_atom_site_fract_y
_atom_site_fract_z
Si Si1 0.138078 0.431634 0.292171
Si Si2 0.054150 0.229109 0.544094
Si Si3 0.250000 0.750000 0.500000
Si Si4 0.399006 0.376647 0.687378
Si Si5 0.732980 0.763252 0.653720
Si Si6 0.706635 0.571484 0.818005
Si Si7 0.094503 0.606211 0.514922
Si Si8 0.000000 0.069896 0.750000
O O1 0.109251 0.280675 0.296959
O O2 0.237458 0.403355 0.304046
O O3 0.106301 0.524101 0.391238
O O4 0.117322 0.466197 0.148088
O O5 0.081621 0.117066 0.454314
O O6 0.136899 0.275948 0.618065
O O7 0.997395 0.344310 0.484833
O O8 0.998647 0.157717 0.630995
O O9 0.262023 0.584550 0.534553
O O10 0.151043 0.733755 0.523394
O O11 0.500000 0.403908 0.750000
O O12 0.292499 0.396120 0.684624
O O13 0.750000 0.750000 0.500000
O O14 0.718185 0.741137 0.818048
O O15 0.608496 0.537807 0.770125
#
# Coordination Sequence:
#
# PCOD9291897 Si02
#       8
#     8   8   4   8   8   8   8   4
#     4   9  24  48  84 126 164 234 278 342 432 516
#     4  12  28  50  79 125 162 219 283 359 423 512
#     4  10  22  42  82 118 160 214 274 350 414 508
#     4  12  26  46  80 111 166 213 276 349 425 510
#     4  10  25  49  76 118 164 214 286 338 432 503
#     4   9  22  41  76 113 150 215 268 332 416 502
#     4  11  25  51  90 122 177 222 291 350 432 514
#     4  12  26  50  78 116 162 214 280 356 432 500
#
# _framework density 30.975009
#
# number of rings (size 3 to 8) (size 9 to 14) (size 15 to 20)
#    0.857    0.571    1.429    1.714    8.000    1.143 
#    2.571    2.143    3.143    0.000    0.000    0.000 
#    0.000    0.000    0.000    0.000    0.000    0.000 
#
# Total GULP energy -156002.805259 kJ/mol
# GULP energy per Si atom -5571.528759 kJ/mol
# Density = 3.090451 g / cm^3
# Si number density = 30.975009 Si / 1000 Ang^3
#
#
#
# Elastic Constant Matrix: (Units=GPa)
#
#
# Indices 1 2 3 4 5 6 
#
# 1 279.6778 102.1580 75.8407 0.0000 15.9837 0.0000
# 2 102.1580 205.4899 93.8649 0.0000 -3.6393 0.0000
# 3 75.8407 93.8649 192.2304 0.0000 -3.7787 0.0000
# 4 0.0000 0.0000 0.0000 63.4054 0.0000 -23.6542
# 5 15.9837 -3.6393 -3.7787 0.0000 66.3832 0.0000
# 6 0.0000 0.0000 0.0000 -23.6542 0.0000 81.7658
#
#
#
# Elastic Compliance Matrix: (Units=1/GPa)
#
#
# Indices 1 2 3 4 5 6 
#
# 1 0.004583 -0.001884 -0.000913 0.000000 -0.001259 0.000000
# 2 -0.001884 0.007040 -0.002681 0.000000 0.000687 0.000000
# 3 -0.000913 -0.002681 0.006880 0.000000 0.000465 0.000000
# 4 0.000000 0.000000 0.000000 0.017680 0.000000 0.005115
# 5 -0.001259 0.000687 0.000465 0.000000 0.015431 0.000000
# 6 0.000000 0.000000 0.000000 0.005115 0.000000 0.013710
#
#
# Mechanical properties :
#
#
# Convention : Reuss Voigt Hill
#
# Bulk Modulus (GPa) = 132.48338 135.68059 134.08199
# Shear Modulus (GPa) = 63.45605 69.34651 66.40128
#
# Velocity S-wave (km/s) = 4.53108 4.73672 4.63504
# Velocity P-wave (km/s) = 8.38082 8.59149 8.48681
#
# Compressibility (1/GPa) = 0.00754812
#
# Stress axis : x y z
#
# Youngs Moduli (GPa) = 218.19060 142.05479 145.33918
#
# Poissons Ratio (x) = 0.26758 0.13272
# Poissons Ratio (y) = 0.41100 0.38961
# Poissons Ratio (z) = 0.19924 0.38081
#
# Static dielectric constant tensor:
#      x y z
#    x 3.350420 0.000000 1.235610 
#    y 0.000000 2.459500 0.000000 
#    z 1.235610 0.000000 7.577010 
# 
# From -- ./inp_files/97090.got.cif
#   From: 2010.05.17/outbox.cif.g08.bks.cpg/sg15_49_cif.got.tgz:97090.got - 2010.06.03 18:47:42.
