data_PCOD9291671
_publ_section_title
;
Structure prediction by ZEFSAII (Michael W. Deem and Ramdas Pophale) SiO2 
 PCOD9291671
Probable space group: C 2/C
;
_chemical_formula_sum "Si O2"
_cell_formula_units_Z 60
_cell_length_a 15.468693
_cell_length_b 11.971519
_cell_length_c 16.477335
_cell_angle_alpha 90.000000
_cell_angle_beta 114.845013
_cell_angle_gamma 90.000000
_cell_volume 2768.926572
_symmetry_space_group_name_H-M "C 2/C"
_symmetry_group_IT_number 15
_symmetry_cell_setting 'monoclinic'
loop_
_space_group_symop_operation_xyz
x,y,z
-x,y,1/2-z
-x,-y,-z
x,-y,1/2+z
1/2+x,1/2+y,z
1/2-x,1/2+y,1/2-z
1/2-x,1/2-y,-z
1/2+x,1/2-y,1/2+z
loop_
_atom_site_type_symbol
_atom_site_label
_atom_site_fract_x
_atom_site_fract_y
_atom_site_fract_z
Si Si1 0.000000 0.896669 0.750000
Si Si2 0.370685 0.177916 0.256816
Si Si3 0.410257 0.041814 0.852001
Si Si4 0.929772 0.250603 0.601319
Si Si5 0.058608 0.002912 0.940455
Si Si6 0.761482 0.138692 0.952547
Si Si7 0.380579 0.984328 0.513445
Si Si8 0.321007 0.249319 0.735893
O O1 0.009351 0.969222 0.835846
O O2 0.097115 0.824425 0.774623
O O3 0.454836 0.237315 0.343000
O O4 0.385241 0.225320 0.172459
O O5 0.263854 0.191617 0.247797
O O6 0.397393 0.046989 0.274844
O O7 0.376501 0.163245 0.815099
O O8 0.519119 0.040960 0.923909
O O9 0.354998 0.995752 0.909479
O O10 0.894482 0.352487 0.531963
O O11 0.904222 0.128984 0.558647
O O12 0.135852 0.909224 0.989428
O O13 0.000000 0.000000 0.000000
O O14 0.734144 0.174262 0.851776
O O15 0.693793 0.040500 0.957181
O O16 0.750000 0.250000 0.000000
#
# Coordination Sequence:
#
# PCOD9291671 Si02
#       8
#     4   8   8   8   8   8   8   8
#     4  12  28  48  72 110 146 202 250 306 372 460
#     4  10  22  42  70 100 142 186 246 303 367 439
#     4  10  23  41  69 104 135 188 234 300 367 440
#     4  10  23  45  69 103 143 191 239 304 372 444
#     4  12  29  48  75 107 156 197 250 308 384 448
#     4  12  25  46  70 105 145 187 242 311 366 431
#     4  10  23  43  70 101 145 180 238 299 368 436
#     4  12  25  43  74 101 144 190 253 302 374 449
#
# _framework density 21.669046999999999
#
# number of rings (size 3 to 8) (size 9 to 14) (size 15 to 20)
#    0.000    1.067    1.333    4.000    3.733    6.933 
#    0.000    0.000    0.000    0.000    0.000    0.000 
#    0.000    0.000    0.000    0.000    0.000    0.000 
#
# Total GULP energy -167713.973405 kJ/mol
# GULP energy per Si atom -5590.465780 kJ/mol
# Density = 2.161973 g / cm^3
# Si number density = 21.669047 Si / 1000 Ang^3
#
#
#
# Elastic Constant Matrix: (Units=GPa)
#
#
# Indices 1 2 3 4 5 6 
#
# 1 106.4973 35.2027 30.9062 0.0000 -13.6198 0.0000
# 2 35.2027 100.6621 38.7897 0.0000 7.1978 0.0000
# 3 30.9062 38.7897 100.2805 0.0000 -14.0337 0.0000
# 4 0.0000 0.0000 0.0000 26.4561 0.0000 5.9124
# 5 -13.6198 7.1978 -14.0337 0.0000 20.2263 0.0000
# 6 0.0000 0.0000 0.0000 5.9124 0.0000 25.7657
#
#
#
# Elastic Compliance Matrix: (Units=1/GPa)
#
#
# Indices 1 2 3 4 5 6 
#
# 1 0.012377 -0.004774 -0.000624 0.000000 0.009600 0.000000
# 2 -0.004774 0.014841 -0.006045 0.000000 -0.012690 0.000000
# 3 -0.000624 -0.006045 0.014116 0.000000 0.011525 0.000000
# 4 0.000000 0.000000 0.000000 0.039842 0.000000 -0.009142
# 5 0.009600 -0.012690 0.011525 0.000000 0.068417 0.000000
# 6 0.000000 0.000000 0.000000 -0.009142 0.000000 0.040909
#
#
# Mechanical properties :
#
#
# Convention : Reuss Voigt Hill
#
# Bulk Modulus (GPa) = 54.21266 57.47080 55.84173
# Shear Modulus (GPa) = 22.77520 27.99238 25.38379
#
# Velocity S-wave (km/s) = 3.24550 3.59808 3.42633
# Velocity P-wave (km/s) = 6.25437 6.62127 6.44044
#
# Compressibility (1/GPa) = 0.01844588
#
# Stress axis : x y z
#
# Youngs Moduli (GPa) = 80.79533 67.38223 70.84373
#
# Poissons Ratio (x) = 0.32170 0.04423
# Poissons Ratio (y) = 0.38573 0.42826
# Poissons Ratio (z) = 0.05044 0.40733
#
# Static dielectric constant tensor:
#      x y z
#    x 1.762100 0.000000 -0.023130 
#    y 0.000000 1.787190 0.000000 
#    z -0.023130 0.000000 1.789710 
# 
# From -- ./inp_files/204503.got.cif
#   From: 2010.05.17/outbox.cif.g08.bks.cpg/sg15_103_cif.got.tgz:204503.got - 2010.06.03 18:47:42.
