data_PCOD9291081
_publ_section_title
;
Structure prediction by ZEFSAII (Michael W. Deem and Ramdas Pophale) SiO2 
 PCOD9291081
Probable space group: C 2/C
;
_chemical_formula_sum "Si O2"
_cell_formula_units_Z 48
_cell_length_a 10.177855
_cell_length_b 10.066373
_cell_length_c 25.581114
_cell_angle_alpha 90.000000
_cell_angle_beta 102.037454
_cell_angle_gamma 90.000000
_cell_volume 2563.260140
_symmetry_space_group_name_H-M "C 2/C"
_symmetry_group_IT_number 15
_symmetry_cell_setting 'monoclinic'
loop_
_space_group_symop_operation_xyz
x,y,z
-x,y,1/2-z
-x,-y,-z
x,-y,1/2+z
1/2+x,1/2+y,z
1/2-x,1/2+y,1/2-z
1/2-x,1/2-y,-z
1/2+x,1/2-y,1/2+z
loop_
_atom_site_type_symbol
_atom_site_label
_atom_site_fract_x
_atom_site_fract_y
_atom_site_fract_z
Si Si1 0.466198 0.032737 0.907045
Si Si2 0.448380 0.281060 0.394648
Si Si3 0.238166 0.114069 0.531037
Si Si4 0.119727 0.564937 0.719119
Si Si5 0.361324 0.245990 0.269841
Si Si6 0.275288 0.631233 0.542610
O O1 0.615368 0.072901 0.935922
O O2 0.449522 0.873997 0.910942
O O3 0.436765 0.068738 0.844463
O O4 0.357957 0.102090 0.935389
O O5 0.360984 0.362136 0.428925
O O6 0.387217 0.287884 0.331873
O O7 0.600996 0.331529 0.409914
O O8 0.250000 0.250000 0.500000
O O9 0.190080 0.998662 0.488313
O O10 0.240635 0.667698 0.736723
O O11 0.166565 0.412576 0.733231
O O12 0.000000 0.593636 0.750000
O O13 0.500000 0.266623 0.250000
O O14 0.250000 0.750000 0.500000
#
# Coordination Sequence:
#
# PCOD9291081 Si02
#       6
#     8   8   8   8   8   8
#     4  11  23  42  62  90 128 160 197 255 308 352
#     4  11  23  41  63  91 123 162 203 249 304 362
#     4  12  23  41  63  89 126 161 203 249 297 360
#     4  10  22  42  65  90 122 159 201 253 305 360
#     4  10  22  42  64  90 123 157 202 254 303 361
#     4  12  23  41  65  89 124 164 203 248 301 359
#
# _framework density 18.726151999999999
#
# number of rings (size 3 to 8) (size 9 to 14) (size 15 to 20)
#    0.000    1.000    3.333    4.000    0.000    0.667 
#    6.000    0.000    0.000    0.000    0.000    0.000 
#    0.000    0.000    0.000    0.000    0.000    0.000 
#
# Total GULP energy -134236.032135 kJ/mol
# GULP energy per Si atom -5593.168006 kJ/mol
# Density = 1.868353 g / cm^3
# Si number density = 18.726152 Si / 1000 Ang^3
#
#
#
# Elastic Constant Matrix: (Units=GPa)
#
#
# Indices 1 2 3 4 5 6 
#
# 1 76.0209 15.0119 18.9903 0.0000 7.4097 0.0000
# 2 15.0119 72.3300 27.0683 0.0000 -3.2133 0.0000
# 3 18.9903 27.0683 65.1310 0.0000 -2.2231 0.0000
# 4 0.0000 0.0000 0.0000 23.3913 0.0000 8.2071
# 5 7.4097 -3.2133 -2.2231 0.0000 31.0573 0.0000
# 6 0.0000 0.0000 0.0000 8.2071 0.0000 14.0030
#
#
#
# Elastic Compliance Matrix: (Units=1/GPa)
#
#
# Indices 1 2 3 4 5 6 
#
# 1 0.014834 -0.001879 -0.003681 0.000000 -0.003997 0.000000
# 2 -0.001879 0.016655 -0.006315 0.000000 0.001719 0.000000
# 3 -0.003681 -0.006315 0.019106 0.000000 0.001592 0.000000
# 4 0.000000 0.000000 0.000000 0.053818 0.000000 -0.031542
# 5 -0.003997 0.001719 0.001592 0.000000 0.033444 0.000000
# 6 0.000000 0.000000 0.000000 -0.031542 0.000000 0.089900
#
#
# Mechanical properties :
#
#
# Convention : Reuss Voigt Hill
#
# Bulk Modulus (GPa) = 37.25043 37.29143 37.27093
# Shear Modulus (GPa) = 19.19710 23.85110 21.52410
#
# Velocity S-wave (km/s) = 3.20527 3.57274 3.39398
# Velocity P-wave (km/s) = 5.79946 6.08084 5.94181
#
# Compressibility (1/GPa) = 0.02684533
#
# Stress axis : x y z
#
# Youngs Moduli (GPa) = 67.41095 60.04104 52.33989
#
# Poissons Ratio (x) = 0.11281 0.19265
# Poissons Ratio (y) = 0.12666 0.33055
# Poissons Ratio (z) = 0.24813 0.37918
#
# Static dielectric constant tensor:
#      x y z
#    x 1.601710 0.000000 -0.010460 
#    y 0.000000 1.622630 0.000000 
#    z -0.010460 0.000000 1.628560 
# 
# From -- ./inp_files/268081.got.cif
#   From: 2010.05.17/outbox.cif.g08.bks.cpg/sg15_135_cif.got.tgz:268081.got - 2010.06.03 18:47:42.
