data_PCOD9291189
_publ_section_title
;
Structure prediction by ZEFSAII (Michael W. Deem and Ramdas Pophale) SiO2 
 PCOD9291189
Probable space group: C 2/C
;
_chemical_formula_sum "Si O2"
_cell_formula_units_Z 52
_cell_length_a 12.476429
_cell_length_b 18.258277
_cell_length_c 11.075226
_cell_angle_alpha 90.000000
_cell_angle_beta 64.714304
_cell_angle_gamma 90.000000
_cell_volume 2281.192890
_symmetry_space_group_name_H-M "C 2/C"
_symmetry_group_IT_number 15
_symmetry_cell_setting 'monoclinic'
loop_
_space_group_symop_operation_xyz
x,y,z
-x,y,1/2-z
-x,-y,-z
x,-y,1/2+z
1/2+x,1/2+y,z
1/2-x,1/2+y,1/2-z
1/2-x,1/2-y,-z
1/2+x,1/2-y,1/2+z
loop_
_atom_site_type_symbol
_atom_site_label
_atom_site_fract_x
_atom_site_fract_y
_atom_site_fract_z
Si Si1 0.669611 0.192271 0.613309
Si Si2 0.473325 0.665740 0.887328
Si Si3 0.500000 0.945502 0.750000
Si Si4 0.810251 0.455355 0.238395
Si Si5 0.801838 0.368202 0.998142
Si Si6 0.937284 0.992078 0.158199
Si Si7 0.949800 0.269309 0.091838
O O1 0.750000 0.250000 0.500000
O O2 0.702095 0.113283 0.659771
O O3 0.624250 0.239649 0.750743
O O4 0.555821 0.177320 0.581667
O O5 0.500000 0.710020 0.750000
O O6 0.335254 0.644101 0.967777
O O7 0.556502 0.595591 0.827895
O O8 0.509337 0.701269 0.996675
O O9 0.604985 0.896922 0.643937
O O10 0.568910 0.000864 0.804590
O O11 0.803585 0.425014 0.107150
O O12 0.698955 0.510562 0.298790
O O13 0.861308 0.297735 0.031781
O O14 0.000000 0.023101 0.250000
O O15 0.000000 0.000000 0.000000
#
# Coordination Sequence:
#
# PCOD9291189 Si02
#       7
#     8   8   4   8   8   8   8
#     4  10  22  42  65  93 133 176 215 277 342 409
#     4  11  22  42  69  93 131 178 218 285 350 401
#     4  12  26  40  68  96 138 180 232 278 346 420
#     4  11  22  43  66  91 137 179 221 283 345 407
#     4  11  23  42  62  98 131 175 224 273 340 416
#     4  11  23  44  68  96 133 177 232 283 345 408
#     4  10  23  39  64  98 130 164 228 271 340 412
#
# _framework density 22.795090999999999
#
# number of rings (size 3 to 8) (size 9 to 14) (size 15 to 20)
#    0.000    1.231    3.077    4.615    3.231    1.231 
#    5.538    0.000    0.000    0.000    0.000    0.000 
#    0.000    0.000    0.000    0.000    0.000    0.000 
#
# Total GULP energy -144863.664703 kJ/mol
# GULP energy per Si atom -5571.679412 kJ/mol
# Density = 2.274321 g / cm^3
# Si number density = 22.795091 Si / 1000 Ang^3
#
#
#
# Elastic Constant Matrix: (Units=GPa)
#
#
# Indices 1 2 3 4 5 6 
#
# 1 132.6234 8.8430 29.7055 0.0000 -6.4567 0.0000
# 2 8.8430 18.2326 28.3945 0.0000 0.9685 0.0000
# 3 29.7055 28.3945 124.9202 0.0000 -7.3875 0.0000
# 4 0.0000 0.0000 0.0000 24.2959 0.0000 -2.3103
# 5 -6.4567 0.9685 -7.3875 0.0000 36.6213 0.0000
# 6 0.0000 0.0000 0.0000 -2.3103 0.0000 16.8062
#
#
#
# Elastic Compliance Matrix: (Units=1/GPa)
#
#
# Indices 1 2 3 4 5 6 
#
# 1 0.008036 -0.001689 -0.001458 0.000000 0.001167 0.000000
# 2 -0.001689 0.086675 -0.019688 0.000000 -0.006562 0.000000
# 3 -0.001458 -0.019688 0.012998 0.000000 0.002886 0.000000
# 4 0.000000 0.000000 0.000000 0.041704 0.000000 0.005733
# 5 0.001167 -0.006562 0.002886 0.000000 0.028268 0.000000
# 6 0.000000 0.000000 0.000000 0.005733 0.000000 0.060290
#
#
# Mechanical properties :
#
#
# Convention : Reuss Voigt Hill
#
# Bulk Modulus (GPa) = 16.11881 45.51802 30.81841
# Shear Modulus (GPa) = 16.43004 29.46689 22.94847
#
# Velocity S-wave (km/s) = 2.68763 3.59929 3.17634
# Velocity P-wave (km/s) = 4.08872 6.10614 5.19628
#
# Compressibility (1/GPa) = 0.06203933
#
# Stress axis : x y z
#
# Youngs Moduli (GPa) = 124.43733 11.53732 76.93769
#
# Poissons Ratio (x) = 0.01949 0.11218
# Poissons Ratio (y) = 0.21017 1.51473
# Poissons Ratio (z) = 0.18143 0.22714
#
# Static dielectric constant tensor:
#      x y z
#    x 1.681300 0.000000 0.034910 
#    y 0.000000 2.001160 0.000000 
#    z 0.034910 0.000000 2.074760 
# 
# From -- ./inp_files/89498.got.cif
#   From: 2010.05.17/outbox.cif.g08.bks.cpg/sg15_45_cif.got.tgz:89498.got - 2010.06.03 18:47:42.
