data_PCOD9291269
_publ_section_title
;
Structure prediction by ZEFSAII (Michael W. Deem and Ramdas Pophale) SiO2 
 PCOD9291269
Probable space group: C 2/C
;
_chemical_formula_sum "Si O2"
_cell_formula_units_Z 40
_cell_length_a 21.672203
_cell_length_b 12.480794
_cell_length_c 10.667021
_cell_angle_alpha 90.000000
_cell_angle_beta 136.701435
_cell_angle_gamma 90.000000
_cell_volume 1978.727480
_symmetry_space_group_name_H-M "C 2/C"
_symmetry_group_IT_number 15
_symmetry_cell_setting 'monoclinic'
loop_
_space_group_symop_operation_xyz
x,y,z
-x,y,1/2-z
-x,-y,-z
x,-y,1/2+z
1/2+x,1/2+y,z
1/2-x,1/2+y,1/2-z
1/2-x,1/2-y,-z
1/2+x,1/2-y,1/2+z
loop_
_atom_site_type_symbol
_atom_site_label
_atom_site_fract_x
_atom_site_fract_y
_atom_site_fract_z
Si Si1 0.439552 0.007956 0.035979
Si Si2 0.645708 0.788308 0.198390
Si Si3 0.905566 0.937772 0.870404
Si Si4 0.345061 0.200399 0.492758
Si Si5 0.396594 0.563865 0.082211
O O1 0.500000 0.021006 0.250000
O O2 0.383293 0.898950 0.973036
O O3 0.377335 0.111664 0.921583
O O4 0.500000 0.000000 0.000000
O O5 0.578506 0.687889 0.083369
O O6 0.644753 0.822411 0.343205
O O7 0.742318 0.734121 0.316039
O O8 0.856579 0.945593 0.662809
O O9 0.854752 0.992721 0.911056
O O10 0.000000 0.000000 0.000000
O O11 0.397197 0.311749 0.545765
O O12 0.500000 0.528578 0.250000
#
# Coordination Sequence:
#
# PCOD9291269 Si02
#       5
#     8   8   8   8   8
#     4  12  25  44  70  99 136 181 232 275 343 415
#     4  10  23  42  65  95 131 175 222 275 340 403
#     4   9  19  34  58  87 118 155 206 257 318 381
#     4  10  22  42  66  90 132 176 218 271 343 402
#     4   9  18  34  59  84 115 159 203 252 314 384
#
# _framework density 20.215012999999999
#
# number of rings (size 3 to 8) (size 9 to 14) (size 15 to 20)
#    0.000    2.000    2.000    0.600    8.400    2.400 
#    0.000    1.000    0.000    0.000    0.000    0.000 
#    0.000    0.000    0.000    0.000    0.000    0.000 
#
# Total GULP energy -111556.893637 kJ/mol
# GULP energy per Si atom -5577.844682 kJ/mol
# Density = 2.016900 g / cm^3
# Si number density = 20.215013 Si / 1000 Ang^3
#
#
#
# Elastic Constant Matrix: (Units=GPa)
#
#
# Indices 1 2 3 4 5 6 
#
# 1 95.7396 66.5715 44.9451 0.0000 -26.2399 0.0000
# 2 66.5715 162.1925 71.2803 0.0000 -26.4046 0.0000
# 3 44.9451 71.2803 69.2418 0.0000 -14.8146 0.0000
# 4 0.0000 0.0000 0.0000 36.2461 0.0000 -6.6459
# 5 -26.2399 -26.4046 -14.8146 0.0000 32.7802 0.0000
# 6 0.0000 0.0000 0.0000 -6.6459 0.0000 40.9483
#
#
#
# Elastic Compliance Matrix: (Units=1/GPa)
#
#
# Indices 1 2 3 4 5 6 
#
# 1 0.018214 -0.003023 -0.006767 0.000000 0.009087 0.000000
# 2 -0.003023 0.012320 -0.010091 0.000000 0.002944 0.000000
# 3 -0.006767 -0.010091 0.029143 0.000000 -0.000375 0.000000
# 4 0.000000 0.000000 0.000000 0.028435 0.000000 0.004615
# 5 0.009087 0.002944 -0.000375 0.000000 0.039982 0.000000
# 6 0.000000 0.000000 0.000000 0.004615 0.000000 0.025170
#
#
# Mechanical properties :
#
#
# Convention : Reuss Voigt Hill
#
# Bulk Modulus (GPa) = 50.21210 76.97419 63.59314
# Shear Modulus (GPa) = 25.04203 31.62005 28.33104
#
# Velocity S-wave (km/s) = 3.52345 3.95927 3.74770
# Velocity P-wave (km/s) = 6.43785 7.68515 7.08898
#
# Compressibility (1/GPa) = 0.01991552
#
# Stress axis : x y z
#
# Youngs Moduli (GPa) = 54.90279 81.16736 34.31402
#
# Poissons Ratio (x) = 0.24534 0.23220
# Poissons Ratio (y) = 0.16595 0.34627
# Poissons Ratio (z) = 0.37153 0.81907
#
# Static dielectric constant tensor:
#      x y z
#    x 1.794100 0.000000 0.020710 
#    y 0.000000 1.720990 0.000000 
#    z 0.020710 0.000000 1.759560 
# 
# From -- ./inp_files/46255.got.cif
#   From: 2010.05.17/outbox.cif.g08.bks.cpg/sg15_24_cif.got.tgz:46255.got - 2010.06.03 18:47:42.
