data_PCOD9291261
_publ_section_title
;
Structure prediction by ZEFSAII (Michael W. Deem and Ramdas Pophale) SiO2 
 PCOD9291261
Probable space group: C 2/C
;
_chemical_formula_sum "Si O2"
_cell_formula_units_Z 52
_cell_length_a 10.458427
_cell_length_b 11.467585
_cell_length_c 22.395349
_cell_angle_alpha 90.000000
_cell_angle_beta 62.082033
_cell_angle_gamma 90.000000
_cell_volume 2373.346481
_symmetry_space_group_name_H-M "C 2/C"
_symmetry_group_IT_number 15
_symmetry_cell_setting 'monoclinic'
loop_
_space_group_symop_operation_xyz
x,y,z
-x,y,1/2-z
-x,-y,-z
x,-y,1/2+z
1/2+x,1/2+y,z
1/2-x,1/2+y,1/2-z
1/2-x,1/2-y,-z
1/2+x,1/2-y,1/2+z
loop_
_atom_site_type_symbol
_atom_site_label
_atom_site_fract_x
_atom_site_fract_y
_atom_site_fract_z
Si Si1 0.638021 0.413264 0.679598
Si Si2 0.833711 0.027694 0.048025
Si Si3 0.792980 0.171002 0.637527
Si Si4 0.778305 0.766744 0.647155
Si Si5 0.500000 0.108149 0.250000
Si Si6 0.851868 0.427666 0.210442
Si Si7 0.623147 0.604175 0.586059
O O1 0.500000 0.380550 0.750000
O O2 0.732828 0.300392 0.644490
O O3 0.731958 0.501520 0.699688
O O4 0.597235 0.485256 0.629157
O O5 0.760749 0.910052 0.087384
O O6 0.833441 0.119227 0.102020
O O7 0.788962 0.080003 0.994173
O O8 0.000000 0.000000 0.000000
O O9 0.717035 0.114565 0.712186
O O10 0.966723 0.163315 0.608801
O O11 0.882849 0.688818 0.665402
O O12 0.715772 0.686292 0.608509
O O13 0.640745 0.811084 0.715520
O O14 0.475682 0.020922 0.199576
#
# Coordination Sequence:
#
# PCOD9291261 Si02
#       7
#     8   8   8   8   4   8   8
#     4  11  23  39  67  97 131 171 219 280 333 393
#     4  10  23  42  62  88 134 176 217 269 324 397
#     4  11  22  39  58  94 129 168 217 264 331 393
#     4  11  22  41  68  95 126 173 220 271 334 388
#     4  12  24  42  66 102 140 164 216 288 332 396
#     4  11  23  40  64  98 131 166 215 275 337 382
#     4  10  22  42  66  89 128 175 220 271 326 396
#
# _framework density 21.909990000000001
#
# number of rings (size 3 to 8) (size 9 to 14) (size 15 to 20)
#    0.000    1.231    3.077    3.231    3.231    0.615 
#    0.000    3.077    0.000   11.077    0.000    0.000 
#    0.000    0.000    0.000    0.000    0.000    0.000 
#
# Total GULP energy -145355.681228 kJ/mol
# GULP energy per Si atom -5590.603124 kJ/mol
# Density = 2.186012 g / cm^3
# Si number density = 21.909990 Si / 1000 Ang^3
#
#
#
# Elastic Constant Matrix: (Units=GPa)
#
#
# Indices 1 2 3 4 5 6 
#
# 1 46.4379 11.2738 -6.2456 0.0000 13.5206 0.0000
# 2 11.2738 116.1376 30.6191 0.0000 3.7132 0.0000
# 3 -6.2456 30.6191 68.1018 0.0000 7.2412 0.0000
# 4 0.0000 0.0000 0.0000 27.7291 0.0000 -1.0716
# 5 13.5206 3.7132 7.2412 0.0000 19.8007 0.0000
# 6 0.0000 0.0000 0.0000 -1.0716 0.0000 38.1679
#
#
#
# Elastic Compliance Matrix: (Units=1/GPa)
#
#
# Indices 1 2 3 4 5 6 
#
# 1 0.029897 -0.004013 0.006905 0.000000 -0.022188 0.000000
# 2 -0.004013 0.010308 -0.005294 0.000000 0.002744 0.000000
# 3 0.006905 -0.005294 0.018825 0.000000 -0.010607 0.000000
# 4 0.000000 0.000000 0.000000 0.036102 0.000000 0.001014
# 5 -0.022188 0.002744 -0.010607 0.000000 0.069018 0.000000
# 6 0.000000 0.000000 0.000000 0.001014 0.000000 0.026228
#
#
# Mechanical properties :
#
#
# Convention : Reuss Voigt Hill
#
# Bulk Modulus (GPa) = 18.44128 33.55244 25.99686
# Shear Modulus (GPa) = 23.44555 30.14154 26.79354
#
# Velocity S-wave (km/s) = 3.27476 3.71306 3.50078
# Velocity P-wave (km/s) = 4.76801 5.80771 5.31335
#
# Compressibility (1/GPa) = 0.05422616
#
# Stress axis : x y z
#
# Youngs Moduli (GPa) = 33.44792 97.01006 53.11955
#
# Poissons Ratio (x) = 0.38934 -0.36682
# Poissons Ratio (y) = 0.13424 0.28124
# Poissons Ratio (z) = -0.23097 0.51361
#
# Static dielectric constant tensor:
#      x y z
#    x 1.838180 0.000000 0.052780 
#    y 0.000000 1.829440 0.000000 
#    z 0.052780 0.000000 1.832150 
# 
# From -- ./inp_files/237488.got.cif
#   From: 2010.05.17/outbox.cif.g08.bks.cpg/sg15_119_cif.got.tgz:237488.got - 2010.06.03 18:47:42.
