data_PCOD9291832
_publ_section_title
;
Structure prediction by ZEFSAII (Michael W. Deem and Ramdas Pophale) SiO2 
 PCOD9291832
Probable space group: C 2/C
;
_chemical_formula_sum "Si O2"
_cell_formula_units_Z 48
_cell_length_a 11.564282
_cell_length_b 16.625634
_cell_length_c 11.642725
_cell_angle_alpha 90.000000
_cell_angle_beta 78.896301
_cell_angle_gamma 90.000000
_cell_volume 2196.567629
_symmetry_space_group_name_H-M "C 2/C"
_symmetry_group_IT_number 15
_symmetry_cell_setting 'monoclinic'
loop_
_space_group_symop_operation_xyz
x,y,z
-x,y,1/2-z
-x,-y,-z
x,-y,1/2+z
1/2+x,1/2+y,z
1/2-x,1/2+y,1/2-z
1/2-x,1/2-y,-z
1/2+x,1/2-y,1/2+z
loop_
_atom_site_type_symbol
_atom_site_label
_atom_site_fract_x
_atom_site_fract_y
_atom_site_fract_z
Si Si1 0.232756 0.619754 0.039521
Si Si2 0.500000 0.056058 0.750000
Si Si3 0.500411 0.162809 0.533167
Si Si4 0.652182 0.908676 0.799958
Si Si5 0.152470 0.026720 0.084896
Si Si6 0.995767 0.160635 0.513554
Si Si7 0.000000 0.102279 0.750000
O O1 0.139439 0.649823 0.963314
O O2 0.176439 0.634074 0.174948
O O3 0.260870 0.524479 0.014495
O O4 0.362031 0.658180 0.010752
O O5 0.537074 0.111157 0.636109
O O6 0.600563 0.996207 0.777430
O O7 0.561943 0.130780 0.405756
O O8 0.535306 0.255658 0.539241
O O9 0.772741 0.917908 0.845667
O O10 0.092360 0.958084 0.173767
O O11 0.057984 0.082250 0.038058
O O12 0.953383 0.155500 0.653830
#
# Coordination Sequence:
#
# PCOD9291832 Si02
#       7
#     8   4   8   8   8   8   4
#     4  11  22  43  70  98 135 186 235 280 347 429
#     4  12  24  44  66  98 136 184 232 284 342 430
#     4  12  26  44  68 106 142 182 230 298 359 406
#     4  12  23  42  74  95 134 179 241 286 342 427
#     4  11  22  43  68 103 131 186 239 284 345 419
#     4  11  26  44  67 106 144 179 234 295 360 405
#     4  10  22  42  72  94 138 188 230 278 338 436
#
# _framework density 21.852274999999999
#
# number of rings (size 3 to 8) (size 9 to 14) (size 15 to 20)
#    0.000    0.667    3.333    6.000    2.333    2.667 
#    0.000    0.000    0.000    0.000    0.000    0.000 
#    0.000    0.000    0.000    0.000    0.000    0.000 
#
# Total GULP energy -134148.392042 kJ/mol
# GULP energy per Si atom -5589.516335 kJ/mol
# Density = 2.180254 g / cm^3
# Si number density = 21.852275 Si / 1000 Ang^3
#
#
#
# Elastic Constant Matrix: (Units=GPa)
#
#
# Indices 1 2 3 4 5 6 
#
# 1 51.7929 10.6604 4.5981 0.0000 5.1040 0.0000
# 2 10.6604 98.6003 20.3716 0.0000 -3.2666 0.0000
# 3 4.5981 20.3716 98.7163 0.0000 -10.3338 0.0000
# 4 0.0000 0.0000 0.0000 -14.9647 0.0000 8.2551
# 5 5.1040 -3.2666 -10.3338 0.0000 19.4208 0.0000
# 6 0.0000 0.0000 0.0000 8.2551 0.0000 12.6801
#
#
#
# Elastic Compliance Matrix: (Units=1/GPa)
#
#
# Indices 1 2 3 4 5 6 
#
# 1 0.020490 -0.002185 -0.001171 0.000000 -0.006375 0.000000
# 2 -0.002185 0.010834 -0.001994 0.000000 0.001335 0.000000
# 3 -0.001171 -0.001994 0.011218 0.000000 0.005941 0.000000
# 4 0.000000 0.000000 0.000000 -0.049167 0.000000 0.032009
# 5 -0.006375 0.001335 0.005941 0.000000 0.056553 0.000000
# 6 0.000000 0.000000 0.000000 0.032009 0.000000 0.058025
#
#
# Mechanical properties :
#
#
# Convention : Reuss Voigt Hill
#
# Bulk Modulus (GPa) = 31.40466 35.59664 33.50065
# Shear Modulus (GPa) = 38.67960 17.65920 28.16940
#
# Velocity S-wave (km/s) = 4.21176 2.84582 3.59428
# Velocity P-wave (km/s) = 6.16883 5.20801 5.70867
#
# Compressibility (1/GPa) = 0.03184240
#
# Stress axis : x y z
#
# Youngs Moduli (GPa) = 48.80544 92.29846 89.14162
#
# Poissons Ratio (x) = 0.20163 0.10438
# Poissons Ratio (y) = 0.10662 0.17778
# Poissons Ratio (z) = 0.05715 0.18407
#
# Static dielectric constant tensor:
#      x y z
#    x 1.806560 0.000000 -0.017990 
#    y 0.000000 1.809500 0.000000 
#    z -0.017990 0.000000 1.823290 
# 
# From -- ./inp_files/87813.got.cif
#   From: 2010.05.17/outbox.cif.g08.bks.cpg/sg15_44_cif.got.tgz:87813.got - 2010.06.03 18:47:42.
