data_PCOD9291766
_publ_section_title
;
Structure prediction by ZEFSAII (Michael W. Deem and Ramdas Pophale) SiO2 
 PCOD9291766
Probable space group: C 2/C
;
_chemical_formula_sum "Si O2"
_cell_formula_units_Z 28
_cell_length_a 11.482887
_cell_length_b 10.973959
_cell_length_c 9.017899
_cell_angle_alpha 90.000000
_cell_angle_beta 65.004068
_cell_angle_gamma 90.000000
_cell_volume 1029.935150
_symmetry_space_group_name_H-M "C 2/C"
_symmetry_group_IT_number 15
_symmetry_cell_setting 'monoclinic'
loop_
_space_group_symop_operation_xyz
x,y,z
-x,y,1/2-z
-x,-y,-z
x,-y,1/2+z
1/2+x,1/2+y,z
1/2-x,1/2+y,1/2-z
1/2-x,1/2-y,-z
1/2+x,1/2-y,1/2+z
loop_
_atom_site_type_symbol
_atom_site_label
_atom_site_fract_x
_atom_site_fract_y
_atom_site_fract_z
Si Si1 0.756244 0.236702 0.744923
Si Si2 0.000000 0.601958 0.750000
Si Si3 0.067239 0.107471 0.056262
Si Si4 0.292538 0.059405 0.460362
O O1 0.618952 0.186390 0.748700
O O2 0.886231 0.217303 0.576724
O O3 0.763938 0.368598 0.820977
O O4 0.758261 0.146434 0.884175
O O5 0.068408 0.501509 0.607417
O O6 0.000000 0.113600 0.250000
O O7 0.206157 0.058352 0.019832
O O8 0.000000 0.000000 0.000000
#
# Coordination Sequence:
#
# PCOD9291766 Si02
#       4
#     8   4   8   8
#     4  10  22  42  71 107 142 199 249 306 379 454
#     4  10  22  42  72 106 150 190 254 312 370 454
#     4  11  22  43  73 105 150 196 252 315 376 455
#     4  10  22  42  72 103 147 199 245 307 388 440
#
# _framework density 27.186178999999999
#
# number of rings (size 3 to 8) (size 9 to 14) (size 15 to 20)
#    0.000    1.714    2.857    0.857    0.000    4.571 
#    2.571    1.429    0.000    0.000    0.000    0.000 
#    0.000    0.000    0.000    0.000    0.000    0.000 
#
# Total GULP energy -78037.916673 kJ/mol
# GULP energy per Si atom -5574.136905 kJ/mol
# Density = 2.712430 g / cm^3
# Si number density = 27.186179 Si / 1000 Ang^3
#
#
#
# Elastic Constant Matrix: (Units=GPa)
#
#
# Indices 1 2 3 4 5 6 
#
# 1 81.5721 8.6224 70.5095 0.0000 -11.1043 0.0000
# 2 8.6224 90.2725 63.6137 0.0000 -10.2473 0.0000
# 3 70.5095 63.6137 251.3172 0.0000 -22.2292 0.0000
# 4 0.0000 0.0000 0.0000 -34.9024 0.0000 -1.3382
# 5 -11.1043 -10.2473 -22.2292 0.0000 53.9212 0.0000
# 6 0.0000 0.0000 0.0000 -1.3382 0.0000 38.9087
#
#
#
# Elastic Compliance Matrix: (Units=1/GPa)
#
#
# Indices 1 2 3 4 5 6 
#
# 1 0.016647 0.002180 -0.005067 0.000000 0.001754 0.000000
# 2 0.002180 0.013843 -0.003989 0.000000 0.001435 0.000000
# 3 -0.005067 -0.003989 0.006488 0.000000 0.000873 0.000000
# 4 0.000000 0.000000 0.000000 -0.028614 0.000000 -0.000984
# 5 0.001754 0.001435 0.000873 0.000000 0.019539 0.000000
# 6 0.000000 0.000000 0.000000 -0.000984 0.000000 0.025667
#
#
# Mechanical properties :
#
#
# Convention : Reuss Voigt Hill
#
# Bulk Modulus (GPa) = 43.05539 78.73922 60.89730
# Shear Modulus (GPa) = 66.60891 30.27991 48.44441
#
# Velocity S-wave (km/s) = 4.95522 3.34098 4.22589
# Velocity P-wave (km/s) = 6.97213 6.62637 6.80144
#
# Compressibility (1/GPa) = 0.02322590
#
# Stress axis : x y z
#
# Youngs Moduli (GPa) = 60.06925 72.23886 154.14252
#
# Poissons Ratio (x) = -0.15747 0.78108
# Poissons Ratio (y) = -0.13094 0.61480
# Poissons Ratio (z) = 0.30439 0.28813
#
# Static dielectric constant tensor:
#      x y z
#    x 2.328700 0.000000 -0.216820 
#    y 0.000000 2.150840 0.000000 
#    z -0.216820 0.000000 2.619670 
# 
# From -- ./inp_files/27829.got.cif
#   From: 2010.05.17/outbox.cif.g08.bks.cpg/sg15_14_cif.got.tgz:27829.got - 2010.06.03 18:47:42.
