data_PCOD9291408
_publ_section_title
;
Structure prediction by ZEFSAII (Michael W. Deem and Ramdas Pophale) SiO2 
 PCOD9291408
Probable space group: C 2/C
;
_chemical_formula_sum "Si O2"
_cell_formula_units_Z 56
_cell_length_a 8.171106
_cell_length_b 21.115978
_cell_length_c 17.508389
_cell_angle_alpha 90.000000
_cell_angle_beta 65.799057
_cell_angle_gamma 90.000000
_cell_volume 2755.415226
_symmetry_space_group_name_H-M "C 2/C"
_symmetry_group_IT_number 15
_symmetry_cell_setting 'monoclinic'
loop_
_space_group_symop_operation_xyz
x,y,z
-x,y,1/2-z
-x,-y,-z
x,-y,1/2+z
1/2+x,1/2+y,z
1/2-x,1/2+y,1/2-z
1/2-x,1/2-y,-z
1/2+x,1/2-y,1/2+z
loop_
_atom_site_type_symbol
_atom_site_label
_atom_site_fract_x
_atom_site_fract_y
_atom_site_fract_z
Si Si1 0.701458 0.795857 0.939852
Si Si2 0.710427 0.602159 0.731958
Si Si3 0.677038 0.254466 0.271378
Si Si4 0.562573 0.641470 0.322441
Si Si5 0.235208 0.998563 0.509854
Si Si6 0.361873 0.491419 0.643631
Si Si7 0.056274 0.400358 0.464905
O O1 0.663582 0.766301 0.863141
O O2 0.877132 0.841031 0.899737
O O3 0.750000 0.750000 0.000000
O O4 0.524326 0.833659 0.997775
O O5 0.500000 0.600842 0.750000
O O6 0.739187 0.672242 0.761080
O O7 0.730792 0.541266 0.782603
O O8 0.841532 0.598176 0.634841
O O9 0.500000 0.251137 0.250000
O O10 0.820889 0.205389 0.208321
O O11 0.500000 0.621190 0.250000
O O12 0.674501 0.582625 0.334616
O O13 0.176956 0.986921 0.434809
O O14 0.307180 0.070094 0.500581
O O15 0.390208 0.948711 0.496503
O O16 0.079182 0.993700 0.602592
#
# Coordination Sequence:
#
# PCOD9291408 Si02
#       7
#     8   8   8   8   8   8   8
#     4  11  24  43  69  96 135 185 221 287 341 413
#     4  11  23  43  67  97 133 178 216 286 343 406
#     4  10  25  45  67  99 135 175 237 279 339 417
#     4  10  22  42  67  93 131 177 220 273 339 411
#     4  10  24  39  65  99 134 169 219 284 333 409
#     4  11  22  42  68  96 133 174 223 275 350 403
#     4  11  23  43  65  99 134 172 231 278 341 410
#
# _framework density 20.323615
#
# number of rings (size 3 to 8) (size 9 to 14) (size 15 to 20)
#    0.000    1.429    2.857    1.286    4.000    1.714 
#    0.000    3.571    0.000    0.000    0.000    0.000 
#    0.000    0.000    0.000    0.000    0.000    0.000 
#
# Total GULP energy -156167.411401 kJ/mol
# GULP energy per Si atom -5577.407550 kJ/mol
# Density = 2.027736 g / cm^3
# Si number density = 20.323615 Si / 1000 Ang^3
#
#
#
# Elastic Constant Matrix: (Units=GPa)
#
#
# Indices 1 2 3 4 5 6 
#
# 1 31.2617 12.4728 22.7578 0.0000 -2.2105 0.0000
# 2 12.4728 109.9481 48.2927 0.0000 -2.1929 0.0000
# 3 22.7578 48.2927 120.5058 0.0000 -17.0044 0.0000
# 4 0.0000 0.0000 0.0000 30.3281 0.0000 0.9241
# 5 -2.2105 -2.1929 -17.0044 0.0000 25.4355 0.0000
# 6 0.0000 0.0000 0.0000 0.9241 0.0000 24.9117
#
#
#
# Elastic Compliance Matrix: (Units=1/GPa)
#
#
# Indices 1 2 3 4 5 6 
#
# 1 0.037300 -0.001311 -0.006710 0.000000 -0.001357 0.000000
# 2 -0.001311 0.011198 -0.004549 0.000000 -0.002190 0.000000
# 3 -0.006710 -0.004549 0.012423 0.000000 0.007330 0.000000
# 4 0.000000 0.000000 0.000000 0.033010 0.000000 -0.001224
# 5 -0.001357 -0.002190 0.007330 0.000000 0.043909 0.000000
# 6 0.000000 0.000000 0.000000 -0.001224 0.000000 0.040187
#
#
# Mechanical properties :
#
#
# Convention : Reuss Voigt Hill
#
# Bulk Modulus (GPa) = 27.94834 47.64023 37.79429
# Shear Modulus (GPa) = 23.24553 28.01455 25.63004
#
# Velocity S-wave (km/s) = 3.38564 3.71674 3.55504
# Velocity P-wave (km/s) = 5.39119 6.47384 5.95716
#
# Compressibility (1/GPa) = 0.03578030
#
# Stress axis : x y z
#
# Youngs Moduli (GPa) = 26.80959 89.29854 80.49595
#
# Poissons Ratio (x) = 0.11708 0.54015
# Poissons Ratio (y) = 0.03515 0.36619
# Poissons Ratio (z) = 0.17990 0.40623
#
# Static dielectric constant tensor:
#      x y z
#    x 1.765190 0.000000 -0.013890 
#    y 0.000000 1.752180 0.000000 
#    z -0.013890 0.000000 1.694910 
# 
# From -- ./inp_files/192033.got.cif
#   From: 2010.05.17/outbox.cif.g08.bks.cpg/sg15_97_cif.got.tgz:192033.got - 2010.06.03 18:47:42.
