data_PCOD9291341
_publ_section_title
;
Structure prediction by ZEFSAII (Michael W. Deem and Ramdas Pophale) SiO2 
 PCOD9291341
Probable space group: C 2/C
;
_chemical_formula_sum "Si O2"
_cell_formula_units_Z 60
_cell_length_a 16.229723
_cell_length_b 10.793404
_cell_length_c 21.056185
_cell_angle_alpha 90.000000
_cell_angle_beta 55.984014
_cell_angle_gamma 90.000000
_cell_volume 3057.325551
_symmetry_space_group_name_H-M "C 2/C"
_symmetry_group_IT_number 15
_symmetry_cell_setting 'monoclinic'
loop_
_space_group_symop_operation_xyz
x,y,z
-x,y,1/2-z
-x,-y,-z
x,-y,1/2+z
1/2+x,1/2+y,z
1/2-x,1/2+y,1/2-z
1/2-x,1/2-y,-z
1/2+x,1/2-y,1/2+z
loop_
_atom_site_type_symbol
_atom_site_label
_atom_site_fract_x
_atom_site_fract_y
_atom_site_fract_z
Si Si1 0.046865 0.637282 0.974321
Si Si2 0.148926 0.032097 0.802724
Si Si3 0.500000 0.072449 0.250000
Si Si4 0.801499 0.808711 0.917127
Si Si5 0.444831 0.800809 0.641012
Si Si6 0.286564 0.981530 0.636597
Si Si7 0.156205 0.623329 0.711773
Si Si8 0.022482 0.791589 0.865102
O O1 0.156340 0.609547 0.900418
O O2 0.997539 0.718693 0.940655
O O3 0.000000 0.500000 0.000000
O O4 0.030340 0.694694 0.050401
O O5 0.091694 0.160918 0.834473
O O6 0.254224 0.055606 0.791368
O O7 0.182835 0.002338 0.716534
O O8 0.088127 0.912711 0.851615
O O9 0.520247 0.146881 0.306107
O O10 0.407421 0.979664 0.297005
O O11 0.737761 0.924343 0.921011
O O12 0.798859 0.716887 0.858329
O O13 0.918086 0.831251 0.879319
O O14 0.750000 0.750000 0.000000
O O15 0.356684 0.888736 0.648756
O O16 0.084863 0.699974 0.791200
#
# Coordination Sequence:
#
# PCOD9291341 Si02
#       8
#     8   8   4   8   8   8   8   8
#     4  10  22  42  66  96 132 176 222 273 341 406
#     4  12  24  43  69  97 139 178 220 282 344 408
#     4  12  24  40  68  92 130 172 232 270 326 408
#     4  12  25  41  68 105 134 172 232 287 336 392
#     4  11  24  42  63  98 133 181 219 274 347 409
#     4  11  22  40  69  96 136 176 224 277 344 407
#     4  12  23  42  67 100 132 177 228 277 337 412
#     4  12  24  43  72 102 133 179 231 281 336 402
#
# _framework density 19.624995999999999
#
# number of rings (size 3 to 8) (size 9 to 14) (size 15 to 20)
#    0.000    0.533    6.667    2.400    1.867    1.600 
#    0.000    0.000    0.000    2.400    0.000    0.000 
#    0.000    0.000    0.000    0.000    0.000    0.000 
#
# Total GULP energy -167507.661616 kJ/mol
# GULP energy per Si atom -5583.588721 kJ/mol
# Density = 1.958033 g / cm^3
# Si number density = 19.624996 Si / 1000 Ang^3
#
#
#
# Elastic Constant Matrix: (Units=GPa)
#
#
# Indices 1 2 3 4 5 6 
#
# 1 104.5933 38.8509 10.2709 0.0000 6.7621 0.0000
# 2 38.8509 87.3365 21.2585 0.0000 -0.5042 0.0000
# 3 10.2709 21.2585 88.4456 0.0000 12.9224 0.0000
# 4 0.0000 0.0000 0.0000 26.4929 0.0000 -5.4556
# 5 6.7621 -0.5042 12.9224 0.0000 27.6726 0.0000
# 6 0.0000 0.0000 0.0000 -5.4556 0.0000 31.1689
#
#
#
# Elastic Compliance Matrix: (Units=1/GPa)
#
#
# Indices 1 2 3 4 5 6 
#
# 1 0.011700 -0.005314 0.000376 0.000000 -0.003132 0.000000
# 2 -0.005314 0.014651 -0.003362 0.000000 0.003136 0.000000
# 3 0.000376 -0.003362 0.012979 0.000000 -0.006214 0.000000
# 4 0.000000 0.000000 0.000000 0.039157 0.000000 0.006854
# 5 -0.003132 0.003136 -0.006214 0.000000 0.039861 0.000000
# 6 0.000000 0.000000 0.000000 0.006854 0.000000 0.033283
#
#
# Mechanical properties :
#
#
# Convention : Reuss Voigt Hill
#
# Bulk Modulus (GPa) = 43.99771 46.79289 45.39530
# Shear Modulus (GPa) = 28.44006 31.06656 29.75331
#
# Velocity S-wave (km/s) = 3.81093 3.98302 3.89793
# Velocity P-wave (km/s) = 6.46778 6.71177 6.59091
#
# Compressibility (1/GPa) = 0.02272845
#
# Stress axis : x y z
#
# Youngs Moduli (GPa) = 85.46715 68.25662 77.04901
#
# Poissons Ratio (x) = 0.36275 -0.02898
# Poissons Ratio (y) = 0.45421 0.25907
# Poissons Ratio (z) = -0.03215 0.22950
#
# Static dielectric constant tensor:
#      x y z
#    x 1.720770 0.000000 -0.017390 
#    y 0.000000 1.703240 0.000000 
#    z -0.017390 0.000000 1.718050 
# 
# From -- ./inp_files/204065.got.cif
#   From: 2010.05.17/outbox.cif.g08.bks.cpg/sg15_103_cif.got.tgz:204065.got - 2010.06.03 18:47:42.
