data_PCOD9291397
_publ_section_title
;
Structure prediction by ZEFSAII (Michael W. Deem and Ramdas Pophale) SiO2 
 PCOD9291397
Probable space group: C 2/C
;
_chemical_formula_sum "Si O2"
_cell_formula_units_Z 40
_cell_length_a 12.979525
_cell_length_b 19.029538
_cell_length_c 10.288498
_cell_angle_alpha 90.000000
_cell_angle_beta 135.478446
_cell_angle_gamma 90.000000
_cell_volume 1781.833059
_symmetry_space_group_name_H-M "C 2/C"
_symmetry_group_IT_number 15
_symmetry_cell_setting 'monoclinic'
loop_
_space_group_symop_operation_xyz
x,y,z
-x,y,1/2-z
-x,-y,-z
x,-y,1/2+z
1/2+x,1/2+y,z
1/2-x,1/2+y,1/2-z
1/2-x,1/2-y,-z
1/2+x,1/2-y,1/2+z
loop_
_atom_site_type_symbol
_atom_site_label
_atom_site_fract_x
_atom_site_fract_y
_atom_site_fract_z
Si Si1 0.046792 0.826114 0.515045
Si Si2 0.500000 0.727925 0.250000
Si Si3 0.789711 0.316753 0.373248
Si Si4 0.063154 0.647779 0.972533
Si Si5 0.500000 0.022008 0.750000
Si Si6 0.705550 0.900192 0.856571
O O1 0.139007 0.760015 0.540268
O O2 0.123283 0.895982 0.528259
O O3 0.057715 0.818449 0.681798
O O4 0.879900 0.817942 0.318932
O O5 0.398416 0.784486 0.079630
O O6 0.813245 0.364404 0.520676
O O7 0.888934 0.346356 0.344936
O O8 0.087281 0.574632 0.922897
O O9 0.134709 0.645529 0.177208
O O10 0.616796 0.972593 0.782240
#
# Coordination Sequence:
#
# PCOD9291397 Si02
#       6
#     8   4   8   8   4   8
#     4  11  24  40  66  98 136 166 211 263 331 385
#     4   9  22  40  62  92 126 165 206 264 318 381
#     4  11  23  40  65  98 133 169 208 266 325 386
#     4  10  22  42  67  92 124 172 220 263 315 377
#     4  11  24  42  72  92 128 171 226 260 310 385
#     4  12  23  39  66  95 128 170 213 266 315 378
#
# _framework density 22.448792999999998
#
# number of rings (size 3 to 8) (size 9 to 14) (size 15 to 20)
#    0.000    1.200    2.000    4.200    0.000   12.000 
#    0.000    1.000    4.400    0.000    0.000    0.000 
#    0.000    0.000    0.000    0.000    0.000    0.000 
#
# Total GULP energy -111718.746103 kJ/mol
# GULP energy per Si atom -5585.937305 kJ/mol
# Density = 2.239770 g / cm^3
# Si number density = 22.448793 Si / 1000 Ang^3
#
#
#
# Elastic Constant Matrix: (Units=GPa)
#
#
# Indices 1 2 3 4 5 6 
#
# 1 86.8271 21.7094 30.6678 0.0000 -7.7094 0.0000
# 2 21.7094 61.1030 1.1645 0.0000 -3.8102 0.0000
# 3 30.6678 1.1645 94.5601 0.0000 5.7306 0.0000
# 4 0.0000 0.0000 0.0000 20.1282 0.0000 -6.5672
# 5 -7.7094 -3.8102 5.7306 0.0000 54.3077 0.0000
# 6 0.0000 0.0000 0.0000 -6.5672 0.0000 37.3746
#
#
#
# Elastic Compliance Matrix: (Units=1/GPa)
#
#
# Indices 1 2 3 4 5 6 
#
# 1 0.014668 -0.004979 -0.004832 0.000000 0.002243 0.000000
# 2 -0.004979 0.018135 0.001366 0.000000 0.000421 0.000000
# 3 -0.004832 0.001366 0.012240 0.000000 -0.001882 0.000000
# 4 0.000000 0.000000 0.000000 0.052703 0.000000 0.009261
# 5 0.002243 0.000421 -0.001882 0.000000 0.018960 0.000000
# 6 0.000000 0.000000 0.000000 0.009261 0.000000 0.028383
#
#
# Mechanical properties :
#
#
# Convention : Reuss Voigt Hill
#
# Bulk Modulus (GPa) = 35.52088 38.84152 37.18120
# Shear Modulus (GPa) = 29.17776 34.95866 32.06821
#
# Velocity S-wave (km/s) = 3.60911 3.95050 3.78366
# Velocity P-wave (km/s) = 5.76411 6.17644 5.97384
#
# Compressibility (1/GPa) = 0.02815245
#
# Stress axis : x y z
#
# Youngs Moduli (GPa) = 68.17617 55.14133 81.70262
#
# Poissons Ratio (x) = 0.27457 0.39476
# Poissons Ratio (y) = 0.33948 -0.11161
# Poissons Ratio (z) = 0.32941 -0.07533
#
# Static dielectric constant tensor:
#      x y z
#    x 1.892110 0.000000 0.039180 
#    y 0.000000 1.845900 0.000000 
#    z 0.039180 0.000000 1.880140 
# 
# From -- ./inp_files/98540.got.cif
#   From: 2010.05.17/outbox.cif.g08.bks.cpg/sg15_50_cif.got.tgz:98540.got - 2010.06.03 18:47:42.
