data_PCOD9291936
_publ_section_title
;
Structure prediction by ZEFSAII (Michael W. Deem and Ramdas Pophale) SiO2 
 PCOD9291936
Probable space group: C 2/C
;
_chemical_formula_sum "Si O2"
_cell_formula_units_Z 40
_cell_length_a 11.283015
_cell_length_b 13.309301
_cell_length_c 13.853405
_cell_angle_alpha 90.000000
_cell_angle_beta 43.916754
_cell_angle_gamma 90.000000
_cell_volume 1442.958539
_symmetry_space_group_name_H-M "C 2/C"
_symmetry_group_IT_number 15
_symmetry_cell_setting 'monoclinic'
loop_
_space_group_symop_operation_xyz
x,y,z
-x,y,1/2-z
-x,-y,-z
x,-y,1/2+z
1/2+x,1/2+y,z
1/2-x,1/2+y,1/2-z
1/2-x,1/2-y,-z
1/2+x,1/2-y,1/2+z
loop_
_atom_site_type_symbol
_atom_site_label
_atom_site_fract_x
_atom_site_fract_y
_atom_site_fract_z
Si Si1 0.153974 0.933205 0.005759
Si Si2 0.152829 0.937877 0.777854
Si Si3 0.482346 0.248016 0.106978
Si Si4 0.134081 0.363325 0.333952
Si Si5 0.500000 0.263440 0.750000
Si Si6 0.500000 0.913245 0.750000
O O1 0.120697 0.824703 0.070279
O O2 0.347153 0.970600 0.890367
O O3 0.117936 0.915694 0.912772
O O4 0.025785 0.004719 0.133881
O O5 0.309510 0.019225 0.682256
O O6 0.141608 0.842406 0.712477
O O7 0.569113 0.187868 0.969569
O O8 0.316971 0.318870 0.189101
O O9 0.426946 0.162971 0.213819
O O10 0.994551 0.317212 0.341044
#
# Coordination Sequence:
#
# PCOD9291936 Si02
#       6
#     8   8   8   8   4   4
#     4  10  22  43  63 104 149 189 256 314 371 465
#     4  10  24  46  71 104 154 199 248 320 380 455
#     4  11  22  44  66 108 148 194 252 316 370 465
#     4  11  26  45  74 110 150 197 261 306 384 462
#     4  12  24  50  78 110 152 210 244 318 392 446
#     4  12  22  36  72  98 144 202 246 320 388 438
#
# _framework density 27.720822999999999
#
# number of rings (size 3 to 8) (size 9 to 14) (size 15 to 20)
#    0.000    1.200    4.000    0.600    2.800    3.200 
#    3.600    2.000    0.000    0.000    0.000    0.000 
#    0.000    0.000    0.000    0.000    0.000    0.000 
#
# Total GULP energy -111552.709171 kJ/mol
# GULP energy per Si atom -5577.635459 kJ/mol
# Density = 2.765773 g / cm^3
# Si number density = 27.720823 Si / 1000 Ang^3
#
#
#
# Elastic Constant Matrix: (Units=GPa)
#
#
# Indices 1 2 3 4 5 6 
#
# 1 80.0719 45.0834 27.7275 -0.0001 15.3331 0.0000
# 2 45.0834 174.9146 40.7738 -0.0002 -16.9518 -0.0001
# 3 27.7275 40.7738 135.8551 -0.0003 -10.4680 0.0000
# 4 -0.0001 -0.0002 -0.0003 -109.9560 0.0000 -87.8376
# 5 15.3331 -16.9518 -10.4680 0.0000 35.1319 -0.0001
# 6 0.0000 -0.0001 0.0000 -87.8376 -0.0001 16.4899
#
#
#
# Elastic Compliance Matrix: (Units=1/GPa)
#
#
# Indices 1 2 3 4 5 6 
#
# 1 0.018756 -0.005227 -0.003157 0.000000 -0.011649 0.000000
# 2 -0.005227 0.007821 -0.000833 0.000000 0.005807 0.000000
# 3 -0.003157 -0.000833 0.008526 0.000000 0.003516 0.000000
# 4 0.000000 0.000000 0.000000 -0.001731 0.000000 -0.009218
# 5 -0.011649 0.005807 0.003516 0.000000 0.037398 0.000000
# 6 0.000000 0.000000 0.000000 -0.009218 0.000000 0.011540
#
#
# Mechanical properties :
#
#
# Convention : Reuss Voigt Hill
#
# Bulk Modulus (GPa) = 59.99162 68.66788 64.32975
# Shear Modulus (GPa) = 47.03661 6.81696 26.92679
#
# Velocity S-wave (km/s) = 4.12369 1.56987 3.12004
# Velocity P-wave (km/s) = 6.66044 5.30198 6.01965
#
# Compressibility (1/GPa) = 0.01666899
#
# Stress axis : x y z
#
# Youngs Moduli (GPa) = 53.31734 127.85486 117.28820
#
# Poissons Ratio (x) = 0.66833 0.37024
# Poissons Ratio (y) = 0.27870 0.09771
# Poissons Ratio (z) = 0.16830 0.10651
#
# Static dielectric constant tensor:
#      x y z
#    x 2.439410 0.000000 -0.019830 
#    y 0.000000 2.224720 0.000000 
#    z -0.019830 0.000000 2.025430 
# 
# From -- ./inp_files/143308.got.cif
#   From: 2010.05.17/outbox.cif.g08.bks.cpg/sg15_72_cif.got.tgz:143308.got - 2010.06.03 18:47:42.
