data_PCOD9291350
_publ_section_title
;
Structure prediction by ZEFSAII (Michael W. Deem and Ramdas Pophale) SiO2 
 PCOD9291350
Probable space group: C 2/C
;
_chemical_formula_sum "Si O2"
_cell_formula_units_Z 52
_cell_length_a 28.070995
_cell_length_b 5.189652
_cell_length_c 14.503953
_cell_angle_alpha 90.000000
_cell_angle_beta 86.712974
_cell_angle_gamma 90.000000
_cell_volume 2109.440834
_symmetry_space_group_name_H-M "C 2/C"
_symmetry_group_IT_number 15
_symmetry_cell_setting 'monoclinic'
loop_
_space_group_symop_operation_xyz
x,y,z
-x,y,1/2-z
-x,-y,-z
x,-y,1/2+z
1/2+x,1/2+y,z
1/2-x,1/2+y,1/2-z
1/2-x,1/2-y,-z
1/2+x,1/2-y,1/2+z
loop_
_atom_site_type_symbol
_atom_site_label
_atom_site_fract_x
_atom_site_fract_y
_atom_site_fract_z
Si Si1 0.847615 0.052973 0.081614
Si Si2 0.000000 0.853635 0.750000
Si Si3 0.720154 0.776959 0.254269
Si Si4 0.149349 0.878612 0.615246
Si Si5 0.910124 0.454434 0.608966
Si Si6 0.049343 0.590754 0.577536
Si Si7 0.419076 0.731498 0.787664
O O1 0.885867 0.285276 0.076294
O O2 0.808065 0.155648 0.156105
O O3 0.873675 0.788259 0.108537
O O4 0.829450 0.995495 0.980502
O O5 0.954328 0.031656 0.736419
O O6 0.987976 0.712555 0.847396
O O7 0.740701 0.058114 0.273307
O O8 0.684944 0.791674 0.170625
O O9 0.131279 0.107441 0.683718
O O10 0.100882 0.728178 0.592987
O O11 0.953036 0.395614 0.532546
O O12 0.919400 0.469451 0.717159
O O13 0.057544 0.306936 0.617655
#
# Coordination Sequence:
#
# PCOD9291350 Si02
#       7
#     8   4   8   8   8   8   8
#     4  11  23  44  67 101 128 172 229 265 327 394
#     4  10  24  40  60 100 138 172 214 278 326 388
#     4  12  27  42  66 102 137 172 218 274 332 394
#     4  10  23  42  69  91 133 178 220 270 326 391
#     4  11  23  39  74  97 126 178 228 267 314 398
#     4  10  22  42  66  97 131 174 225 266 331 389
#     4  11  21  42  67  93 131 177 218 271 331 383
#
# _framework density 24.651081999999999
#
# number of rings (size 3 to 8) (size 9 to 14) (size 15 to 20)
#    0.000    1.231    3.077    2.308    4.308    1.846 
#    0.000    3.077    0.000    0.000    0.000    0.000 
#    0.000    0.000    0.000    0.000    0.000    0.000 
#
# Total GULP energy -145524.168263 kJ/mol
# GULP energy per Si atom -5597.083395 kJ/mol
# Density = 2.459497 g / cm^3
# Si number density = 24.651082 Si / 1000 Ang^3
#
#
#
# Elastic Constant Matrix: (Units=GPa)
#
#
# Indices 1 2 3 4 5 6 
#
# 1 31.6752 4.0279 22.6805 0.0000 3.5153 0.0000
# 2 4.0279 85.6369 -7.9746 0.0000 5.4695 0.0000
# 3 22.6805 -7.9746 146.6629 0.0000 1.8607 0.0000
# 4 0.0000 0.0000 0.0000 29.4984 0.0000 -0.2708
# 5 3.5153 5.4695 1.8607 0.0000 34.7281 0.0000
# 6 0.0000 0.0000 0.0000 -0.2708 0.0000 42.1991
#
#
#
# Elastic Compliance Matrix: (Units=1/GPa)
#
#
# Indices 1 2 3 4 5 6 
#
# 1 0.036231 -0.002038 -0.005675 0.000000 -0.003042 0.000000
# 2 -0.002038 0.011976 0.000988 0.000000 -0.001733 0.000000
# 3 -0.005675 0.000988 0.007750 0.000000 0.000004 0.000000
# 4 0.000000 0.000000 0.000000 0.033902 0.000000 0.000218
# 5 -0.003042 -0.001733 0.000004 0.000000 0.029376 0.000000
# 6 0.000000 0.000000 0.000000 0.000218 0.000000 0.023699
#
#
# Mechanical properties :
#
#
# Convention : Reuss Voigt Hill
#
# Bulk Modulus (GPa) = 23.52594 33.49364 28.50979
# Shear Modulus (GPa) = 29.31663 37.63453 33.47558
#
# Velocity S-wave (km/s) = 3.45231 3.91153 3.68907
# Velocity P-wave (km/s) = 5.04535 5.83238 5.45308
#
# Compressibility (1/GPa) = 0.04250627
#
# Stress axis : x y z
#
# Youngs Moduli (GPa) = 27.60076 83.50182 129.03771
#
# Poissons Ratio (x) = 0.17020 0.73230
# Poissons Ratio (y) = 0.05626 -0.12753
# Poissons Ratio (z) = 0.15664 -0.08253
#
# Static dielectric constant tensor:
#      x y z
#    x 2.006960 0.000000 0.021480 
#    y 0.000000 1.966490 0.000000 
#    z 0.021480 0.000000 1.952470 
# 
# From -- ./inp_files/180040.got.cif
#   From: 2010.05.17/outbox.cif.g08.bks.cpg/sg15_91_cif.got.tgz:180040.got - 2010.06.03 18:47:42.
