data_PCOD9291053
_publ_section_title
;
Structure prediction by ZEFSAII (Michael W. Deem and Ramdas Pophale) SiO2 
 PCOD9291053
Probable space group: C 2/C
;
_chemical_formula_sum "Si O2"
_cell_formula_units_Z 44
_cell_length_a 12.173453
_cell_length_b 12.639071
_cell_length_c 14.388245
_cell_angle_alpha 90.000000
_cell_angle_beta 71.724813
_cell_angle_gamma 90.000000
_cell_volume 2102.131107
_symmetry_space_group_name_H-M "C 2/C"
_symmetry_group_IT_number 15
_symmetry_cell_setting 'monoclinic'
loop_
_space_group_symop_operation_xyz
x,y,z
-x,y,1/2-z
-x,-y,-z
x,-y,1/2+z
1/2+x,1/2+y,z
1/2-x,1/2+y,1/2-z
1/2-x,1/2-y,-z
1/2+x,1/2-y,1/2+z
loop_
_atom_site_type_symbol
_atom_site_label
_atom_site_fract_x
_atom_site_fract_y
_atom_site_fract_z
Si Si1 0.131751 0.483554 0.431452
Si Si2 0.287442 0.903281 0.420515
Si Si3 0.680973 0.745358 0.421766
Si Si4 0.569457 0.289412 0.554318
Si Si5 0.256994 0.444994 0.731189
Si Si6 0.500000 0.572470 0.250000
O O1 0.209902 0.508727 0.499987
O O2 0.164229 0.365534 0.390686
O O3 0.169500 0.563756 0.340538
O O4 0.000000 0.500000 0.500000
O O5 0.392027 0.824495 0.416731
O O6 0.172237 0.835227 0.465138
O O7 0.289969 0.964152 0.323953
O O8 0.750000 0.750000 0.500000
O O9 0.548413 0.709886 0.471885
O O10 0.730121 0.663134 0.332138
O O11 0.548993 0.358639 0.651707
O O12 0.383766 0.478679 0.737503
#
# Coordination Sequence:
#
# PCOD9291053 Si02
#       6
#     8   8   8   8   8   4
#     4  12  25  46  70 102 142 183 235 294 352 431
#     4  11  23  43  70  98 134 180 234 280 359 413
#     4  11  24  45  68 102 143 180 236 295 352 425
#     4  10  23  40  70  98 134 177 230 285 341 423
#     4  11  26  42  72  99 139 185 229 292 358 411
#     4  10  22  42  64 100 134 176 232 280 342 426
#
# _framework density 20.931139000000002
#
# number of rings (size 3 to 8) (size 9 to 14) (size 15 to 20)
#    0.000    1.091    5.455    0.000    5.091    5.091 
#    0.000    0.000    0.000    0.000    0.000    0.000 
#    0.000    0.000    0.000    0.000    0.000    0.000 
#
# Total GULP energy -122795.403806 kJ/mol
# GULP energy per Si atom -5581.609264 kJ/mol
# Density = 2.088350 g / cm^3
# Si number density = 20.931139 Si / 1000 Ang^3
#
#
#
# Elastic Constant Matrix: (Units=GPa)
#
#
# Indices 1 2 3 4 5 6 
#
# 1 125.3938 32.0133 58.4707 0.0000 10.3742 0.0000
# 2 32.0133 60.0168 19.0382 0.0000 -3.2053 0.0000
# 3 58.4707 19.0382 107.6837 0.0000 4.0207 0.0000
# 4 0.0000 0.0000 0.0000 21.5848 0.0000 -3.4640
# 5 10.3742 -3.2053 4.0207 0.0000 33.6467 0.0000
# 6 0.0000 0.0000 0.0000 -3.4640 0.0000 19.2403
#
#
#
# Elastic Compliance Matrix: (Units=1/GPa)
#
#
# Indices 1 2 3 4 5 6 
#
# 1 0.012117 -0.004881 -0.005585 0.000000 -0.003534 0.000000
# 2 -0.004881 0.019762 -0.000975 0.000000 0.003504 0.000000
# 3 -0.005585 -0.000975 0.012486 0.000000 0.000137 0.000000
# 4 0.000000 0.000000 0.000000 0.047707 0.000000 0.008589
# 5 -0.003534 0.003504 0.000137 0.000000 0.031128 0.000000
# 6 0.000000 0.000000 0.000000 0.008589 0.000000 0.053521
#
#
# Mechanical properties :
#
#
# Convention : Reuss Voigt Hill
#
# Bulk Modulus (GPa) = 46.54351 56.90431 51.72391
# Shear Modulus (GPa) = 24.18239 27.13252 25.65746
#
# Velocity S-wave (km/s) = 3.40270 3.60429 3.50495
# Velocity P-wave (km/s) = 6.14187 6.67583 6.41441
#
# Compressibility (1/GPa) = 0.02148527
#
# Stress axis : x y z
#
# Youngs Moduli (GPa) = 82.52581 50.60311 80.08929
#
# Poissons Ratio (x) = 0.24698 0.44728
# Poissons Ratio (y) = 0.40278 0.07805
# Poissons Ratio (z) = 0.46089 0.04931
#
# Static dielectric constant tensor:
#      x y z
#    x 1.766200 0.000000 0.004080 
#    y 0.000000 1.817570 0.000000 
#    z 0.004080 0.000000 1.725210 
# 
# From -- ./inp_files/142240.got.cif
#   From: 2010.05.17/outbox.cif.g08.bks.cpg/sg15_72_cif.got.tgz:142240.got - 2010.06.03 18:47:42.
