data_PCOD9291072
_publ_section_title
;
Structure prediction by ZEFSAII (Michael W. Deem and Ramdas Pophale) SiO2 
 PCOD9291072
Probable space group: C 2/C
;
_chemical_formula_sum "Si O2"
_cell_formula_units_Z 28
_cell_length_a 16.549893
_cell_length_b 6.839507
_cell_length_c 11.475216
_cell_angle_alpha 90.000000
_cell_angle_beta 116.879019
_cell_angle_gamma 90.000000
_cell_volume 1158.584645
_symmetry_space_group_name_H-M "C 2/C"
_symmetry_group_IT_number 15
_symmetry_cell_setting 'monoclinic'
loop_
_space_group_symop_operation_xyz
x,y,z
-x,y,1/2-z
-x,-y,-z
x,-y,1/2+z
1/2+x,1/2+y,z
1/2-x,1/2+y,1/2-z
1/2-x,1/2-y,-z
1/2+x,1/2-y,1/2+z
loop_
_atom_site_type_symbol
_atom_site_label
_atom_site_fract_x
_atom_site_fract_y
_atom_site_fract_z
Si Si1 0.308874 0.169739 0.931981
Si Si2 0.916044 0.679207 0.616650
Si Si3 0.146524 0.957026 0.729286
Si Si4 0.500000 0.500000 0.500000
O O1 0.365189 0.338842 0.902292
O O2 0.236909 0.082684 0.792732
O O3 0.250000 0.250000 0.000000
O O4 0.368762 0.999631 0.022873
O O5 0.853176 0.805322 0.664153
O O6 0.000000 0.611222 0.750000
O O7 0.952191 0.825418 0.543765
O O8 0.054701 0.075745 0.659392
#
# Coordination Sequence:
#
# PCOD9291072 Si02
#       4
#     8   8   8   4
#     4  12  24  40  65  94 131 174 220 274 330 398
#     4  10  23  41  64  94 127 170 220 273 331 393
#     4  11  23  40  62  92 127 168 218 271 331 393
#     4  10  22  42  64  88 126 164 212 274 330 390
#
# _framework density 24.167417
#
# number of rings (size 3 to 8) (size 9 to 14) (size 15 to 20)
#    0.000    1.143    0.000    6.000    0.000    6.857 
#    0.000    0.000    0.000    0.000    0.000    0.000 
#    0.000    0.000    0.000    0.000    0.000    0.000 
#
# Total GULP energy -77948.503931 kJ/mol
# GULP energy per Si atom -5567.750281 kJ/mol
# Density = 2.411241 g / cm^3
# Si number density = 24.167417 Si / 1000 Ang^3
#
#
#
# Elastic Constant Matrix: (Units=GPa)
#
#
# Indices 1 2 3 4 5 6 
#
# 1 77.2747 39.6868 21.9366 0.0000 -28.5801 0.0000
# 2 39.6868 78.8169 66.8481 0.0000 -0.3498 0.0000
# 3 21.9366 66.8481 126.2388 0.0000 1.1242 0.0000
# 4 0.0000 0.0000 0.0000 24.1045 0.0000 -48.9883
# 5 -28.5801 -0.3498 1.1242 0.0000 57.7501 0.0000
# 6 0.0000 0.0000 0.0000 -48.9883 0.0000 -25.6836
#
#
#
# Elastic Compliance Matrix: (Units=1/GPa)
#
#
# Indices 1 2 3 4 5 6 
#
# 1 0.024055 -0.015296 0.003815 0.000000 0.011738 0.000000
# 2 -0.015296 0.032767 -0.014630 0.000000 -0.007087 0.000000
# 3 0.003815 -0.014630 0.014992 0.000000 0.001508 0.000000
# 4 0.000000 0.000000 0.000000 0.008507 0.000000 -0.016227
# 5 0.011738 -0.007087 0.001508 0.000000 0.023053 0.000000
# 6 0.000000 0.000000 0.000000 -0.016227 0.000000 -0.007984
#
#
# Mechanical properties :
#
#
# Convention : Reuss Voigt Hill
#
# Bulk Modulus (GPa) = 51.04151 59.91926 55.48038
# Shear Modulus (GPa) = 32.43778 21.49146 26.96462
#
# Velocity S-wave (km/s) = 3.66759 2.98531 3.34390
# Velocity P-wave (km/s) = 6.25306 6.06052 6.15755
#
# Compressibility (1/GPa) = 0.01959190
#
# Stress axis : x y z
#
# Youngs Moduli (GPa) = 41.57194 30.51890 66.70141
#
# Poissons Ratio (x) = 0.46682 -0.25449
# Poissons Ratio (y) = 0.63589 0.97584
# Poissons Ratio (z) = -0.15861 0.44649
#
# Static dielectric constant tensor:
#      x y z
#    x 1.558540 0.000000 -0.182820 
#    y 0.000000 1.609220 0.000000 
#    z -0.182820 0.000000 1.863230 
# 
# From -- ./inp_files/108964.got.cif
#   From: 2010.05.17/outbox.cif.g08.bks.cpg/sg15_55_cif.got.tgz:108964.got - 2010.06.03 18:47:42.
