data_PCOD9291941
_publ_section_title
;
Structure prediction by ZEFSAII (Michael W. Deem and Ramdas Pophale) SiO2 
 PCOD9291941
Probable space group: C 2/C
;
_chemical_formula_sum "Si O2"
_cell_formula_units_Z 64
_cell_length_a 25.444306
_cell_length_b 7.409114
_cell_length_c 29.176336
_cell_angle_alpha 90.000000
_cell_angle_beta 151.015610
_cell_angle_gamma 90.000000
_cell_volume 2665.295347
_symmetry_space_group_name_H-M "C 2/C"
_symmetry_group_IT_number 15
_symmetry_cell_setting 'monoclinic'
loop_
_space_group_symop_operation_xyz
x,y,z
-x,y,1/2-z
-x,-y,-z
x,-y,1/2+z
1/2+x,1/2+y,z
1/2-x,1/2+y,1/2-z
1/2-x,1/2-y,-z
1/2+x,1/2-y,1/2+z
loop_
_atom_site_type_symbol
_atom_site_label
_atom_site_fract_x
_atom_site_fract_y
_atom_site_fract_z
Si Si1 0.269413 0.881308 0.114248
Si Si2 0.453706 0.305533 0.578943
Si Si3 0.352610 0.153121 0.306110
Si Si4 0.809124 0.773432 0.177340
Si Si5 0.460001 0.276751 0.171527
Si Si6 0.810651 0.242138 0.242552
Si Si7 0.604423 0.656922 0.361222
Si Si8 0.089209 0.394081 0.962584
O O1 0.290114 0.749036 0.172686
O O2 0.306601 0.781208 0.096020
O O3 0.325792 0.068217 0.171082
O O4 0.142203 0.929012 0.013083
O O5 0.576148 0.358276 0.661197
O O6 0.432584 0.286073 0.616864
O O7 0.428145 0.105494 0.541972
O O8 0.294637 0.264404 0.220952
O O9 0.292787 0.180184 0.308109
O O10 0.480914 0.193288 0.402265
O O11 0.334723 0.946891 0.276797
O O12 0.925859 0.864663 0.258160
O O13 0.704227 0.844929 0.071752
O O14 0.500000 0.190006 0.250000
O O15 0.376881 0.440068 0.119551
O O16 0.418018 0.157332 0.097307
O O17 0.500000 0.677958 0.250000
#
# Coordination Sequence:
#
# PCOD9291941 Si02
#       8
#     8   8   8   8   8   8   8   8
#     4  11  24  42  65  92 129 168 210 261 312 374
#     4  11  24  39  65  95 126 169 209 259 315 369
#     4   9  22  42  65  90 121 167 204 265 320 368
#     4  10  23  43  65  93 129 166 211 258 316 374
#     4  10  24  40  62  92 126 166 213 247 315 363
#     4  10  22  43  63  91 123 162 212 259 319 375
#     4  11  23  41  63  89 128 165 212 250 313 369
#     4  10  23  41  63  94 131 162 214 258 312 377
#
# _framework density 24.012347999999999
#
# number of rings (size 3 to 8) (size 9 to 14) (size 15 to 20)
#    0.000    1.750    1.250    1.875    5.250    5.500 
#    0.000    5.000    0.000    0.000    0.000    0.000 
#    0.000    0.000    0.000    0.000    0.000    0.000 
#
# Total GULP energy -178886.658855 kJ/mol
# GULP energy per Si atom -5590.208089 kJ/mol
# Density = 2.395769 g / cm^3
# Si number density = 24.012348 Si / 1000 Ang^3
#
#
#
# Elastic Constant Matrix: (Units=GPa)
#
#
# Indices 1 2 3 4 5 6 
#
# 1 96.9602 15.3754 19.4143 0.0001 19.9854 0.0000
# 2 15.3754 60.0009 15.0149 0.0003 4.4470 -0.0009
# 3 19.4143 15.0149 91.7949 0.0001 10.9124 0.0001
# 4 0.0001 0.0003 0.0001 33.4845 -0.0003 -0.5888
# 5 19.9854 4.4470 10.9124 -0.0003 21.3725 -0.0009
# 6 0.0000 -0.0009 0.0001 -0.5888 -0.0009 31.2683
#
#
#
# Elastic Compliance Matrix: (Units=1/GPa)
#
#
# Indices 1 2 3 4 5 6 
#
# 1 0.013229 -0.002280 -0.001076 0.000000 -0.011347 0.000000
# 2 -0.002280 0.017878 -0.002399 0.000000 -0.000363 0.000001
# 3 -0.001076 -0.002399 0.012067 0.000000 -0.004656 0.000000
# 4 0.000000 0.000000 0.000000 0.029874 0.000001 0.000563
# 5 -0.011347 -0.000363 -0.004656 0.000001 0.059852 0.000002
# 6 0.000000 0.000001 0.000000 0.000563 0.000002 0.031992
#
#
# Mechanical properties :
#
#
# Convention : Reuss Voigt Hill
#
# Bulk Modulus (GPa) = 31.58086 38.70726 35.14406
# Shear Modulus (GPa) = 26.74400 30.48848 28.61624
#
# Velocity S-wave (km/s) = 3.34093 3.56715 3.45589
# Velocity P-wave (km/s) = 5.29744 5.75507 5.53099
#
# Compressibility (1/GPa) = 0.03166475
#
# Stress axis : x y z
#
# Youngs Moduli (GPa) = 75.58972 55.93517 82.86826
#
# Poissons Ratio (x) = 0.12752 0.08918
# Poissons Ratio (y) = 0.17233 0.19880
# Poissons Ratio (z) = 0.08135 0.13419
#
# Static dielectric constant tensor:
#      x y z
#    x 1.913710 0.000000 0.010360 
#    y 0.000000 1.980380 0.000000 
#    z 0.010360 0.000000 1.907900 
# 
# From -- ./inp_files/318636.got.cif
#   From: 2010.05.17/outbox.cif.g08.bks.cpg/sg15_160_cif.got.tgz:318636.got - 2010.06.03 18:47:42.
