data_PCOD9291024
_publ_section_title
;
Structure prediction by ZEFSAII (Michael W. Deem and Ramdas Pophale) SiO2 
 PCOD9291024
Probable space group: C 2/C
;
_chemical_formula_sum "Si O2"
_cell_formula_units_Z 40
_cell_length_a 11.661009
_cell_length_b 15.072383
_cell_length_c 17.499809
_cell_angle_alpha 90.000000
_cell_angle_beta 136.669664
_cell_angle_gamma 90.000000
_cell_volume 2110.592272
_symmetry_space_group_name_H-M "C 2/C"
_symmetry_group_IT_number 15
_symmetry_cell_setting 'monoclinic'
loop_
_space_group_symop_operation_xyz
x,y,z
-x,y,1/2-z
-x,-y,-z
x,-y,1/2+z
1/2+x,1/2+y,z
1/2-x,1/2+y,1/2-z
1/2-x,1/2-y,-z
1/2+x,1/2-y,1/2+z
loop_
_atom_site_type_symbol
_atom_site_label
_atom_site_fract_x
_atom_site_fract_y
_atom_site_fract_z
Si Si1 0.638459 0.838608 0.951547
Si Si2 0.692232 0.554730 0.832183
Si Si3 0.341819 0.130784 0.415885
Si Si4 0.089613 0.387721 0.178496
Si Si5 0.000000 0.765104 0.750000
Si Si6 0.500000 0.043704 0.250000
O O1 0.462356 0.823426 0.911472
O O2 0.606246 0.890244 0.856229
O O3 0.750000 0.750000 0.000000
O O4 0.735264 0.904718 0.055376
O O5 0.500000 0.537263 0.750000
O O6 0.789197 0.465033 0.859491
O O7 0.736495 0.618064 0.782961
O O8 0.448468 0.111412 0.543908
O O9 0.167652 0.179742 0.349023
O O10 0.051633 0.299891 0.206984
O O11 0.085309 0.473132 0.232522
#
# Coordination Sequence:
#
# PCOD9291024 Si02
#       6
#     8   8   8   8   4   4
#     4  11  25  39  66  95 129 169 210 269 316 378
#     4  11  22  43  67  90 130 171 211 254 326 384
#     4  11  21  44  63  92 130 167 214 254 328 376
#     4  10  22  42  63  90 130 170 207 261 316 380
#     4  11  24  36  69  96 126 164 213 270 306 379
#     4  11  20  42  65  90 126 170 211 258 320 373
#
# _framework density 18.952026
#
# number of rings (size 3 to 8) (size 9 to 14) (size 15 to 20)
#    0.000    1.200    5.000    1.800    4.200    1.600 
#    0.000    1.000    0.000    0.000    0.000    0.000 
#    0.000    0.000    0.000    0.000    0.000    0.000 
#
# Total GULP energy -111488.547946 kJ/mol
# GULP energy per Si atom -5574.427397 kJ/mol
# Density = 1.890889 g / cm^3
# Si number density = 18.952026 Si / 1000 Ang^3
#
#
#
# Elastic Constant Matrix: (Units=GPa)
#
#
# Indices 1 2 3 4 5 6 
#
# 1 96.6643 40.6720 46.4519 0.0000 -9.9350 0.0000
# 2 40.6720 95.6058 29.4282 0.0000 -2.1813 0.0000
# 3 46.4519 29.4282 62.0614 0.0000 -11.9365 0.0000
# 4 0.0000 0.0000 0.0000 33.9257 0.0000 11.4556
# 5 -9.9350 -2.1813 -11.9365 0.0000 32.8751 0.0000
# 6 0.0000 0.0000 0.0000 11.4556 0.0000 17.8355
#
#
#
# Elastic Compliance Matrix: (Units=1/GPa)
#
#
# Indices 1 2 3 4 5 6 
#
# 1 0.017382 -0.004013 -0.010910 0.000000 0.001025 0.000000
# 2 -0.004013 0.013233 -0.003586 0.000000 -0.001637 0.000000
# 3 -0.010910 -0.003586 0.027199 0.000000 0.006341 0.000000
# 4 0.000000 0.000000 0.000000 0.037639 0.000000 -0.024176
# 5 0.001025 -0.001637 0.006341 0.000000 0.032922 0.000000
# 6 0.000000 0.000000 0.000000 -0.024176 0.000000 0.071596
#
#
# Mechanical properties :
#
#
# Convention : Reuss Voigt Hill
#
# Bulk Modulus (GPa) = 48.08608 54.15952 51.12280
# Shear Modulus (GPa) = 20.49851 26.11255 23.30553
#
# Velocity S-wave (km/s) = 3.29234 3.71593 3.51053
# Velocity P-wave (km/s) = 6.31508 6.85931 6.59281
#
# Compressibility (1/GPa) = 0.02079604
#
# Stress axis : x y z
#
# Youngs Moduli (GPa) = 57.53218 75.56722 36.76625
#
# Poissons Ratio (x) = 0.30324 0.40111
# Poissons Ratio (y) = 0.23087 0.13185
# Poissons Ratio (z) = 0.62766 0.27100
#
# Static dielectric constant tensor:
#      x y z
#    x 1.672770 0.000000 0.007480 
#    y 0.000000 1.668590 0.000000 
#    z 0.007480 0.000000 1.640770 
# 
# From -- ./inp_files/85586.got.cif
#   From: 2010.05.17/outbox.cif.g08.bks.cpg/sg15_43_cif.got.tgz:85586.got - 2010.06.03 18:47:42.
