data_PCOD9291673
_publ_section_title
;
Structure prediction by ZEFSAII (Michael W. Deem and Ramdas Pophale) SiO2 
 PCOD9291673
Probable space group: C 2/C
;
_chemical_formula_sum "Si O2"
_cell_formula_units_Z 48
_cell_length_a 37.923250
_cell_length_b 4.746431
_cell_length_c 15.590817
_cell_angle_alpha 90.000000
_cell_angle_beta 141.810496
_cell_angle_gamma 90.000000
_cell_volume 1735.065411
_symmetry_space_group_name_H-M "C 2/C"
_symmetry_group_IT_number 15
_symmetry_cell_setting 'monoclinic'
loop_
_space_group_symop_operation_xyz
x,y,z
-x,y,1/2-z
-x,-y,-z
x,-y,1/2+z
1/2+x,1/2+y,z
1/2-x,1/2+y,1/2-z
1/2-x,1/2-y,-z
1/2+x,1/2-y,1/2+z
loop_
_atom_site_type_symbol
_atom_site_label
_atom_site_fract_x
_atom_site_fract_y
_atom_site_fract_z
Si Si1 0.986757 0.725265 0.415049
Si Si2 0.237006 0.418221 0.664070
Si Si3 0.305438 0.408247 0.140732
Si Si4 0.600733 0.003414 0.101400
Si Si5 0.369006 0.279815 0.105745
Si Si6 0.426073 0.489003 0.045223
O O1 0.960704 0.504297 0.467322
O O2 0.923470 0.653323 0.259293
O O3 0.013940 0.866574 0.373943
O O4 0.000000 0.000000 0.500000
O O5 0.276634 0.390228 0.656129
O O6 0.111185 0.818745 0.598582
O O7 0.178462 0.563143 0.520434
O O8 0.233020 0.134391 0.711187
O O9 0.346624 0.166421 0.259107
O O10 0.339788 0.491856 0.119861
O O11 0.250000 0.250000 0.000000
O O12 0.581822 0.180482 0.982532
O O13 0.397171 0.422904 0.078405
#
# Coordination Sequence:
#
# PCOD9291673 Si02
#       6
#     8   8   8   8   8   8
#     4  10  22  43  68  98 136 180 225 282 344 406
#     4  11  25  47  72 100 139 183 232 287 348 407
#     4  10  22  42  70 101 136 179 233 282 344 410
#     4  10  22  45  65  93 137 175 225 275 344 399
#     4  11  21  45  68 106 137 184 231 288 342 421
#     4  10  23  42  66  95 137 176 225 275 343 402
#
# _framework density 27.664663000000001
#
# number of rings (size 3 to 8) (size 9 to 14) (size 15 to 20)
#    1.000    0.667    1.667    2.500    0.000    0.667 
#    9.000   20.000    0.000    0.000    0.000    0.000 
#    0.000    0.000    0.000    0.000    0.000    0.000 
#
# Total GULP energy -134114.533952 kJ/mol
# GULP energy per Si atom -5588.105581 kJ/mol
# Density = 2.760170 g / cm^3
# Si number density = 27.664663 Si / 1000 Ang^3
#
#
#
# Elastic Constant Matrix: (Units=GPa)
#
#
# Indices 1 2 3 4 5 6 
#
# 1 203.7386 15.3149 44.6696 0.0063 1.3895 -0.0216
# 2 15.3149 114.6438 26.7313 -0.0019 0.3505 -0.0492
# 3 44.6696 26.7313 162.0264 -0.0036 38.2378 -0.0221
# 4 0.0063 -0.0019 -0.0036 1.4282 0.0008 19.8736
# 5 1.3895 0.3505 38.2378 0.0008 39.7444 -0.0044
# 6 -0.0216 -0.0492 -0.0221 19.8736 -0.0044 30.8187
#
#
#
# Elastic Compliance Matrix: (Units=1/GPa)
#
#
# Indices 1 2 3 4 5 6 
#
# 1 0.005309 -0.000300 -0.001774 0.000007 0.001524 -0.000003
# 2 -0.000300 0.009185 -0.001832 0.000022 0.001692 -0.000001
# 3 -0.001774 -0.001832 0.008985 -0.000002 -0.008566 0.000003
# 4 0.000007 0.000022 -0.000002 -0.087817 0.000010 0.056629
# 5 0.001524 0.001692 -0.008566 0.000010 0.033334 -0.000004
# 6 -0.000003 -0.000001 0.000003 0.056629 -0.000004 -0.004070
#
#
# Mechanical properties :
#
#
# Convention : Reuss Voigt Hill
#
# Bulk Modulus (GPa) = 63.82880 72.64892 68.23886
# Shear Modulus (GPa) = -226.86122 40.64446 -93.10838
#
# Velocity S-wave (km/s) = -9.06543 3.83715 -5.80768
# Velocity P-wave (km/s) = 9.29804 6.77858 4.50024
#
# Compressibility (1/GPa) = 0.01566691
#
# Stress axis : x y z
#
# Youngs Moduli (GPa) = 188.34777 108.87636 111.30195
#
# Poissons Ratio (x) = 0.03270 0.19742
# Poissons Ratio (y) = 0.05657 0.20388
# Poissons Ratio (z) = 0.33408 0.19944
#
# Static dielectric constant tensor:
#      x y z
#    x 2.349540 -0.000010 -0.073200 
#    y -0.000010 2.114750 0.000000 
#    z -0.073200 0.000000 2.248220 
# 
# From -- ./inp_files/180897.got.cif
#   From: 2010.05.17/outbox.cif.g08.bks.cpg/sg15_91_cif.got.tgz:180897.got - 2010.06.03 18:47:42.
