data_PCOD9291744
_publ_section_title
;
Structure prediction by ZEFSAII (Michael W. Deem and Ramdas Pophale) SiO2 
 PCOD9291744
Probable space group: C 2/C
;
_chemical_formula_sum "Si O2"
_cell_formula_units_Z 44
_cell_length_a 14.457956
_cell_length_b 10.303725
_cell_length_c 14.217107
_cell_angle_alpha 90.000000
_cell_angle_beta 65.395379
_cell_angle_gamma 90.000000
_cell_volume 1925.630812
_symmetry_space_group_name_H-M "C 2/C"
_symmetry_group_IT_number 15
_symmetry_cell_setting 'monoclinic'
loop_
_space_group_symop_operation_xyz
x,y,z
-x,y,1/2-z
-x,-y,-z
x,-y,1/2+z
1/2+x,1/2+y,z
1/2-x,1/2+y,1/2-z
1/2-x,1/2-y,-z
1/2+x,1/2-y,1/2+z
loop_
_atom_site_type_symbol
_atom_site_label
_atom_site_fract_x
_atom_site_fract_y
_atom_site_fract_z
Si Si1 0.872750 0.346241 0.521914
Si Si2 0.598647 0.888761 0.771955
Si Si3 0.924217 0.339404 0.165301
Si Si4 0.289099 0.297680 0.582892
Si Si5 0.000000 0.893534 0.750000
Si Si6 0.162883 0.055044 0.032945
O O1 0.908953 0.363032 0.613509
O O2 0.854764 0.193839 0.508965
O O3 0.770778 0.426128 0.540890
O O4 0.962886 0.383343 0.412340
O O5 0.500000 0.861063 0.750000
O O6 0.694095 0.811395 0.692246
O O7 0.622256 0.043150 0.756787
O O8 0.866165 0.303338 0.095471
O O9 0.929417 0.206675 0.221537
O O10 0.250000 0.250000 0.500000
O O11 0.335829 0.438963 0.541985
O O12 0.072835 0.967412 0.647024
#
# Coordination Sequence:
#
# PCOD9291744 Si02
#       6
#     8   8   8   8   4   8
#     4  10  22  42  73  99 132 181 223 277 350 400
#     4  12  24  42  72  98 137 175 230 284 336 401
#     4  11  23  43  67  99 134 175 228 277 338 410
#     4  12  27  43  65 101 139 176 232 281 333 407
#     4  10  22  42  70  98 132 182 222 276 348 410
#     4  10  23  44  69  99 138 175 226 280 339 410
#
# _framework density 22.849654999999998
#
# number of rings (size 3 to 8) (size 9 to 14) (size 15 to 20)
#    0.000    1.091    0.909    4.909    7.636    2.909 
#    4.909    0.000    0.000    0.000    0.000    0.000 
#    0.000    0.000    0.000    0.000    0.000    0.000 
#
# Total GULP energy -123189.925054 kJ/mol
# GULP energy per Si atom -5599.542048 kJ/mol
# Density = 2.279765 g / cm^3
# Si number density = 22.849655 Si / 1000 Ang^3
#
#
#
# Elastic Constant Matrix: (Units=GPa)
#
#
# Indices 1 2 3 4 5 6 
#
# 1 101.7879 22.3389 10.4911 0.0000 17.8351 0.0000
# 2 22.3389 42.7410 6.4665 0.0000 -7.4911 0.0000
# 3 10.4911 6.4665 58.2210 0.0000 5.5659 0.0000
# 4 0.0000 0.0000 0.0000 35.9819 0.0000 15.2402
# 5 17.8351 -7.4911 5.5659 0.0000 44.8871 0.0000
# 6 0.0000 0.0000 0.0000 15.2402 0.0000 18.5177
#
#
#
# Elastic Compliance Matrix: (Units=1/GPa)
#
#
# Indices 1 2 3 4 5 6 
#
# 1 0.012658 -0.007572 -0.000848 0.000000 -0.006188 0.000000
# 2 -0.007572 0.029196 -0.002663 0.000000 0.008211 0.000000
# 3 -0.000848 -0.002663 0.017846 0.000000 -0.002320 0.000000
# 4 0.000000 0.000000 0.000000 0.042664 0.000000 -0.035113
# 5 -0.006188 0.008211 -0.002320 0.000000 0.026395 0.000000
# 6 0.000000 0.000000 0.000000 -0.035113 0.000000 0.082900
#
#
# Mechanical properties :
#
#
# Convention : Reuss Voigt Hill
#
# Bulk Modulus (GPa) = 26.64286 31.26030 28.95158
# Shear Modulus (GPa) = 20.29735 30.77424 25.53580
#
# Velocity S-wave (km/s) = 2.98367 3.67388 3.34662
# Velocity P-wave (km/s) = 4.85336 5.63090 5.25653
#
# Compressibility (1/GPa) = 0.03753351
#
# Stress axis : x y z
#
# Youngs Moduli (GPa) = 79.00301 34.25086 56.03357
#
# Poissons Ratio (x) = 0.25934 0.04753
# Poissons Ratio (y) = 0.59820 0.14924
# Poissons Ratio (z) = 0.06702 0.09122
#
# Static dielectric constant tensor:
#      x y z
#    x 1.858980 0.000000 -0.006910 
#    y 0.000000 1.874220 0.000000 
#    z -0.006910 0.000000 1.933400 
# 
# From -- ./inp_files/151732.got.cif
#   From: 2010.05.17/outbox.cif.g08.bks.cpg/sg15_76_cif.got.tgz:151732.got - 2010.06.03 18:47:42.
