data_PCOD9291477
_publ_section_title
;
Structure prediction by ZEFSAII (Michael W. Deem and Ramdas Pophale) SiO2 
 PCOD9291477
Probable space group: C 2/C
;
_chemical_formula_sum "Si O2"
_cell_formula_units_Z 32
_cell_length_a 21.745119
_cell_length_b 7.754221
_cell_length_c 8.108354
_cell_angle_alpha 90.000000
_cell_angle_beta 57.008630
_cell_angle_gamma 90.000000
_cell_volume 1146.744168
_symmetry_space_group_name_H-M "C 2/C"
_symmetry_group_IT_number 15
_symmetry_cell_setting 'monoclinic'
loop_
_space_group_symop_operation_xyz
x,y,z
-x,y,1/2-z
-x,-y,-z
x,-y,1/2+z
1/2+x,1/2+y,z
1/2-x,1/2+y,1/2-z
1/2-x,1/2-y,-z
1/2+x,1/2-y,1/2+z
loop_
_atom_site_type_symbol
_atom_site_label
_atom_site_fract_x
_atom_site_fract_y
_atom_site_fract_z
Si Si1 0.043366 0.159128 0.522201
Si Si2 0.335733 0.158216 0.270470
Si Si3 0.691737 0.461067 0.374415
Si Si4 0.614298 0.847500 0.125328
O O1 0.121697 0.084681 0.470941
O O2 0.000000 0.216064 0.750000
O O3 0.062496 0.291446 0.348438
O O4 0.000000 0.000000 0.500000
O O5 0.308753 0.354622 0.300027
O O6 0.268246 0.051813 0.290425
O O7 0.360928 0.042771 0.382563
O O8 0.403903 0.162366 0.041568
O O9 0.675639 0.305960 0.528231
#
# Coordination Sequence:
#
# PCOD9291477 Si02
#       4
#     8   8   8   8
#     4  12  24  46  70  92 133 182 229 268 321 401
#     4  10  22  42  68 102 138 162 221 276 347 389
#     4  10  23  40  70  98 135 170 222 273 336 395
#     4  10  24  43  65 102 132 175 218 272 337 386
#
# _framework density 27.905090999999999
#
# number of rings (size 3 to 8) (size 9 to 14) (size 15 to 20)
#    1.500    0.000    2.500    2.250    3.500    3.000 
#    0.000    6.250    0.000    0.000    0.000    0.000 
#    0.000    0.000    0.000    0.000    0.000    0.000 
#
# Total GULP energy -89447.362526 kJ/mol
# GULP energy per Si atom -5590.460158 kJ/mol
# Density = 2.784158 g / cm^3
# Si number density = 27.905091 Si / 1000 Ang^3
#
#
#
# Elastic Constant Matrix: (Units=GPa)
#
#
# Indices 1 2 3 4 5 6 
#
# 1 51.5635 -2.5296 33.2147 0.0000 -18.7037 0.0000
# 2 -2.5296 122.0090 45.4554 0.0000 -10.4764 0.0000
# 3 33.2147 45.4554 191.7200 0.0000 31.2334 0.0000
# 4 0.0000 0.0000 0.0000 59.4854 0.0000 10.4986
# 5 -18.7037 -10.4764 31.2334 0.0000 51.2696 0.0000
# 6 0.0000 0.0000 0.0000 10.4986 0.0000 45.8586
#
#
#
# Elastic Compliance Matrix: (Units=1/GPa)
#
#
# Indices 1 2 3 4 5 6 
#
# 1 0.033921 0.006420 -0.010689 0.000000 0.020198 0.000000
# 2 0.006420 0.010802 -0.004901 0.000000 0.007535 0.000000
# 3 -0.010689 -0.004901 0.010023 0.000000 -0.011007 0.000000
# 4 0.000000 0.000000 0.000000 0.017519 0.000000 -0.004011
# 5 0.020198 0.007535 -0.011007 0.000000 0.035118 0.000000
# 6 0.000000 0.000000 0.000000 -0.004011 0.000000 0.022724
#
#
# Mechanical properties :
#
#
# Convention : Reuss Voigt Hill
#
# Bulk Modulus (GPa) = 27.46853 57.50818 42.48835
# Shear Modulus (GPa) = 31.13664 50.59952 40.86808
#
# Velocity S-wave (km/s) = 3.34399 4.26287 3.83108
# Velocity P-wave (km/s) = 4.97741 6.69945 5.90158
#
# Compressibility (1/GPa) = 0.03640530
#
# Stress axis : x y z
#
# Youngs Moduli (GPa) = 29.48062 92.57476 99.77109
#
# Poissons Ratio (x) = -0.59433 1.06648
# Poissons Ratio (y) = -0.18927 0.48897
# Poissons Ratio (z) = 0.31513 0.45370
#
# Static dielectric constant tensor:
#      x y z
#    x 2.213670 0.000000 0.054980 
#    y 0.000000 2.169250 0.000000 
#    z 0.054980 0.000000 2.193940 
# 
# From -- ./inp_files/125416.got.cif
#   From: 2010.05.17/outbox.cif.g08.bks.cpg/sg15_63_cif.got.tgz:125416.got - 2010.06.03 18:47:42.
