data_PCOD9291326
_publ_section_title
;
Structure prediction by ZEFSAII (Michael W. Deem and Ramdas Pophale) SiO2 
 PCOD9291326
Probable space group: C 2/C
;
_chemical_formula_sum "Si O2"
_cell_formula_units_Z 28
_cell_length_a 7.257994
_cell_length_b 35.526167
_cell_length_c 5.052945
_cell_angle_alpha 90.000000
_cell_angle_beta 105.133618
_cell_angle_gamma 90.000000
_cell_volume 1257.710423
_symmetry_space_group_name_H-M "C 2/C"
_symmetry_group_IT_number 15
_symmetry_cell_setting 'monoclinic'
loop_
_space_group_symop_operation_xyz
x,y,z
-x,y,1/2-z
-x,-y,-z
x,-y,1/2+z
1/2+x,1/2+y,z
1/2-x,1/2+y,1/2-z
1/2-x,1/2-y,-z
1/2+x,1/2-y,1/2+z
loop_
_atom_site_type_symbol
_atom_site_label
_atom_site_fract_x
_atom_site_fract_y
_atom_site_fract_z
Si Si1 0.231288 0.411991 0.854639
Si Si2 0.723713 0.868721 0.335214
Si Si3 0.631859 0.286457 0.043509
Si Si4 0.500000 0.471649 0.250000
O O1 0.296367 0.398612 0.585119
O O2 0.000000 0.418648 0.750000
O O3 0.285302 0.376659 0.059037
O O4 0.330734 0.444665 0.068781
O O5 0.500000 0.876699 0.250000
O O6 0.749110 0.824616 0.385366
O O7 0.500000 0.279088 0.250000
O O8 0.500000 0.295410 0.750000
O O9 0.750000 0.250000 0.000000
O O10 0.500000 0.500000 0.500000
#
# Coordination Sequence:
#
# PCOD9291326 Si02
#       4
#     8   8   8   4
#     4  10  23  42  67  96 132 175 227 280 346 413
#     4  10  22  42  66  95 129 175 229 287 336 409
#     4  12  26  42  65  98 138 185 232 289 352 411
#     4  12  26  42  66 100 136 174 224 286 346 426
#
# _framework density 22.262678999999999
#
# number of rings (size 3 to 8) (size 9 to 14) (size 15 to 20)
#    0.000    1.143    0.000    5.143    6.000    4.571 
#    0.000    0.000    0.000    0.000    0.000    0.000 
#    0.000    0.000    0.000    0.000    0.000    0.000 
#
# Total GULP energy -77934.644900 kJ/mol
# GULP energy per Si atom -5566.760350 kJ/mol
# Density = 2.221201 g / cm^3
# Si number density = 22.262679 Si / 1000 Ang^3
#
#
#
# Elastic Constant Matrix: (Units=GPa)
#
#
# Indices 1 2 3 4 5 6 
#
# 1 60.1153 18.9182 67.3021 0.0000 1.9677 0.0000
# 2 18.9182 136.4573 75.2795 0.0000 12.2368 0.0000
# 3 67.3021 75.2795 190.1459 0.0000 -8.8592 0.0000
# 4 0.0000 0.0000 0.0000 51.4982 0.0000 -3.5492
# 5 1.9677 12.2368 -8.8592 0.0000 58.5660 0.0000
# 6 0.0000 0.0000 0.0000 -3.5492 0.0000 30.6284
#
#
#
# Elastic Compliance Matrix: (Units=1/GPa)
#
#
# Indices 1 2 3 4 5 6 
#
# 1 0.028542 0.002539 -0.011257 0.000000 -0.003192 0.000000
# 2 0.002539 0.009992 -0.004991 0.000000 -0.002928 0.000000
# 3 -0.011257 -0.004991 0.011366 0.000000 0.003140 0.000000
# 4 0.000000 0.000000 0.000000 0.019574 0.000000 0.002268
# 5 -0.003192 -0.002928 0.003140 0.000000 0.018269 0.000000
# 6 0.000000 0.000000 0.000000 0.002268 0.000000 0.032912
#
#
# Mechanical properties :
#
#
# Convention : Reuss Voigt Hill
#
# Bulk Modulus (GPa) = 44.47754 78.85758 61.66756
# Shear Modulus (GPa) = 32.14036 43.15310 37.64673
#
# Velocity S-wave (km/s) = 3.80371 4.40746 4.11667
# Velocity P-wave (km/s) = 6.27000 7.83577 7.09620
#
# Compressibility (1/GPa) = 0.02248326
#
# Stress axis : x y z
#
# Youngs Moduli (GPa) = 35.03558 100.07676 87.98403
#
# Poissons Ratio (x) = -0.25411 0.99040
# Poissons Ratio (y) = -0.08896 0.43914
# Poissons Ratio (z) = 0.39438 0.49950
#
# Static dielectric constant tensor:
#      x y z
#    x 1.917740 0.000000 0.083480 
#    y 0.000000 1.682160 0.000000 
#    z 0.083480 0.000000 2.362400 
# 
# From -- ./inp_files/2482.got.cif
#   From: 2010.05.17/outbox.cif.g08.bks.cpg/sg15_2_cif.got.tgz:2482.got - 2010.06.03 18:47:42.
