data_PCOD9291735
_publ_section_title
;
Structure prediction by ZEFSAII (Michael W. Deem and Ramdas Pophale) SiO2 
 PCOD9291735
Probable space group: C 2/C
;
_chemical_formula_sum "Si O2"
_cell_formula_units_Z 52
_cell_length_a 19.104339
_cell_length_b 8.354859
_cell_length_c 16.326338
_cell_angle_alpha 90.000000
_cell_angle_beta 120.731683
_cell_angle_gamma 90.000000
_cell_volume 2239.964239
_symmetry_space_group_name_H-M "C 2/C"
_symmetry_group_IT_number 15
_symmetry_cell_setting 'monoclinic'
loop_
_space_group_symop_operation_xyz
x,y,z
-x,y,1/2-z
-x,-y,-z
x,-y,1/2+z
1/2+x,1/2+y,z
1/2-x,1/2+y,1/2-z
1/2-x,1/2-y,-z
1/2+x,1/2-y,1/2+z
loop_
_atom_site_type_symbol
_atom_site_label
_atom_site_fract_x
_atom_site_fract_y
_atom_site_fract_z
Si Si1 0.187023 0.776082 0.118532
Si Si2 0.583690 0.145877 0.618561
Si Si3 0.937627 0.997979 0.387085
Si Si4 0.000000 0.087617 0.750000
Si Si5 0.666616 0.222146 0.396244
Si Si6 0.096494 0.551708 0.957574
Si Si7 0.718104 0.071181 0.276338
O O1 0.238538 0.646945 0.200310
O O2 0.108238 0.828811 0.125491
O O3 0.228326 0.947125 0.140372
O O4 0.157362 0.693866 0.018828
O O5 0.607376 0.331633 0.628653
O O6 0.492858 0.127185 0.599731
O O7 0.590086 0.070529 0.531343
O O8 0.640233 0.036729 0.708074
O O9 0.000000 0.000000 0.500000
O O10 0.969935 0.000974 0.313910
O O11 0.917853 0.175890 0.663848
O O12 0.750000 0.250000 0.500000
O O13 0.700895 0.217596 0.325206
O O14 0.630952 0.051103 0.404211
#
# Coordination Sequence:
#
# PCOD9291735 Si02
#       7
#     8   8   8   4   8   8   8
#     4  11  24  43  69 102 137 187 236 298 358 446
#     4  10  22  42  70  97 133 188 227 298 354 439
#     4  12  24  44  75 108 143 192 244 300 378 436
#     4  12  28  48  72 112 154 188 256 310 370 446
#     4  12  28  44  71 105 145 196 238 312 375 433
#     4  10  23  43  69  99 136 181 246 285 372 433
#     4  11  25  43  67  98 144 182 237 293 368 435
#
# _framework density 23.214658
#
# number of rings (size 3 to 8) (size 9 to 14) (size 15 to 20)
#    0.000    0.923    3.077    2.769   10.769    3.077 
#    0.000    0.000    0.000    0.000    0.000    0.000 
#    0.000    0.000    0.000    0.000    0.000    0.000 
#
# Total GULP energy -144908.066057 kJ/mol
# GULP energy per Si atom -5573.387156 kJ/mol
# Density = 2.316182 g / cm^3
# Si number density = 23.214658 Si / 1000 Ang^3
#
#
#
# Elastic Constant Matrix: (Units=GPa)
#
#
# Indices 1 2 3 4 5 6 
#
# 1 26.5788 -5.2360 8.6963 0.0000 7.3287 0.0000
# 2 -5.2360 88.4784 15.8478 0.0000 15.4336 0.0000
# 3 8.6963 15.8478 101.2299 0.0000 13.8682 0.0000
# 4 0.0000 0.0000 0.0000 47.2430 0.0000 -0.0325
# 5 7.3287 15.4336 13.8682 0.0000 39.3275 0.0000
# 6 0.0000 0.0000 0.0000 -0.0325 0.0000 36.2850
#
#
#
# Elastic Compliance Matrix: (Units=1/GPa)
#
#
# Indices 1 2 3 4 5 6 
#
# 1 0.041878 0.004519 -0.003145 0.000000 -0.008468 0.000000
# 2 0.004519 0.012788 -0.001668 0.000000 -0.005272 0.000000
# 3 -0.003145 -0.001668 0.010760 0.000000 -0.002554 0.000000
# 4 0.000000 0.000000 0.000000 0.021167 0.000000 0.000019
# 5 -0.008468 -0.005272 -0.002554 0.000000 0.029975 0.000000
# 6 0.000000 0.000000 0.000000 0.000019 0.000000 0.027560
#
#
# Mechanical properties :
#
#
# Convention : Reuss Voigt Hill
#
# Bulk Modulus (GPa) = 15.42315 28.32260 21.87288
# Shear Modulus (GPa) = 30.06103 37.70303 33.88203
#
# Velocity S-wave (km/s) = 3.60240 4.03439 3.82450
# Velocity P-wave (km/s) = 4.89501 5.82482 5.38004
#
# Compressibility (1/GPa) = 0.06483761
#
# Stress axis : x y z
#
# Youngs Moduli (GPa) = 23.87885 78.19811 92.94013
#
# Poissons Ratio (x) = -0.35335 0.29229
# Poissons Ratio (y) = -0.10790 0.15501
# Poissons Ratio (z) = 0.07510 0.13042
#
# Static dielectric constant tensor:
#      x y z
#    x 1.999170 0.000000 0.090050 
#    y 0.000000 1.841150 0.000000 
#    z 0.090050 0.000000 1.883750 
# 
# From -- ./inp_files/209685.got.cif
#   From: 2010.05.17/outbox.cif.g08.bks.cpg/sg15_105_cif.got.tgz:209685.got - 2010.06.03 18:47:42.
