data_PCOD9291022
_publ_section_title
;
Structure prediction by ZEFSAII (Michael W. Deem and Ramdas Pophale) SiO2 
 PCOD9291022
Probable space group: C 2/C
;
_chemical_formula_sum "Si O2"
_cell_formula_units_Z 56
_cell_length_a 11.924082
_cell_length_b 8.205068
_cell_length_c 27.104926
_cell_angle_alpha 90.000000
_cell_angle_beta 72.231542
_cell_angle_gamma 90.000000
_cell_volume 2525.387496
_symmetry_space_group_name_H-M "C 2/C"
_symmetry_group_IT_number 15
_symmetry_cell_setting 'monoclinic'
loop_
_space_group_symop_operation_xyz
x,y,z
-x,y,1/2-z
-x,-y,-z
x,-y,1/2+z
1/2+x,1/2+y,z
1/2-x,1/2+y,1/2-z
1/2-x,1/2-y,-z
1/2+x,1/2-y,1/2+z
loop_
_atom_site_type_symbol
_atom_site_label
_atom_site_fract_x
_atom_site_fract_y
_atom_site_fract_z
Si Si1 0.665777 0.793080 0.354711
Si Si2 0.084092 0.858485 0.194543
Si Si3 0.735935 0.150846 0.584689
Si Si4 0.177139 0.193408 0.462297
Si Si5 0.057192 0.924286 0.607107
Si Si6 0.968931 0.547367 0.360399
Si Si7 0.507342 0.742360 0.943557
O O1 0.786460 0.794556 0.308560
O O2 0.703642 0.787172 0.407713
O O3 0.573906 0.644300 0.365544
O O4 0.585597 0.940862 0.346657
O O5 0.000000 0.907997 0.250000
O O6 0.024670 0.705826 0.174150
O O7 0.100941 0.005027 0.153460
O O8 0.645107 0.284719 0.575456
O O9 0.853169 0.247592 0.583631
O O10 0.794899 0.997555 0.548481
O O11 0.647610 0.060049 0.635060
O O12 0.250000 0.250000 0.500000
O O13 0.042290 0.237889 0.494568
O O14 0.041593 0.074589 0.572703
O O15 0.953607 0.611825 0.418536
#
# Coordination Sequence:
#
# PCOD9291022 Si02
#       7
#     8   8   8   8   8   8   8
#     4  11  23  43  61  90 132 165 206 263 315 369
#     4  11  23  44  69  93 120 153 209 269 326 390
#     4  11  21  40  59  87 128 167 206 254 303 362
#     4  12  22  39  62  91 134 172 218 258 293 366
#     4  10  23  41  63  89 127 166 207 258 320 377
#     4  10  22  42  63  90 125 168 201 258 319 371
#     4  11  21  38  59  89 126 172 212 250 299 358
#
# _framework density 22.174817000000001
#
# number of rings (size 3 to 8) (size 9 to 14) (size 15 to 20)
#    0.000    1.143    4.286    2.143    0.000    2.286 
#    2.571    2.857    0.000    0.000    0.000    0.000 
#    0.000    0.000    0.000    0.000    0.000    0.000 
#
# Total GULP energy -156251.862877 kJ/mol
# GULP energy per Si atom -5580.423674 kJ/mol
# Density = 2.212435 g / cm^3
# Si number density = 22.174817 Si / 1000 Ang^3
#
#
#
# Elastic Constant Matrix: (Units=GPa)
#
#
# Indices 1 2 3 4 5 6 
#
# 1 101.3304 18.4751 25.6472 0.0000 -26.1362 0.0000
# 2 18.4751 50.9749 7.2905 0.0000 -9.5375 0.0000
# 3 25.6472 7.2905 66.2179 0.0000 -28.3863 0.0000
# 4 0.0000 0.0000 0.0000 15.1307 0.0000 -5.2553
# 5 -26.1362 -9.5375 -28.3863 0.0000 25.1578 0.0000
# 6 0.0000 0.0000 0.0000 -5.2553 0.0000 36.8034
#
#
#
# Elastic Compliance Matrix: (Units=1/GPa)
#
#
# Indices 1 2 3 4 5 6 
#
# 1 0.013827 -0.002405 0.001310 0.000000 0.014931 0.000000
# 2 -0.002405 0.021692 0.001932 0.000000 0.007905 0.000000
# 3 0.001310 0.001932 0.029593 0.000000 0.035484 0.000000
# 4 0.000000 0.000000 0.000000 0.069540 0.000000 0.009930
# 5 0.014931 0.007905 0.035484 0.000000 0.098295 0.000000
# 6 0.000000 0.000000 0.000000 0.009930 0.000000 0.028589
#
#
# Mechanical properties :
#
#
# Convention : Reuss Voigt Hill
#
# Bulk Modulus (GPa) = 14.97340 35.70543 25.33942
# Shear Modulus (GPa) = 17.72273 26.55905 22.14089
#
# Velocity S-wave (km/s) = 2.83013 3.46455 3.16329
# Velocity P-wave (km/s) = 4.17691 5.66930 4.97933
#
# Compressibility (1/GPa) = 0.06678508
#
# Stress axis : x y z
#
# Youngs Moduli (GPa) = 72.32349 46.10025 33.79211
#
# Poissons Ratio (x) = 0.11087 -0.04427
# Poissons Ratio (y) = 0.17394 -0.06528
# Poissons Ratio (z) = -0.09475 -0.08906
#
# Static dielectric constant tensor:
#      x y z
#    x 1.897850 0.000000 -0.029460 
#    y 0.000000 1.816160 0.000000 
#    z -0.029460 0.000000 1.820030 
# 
# From -- ./inp_files/291515.got.cif
#   From: 2010.05.17/outbox.cif.g08.bks.cpg/sg15_146_cif.got.tgz:291515.got - 2010.06.03 18:47:42.
