data_PCOD9291058
_publ_section_title
;
Structure prediction by ZEFSAII (Michael W. Deem and Ramdas Pophale) SiO2 
 PCOD9291058
Probable space group: C 2/C
;
_chemical_formula_sum "Si O2"
_cell_formula_units_Z 44
_cell_length_a 22.450845
_cell_length_b 14.218981
_cell_length_c 16.928280
_cell_angle_alpha 90.000000
_cell_angle_beta 161.827444
_cell_angle_gamma 90.000000
_cell_volume 1685.393544
_symmetry_space_group_name_H-M "C 2/C"
_symmetry_group_IT_number 15
_symmetry_cell_setting 'monoclinic'
loop_
_space_group_symop_operation_xyz
x,y,z
-x,y,1/2-z
-x,-y,-z
x,-y,1/2+z
1/2+x,1/2+y,z
1/2-x,1/2+y,1/2-z
1/2-x,1/2-y,-z
1/2+x,1/2-y,1/2+z
loop_
_atom_site_type_symbol
_atom_site_label
_atom_site_fract_x
_atom_site_fract_y
_atom_site_fract_z
Si Si1 0.863025 0.347803 0.652023
Si Si2 0.500000 0.180113 0.750000
Si Si3 0.602893 0.507351 0.260281
Si Si4 0.240804 0.139656 0.556762
Si Si5 0.201301 0.330884 0.196005
Si Si6 0.600322 0.378879 0.608617
O O1 0.750000 0.250000 0.500000
O O2 0.721511 0.434560 0.462825
O O3 0.000000 0.353364 0.750000
O O4 0.002286 0.352908 0.901981
O O5 0.431816 0.129795 0.743700
O O6 0.323962 0.251940 0.515663
O O7 0.591118 0.594437 0.304835
O O8 0.435241 0.444508 0.012226
O O9 0.688809 0.556211 0.289552
O O10 0.287359 0.115217 0.705897
O O11 0.388753 0.353835 0.379246
O O12 0.194320 0.217973 0.200364
#
# Coordination Sequence:
#
# PCOD9291058 Si02
#       6
#     8   4   8   8   8   8
#     4  12  25  50  74 102 146 195 239 293 367 434
#     4  10  22  42  64 102 146 190 220 300 366 426
#     4  11  25  45  69 105 148 190 230 308 352 423
#     4  11  23  40  70 102 145 181 243 292 362 417
#     4  12  23  47  75 107 139 195 242 293 358 452
#     4  11  25  47  76 104 148 191 246 292 368 428
#
# _framework density 26.106662
#
# number of rings (size 3 to 8) (size 9 to 14) (size 15 to 20)
#    0.000    0.727    3.636    4.364    1.273    0.727 
#    4.909    1.818    0.000    0.000    0.000    0.000 
#    0.000    0.000    0.000    0.000    0.000    0.000 
#
# Total GULP energy -122956.699415 kJ/mol
# GULP energy per Si atom -5588.940882 kJ/mol
# Density = 2.604724 g / cm^3
# Si number density = 26.106662 Si / 1000 Ang^3
#
#
#
# Elastic Constant Matrix: (Units=GPa)
#
#
# Indices 1 2 3 4 5 6 
#
# 1 122.1447 20.3858 51.5888 -0.0027 -39.1256 -0.0034
# 2 20.3858 123.3389 18.1387 -0.0027 -31.3607 -0.0038
# 3 51.5888 18.1387 117.1890 -0.0022 -52.8953 -0.0037
# 4 -0.0027 -0.0027 -0.0022 34.4947 -0.0029 -5.2916
# 5 -39.1256 -31.3607 -52.8953 -0.0029 49.3944 -0.0041
# 6 -0.0034 -0.0038 -0.0037 -5.2916 -0.0041 41.9001
#
#
#
# Elastic Compliance Matrix: (Units=1/GPa)
#
#
# Indices 1 2 3 4 5 6 
#
# 1 0.011165 0.000223 -0.001730 0.000002 0.007133 0.000002
# 2 0.000223 0.010056 0.002530 0.000002 0.009270 0.000002
# 3 -0.001730 0.002530 0.017439 0.000003 0.018910 0.000004
# 4 0.000002 0.000002 0.000003 0.029563 0.000008 0.003733
# 5 0.007133 0.009270 0.018910 0.000008 0.052031 0.000009
# 6 0.000002 0.000002 0.000004 0.003733 0.000009 0.024338
#
#
# Mechanical properties :
#
#
# Convention : Reuss Voigt Hill
#
# Bulk Modulus (GPa) = 24.56756 60.32214 42.44485
# Shear Modulus (GPa) = 32.02748 43.32845 37.67796
#
# Velocity S-wave (km/s) = 3.50636 4.07832 3.80311
# Velocity P-wave (km/s) = 5.08170 6.73299 5.96476
#
# Compressibility (1/GPa) = 0.04070408
#
# Stress axis : x y z
#
# Youngs Moduli (GPa) = 89.56262 99.44408 57.34302
#
# Poissons Ratio (x) = -0.02213 0.09922
# Poissons Ratio (y) = -0.01993 -0.14505
# Poissons Ratio (z) = 0.15496 -0.25155
#
# Static dielectric constant tensor:
#      x y z
#    x 2.082160 0.000000 0.039680 
#    y 0.000000 2.074400 -0.000010 
#    z 0.039680 -0.000010 2.260750 
# 
# From -- ./inp_files/219767.got.cif
#   From: 2010.05.17/outbox.cif.g08.bks.cpg/sg15_110_cif.got.tgz:219767.got - 2010.06.03 18:47:42.
