data_PCOD9291698
_publ_section_title
;
Structure prediction by ZEFSAII (Michael W. Deem and Ramdas Pophale) SiO2 
 PCOD9291698
Probable space group: C 2/C
;
_chemical_formula_sum "Si O2"
_cell_formula_units_Z 36
_cell_length_a 7.305098
_cell_length_b 19.955022
_cell_length_c 11.105671
_cell_angle_alpha 90.000000
_cell_angle_beta 106.247235
_cell_angle_gamma 90.000000
_cell_volume 1554.257441
_symmetry_space_group_name_H-M "C 2/C"
_symmetry_group_IT_number 15
_symmetry_cell_setting 'monoclinic'
loop_
_space_group_symop_operation_xyz
x,y,z
-x,y,1/2-z
-x,-y,-z
x,-y,1/2+z
1/2+x,1/2+y,z
1/2-x,1/2+y,1/2-z
1/2-x,1/2-y,-z
1/2+x,1/2-y,1/2+z
loop_
_atom_site_type_symbol
_atom_site_label
_atom_site_fract_x
_atom_site_fract_y
_atom_site_fract_z
Si Si1 0.134877 0.130569 0.032357
Si Si2 0.273724 0.768593 0.727635
Si Si3 0.553054 0.929432 0.065437
Si Si4 0.000000 0.871677 0.750000
Si Si5 0.737857 0.379590 0.180635
O O1 0.161250 0.205847 0.087982
O O2 0.060197 0.091915 0.138624
O O3 0.336911 0.108974 0.019447
O O4 0.978712 0.121516 0.901813
O O5 0.500000 0.775122 0.750000
O O6 0.181945 0.821989 0.804587
O O7 0.225879 0.693673 0.756349
O O8 0.370445 0.893578 0.089958
O O9 0.698619 0.932188 0.205893
O O10 0.500000 0.000000 0.000000
#
# Coordination Sequence:
#
# PCOD9291698 Si02
#       5
#     8   8   8   4   8
#     4  10  24  45  74 110 147 197 234 307 378 442
#     4  10  22  42  70 113 154 183 229 298 385 451
#     4  11  26  49  74  99 143 202 254 304 350 434
#     4   8  22  40  64 116 144 190 226 292 362 462
#     4  11  25  48  71 113 146 190 251 304 373 437
#
# _framework density 23.162188
#
# number of rings (size 3 to 8) (size 9 to 14) (size 15 to 20)
#    1.333    0.444    0.000    3.333    3.111    5.333 
#   12.000    0.000    0.000    0.000    0.000    0.000 
#    0.000    0.000    0.000    0.000    0.000    0.000 
#
# Total GULP energy -100432.907075 kJ/mol
# GULP energy per Si atom -5579.605949 kJ/mol
# Density = 2.310947 g / cm^3
# Si number density = 23.162188 Si / 1000 Ang^3
#
#
#
# Elastic Constant Matrix: (Units=GPa)
#
#
# Indices 1 2 3 4 5 6 
#
# 1 163.0317 48.7435 36.5048 0.0000 -23.0615 0.0000
# 2 48.7435 73.2405 55.3376 0.0000 -0.7675 0.0000
# 3 36.5048 55.3376 99.2649 0.0000 -7.6082 0.0000
# 4 0.0000 0.0000 0.0000 41.5115 0.0000 -2.8000
# 5 -23.0615 -0.7675 -7.6082 0.0000 53.3930 0.0000
# 6 0.0000 0.0000 0.0000 -2.8000 0.0000 7.3865
#
#
#
# Elastic Compliance Matrix: (Units=1/GPa)
#
#
# Indices 1 2 3 4 5 6 
#
# 1 0.008273 -0.005833 0.000482 0.000000 0.003558 0.000000
# 2 -0.005833 0.027830 -0.013681 0.000000 -0.004069 0.000000
# 3 0.000482 -0.013681 0.017718 0.000000 0.002536 0.000000
# 4 0.000000 0.000000 0.000000 0.024722 0.000000 0.009371
# 5 0.003558 -0.004069 0.002536 0.000000 0.020569 0.000000
# 6 0.000000 0.000000 0.000000 0.009371 0.000000 0.138935
#
#
# Mechanical properties :
#
#
# Convention : Reuss Voigt Hill
#
# Bulk Modulus (GPa) = 63.46448 68.52322 65.99385
# Shear Modulus (GPa) = 17.77062 33.45494 25.61278
#
# Velocity S-wave (km/s) = 2.77289 3.80462 3.32897
# Velocity P-wave (km/s) = 6.14096 6.99632 6.58255
#
# Compressibility (1/GPa) = 0.01575685
#
# Stress axis : x y z
#
# Youngs Moduli (GPa) = 120.87397 35.93253 56.43909
#
# Poissons Ratio (x) = 0.20959 -0.02720
# Poissons Ratio (y) = 0.70503 0.77216
# Poissons Ratio (z) = -0.05825 0.49160
#
# Static dielectric constant tensor:
#      x y z
#    x 1.881120 0.000000 -0.037960 
#    y 0.000000 1.880330 0.000000 
#    z -0.037960 0.000000 1.957860 
# 
# From -- ./inp_files/77948.got.cif
#   From: 2010.05.17/outbox.cif.g08.bks.cpg/sg15_39_cif.got.tgz:77948.got - 2010.06.03 18:47:42.
