data_PCOD9291061
_publ_section_title
;
Structure prediction by ZEFSAII (Michael W. Deem and Ramdas Pophale) SiO2 
 PCOD9291061
Probable space group: C 2/C
;
_chemical_formula_sum "Si O2"
_cell_formula_units_Z 44
_cell_length_a 11.677091
_cell_length_b 19.239892
_cell_length_c 13.107538
_cell_angle_alpha 90.000000
_cell_angle_beta 34.568215
_cell_angle_gamma 90.000000
_cell_volume 1670.851361
_symmetry_space_group_name_H-M "C 2/C"
_symmetry_group_IT_number 15
_symmetry_cell_setting 'monoclinic'
loop_
_space_group_symop_operation_xyz
x,y,z
-x,y,1/2-z
-x,-y,-z
x,-y,1/2+z
1/2+x,1/2+y,z
1/2-x,1/2+y,1/2-z
1/2-x,1/2-y,-z
1/2+x,1/2-y,1/2+z
loop_
_atom_site_type_symbol
_atom_site_label
_atom_site_fract_x
_atom_site_fract_y
_atom_site_fract_z
Si Si1 0.565908 0.967637 0.587787
Si Si2 0.449405 0.680241 0.943033
Si Si3 0.082095 0.614539 0.486916
Si Si4 0.000000 0.930491 0.250000
Si Si5 0.500000 0.200766 0.250000
Si Si6 0.019617 0.173156 0.127778
Si Si7 0.000000 0.316915 0.250000
O O1 0.500000 0.959617 0.750000
O O2 0.485779 0.903178 0.579070
O O3 0.805238 0.974503 0.412652
O O4 0.499371 0.043274 0.598084
O O5 0.217311 0.667008 0.081909
O O6 0.467388 0.688144 0.049376
O O7 0.554907 0.616500 0.808220
O O8 0.519152 0.748838 0.834045
O O9 0.328366 0.624883 0.299175
O O10 0.989018 0.675875 0.624375
O O11 0.000000 0.225777 0.250000
O O12 0.257418 0.158858 0.941828
#
# Coordination Sequence:
#
# PCOD9291061 Si02
#       7
#     8   8   8   4   4   8   4
#     4  11  26  50  76 104 144 195 249 316 358 432
#     4  10  22  42  64 107 140 185 243 287 367 437
#     4  11  24  47  71 105 147 190 248 305 371 437
#     4  11  26  43  76 106 137 194 247 312 358 426
#     4   9  22  38  67  93 148 190 225 304 348 434
#     4  10  25  40  69 107 145 191 229 303 368 449
#     4  10  24  43  69 103 147 192 242 294 374 448
#
# _framework density 26.333881999999999
#
# number of rings (size 3 to 8) (size 9 to 14) (size 15 to 20)
#    0.545    1.091    0.909    1.636    7.636    4.364 
#    0.000    4.545    0.000    0.000    0.000    0.000 
#    0.000    0.000    0.000    0.000    0.000    0.000 
#
# Total GULP energy -122628.070943 kJ/mol
# GULP energy per Si atom -5574.003225 kJ/mol
# Density = 2.627395 g / cm^3
# Si number density = 26.333882 Si / 1000 Ang^3
#
#
#
# Elastic Constant Matrix: (Units=GPa)
#
#
# Indices 1 2 3 4 5 6 
#
# 1 143.3921 26.6973 73.1061 -0.0051 24.5746 -0.0002
# 2 26.6973 70.9131 22.8481 0.0017 27.3466 -0.0038
# 3 73.1061 22.8481 209.8078 0.0198 11.8095 -0.0064
# 4 -0.0051 0.0017 0.0198 172.9095 0.0049 -41.4080
# 5 24.5746 27.3466 11.8095 0.0049 78.1835 -0.0021
# 6 -0.0002 -0.0038 -0.0064 -41.4080 -0.0021 24.4593
#
#
#
# Elastic Compliance Matrix: (Units=1/GPa)
#
#
# Indices 1 2 3 4 5 6 
#
# 1 0.009078 -0.001804 -0.002866 0.000001 -0.001789 0.000000
# 2 -0.001804 0.017119 -0.000939 0.000001 -0.005279 0.000003
# 3 -0.002866 -0.000939 0.005848 -0.000001 0.000346 0.000000
# 4 0.000001 0.000001 -0.000001 0.009727 -0.000001 0.016467
# 5 -0.001789 -0.005279 0.000346 -0.000001 0.015147 0.000000
# 6 0.000000 0.000003 0.000000 0.016467 0.000000 0.068761
#
#
# Mechanical properties :
#
#
# Convention : Reuss Voigt Hill
#
# Bulk Modulus (GPa) = 48.01373 74.37955 61.19664
# Shear Modulus (GPa) = 34.76111 75.20791 54.98451
#
# Velocity S-wave (km/s) = 3.63714 5.34989 4.57439
# Velocity P-wave (km/s) = 5.99255 8.15279 7.15467
#
# Compressibility (1/GPa) = 0.02082738
#
# Stress axis : x y z
#
# Youngs Moduli (GPa) = 110.16218 58.41424 171.01082
#
# Poissons Ratio (x) = 0.10539 0.49009
# Poissons Ratio (y) = 0.19874 0.16049
# Poissons Ratio (z) = 0.31570 0.05482
#
# Static dielectric constant tensor:
#      x y z
#    x 2.146010 0.000010 0.087510 
#    y 0.000010 2.179010 0.000000 
#    z 0.087510 0.000000 2.001950 
# 
# From -- ./inp_files/91164.got.cif
#   From: 2010.05.17/outbox.cif.g08.bks.cpg/sg15_46_cif.got.tgz:91164.got - 2010.06.03 18:47:42.
