data_PCOD9291990
_publ_section_title
;
Structure prediction by ZEFSAII (Michael W. Deem and Ramdas Pophale) SiO2 
 PCOD9291990
Probable space group: C 2/C
;
_chemical_formula_sum "Si O2"
_cell_formula_units_Z 60
_cell_length_a 21.614696
_cell_length_b 5.732487
_cell_length_c 22.377529
_cell_angle_alpha 90.000000
_cell_angle_beta 95.495622
_cell_angle_gamma 90.000000
_cell_volume 2759.964593
_symmetry_space_group_name_H-M "C 2/C"
_symmetry_group_IT_number 15
_symmetry_cell_setting 'monoclinic'
loop_
_space_group_symop_operation_xyz
x,y,z
-x,y,1/2-z
-x,-y,-z
x,-y,1/2+z
1/2+x,1/2+y,z
1/2-x,1/2+y,1/2-z
1/2-x,1/2-y,-z
1/2+x,1/2-y,1/2+z
loop_
_atom_site_type_symbol
_atom_site_label
_atom_site_fract_x
_atom_site_fract_y
_atom_site_fract_z
Si Si1 0.770002 0.589321 0.777360
Si Si2 0.089117 0.417544 0.189865
Si Si3 0.230758 0.193402 0.094808
Si Si4 0.000624 0.793555 0.360232
Si Si5 0.063433 0.576924 0.473343
Si Si6 0.597664 0.597990 0.078125
Si Si7 0.195429 0.438881 0.488916
Si Si8 0.500000 0.421804 0.750000
O O1 0.740057 0.336898 0.758906
O O2 0.842909 0.535279 0.780860
O O3 0.755359 0.672455 0.843331
O O4 0.046580 0.640778 0.182833
O O5 0.093274 0.319626 0.122563
O O6 0.054776 0.228012 0.226299
O O7 0.169718 0.023664 0.094410
O O8 0.289202 0.060789 0.072886
O O9 0.209362 0.379652 0.043280
O O10 0.029047 0.951527 0.310980
O O11 0.046922 0.639623 0.403847
O O12 0.956129 0.929283 0.403179
O O13 0.085035 0.810107 0.510611
O O14 0.121208 0.396235 0.484326
O O15 0.000000 0.500000 0.500000
O O16 0.250000 0.250000 0.500000
#
# Coordination Sequence:
#
# PCOD9291990 Si02
#       8
#     8   8   8   8   8   8   8   4
#     4  11  27  45  72 104 137 184 243 297 348 425
#     4  10  22  43  64  95 133 178 230 283 362 407
#     4   9  22  43  64  95 130 178 229 277 359 419
#     4  11  22  40  70  92 137 180 222 291 347 420
#     4  11  22  40  64 106 130 169 231 283 344 427
#     4   9  20  38  67  95 127 169 223 280 351 417
#     4  10  23  42  67  93 137 184 220 290 358 420
#     4  10  24  42  62  96 132 192 224 282 356 426
#
# _framework density 21.739408000000001
#
# number of rings (size 3 to 8) (size 9 to 14) (size 15 to 20)
#    0.000    1.867    1.333    0.800    9.333    1.067 
#    4.800    0.000    0.000    0.000    0.000    0.000 
#    0.000    0.000    0.000    0.000    0.000    0.000 
#
# Total GULP energy -167323.080965 kJ/mol
# GULP energy per Si atom -5577.436032 kJ/mol
# Density = 2.168993 g / cm^3
# Si number density = 21.739408 Si / 1000 Ang^3
#
#
#
# Elastic Constant Matrix: (Units=GPa)
#
#
# Indices 1 2 3 4 5 6 
#
# 1 103.9557 26.0975 27.0251 0.0000 6.2775 0.0000
# 2 26.0975 53.0155 16.4168 0.0000 14.4057 0.0000
# 3 27.0251 16.4168 87.4033 0.0000 -0.8740 0.0000
# 4 0.0000 0.0000 0.0000 -23.9595 0.0000 -28.1485
# 5 6.2775 14.4057 -0.8740 0.0000 31.6152 0.0000
# 6 0.0000 0.0000 0.0000 -28.1485 0.0000 -11.9236
#
#
#
# Elastic Compliance Matrix: (Units=1/GPa)
#
#
# Indices 1 2 3 4 5 6 
#
# 1 0.011528 -0.004803 -0.002664 0.000000 -0.000174 0.000000
# 2 -0.004803 0.025140 -0.003343 0.000000 -0.010594 0.000000
# 3 -0.002664 -0.003343 0.012917 0.000000 0.002409 0.000000
# 4 0.000000 0.000000 0.000000 0.023534 0.000000 -0.055558
# 5 -0.000174 -0.010594 0.002409 0.000000 0.036559 0.000000
# 6 0.000000 0.000000 0.000000 -0.055558 0.000000 0.047290
#
#
# Mechanical properties :
#
#
# Convention : Reuss Voigt Hill
#
# Bulk Modulus (GPa) = 35.75761 42.60592 39.18177
# Shear Modulus (GPa) = 26.60842 10.80208 18.70525
#
# Velocity S-wave (km/s) = 3.50233 2.23152 2.93649
# Velocity P-wave (km/s) = 5.73054 5.12646 5.43689
#
# Compressibility (1/GPa) = 0.02796607
#
# Stress axis : x y z
#
# Youngs Moduli (GPa) = 86.74320 39.77650 77.41728
#
# Poissons Ratio (x) = 0.19103 0.20626
# Poissons Ratio (y) = 0.41659 0.25881
# Poissons Ratio (z) = 0.23110 0.13298
#
# Static dielectric constant tensor:
#      x y z
#    x 1.769730 0.000000 0.047370 
#    y 0.000000 1.871970 0.000000 
#    z 0.047370 0.000000 1.743790 
# 
# From -- ./inp_files/278960.got.cif
#   From: 2010.05.17/outbox.cif.g08.bks.cpg/sg15_140_cif.got.tgz:278960.got - 2010.06.03 18:47:42.
