data_PCOD9291211
_publ_section_title
;
Structure prediction by ZEFSAII (Michael W. Deem and Ramdas Pophale) SiO2 
 PCOD9291211
Probable space group: C 2/C
;
_chemical_formula_sum "Si O2"
_cell_formula_units_Z 56
_cell_length_a 19.880799
_cell_length_b 14.397877
_cell_length_c 16.621764
_cell_angle_alpha 90.000000
_cell_angle_beta 35.103043
_cell_angle_gamma 90.000000
_cell_volume 2735.987028
_symmetry_space_group_name_H-M "C 2/C"
_symmetry_group_IT_number 15
_symmetry_cell_setting 'monoclinic'
loop_
_space_group_symop_operation_xyz
x,y,z
-x,y,1/2-z
-x,-y,-z
x,-y,1/2+z
1/2+x,1/2+y,z
1/2-x,1/2+y,1/2-z
1/2-x,1/2-y,-z
1/2+x,1/2-y,1/2+z
loop_
_atom_site_type_symbol
_atom_site_label
_atom_site_fract_x
_atom_site_fract_y
_atom_site_fract_z
Si Si1 0.879950 0.010779 0.066401
Si Si2 0.302868 0.624164 0.887607
Si Si3 0.547862 0.102654 0.441990
Si Si4 0.548715 0.564494 0.280434
Si Si5 0.607208 0.830140 0.703754
Si Si6 0.294223 0.858217 0.193617
Si Si7 0.218035 0.839637 0.740261
O O1 0.776004 0.944120 0.198865
O O2 0.838124 0.115077 0.123802
O O3 0.928657 0.976309 0.935276
O O4 0.000000 0.000000 0.000000
O O5 0.374586 0.528415 0.811650
O O6 0.381077 0.717728 0.805246
O O7 0.223689 0.631403 0.884374
O O8 0.223564 0.632461 0.044927
O O9 0.586569 0.129200 0.313238
O O10 0.431107 0.158608 0.576823
O O11 0.657372 0.111572 0.393695
O O12 0.500000 0.000000 0.500000
O O13 0.500000 0.615424 0.250000
O O14 0.626362 0.631016 0.261318
O O15 0.500000 0.854469 0.750000
O O16 0.242916 0.764513 0.280527
#
# Coordination Sequence:
#
# PCOD9291211 Si02
#       7
#     8   8   8   8   8   8   8
#     4  10  22  42  65  96 127 169 227 269 328 404
#     4  11  22  40  61 103 133 172 216 276 345 404
#     4  12  24  41  64  94 141 179 219 272 340 414
#     4  11  25  43  70  91 132 173 230 280 336 399
#     4  11  24  36  61  99 140 170 215 274 351 408
#     4  12  23  40  69  97 134 174 222 278 332 406
#     4  11  25  41  65  98 129 177 225 272 336 406
#
# _framework density 20.467932999999999
#
# number of rings (size 3 to 8) (size 9 to 14) (size 15 to 20)
#    0.000    0.857    7.143    0.429    8.000    0.000 
#    0.000    0.714    0.000    0.000    0.000    0.000 
#    0.000    0.000    0.000    0.000    0.000    0.000 
#
# Total GULP energy -156106.288981 kJ/mol
# GULP energy per Si atom -5575.224606 kJ/mol
# Density = 2.042135 g / cm^3
# Si number density = 20.467933 Si / 1000 Ang^3
#
#
#
# Elastic Constant Matrix: (Units=GPa)
#
#
# Indices 1 2 3 4 5 6 
#
# 1 97.5857 -1.3744 21.7795 0.0000 -9.7906 0.0000
# 2 -1.3744 67.9479 6.9980 0.0000 7.5812 0.0000
# 3 21.7795 6.9980 79.9151 0.0000 -5.1940 0.0000
# 4 0.0000 0.0000 0.0000 25.5740 0.0000 -2.2959
# 5 -9.7906 7.5812 -5.1940 0.0000 26.8712 0.0000
# 6 0.0000 0.0000 0.0000 -2.2959 0.0000 24.1628
#
#
#
# Elastic Compliance Matrix: (Units=1/GPa)
#
#
# Indices 1 2 3 4 5 6 
#
# 1 0.011236 0.000129 -0.002846 0.000000 0.003508 0.000000
# 2 0.000129 0.015409 -0.001685 0.000000 -0.004626 0.000000
# 3 -0.002846 -0.001685 0.013570 0.000000 0.002062 0.000000
# 4 0.000000 0.000000 0.000000 0.039439 0.000000 0.003747
# 5 0.003508 -0.004626 0.002062 0.000000 0.040196 0.000000
# 6 0.000000 0.000000 0.000000 0.003747 0.000000 0.041742
#
#
# Mechanical properties :
#
#
# Convention : Reuss Voigt Hill
#
# Bulk Modulus (GPa) = 31.83446 33.36165 32.59805
# Shear Modulus (GPa) = 27.64455 29.85796 28.75125
#
# Velocity S-wave (km/s) = 3.67907 3.82353 3.75200
# Velocity P-wave (km/s) = 5.79953 5.98559 5.89330
#
# Compressibility (1/GPa) = 0.03141250
#
# Stress axis : x y z
#
# Youngs Moduli (GPa) = 88.99801 64.89504 73.68999
#
# Poissons Ratio (x) = -0.00837 0.20969
# Poissons Ratio (y) = -0.01148 0.12418
# Poissons Ratio (z) = 0.25325 0.10936
#
# Static dielectric constant tensor:
#      x y z
#    x 1.675450 0.000000 0.124270 
#    y 0.000000 1.796100 0.000000 
#    z 0.124270 0.000000 1.649180 
# 
# From -- ./inp_files/215691.got.cif
#   From: 2010.05.17/outbox.cif.g08.bks.cpg/sg15_108_cif.got.tgz:215691.got - 2010.06.03 18:47:42.
