data_PCOD9291365
_publ_section_title
;
Structure prediction by ZEFSAII (Michael W. Deem and Ramdas Pophale) SiO2 
 PCOD9291365
Probable space group: C 2/C
;
_chemical_formula_sum "Si O2"
_cell_formula_units_Z 56
_cell_length_a 14.588689
_cell_length_b 17.299819
_cell_length_c 11.921844
_cell_angle_alpha 90.000000
_cell_angle_beta 50.313067
_cell_angle_gamma 90.000000
_cell_volume 2315.449970
_symmetry_space_group_name_H-M "C 2/C"
_symmetry_group_IT_number 15
_symmetry_cell_setting 'monoclinic'
loop_
_space_group_symop_operation_xyz
x,y,z
-x,y,1/2-z
-x,-y,-z
x,-y,1/2+z
1/2+x,1/2+y,z
1/2-x,1/2+y,1/2-z
1/2-x,1/2-y,-z
1/2+x,1/2-y,1/2+z
loop_
_atom_site_type_symbol
_atom_site_label
_atom_site_fract_x
_atom_site_fract_y
_atom_site_fract_z
Si Si1 0.023642 0.352540 0.507811
Si Si2 0.073567 0.134277 0.350997
Si Si3 0.701326 0.140359 0.478673
Si Si4 0.500000 0.245300 0.250000
Si Si5 0.666632 0.373118 0.030471
Si Si6 0.398150 0.771589 0.255087
Si Si7 0.620171 0.971501 0.586509
Si Si8 0.500000 0.498704 0.750000
O O1 0.994085 0.304634 0.642471
O O2 0.119524 0.308948 0.355161
O O3 0.077755 0.434699 0.502269
O O4 0.903249 0.358141 0.531107
O O5 0.112683 0.130522 0.447143
O O6 0.996014 0.206071 0.373352
O O7 0.181561 0.169441 0.186361
O O8 0.029177 0.056077 0.332359
O O9 0.706324 0.189060 0.588015
O O10 0.697470 0.049544 0.515360
O O11 0.382910 0.299428 0.362725
O O12 0.802763 0.400755 0.919876
O O13 0.606493 0.444693 0.140559
O O14 0.500000 0.817880 0.250000
O O15 0.500000 0.987181 0.750000
#
# Coordination Sequence:
#
# PCOD9291365 Si02
#       8
#     8   8   8   4   8   8   8   4
#     4  11  23  43  69  99 139 185 227 293 349 418
#     4  12  22  43  71  98 140 183 234 293 357 412
#     4  11  25  43  67 103 140 182 240 284 351 421
#     4  11  24  46  70 105 142 182 240 287 350 432
#     4  11  26  45  72 104 139 186 233 296 355 424
#     4  10  22  42  66  98 136 182 232 289 345 413
#     4  12  24  45  69 101 143 183 232 289 353 421
#     4  11  24  48  68 103 136 182 244 287 358 424
#
# _framework density 24.185364
#
# number of rings (size 3 to 8) (size 9 to 14) (size 15 to 20)
#    0.000    0.857    4.286    3.429    0.000    2.857 
#    0.000    0.000    0.000    0.000    0.000    0.000 
#    0.000    0.000    0.000    0.000    0.000    0.000 
#
# Total GULP energy -155963.557302 kJ/mol
# GULP energy per Si atom -5570.127046 kJ/mol
# Density = 2.413032 g / cm^3
# Si number density = 24.185364 Si / 1000 Ang^3
#
#
#
# Elastic Constant Matrix: (Units=GPa)
#
#
# Indices 1 2 3 4 5 6 
#
# 1 55.6606 5.5285 -1.6855 0.0000 2.9902 0.0000
# 2 5.5285 126.2875 28.5442 0.0000 6.5821 0.0000
# 3 -1.6855 28.5442 95.1495 0.0000 13.3885 0.0000
# 4 0.0000 0.0000 0.0000 23.2692 0.0000 6.4055
# 5 2.9902 6.5821 13.3885 0.0000 34.7303 0.0000
# 6 0.0000 0.0000 0.0000 6.4055 0.0000 28.0627
#
#
#
# Elastic Compliance Matrix: (Units=1/GPa)
#
#
# Indices 1 2 3 4 5 6 
#
# 1 0.018172 -0.000894 0.000832 0.000000 -0.001716 0.000000
# 2 -0.000894 0.008553 -0.002500 0.000000 -0.000580 0.000000
# 3 0.000832 -0.002500 0.011861 0.000000 -0.004170 0.000000
# 4 0.000000 0.000000 0.000000 0.045857 0.000000 -0.010467
# 5 -0.001716 -0.000580 -0.004170 0.000000 0.030659 0.000000
# 6 0.000000 0.000000 0.000000 -0.010467 0.000000 0.038024
#
#
# Mechanical properties :
#
#
# Convention : Reuss Voigt Hill
#
# Bulk Modulus (GPa) = 29.88526 37.98580 33.93553
# Shear Modulus (GPa) = 29.51518 33.52644 31.52081
#
# Velocity S-wave (km/s) = 3.49717 3.72725 3.61404
# Velocity P-wave (km/s) = 5.35636 5.85349 5.61043
#
# Compressibility (1/GPa) = 0.03346131
#
# Stress axis : x y z
#
# Youngs Moduli (GPa) = 55.02916 116.91965 84.30776
#
# Poissons Ratio (x) = 0.10453 -0.07010
# Poissons Ratio (y) = 0.04920 0.21077
# Poissons Ratio (z) = -0.04576 0.29230
#
# Static dielectric constant tensor:
#      x y z
#    x 2.029060 0.000000 -0.265900 
#    y 0.000000 2.167920 0.000000 
#    z -0.265900 0.000000 2.565590 
# 
# From -- ./inp_files/98719.got.cif
#   From: 2010.05.17/outbox.cif.g08.bks.cpg/sg15_50_cif.got.tgz:98719.got - 2010.06.03 18:47:42.
