data_PCOD9291912
_publ_section_title
;
Structure prediction by ZEFSAII (Michael W. Deem and Ramdas Pophale) SiO2 
 PCOD9291912
Probable space group: C 2/C
;
_chemical_formula_sum "Si O2"
_cell_formula_units_Z 56
_cell_length_a 18.046111
_cell_length_b 12.143085
_cell_length_c 15.037466
_cell_angle_alpha 90.000000
_cell_angle_beta 60.875296
_cell_angle_gamma 90.000000
_cell_volume 2878.599699
_symmetry_space_group_name_H-M "C 2/C"
_symmetry_group_IT_number 15
_symmetry_cell_setting 'monoclinic'
loop_
_space_group_symop_operation_xyz
x,y,z
-x,y,1/2-z
-x,-y,-z
x,-y,1/2+z
1/2+x,1/2+y,z
1/2-x,1/2+y,1/2-z
1/2-x,1/2-y,-z
1/2+x,1/2-y,1/2+z
loop_
_atom_site_type_symbol
_atom_site_label
_atom_site_fract_x
_atom_site_fract_y
_atom_site_fract_z
Si Si1 0.071195 0.913089 0.140319
Si Si2 0.330158 0.118913 0.199019
Si Si3 0.484423 0.736317 0.541168
Si Si4 0.631801 0.866650 0.360104
Si Si5 0.784329 0.239155 0.880358
Si Si6 0.643175 0.631109 0.019112
Si Si7 0.703196 0.244278 0.655929
O O1 0.129588 0.829560 0.161601
O O2 0.000000 0.957350 0.250000
O O3 0.029620 0.845258 0.083753
O O4 0.127645 0.010040 0.065926
O O5 0.409919 0.197305 0.133081
O O6 0.299452 0.148191 0.316740
O O7 0.256285 0.158814 0.174293
O O8 0.359270 0.995667 0.163066
O O9 0.551501 0.822838 0.461609
O O10 0.438208 0.668152 0.490092
O O11 0.715500 0.827879 0.364025
O O12 0.636269 0.804164 0.263623
O O13 0.750000 0.250000 0.000000
O O14 0.659611 0.711164 0.092974
O O15 0.726748 0.651268 0.909969
#
# Coordination Sequence:
#
# PCOD9291912 Si02
#       7
#     8   8   8   8   8   8   8
#     4  12  24  41  66  92 127 168 204 263 321 371
#     4  10  22  43  61  90 127 164 207 257 317 369
#     4  11  23  42  60  93 128 159 210 264 304 383
#     4  11  23  39  68  90 124 168 206 254 318 371
#     4  11  23  42  65  94 127 160 216 261 306 385
#     4  10  23  42  64  89 127 163 206 256 324 367
#     4   9  22  42  63  92 125 160 209 263 300 387
#
# _framework density 19.453903
#
# number of rings (size 3 to 8) (size 9 to 14) (size 15 to 20)
#    0.000    1.429    2.857    1.714    4.000    0.000 
#    0.000    1.429    0.000    0.000    0.000    0.000 
#    0.000    0.000    0.000    0.000    0.000    0.000 
#
# Total GULP energy -156412.419982 kJ/mol
# GULP energy per Si atom -5586.157856 kJ/mol
# Density = 1.940963 g / cm^3
# Si number density = 19.453903 Si / 1000 Ang^3
#
#
#
# Elastic Constant Matrix: (Units=GPa)
#
#
# Indices 1 2 3 4 5 6 
#
# 1 70.1429 3.6468 7.4541 0.0000 12.6761 0.0000
# 2 3.6468 80.0474 20.5079 0.0000 5.6735 0.0000
# 3 7.4541 20.5079 101.3809 0.0000 11.2733 0.0000
# 4 0.0000 0.0000 0.0000 23.8345 0.0000 -3.4835
# 5 12.6761 5.6735 11.2733 0.0000 20.8627 0.0000
# 6 0.0000 0.0000 0.0000 -3.4835 0.0000 13.6353
#
#
#
# Elastic Compliance Matrix: (Units=1/GPa)
#
#
# Indices 1 2 3 4 5 6 
#
# 1 0.016016 -0.000019 -0.000098 0.000000 -0.009673 0.000000
# 2 -0.000019 0.013278 -0.002430 0.000000 -0.002286 0.000000
# 3 -0.000098 -0.002430 0.010940 0.000000 -0.005191 0.000000
# 4 0.000000 0.000000 0.000000 0.043583 0.000000 0.011134
# 5 -0.009673 -0.002286 -0.005191 0.000000 0.057237 0.000000
# 6 0.000000 0.000000 0.000000 0.011134 0.000000 0.076183
#
#
# Mechanical properties :
#
#
# Convention : Reuss Voigt Hill
#
# Bulk Modulus (GPa) = 28.45819 34.97654 31.71737
# Shear Modulus (GPa) = 21.36338 26.33066 23.84702
#
# Velocity S-wave (km/s) = 3.31744 3.68297 3.50497
# Velocity P-wave (km/s) = 5.41610 6.00865 5.72005
#
# Compressibility (1/GPa) = 0.03513927
#
# Stress axis : x y z
#
# Youngs Moduli (GPa) = 62.43697 75.31167 91.40899
#
# Poissons Ratio (x) = 0.00143 0.00897
# Poissons Ratio (y) = 0.00118 0.22216
# Poissons Ratio (z) = 0.00613 0.18304
#
# Static dielectric constant tensor:
#      x y z
#    x 1.659350 0.000000 -0.001670 
#    y 0.000000 1.650710 0.000000 
#    z -0.001670 0.000000 1.713440 
# 
# From -- ./inp_files/161238.got.cif
#   From: 2010.05.17/outbox.cif.g08.bks.cpg/sg15_81_cif.got.tgz:161238.got - 2010.06.03 18:47:42.
