data_PCOD9291830
_publ_section_title
;
Structure prediction by ZEFSAII (Michael W. Deem and Ramdas Pophale) SiO2 
 PCOD9291830
Probable space group: C 2/C
;
_chemical_formula_sum "Si O2"
_cell_formula_units_Z 52
_cell_length_a 31.575681
_cell_length_b 8.539378
_cell_length_c 14.965649
_cell_angle_alpha 90.000000
_cell_angle_beta 36.131798
_cell_angle_gamma 90.000000
_cell_volume 2379.386029
_symmetry_space_group_name_H-M "C 2/C"
_symmetry_group_IT_number 15
_symmetry_cell_setting 'monoclinic'
loop_
_space_group_symop_operation_xyz
x,y,z
-x,y,1/2-z
-x,-y,-z
x,-y,1/2+z
1/2+x,1/2+y,z
1/2-x,1/2+y,1/2-z
1/2-x,1/2-y,-z
1/2+x,1/2-y,1/2+z
loop_
_atom_site_type_symbol
_atom_site_label
_atom_site_fract_x
_atom_site_fract_y
_atom_site_fract_z
Si Si1 0.789740 0.962394 0.767122
Si Si2 0.000000 0.296692 0.750000
Si Si3 0.435128 0.583466 0.995006
Si Si4 0.018036 0.474775 0.072454
Si Si5 0.282038 0.584989 0.477411
Si Si6 0.816111 0.416483 0.195711
Si Si7 0.441537 0.345519 0.691890
O O1 0.866641 0.028754 0.604435
O O2 0.783379 0.006522 0.881829
O O3 0.803702 0.773760 0.726172
O O4 0.723107 0.023529 0.825831
O O5 0.059777 0.191866 0.600473
O O6 0.975892 0.406828 0.709795
O O7 0.509803 0.494188 0.871630
O O8 0.430637 0.663456 0.101829
O O9 0.986744 0.303561 0.146748
O O10 0.102694 0.516275 0.940037
O O11 0.000000 0.500000 0.000000
O O12 0.250000 0.750000 0.500000
O O13 0.230928 0.519178 0.640749
O O14 0.363431 0.625505 0.366544
#
# Coordination Sequence:
#
# PCOD9291830 Si02
#       7
#     8   4   8   8   8   8   8
#     4  10  22  44  62  91 134 166 213 276 331 403
#     4  12  24  40  68  94 134 172 210 292 342 372
#     4  10  22  43  66  95 132 171 222 283 327 393
#     4  12  24  44  66 102 135 174 229 285 339 408
#     4   9  20  42  66  88 128 177 207 272 332 394
#     4  11  24  40  67  96 130 173 216 276 342 396
#     4  10  22  42  72  94 127 183 231 267 336 418
#
# _framework density 21.854378000000001
#
# number of rings (size 3 to 8) (size 9 to 14) (size 15 to 20)
#    0.000    1.538    3.077    1.846    4.308    4.308 
#    0.000    0.769    0.000    0.000    0.000    0.000 
#    0.000    0.000    0.000    0.000    0.000    0.000 
#
# Total GULP energy -144956.370294 kJ/mol
# GULP energy per Si atom -5575.245011 kJ/mol
# Density = 2.180464 g / cm^3
# Si number density = 21.854378 Si / 1000 Ang^3
#
#
#
# Elastic Constant Matrix: (Units=GPa)
#
#
# Indices 1 2 3 4 5 6 
#
# 1 67.9670 12.0457 40.1250 0.0001 -19.7333 0.0000
# 2 12.0457 24.1117 11.6244 -0.0001 -3.4355 0.0000
# 3 40.1250 11.6244 122.1286 0.0001 -6.5314 0.0000
# 4 0.0001 -0.0001 0.0001 16.8649 0.0000 -4.4635
# 5 -19.7333 -3.4355 -6.5314 0.0000 52.0951 0.0000
# 6 0.0000 0.0000 0.0000 -4.4635 0.0000 29.4352
#
#
#
# Elastic Compliance Matrix: (Units=1/GPa)
#
#
# Indices 1 2 3 4 5 6 
#
# 1 0.021508 -0.006843 -0.006044 0.000000 0.006938 0.000000
# 2 -0.006843 0.045936 -0.002115 0.000000 0.000172 0.000000
# 3 -0.006044 -0.002115 0.010314 0.000000 -0.001136 0.000000
# 4 0.000000 0.000000 0.000000 0.061774 0.000000 0.009367
# 5 0.006938 0.000172 -0.001136 0.000000 0.021693 0.000000
# 6 0.000000 0.000000 0.000000 0.009367 0.000000 0.035393
#
#
# Mechanical properties :
#
#
# Convention : Reuss Voigt Hill
#
# Bulk Modulus (GPa) = 20.93998 37.97752 29.45875
# Shear Modulus (GPa) = 20.61506 29.70651 25.16078
#
# Velocity S-wave (km/s) = 3.07464 3.69086 3.39675
# Velocity P-wave (km/s) = 4.71242 5.96477 5.37519
#
# Compressibility (1/GPa) = 0.04775554
#
# Stress axis : x y z
#
# Youngs Moduli (GPa) = 46.49345 21.76931 96.95130
#
# Poissons Ratio (x) = 0.14896 0.58599
# Poissons Ratio (y) = 0.31814 0.20505
# Poissons Ratio (z) = 0.28101 0.04604
#
# Static dielectric constant tensor:
#      x y z
#    x 1.863520 0.000000 -0.125650 
#    y 0.000000 1.898310 0.000000 
#    z -0.125650 0.000000 2.380560 
# 
# From -- ./inp_files/181051.got.cif
#   From: 2010.05.17/outbox.cif.g08.bks.cpg/sg15_91_cif.got.tgz:181051.got - 2010.06.03 18:47:42.
