data_PCOD9291388
_publ_section_title
;
Structure prediction by ZEFSAII (Michael W. Deem and Ramdas Pophale) SiO2 
 PCOD9291388
Probable space group: C 2/C
;
_chemical_formula_sum "Si O2"
_cell_formula_units_Z 48
_cell_length_a 29.686760
_cell_length_b 10.309990
_cell_length_c 15.199782
_cell_angle_alpha 90.000000
_cell_angle_beta 26.652076
_cell_angle_gamma 90.000000
_cell_volume 2086.844919
_symmetry_space_group_name_H-M "C 2/C"
_symmetry_group_IT_number 15
_symmetry_cell_setting 'monoclinic'
loop_
_space_group_symop_operation_xyz
x,y,z
-x,y,1/2-z
-x,-y,-z
x,-y,1/2+z
1/2+x,1/2+y,z
1/2-x,1/2+y,1/2-z
1/2-x,1/2-y,-z
1/2+x,1/2-y,1/2+z
loop_
_atom_site_type_symbol
_atom_site_label
_atom_site_fract_x
_atom_site_fract_y
_atom_site_fract_z
Si Si1 0.389184 0.894914 0.419135
Si Si2 0.087537 0.172248 0.663205
Si Si3 0.691275 0.818915 0.760604
Si Si4 0.349059 0.946667 0.298185
Si Si5 0.869226 0.117142 0.369302
Si Si6 0.491260 0.276943 0.004421
O O1 0.500000 0.943987 0.250000
O O2 0.320931 0.889908 0.624610
O O3 0.349090 0.966730 0.402895
O O4 0.399522 0.745303 0.369194
O O5 0.196549 0.230734 0.449912
O O6 0.051731 0.200472 0.824303
O O7 0.000000 0.211854 0.750000
O O8 0.106870 0.016888 0.624455
O O9 0.600792 0.718662 0.904450
O O10 0.662493 0.920944 0.734443
O O11 0.248900 0.872319 0.443185
O O12 0.446224 0.859051 0.107254
O O13 0.927712 0.121605 0.174385
#
# Coordination Sequence:
#
# PCOD9291388 Si02
#       6
#     8   8   8   8   8   8
#     4  11  20  38  71  92 118 167 217 254 303 374
#     4  11  26  41  59  95 128 161 207 260 319 368
#     4  11  24  43  63  94 129 165 209 256 315 373
#     4  10  23  41  65  95 127 163 209 261 309 368
#     4  10  22  42  67  89 123 166 211 255 309 376
#     4  11  21  42  65  87 128 165 207 259 314 367
#
# _framework density 23.00123
#
# number of rings (size 3 to 8) (size 9 to 14) (size 15 to 20)
#    0.000    1.333    3.333    4.000    4.667    0.000 
#    3.000    0.000    0.000    0.000    0.000    0.000 
#    0.000    0.000    0.000    0.000    0.000    0.000 
#
# Total GULP energy -134206.851880 kJ/mol
# GULP energy per Si atom -5591.952162 kJ/mol
# Density = 2.294888 g / cm^3
# Si number density = 23.001230 Si / 1000 Ang^3
#
#
#
# Elastic Constant Matrix: (Units=GPa)
#
#
# Indices 1 2 3 4 5 6 
#
# 1 133.5684 4.1678 52.8379 0.0000 6.3534 0.0000
# 2 4.1678 40.6662 -1.7304 0.0000 -1.0289 0.0000
# 3 52.8379 -1.7304 155.4358 0.0000 -19.4448 0.0000
# 4 0.0000 0.0000 0.0000 14.6823 0.0000 5.8818
# 5 6.3534 -1.0289 -19.4448 0.0000 52.0633 0.0000
# 6 0.0000 0.0000 0.0000 5.8818 0.0000 19.4097
#
#
#
# Elastic Compliance Matrix: (Units=1/GPa)
#
#
# Indices 1 2 3 4 5 6 
#
# 1 0.008962 -0.001121 -0.003355 0.000000 -0.002369 0.000000
# 2 -0.001121 0.024761 0.000771 0.000000 0.000914 0.000000
# 3 -0.003355 0.000771 0.008010 0.000000 0.003416 0.000000
# 4 0.000000 0.000000 0.000000 0.077520 0.000000 -0.023491
# 5 -0.002369 0.000914 0.003416 0.000000 0.020790 0.000000
# 6 0.000000 0.000000 0.000000 -0.023491 0.000000 0.058639
#
#
# Mechanical properties :
#
#
# Convention : Reuss Voigt Hill
#
# Bulk Modulus (GPa) = 29.13534 48.91343 39.02439
# Shear Modulus (GPa) = 22.98494 35.52407 29.25450
#
# Velocity S-wave (km/s) = 3.16459 3.93420 3.57019
# Velocity P-wave (km/s) = 5.10364 6.47681 5.83079
#
# Compressibility (1/GPa) = 0.03432258
#
# Stress axis : x y z
#
# Youngs Moduli (GPa) = 111.58529 40.38560 124.84332
#
# Poissons Ratio (x) = 0.04528 0.41888
# Poissons Ratio (y) = 0.12511 -0.09627
# Poissons Ratio (z) = 0.37439 -0.03114
#
# Static dielectric constant tensor:
#      x y z
#    x 1.831410 0.000000 -0.006710 
#    y 0.000000 1.926630 0.000000 
#    z -0.006710 0.000000 1.908030 
# 
# From -- ./inp_files/177742.got.cif
#   From: 2010.05.17/outbox.cif.g08.bks.cpg/sg15_89_cif.got.tgz:177742.got - 2010.06.03 18:47:42.
