data_PCOD9291276
_publ_section_title
;
Structure prediction by ZEFSAII (Michael W. Deem and Ramdas Pophale) SiO2 
 PCOD9291276
Probable space group: C 2/C
;
_chemical_formula_sum "Si O2"
_cell_formula_units_Z 60
_cell_length_a 13.049994
_cell_length_b 15.027024
_cell_length_c 20.234699
_cell_angle_alpha 90.000000
_cell_angle_beta 137.224527
_cell_angle_gamma 90.000000
_cell_volume 2694.828507
_symmetry_space_group_name_H-M "C 2/C"
_symmetry_group_IT_number 15
_symmetry_cell_setting 'monoclinic'
loop_
_space_group_symop_operation_xyz
x,y,z
-x,y,1/2-z
-x,-y,-z
x,-y,1/2+z
1/2+x,1/2+y,z
1/2-x,1/2+y,1/2-z
1/2-x,1/2-y,-z
1/2+x,1/2-y,1/2+z
loop_
_atom_site_type_symbol
_atom_site_label
_atom_site_fract_x
_atom_site_fract_y
_atom_site_fract_z
Si Si1 0.738717 0.518288 0.450977
Si Si2 0.822447 0.332958 0.674777
Si Si3 0.095652 0.218477 0.162439
Si Si4 0.926262 0.581770 0.882680
Si Si5 0.000000 0.120635 0.250000
Si Si6 0.829526 0.851437 0.138581
Si Si7 0.661375 0.968060 0.295072
Si Si8 0.409802 0.415218 0.486196
O O1 0.633123 0.561267 0.344421
O O2 0.688829 0.415185 0.432549
O O3 0.691263 0.560938 0.497847
O O4 0.913931 0.540171 0.520900
O O5 0.767956 0.296034 0.720456
O O6 0.778539 0.250714 0.606633
O O7 0.784436 0.436678 0.650944
O O8 0.000000 0.336509 0.750000
O O9 0.044906 0.320223 0.134631
O O10 0.060342 0.177540 0.216668
O O11 0.013095 0.163247 0.063942
O O12 0.795090 0.601846 0.872900
O O13 0.859215 0.521914 0.792504
O O14 0.000000 0.855064 0.250000
O O15 0.500000 0.946174 0.250000
O O16 0.786849 0.894780 0.371539
O O17 0.500000 0.500000 0.500000
#
# Coordination Sequence:
#
# PCOD9291276 Si02
#       8
#     8   8   8   8   4   8   8   8
#     4  11  23  42  64  98 126 172 214 266 327 382
#     4   9  20  40  66  91 127 167 211 267 311 381
#     4  10  23  42  64  97 129 169 216 268 325 385
#     4  11  25  40  68  95 130 168 213 273 319 390
#     4  10  24  38  70  90 132 170 214 262 326 394
#     4  10  22  42  66  91 129 167 209 263 326 379
#     4  11  22  41  68  93 126 169 215 263 329 370
#     4  11  23  40  68  92 130 172 220 265 317 392
#
# _framework density 22.264868
#
# number of rings (size 3 to 8) (size 9 to 14) (size 15 to 20)
#    0.000    1.600    3.333    0.400    4.667    3.200 
#    0.000    0.667    2.933    0.000    0.000    0.000 
#    0.000    0.000    0.000    0.000    0.000    0.000 
#
# Total GULP energy -167232.599191 kJ/mol
# GULP energy per Si atom -5574.419973 kJ/mol
# Density = 2.221419 g / cm^3
# Si number density = 22.264868 Si / 1000 Ang^3
#
#
#
# Elastic Constant Matrix: (Units=GPa)
#
#
# Indices 1 2 3 4 5 6 
#
# 1 70.8054 12.5265 26.1840 0.0000 25.1668 0.0000
# 2 12.5265 98.9668 29.5918 0.0000 8.1392 0.0000
# 3 26.1840 29.5918 110.3572 0.0000 16.2269 0.0000
# 4 0.0000 0.0000 0.0000 22.4362 0.0000 4.3979
# 5 25.1668 8.1392 16.2269 0.0000 23.8724 0.0000
# 6 0.0000 0.0000 0.0000 4.3979 0.0000 32.1912
#
#
#
# Elastic Compliance Matrix: (Units=1/GPa)
#
#
# Indices 1 2 3 4 5 6 
#
# 1 0.023036 -0.000445 -0.001997 0.000000 -0.022775 0.000000
# 2 -0.000445 0.011075 -0.002642 0.000000 -0.001511 0.000000
# 3 -0.001997 -0.002642 0.010890 0.000000 -0.004396 0.000000
# 4 0.000000 0.000000 0.000000 0.045797 0.000000 -0.006257
# 5 -0.022775 -0.001511 -0.004396 0.000000 0.069403 0.000000
# 6 0.000000 0.000000 0.000000 -0.006257 0.000000 0.031919
#
#
# Mechanical properties :
#
#
# Convention : Reuss Voigt Hill
#
# Bulk Modulus (GPa) = 28.70954 46.30379 37.50667
# Shear Modulus (GPa) = 23.37544 29.82177 26.59861
#
# Velocity S-wave (km/s) = 3.24370 3.66376 3.46011
# Velocity P-wave (km/s) = 5.19147 6.22411 5.73109
#
# Compressibility (1/GPa) = 0.03483163
#
# Stress axis : x y z
#
# Youngs Moduli (GPa) = 43.41079 90.29383 91.82580
#
# Poissons Ratio (x) = 0.04022 0.18340
# Poissons Ratio (y) = 0.01934 0.24259
# Poissons Ratio (z) = 0.08670 0.23855
#
# Static dielectric constant tensor:
#      x y z
#    x 1.910180 0.000000 0.014530 
#    y 0.000000 1.906490 0.000000 
#    z 0.014530 0.000000 1.833150 
# 
# From -- ./inp_files/244702.got.cif
#   From: 2010.05.17/outbox.cif.g08.bks.cpg/sg15_123_cif.got.tgz:244702.got - 2010.06.03 18:47:42.
