data_PCOD9291875
_publ_section_title
;
Structure prediction by ZEFSAII (Michael W. Deem and Ramdas Pophale) SiO2 
 PCOD9291875
Probable space group: C 2/C
;
_chemical_formula_sum "Si O2"
_cell_formula_units_Z 40
_cell_length_a 5.254029
_cell_length_b 22.744832
_cell_length_c 13.485782
_cell_angle_alpha 90.000000
_cell_angle_beta 93.709603
_cell_angle_gamma 90.000000
_cell_volume 1608.201417
_symmetry_space_group_name_H-M "C 2/C"
_symmetry_group_IT_number 15
_symmetry_cell_setting 'monoclinic'
loop_
_space_group_symop_operation_xyz
x,y,z
-x,y,1/2-z
-x,-y,-z
x,-y,1/2+z
1/2+x,1/2+y,z
1/2-x,1/2+y,1/2-z
1/2-x,1/2-y,-z
1/2+x,1/2-y,1/2+z
loop_
_atom_site_type_symbol
_atom_site_label
_atom_site_fract_x
_atom_site_fract_y
_atom_site_fract_z
Si Si1 0.239240 0.546379 0.732040
Si Si2 0.645325 0.658330 0.062183
Si Si3 0.844284 0.706493 0.349008
Si Si4 0.749796 0.960683 0.008235
Si Si5 0.846180 0.835884 0.346931
O O1 0.500000 0.513100 0.750000
O O2 0.247446 0.566129 0.619231
O O3 0.226158 0.600824 0.811384
O O4 0.000000 0.507545 0.750000
O O5 0.406407 0.668480 0.130794
O O6 0.906457 0.697159 0.073032
O O7 0.748453 0.591855 0.069347
O O8 0.503559 0.661786 0.952064
O O9 0.717325 0.771989 0.352475
O O10 0.000000 0.696057 0.250000
O O11 0.500000 0.000000 0.000000
O O12 0.000000 0.000000 0.000000
O O13 0.000000 0.825875 0.250000
#
# Coordination Sequence:
#
# PCOD9291875 Si02
#       5
#     8   8   8   8   8
#     4  11  23  43  73 106 144 177 243 312 358 430
#     4  12  24  46  72 103 152 190 248 307 371 436
#     4  11  26  44  69 106 153 202 236 294 377 453
#     4  12  26  47  72 107 143 191 251 315 366 428
#     4  10  22  42  74 112 146 183 247 305 366 455
#
# _framework density 24.872509000000001
#
# number of rings (size 3 to 8) (size 9 to 14) (size 15 to 20)
#    0.000    0.800    4.000    4.200    2.800    4.800 
#    0.000   10.000    0.000    0.000    0.000    0.000 
#    0.000    0.000    0.000    0.000    0.000    0.000 
#
# Total GULP energy -111362.222897 kJ/mol
# GULP energy per Si atom -5568.111145 kJ/mol
# Density = 2.481590 g / cm^3
# Si number density = 24.872509 Si / 1000 Ang^3
#
#
#
# Elastic Constant Matrix: (Units=GPa)
#
#
# Indices 1 2 3 4 5 6 
#
# 1 207.6625 46.4589 28.2490 0.0000 -16.7897 0.0000
# 2 46.4589 79.0980 22.7088 0.0000 -4.3084 0.0000
# 3 28.2490 22.7088 108.1619 0.0000 1.3251 0.0000
# 4 0.0000 0.0000 0.0000 30.5925 0.0000 -5.0909
# 5 -16.7897 -4.3084 1.3251 0.0000 35.4446 0.0000
# 6 0.0000 0.0000 0.0000 -5.0909 0.0000 42.9452
#
#
#
# Elastic Compliance Matrix: (Units=1/GPa)
#
#
# Indices 1 2 3 4 5 6 
#
# 1 0.005811 -0.003019 -0.000913 0.000000 0.002420 0.000000
# 2 -0.003019 0.015130 -0.002394 0.000000 0.000499 0.000000
# 3 -0.000913 -0.002394 0.010000 0.000000 -0.001098 0.000000
# 4 0.000000 0.000000 0.000000 0.033346 0.000000 0.003953
# 5 0.002420 0.000499 -0.001098 0.000000 0.029461 0.000000
# 6 0.000000 0.000000 0.000000 0.003953 0.000000 0.023754
#
#
# Mechanical properties :
#
#
# Convention : Reuss Voigt Hill
#
# Bulk Modulus (GPa) = 54.68111 65.52840 60.10476
# Shear Modulus (GPa) = 36.69698 41.63019 39.16359
#
# Velocity S-wave (km/s) = 3.84526 4.09558 3.97239
# Velocity P-wave (km/s) = 6.46119 6.98340 6.72737
#
# Compressibility (1/GPa) = 0.01828785
#
# Stress axis : x y z
#
# Youngs Moduli (GPa) = 172.09292 66.09248 99.99911
#
# Poissons Ratio (x) = 0.19953 0.09134
# Poissons Ratio (y) = 0.51955 0.23942
# Poissons Ratio (z) = 0.15720 0.15824
#
# Static dielectric constant tensor:
#      x y z
#    x 1.892320 0.000000 0.097390 
#    y 0.000000 2.076710 0.000000 
#    z 0.097390 0.000000 2.063630 
# 
# From -- ./inp_files/129165.got.cif
#   From: 2010.05.17/outbox.cif.g08.bks.cpg/sg15_65_cif.got.tgz:129165.got - 2010.06.03 18:47:42.
