data_PCOD9291330
_publ_section_title
;
Structure prediction by ZEFSAII (Michael W. Deem and Ramdas Pophale) SiO2 
 PCOD9291330
Probable space group: C 2/C
;
_chemical_formula_sum "Si O2"
_cell_formula_units_Z 44
_cell_length_a 14.716400
_cell_length_b 17.243796
_cell_length_c 9.665427
_cell_angle_alpha 90.000000
_cell_angle_beta 113.804241
_cell_angle_gamma 90.000000
_cell_volume 2244.105530
_symmetry_space_group_name_H-M "C 2/C"
_symmetry_group_IT_number 15
_symmetry_cell_setting 'monoclinic'
loop_
_space_group_symop_operation_xyz
x,y,z
-x,y,1/2-z
-x,-y,-z
x,-y,1/2+z
1/2+x,1/2+y,z
1/2-x,1/2+y,1/2-z
1/2-x,1/2-y,-z
1/2+x,1/2-y,1/2+z
loop_
_atom_site_type_symbol
_atom_site_label
_atom_site_fract_x
_atom_site_fract_y
_atom_site_fract_z
Si Si1 0.345404 0.337525 0.364164
Si Si2 0.586471 0.827449 0.497050
Si Si3 0.126043 0.630800 0.702012
Si Si4 0.828004 0.990972 0.538788
Si Si5 0.000000 0.905646 0.250000
Si Si6 0.693855 0.961508 0.718395
O O1 0.369893 0.257567 0.454188
O O2 0.234702 0.337036 0.232165
O O3 0.344803 0.410272 0.469177
O O4 0.428157 0.355010 0.301042
O O5 0.467037 0.829215 0.427952
O O6 0.614405 0.857104 0.360319
O O7 0.633151 0.886484 0.636172
O O8 0.126691 0.538901 0.673239
O O9 0.781233 0.974044 0.659573
O O10 0.747086 0.038389 0.399490
O O11 0.928322 0.039142 0.616238
#
# Coordination Sequence:
#
# PCOD9291330 Si02
#       6
#     8   8   8   8   4   8
#     4  11  24  43  66  98 134 167 223 275 326 383
#     4  11  23  42  69  97 131 178 214 273 335 384
#     4  10  22  42  66  95 132 172 225 263 318 405
#     4  11  23  42  72  94 134 174 223 266 325 395
#     4  12  24  46  64 100 130 178 222 272 324 392
#     4  11  21  43  68  99 129 176 219 272 319 398
#
# _framework density 19.606921
#
# number of rings (size 3 to 8) (size 9 to 14) (size 15 to 20)
#    0.000    1.091    7.273    1.636    0.000    2.909 
#    3.273    1.818    0.000    0.000    0.000    0.000 
#    0.000    0.000    0.000    0.000    0.000    0.000 
#
# Total GULP energy -122947.997011 kJ/mol
# GULP energy per Si atom -5588.545319 kJ/mol
# Density = 1.956229 g / cm^3
# Si number density = 19.606921 Si / 1000 Ang^3
#
#
#
# Elastic Constant Matrix: (Units=GPa)
#
#
# Indices 1 2 3 4 5 6 
#
# 1 92.3788 22.8296 0.7157 0.0000 5.4749 0.0000
# 2 22.8296 112.0962 31.4000 0.0000 8.1179 0.0000
# 3 0.7157 31.4000 47.0361 0.0000 19.8478 0.0000
# 4 0.0000 0.0000 0.0000 14.2287 0.0000 6.6973
# 5 5.4749 8.1179 19.8478 0.0000 35.0155 0.0000
# 6 0.0000 0.0000 0.0000 6.6973 0.0000 7.4391
#
#
#
# Elastic Compliance Matrix: (Units=1/GPa)
#
#
# Indices 1 2 3 4 5 6 
#
# 1 0.011721 -0.003036 0.003055 0.000000 -0.002861 0.000000
# 2 -0.003036 0.011879 -0.009099 0.000000 0.002878 0.000000
# 3 0.003055 -0.009099 0.034961 0.000000 -0.018186 0.000000
# 4 0.000000 0.000000 0.000000 0.121964 0.000000 -0.109802
# 5 -0.002861 0.002878 -0.018186 0.000000 0.038647 0.000000
# 6 0.000000 0.000000 0.000000 -0.109802 0.000000 0.233278
#
#
# Mechanical properties :
#
#
# Convention : Reuss Voigt Hill
#
# Bulk Modulus (GPa) = 24.74999 40.15577 32.45288
# Shear Modulus (GPa) = 10.32894 24.44105 17.38499
#
# Velocity S-wave (km/s) = 2.29770 3.53448 2.98094
# Velocity P-wave (km/s) = 4.43731 6.09767 5.33251
#
# Compressibility (1/GPa) = 0.04040406
#
# Stress axis : x y z
#
# Youngs Moduli (GPa) = 85.31617 84.17900 28.60290
#
# Poissons Ratio (x) = 0.25555 -0.08739
# Poissons Ratio (y) = 0.25901 0.26025
# Poissons Ratio (z) = -0.26068 0.76591
#
# Static dielectric constant tensor:
#      x y z
#    x 1.706790 0.000000 0.002080 
#    y 0.000000 1.650920 0.000000 
#    z 0.002080 0.000000 1.678990 
# 
# From -- ./inp_files/39757.got.cif
#   From: 2010.05.17/outbox.cif.g08.bks.cpg/sg15_20_cif.got.tgz:39757.got - 2010.06.03 18:47:42.
