data_PCOD9291517
_publ_section_title
;
Structure prediction by ZEFSAII (Michael W. Deem and Ramdas Pophale) SiO2 
 PCOD9291517
Probable space group: C 2/C
;
_chemical_formula_sum "Si O2"
_cell_formula_units_Z 48
_cell_length_a 17.397391
_cell_length_b 14.901720
_cell_length_c 8.747374
_cell_angle_alpha 90.000000
_cell_angle_beta 82.676123
_cell_angle_gamma 90.000000
_cell_volume 2249.264105
_symmetry_space_group_name_H-M "C 2/C"
_symmetry_group_IT_number 15
_symmetry_cell_setting 'monoclinic'
loop_
_space_group_symop_operation_xyz
x,y,z
-x,y,1/2-z
-x,-y,-z
x,-y,1/2+z
1/2+x,1/2+y,z
1/2-x,1/2+y,1/2-z
1/2-x,1/2-y,-z
1/2+x,1/2-y,1/2+z
loop_
_atom_site_type_symbol
_atom_site_label
_atom_site_fract_x
_atom_site_fract_y
_atom_site_fract_z
Si Si1 0.295714 0.273255 0.142490
Si Si2 0.000000 0.272553 0.250000
Si Si3 0.380660 0.011076 0.953966
Si Si4 0.000000 0.981844 0.250000
Si Si5 0.661089 0.870555 0.286213
Si Si6 0.427983 0.866833 0.692798
Si Si7 0.067817 0.119665 0.020832
O O1 0.230136 0.299936 0.281271
O O2 0.353133 0.195538 0.188922
O O3 0.250000 0.250000 0.000000
O O4 0.351262 0.353389 0.073781
O O5 0.924567 0.327480 0.211992
O O6 0.970242 0.209131 0.396257
O O7 0.340807 0.944333 0.082069
O O8 0.437187 0.079043 0.031123
O O9 0.416748 0.946363 0.818362
O O10 0.324360 0.075923 0.875059
O O11 0.022256 0.922338 0.389605
O O12 0.065227 0.048984 0.162413
O O13 0.500000 0.814438 0.750000
#
# Coordination Sequence:
#
# PCOD9291517 Si02
#       7
#     8   4   8   4   8   8   8
#     4  12  24  44  66  97 140 174 217 277 335 392
#     4  11  22  38  68  95 132 178 212 273 332 400
#     4  10  24  41  65  98 135 174 223 273 329 399
#     4   9  22  44  66 101 120 174 224 271 320 390
#     4  11  25  42  66  98 136 179 220 272 338 394
#     4  11  24  41  69  98 134 177 223 274 332 400
#     4  10  22  42  68  94 128 170 219 269 327 388
#
# _framework density 21.340312999999998
#
# number of rings (size 3 to 8) (size 9 to 14) (size 15 to 20)
#    0.000    1.333    3.333    0.500   10.500    2.000 
#    0.000    0.000    0.000    0.000    0.000    0.000 
#    0.000    0.000    0.000    0.000    0.000    0.000 
#
# Total GULP energy -133895.910651 kJ/mol
# GULP energy per Si atom -5578.996277 kJ/mol
# Density = 2.129174 g / cm^3
# Si number density = 21.340313 Si / 1000 Ang^3
#
#
#
# Elastic Constant Matrix: (Units=GPa)
#
#
# Indices 1 2 3 4 5 6 
#
# 1 118.0473 52.2015 20.2886 0.0000 -0.7007 0.0000
# 2 52.2015 89.2468 29.2517 0.0000 2.8942 0.0000
# 3 20.2886 29.2517 94.8856 0.0000 5.6031 0.0000
# 4 0.0000 0.0000 0.0000 32.5265 0.0000 -9.7706
# 5 -0.7007 2.8942 5.6031 0.0000 28.9908 0.0000
# 6 0.0000 0.0000 0.0000 -9.7706 0.0000 33.5847
#
#
#
# Elastic Compliance Matrix: (Units=1/GPa)
#
#
# Indices 1 2 3 4 5 6 
#
# 1 0.011472 -0.006585 -0.000484 0.000000 0.001028 0.000000
# 2 -0.006585 0.016252 -0.003537 0.000000 -0.001098 0.000000
# 3 -0.000484 -0.003537 0.011848 0.000000 -0.001948 0.000000
# 4 0.000000 0.000000 0.000000 0.033688 0.000000 0.009801
# 5 0.001028 -0.001098 -0.001948 0.000000 0.035005 0.000000
# 6 0.000000 0.000000 0.000000 0.009801 0.000000 0.032627
#
#
# Mechanical properties :
#
#
# Convention : Reuss Voigt Hill
#
# Bulk Modulus (GPa) = 54.46664 56.18480 55.32572
# Shear Modulus (GPa) = 29.72232 32.38293 31.05263
#
# Velocity S-wave (km/s) = 3.73604 3.89968 3.81874
# Velocity P-wave (km/s) = 6.64748 6.83094 6.73984
#
# Compressibility (1/GPa) = 0.01835986
#
# Stress axis : x y z
#
# Youngs Moduli (GPa) = 87.16554 61.53237 84.40274
#
# Poissons Ratio (x) = 0.40520 0.04082
# Poissons Ratio (y) = 0.57400 0.29855
# Poissons Ratio (z) = 0.04216 0.21765
#
# Static dielectric constant tensor:
#      x y z
#    x 1.758060 0.000000 -0.000420 
#    y 0.000000 1.825600 0.000000 
#    z -0.000420 0.000000 1.801250 
# 
# From -- ./inp_files/47490.got.cif
#   From: 2010.05.17/outbox.cif.g08.bks.cpg/sg15_24_cif.got.tgz:47490.got - 2010.06.03 18:47:42.
