data_PCOD9291516
_publ_section_title
;
Structure prediction by ZEFSAII (Michael W. Deem and Ramdas Pophale) SiO2 
 PCOD9291516
Probable space group: C 2/C
;
_chemical_formula_sum "Si O2"
_cell_formula_units_Z 44
_cell_length_a 16.885827
_cell_length_b 23.991091
_cell_length_c 5.061284
_cell_angle_alpha 90.000000
_cell_angle_beta 76.943946
_cell_angle_gamma 90.000000
_cell_volume 1997.370645
_symmetry_space_group_name_H-M "C 2/C"
_symmetry_group_IT_number 15
_symmetry_cell_setting 'monoclinic'
loop_
_space_group_symop_operation_xyz
x,y,z
-x,y,1/2-z
-x,-y,-z
x,-y,1/2+z
1/2+x,1/2+y,z
1/2-x,1/2+y,1/2-z
1/2-x,1/2-y,-z
1/2+x,1/2-y,1/2+z
loop_
_atom_site_type_symbol
_atom_site_label
_atom_site_fract_x
_atom_site_fract_y
_atom_site_fract_z
Si Si1 0.556423 0.074101 0.965336
Si Si2 0.099230 0.808997 0.687309
Si Si3 0.647454 0.626506 0.651937
Si Si4 0.734740 0.966220 0.275811
Si Si5 0.056059 0.299733 0.462512
Si Si6 0.000000 0.959812 0.250000
O O1 0.500000 0.073809 0.750000
O O2 0.637685 0.039549 0.861991
O O3 0.584589 0.138122 0.009505
O O4 0.500000 0.055594 0.250000
O O5 0.131061 0.823665 0.372659
O O6 0.114679 0.748461 0.808886
O O7 0.000000 0.815502 0.750000
O O8 0.140246 0.851457 0.860430
O O9 0.727113 0.592416 0.669524
O O10 0.576141 0.580977 0.727791
O O11 0.760630 0.012898 0.468710
O O12 0.000000 0.308355 0.250000
O O13 0.000000 0.279493 0.750000
O O14 0.000000 0.000000 0.500000
#
# Coordination Sequence:
#
# PCOD9291516 Si02
#       6
#     8   8   8   8   8   4
#     4  10  22  42  68  94 119 153 203 251 308 384
#     4  11  19  36  59  89 120 161 204 245 291 355
#     4  12  23  38  57  88 122 163 207 248 298 349
#     4  12  26  44  62  87 125 163 200 260 316 351
#     4   9  18  34  60  92 122 153 194 250 309 359
#     4  12  22  36  54  76 112 160 210 248 278 338
#
# _framework density 22.028960000000001
#
# number of rings (size 3 to 8) (size 9 to 14) (size 15 to 20)
#    0.000    1.091    1.818    6.545    0.000    2.182 
#    0.000    1.818    0.000    0.000    0.000    0.000 
#    0.000    0.000    0.000    0.000    0.000    0.000 
#
# Total GULP energy -122945.874393 kJ/mol
# GULP energy per Si atom -5588.448836 kJ/mol
# Density = 2.197882 g / cm^3
# Si number density = 22.028960 Si / 1000 Ang^3
#
#
#
# Elastic Constant Matrix: (Units=GPa)
#
#
# Indices 1 2 3 4 5 6 
#
# 1 69.8596 4.4286 14.6409 0.0000 4.3069 0.0000
# 2 4.4286 84.9596 0.6173 0.0000 3.7331 0.0000
# 3 14.6409 0.6173 94.9696 0.0000 25.9174 0.0000
# 4 0.0000 0.0000 0.0000 -14.1307 0.0000 -21.7084
# 5 4.3069 3.7331 25.9174 0.0000 23.9841 0.0000
# 6 0.0000 0.0000 0.0000 -21.7084 0.0000 10.5994
#
#
#
# Elastic Compliance Matrix: (Units=1/GPa)
#
#
# Indices 1 2 3 4 5 6 
#
# 1 0.014841 -0.000752 -0.002252 0.000000 -0.000115 0.000000
# 2 -0.000752 0.011914 0.000720 0.000000 -0.002497 0.000000
# 3 -0.002252 0.000720 0.015306 0.000000 -0.016248 0.000000
# 4 0.000000 0.000000 0.000000 -0.017067 0.000000 -0.034955
# 5 -0.000115 -0.002497 -0.016248 0.000000 0.059661 0.000000
# 6 0.000000 0.000000 0.000000 -0.034955 0.000000 0.022754
#
#
# Mechanical properties :
#
#
# Convention : Reuss Voigt Hill
#
# Bulk Modulus (GPa) = 26.67127 32.12916 29.40022
# Shear Modulus (GPa) = 40.16897 19.43068 29.79982
#
# Velocity S-wave (km/s) = 4.27483 2.97316 3.68197
# Velocity P-wave (km/s) = 6.04146 5.13837 5.60812
#
# Compressibility (1/GPa) = 0.03749352
#
# Stress axis : x y z
#
# Youngs Moduli (GPa) = 67.38045 83.93474 65.33314
#
# Poissons Ratio (x) = 0.06314 0.14711
# Poissons Ratio (y) = 0.05068 -0.04705
# Poissons Ratio (z) = 0.15172 -0.06044
#
# Static dielectric constant tensor:
#      x y z
#    x 1.775310 0.000000 -0.010610 
#    y 0.000000 1.614950 0.000000 
#    z -0.010610 0.000000 1.775500 
# 
# From -- ./inp_files/7979.got.cif
#   From: 2010.05.17/outbox.cif.g08.bks.cpg/sg15_4_cif.got.tgz:7979.got - 2010.06.03 18:47:42.
