data_PCOD9291169
_publ_section_title
;
Structure prediction by ZEFSAII (Michael W. Deem and Ramdas Pophale) SiO2 
 PCOD9291169
Probable space group: C 2/C
;
_chemical_formula_sum "Si O2"
_cell_formula_units_Z 52
_cell_length_a 13.156505
_cell_length_b 26.038117
_cell_length_c 9.316162
_cell_angle_alpha 90.000000
_cell_angle_beta 120.346212
_cell_angle_gamma 90.000000
_cell_volume 2754.178415
_symmetry_space_group_name_H-M "C 2/C"
_symmetry_group_IT_number 15
_symmetry_cell_setting 'monoclinic'
loop_
_space_group_symop_operation_xyz
x,y,z
-x,y,1/2-z
-x,-y,-z
x,-y,1/2+z
1/2+x,1/2+y,z
1/2-x,1/2+y,1/2-z
1/2-x,1/2-y,-z
1/2+x,1/2-y,1/2+z
loop_
_atom_site_type_symbol
_atom_site_label
_atom_site_fract_x
_atom_site_fract_y
_atom_site_fract_z
Si Si1 0.014134 0.323820 0.988384
Si Si2 0.963134 0.883774 0.558986
Si Si3 0.000000 0.601834 0.750000
Si Si4 0.946284 0.211500 0.552931
Si Si5 0.185643 0.052301 0.152369
Si Si6 0.301888 0.156382 0.127336
Si Si7 0.247638 0.449717 0.467077
O O1 0.040920 0.263638 0.028414
O O2 0.117010 0.342934 0.955109
O O3 0.888979 0.327153 0.817474
O O4 0.009282 0.360482 0.120703
O O5 0.831175 0.904184 0.468669
O O6 0.000000 0.872050 0.750000
O O7 0.985209 0.834877 0.475374
O O8 0.049903 0.929320 0.567038
O O9 0.114216 0.565989 0.843331
O O10 0.810543 0.193600 0.466940
O O11 0.000000 0.220566 0.750000
O O12 0.252982 0.100147 0.128619
O O13 0.229837 0.045521 0.346830
O O14 0.211276 0.001541 0.081160
#
# Coordination Sequence:
#
# PCOD9291169 Si02
#       7
#     8   8   4   8   8   8   8
#     4  11  24  42  63  88 130 168 202 255 306 368
#     4   9  22  42  63  91 127 158 203 263 313 364
#     4  12  28  40  60  96 126 168 212 246 306 376
#     4  11  23  38  67  98 118 163 212 252 312 364
#     4  10  22  42  65  91 119 164 204 258 317 359
#     4  10  22  44  63  88 128 161 205 258 307 369
#     4  11  24  41  62  91 126 161 210 254 308 370
#
# _framework density 18.880403999999999
#
# number of rings (size 3 to 8) (size 9 to 14) (size 15 to 20)
#    0.000    1.538    3.077    0.923    5.385    3.077 
#    0.000    2.308    0.000    0.000    0.000    0.000 
#    0.000    0.000    0.000    0.000    0.000    0.000 
#
# Total GULP energy -145285.390014 kJ/mol
# GULP energy per Si atom -5587.899616 kJ/mol
# Density = 1.883743 g / cm^3
# Si number density = 18.880404 Si / 1000 Ang^3
#
#
#
# Elastic Constant Matrix: (Units=GPa)
#
#
# Indices 1 2 3 4 5 6 
#
# 1 58.0002 15.2358 7.5146 0.0000 14.7503 0.0000
# 2 15.2358 60.2308 3.6548 0.0000 -18.6839 0.0000
# 3 7.5146 3.6548 21.9705 0.0000 0.0112 0.0000
# 4 0.0000 0.0000 0.0000 11.6873 0.0000 -6.9251
# 5 14.7503 -18.6839 0.0112 0.0000 25.2430 0.0000
# 6 0.0000 0.0000 0.0000 -6.9251 0.0000 18.8339
#
#
#
# Elastic Compliance Matrix: (Units=1/GPa)
#
#
# Indices 1 2 3 4 5 6 
#
# 1 0.030054 -0.016344 -0.007546 0.000000 -0.029655 0.000000
# 2 -0.016344 0.030726 0.000462 0.000000 0.032292 0.000000
# 3 -0.007546 0.000462 0.048017 0.000000 0.004730 0.000000
# 4 0.000000 0.000000 0.000000 0.109397 0.000000 0.040225
# 5 -0.029655 0.032292 0.004730 0.000000 0.080842 0.000000
# 6 0.000000 0.000000 0.000000 0.040225 0.000000 0.067886
#
#
# Mechanical properties :
#
#
# Convention : Reuss Voigt Hill
#
# Bulk Modulus (GPa) = 16.14376 21.44576 18.79476
# Shear Modulus (GPa) = 11.50948 18.73925 15.12437
#
# Velocity S-wave (km/s) = 2.47169 3.15385 2.83337
# Velocity P-wave (km/s) = 4.08837 4.96445 4.54756
#
# Compressibility (1/GPa) = 0.06194345
#
# Stress axis : x y z
#
# Youngs Moduli (GPa) = 33.27370 32.54557 20.82592
#
# Poissons Ratio (x) = 0.53191 0.15714
# Poissons Ratio (y) = 0.54381 -0.00963
# Poissons Ratio (z) = 0.25107 -0.01504
#
# Static dielectric constant tensor:
#      x y z
#    x 1.640530 0.000000 0.005660 
#    y 0.000000 1.631910 0.000000 
#    z 0.005660 0.000000 1.639070 
# 
# From -- ./inp_files/34429.got.cif
#   From: 2010.05.17/outbox.cif.g08.bks.cpg/sg15_18_cif.got.tgz:34429.got - 2010.06.03 18:47:42.
