data_PCOD9291173
_publ_section_title
;
Structure prediction by ZEFSAII (Michael W. Deem and Ramdas Pophale) SiO2 
 PCOD9291173
Probable space group: C 2/C
;
_chemical_formula_sum "Si O2"
_cell_formula_units_Z 48
_cell_length_a 20.695270
_cell_length_b 19.250949
_cell_length_c 5.232174
_cell_angle_alpha 90.000000
_cell_angle_beta 104.678227
_cell_angle_gamma 90.000000
_cell_volume 2016.486835
_symmetry_space_group_name_H-M "C 2/C"
_symmetry_group_IT_number 15
_symmetry_cell_setting 'monoclinic'
loop_
_space_group_symop_operation_xyz
x,y,z
-x,y,1/2-z
-x,-y,-z
x,-y,1/2+z
1/2+x,1/2+y,z
1/2-x,1/2+y,1/2-z
1/2-x,1/2-y,-z
1/2+x,1/2-y,1/2+z
loop_
_atom_site_type_symbol
_atom_site_label
_atom_site_fract_x
_atom_site_fract_y
_atom_site_fract_z
Si Si1 0.927359 0.208527 0.650959
Si Si2 0.500000 0.451745 0.750000
Si Si3 0.500000 0.047527 0.250000
Si Si4 0.701860 0.670339 0.236049
Si Si5 0.854348 0.047383 0.059519
Si Si6 0.840052 0.294848 0.941517
Si Si7 0.562471 0.150475 0.630274
O O1 0.861950 0.163141 0.515559
O O2 0.898646 0.254733 0.853365
O O3 0.942115 0.269416 0.460782
O O4 0.000000 0.172128 0.750000
O O5 0.500000 0.500000 0.500000
O O6 0.572069 0.415859 0.840673
O O7 0.559215 0.101608 0.379132
O O8 0.500000 0.000000 0.500000
O O9 0.699082 0.605943 0.427228
O O10 0.776872 0.681474 0.208248
O O11 0.685662 0.739503 0.377527
O O12 0.849833 0.990144 0.282114
O O13 0.871808 0.357071 0.134558
O O14 0.500000 0.135451 0.750000
#
# Coordination Sequence:
#
# PCOD9291173 Si02
#       7
#     8   4   4   8   8   8   8
#     4  11  21  37  68  99 133 177 229 294 348 412
#     4   8  16  34  58  84 116 160 208 256 312 368
#     4  12  24  38  66 100 140 178 228 288 348 410
#     4  10  24  40  64  97 135 180 224 289 349 425
#     4  10  22  42  65  91 130 175 218 269 329 406
#     4  10  22  42  65  96 135 177 227 288 359 407
#     4  11  20  41  65  94 132 178 226 289 345 408
#
# _framework density 23.803777
#
# number of rings (size 3 to 8) (size 9 to 14) (size 15 to 20)
#    0.000    1.667    3.333    0.500    2.333    1.333 
#    6.000    1.667    0.000    0.000    0.000    0.000 
#    0.000    0.000    0.000    0.000    0.000    0.000 
#
# Total GULP energy -133893.056116 kJ/mol
# GULP energy per Si atom -5578.877338 kJ/mol
# Density = 2.374960 g / cm^3
# Si number density = 23.803777 Si / 1000 Ang^3
#
#
#
# Elastic Constant Matrix: (Units=GPa)
#
#
# Indices 1 2 3 4 5 6 
#
# 1 125.8988 17.9130 42.9767 0.0000 29.3877 0.0000
# 2 17.9130 58.2389 22.0440 0.0000 10.1497 0.0000
# 3 42.9767 22.0440 114.0652 0.0000 2.4845 0.0000
# 4 0.0000 0.0000 0.0000 -41.6673 0.0000 -36.0039
# 5 29.3877 10.1497 2.4845 0.0000 36.2395 0.0000
# 6 0.0000 0.0000 0.0000 -36.0039 0.0000 5.5398
#
#
#
# Elastic Compliance Matrix: (Units=1/GPa)
#
#
# Indices 1 2 3 4 5 6 
#
# 1 0.011460 -0.000447 -0.004038 0.000000 -0.008891 0.000000
# 2 -0.000447 0.019475 -0.003490 0.000000 -0.004853 0.000000
# 3 -0.004038 -0.003490 0.010886 0.000000 0.003505 0.000000
# 4 0.000000 0.000000 0.000000 -0.003628 0.000000 -0.023576
# 5 -0.008891 -0.004853 0.003505 0.000000 0.035923 0.000000
# 6 0.000000 0.000000 0.000000 -0.023576 0.000000 0.027285
#
#
# Mechanical properties :
#
#
# Convention : Reuss Voigt Hill
#
# Bulk Modulus (GPa) = 38.65106 51.56336 45.10721
# Shear Modulus (GPa) = 39.69041 14.37368 27.03204
#
# Velocity S-wave (km/s) = 4.08781 2.45998 3.37355
# Velocity P-wave (km/s) = 6.20910 5.45688 5.84510
#
# Compressibility (1/GPa) = 0.02587251
#
# Stress axis : x y z
#
# Youngs Moduli (GPa) = 87.25750 51.34877 91.85847
#
# Poissons Ratio (x) = 0.02295 0.37091
# Poissons Ratio (y) = 0.03900 0.32054
# Poissons Ratio (z) = 0.35234 0.17918
#
# Static dielectric constant tensor:
#      x y z
#    x 1.989250 0.000000 0.074480 
#    y 0.000000 1.906430 0.000000 
#    z 0.074480 0.000000 2.039600 
# 
# From -- ./inp_files/13260.got.cif
#   From: 2010.05.17/outbox.cif.g08.bks.cpg/sg15_7_cif.got.tgz:13260.got - 2010.06.03 18:47:42.
