data_PCOD9291605
_publ_section_title
;
Structure prediction by ZEFSAII (Michael W. Deem and Ramdas Pophale) SiO2 
 PCOD9291605
Probable space group: C 2/C
;
_chemical_formula_sum "Si O2"
_cell_formula_units_Z 56
_cell_length_a 12.004525
_cell_length_b 15.410369
_cell_length_c 14.997013
_cell_angle_alpha 90.000000
_cell_angle_beta 118.960520
_cell_angle_gamma 90.000000
_cell_volume 2427.436004
_symmetry_space_group_name_H-M "C 2/C"
_symmetry_group_IT_number 15
_symmetry_cell_setting 'monoclinic'
loop_
_space_group_symop_operation_xyz
x,y,z
-x,y,1/2-z
-x,-y,-z
x,-y,1/2+z
1/2+x,1/2+y,z
1/2-x,1/2+y,1/2-z
1/2-x,1/2-y,-z
1/2+x,1/2-y,1/2+z
loop_
_atom_site_type_symbol
_atom_site_label
_atom_site_fract_x
_atom_site_fract_y
_atom_site_fract_z
Si Si1 0.895827 0.846021 0.818420
Si Si2 0.353531 0.594615 0.665949
Si Si3 0.500000 0.910649 0.750000
Si Si4 0.500000 0.199811 0.750000
Si Si5 0.815993 0.347784 0.029126
Si Si6 0.401520 0.529054 0.035638
Si Si7 0.165388 0.547607 0.150902
Si Si8 0.275536 0.781019 0.609100
O O1 0.898787 0.765861 0.753218
O O2 0.780863 0.905193 0.745138
O O3 0.857994 0.809513 0.899797
O O4 0.022775 0.903690 0.870208
O O5 0.500000 0.573278 0.750000
O O6 0.353832 0.557183 0.565698
O O7 0.230809 0.544307 0.656422
O O8 0.330853 0.694555 0.676533
O O9 0.446129 0.956798 0.818846
O O10 0.383498 0.852719 0.666653
O O11 0.563906 0.155174 0.858920
O O12 0.750000 0.250000 0.000000
O O13 0.716829 0.412976 0.038501
O O14 0.851069 0.394296 0.946991
O O15 0.500000 0.500000 0.000000
O O16 0.250000 0.750000 0.500000
#
# Coordination Sequence:
#
# PCOD9291605 Si02
#       8
#     8   8   4   4   8   8   8   8
#     4  11  21  39  67  99 137 179 231 293 339 419
#     4  11  21  42  70 100 133 173 232 294 349 418
#     4  10  24  44  72  98 140 198 234 288 360 433
#     4  12  22  40  66 104 140 180 242 292 344 427
#     4  11  22  38  70 105 141 185 240 296 359 421
#     4  11  23  39  69 103 136 177 232 293 353 418
#     4  10  22  42  69 102 142 188 237 299 364 417
#     4  11  25  42  67 100 138 180 232 281 355 422
#
# _framework density 23.069610999999998
#
# number of rings (size 3 to 8) (size 9 to 14) (size 15 to 20)
#    0.000    1.143    5.000    1.714    2.000    2.286 
#    0.000    1.429    3.143    0.000    0.000    0.000 
#    0.000    0.000    0.000    0.000    0.000    0.000 
#
# Total GULP energy -156252.800894 kJ/mol
# GULP energy per Si atom -5580.457175 kJ/mol
# Density = 2.301710 g / cm^3
# Si number density = 23.069611 Si / 1000 Ang^3
#
#
#
# Elastic Constant Matrix: (Units=GPa)
#
#
# Indices 1 2 3 4 5 6 
#
# 1 120.0754 41.5573 1.7473 0.0000 -26.4114 0.0000
# 2 41.5573 73.5568 4.6351 0.0000 -3.2249 0.0000
# 3 1.7473 4.6351 62.5880 0.0000 -7.7461 0.0000
# 4 0.0000 0.0000 0.0000 29.8636 0.0000 -70.5899
# 5 -26.4114 -3.2249 -7.7461 0.0000 34.3109 0.0000
# 6 0.0000 0.0000 0.0000 -70.5899 0.0000 370.1650
#
#
#
# Elastic Compliance Matrix: (Units=1/GPa)
#
#
# Indices 1 2 3 4 5 6 
#
# 1 0.012780 -0.006888 0.001328 0.000000 0.009490 0.000000
# 2 -0.006888 0.017410 -0.001595 0.000000 -0.004026 0.000000
# 3 0.001328 -0.001595 0.016631 0.000000 0.004627 0.000000
# 4 0.000000 0.000000 0.000000 0.060968 0.000000 0.011626
# 5 0.009490 -0.004026 0.004627 0.000000 0.037117 0.000000
# 6 0.000000 0.000000 0.000000 0.011626 0.000000 0.004919
#
#
# Mechanical properties :
#
#
# Convention : Reuss Voigt Hill
#
# Bulk Modulus (GPa) = 30.75899 39.12219 34.94059
# Shear Modulus (GPa) = 28.57596 100.75325 64.66461
#
# Velocity S-wave (km/s) = 3.52331 6.61577 5.30010
# Velocity P-wave (km/s) = 5.46934 8.68061 7.25488
#
# Compressibility (1/GPa) = 0.03251082
#
# Stress axis : x y z
#
# Youngs Moduli (GPa) = 78.24698 57.43684 60.12788
#
# Poissons Ratio (x) = 0.39562 -0.07984
# Poissons Ratio (y) = 0.53896 0.09592
# Poissons Ratio (z) = -0.10390 0.09163
#
# Static dielectric constant tensor:
#      x y z
#    x 1.860100 0.000000 0.017520 
#    y 0.000000 1.910860 0.000000 
#    z 0.017520 0.000000 1.920300 
# 
# From -- ./inp_files/146203.got.cif
#   From: 2010.05.17/outbox.cif.g08.bks.cpg/sg15_74_cif.got.tgz:146203.got - 2010.06.03 18:47:42.
