data_PCOD9291938
_publ_section_title
;
Structure prediction by ZEFSAII (Michael W. Deem and Ramdas Pophale) SiO2 
 PCOD9291938
Probable space group: C 2/C
;
_chemical_formula_sum "Si O2"
_cell_formula_units_Z 44
_cell_length_a 6.407643
_cell_length_b 23.014208
_cell_length_c 13.840074
_cell_angle_alpha 90.000000
_cell_angle_beta 81.023964
_cell_angle_gamma 90.000000
_cell_volume 2015.957680
_symmetry_space_group_name_H-M "C 2/C"
_symmetry_group_IT_number 15
_symmetry_cell_setting 'monoclinic'
loop_
_space_group_symop_operation_xyz
x,y,z
-x,y,1/2-z
-x,-y,-z
x,-y,1/2+z
1/2+x,1/2+y,z
1/2-x,1/2+y,1/2-z
1/2-x,1/2-y,-z
1/2+x,1/2-y,1/2+z
loop_
_atom_site_type_symbol
_atom_site_label
_atom_site_fract_x
_atom_site_fract_y
_atom_site_fract_z
Si Si1 0.000000 0.550302 0.750000
Si Si2 0.853549 0.099060 0.849705
Si Si3 0.388629 0.746570 0.360135
Si Si4 0.589749 0.519217 0.343918
Si Si5 0.878660 0.861624 0.555874
Si Si6 0.540390 0.212847 0.041144
O O1 0.878299 0.589020 0.678727
O O2 0.819089 0.510006 0.811002
O O3 0.000000 0.117818 0.750000
O O4 0.893688 0.138917 0.938481
O O5 0.935073 0.034859 0.874660
O O6 0.500000 0.758235 0.250000
O O7 0.478365 0.684816 0.396731
O O8 0.437690 0.792679 0.442084
O O9 0.136549 0.740557 0.377921
O O10 0.500000 0.543816 0.250000
O O11 0.585370 0.572931 0.414880
O O12 0.634218 0.843154 0.587075
O O13 0.750000 0.250000 0.000000
#
# Coordination Sequence:
#
# PCOD9291938 Si02
#       6
#     4   8   8   8   8   8
#     4   8  18  36  52  76 120 162 196 238 298 342
#     4   9  20  37  52  81 121 159 199 248 290 352
#     4  10  22  43  63  86 123 157 191 256 311 362
#     4   9  19  34  55  82 119 156 196 241 297 351
#     4  11  21  35  58  90 114 153 205 246 300 367
#     4   9  22  41  59  89 118 150 202 243 305 367
#
# _framework density 21.825856000000002
#
# number of rings (size 3 to 8) (size 9 to 14) (size 15 to 20)
#    0.000    2.909    0.000    1.091    0.000   10.909 
#   11.455    0.000    0.000    0.000    0.000    0.000 
#    0.000    0.000    0.000    0.000    0.000    0.000 
#
# Total GULP energy -122590.266812 kJ/mol
# GULP energy per Si atom -5572.284855 kJ/mol
# Density = 2.177618 g / cm^3
# Si number density = 21.825856 Si / 1000 Ang^3
#
#
#
# Elastic Constant Matrix: (Units=GPa)
#
#
# Indices 1 2 3 4 5 6 
#
# 1 115.4819 15.1820 33.3589 0.0000 -1.1971 0.0000
# 2 15.1820 58.0306 24.2720 0.0000 2.7052 0.0000
# 3 33.3589 24.2720 95.0057 0.0000 -5.4967 0.0000
# 4 0.0000 0.0000 0.0000 22.1963 0.0000 -5.1262
# 5 -1.1971 2.7052 -5.4967 0.0000 20.4311 0.0000
# 6 0.0000 0.0000 0.0000 -5.1262 0.0000 -2.6664
#
#
#
# Elastic Compliance Matrix: (Units=1/GPa)
#
#
# Indices 1 2 3 4 5 6 
#
# 1 0.009717 -0.001241 -0.003101 0.000000 -0.000101 0.000000
# 2 -0.001241 0.019770 -0.004846 0.000000 -0.003994 0.000000
# 3 -0.003101 -0.004846 0.013083 0.000000 0.003980 0.000000
# 4 0.000000 0.000000 0.000000 0.031200 0.000000 -0.059981
# 5 -0.000101 -0.003994 0.003980 0.000000 0.050539 0.000000
# 6 0.000000 0.000000 0.000000 -0.059981 0.000000 -0.259719
#
#
# Mechanical properties :
#
#
# Convention : Reuss Voigt Hill
#
# Bulk Modulus (GPa) = 41.33147 46.01599 43.67373
# Shear Modulus (GPa) = -45.88433 21.03922 -12.42255
#
# Velocity S-wave (km/s) = -4.59005 3.10814 -2.38831
# Velocity P-wave (km/s) = 3.01884 5.83178 3.52820
#
# Compressibility (1/GPa) = 0.02419464
#
# Stress axis : x y z
#
# Youngs Moduli (GPa) = 102.91098 50.58149 76.43595
#
# Poissons Ratio (x) = 0.06275 0.23701
# Poissons Ratio (y) = 0.12767 0.37043
# Poissons Ratio (z) = 0.31911 0.24514
#
# Static dielectric constant tensor:
#      x y z
#    x 1.843570 0.000000 0.012420 
#    y 0.000000 1.849380 0.000000 
#    z 0.012420 0.000000 1.846250 
# 
# From -- ./inp_files/129804.got.cif
#   From: 2010.05.17/outbox.cif.g08.bks.cpg/sg15_65_cif.got.tgz:129804.got - 2010.06.03 18:47:42.
