data_PCOD9291316
_publ_section_title
;
Structure prediction by ZEFSAII (Michael W. Deem and Ramdas Pophale) SiO2 
 PCOD9291316
Probable space group: C 2/C
;
_chemical_formula_sum "Si O2"
_cell_formula_units_Z 40
_cell_length_a 22.766915
_cell_length_b 12.421517
_cell_length_c 9.083642
_cell_angle_alpha 90.000000
_cell_angle_beta 141.841925
_cell_angle_gamma 90.000000
_cell_volume 1587.121126
_symmetry_space_group_name_H-M "C 2/C"
_symmetry_group_IT_number 15
_symmetry_cell_setting 'monoclinic'
loop_
_space_group_symop_operation_xyz
x,y,z
-x,y,1/2-z
-x,-y,-z
x,-y,1/2+z
1/2+x,1/2+y,z
1/2-x,1/2+y,1/2-z
1/2-x,1/2-y,-z
1/2+x,1/2-y,1/2+z
loop_
_atom_site_type_symbol
_atom_site_label
_atom_site_fract_x
_atom_site_fract_y
_atom_site_fract_z
Si Si1 0.841390 0.994601 0.171309
Si Si2 0.468841 0.705413 0.857128
Si Si3 0.844916 0.777891 0.593707
Si Si4 0.066148 0.568665 0.242447
Si Si5 0.722475 0.915445 0.692461
O O1 0.921566 0.902988 0.329670
O O2 0.857536 0.095944 0.093447
O O3 0.814147 0.057226 0.268282
O O4 0.750879 0.940488 0.913876
O O5 0.500000 0.680757 0.750000
O O6 0.401633 0.810180 0.734603
O O7 0.560867 0.747232 0.128520
O O8 0.750000 0.750000 0.500000
O O9 0.824423 0.701740 0.416212
O O10 0.146401 0.494513 0.470740
O O11 0.000000 0.593949 0.250000
O O12 0.000000 0.500000 0.000000
#
# Coordination Sequence:
#
# PCOD9291316 Si02
#       5
#     8   8   8   8   8
#     4  11  25  43  70  98 137 177 226 282 345 407
#     4  11  23  42  70  99 136 178 232 279 348 405
#     4  10  22  42  66  94 134 182 218 274 346 412
#     4  11  23  42  67  98 132 180 228 283 339 413
#     4  11  24  44  68 100 138 180 228 278 349 411
#
# _framework density 25.202866
#
# number of rings (size 3 to 8) (size 9 to 14) (size 15 to 20)
#    0.000    1.200    2.000    4.200   11.200    0.800 
#    3.600    1.000    0.000    0.000    0.000    0.000 
#    0.000    0.000    0.000    0.000    0.000    0.000 
#
# Total GULP energy -111668.250362 kJ/mol
# GULP energy per Si atom -5583.412518 kJ/mol
# Density = 2.514550 g / cm^3
# Si number density = 25.202866 Si / 1000 Ang^3
#
#
#
# Elastic Constant Matrix: (Units=GPa)
#
#
# Indices 1 2 3 4 5 6 
#
# 1 70.6379 25.1179 -0.5476 0.0000 -11.3459 0.0000
# 2 25.1179 173.5564 5.6467 0.0000 13.7429 0.0000
# 3 -0.5476 5.6467 89.9943 0.0000 10.1060 0.0000
# 4 0.0000 0.0000 0.0000 47.4533 0.0000 16.6657
# 5 -11.3459 13.7429 10.1060 0.0000 30.9969 0.0000
# 6 0.0000 0.0000 0.0000 16.6657 0.0000 25.4759
#
#
#
# Elastic Compliance Matrix: (Units=1/GPa)
#
#
# Indices 1 2 3 4 5 6 
#
# 1 0.016405 -0.002949 -0.000557 0.000000 0.007494 0.000000
# 2 -0.002949 0.006502 0.000020 0.000000 -0.003969 0.000000
# 3 -0.000557 0.000020 0.011554 0.000000 -0.003980 0.000000
# 4 0.000000 0.000000 0.000000 0.027359 0.000000 -0.017897
# 5 0.007494 -0.003969 -0.003980 0.000000 0.038062 0.000000
# 6 0.000000 0.000000 0.000000 -0.017897 0.000000 0.050961
#
#
# Mechanical properties :
#
#
# Convention : Reuss Voigt Hill
#
# Bulk Modulus (GPa) = 36.37883 43.84695 40.11289
# Shear Modulus (GPa) = 29.94404 41.04999 35.49702
#
# Velocity S-wave (km/s) = 3.45065 4.04020 3.75701
# Velocity P-wave (km/s) = 5.50833 6.26096 5.89667
#
# Compressibility (1/GPa) = 0.02748851
#
# Stress axis : x y z
#
# Youngs Moduli (GPa) = 60.95750 153.79141 86.54958
#
# Poissons Ratio (x) = 0.45360 0.04818
# Poissons Ratio (y) = 0.17979 -0.00171
# Poissons Ratio (z) = 0.03393 -0.00304
#
# Static dielectric constant tensor:
#      x y z
#    x 2.056680 0.000000 -0.043760 
#    y 0.000000 2.076980 0.000000 
#    z -0.043760 0.000000 2.018260 
# 
# From -- ./inp_files/61740.got.cif
#   From: 2010.05.17/outbox.cif.g08.bks.cpg/sg15_31_cif.got.tgz:61740.got - 2010.06.03 18:47:42.
