data_PCOD9291281
_publ_section_title
;
Structure prediction by ZEFSAII (Michael W. Deem and Ramdas Pophale) SiO2 
 PCOD9291281
Probable space group: C 2/C
;
_chemical_formula_sum "Si O2"
_cell_formula_units_Z 44
_cell_length_a 12.113319
_cell_length_b 5.079114
_cell_length_c 32.371852
_cell_angle_alpha 90.000000
_cell_angle_beta 102.124725
_cell_angle_gamma 90.000000
_cell_volume 1947.246933
_symmetry_space_group_name_H-M "C 2/C"
_symmetry_group_IT_number 15
_symmetry_cell_setting 'monoclinic'
loop_
_space_group_symop_operation_xyz
x,y,z
-x,y,1/2-z
-x,-y,-z
x,-y,1/2+z
1/2+x,1/2+y,z
1/2-x,1/2+y,1/2-z
1/2-x,1/2-y,-z
1/2+x,1/2-y,1/2+z
loop_
_atom_site_type_symbol
_atom_site_label
_atom_site_fract_x
_atom_site_fract_y
_atom_site_fract_z
Si Si1 0.139143 0.705673 0.401079
Si Si2 0.280479 0.196611 0.395059
Si Si3 0.576900 0.334470 0.169441
Si Si4 0.994186 0.249874 0.970099
Si Si5 0.000000 0.411999 0.750000
Si Si6 0.256998 0.879216 0.725790
O O1 0.181367 0.414866 0.391617
O O2 0.039071 0.825465 0.364786
O O3 0.092858 0.718964 0.443942
O O4 0.240469 0.907339 0.403456
O O5 0.334917 0.191116 0.353886
O O6 0.379543 0.271154 0.434611
O O7 0.650903 0.592475 0.186760
O O8 0.544774 0.221396 0.211586
O O9 0.000000 0.500000 0.000000
O O10 0.000000 0.000000 0.000000
O O11 0.122150 0.512085 0.776738
O O12 0.227724 0.073529 0.761989
#
# Coordination Sequence:
#
# PCOD9291281 Si02
#       6
#     8   8   8   8   4   8
#     4  11  25  44  66  94 133 171 206 262 322 375
#     4  11  25  43  65  95 132 172 211 258 320 382
#     4  10  24  42  64  94 128 169 220 266 317 379
#     4  11  24  43  69 101 130 163 213 260 310 384
#     4  10  22  42  66  92 126 170 218 272 320 366
#     4  10  23  40  61  90 122 161 213 267 319 375
#
# _framework density 22.596003
#
# number of rings (size 3 to 8) (size 9 to 14) (size 15 to 20)
#    0.000    1.455    0.000    3.273    0.000   24.727 
#    0.000    0.000    0.000    0.000    0.000    0.000 
#    0.000    0.000    0.000    0.000    0.000    0.000 
#
# Total GULP energy -122604.439962 kJ/mol
# GULP energy per Si atom -5572.929089 kJ/mol
# Density = 2.254457 g / cm^3
# Si number density = 22.596003 Si / 1000 Ang^3
#
#
#
# Elastic Constant Matrix: (Units=GPa)
#
#
# Indices 1 2 3 4 5 6 
#
# 1 90.5081 9.8064 37.6812 0.0000 -10.1772 0.0000
# 2 9.8064 106.1017 41.4742 0.0000 -12.5449 0.0000
# 3 37.6812 41.4742 146.4017 0.0000 -29.4620 0.0000
# 4 0.0000 0.0000 0.0000 21.4397 0.0000 2.3590
# 5 -10.1772 -12.5449 -29.4620 0.0000 37.1368 0.0000
# 6 0.0000 0.0000 0.0000 2.3590 0.0000 22.9618
#
#
#
# Elastic Compliance Matrix: (Units=1/GPa)
#
#
# Indices 1 2 3 4 5 6 
#
# 1 0.012410 0.000161 -0.003028 0.000000 0.001053 0.000000
# 2 0.000161 0.010664 -0.002771 0.000000 0.001448 0.000000
# 3 -0.003028 -0.002771 0.009567 0.000000 0.005824 0.000000
# 4 0.000000 0.000000 0.000000 0.047176 0.000000 -0.004847
# 5 0.001053 0.001448 0.005824 0.000000 0.032326 0.000000
# 6 0.000000 0.000000 0.000000 -0.004847 0.000000 0.044049
#
#
# Mechanical properties :
#
#
# Convention : Reuss Voigt Hill
#
# Bulk Modulus (GPa) = 46.80379 57.88167 52.34273
# Shear Modulus (GPa) = 28.63863 33.24430 30.94147
#
# Velocity S-wave (km/s) = 3.56395 3.83984 3.70447
# Velocity P-wave (km/s) = 6.13954 6.73281 6.44300
#
# Compressibility (1/GPa) = 0.02136579
#
# Stress axis : x y z
#
# Youngs Moduli (GPa) = 80.57813 93.76916 104.52723
#
# Poissons Ratio (x) = -0.01511 0.31649
# Poissons Ratio (y) = -0.01298 0.28966
# Poissons Ratio (z) = 0.24398 0.25985
#
# Static dielectric constant tensor:
#      x y z
#    x 1.922690 0.000000 0.046210 
#    y 0.000000 1.829280 0.000000 
#    z 0.046210 0.000000 1.886850 
# 
# From -- ./inp_files/309445.got.cif
#   From: 2010.05.17/outbox.cif.g08.bks.cpg/sg15_155_cif.got.tgz:309445.got - 2010.06.03 18:47:42.
