data_PCOD9291437
_publ_section_title
;
Structure prediction by ZEFSAII (Michael W. Deem and Ramdas Pophale) SiO2 
 PCOD9291437
Probable space group: C 2/C
;
_chemical_formula_sum "Si O2"
_cell_formula_units_Z 48
_cell_length_a 5.369987
_cell_length_b 18.876654
_cell_length_c 18.912012
_cell_angle_alpha 90.000000
_cell_angle_beta 91.780557
_cell_angle_gamma 90.000000
_cell_volume 1916.135601
_symmetry_space_group_name_H-M "C 2/C"
_symmetry_group_IT_number 15
_symmetry_cell_setting 'monoclinic'
loop_
_space_group_symop_operation_xyz
x,y,z
-x,y,1/2-z
-x,-y,-z
x,-y,1/2+z
1/2+x,1/2+y,z
1/2-x,1/2+y,1/2-z
1/2-x,1/2-y,-z
1/2+x,1/2-y,1/2+z
loop_
_atom_site_type_symbol
_atom_site_label
_atom_site_fract_x
_atom_site_fract_y
_atom_site_fract_z
Si Si1 0.307099 0.458124 0.830376
Si Si2 0.209583 0.249714 0.620371
Si Si3 0.493095 0.329399 0.509475
Si Si4 0.979423 0.417508 0.478689
Si Si5 0.867027 0.396476 0.174809
Si Si6 0.694564 0.099627 0.171322
O O1 0.341464 0.542104 0.831789
O O2 0.252767 0.428098 0.750897
O O3 0.042353 0.439871 0.861981
O O4 0.261156 0.376900 0.992600
O O5 0.444317 0.278128 0.575968
O O6 0.017366 0.221946 0.559679
O O7 0.270037 0.182964 0.669237
O O8 0.136893 0.317821 0.665266
O O9 0.453687 0.420265 0.636433
O O10 0.237971 0.376379 0.499777
O O11 0.000000 0.500000 0.500000
O O12 0.965160 0.408379 0.393121
O O13 0.000000 0.409707 0.250000
#
# Coordination Sequence:
#
# PCOD9291437 Si02
#       6
#     8   8   8   8   8   8
#     4  10  23  43  63  99 138 183 233 290 355 435
#     4  10  25  45  75 104 146 194 240 308 373 439
#     4  10  25  48  70 107 143 187 250 304 355 447
#     4  11  26  47  77 107 145 199 247 300 373 441
#     4  11  25  47  70 111 150 188 241 314 374 433
#     4  10  22  42  67  96 135 190 235 283 363 427
#
# _framework density 25.050416999999999
#
# number of rings (size 3 to 8) (size 9 to 14) (size 15 to 20)
#    0.000    1.667    1.667    0.500    7.000   11.333 
#    3.000    0.000    0.000    0.000    0.000    0.000 
#    0.000    0.000    0.000    0.000    0.000    0.000 
#
# Total GULP energy -134310.392914 kJ/mol
# GULP energy per Si atom -5596.266371 kJ/mol
# Density = 2.499340 g / cm^3
# Si number density = 25.050417 Si / 1000 Ang^3
#
#
#
# Elastic Constant Matrix: (Units=GPa)
#
#
# Indices 1 2 3 4 5 6 
#
# 1 163.5292 58.3508 28.0246 0.0000 11.6443 0.0000
# 2 58.3508 223.5975 29.7625 0.0000 8.5836 0.0000
# 3 28.0246 29.7625 109.7191 0.0000 2.3053 0.0000
# 4 0.0000 0.0000 0.0000 38.4166 0.0000 -7.4887
# 5 11.6443 8.5836 2.3053 0.0000 18.3542 0.0000
# 6 0.0000 0.0000 0.0000 -7.4887 0.0000 41.2557
#
#
#
# Elastic Compliance Matrix: (Units=1/GPa)
#
#
# Indices 1 2 3 4 5 6 
#
# 1 0.007156 -0.001550 -0.001331 0.000000 -0.003648 0.000000
# 2 -0.001550 0.005051 -0.000948 0.000000 -0.001260 0.000000
# 3 -0.001331 -0.000948 0.009710 0.000000 0.000068 0.000000
# 4 0.000000 0.000000 0.000000 0.026985 0.000000 0.004898
# 5 -0.003648 -0.001260 0.000068 0.000000 0.057378 0.000000
# 6 0.000000 0.000000 0.000000 0.004898 0.000000 0.025128
#
#
# Mechanical properties :
#
#
# Convention : Reuss Voigt Hill
#
# Bulk Modulus (GPa) = 70.12753 81.01350 75.57052
# Shear Modulus (GPa) = 34.76578 44.98584 39.87581
#
# Velocity S-wave (km/s) = 3.72940 4.24230 3.99409
# Velocity P-wave (km/s) = 6.82641 7.51043 7.17658
#
# Compressibility (1/GPa) = 0.01425973
#
# Stress axis : x y z
#
# Youngs Moduli (GPa) = 139.74122 197.96411 102.98947
#
# Poissons Ratio (x) = 0.30691 0.13704
# Poissons Ratio (y) = 0.21664 0.09761
# Poissons Ratio (z) = 0.18594 0.18763
#
# Static dielectric constant tensor:
#      x y z
#    x 2.125910 0.000000 -0.222600 
#    y 0.000000 1.970330 0.000000 
#    z -0.222600 0.000000 2.320500 
# 
# From -- ./inp_files/204656.got.cif
#   From: 2010.05.17/outbox.cif.g08.bks.cpg/sg15_103_cif.got.tgz:204656.got - 2010.06.03 18:47:42.
