data_PCOD9291857
_publ_section_title
;
Structure prediction by ZEFSAII (Michael W. Deem and Ramdas Pophale) SiO2 
 PCOD9291857
Probable space group: C 2/C
;
_chemical_formula_sum "Si O2"
_cell_formula_units_Z 48
_cell_length_a 28.266866
_cell_length_b 7.682613
_cell_length_c 8.761095
_cell_angle_alpha 90.000000
_cell_angle_beta 104.454343
_cell_angle_gamma 90.000000
_cell_volume 1842.366175
_symmetry_space_group_name_H-M "C 2/C"
_symmetry_group_IT_number 15
_symmetry_cell_setting 'monoclinic'
loop_
_space_group_symop_operation_xyz
x,y,z
-x,y,1/2-z
-x,-y,-z
x,-y,1/2+z
1/2+x,1/2+y,z
1/2-x,1/2+y,1/2-z
1/2-x,1/2-y,-z
1/2+x,1/2-y,1/2+z
loop_
_atom_site_type_symbol
_atom_site_label
_atom_site_fract_x
_atom_site_fract_y
_atom_site_fract_z
Si Si1 0.547207 0.457566 0.174642
Si Si2 0.230078 0.859512 0.341092
Si Si3 0.653514 0.203349 0.048350
Si Si4 0.992907 0.307596 0.421847
Si Si5 0.638586 0.434974 0.451110
Si Si6 0.665092 0.874351 0.202329
O O1 0.500000 0.461930 0.250000
O O2 0.624761 0.382630 0.013998
O O3 0.593853 0.391569 0.305964
O O4 0.531301 0.316772 0.037490
O O5 0.250000 0.750000 0.500000
O O6 0.200440 0.763549 0.184243
O O7 0.187640 0.971683 0.388974
O O8 0.279185 0.922786 0.300058
O O9 0.632688 0.037524 0.120808
O O10 0.662466 0.145695 0.881148
O O11 0.000000 0.341722 0.250000
O O12 0.000000 0.500000 0.500000
O O13 0.948191 0.160051 0.381171
O O14 0.652276 0.290601 0.586508
#
# Coordination Sequence:
#
# PCOD9291857 Si02
#       6
#     8   8   8   8   8   8
#     4  10  24  48  75 104 143 188 242 301 365 427
#     4  10  24  43  67 101 139 185 238 293 357 422
#     4  12  26  44  72 102 144 191 237 295 360 430
#     4  10  22  42  73 106 139 187 230 293 362 432
#     4  11  26  48  73 106 142 190 246 303 361 430
#     4  11  26  44  70 104 143 188 240 300 356 434
#
# _framework density 26.053453000000001
#
# number of rings (size 3 to 8) (size 9 to 14) (size 15 to 20)
#    0.000    1.333    0.000    4.000    9.333   10.000 
#    0.000    6.667    0.000    0.000    0.000    0.000 
#    0.000    0.000    0.000    0.000    0.000    0.000 
#
# Total GULP energy -134134.683147 kJ/mol
# GULP energy per Si atom -5588.945131 kJ/mol
# Density = 2.599415 g / cm^3
# Si number density = 26.053453 Si / 1000 Ang^3
#
#
#
# Elastic Constant Matrix: (Units=GPa)
#
#
# Indices 1 2 3 4 5 6 
#
# 1 91.8202 5.2699 26.9271 0.0000 -2.4724 0.0000
# 2 5.2699 194.0099 93.6082 0.0000 -12.1551 0.0000
# 3 26.9271 93.6082 237.2799 0.0000 17.0493 0.0000
# 4 0.0000 0.0000 0.0000 36.7541 0.0000 25.4962
# 5 -2.4724 -12.1551 17.0493 0.0000 24.9600 0.0000
# 6 0.0000 0.0000 0.0000 25.4962 0.0000 -10.2787
#
#
#
# Elastic Compliance Matrix: (Units=1/GPa)
#
#
# Indices 1 2 3 4 5 6 
#
# 1 0.011442 0.000714 -0.001773 0.000000 0.002692 0.000000
# 2 0.000714 0.007084 -0.003290 0.000000 0.005768 0.000000
# 3 -0.001773 -0.003290 0.006143 0.000000 -0.005974 0.000000
# 4 0.000000 0.000000 0.000000 0.010000 0.000000 0.024806
# 5 0.002692 0.005768 -0.005974 0.000000 0.047220 0.000000
# 6 0.000000 0.000000 0.000000 0.024806 0.000000 -0.035759
#
#
# Mechanical properties :
#
#
# Convention : Reuss Voigt Hill
#
# Bulk Modulus (GPa) = 62.62026 86.08002 74.35014
# Shear Modulus (GPa) = 83.12031 36.77405 59.94718
#
# Velocity S-wave (km/s) = 5.65447 3.76105 4.80201
# Velocity P-wave (km/s) = 8.16812 7.20917 7.70358
#
# Compressibility (1/GPa) = 0.01596927
#
# Stress axis : x y z
#
# Youngs Moduli (GPa) = 87.39369 141.16854 162.79119
#
# Poissons Ratio (x) = -0.10073 0.28871
# Poissons Ratio (y) = -0.06236 0.53558
# Poissons Ratio (z) = 0.15499 0.46444
#
# Static dielectric constant tensor:
#      x y z
#    x 2.196640 0.000000 0.014010 
#    y 0.000000 2.109890 0.000000 
#    z 0.014010 0.000000 2.078770 
# 
# From -- ./inp_files/61049.got.cif
#   From: 2010.05.17/outbox.cif.g08.bks.cpg/sg15_31_cif.got.tgz:61049.got - 2010.06.03 18:47:42.
