data_PCOD9291718
_publ_section_title
;
Structure prediction by ZEFSAII (Michael W. Deem and Ramdas Pophale) SiO2 
 PCOD9291718
Probable space group: C 2/C
;
_chemical_formula_sum "Si O2"
_cell_formula_units_Z 48
_cell_length_a 28.732150
_cell_length_b 15.822861
_cell_length_c 7.773777
_cell_angle_alpha 90.000000
_cell_angle_beta 35.998936
_cell_angle_gamma 90.000000
_cell_volume 2077.269291
_symmetry_space_group_name_H-M "C 2/C"
_symmetry_group_IT_number 15
_symmetry_cell_setting 'monoclinic'
loop_
_space_group_symop_operation_xyz
x,y,z
-x,y,1/2-z
-x,-y,-z
x,-y,1/2+z
1/2+x,1/2+y,z
1/2-x,1/2+y,1/2-z
1/2-x,1/2-y,-z
1/2+x,1/2-y,1/2+z
loop_
_atom_site_type_symbol
_atom_site_label
_atom_site_fract_x
_atom_site_fract_y
_atom_site_fract_z
Si Si1 0.718775 0.598477 0.313171
Si Si2 0.920476 0.384102 0.785728
Si Si3 0.061528 0.952593 0.436877
Si Si4 0.354655 0.372111 0.789988
Si Si5 0.500000 0.983719 0.250000
Si Si6 0.259097 0.092536 0.580510
Si Si7 0.500000 0.737327 0.750000
O O1 0.626153 0.602845 0.649450
O O2 0.711907 0.650043 0.155082
O O3 0.761218 0.613079 0.370537
O O4 0.750615 0.507223 0.152742
O O5 0.927188 0.453743 0.919345
O O6 0.954191 0.297709 0.755801
O O7 0.978896 0.424302 0.470653
O O8 0.836528 0.376211 0.947119
O O9 0.116560 0.030938 0.337288
O O10 0.000000 0.000000 0.500000
O O11 0.000000 0.909306 0.750000
O O12 0.183132 0.130373 0.907861
O O13 0.433337 0.318003 0.540713
#
# Coordination Sequence:
#
# PCOD9291718 Si02
#       7
#     8   8   8   8   4   8   4
#     4  11  20  34  58  96 127 161 212 265 319 362
#     4  10  22  42  70  95 124 158 210 272 323 380
#     4  11  16  28  51  78 116 162 208 252 289 348
#     4  11  22  38  58  88 133 173 206 256 311 388
#     4   9  20  42  72 100 113 156 216 278 323 358
#     4  11  21  37  63  97 126 164 215 270 321 364
#     4  11  24  46  62  86 133 178 210 246 321 388
#
# _framework density 23.107258999999999
#
# number of rings (size 3 to 8) (size 9 to 14) (size 15 to 20)
#    0.000    1.333    5.833    2.000    0.000    0.667 
#    6.000    0.833    0.000    0.000    0.000    0.000 
#    0.000    0.000    0.000    0.000    0.000    0.000 
#
# Total GULP energy -133915.766729 kJ/mol
# GULP energy per Si atom -5579.823614 kJ/mol
# Density = 2.305467 g / cm^3
# Si number density = 23.107259 Si / 1000 Ang^3
#
#
#
# Elastic Constant Matrix: (Units=GPa)
#
#
# Indices 1 2 3 4 5 6 
#
# 1 139.0934 5.4938 9.0610 0.0000 -14.3691 0.0000
# 2 5.4938 47.7071 16.0365 0.0000 0.1251 0.0000
# 3 9.0610 16.0365 38.7742 0.0000 -5.1292 0.0000
# 4 0.0000 0.0000 0.0000 11.6002 0.0000 -4.5110
# 5 -14.3691 0.1251 -5.1292 0.0000 39.1237 0.0000
# 6 0.0000 0.0000 0.0000 -4.5110 0.0000 22.2884
#
#
#
# Elastic Compliance Matrix: (Units=1/GPa)
#
#
# Indices 1 2 3 4 5 6 
#
# 1 0.007558 -0.000464 -0.001228 0.000000 0.002616 0.000000
# 2 -0.000464 0.024453 -0.010215 0.000000 -0.001588 0.000000
# 3 -0.001228 -0.010215 0.030780 0.000000 0.003617 0.000000
# 4 0.000000 0.000000 0.000000 0.093570 0.000000 0.018938
# 5 0.002616 -0.001588 0.003617 0.000000 0.027000 0.000000
# 6 0.000000 0.000000 0.000000 0.018938 0.000000 0.048699
#
#
# Mechanical properties :
#
#
# Convention : Reuss Voigt Hill
#
# Bulk Modulus (GPa) = 25.65641 31.86190 28.75915
# Shear Modulus (GPa) = 18.59657 27.60135 23.09896
#
# Velocity S-wave (km/s) = 2.83997 3.45989 3.16514
# Velocity P-wave (km/s) = 4.67773 5.45708 5.08237
#
# Compressibility (1/GPa) = 0.03897662
#
# Stress axis : x y z
#
# Youngs Moduli (GPa) = 132.30944 40.89556 32.48819
#
# Poissons Ratio (x) = 0.01899 0.03990
# Poissons Ratio (y) = 0.06145 0.33186
# Poissons Ratio (z) = 0.16248 0.41774
#
# Static dielectric constant tensor:
#      x y z
#    x 2.001260 0.000000 0.063730 
#    y 0.000000 1.898740 0.000000 
#    z 0.063730 0.000000 1.968640 
# 
# From -- ./inp_files/66443.got.cif
#   From: 2010.05.17/outbox.cif.g08.bks.cpg/sg15_34_cif.got.tgz:66443.got - 2010.06.03 18:47:42.
