data_PCOD9291509
_publ_section_title
;
Structure prediction by ZEFSAII (Michael W. Deem and Ramdas Pophale) SiO2 
 PCOD9291509
Probable space group: C 2/C
;
_chemical_formula_sum "Si O2"
_cell_formula_units_Z 48
_cell_length_a 22.206346
_cell_length_b 7.829580
_cell_length_c 22.168982
_cell_angle_alpha 90.000000
_cell_angle_beta 142.446109
_cell_angle_gamma 90.000000
_cell_volume 2349.309740
_symmetry_space_group_name_H-M "C 2/C"
_symmetry_group_IT_number 15
_symmetry_cell_setting 'monoclinic'
loop_
_space_group_symop_operation_xyz
x,y,z
-x,y,1/2-z
-x,-y,-z
x,-y,1/2+z
1/2+x,1/2+y,z
1/2-x,1/2+y,1/2-z
1/2-x,1/2-y,-z
1/2+x,1/2-y,1/2+z
loop_
_atom_site_type_symbol
_atom_site_label
_atom_site_fract_x
_atom_site_fract_y
_atom_site_fract_z
Si Si1 0.658019 0.776115 0.384597
Si Si2 0.733753 0.774499 0.652468
Si Si3 0.000000 0.963421 0.750000
Si Si4 0.227179 0.330364 0.183284
Si Si5 0.000000 0.554554 0.250000
Si Si6 0.915069 0.965495 0.981546
Si Si7 0.945984 0.806763 0.307369
O O1 0.750000 0.750000 0.500000
O O2 0.690184 0.727688 0.342491
O O3 0.572054 0.657521 0.343462
O O4 0.603625 0.955655 0.337559
O O5 0.779821 0.694770 0.750174
O O6 0.646865 0.642374 0.563924
O O7 0.706440 0.972755 0.646518
O O8 0.068707 0.075171 0.762816
O O9 0.157309 0.188359 0.097195
O O10 0.341726 0.288844 0.257729
O O11 0.990092 0.645356 0.307414
O O12 0.973617 0.896781 0.086316
O O13 0.000000 0.000000 0.000000
#
# Coordination Sequence:
#
# PCOD9291509 Si02
#       7
#     8   8   4   8   4   8   8
#     4  11  24  44  67 104 135 181 243 286 351 429
#     4  12  24  45  73 103 146 186 236 301 360 419
#     4  10  22  42  68  90 138 182 214 296 340 412
#     4  12  25  46  74 103 145 190 228 305 364 414
#     4  10  26  42  74  98 140 198 224 294 366 418
#     4  12  26  45  70 108 138 184 243 293 354 434
#     4  11  23  47  67 103 142 177 242 289 355 428
#
# _framework density 20.431532000000001
#
# number of rings (size 3 to 8) (size 9 to 14) (size 15 to 20)
#    0.000    0.667    5.000    2.000    2.333    0.667 
#    0.000    4.167    0.000    0.000    0.000    0.000 
#    0.000    0.000    0.000    0.000    0.000    0.000 
#
# Total GULP energy -133786.886408 kJ/mol
# GULP energy per Si atom -5574.453600 kJ/mol
# Density = 2.038503 g / cm^3
# Si number density = 20.431532 Si / 1000 Ang^3
#
#
#
# Elastic Constant Matrix: (Units=GPa)
#
#
# Indices 1 2 3 4 5 6 
#
# 1 102.4202 46.4506 25.0036 0.0000 -5.3489 0.0000
# 2 46.4506 127.4134 43.4062 -0.0001 6.1942 -0.0002
# 3 25.0036 43.4062 99.1887 0.0000 5.0600 0.0000
# 4 0.0000 -0.0001 0.0000 15.2613 0.0000 7.5571
# 5 -5.3489 6.1942 5.0600 0.0000 34.2294 0.0000
# 6 0.0000 -0.0002 0.0000 7.5571 0.0000 35.9100
#
#
#
# Elastic Compliance Matrix: (Units=1/GPa)
#
#
# Indices 1 2 3 4 5 6 
#
# 1 0.012102 -0.004068 -0.001415 0.000000 0.002836 0.000000
# 2 -0.004068 0.010631 -0.003523 0.000000 -0.002039 0.000000
# 3 -0.001415 -0.003523 0.012050 0.000000 -0.001365 0.000000
# 4 0.000000 0.000000 0.000000 0.073148 0.000000 -0.015394
# 5 0.002836 -0.002039 -0.001365 0.000000 0.030229 0.000000
# 6 0.000000 0.000000 0.000000 -0.015394 0.000000 0.031087
#
#
# Mechanical properties :
#
#
# Convention : Reuss Voigt Hill
#
# Bulk Modulus (GPa) = 59.62665 62.08257 60.85461
# Shear Modulus (GPa) = 25.92714 31.35759 28.64237
#
# Velocity S-wave (km/s) = 3.56613 3.92186 3.74822
# Velocity P-wave (km/s) = 6.79731 7.13860 6.97004
#
# Compressibility (1/GPa) = 0.01677102
#
# Stress axis : x y z
#
# Youngs Moduli (GPa) = 82.62949 94.06778 82.98907
#
# Poissons Ratio (x) = 0.38265 0.11746
# Poissons Ratio (y) = 0.33612 0.29234
# Poissons Ratio (z) = 0.11695 0.33137
#
# Static dielectric constant tensor:
#      x y z
#    x 1.523620 0.000000 0.255490 
#    y 0.000000 1.832600 0.000000 
#    z 0.255490 0.000000 1.547470 
# 
# From -- ./inp_files/252041.got.cif
#   From: 2010.05.17/outbox.cif.g08.bks.cpg/sg15_127_cif.got.tgz:252041.got - 2010.06.03 18:47:42.
