data_PCOD9291134
_publ_section_title
;
Structure prediction by ZEFSAII (Michael W. Deem and Ramdas Pophale) SiO2 
 PCOD9291134
Probable space group: C 2/C
;
_chemical_formula_sum "Si O2"
_cell_formula_units_Z 36
_cell_length_a 10.535015
_cell_length_b 11.367518
_cell_length_c 27.572624
_cell_angle_alpha 90.000000
_cell_angle_beta 152.156258
_cell_angle_gamma 90.000000
_cell_volume 1542.244693
_symmetry_space_group_name_H-M "C 2/C"
_symmetry_group_IT_number 15
_symmetry_cell_setting 'monoclinic'
loop_
_space_group_symop_operation_xyz
x,y,z
-x,y,1/2-z
-x,-y,-z
x,-y,1/2+z
1/2+x,1/2+y,z
1/2-x,1/2+y,1/2-z
1/2-x,1/2-y,-z
1/2+x,1/2-y,1/2+z
loop_
_atom_site_type_symbol
_atom_site_label
_atom_site_fract_x
_atom_site_fract_y
_atom_site_fract_z
Si Si1 0.671476 0.395131 0.219911
Si Si2 0.569007 0.793012 0.605427
Si Si3 0.740335 0.355212 0.074956
Si Si4 0.204661 0.931338 0.642752
Si Si5 0.000000 0.002820 0.250000
O O1 0.667727 0.283165 0.184073
O O2 0.647403 0.503631 0.173943
O O3 0.457247 0.421603 0.188742
O O4 0.959479 0.374278 0.343136
O O5 0.678831 0.751203 0.590358
O O6 0.728617 0.916548 0.666218
O O7 0.250000 0.750000 0.500000
O O8 0.723369 0.464974 0.108018
O O9 0.529565 0.354842 0.959837
O O10 0.500000 0.874707 0.750000
#
# Coordination Sequence:
#
# PCOD9291134 Si02
#       5
#     8   8   8   8   4
#     4  10  22  42  64  97 141 175 233 282 342 417
#     4  11  24  44  70 101 138 181 234 285 343 416
#     4   9  17  38  64  91 132 173 222 284 335 410
#     4   8  16  30  60  91 120 172 220 267 343 393
#     4  12  26  44  72  98 140 188 222 286 352 400
#
# _framework density 23.342597999999999
#
# number of rings (size 3 to 8) (size 9 to 14) (size 15 to 20)
#    0.000    2.222    2.222    1.333   12.444    0.889 
#    0.000    3.333    0.000    0.000    0.000    0.000 
#    0.000    0.000    0.000    0.000    0.000    0.000 
#
# Total GULP energy -100221.816263 kJ/mol
# GULP energy per Si atom -5567.878681 kJ/mol
# Density = 2.328947 g / cm^3
# Si number density = 23.342598 Si / 1000 Ang^3
#
#
#
# Elastic Constant Matrix: (Units=GPa)
#
#
# Indices 1 2 3 4 5 6 
#
# 1 99.9721 27.8175 39.6024 0.0001 -4.9043 0.0000
# 2 27.8175 30.5623 12.9379 0.0000 -3.7625 0.0000
# 3 39.6024 12.9379 137.6499 0.0007 -27.3602 -0.0001
# 4 0.0001 0.0000 0.0007 -1.2820 -0.0001 4.4286
# 5 -4.9043 -3.7625 -27.3602 -0.0001 28.1340 0.0000
# 6 0.0000 0.0000 -0.0001 4.4286 0.0000 9.3584
#
#
#
# Elastic Compliance Matrix: (Units=1/GPa)
#
#
# Indices 1 2 3 4 5 6 
#
# 1 0.014683 -0.012159 -0.003590 -0.000001 -0.002558 0.000000
# 2 -0.012159 0.044218 0.000119 0.000000 0.003910 0.000000
# 3 -0.003590 0.000119 0.010122 0.000002 0.009234 -0.000001
# 4 -0.000001 0.000000 0.000002 -0.296054 0.000001 0.140101
# 5 -0.002558 0.003910 0.009234 0.000001 0.044601 0.000000
# 6 0.000000 0.000000 -0.000001 0.140101 0.000000 0.040556
#
#
# Mechanical properties :
#
#
# Convention : Reuss Voigt Hill
#
# Bulk Modulus (GPa) = 26.48092 47.65555 37.06824
# Shear Modulus (GPa) = -51.00649 19.76384 -15.62132
#
# Velocity S-wave (km/s) = -4.67960 2.91294 -2.58973
# Velocity P-wave (km/s) = 4.22246 5.63681 2.64050
#
# Compressibility (1/GPa) = 0.03776303
#
# Stress axis : x y z
#
# Youngs Moduli (GPa) = 68.10730 22.61514 98.79762
#
# Poissons Ratio (x) = 0.27498 0.35466
# Poissons Ratio (y) = 0.82814 -0.01179
# Poissons Ratio (z) = 0.24449 -0.00270
#
# Static dielectric constant tensor:
#      x y z
#    x 1.883310 0.000000 0.094720 
#    y 0.000000 1.977190 0.000000 
#    z 0.094720 0.000000 2.118240 
# 
# From -- ./inp_files/238161.got.cif
#   From: 2010.05.17/outbox.cif.g08.bks.cpg/sg15_120_cif.got.tgz:238161.got - 2010.06.03 18:47:42.
