data_PCOD9291148
_publ_section_title
;
Structure prediction by ZEFSAII (Michael W. Deem and Ramdas Pophale) SiO2 
 PCOD9291148
Probable space group: C 2/C
;
_chemical_formula_sum "Si O2"
_cell_formula_units_Z 52
_cell_length_a 20.101766
_cell_length_b 11.066994
_cell_length_c 21.604542
_cell_angle_alpha 90.000000
_cell_angle_beta 150.098300
_cell_angle_gamma 90.000000
_cell_volume 2395.994635
_symmetry_space_group_name_H-M "C 2/C"
_symmetry_group_IT_number 15
_symmetry_cell_setting 'monoclinic'
loop_
_space_group_symop_operation_xyz
x,y,z
-x,y,1/2-z
-x,-y,-z
x,-y,1/2+z
1/2+x,1/2+y,z
1/2-x,1/2+y,1/2-z
1/2-x,1/2-y,-z
1/2+x,1/2-y,1/2+z
loop_
_atom_site_type_symbol
_atom_site_label
_atom_site_fract_x
_atom_site_fract_y
_atom_site_fract_z
Si Si1 0.697155 0.092003 0.495157
Si Si2 0.704084 0.846563 0.332660
Si Si3 0.810744 0.934942 0.686664
Si Si4 0.500000 0.033925 0.750000
Si Si5 0.440050 0.269610 0.015758
Si Si6 0.755995 0.850071 0.237600
Si Si7 0.392987 0.487251 0.061167
O O1 0.628361 0.185978 0.486095
O O2 0.725809 0.975627 0.559643
O O3 0.602939 0.056726 0.363649
O O4 0.836055 0.102007 0.569253
O O5 0.714231 0.705341 0.326495
O O6 0.563172 0.883787 0.247921
O O7 0.724750 0.897748 0.280847
O O8 0.804397 0.900468 0.465252
O O9 0.967002 0.960846 0.803615
O O10 0.773109 0.029685 0.709934
O O11 0.602982 0.274037 0.147166
O O12 0.406314 0.404660 0.010742
O O13 0.363909 0.227466 0.891592
#
# Coordination Sequence:
#
# PCOD9291148 Si02
#       7
#     8   8   8   4   8   8   8
#     4  10  22  42  65 100 131 171 218 275 326 389
#     4  11  26  41  68  94 134 174 219 274 323 396
#     4  10  24  42  65  96 132 176 221 267 334 395
#     4  10  26  40  64  98 132 172 220 264 336 390
#     4  10  23  43  69  99 134 171 225 272 336 391
#     4  10  25  43  68  98 132 177 220 277 331 396
#     4  10  23  41  67  97 132 179 216 272 330 395
#
# _framework density 21.702884999999998
#
# number of rings (size 3 to 8) (size 9 to 14) (size 15 to 20)
#    0.000    1.846    0.000    0.923   12.923    2.462 
#    2.769    3.077    0.000    0.000    0.000    0.000 
#    0.000    0.000    0.000    0.000    0.000    0.000 
#
# Total GULP energy -144852.961369 kJ/mol
# GULP energy per Si atom -5571.267745 kJ/mol
# Density = 2.165349 g / cm^3
# Si number density = 21.702885 Si / 1000 Ang^3
#
#
#
# Elastic Constant Matrix: (Units=GPa)
#
#
# Indices 1 2 3 4 5 6 
#
# 1 83.0285 -6.8166 9.5124 0.0000 -9.7352 0.0000
# 2 -6.8166 39.8212 17.3754 0.0001 12.3324 -0.0001
# 3 9.5124 17.3754 76.9105 0.0002 4.1529 -0.0003
# 4 0.0000 0.0001 0.0002 -17.9186 0.0000 74.5636
# 5 -9.7352 12.3324 4.1529 0.0000 12.6047 -0.0001
# 6 0.0000 -0.0001 -0.0003 74.5636 -0.0001 -155.6294
#
#
#
# Elastic Compliance Matrix: (Units=1/GPa)
#
#
# Indices 1 2 3 4 5 6 
#
# 1 0.013632 -0.000250 -0.002251 0.000000 0.011515 0.000000
# 2 -0.000250 0.039360 -0.006894 0.000000 -0.036432 0.000000
# 3 -0.002251 -0.006894 0.014832 0.000000 0.000120 0.000000
# 4 0.000000 0.000000 0.000000 0.056162 0.000000 0.026908
# 5 0.011515 -0.036432 0.000120 0.000000 0.123834 0.000000
# 6 0.000000 0.000000 0.000000 0.026908 0.000000 0.006466
#
#
# Mechanical properties :
#
#
# Convention : Reuss Voigt Hill
#
# Bulk Modulus (GPa) = 20.39476 26.65585 23.52530
# Shear Modulus (GPa) = 17.27584 -20.20939 -1.46677
#
# Velocity S-wave (km/s) = 2.82444 -3.05484 -0.82299
# Velocity P-wave (km/s) = 4.47820 0.36594 3.15597
#
# Compressibility (1/GPa) = 0.04903220
#
# Stress axis : x y z
#
# Youngs Moduli (GPa) = 73.35923 25.40637 67.42385
#
# Poissons Ratio (x) = 0.00636 0.15178
# Poissons Ratio (y) = 0.01837 0.46482
# Poissons Ratio (z) = 0.16514 0.17515
#
# Static dielectric constant tensor:
#      x y z
#    x 1.891560 0.000000 0.076060 
#    y 0.000000 1.773450 0.000000 
#    z 0.076060 0.000000 1.816350 
# 
# From -- ./inp_files/110936.got.cif
#   From: 2010.05.17/outbox.cif.g08.bks.cpg/sg15_56_cif.got.tgz:110936.got - 2010.06.03 18:47:42.
