data_PCOD9291581
_publ_section_title
;
Structure prediction by ZEFSAII (Michael W. Deem and Ramdas Pophale) SiO2 
 PCOD9291581
Probable space group: C 2/C
;
_chemical_formula_sum "Si O2"
_cell_formula_units_Z 56
_cell_length_a 17.618035
_cell_length_b 11.464571
_cell_length_c 17.164364
_cell_angle_alpha 90.000000
_cell_angle_beta 47.676955
_cell_angle_gamma 90.000000
_cell_volume 2563.298271
_symmetry_space_group_name_H-M "C 2/C"
_symmetry_group_IT_number 15
_symmetry_cell_setting 'monoclinic'
loop_
_space_group_symop_operation_xyz
x,y,z
-x,y,1/2-z
-x,-y,-z
x,-y,1/2+z
1/2+x,1/2+y,z
1/2-x,1/2+y,1/2-z
1/2-x,1/2-y,-z
1/2+x,1/2-y,1/2+z
loop_
_atom_site_type_symbol
_atom_site_label
_atom_site_fract_x
_atom_site_fract_y
_atom_site_fract_z
Si Si1 0.186686 0.497225 0.678997
Si Si2 0.756230 0.757602 0.402483
Si Si3 0.278872 0.121137 0.005846
Si Si4 0.389646 0.486737 0.286237
Si Si5 0.990689 0.667532 0.667035
Si Si6 0.882457 0.944006 0.116386
Si Si7 0.941175 0.197154 0.047948
O O1 0.195951 0.358293 0.670508
O O2 0.225036 0.538867 0.567421
O O3 0.076720 0.552096 0.772201
O O4 0.261214 0.561292 0.688807
O O5 0.750000 0.750000 0.500000
O O6 0.832616 0.863570 0.335757
O O7 0.641397 0.770298 0.445028
O O8 0.195030 0.078004 0.125015
O O9 0.250000 0.250000 0.000000
O O10 0.398955 0.129112 0.942798
O O11 0.500000 0.495082 0.250000
O O12 0.410547 0.489859 0.181123
O O13 0.941947 0.753325 0.635786
O O14 0.000000 0.717994 0.750000
O O15 0.908415 0.062239 0.050173
O O16 0.939134 0.823786 0.056813
#
# Coordination Sequence:
#
# PCOD9291581 Si02
#       7
#     8   8   8   8   8   8   8
#     4  10  22  44  69  94 138 178 228 277 347 406
#     4  11  22  45  69  95 139 184 226 280 340 416
#     4  11  25  42  68  99 132 174 230 292 343 410
#     4  12  27  42  70 101 132 181 236 282 347 422
#     4  10  23  42  70 100 133 182 222 292 349 403
#     4  10  23  40  67  99 134 180 223 279 339 402
#     4  10  22  42  68  98 141 175 226 285 338 414
#
# _framework density 21.846854
#
# number of rings (size 3 to 8) (size 9 to 14) (size 15 to 20)
#    0.000    1.429    1.429    2.571   10.000    1.714 
#    7.714    1.429    0.000    0.000    0.000    0.000 
#    0.000    0.000    0.000    0.000    0.000    0.000 
#
# Total GULP energy -156118.122641 kJ/mol
# GULP energy per Si atom -5575.647237 kJ/mol
# Density = 2.179713 g / cm^3
# Si number density = 21.846854 Si / 1000 Ang^3
#
#
#
# Elastic Constant Matrix: (Units=GPa)
#
#
# Indices 1 2 3 4 5 6 
#
# 1 135.6473 12.9740 43.7668 0.0000 -5.1912 0.0000
# 2 12.9740 92.5738 40.8929 0.0000 -14.4170 0.0000
# 3 43.7668 40.8929 104.4008 0.0000 -13.4775 0.0000
# 4 0.0000 0.0000 0.0000 42.5570 0.0000 -5.8493
# 5 -5.1912 -14.4170 -13.4775 0.0000 34.8119 0.0000
# 6 0.0000 0.0000 0.0000 -5.8493 0.0000 23.9394
#
#
#
# Elastic Compliance Matrix: (Units=1/GPa)
#
#
# Indices 1 2 3 4 5 6 
#
# 1 0.008542 0.000466 -0.003762 0.000000 0.000010 0.000000
# 2 0.000466 0.013533 -0.005014 0.000000 0.003733 0.000000
# 3 -0.003762 -0.005014 0.013452 0.000000 0.002570 0.000000
# 4 0.000000 0.000000 0.000000 0.024314 0.000000 0.005941
# 5 0.000010 0.003733 0.002570 0.000000 0.031268 0.000000
# 6 0.000000 0.000000 0.000000 0.005941 0.000000 0.043224
#
#
# Mechanical properties :
#
#
# Convention : Reuss Voigt Hill
#
# Bulk Modulus (GPa) = 52.89339 58.65434 55.77387
# Shear Modulus (GPa) = 31.79538 35.92754 33.86146
#
# Velocity S-wave (km/s) = 3.81908 4.05966 3.94121
# Velocity P-wave (km/s) = 6.61141 6.99148 6.80410
#
# Compressibility (1/GPa) = 0.01890595
#
# Stress axis : x y z
#
# Youngs Moduli (GPa) = 117.07230 73.89225 74.34078
#
# Poissons Ratio (x) = -0.03446 0.27968
# Poissons Ratio (y) = -0.05460 0.37278
# Poissons Ratio (z) = 0.44045 0.37053
#
# Static dielectric constant tensor:
#      x y z
#    x 1.887810 0.000000 -0.041300 
#    y 0.000000 1.967480 0.000000 
#    z -0.041300 0.000000 1.982690 
# 
# From -- ./inp_files/210576.got.cif
#   From: 2010.05.17/outbox.cif.g08.bks.cpg/sg15_106_cif.got.tgz:210576.got - 2010.06.03 18:47:42.
