data_PCOD9291967
_publ_section_title
;
Structure prediction by ZEFSAII (Michael W. Deem and Ramdas Pophale) SiO2 
 PCOD9291967
Probable space group: C 2/C
;
_chemical_formula_sum "Si O2"
_cell_formula_units_Z 32
_cell_length_a 21.203596
_cell_length_b 5.143055
_cell_length_c 27.854391
_cell_angle_alpha 90.000000
_cell_angle_beta 30.804036
_cell_angle_gamma 90.000000
_cell_volume 1555.542893
_symmetry_space_group_name_H-M "C 2/C"
_symmetry_group_IT_number 15
_symmetry_cell_setting 'monoclinic'
loop_
_space_group_symop_operation_xyz
x,y,z
-x,y,1/2-z
-x,-y,-z
x,-y,1/2+z
1/2+x,1/2+y,z
1/2-x,1/2+y,1/2-z
1/2-x,1/2-y,-z
1/2+x,1/2-y,1/2+z
loop_
_atom_site_type_symbol
_atom_site_label
_atom_site_fract_x
_atom_site_fract_y
_atom_site_fract_z
Si Si1 0.205178 0.497959 0.082614
Si Si2 0.167109 0.004658 0.672796
Si Si3 0.047079 0.162297 0.125716
Si Si4 0.703613 0.399532 0.754466
O O1 0.201941 0.246170 0.119163
O O2 0.097889 0.432287 0.114294
O O3 0.190243 0.743824 0.126107
O O4 0.334478 0.491053 0.970206
O O5 0.237691 0.988158 0.677860
O O6 0.026733 0.981034 0.783524
O O7 0.940101 0.186281 0.156154
O O8 0.722666 0.649443 0.775428
#
# Coordination Sequence:
#
# PCOD9291967 Si02
#       4
#     8   8   8   8
#     4  11  22  44  65 103 125 166 224 262 348 374
#     4  10  24  39  68  95 132 170 212 274 325 391
#     4   9  25  40  70  94 137 166 211 287 310 395
#     4  10  22  43  64  92 133 178 215 262 324 379
#
# _framework density 20.571594000000001
#
# number of rings (size 3 to 8) (size 9 to 14) (size 15 to 20)
#    1.500    0.500    0.000    2.250    0.000   14.000 
#    0.000    7.500    0.000    0.000    0.000    0.000 
#    0.000    0.000    0.000    0.000    0.000    0.000 
#
# Total GULP energy -89298.002988 kJ/mol
# GULP energy per Si atom -5581.125187 kJ/mol
# Density = 2.052477 g / cm^3
# Si number density = 20.571594 Si / 1000 Ang^3
#
#
#
# Elastic Constant Matrix: (Units=GPa)
#
#
# Indices 1 2 3 4 5 6 
#
# 1 149.7501 75.3719 42.1869 1.9448 -4.4675 1.2279
# 2 75.3719 177.4012 58.3751 -4.0781 14.4276 -2.9374
# 3 42.1869 58.3751 134.4648 0.7129 18.6713 0.4388
# 4 1.9448 -4.0781 0.7129 -215.5022 1.2536 -159.5002
# 5 -4.4675 14.4276 18.6713 1.2536 21.8142 0.8394
# 6 1.2279 -2.9374 0.4388 -159.5002 0.8394 -100.6989
#
#
#
# Elastic Compliance Matrix: (Units=1/GPa)
#
#
# Indices 1 2 3 4 5 6 
#
# 1 0.009374 -0.003773 -0.002174 0.000072 0.006266 0.000153
# 2 -0.003773 0.008181 -0.001714 -0.000135 -0.004704 -0.000117
# 3 -0.002174 -0.001714 0.009950 0.000006 -0.007828 -0.000007
# 4 0.000072 -0.000135 0.000006 0.026931 0.000193 -0.042651
# 5 0.006266 -0.004704 -0.007828 0.000193 0.056912 0.000348
# 6 0.000153 -0.000117 -0.000007 -0.042651 0.000348 0.057633
#
#
# Mechanical properties :
#
#
# Convention : Reuss Voigt Hill
#
# Bulk Modulus (GPa) = 82.07350 90.38709 86.23029
# Shear Modulus (GPa) = 26.54439 -39.83191 -6.64376
#
# Velocity S-wave (km/s) = 3.59603 -4.40507 -1.79905
# Velocity P-wave (km/s) = 7.56472 4.26150 6.13944
#
# Compressibility (1/GPa) = 0.01218420
#
# Stress axis : x y z
#
# Youngs Moduli (GPa) = 106.68020 122.23019 100.50289
#
# Poissons Ratio (x) = 0.46113 0.21850
# Poissons Ratio (y) = 0.40246 0.17224
# Poissons Ratio (z) = 0.23193 0.20947
#
# Static dielectric constant tensor:
#      x y z
#    x 1.802720 -0.000140 -0.010700 
#    y -0.000140 1.724460 0.000080 
#    z -0.010700 0.000080 1.721770 
# 
# From -- ./inp_files/318144.got.cif
#   From: 2010.05.17/outbox.cif.g08.bks.cpg/sg15_160_cif.got.tgz:318144.got - 2010.06.03 18:47:42.
