data_PCOD9291877
_publ_section_title
;
Structure prediction by ZEFSAII (Michael W. Deem and Ramdas Pophale) SiO2 
 PCOD9291877
Probable space group: C 2/C
;
_chemical_formula_sum "Si O2"
_cell_formula_units_Z 44
_cell_length_a 11.533446
_cell_length_b 9.232778
_cell_length_c 26.583839
_cell_angle_alpha 90.000000
_cell_angle_beta 39.447555
_cell_angle_gamma 90.000000
_cell_volume 1798.610048
_symmetry_space_group_name_H-M "C 2/C"
_symmetry_group_IT_number 15
_symmetry_cell_setting 'monoclinic'
loop_
_space_group_symop_operation_xyz
x,y,z
-x,y,1/2-z
-x,-y,-z
x,-y,1/2+z
1/2+x,1/2+y,z
1/2-x,1/2+y,1/2-z
1/2-x,1/2-y,-z
1/2+x,1/2-y,1/2+z
loop_
_atom_site_type_symbol
_atom_site_label
_atom_site_fract_x
_atom_site_fract_y
_atom_site_fract_z
Si Si1 0.815040 0.924392 0.702373
Si Si2 0.199021 0.334882 0.589634
Si Si3 0.000000 0.607044 0.250000
Si Si4 0.200278 0.066892 0.021147
Si Si5 0.173583 0.753723 0.333836
Si Si6 0.576705 0.797505 0.981635
O O1 0.674252 0.820501 0.719144
O O2 0.789855 0.872763 0.767677
O O3 0.018074 0.912849 0.614457
O O4 0.750816 0.086601 0.706899
O O5 0.110931 0.439876 0.662014
O O6 0.291200 0.422870 0.514140
O O7 0.363831 0.240104 0.555604
O O8 0.027224 0.252604 0.623992
O O9 0.368614 0.063047 0.003734
O O10 0.186380 0.183584 0.980636
O O11 0.151444 0.721893 0.400292
#
# Coordination Sequence:
#
# PCOD9291877 Si02
#       6
#     8   8   4   8   8   8
#     4  11  24  46  70 108 141 193 247 302 366 448
#     4  11  22  46  70 104 143 195 236 302 378 438
#     4  10  22  42  74  94 144 194 238 286 364 444
#     4  11  24  42  76 108 138 192 258 295 372 453
#     4  11  26  45  73 105 150 192 245 303 375 442
#     4  11  23  43  75 104 144 194 241 309 362 450
#
# _framework density 24.463336000000002
#
# number of rings (size 3 to 8) (size 9 to 14) (size 15 to 20)
#    0.000    1.091    3.636    2.182    0.000    8.727 
#    0.000    3.636    0.000    0.000    0.000    0.000 
#    0.000    0.000    0.000    0.000    0.000    0.000 
#
# Total GULP energy -122605.738465 kJ/mol
# GULP energy per Si atom -5572.988112 kJ/mol
# Density = 2.440766 g / cm^3
# Si number density = 24.463336 Si / 1000 Ang^3
#
#
#
# Elastic Constant Matrix: (Units=GPa)
#
#
# Indices 1 2 3 4 5 6 
#
# 1 147.3781 1.6954 52.0240 0.0000 5.6939 0.0000
# 2 1.6954 23.2521 8.4605 0.0000 21.4887 0.0000
# 3 52.0240 8.4605 187.9075 -0.0001 27.8272 0.0000
# 4 0.0000 0.0000 -0.0001 30.5550 0.0000 -1.1613
# 5 5.6939 21.4887 27.8272 0.0000 47.6495 0.0000
# 6 0.0000 0.0000 0.0000 -1.1613 0.0000 22.6718
#
#
#
# Elastic Compliance Matrix: (Units=1/GPa)
#
#
# Indices 1 2 3 4 5 6 
#
# 1 0.007526 -0.000161 -0.002139 0.000000 0.000422 0.000000
# 2 -0.000161 0.074276 0.001815 0.000000 -0.034537 0.000000
# 3 -0.002139 0.001815 0.006476 0.000000 -0.004345 0.000000
# 4 0.000000 0.000000 0.000000 0.032792 0.000000 0.001680
# 5 0.000422 -0.034537 -0.004345 0.000000 0.039049 0.000000
# 6 0.000000 0.000000 0.000000 0.001680 0.000000 0.044194
#
#
# Mechanical properties :
#
#
# Convention : Reuss Voigt Hill
#
# Bulk Modulus (GPa) = 11.45371 53.65528 32.55449
# Shear Modulus (GPa) = 21.33251 39.93245 30.63248
#
# Velocity S-wave (km/s) = 2.95620 4.04460 3.54245
# Velocity P-wave (km/s) = 4.04281 6.61758 5.48346
#
# Compressibility (1/GPa) = 0.08730799
#
# Stress axis : x y z
#
# Youngs Moduli (GPa) = 132.87579 13.46327 154.42530
#
# Poissons Ratio (x) = 0.00216 0.33030
# Poissons Ratio (y) = 0.02136 -0.28026
# Poissons Ratio (z) = 0.28421 -0.02443
#
# Static dielectric constant tensor:
#      x y z
#    x 1.940080 0.000000 0.009850 
#    y 0.000000 2.454390 0.000000 
#    z 0.009850 0.000000 1.918110 
# 
# From -- ./inp_files/269155.got.cif
#   From: 2010.05.17/outbox.cif.g08.bks.cpg/sg15_135_cif.got.tgz:269155.got - 2010.06.03 18:47:42.
