data_PCOD9291904
_publ_section_title
;
Structure prediction by ZEFSAII (Michael W. Deem and Ramdas Pophale) SiO2 
 PCOD9291904
Probable space group: C 2/C
;
_chemical_formula_sum "Si O2"
_cell_formula_units_Z 60
_cell_length_a 17.496446
_cell_length_b 20.747525
_cell_length_c 9.344369
_cell_angle_alpha 90.000000
_cell_angle_beta 54.663062
_cell_angle_gamma 90.000000
_cell_volume 2767.139937
_symmetry_space_group_name_H-M "C 2/C"
_symmetry_group_IT_number 15
_symmetry_cell_setting 'monoclinic'
loop_
_space_group_symop_operation_xyz
x,y,z
-x,y,1/2-z
-x,-y,-z
x,-y,1/2+z
1/2+x,1/2+y,z
1/2-x,1/2+y,1/2-z
1/2-x,1/2-y,-z
1/2+x,1/2-y,1/2+z
loop_
_atom_site_type_symbol
_atom_site_label
_atom_site_fract_x
_atom_site_fract_y
_atom_site_fract_z
Si Si1 0.346724 0.044530 0.503295
Si Si2 0.713777 0.166331 0.742093
Si Si3 0.000000 0.466920 0.250000
Si Si4 0.288191 0.878837 0.820858
Si Si5 0.918875 0.855954 0.432591
Si Si6 0.692153 0.910142 0.009818
Si Si7 0.864285 0.247288 0.755830
Si Si8 0.963025 0.760143 0.625949
O O1 0.318415 0.105703 0.625424
O O2 0.448235 0.013689 0.419303
O O3 0.346405 0.067667 0.339269
O O4 0.278896 0.981941 0.573931
O O5 0.749947 0.130744 0.559445
O O6 0.795730 0.205334 0.730847
O O7 0.629319 0.215211 0.791409
O O8 0.089058 0.422572 0.191310
O O9 0.315179 0.871613 0.627803
O O10 0.311232 0.810434 0.865641
O O11 0.178487 0.893491 0.953319
O O12 0.896955 0.793923 0.355906
O O13 0.943871 0.828227 0.562718
O O14 0.000000 0.889375 0.250000
O O15 0.953818 0.267334 0.564228
O O16 0.000000 0.764890 0.750000
#
# Coordination Sequence:
#
# PCOD9291904 Si02
#       8
#     8   8   4   8   8   8   8   8
#     4  10  23  39  64  87 131 171 220 255 303 382
#     4  12  23  42  60  96 137 172 217 264 315 396
#     4   8  24  42  56 100 128 172 216 248 318 386
#     4  12  21  39  65  90 123 173 212 263 323 381
#     4  10  22  43  60  89 122 166 217 264 317 385
#     4  10  25  36  62  92 132 171 212 258 316 384
#     4  11  24  38  64  95 128 171 220 262 325 387
#     4  11  25  37  60  94 134 170 205 264 330 386
#
# _framework density 21.683039000000001
#
# number of rings (size 3 to 8) (size 9 to 14) (size 15 to 20)
#    0.800    0.533    2.667    2.800    6.533    2.133 
#    0.000    0.000    0.000    0.800    0.000    0.000 
#    0.000    0.000    0.000    0.000    0.000    0.000 
#
# Total GULP energy -167214.551051 kJ/mol
# GULP energy per Si atom -5573.818368 kJ/mol
# Density = 2.163369 g / cm^3
# Si number density = 21.683039 Si / 1000 Ang^3
#
#
#
# Elastic Constant Matrix: (Units=GPa)
#
#
# Indices 1 2 3 4 5 6 
#
# 1 101.1696 20.1158 24.6532 0.0000 8.6268 0.0000
# 2 20.1158 44.4020 -0.5152 0.0000 3.9322 0.0000
# 3 24.6532 -0.5152 64.3572 0.0000 12.2018 0.0000
# 4 0.0000 0.0000 0.0000 16.5221 0.0000 1.3613
# 5 8.6268 3.9322 12.2018 0.0000 41.3069 0.0000
# 6 0.0000 0.0000 0.0000 1.3613 0.0000 23.7611
#
#
#
# Elastic Compliance Matrix: (Units=1/GPa)
#
#
# Indices 1 2 3 4 5 6 
#
# 1 0.012148 -0.005498 -0.004572 0.000000 -0.000663 0.000000
# 2 -0.005498 0.025225 0.002697 0.000000 -0.002050 0.000000
# 3 -0.004572 0.002697 0.018198 0.000000 -0.004677 0.000000
# 4 0.000000 0.000000 0.000000 0.060812 0.000000 -0.003484
# 5 -0.000663 -0.002050 -0.004677 0.000000 0.025924 0.000000
# 6 0.000000 0.000000 0.000000 -0.003484 0.000000 0.042285
#
#
# Mechanical properties :
#
#
# Convention : Reuss Voigt Hill
#
# Bulk Modulus (GPa) = 24.49481 33.15961 28.82721
# Shear Modulus (GPa) = 23.47994 27.36301 25.42148
#
# Velocity S-wave (km/s) = 3.29427 3.55625 3.42777
# Velocity P-wave (km/s) = 5.07848 5.67351 5.38422
#
# Compressibility (1/GPa) = 0.04082498
#
# Stress axis : x y z
#
# Youngs Moduli (GPa) = 82.31673 39.64306 54.95098
#
# Poissons Ratio (x) = 0.21795 0.25123
# Poissons Ratio (y) = 0.45257 -0.14818
# Poissons Ratio (z) = 0.37634 -0.10690
#
# Static dielectric constant tensor:
#      x y z
#    x 1.857890 0.000000 0.010760 
#    y 0.000000 1.791090 0.000000 
#    z 0.010760 0.000000 1.857570 
# 
# From -- ./inp_files/51529.got.cif
#   From: 2010.05.17/outbox.cif.g08.bks.cpg/sg15_26_cif.got.tgz:51529.got - 2010.06.03 18:47:42.
