data_PCOD9291890
_publ_section_title
;
Structure prediction by ZEFSAII (Michael W. Deem and Ramdas Pophale) SiO2 
 PCOD9291890
Probable space group: C 2/C
;
_chemical_formula_sum "Si O2"
_cell_formula_units_Z 28
_cell_length_a 14.298911
_cell_length_b 12.774967
_cell_length_c 6.954551
_cell_angle_alpha 90.000000
_cell_angle_beta 118.977740
_cell_angle_gamma 90.000000
_cell_volume 1111.333970
_symmetry_space_group_name_H-M "C 2/C"
_symmetry_group_IT_number 15
_symmetry_cell_setting 'monoclinic'
loop_
_space_group_symop_operation_xyz
x,y,z
-x,y,1/2-z
-x,-y,-z
x,-y,1/2+z
1/2+x,1/2+y,z
1/2-x,1/2+y,1/2-z
1/2-x,1/2-y,-z
1/2+x,1/2-y,1/2+z
loop_
_atom_site_type_symbol
_atom_site_label
_atom_site_fract_x
_atom_site_fract_y
_atom_site_fract_z
Si Si1 0.898093 0.085269 0.510648
Si Si2 0.244435 0.923139 0.304839
Si Si3 0.616155 0.887975 0.395658
Si Si4 0.500000 0.305307 0.750000
O O1 0.801633 0.127982 0.548351
O O2 0.000000 0.083953 0.750000
O O3 0.931407 0.138141 0.345098
O O4 0.855746 0.969121 0.414695
O O5 0.323511 0.862865 0.243896
O O6 0.309693 0.029738 0.423225
O O7 0.500000 0.941570 0.250000
O O8 0.580476 0.775900 0.442337
#
# Coordination Sequence:
#
# PCOD9291890 Si02
#       4
#     8   8   8   4
#     4  11  25  43  65 100 129 171 214 270 313 387
#     4  10  22  42  75  87 125 178 225 248 320 385
#     4   9  21  44  64  99 129 166 215 274 308 387
#     4  10  26  42  64  94 148 154 206 280 332 356
#
# _framework density 25.194946999999999
#
# number of rings (size 3 to 8) (size 9 to 14) (size 15 to 20)
#    0.857    1.143    0.000    1.714   10.000    2.286 
#   10.286    0.000    0.000    0.000    0.000    0.000 
#    0.000    0.000    0.000    0.000    0.000    0.000 
#
# Total GULP energy -78148.559663 kJ/mol
# GULP energy per Si atom -5582.039976 kJ/mol
# Density = 2.513760 g / cm^3
# Si number density = 25.194947 Si / 1000 Ang^3
#
#
#
# Elastic Constant Matrix: (Units=GPa)
#
#
# Indices 1 2 3 4 5 6 
#
# 1 183.6831 47.9340 32.7654 0.0000 -15.1526 0.0000
# 2 47.9340 72.2085 19.4584 0.0000 -3.5937 0.0000
# 3 32.7654 19.4584 104.0423 0.0000 5.9902 0.0000
# 4 0.0000 0.0000 0.0000 -35.2152 0.0000 -30.6896
# 5 -15.1526 -3.5937 5.9902 0.0000 35.6348 0.0000
# 6 0.0000 0.0000 0.0000 -30.6896 0.0000 28.7245
#
#
#
# Elastic Compliance Matrix: (Units=1/GPa)
#
#
# Indices 1 2 3 4 5 6 
#
# 1 0.007035 -0.004094 -0.001614 0.000000 0.002850 0.000000
# 2 -0.004094 0.017101 -0.001927 0.000000 0.000308 0.000000
# 3 -0.001614 -0.001927 0.010634 0.000000 -0.002668 0.000000
# 4 0.000000 0.000000 0.000000 -0.014705 0.000000 -0.015711
# 5 0.002850 0.000308 -0.002668 0.000000 0.029754 0.000000
# 6 0.000000 0.000000 0.000000 -0.015711 0.000000 0.018028
#
#
# Mechanical properties :
#
#
# Convention : Reuss Voigt Hill
#
# Bulk Modulus (GPa) = 51.27937 62.24993 56.76465
# Shear Modulus (GPa) = 55.79361 23.14723 39.47042
#
# Velocity S-wave (km/s) = 4.71093 3.03434 3.96232
# Velocity P-wave (km/s) = 7.07020 6.08582 6.59640
#
# Compressibility (1/GPa) = 0.01950102
#
# Stress axis : x y z
#
# Youngs Moduli (GPa) = 142.13739 58.47703 94.03985
#
# Poissons Ratio (x) = 0.23938 0.15179
# Poissons Ratio (y) = 0.58184 0.18120
# Poissons Ratio (z) = 0.22943 0.11268
#
# Static dielectric constant tensor:
#      x y z
#    x 2.007180 0.000000 0.059390 
#    y 0.000000 2.016010 0.000000 
#    z 0.059390 0.000000 2.084570 
# 
# From -- ./inp_files/36924.got.cif
#   From: 2010.05.17/outbox.cif.g08.bks.cpg/sg15_19_cif.got.tgz:36924.got - 2010.06.03 18:47:42.
