data_PCOD9291055
_publ_section_title
;
Structure prediction by ZEFSAII (Michael W. Deem and Ramdas Pophale) SiO2 
 PCOD9291055
Probable space group: C 2/C
;
_chemical_formula_sum "Si O2"
_cell_formula_units_Z 40
_cell_length_a 5.943597
_cell_length_b 23.341143
_cell_length_c 12.833850
_cell_angle_alpha 90.000000
_cell_angle_beta 78.064999
_cell_angle_gamma 90.000000
_cell_volume 1741.956310
_symmetry_space_group_name_H-M "C 2/C"
_symmetry_group_IT_number 15
_symmetry_cell_setting 'monoclinic'
loop_
_space_group_symop_operation_xyz
x,y,z
-x,y,1/2-z
-x,-y,-z
x,-y,1/2+z
1/2+x,1/2+y,z
1/2-x,1/2+y,1/2-z
1/2-x,1/2-y,-z
1/2+x,1/2-y,1/2+z
loop_
_atom_site_type_symbol
_atom_site_label
_atom_site_fract_x
_atom_site_fract_y
_atom_site_fract_z
Si Si1 0.500000 0.696011 0.250000
Si Si2 0.264609 0.999225 0.589411
Si Si3 0.096404 0.386017 0.847214
Si Si4 0.000000 0.560158 0.750000
Si Si5 0.937733 0.104385 0.632369
Si Si6 0.169700 0.808243 0.957441
O O1 0.731854 0.661600 0.207631
O O2 0.445862 0.715890 0.137972
O O3 0.331224 0.023183 0.696406
O O4 0.064182 0.044904 0.580507
O O5 0.500000 0.000000 0.500000
O O6 0.241427 0.931155 0.606574
O O7 0.000000 0.414137 0.750000
O O8 0.880877 0.353981 0.920832
O O9 0.836059 0.596005 0.840875
O O10 0.000000 0.115151 0.750000
O O11 0.007051 0.156224 0.551369
O O12 0.250000 0.750000 0.000000
#
# Coordination Sequence:
#
# PCOD9291055 Si02
#       6
#     4   8   8   4   8   8
#     4  10  26  42  73 102 130 179 232 290 358 410
#     4  11  21  37  64  95 140 180 220 275 344 416
#     4  10  22  42  64 101 138 175 228 286 344 423
#     4  10  24  40  61 104 140 181 224 276 344 424
#     4  10  24  41  65 102 140 186 227 284 354 424
#     4  11  25  48  71  97 137 182 243 300 348 418
#
# _framework density 22.962689999999998
#
# number of rings (size 3 to 8) (size 9 to 14) (size 15 to 20)
#    0.000    1.600    3.000    0.000    7.000    4.000 
#    0.000    5.000    0.000    0.000    0.000    0.000 
#    0.000    0.000    0.000    0.000    0.000    0.000 
#
# Total GULP energy -111357.676401 kJ/mol
# GULP energy per Si atom -5567.883820 kJ/mol
# Density = 2.291043 g / cm^3
# Si number density = 22.962690 Si / 1000 Ang^3
#
#
#
# Elastic Constant Matrix: (Units=GPa)
#
#
# Indices 1 2 3 4 5 6 
#
# 1 72.7272 32.7285 27.1150 0.0000 -0.0121 0.0000
# 2 32.7285 111.8006 57.7018 0.0000 6.2040 0.0000
# 3 27.1150 57.7018 118.0126 0.0000 1.6274 0.0000
# 4 0.0000 0.0000 0.0000 -14.0114 0.0000 19.5274
# 5 -0.0121 6.2040 1.6274 0.0000 56.5923 0.0000
# 6 0.0000 0.0000 0.0000 19.5274 0.0000 2.3484
#
#
#
# Elastic Compliance Matrix: (Units=1/GPa)
#
#
# Indices 1 2 3 4 5 6 
#
# 1 0.016152 -0.003793 -0.001863 0.000000 0.000473 0.000000
# 2 -0.003793 0.012929 -0.005433 0.000000 -0.001262 0.000000
# 3 -0.001863 -0.005433 0.011554 0.000000 0.000263 0.000000
# 4 0.000000 0.000000 0.000000 -0.005669 0.000000 0.047142
# 5 0.000473 -0.001262 0.000263 0.000000 0.017801 0.000000
# 6 0.000000 0.000000 0.000000 0.047142 0.000000 0.033826
#
#
# Mechanical properties :
#
#
# Convention : Reuss Voigt Hill
#
# Bulk Modulus (GPa) = 54.17828 59.73677 56.95753
# Shear Modulus (GPa) = 43.50797 21.31887 32.41342
#
# Velocity S-wave (km/s) = 4.35757 3.05029 3.76116
# Velocity P-wave (km/s) = 6.99736 6.20298 6.61211
#
# Compressibility (1/GPa) = 0.01845758
#
# Stress axis : x y z
#
# Youngs Moduli (GPa) = 61.91346 77.34743 86.54765
#
# Poissons Ratio (x) = 0.29337 0.16124
# Poissons Ratio (y) = 0.23483 0.47017
# Poissons Ratio (z) = 0.11535 0.42019
#
# Static dielectric constant tensor:
#      x y z
#    x 0.903280 0.000000 -1.379160 
#    y 0.000000 1.863390 0.000000 
#    z -1.379160 0.000000 0.031260 
# 
# From -- ./inp_files/129299.got.cif
#   From: 2010.05.17/outbox.cif.g08.bks.cpg/sg15_65_cif.got.tgz:129299.got - 2010.06.03 18:47:42.
