data_PCOD9291095
_publ_section_title
;
Structure prediction by ZEFSAII (Michael W. Deem and Ramdas Pophale) SiO2 
 PCOD9291095
Probable space group: C 2/C
;
_chemical_formula_sum "Si O2"
_cell_formula_units_Z 48
_cell_length_a 13.727314
_cell_length_b 17.259240
_cell_length_c 15.931859
_cell_angle_alpha 90.000000
_cell_angle_beta 38.922058
_cell_angle_gamma 90.000000
_cell_volume 2371.455136
_symmetry_space_group_name_H-M "C 2/C"
_symmetry_group_IT_number 15
_symmetry_cell_setting 'monoclinic'
loop_
_space_group_symop_operation_xyz
x,y,z
-x,y,1/2-z
-x,-y,-z
x,-y,1/2+z
1/2+x,1/2+y,z
1/2-x,1/2+y,1/2-z
1/2-x,1/2-y,-z
1/2+x,1/2-y,1/2+z
loop_
_atom_site_type_symbol
_atom_site_label
_atom_site_fract_x
_atom_site_fract_y
_atom_site_fract_z
Si Si1 0.118345 0.066034 0.393983
Si Si2 0.132215 0.459108 0.359251
Si Si3 0.723761 0.673610 0.641403
Si Si4 0.067980 0.802833 0.062828
Si Si5 0.075253 0.163053 0.108450
Si Si6 0.571593 0.839466 0.109904
O O1 0.123995 0.126214 0.467307
O O2 0.035889 0.112629 0.374662
O O3 0.272103 0.021469 0.259650
O O4 0.000000 0.000000 0.500000
O O5 0.240257 0.413115 0.352994
O O6 0.000000 0.500000 0.500000
O O7 0.043826 0.393892 0.364199
O O8 0.874080 0.726356 0.524115
O O9 0.612779 0.703644 0.791079
O O10 0.642763 0.682402 0.604752
O O11 0.083417 0.251251 0.068164
O O12 0.000000 0.165678 0.250000
O O13 0.250911 0.132022 0.999942
O O14 0.500000 0.834936 0.250000
#
# Coordination Sequence:
#
# PCOD9291095 Si02
#       6
#     8   8   8   8   8   8
#     4  12  24  41  65  96 134 172 210 263 337 396
#     4  12  26  41  61 100 136 169 212 268 332 392
#     4  10  23  45  68  94 127 168 227 271 319 387
#     4  10  23  44  70  94 123 173 222 271 321 384
#     4  10  22  42  68  91 123 170 217 262 318 377
#     4  10  22  42  64  92 124 164 217 266 306 379
#
# _framework density 20.240736999999999
#
# number of rings (size 3 to 8) (size 9 to 14) (size 15 to 20)
#    0.000    1.333    1.667    3.000    2.333    4.000 
#    6.000    0.000    0.000    0.000    0.000    0.000 
#    0.000    0.000    0.000    0.000    0.000    0.000 
#
# Total GULP energy -133941.551401 kJ/mol
# GULP energy per Si atom -5580.897975 kJ/mol
# Density = 2.019467 g / cm^3
# Si number density = 20.240737 Si / 1000 Ang^3
#
#
#
# Elastic Constant Matrix: (Units=GPa)
#
#
# Indices 1 2 3 4 5 6 
#
# 1 54.0694 16.7453 21.6649 -0.0002 1.3305 -0.0014
# 2 16.7453 65.8780 35.1691 0.0000 11.5882 -0.0007
# 3 21.6649 35.1691 160.6951 0.0000 -11.7054 -0.0021
# 4 -0.0002 0.0000 0.0000 24.0579 0.0001 -56.8994
# 5 1.3305 11.5882 -11.7054 0.0001 30.9177 0.0016
# 6 -0.0014 -0.0007 -0.0021 -56.8994 0.0016 -69.0820
#
#
#
# Elastic Compliance Matrix: (Units=1/GPa)
#
#
# Indices 1 2 3 4 5 6 
#
# 1 0.020546 -0.004241 -0.001841 0.000000 0.000008 0.000000
# 2 -0.004241 0.020285 -0.004533 0.000000 -0.009137 0.000000
# 3 -0.001841 -0.004533 0.007808 0.000000 0.004734 0.000000
# 4 0.000000 0.000000 0.000000 0.014100 0.000001 -0.011613
# 5 0.000008 -0.009137 0.004734 0.000001 0.037561 0.000000
# 6 0.000000 0.000000 0.000000 -0.011613 0.000000 -0.004910
#
#
# Mechanical properties :
#
#
# Convention : Reuss Voigt Hill
#
# Bulk Modulus (GPa) = 36.48579 47.53346 42.00963
# Shear Modulus (GPa) = 39.75963 10.98292 25.37127
#
# Velocity S-wave (km/s) = 4.43689 2.33194 3.54429
# Velocity P-wave (km/s) = 6.65681 5.54848 6.12775
#
# Compressibility (1/GPa) = 0.02740793
#
# Stress axis : x y z
#
# Youngs Moduli (GPa) = 48.67189 49.29788 128.07059
#
# Poissons Ratio (x) = 0.20907 0.23580
# Poissons Ratio (y) = 0.20642 0.58057
# Poissons Ratio (z) = 0.08961 0.22348
#
# Static dielectric constant tensor:
#      x y z
#    x 1.804710 0.000000 -0.037000 
#    y 0.000000 1.658730 0.000000 
#    z -0.037000 0.000000 1.690520 
# 
# From -- ./inp_files/155092.got.cif
#   From: 2010.05.17/outbox.cif.g08.bks.cpg/sg15_78_cif.got.tgz:155092.got - 2010.06.03 18:47:42.
