data_PCOD9291471
_publ_section_title
;
Structure prediction by ZEFSAII (Michael W. Deem and Ramdas Pophale) SiO2 
 PCOD9291471
Probable space group: C 2/C
;
_chemical_formula_sum "Si O2"
_cell_formula_units_Z 40
_cell_length_a 19.202285
_cell_length_b 8.325760
_cell_length_c 24.480575
_cell_angle_alpha 90.000000
_cell_angle_beta 152.929702
_cell_angle_gamma 90.000000
_cell_volume 1781.104377
_symmetry_space_group_name_H-M "C 2/C"
_symmetry_group_IT_number 15
_symmetry_cell_setting 'monoclinic'
loop_
_space_group_symop_operation_xyz
x,y,z
-x,y,1/2-z
-x,-y,-z
x,-y,1/2+z
1/2+x,1/2+y,z
1/2-x,1/2+y,1/2-z
1/2-x,1/2-y,-z
1/2+x,1/2-y,1/2+z
loop_
_atom_site_type_symbol
_atom_site_label
_atom_site_fract_x
_atom_site_fract_y
_atom_site_fract_z
Si Si1 0.149978 0.364715 0.718316
Si Si2 0.861116 0.947959 0.442347
Si Si3 0.613740 0.637072 0.925847
Si Si4 0.577657 0.299389 0.860696
Si Si5 0.049535 0.681489 0.615285
O O1 0.217814 0.489326 0.809291
O O2 0.063130 0.489977 0.617893
O O3 0.291681 0.264473 0.792986
O O4 0.032818 0.245808 0.664782
O O5 0.903193 0.762703 0.482906
O O6 0.857124 0.044691 0.496397
O O7 0.000000 0.000000 0.500000
O O8 0.583090 0.492319 0.863080
O O9 0.750000 0.750000 0.000000
O O10 0.500000 0.239100 0.750000
O O11 0.478202 0.240354 0.842256
O O12 0.750000 0.250000 0.000000
#
# Coordination Sequence:
#
# PCOD9291471 Si02
#       5
#     8   8   8   8   8
#     4  11  22  44  71  97 140 183 234 303 356 436
#     4   9  21  41  64  96 134 178 229 291 353 430
#     4  11  25  44  68 103 137 186 244 297 367 437
#     4  11  26  46  71 106 146 188 240 298 369 442
#     4  10  22  42  68 100 135 185 236 283 367 427
#
# _framework density 22.457977
#
# number of rings (size 3 to 8) (size 9 to 14) (size 15 to 20)
#    0.000    1.600    0.000    4.800    8.400    0.000 
#    0.000    5.000    0.000    0.000    0.000    0.000 
#    0.000    0.000    0.000    0.000    0.000    0.000 
#
# Total GULP energy -111635.147171 kJ/mol
# GULP energy per Si atom -5581.757359 kJ/mol
# Density = 2.240686 g / cm^3
# Si number density = 22.457977 Si / 1000 Ang^3
#
#
#
# Elastic Constant Matrix: (Units=GPa)
#
#
# Indices 1 2 3 4 5 6 
#
# 1 114.0065 22.6162 51.1127 -0.0003 20.4588 -0.0001
# 2 22.6162 124.8648 44.2792 -0.0003 30.1098 0.0003
# 3 51.1127 44.2792 107.8291 -0.0003 20.2681 0.0004
# 4 -0.0003 -0.0003 -0.0003 16.4735 0.0003 1.1135
# 5 20.4588 30.1098 20.2681 0.0003 41.9519 0.0002
# 6 -0.0001 0.0003 0.0004 1.1135 0.0002 27.3210
#
#
#
# Elastic Compliance Matrix: (Units=1/GPa)
#
#
# Indices 1 2 3 4 5 6 
#
# 1 0.011565 0.000561 -0.005034 0.000000 -0.003611 0.000000
# 2 0.000561 0.010639 -0.003462 0.000000 -0.006236 0.000000
# 3 -0.005034 -0.003462 0.013367 0.000000 -0.001518 0.000000
# 4 0.000000 0.000000 0.000000 0.060871 -0.000001 -0.002481
# 5 -0.003611 -0.006236 -0.001518 -0.000001 0.030807 0.000000
# 6 0.000000 0.000000 0.000000 -0.002481 0.000000 0.036703
#
#
# Mechanical properties :
#
#
# Convention : Reuss Voigt Hill
#
# Bulk Modulus (GPa) = 50.75976 64.74627 57.75301
# Shear Modulus (GPa) = 26.82562 32.39545 29.61054
#
# Velocity S-wave (km/s) = 3.45988 3.80214 3.63504
# Velocity P-wave (km/s) = 6.21387 6.94028 6.58710
#
# Compressibility (1/GPa) = 0.01970065
#
# Stress axis : x y z
#
# Youngs Moduli (GPa) = 86.46937 93.99613 74.81052
#
# Poissons Ratio (x) = -0.05273 0.37656
# Poissons Ratio (y) = -0.04851 0.25902
# Poissons Ratio (z) = 0.43525 0.32545
#
# Static dielectric constant tensor:
#      x y z
#    x 1.833570 0.000000 -0.068110 
#    y 0.000000 1.889530 0.000000 
#    z -0.068110 0.000000 1.905240 
# 
# From -- ./inp_files/109793.got.cif
#   From: 2010.05.17/outbox.cif.g08.bks.cpg/sg15_55_cif.got.tgz:109793.got - 2010.06.03 18:47:42.
