data_PCOD9291267
_publ_section_title
;
Structure prediction by ZEFSAII (Michael W. Deem and Ramdas Pophale) SiO2 
 PCOD9291267
Probable space group: C 2/C
;
_chemical_formula_sum "Si O2"
_cell_formula_units_Z 56
_cell_length_a 11.663457
_cell_length_b 8.995364
_cell_length_c 25.316994
_cell_angle_alpha 90.000000
_cell_angle_beta 73.242365
_cell_angle_gamma 90.000000
_cell_volume 2543.383796
_symmetry_space_group_name_H-M "C 2/C"
_symmetry_group_IT_number 15
_symmetry_cell_setting 'monoclinic'
loop_
_space_group_symop_operation_xyz
x,y,z
-x,y,1/2-z
-x,-y,-z
x,-y,1/2+z
1/2+x,1/2+y,z
1/2-x,1/2+y,1/2-z
1/2-x,1/2-y,-z
1/2+x,1/2-y,1/2+z
loop_
_atom_site_type_symbol
_atom_site_label
_atom_site_fract_x
_atom_site_fract_y
_atom_site_fract_z
Si Si1 0.575255 0.092826 0.811679
Si Si2 0.500000 0.339820 0.750000
Si Si3 0.477286 0.226579 0.583412
Si Si4 0.247646 0.366961 0.048195
Si Si5 0.626703 0.331915 0.009419
Si Si6 0.070997 0.077677 0.886665
Si Si7 0.000000 0.654172 0.250000
Si Si8 0.337246 0.596782 0.743310
O O1 0.501450 0.233986 0.800408
O O2 0.606159 0.123662 0.868328
O O3 0.696039 0.093588 0.761367
O O4 0.508142 0.946801 0.801090
O O5 0.386555 0.447956 0.763802
O O6 0.604620 0.143982 0.577012
O O7 0.447496 0.242257 0.525461
O O8 0.453839 0.399401 0.603396
O O9 0.318003 0.353964 0.094284
O O10 0.250000 0.250000 0.000000
O O11 0.326308 0.506394 0.015722
O O12 0.546256 0.348097 0.071987
O O13 0.750000 0.250000 0.000000
O O14 0.100983 0.103946 0.821984
O O15 0.885396 0.760376 0.267757
#
# Coordination Sequence:
#
# PCOD9291267 Si02
#       8
#     8   4   8   8   8   8   4   8
#     4  11  24  43  67  98 135 179 234 275 340 412
#     4  10  22  42  66  90 130 186 226 270 342 404
#     4  11  23  44  71  99 133 186 228 276 340 413
#     4  11  21  43  70  92 135 182 228 272 328 410
#     4  11  25  44  67 105 143 169 225 288 344 405
#     4  11  23  42  70 100 133 184 227 276 345 411
#     4  10  26  42  62 100 138 170 232 288 332 404
#     4  11  24  43  67  97 139 177 226 286 345 402
#
# _framework density 22.017913
#
# number of rings (size 3 to 8) (size 9 to 14) (size 15 to 20)
#    0.000    1.143    4.286    1.714    4.000    5.143 
#    2.571    0.000    0.000    0.000    0.000    0.000 
#    0.000    0.000    0.000    0.000    0.000    0.000 
#
# Total GULP energy -156094.850714 kJ/mol
# GULP energy per Si atom -5574.816097 kJ/mol
# Density = 2.196780 g / cm^3
# Si number density = 22.017913 Si / 1000 Ang^3
#
#
#
# Elastic Constant Matrix: (Units=GPa)
#
#
# Indices 1 2 3 4 5 6 
#
# 1 120.4784 29.2903 32.9328 0.0000 -6.8781 0.0000
# 2 29.2903 59.3479 10.5286 0.0000 1.8452 0.0000
# 3 32.9328 10.5286 92.2614 0.0000 -21.2304 0.0000
# 4 0.0000 0.0000 0.0000 21.3410 0.0000 2.6333
# 5 -6.8781 1.8452 -21.2304 0.0000 22.3650 0.0000
# 6 0.0000 0.0000 0.0000 2.6333 0.0000 29.1049
#
#
#
# Elastic Compliance Matrix: (Units=1/GPa)
#
#
# Indices 1 2 3 4 5 6 
#
# 1 0.010264 -0.004558 -0.002982 0.000000 0.000702 0.000000
# 2 -0.004558 0.019536 -0.001658 0.000000 -0.004588 0.000000
# 3 -0.002982 -0.001658 0.015242 0.000000 0.013689 0.000000
# 4 0.000000 0.000000 0.000000 0.047387 0.000000 -0.004287
# 5 0.000702 -0.004588 0.013689 0.000000 0.058302 0.000000
# 6 0.000000 0.000000 0.000000 -0.004287 0.000000 0.034746
#
#
# Mechanical properties :
#
#
# Convention : Reuss Voigt Hill
#
# Bulk Modulus (GPa) = 37.52934 46.39902 41.96418
# Shear Modulus (GPa) = 23.50115 27.85124 25.67619
#
# Velocity S-wave (km/s) = 3.27060 3.56045 3.41860
# Velocity P-wave (km/s) = 5.59860 6.16616 5.88922
#
# Compressibility (1/GPa) = 0.02664582
#
# Stress axis : x y z
#
# Youngs Moduli (GPa) = 97.43158 51.18693 65.60676
#
# Poissons Ratio (x) = 0.23332 0.19563
# Poissons Ratio (y) = 0.44412 0.10878
# Poissons Ratio (z) = 0.29053 0.08487
#
# Static dielectric constant tensor:
#      x y z
#    x 1.816940 0.000000 -0.008300 
#    y 0.000000 1.773940 0.000000 
#    z -0.008300 0.000000 1.847020 
# 
# From -- ./inp_files/291544.got.cif
#   From: 2010.05.17/outbox.cif.g08.bks.cpg/sg15_146_cif.got.tgz:291544.got - 2010.06.03 18:47:42.
