data_PCOD9291823
_publ_section_title
;
Structure prediction by ZEFSAII (Michael W. Deem and Ramdas Pophale) SiO2 
 PCOD9291823
Probable space group: C 2/C
;
_chemical_formula_sum "Si O2"
_cell_formula_units_Z 60
_cell_length_a 23.695472
_cell_length_b 14.551055
_cell_length_c 9.894712
_cell_angle_alpha 90.000000
_cell_angle_beta 67.342773
_cell_angle_gamma 90.000000
_cell_volume 3148.348428
_symmetry_space_group_name_H-M "C 2/C"
_symmetry_group_IT_number 15
_symmetry_cell_setting 'monoclinic'
loop_
_space_group_symop_operation_xyz
x,y,z
-x,y,1/2-z
-x,-y,-z
x,-y,1/2+z
1/2+x,1/2+y,z
1/2-x,1/2+y,1/2-z
1/2-x,1/2-y,-z
1/2+x,1/2-y,1/2+z
loop_
_atom_site_type_symbol
_atom_site_label
_atom_site_fract_x
_atom_site_fract_y
_atom_site_fract_z
Si Si1 0.415359 0.679631 0.114299
Si Si2 0.718921 0.935091 0.129359
Si Si3 0.194165 0.707234 0.881460
Si Si4 0.500000 0.222962 0.750000
Si Si5 0.372700 0.177912 0.977187
Si Si6 0.543546 0.522815 0.583314
Si Si7 0.352899 0.390939 0.916585
Si Si8 0.802538 0.350040 0.811293
O O1 0.370288 0.762153 0.121119
O O2 0.470337 0.714445 0.158849
O O3 0.376705 0.608191 0.241057
O O4 0.434323 0.626413 0.962897
O O5 0.718232 0.877162 0.269389
O O6 0.708487 0.041439 0.169667
O O7 0.668904 0.889624 0.075259
O O8 0.784451 0.923664 0.998658
O O9 0.242783 0.790794 0.822777
O O10 0.185222 0.683701 0.047005
O O11 0.556300 0.167881 0.631247
O O12 0.354749 0.165684 0.150411
O O13 0.357005 0.284015 0.955390
O O14 0.500000 0.514164 0.750000
O O15 0.500000 0.500000 0.500000
O O16 0.600187 0.453700 0.543652
#
# Coordination Sequence:
#
# PCOD9291823 Si02
#       8
#     8   8   8   4   8   8   8   8
#     4  11  22  41  65  92 133 172 218 266 326 390
#     4  12  22  43  71  95 127 179 218 271 332 396
#     4  11  23  43  63  99 140 168 211 278 333 392
#     4  10  22  42  72  90 122 184 226 268 324 392
#     4  11  22  43  68  89 127 173 223 264 326 395
#     4  12  24  40  61  97 135 169 217 264 320 405
#     4  11  22  38  66  94 128 173 215 255 324 401
#     4  11  25  40  64 101 136 164 215 279 335 386
#
# _framework density 19.057611000000001
#
# number of rings (size 3 to 8) (size 9 to 14) (size 15 to 20)
#    0.000    0.800    5.333    4.400    0.933    3.200 
#    0.000    0.667    0.000    0.000    0.000    0.000 
#    0.000    0.000    0.000    0.000    0.000    0.000 
#
# Total GULP energy -167601.018652 kJ/mol
# GULP energy per Si atom -5586.700622 kJ/mol
# Density = 1.901423 g / cm^3
# Si number density = 19.057611 Si / 1000 Ang^3
#
#
#
# Elastic Constant Matrix: (Units=GPa)
#
#
# Indices 1 2 3 4 5 6 
#
# 1 107.4999 54.0668 55.1685 0.0000 -19.3155 0.0000
# 2 54.0668 109.2229 34.1580 0.0000 -6.9270 0.0000
# 3 55.1685 34.1580 122.0382 0.0000 -13.4633 0.0000
# 4 0.0000 0.0000 0.0000 29.7051 0.0000 3.2588
# 5 -19.3155 -6.9270 -13.4633 0.0000 36.3745 0.0000
# 6 0.0000 0.0000 0.0000 3.2588 0.0000 28.1533
#
#
#
# Elastic Compliance Matrix: (Units=1/GPa)
#
#
# Indices 1 2 3 4 5 6 
#
# 1 0.015761 -0.005936 -0.004863 0.000000 0.005439 0.000000
# 2 -0.005936 0.012298 -0.000884 0.000000 -0.001137 0.000000
# 3 -0.004863 -0.000884 0.010777 0.000000 0.001238 0.000000
# 4 0.000000 0.000000 0.000000 0.034097 0.000000 -0.003947
# 5 0.005439 -0.001137 0.001238 0.000000 0.030621 0.000000
# 6 0.000000 0.000000 0.000000 -0.003947 0.000000 0.035977
#
#
# Mechanical properties :
#
#
# Convention : Reuss Voigt Hill
#
# Bulk Modulus (GPa) = 64.64671 69.50529 67.07600
# Shear Modulus (GPa) = 29.75214 31.87111 30.81162
#
# Velocity S-wave (km/s) = 3.95545 4.09388 4.02526
# Velocity P-wave (km/s) = 7.40649 7.67443 7.54165
#
# Compressibility (1/GPa) = 0.01546869
#
# Stress axis : x y z
#
# Youngs Moduli (GPa) = 63.44791 81.31134 92.79205
#
# Poissons Ratio (x) = 0.48266 0.45129
# Poissons Ratio (y) = 0.37663 0.08206
# Poissons Ratio (z) = 0.30857 0.07191
#
# Static dielectric constant tensor:
#      x y z
#    x 1.662700 0.000000 -0.006800 
#    y 0.000000 1.671580 0.000000 
#    z -0.006800 0.000000 1.694420 
# 
# From -- ./inp_files/61899.got.cif
#   From: 2010.05.17/outbox.cif.g08.bks.cpg/sg15_31_cif.got.tgz:61899.got - 2010.06.03 18:47:42.
