data_PCOD9291265
_publ_section_title
;
Structure prediction by ZEFSAII (Michael W. Deem and Ramdas Pophale) SiO2 
 PCOD9291265
Probable space group: C 2/C
;
_chemical_formula_sum "Si O2"
_cell_formula_units_Z 56
_cell_length_a 23.760885
_cell_length_b 18.457370
_cell_length_c 9.102945
_cell_angle_alpha 90.000000
_cell_angle_beta 134.139090
_cell_angle_gamma 90.000000
_cell_volume 2865.021282
_symmetry_space_group_name_H-M "C 2/C"
_symmetry_group_IT_number 15
_symmetry_cell_setting 'monoclinic'
loop_
_space_group_symop_operation_xyz
x,y,z
-x,y,1/2-z
-x,-y,-z
x,-y,1/2+z
1/2+x,1/2+y,z
1/2-x,1/2+y,1/2-z
1/2-x,1/2-y,-z
1/2+x,1/2-y,1/2+z
loop_
_atom_site_type_symbol
_atom_site_label
_atom_site_fract_x
_atom_site_fract_y
_atom_site_fract_z
Si Si1 0.475305 0.428865 0.872207
Si Si2 0.674208 0.803951 0.877779
Si Si3 0.923939 0.581398 0.802133
Si Si4 0.935920 0.214075 0.021487
Si Si5 0.609870 0.061744 0.099004
Si Si6 0.830150 0.839684 0.596424
Si Si7 0.661301 0.801950 0.200599
O O1 0.500000 0.442718 0.750000
O O2 0.522985 0.353900 0.985249
O O3 0.383992 0.408897 0.728085
O O4 0.500000 0.500000 0.000000
O O5 0.602866 0.764952 0.665902
O O6 0.669698 0.883198 0.790471
O O7 0.750000 0.750000 0.000000
O O8 0.658425 0.809639 0.021599
O O9 0.888627 0.572158 0.574198
O O10 0.883167 0.520706 0.831519
O O11 0.908364 0.659041 0.843177
O O12 0.017989 0.574930 0.970209
O O13 0.868537 0.188910 0.013374
O O14 0.000000 0.246860 0.250000
O O15 0.738669 0.843949 0.398631
O O16 0.836542 0.780289 0.737383
#
# Coordination Sequence:
#
# PCOD9291265 Si02
#       7
#     8   8   8   8   8   8   8
#     4   9  20  39  63  86 118 160 207 253 301 368
#     4  12  24  38  62  95 128 160 209 259 309 380
#     4  10  22  42  66  90 122 165 208 255 320 369
#     4   9  20  40  63  84 121 165 204 252 312 365
#     4  10  23  41  64  90 124 162 208 260 308 381
#     4   9  20  39  58  88 121 163 203 253 313 361
#     4  11  22  37  62  90 129 159 206 257 312 375
#
# _framework density 19.546102999999999
#
# number of rings (size 3 to 8) (size 9 to 14) (size 15 to 20)
#    0.000    2.286    1.429    1.714    8.000    2.857 
#    2.571    1.429    0.000    0.000    0.000    0.000 
#    0.000    0.000    0.000    0.000    0.000    0.000 
#
# Total GULP energy -156039.605973 kJ/mol
# GULP energy per Si atom -5572.843070 kJ/mol
# Density = 1.950162 g / cm^3
# Si number density = 19.546103 Si / 1000 Ang^3
#
#
#
# Elastic Constant Matrix: (Units=GPa)
#
#
# Indices 1 2 3 4 5 6 
#
# 1 46.8053 8.6469 14.3480 0.0000 1.0241 0.0000
# 2 8.6469 67.0130 57.5488 0.0000 -2.7156 0.0000
# 3 14.3480 57.5488 84.0543 0.0000 0.3926 0.0000
# 4 0.0000 0.0000 0.0000 43.8809 0.0000 -0.1378
# 5 1.0241 -2.7156 0.3926 0.0000 22.6406 0.0000
# 6 0.0000 0.0000 0.0000 -0.1378 0.0000 23.7413
#
#
#
# Elastic Compliance Matrix: (Units=1/GPa)
#
#
# Indices 1 2 3 4 5 6 
#
# 1 0.022586 0.000872 -0.004448 0.000000 -0.000840 0.000000
# 2 0.000872 0.036774 -0.025349 0.000000 0.004811 0.000000
# 3 -0.004448 -0.025349 0.030028 0.000000 -0.003360 0.000000
# 4 0.000000 0.000000 0.000000 0.022789 0.000000 0.000132
# 5 -0.000840 0.004811 -0.003360 0.000000 0.044842 0.000000
# 6 0.000000 0.000000 0.000000 0.000132 0.000000 0.042121
#
#
# Mechanical properties :
#
#
# Convention : Reuss Voigt Hill
#
# Bulk Modulus (GPa) = 31.70942 39.88444 35.79693
# Shear Modulus (GPa) = 18.69134 25.87446 22.28290
#
# Velocity S-wave (km/s) = 3.09572 3.64231 3.38008
# Velocity P-wave (km/s) = 5.38851 6.17561 5.79544
#
# Compressibility (1/GPa) = 0.03153637
#
# Stress axis : x y z
#
# Youngs Moduli (GPa) = 44.27505 27.19319 33.30275
#
# Poissons Ratio (x) = -0.02370 0.14814
# Poissons Ratio (y) = -0.03860 0.84419
# Poissons Ratio (z) = 0.19695 0.68932
#
# Static dielectric constant tensor:
#      x y z
#    x 1.701680 0.000000 0.036360 
#    y 0.000000 1.589480 0.000000 
#    z 0.036360 0.000000 1.689310 
# 
# From -- ./inp_files/57903.got.cif
#   From: 2010.05.17/outbox.cif.g08.bks.cpg/sg15_29_cif.got.tgz:57903.got - 2010.06.03 18:47:42.
