data_PCOD9291775
_publ_section_title
;
Structure prediction by ZEFSAII (Michael W. Deem and Ramdas Pophale) SiO2 
 PCOD9291775
Probable space group: C 2/C
;
_chemical_formula_sum "Si O2"
_cell_formula_units_Z 36
_cell_length_a 14.764572
_cell_length_b 14.600388
_cell_length_c 12.458667
_cell_angle_alpha 90.000000
_cell_angle_beta 144.941520
_cell_angle_gamma 90.000000
_cell_volume 1542.696548
_symmetry_space_group_name_H-M "C 2/C"
_symmetry_group_IT_number 15
_symmetry_cell_setting 'monoclinic'
loop_
_space_group_symop_operation_xyz
x,y,z
-x,y,1/2-z
-x,-y,-z
x,-y,1/2+z
1/2+x,1/2+y,z
1/2-x,1/2+y,1/2-z
1/2-x,1/2-y,-z
1/2+x,1/2-y,1/2+z
loop_
_atom_site_type_symbol
_atom_site_label
_atom_site_fract_x
_atom_site_fract_y
_atom_site_fract_z
Si Si1 0.500000 0.542345 0.250000
Si Si2 0.054533 0.857403 0.195027
Si Si3 0.428948 0.299465 0.845893
Si Si4 0.589335 0.921662 0.945311
Si Si5 0.915727 0.624531 0.496224
O O1 0.476829 0.458383 0.137320
O O2 0.495439 0.621835 0.153047
O O3 0.242208 0.873208 0.378099
O O4 0.000000 0.805831 0.250000
O O5 0.995655 0.810167 0.030841
O O6 0.245085 0.320378 0.668711
O O7 0.459955 0.196472 0.836183
O O8 0.500000 0.898949 0.750000
O O9 0.480312 0.903236 0.942065
O O10 0.620193 0.031765 0.974082
#
# Coordination Sequence:
#
# PCOD9291775 Si02
#       5
#     4   8   8   8   8
#     4  10  24  38  74  94 130 178 208 278 316 396
#     4  10  22  42  71  95 129 174 214 270 324 393
#     4  12  24  45  65 103 132 171 227 261 335 381
#     4  11  24  44  67  98 132 174 219 267 334 385
#     4  11  26  41  67  97 135 173 213 282 312 397
#
# _framework density 23.335764000000001
#
# number of rings (size 3 to 8) (size 9 to 14) (size 15 to 20)
#    0.667    0.444    2.222    3.333    1.556    5.333 
#    0.000    4.444    0.000    0.000    0.000    0.000 
#    0.000    0.000    0.000    0.000    0.000    0.000 
#
# Total GULP energy -100222.736990 kJ/mol
# GULP energy per Si atom -5567.929833 kJ/mol
# Density = 2.328265 g / cm^3
# Si number density = 23.335764 Si / 1000 Ang^3
#
#
#
# Elastic Constant Matrix: (Units=GPa)
#
#
# Indices 1 2 3 4 5 6 
#
# 1 81.7553 6.1308 14.0904 0.0000 -2.2329 0.0000
# 2 6.1308 110.7384 8.7023 0.0000 9.3155 0.0000
# 3 14.0904 8.7023 64.0150 0.0000 10.6324 0.0000
# 4 0.0000 0.0000 0.0000 -4.4158 0.0000 42.6154
# 5 -2.2329 9.3155 10.6324 0.0000 48.1229 0.0000
# 6 0.0000 0.0000 0.0000 42.6154 0.0000 -44.1601
#
#
#
# Elastic Compliance Matrix: (Units=1/GPa)
#
#
# Indices 1 2 3 4 5 6 
#
# 1 0.012825 -0.000592 -0.002969 0.000000 0.001366 0.000000
# 2 -0.000592 0.009268 -0.000859 0.000000 -0.001632 0.000000
# 3 -0.002969 -0.000859 0.017011 0.000000 -0.003730 0.000000
# 4 0.000000 0.000000 0.000000 0.027241 0.000000 0.026288
# 5 0.001366 -0.001632 -0.003730 0.000000 0.021983 0.000000
# 6 0.000000 0.000000 0.000000 0.026288 0.000000 0.002724
#
#
# Mechanical properties :
#
#
# Convention : Reuss Voigt Hill
#
# Bulk Modulus (GPa) = 33.04155 34.92841 33.98498
# Shear Modulus (GPa) = 45.46275 15.08177 30.27226
#
# Velocity S-wave (km/s) = 4.41863 2.54499 3.60564
# Velocity P-wave (km/s) = 6.34211 4.86171 5.65060
#
# Compressibility (1/GPa) = 0.03026492
#
# Stress axis : x y z
#
# Youngs Moduli (GPa) = 77.97251 107.90065 58.78493
#
# Poissons Ratio (x) = 0.06383 0.17455
# Poissons Ratio (y) = 0.04613 0.05047
# Poissons Ratio (z) = 0.23153 0.09265
#
# Static dielectric constant tensor:
#      x y z
#    x 1.959660 0.000000 -0.008060 
#    y 0.000000 1.889350 0.000000 
#    z -0.008060 0.000000 1.861230 
# 
# From -- ./inp_files/96786.got.cif
#   From: 2010.05.17/outbox.cif.g08.bks.cpg/sg15_49_cif.got.tgz:96786.got - 2010.06.03 18:47:42.
