data_PCOD9291282
_publ_section_title
;
Structure prediction by ZEFSAII (Michael W. Deem and Ramdas Pophale) SiO2 
 PCOD9291282
Probable space group: C 2/C
;
_chemical_formula_sum "Si O2"
_cell_formula_units_Z 36
_cell_length_a 25.081637
_cell_length_b 15.657038
_cell_length_c 10.556011
_cell_angle_alpha 90.000000
_cell_angle_beta 159.368782
_cell_angle_gamma 90.000000
_cell_volume 1460.634599
_symmetry_space_group_name_H-M "C 2/C"
_symmetry_group_IT_number 15
_symmetry_cell_setting 'monoclinic'
loop_
_space_group_symop_operation_xyz
x,y,z
-x,y,1/2-z
-x,-y,-z
x,-y,1/2+z
1/2+x,1/2+y,z
1/2-x,1/2+y,1/2-z
1/2-x,1/2-y,-z
1/2+x,1/2-y,1/2+z
loop_
_atom_site_type_symbol
_atom_site_label
_atom_site_fract_x
_atom_site_fract_y
_atom_site_fract_z
Si Si1 0.096731 0.213272 0.219267
Si Si2 0.916830 0.931500 0.219136
Si Si3 0.725512 0.415928 0.197642
Si Si4 0.000000 0.502737 0.750000
Si Si5 0.614609 0.129022 0.186559
O O1 0.250000 0.250000 0.500000
O O2 0.131818 0.157997 0.423627
O O3 0.029735 0.147539 0.966883
O O4 0.972277 0.282474 0.985067
O O5 0.760654 0.885633 0.920351
O O6 0.000000 0.000000 0.500000
O O7 0.860822 0.994172 0.983901
O O8 0.809298 0.392730 0.511177
O O9 0.862082 0.441311 0.408221
O O10 0.009339 0.564955 0.649723
#
# Coordination Sequence:
#
# PCOD9291282 Si02
#       5
#     8   8   8   4   8
#     4  11  24  42  65  98 133 166 212 270 324 378
#     4   9  22  43  66  93 126 168 215 260 317 385
#     4  10  22  42  66  92 128 172 216 259 320 391
#     4  10  22  42  66  96 126 168 218 268 322 382
#     4  11  23  42  68  95 128 169 216 270 323 382
#
# _framework density 24.646820000000002
#
# number of rings (size 3 to 8) (size 9 to 14) (size 15 to 20)
#    0.000    1.778    0.000    2.667    0.000   12.444 
#    0.000    8.889    0.000    0.000    0.000    0.000 
#    0.000    0.000    0.000    0.000    0.000    0.000 
#
# Total GULP energy -100465.169468 kJ/mol
# GULP energy per Si atom -5581.398304 kJ/mol
# Density = 2.459072 g / cm^3
# Si number density = 24.646820 Si / 1000 Ang^3
#
#
#
# Elastic Constant Matrix: (Units=GPa)
#
#
# Indices 1 2 3 4 5 6 
#
# 1 64.2097 64.2480 46.3986 0.0000 -5.5729 0.0000
# 2 64.2480 194.1884 118.1325 0.0000 2.0647 0.0000
# 3 46.3986 118.1325 173.7764 0.0000 -5.0692 0.0000
# 4 0.0000 0.0000 0.0000 81.2507 0.0000 3.0082
# 5 -5.5729 2.0647 -5.0692 0.0000 65.1766 0.0000
# 6 0.0000 0.0000 0.0000 3.0082 0.0000 14.7980
#
#
#
# Elastic Compliance Matrix: (Units=1/GPa)
#
#
# Indices 1 2 3 4 5 6 
#
# 1 0.023862 -0.006956 -0.001580 0.000000 0.002138 0.000000
# 2 -0.006956 0.010845 -0.005555 0.000000 -0.001370 0.000000
# 3 -0.001580 -0.005555 0.009976 0.000000 0.000817 0.000000
# 4 0.000000 0.000000 0.000000 0.012401 0.000000 -0.002521
# 5 0.002138 -0.001370 0.000817 0.000000 0.015633 0.000000
# 6 0.000000 0.000000 0.000000 -0.002521 0.000000 0.068089
#
#
# Mechanical properties :
#
#
# Convention : Reuss Voigt Hill
#
# Bulk Modulus (GPa) = 60.60350 98.85917 79.73134
# Shear Modulus (GPa) = 28.65514 45.80474 37.22994
#
# Velocity S-wave (km/s) = 3.41344 4.31564 3.89078
# Velocity P-wave (km/s) = 6.33858 8.06415 7.25286
#
# Compressibility (1/GPa) = 0.01650070
#
# Stress axis : x y z
#
# Youngs Moduli (GPa) = 41.90825 92.20716 100.23568
#
# Poissons Ratio (x) = 0.64143 0.15835
# Poissons Ratio (y) = 0.29153 0.55682
# Poissons Ratio (z) = 0.06621 0.51222
#
# Static dielectric constant tensor:
#      x y z
#    x 2.305030 0.000000 0.157660 
#    y 0.000000 1.982130 0.000000 
#    z 0.157660 0.000000 2.022330 
# 
# From -- ./inp_files/126951.got.cif
#   From: 2010.05.17/outbox.cif.g08.bks.cpg/sg15_64_cif.got.tgz:126951.got - 2010.06.03 18:47:42.
