data_PCOD9291905
_publ_section_title
;
Structure prediction by ZEFSAII (Michael W. Deem and Ramdas Pophale) SiO2 
 PCOD9291905
Probable space group: C 2/C
;
_chemical_formula_sum "Si O2"
_cell_formula_units_Z 60
_cell_length_a 6.655925
_cell_length_b 22.696508
_cell_length_c 21.737630
_cell_angle_alpha 90.000000
_cell_angle_beta 103.101556
_cell_angle_gamma 90.000000
_cell_volume 3198.343843
_symmetry_space_group_name_H-M "C 2/C"
_symmetry_group_IT_number 15
_symmetry_cell_setting 'monoclinic'
loop_
_space_group_symop_operation_xyz
x,y,z
-x,y,1/2-z
-x,-y,-z
x,-y,1/2+z
1/2+x,1/2+y,z
1/2-x,1/2+y,1/2-z
1/2-x,1/2-y,-z
1/2+x,1/2-y,1/2+z
loop_
_atom_site_type_symbol
_atom_site_label
_atom_site_fract_x
_atom_site_fract_y
_atom_site_fract_z
Si Si1 0.641300 0.916479 0.533399
Si Si2 0.000000 0.695805 0.250000
Si Si3 0.198231 0.453551 0.080419
Si Si4 0.093590 0.900296 0.068796
Si Si5 0.502943 0.894993 0.319199
Si Si6 0.190003 0.684759 0.137797
Si Si7 0.355215 0.277405 0.066507
Si Si8 0.604162 0.238234 0.668950
O O1 0.431717 0.914877 0.478306
O O2 0.814955 0.912416 0.492305
O O3 0.680202 0.865784 0.585705
O O4 0.631440 0.979065 0.567237
O O5 0.091670 0.663393 0.196074
O O6 0.194103 0.735337 0.284354
O O7 0.435420 0.449927 0.078868
O O8 0.151903 0.427659 0.144476
O O9 0.278591 0.897975 0.130640
O O10 0.962940 0.839940 0.062229
O O11 0.500000 0.920161 0.250000
O O12 0.449993 0.826003 0.310014
O O13 0.414982 0.715494 0.160057
O O14 0.037454 0.735813 0.103820
O O15 0.175183 0.276006 0.104604
O O16 0.250000 0.250000 0.000000
#
# Coordination Sequence:
#
# PCOD9291905 Si02
#       8
#     8   4   8   8   8   8   8   8
#     4  10  23  40  66  86 122 163 195 252 298 361
#     4  10  24  40  60  88 120 168 202 240 300 366
#     4  10  22  43  60  91 121 156 209 242 303 358
#     4  11  21  38  61  93 119 155 201 247 306 354
#     4  11  23  37  62  90 120 160 199 255 298 356
#     4  11  22  39  60  90 124 160 198 244 302 357
#     4  11  22  33  58  95 124 154 192 248 302 358
#     4  11  22  38  59  89 125 156 199 246 306 360
#
# _framework density 18.759708
#
# number of rings (size 3 to 8) (size 9 to 14) (size 15 to 20)
#    0.000    1.333    2.667    3.200    3.733    2.667 
#    1.200    0.000    2.933    0.000    0.000    0.000 
#    0.000    0.000    0.000    0.000    0.000    0.000 
#
# Total GULP energy -167405.037282 kJ/mol
# GULP energy per Si atom -5580.167909 kJ/mol
# Density = 1.871701 g / cm^3
# Si number density = 18.759708 Si / 1000 Ang^3
#
#
#
# Elastic Constant Matrix: (Units=GPa)
#
#
# Indices 1 2 3 4 5 6 
#
# 1 105.2436 17.7272 43.6699 0.0000 -14.8262 0.0000
# 2 17.7272 57.5286 35.5716 0.0000 -8.6707 0.0000
# 3 43.6699 35.5716 141.8416 0.0000 -24.3760 0.0000
# 4 0.0000 0.0000 0.0000 7.8204 0.0000 0.3335
# 5 -14.8262 -8.6707 -24.3760 0.0000 17.8771 0.0000
# 6 0.0000 0.0000 0.0000 0.3335 0.0000 5.4863
#
#
#
# Elastic Compliance Matrix: (Units=1/GPa)
#
#
# Indices 1 2 3 4 5 6 
#
# 1 0.011458 -0.001287 -0.002193 0.000000 0.005888 0.000000
# 2 -0.001287 0.020922 -0.004297 0.000000 0.003221 0.000000
# 3 -0.002193 -0.004297 0.010621 0.000000 0.010579 0.000000
# 4 0.000000 0.000000 0.000000 0.128203 0.000000 -0.007793
# 5 0.005888 0.003221 0.010579 0.000000 0.076808 0.000000
# 6 0.000000 0.000000 0.000000 -0.007793 0.000000 0.182745
#
#
# Mechanical properties :
#
#
# Convention : Reuss Voigt Hill
#
# Bulk Modulus (GPa) = 36.43501 55.39457 45.91479
# Shear Modulus (GPa) = 10.97793 20.07978 15.52886
#
# Velocity S-wave (km/s) = 2.42169 3.27520 2.88023
# Velocity P-wave (km/s) = 5.22337 6.62534 5.96568
#
# Compressibility (1/GPa) = 0.02744613
#
# Stress axis : x y z
#
# Youngs Moduli (GPa) = 87.27506 47.79721 94.15326
#
# Poissons Ratio (x) = 0.06153 0.20647
# Poissons Ratio (y) = 0.11235 0.40458
# Poissons Ratio (z) = 0.19139 0.20539
#
# Static dielectric constant tensor:
#      x y z
#    x 1.645970 0.000000 -0.071550 
#    y 0.000000 1.647910 0.000000 
#    z -0.071550 0.000000 1.555010 
# 
# From -- ./inp_files/228129.got.cif
#   From: 2010.05.17/outbox.cif.g08.bks.cpg/sg15_115_cif.got.tgz:228129.got - 2010.06.03 18:47:42.
