data_PCOD9291853
_publ_section_title
;
Structure prediction by ZEFSAII (Michael W. Deem and Ramdas Pophale) SiO2 
 PCOD9291853
Probable space group: C 2/C
;
_chemical_formula_sum "Si O2"
_cell_formula_units_Z 52
_cell_length_a 20.951788
_cell_length_b 8.695717
_cell_length_c 18.264412
_cell_angle_alpha 90.000000
_cell_angle_beta 43.559556
_cell_angle_gamma 90.000000
_cell_volume 2293.082061
_symmetry_space_group_name_H-M "C 2/C"
_symmetry_group_IT_number 15
_symmetry_cell_setting 'monoclinic'
loop_
_space_group_symop_operation_xyz
x,y,z
-x,y,1/2-z
-x,-y,-z
x,-y,1/2+z
1/2+x,1/2+y,z
1/2-x,1/2+y,1/2-z
1/2-x,1/2-y,-z
1/2+x,1/2-y,1/2+z
loop_
_atom_site_type_symbol
_atom_site_label
_atom_site_fract_x
_atom_site_fract_y
_atom_site_fract_z
Si Si1 0.147550 0.314038 0.163562
Si Si2 0.041310 0.781937 0.613240
Si Si3 0.061434 0.903939 0.331559
Si Si4 0.748316 0.943894 0.836807
Si Si5 0.815180 0.602439 0.460380
Si Si6 0.500000 0.775383 0.750000
Si Si7 0.069163 0.359296 0.936519
O O1 0.115136 0.221238 0.117410
O O2 0.212797 0.214004 0.160751
O O3 0.192955 0.469568 0.095245
O O4 0.048258 0.320467 0.287869
O O5 0.079861 0.711435 0.507919
O O6 0.006273 0.952096 0.623052
O O7 0.062903 0.825538 0.251102
O O8 0.035055 0.773633 0.411212
O O9 0.161924 0.968166 0.267705
O O10 0.672745 0.920023 0.836290
O O11 0.708445 0.038856 0.939449
O O12 0.750000 0.750000 0.500000
O O13 0.925133 0.637604 0.361865
O O14 0.000000 0.500000 0.000000
#
# Coordination Sequence:
#
# PCOD9291853 Si02
#       7
#     8   8   8   8   8   4   8
#     4  10  22  42  73 103 133 176 235 294 356 419
#     4  10  22  43  72  99 134 182 233 290 356 430
#     4  11  25  45  69 101 137 188 234 292 357 430
#     4  11  24  46  65 101 140 180 241 292 348 433
#     4  12  24  38  70 106 140 178 225 297 358 419
#     4  12  24  44  70 104 136 166 240 292 346 418
#     4  12  27  44  67  98 144 186 233 291 361 434
#
# _framework density 22.676901999999998
#
# number of rings (size 3 to 8) (size 9 to 14) (size 15 to 20)
#    0.000    0.923    3.077    4.615    2.154    2.462 
#    0.000    3.077    0.000    0.000    0.000    0.000 
#    0.000    0.000    0.000    0.000    0.000    0.000 
#
# Total GULP energy -145398.400172 kJ/mol
# GULP energy per Si atom -5592.246160 kJ/mol
# Density = 2.262529 g / cm^3
# Si number density = 22.676902 Si / 1000 Ang^3
#
#
#
# Elastic Constant Matrix: (Units=GPa)
#
#
# Indices 1 2 3 4 5 6 
#
# 1 62.9006 23.3170 7.4035 0.0000 -16.3143 0.0000
# 2 23.3170 127.4661 35.2757 -0.0002 -17.4408 0.0001
# 3 7.4035 35.2757 42.6016 -0.0001 -12.5934 0.0001
# 4 0.0000 -0.0002 -0.0001 36.5336 0.0000 -1.9984
# 5 -16.3143 -17.4408 -12.5934 0.0000 32.1284 0.0000
# 6 0.0000 0.0001 0.0001 -1.9984 0.0000 18.5473
#
#
#
# Elastic Compliance Matrix: (Units=1/GPa)
#
#
# Indices 1 2 3 4 5 6 
#
# 1 0.018995 -0.002696 0.001527 0.000000 0.008780 0.000000
# 2 -0.002696 0.010743 -0.008039 0.000000 0.001312 0.000000
# 3 0.001527 -0.008039 0.032579 0.000000 0.009181 0.000000
# 4 0.000000 0.000000 0.000000 0.027534 0.000000 0.002967
# 5 0.008780 0.001312 0.009181 0.000000 0.039894 0.000000
# 6 0.000000 0.000000 0.000000 0.002967 0.000000 0.054236
#
#
# Mechanical properties :
#
#
# Convention : Reuss Voigt Hill
#
# Bulk Modulus (GPa) = 22.77901 40.55118 31.66510
# Shear Modulus (GPa) = 23.03824 28.57334 25.80579
#
# Velocity S-wave (km/s) = 3.19083 3.55353 3.37705
# Velocity P-wave (km/s) = 4.86231 5.89557 5.40369
#
# Compressibility (1/GPa) = 0.04390007
#
# Stress axis : x y z
#
# Youngs Moduli (GPa) = 52.64522 93.08737 30.69495
#
# Poissons Ratio (x) = 0.25095 -0.04686
# Poissons Ratio (y) = 0.14192 0.24676
# Poissons Ratio (z) = -0.08038 0.74833
#
# Static dielectric constant tensor:
#      x y z
#    x 1.830670 0.000000 -0.052320 
#    y 0.000000 1.911020 0.000000 
#    z -0.052320 0.000000 2.008030 
# 
# From -- ./inp_files/254995.got.cif
#   From: 2010.05.17/outbox.cif.g08.bks.cpg/sg15_128_cif.got.tgz:254995.got - 2010.06.03 18:47:42.
