data_PCOD9291713
_publ_section_title
;
Structure prediction by ZEFSAII (Michael W. Deem and Ramdas Pophale) SiO2 
 PCOD9291713
Probable space group: C 2/C
;
_chemical_formula_sum "Si O2"
_cell_formula_units_Z 52
_cell_length_a 29.331000
_cell_length_b 8.876762
_cell_length_c 20.191931
_cell_angle_alpha 90.000000
_cell_angle_beta 28.514735
_cell_angle_gamma 90.000000
_cell_volume 2509.734866
_symmetry_space_group_name_H-M "C 2/C"
_symmetry_group_IT_number 15
_symmetry_cell_setting 'monoclinic'
loop_
_space_group_symop_operation_xyz
x,y,z
-x,y,1/2-z
-x,-y,-z
x,-y,1/2+z
1/2+x,1/2+y,z
1/2-x,1/2+y,1/2-z
1/2-x,1/2-y,-z
1/2+x,1/2-y,1/2+z
loop_
_atom_site_type_symbol
_atom_site_label
_atom_site_fract_x
_atom_site_fract_y
_atom_site_fract_z
Si Si1 0.892469 0.936596 0.128641
Si Si2 0.809455 0.197671 0.321107
Si Si3 0.014391 0.440568 0.407091
Si Si4 0.000000 0.099294 0.250000
Si Si5 0.359610 0.805880 0.781328
Si Si6 0.618428 0.273474 0.490439
Si Si7 0.186572 0.969025 0.063266
O O1 0.874306 0.783156 0.193598
O O2 0.830508 0.066306 0.241016
O O3 0.872048 0.899967 0.078345
O O4 0.000000 0.000000 0.000000
O O5 0.899784 0.313875 0.204381
O O6 0.709974 0.264980 0.421053
O O7 0.795827 0.109986 0.408916
O O8 0.050039 0.587151 0.321801
O O9 0.000000 0.500000 0.500000
O O10 0.915538 0.375659 0.505046
O O11 0.974484 0.196119 0.346119
O O12 0.907384 0.002084 0.357417
O O13 0.340407 0.672161 0.856586
O O14 0.271172 0.918972 0.906643
#
# Coordination Sequence:
#
# PCOD9291713 Si02
#       7
#     8   8   8   4   8   8   8
#     4  11  21  47  69  93 132 176 222 275 336 399
#     4  11  25  43  68  96 138 173 219 284 331 398
#     4  12  23  43  66  99 131 169 222 280 329 395
#     4  12  24  44  66  94 132 184 220 258 340 410
#     4  10  22  42  70  94 131 168 222 280 328 387
#     4  12  26  39  68  99 127 177 223 266 338 393
#     4  10  23  46  66  95 132 179 218 272 333 399
#
# _framework density 20.719318999999999
#
# number of rings (size 3 to 8) (size 9 to 14) (size 15 to 20)
#    0.000    0.923    4.615    1.846    4.308    2.462 
#    8.308    0.000    0.000    0.000    0.000    0.000 
#    0.000    0.000    0.000    0.000    0.000    0.000 
#
# Total GULP energy -145034.066173 kJ/mol
# GULP energy per Si atom -5578.233314 kJ/mol
# Density = 2.067216 g / cm^3
# Si number density = 20.719319 Si / 1000 Ang^3
#
#
#
# Elastic Constant Matrix: (Units=GPa)
#
#
# Indices 1 2 3 4 5 6 
#
# 1 87.5505 33.9582 30.8001 -0.0037 -12.5266 -0.0002
# 2 33.9582 99.9438 39.7880 -0.0033 2.0015 0.0017
# 3 30.8001 39.7880 92.7095 -0.0065 2.5724 -0.0003
# 4 -0.0037 -0.0033 -0.0065 27.4345 0.0007 -8.6487
# 5 -12.5266 2.0015 2.5724 0.0007 37.6776 0.0003
# 6 -0.0002 0.0017 -0.0003 -8.6487 0.0003 24.3088
#
#
#
# Elastic Compliance Matrix: (Units=1/GPa)
#
#
# Indices 1 2 3 4 5 6 
#
# 1 0.014880 -0.003782 -0.003470 0.000001 0.005385 0.000001
# 2 -0.003782 0.013032 -0.004290 0.000000 -0.001657 -0.000001
# 3 -0.003470 -0.004290 0.013832 0.000003 -0.001870 0.000002
# 4 0.000001 0.000000 0.000003 0.041055 -0.000001 0.014607
# 5 0.005385 -0.001657 -0.001870 -0.000001 0.028547 0.000000
# 6 0.000001 -0.000001 0.000002 0.014607 0.000000 0.046334
#
#
# Mechanical properties :
#
#
# Convention : Reuss Voigt Hill
#
# Bulk Modulus (GPa) = 53.59181 54.36626 53.97904
# Shear Modulus (GPa) = 26.74008 29.59470 28.16739
#
# Velocity S-wave (km/s) = 3.59637 3.78347 3.69111
# Velocity P-wave (km/s) = 6.57016 6.73666 6.65393
#
# Compressibility (1/GPa) = 0.01865957
#
# Stress axis : x y z
#
# Youngs Moduli (GPa) = 67.20358 76.73435 72.29491
#
# Poissons Ratio (x) = 0.29024 0.25084
# Poissons Ratio (y) = 0.25419 0.31017
# Poissons Ratio (z) = 0.23317 0.32922
#
# Static dielectric constant tensor:
#      x y z
#    x 1.721800 0.000000 0.055940 
#    y 0.000000 1.817110 0.000000 
#    z 0.055940 0.000000 1.825070 
# 
# From -- ./inp_files/258817.got.cif
#   From: 2010.05.17/outbox.cif.g08.bks.cpg/sg15_130_cif.got.tgz:258817.got - 2010.06.03 18:47:42.
