data_PCOD9291256
_publ_section_title
;
Structure prediction by ZEFSAII (Michael W. Deem and Ramdas Pophale) SiO2 
 PCOD9291256
Probable space group: C 2/C
;
_chemical_formula_sum "Si O2"
_cell_formula_units_Z 60
_cell_length_a 12.094266
_cell_length_b 19.515480
_cell_length_c 26.505679
_cell_angle_alpha 90.000000
_cell_angle_beta 31.487288
_cell_angle_gamma 90.000000
_cell_volume 3267.574611
_symmetry_space_group_name_H-M "C 2/C"
_symmetry_group_IT_number 15
_symmetry_cell_setting 'monoclinic'
loop_
_space_group_symop_operation_xyz
x,y,z
-x,y,1/2-z
-x,-y,-z
x,-y,1/2+z
1/2+x,1/2+y,z
1/2-x,1/2+y,1/2-z
1/2-x,1/2-y,-z
1/2+x,1/2-y,1/2+z
loop_
_atom_site_type_symbol
_atom_site_label
_atom_site_fract_x
_atom_site_fract_y
_atom_site_fract_z
Si Si1 0.500000 0.092175 0.750000
Si Si2 0.953662 0.032099 0.711419
Si Si3 0.743675 0.581338 0.508177
Si Si4 0.973769 0.871809 0.833212
Si Si5 0.069380 0.827194 0.432528
Si Si6 0.317325 0.323988 0.995118
Si Si7 0.360011 0.173226 0.115805
Si Si8 0.466268 0.950802 0.374138
O O1 0.708633 0.139492 0.672421
O O2 0.531112 0.047892 0.687626
O O3 0.088067 0.069843 0.616096
O O4 0.000000 0.056359 0.750000
O O5 0.704839 0.038632 0.798995
O O6 0.014597 0.952035 0.683414
O O7 0.618213 0.625859 0.515587
O O8 0.952548 0.620732 0.445684
O O9 0.817366 0.508991 0.455957
O O10 0.174678 0.836422 0.729007
O O11 0.968426 0.857000 0.894293
O O12 0.761123 0.842847 0.889607
O O13 0.082333 0.822479 0.488249
O O14 0.055610 0.750222 0.417478
O O15 0.250000 0.250000 0.000000
O O16 0.119904 0.376111 0.076807
#
# Coordination Sequence:
#
# PCOD9291256 Si02
#       8
#     4   8   8   8   8   8   8   8
#     4  10  22  42  66  88 124 174 210 258 316 382
#     4  12  24  40  64  98 128 167 213 263 328 379
#     4  12  25  42  65  94 133 168 208 267 329 377
#     4  11  21  40  67  95 125 169 215 261 315 378
#     4  11  24  42  64  94 127 174 214 260 319 381
#     4  11  24  40  68  94 124 168 223 264 308 383
#     4  11  23  41  65  92 133 168 214 262 316 381
#     4  11  24  42  64  94 132 163 213 270 317 384
#
# _framework density 18.362242999999999
#
# number of rings (size 3 to 8) (size 9 to 14) (size 15 to 20)
#    0.000    0.800    6.667    1.200    3.733    4.267 
#    0.000    0.000    0.000    0.000    0.000    0.000 
#    0.000    0.000    0.000    0.000    0.000    0.000 
#
# Total GULP energy -167617.368833 kJ/mol
# GULP energy per Si atom -5587.245628 kJ/mol
# Density = 1.832045 g / cm^3
# Si number density = 18.362243 Si / 1000 Ang^3
#
#
#
# Elastic Constant Matrix: (Units=GPa)
#
#
# Indices 1 2 3 4 5 6 
#
# 1 90.3504 59.2372 56.9898 0.0209 16.2482 0.0324
# 2 59.2372 91.9301 33.7602 -0.0488 -10.1771 -0.0020
# 3 56.9898 33.7602 78.3832 -0.0530 8.3937 0.0309
# 4 0.0209 -0.0488 -0.0530 3.9505 -0.0057 5.5952
# 5 16.2482 -10.1771 8.3937 -0.0057 36.9336 -0.0259
# 6 0.0324 -0.0020 0.0309 5.5952 -0.0259 21.4851
#
#
#
# Elastic Compliance Matrix: (Units=1/GPa)
#
#
# Indices 1 2 3 4 5 6 
#
# 1 0.039336 -0.021043 -0.017489 -0.001024 -0.019129 0.000207
# 2 -0.021043 0.025124 0.002814 0.000654 0.015541 -0.000121
# 3 -0.017489 0.002814 0.023938 0.000727 0.003029 -0.000193
# 4 -0.001024 0.000654 0.000727 0.401090 0.000455 -0.104451
# 5 -0.019129 0.015541 0.003029 0.000455 0.039085 -0.000045
# 6 0.000207 -0.000121 -0.000193 -0.104451 -0.000045 0.073745
#
#
# Mechanical properties :
#
#
# Convention : Reuss Voigt Hill
#
# Bulk Modulus (GPa) = 58.95034 62.29312 60.62173
# Shear Modulus (GPa) = 7.35937 19.85229 13.60583
#
# Velocity S-wave (km/s) = 2.00414 3.29165 2.72503
# Velocity P-wave (km/s) = 6.12611 6.96023 6.55645
#
# Compressibility (1/GPa) = 0.01696343
#
# Stress axis : x y z
#
# Youngs Moduli (GPa) = 25.42197 39.80208 41.77545
#
# Poissons Ratio (x) = 0.83754 0.73061
# Poissons Ratio (y) = 0.53494 -0.11758
# Poissons Ratio (z) = 0.44461 -0.11202
#
# Static dielectric constant tensor:
#      x y z
#    x 1.641310 0.000000 0.014330 
#    y 0.000000 1.623910 0.000000 
#    z 0.014330 0.000000 1.616710 
# 
# From -- ./inp_files/293516.got.cif
#   From: 2010.05.17/outbox.cif.g08.bks.cpg/sg15_147_cif.got.tgz:293516.got - 2010.06.03 18:47:42.
