data_PCOD9291164
_publ_section_title
;
Structure prediction by ZEFSAII (Michael W. Deem and Ramdas Pophale) SiO2 
 PCOD9291164
Probable space group: C 2/C
;
_chemical_formula_sum "Si O2"
_cell_formula_units_Z 64
_cell_length_a 27.893481
_cell_length_b 14.955883
_cell_length_c 9.512384
_cell_angle_alpha 90.000000
_cell_angle_beta 50.067106
_cell_angle_gamma 90.000000
_cell_volume 3042.877157
_symmetry_space_group_name_H-M "C 2/C"
_symmetry_group_IT_number 15
_symmetry_cell_setting 'monoclinic'
loop_
_space_group_symop_operation_xyz
x,y,z
-x,y,1/2-z
-x,-y,-z
x,-y,1/2+z
1/2+x,1/2+y,z
1/2-x,1/2+y,1/2-z
1/2-x,1/2-y,-z
1/2+x,1/2-y,1/2+z
loop_
_atom_site_type_symbol
_atom_site_label
_atom_site_fract_x
_atom_site_fract_y
_atom_site_fract_z
Si Si1 0.213891 0.229914 0.212474
Si Si2 0.656935 0.989454 0.620588
Si Si3 0.014163 0.232691 0.573354
Si Si4 0.425691 0.432386 0.914908
Si Si5 0.189090 0.379639 0.819283
Si Si6 0.062033 0.727258 0.539222
Si Si7 0.114868 0.618079 0.944069
Si Si8 0.610610 0.410923 0.811007
O O1 0.261712 0.197729 0.241105
O O2 0.175571 0.317783 0.327345
O O3 0.165562 0.149797 0.269555
O O4 0.250000 0.250000 0.000000
O O5 0.695358 0.926375 0.655658
O O6 0.614161 0.933550 0.593062
O O7 0.695306 0.050747 0.438052
O O8 0.620404 0.051802 0.800635
O O9 0.057647 0.316231 0.527474
O O10 0.051872 0.158258 0.415622
O O11 0.000000 0.189168 0.750000
O O12 0.957961 0.268785 0.585885
O O13 0.500000 0.446533 0.750000
O O14 0.417486 0.328584 0.968450
O O15 0.383084 0.445521 0.858161
O O16 0.404828 0.503952 0.067354
O O17 0.118704 0.339838 0.960440
O O18 0.000000 0.707025 0.750000
#
# Coordination Sequence:
#
# PCOD9291164 Si02
#       8
#     8   8   8   8   8   8   8   8
#     4  11  23  43  70  89 127 170 216 260 318 388
#     4  10  22  42  65  89 128 157 210 269 315 364
#     4  11  22  39  64  92 128 168 209 257 315 380
#     4  11  22  39  63  95 132 169 206 260 315 385
#     4  11  23  43  65  92 123 171 209 265 318 373
#     4  11  22  40  64  91 128 169 209 257 319 385
#     4  10  22  43  65  94 124 169 210 261 321 377
#     4  11  24  40  62  95 128 168 211 256 320 377
#
# _framework density 21.032724000000002
#
# number of rings (size 3 to 8) (size 9 to 14) (size 15 to 20)
#    0.000    1.250    3.750    3.000    1.750    1.500 
#    4.500   12.500    0.000    0.000    0.000    0.000 
#    0.000    0.000    0.000    0.000    0.000    0.000 
#
# Total GULP energy -178816.057197 kJ/mol
# GULP energy per Si atom -5588.001787 kJ/mol
# Density = 2.098485 g / cm^3
# Si number density = 21.032724 Si / 1000 Ang^3
#
#
#
# Elastic Constant Matrix: (Units=GPa)
#
#
# Indices 1 2 3 4 5 6 
#
# 1 95.8179 39.7944 43.1420 0.0000 24.6208 0.0000
# 2 39.7944 94.2980 38.2972 0.0000 13.7907 0.0000
# 3 43.1420 38.2972 56.6835 0.0000 24.7865 0.0000
# 4 0.0000 0.0000 0.0000 28.3917 0.0000 17.5998
# 5 24.6208 13.7907 24.7865 0.0000 37.7679 0.0000
# 6 0.0000 0.0000 0.0000 17.5998 0.0000 -5.5884
#
#
#
# Elastic Compliance Matrix: (Units=1/GPa)
#
#
# Indices 1 2 3 4 5 6 
#
# 1 0.016699 -0.002766 -0.009148 0.000000 -0.003873 0.000000
# 2 -0.002766 0.015143 -0.009111 0.000000 0.002253 0.000000
# 3 -0.009148 -0.009111 0.037443 0.000000 -0.015283 0.000000
# 4 0.000000 0.000000 0.000000 0.011930 0.000000 0.037573
# 5 -0.003873 0.002253 -0.015283 0.000000 0.038209 0.000000
# 6 0.000000 0.000000 0.000000 0.037573 0.000000 -0.060612
#
#
# Mechanical properties :
#
#
# Convention : Reuss Voigt Hill
#
# Bulk Modulus (GPa) = 36.71684 54.36296 45.53990
# Shear Modulus (GPa) = 45.47954 20.48528 32.98241
#
# Velocity S-wave (km/s) = 4.65512 3.12424 3.96428
# Velocity P-wave (km/s) = 6.81091 6.23838 6.53092
#
# Compressibility (1/GPa) = 0.02723546
#
# Stress axis : x y z
#
# Youngs Moduli (GPa) = 59.88438 66.03895 26.70737
#
# Poissons Ratio (x) = 0.18263 0.24431
# Poissons Ratio (y) = 0.16561 0.24334
# Poissons Ratio (z) = 0.54780 0.60170
#
# Static dielectric constant tensor:
#      x y z
#    x 1.767560 0.000000 0.004570 
#    y 0.000000 1.741010 0.000000 
#    z 0.004570 0.000000 1.752520 
# 
# From -- ./inp_files/70143.got.cif
#   From: 2010.05.17/outbox.cif.g08.bks.cpg/sg15_36_cif.got.tgz:70143.got - 2010.06.03 18:47:42.
