data_PCOD9291160
_publ_section_title
;
Structure prediction by ZEFSAII (Michael W. Deem and Ramdas Pophale) SiO2 
 PCOD9291160
Probable space group: C 2/C
;
_chemical_formula_sum "Si O2"
_cell_formula_units_Z 56
_cell_length_a 15.446126
_cell_length_b 7.954777
_cell_length_c 22.798411
_cell_angle_alpha 90.000000
_cell_angle_beta 115.375432
_cell_angle_gamma 90.000000
_cell_volume 2530.984674
_symmetry_space_group_name_H-M "C 2/C"
_symmetry_group_IT_number 15
_symmetry_cell_setting 'monoclinic'
loop_
_space_group_symop_operation_xyz
x,y,z
-x,y,1/2-z
-x,-y,-z
x,-y,1/2+z
1/2+x,1/2+y,z
1/2-x,1/2+y,1/2-z
1/2-x,1/2-y,-z
1/2+x,1/2-y,1/2+z
loop_
_atom_site_type_symbol
_atom_site_label
_atom_site_fract_x
_atom_site_fract_y
_atom_site_fract_z
Si Si1 0.962502 0.274885 0.860436
Si Si2 0.619257 0.325384 0.046316
Si Si3 0.170854 0.752264 0.844333
Si Si4 0.789725 0.063888 0.512627
Si Si5 0.114076 0.425538 0.766184
Si Si6 0.588028 0.901619 0.432825
Si Si7 0.385185 0.402088 0.165474
O O1 0.936105 0.167443 0.908933
O O2 0.881231 0.372689 0.800331
O O3 0.031483 0.426257 0.903187
O O4 0.009335 0.154046 0.824806
O O5 0.722094 0.247004 0.097133
O O6 0.641302 0.498847 0.018939
O O7 0.563103 0.208299 0.982755
O O8 0.165708 0.596052 0.798496
O O9 0.096239 0.703687 0.875187
O O10 0.135158 0.926906 0.806132
O O11 0.750000 0.250000 0.500000
O O12 0.836630 0.053144 0.589479
O O13 0.697269 0.949303 0.478288
O O14 0.152529 0.268473 0.815678
O O15 0.000000 0.448228 0.750000
#
# Coordination Sequence:
#
# PCOD9291160 Si02
#       7
#     8   8   8   8   8   8   8
#     4  11  24  42  59  94 141 164 200 282 331 369
#     4  11  23  39  62 100 134 159 211 274 331 385
#     4  11  20  41  70  88 118 173 221 257 309 388
#     4  11  19  36  65  92 124 168 217 260 318 382
#     4  10  22  42  65  87 125 171 220 259 310 384
#     4  11  19  39  66  90 125 172 207 261 325 393
#     4  11  20  38  68  91 117 167 225 256 302 389
#
# _framework density 22.125775999999998
#
# number of rings (size 3 to 8) (size 9 to 14) (size 15 to 20)
#    0.000    1.143    7.143    2.143    0.000    2.286 
#    2.571    0.000    0.000    0.000    0.000    0.000 
#    0.000    0.000    0.000    0.000    0.000    0.000 
#
# Total GULP energy -156168.936277 kJ/mol
# GULP energy per Si atom -5577.462010 kJ/mol
# Density = 2.207542 g / cm^3
# Si number density = 22.125776 Si / 1000 Ang^3
#
#
#
# Elastic Constant Matrix: (Units=GPa)
#
#
# Indices 1 2 3 4 5 6 
#
# 1 22.6131 15.7409 8.5176 0.0000 -7.8695 0.0000
# 2 15.7409 146.0747 31.5216 0.0000 5.8401 0.0000
# 3 8.5176 31.5216 89.4506 0.0000 -6.3978 0.0000
# 4 0.0000 0.0000 0.0000 40.6954 0.0000 4.0989
# 5 -7.8695 5.8401 -6.3978 0.0000 23.1762 0.0000
# 6 0.0000 0.0000 0.0000 4.0989 0.0000 17.1278
#
#
#
# Elastic Compliance Matrix: (Units=1/GPa)
#
#
# Indices 1 2 3 4 5 6 
#
# 1 0.056486 -0.006554 -0.001611 0.000000 0.020387 0.000000
# 2 -0.006554 0.008332 -0.002674 0.000000 -0.005063 0.000000
# 3 -0.001611 -0.002674 0.012532 0.000000 0.003586 0.000000
# 4 0.000000 0.000000 0.000000 0.025180 0.000000 -0.006026
# 5 0.020387 -0.005063 0.003586 0.000000 0.052336 0.000000
# 6 0.000000 0.000000 0.000000 -0.006026 0.000000 0.059827
#
#
# Mechanical properties :
#
#
# Convention : Reuss Voigt Hill
#
# Bulk Modulus (GPa) = 17.96270 41.07761 29.52016
# Shear Modulus (GPa) = 19.61345 29.69044 24.65194
#
# Velocity S-wave (km/s) = 2.98057 3.66716 3.34154
# Velocity P-wave (km/s) = 4.47002 6.04455 5.31590
#
# Compressibility (1/GPa) = 0.05567092
#
# Stress axis : x y z
#
# Youngs Moduli (GPa) = 17.70342 120.02556 79.79872
#
# Poissons Ratio (x) = 0.78670 0.12854
# Poissons Ratio (y) = 0.11604 0.21338
# Poissons Ratio (z) = 0.02852 0.32095
#
# Static dielectric constant tensor:
#      x y z
#    x 1.861520 0.000000 -0.001770 
#    y 0.000000 1.902530 0.000000 
#    z -0.001770 0.000000 1.871340 
# 
# From -- ./inp_files/276365.got.cif
#   From: 2010.05.17/outbox.cif.g08.bks.cpg/sg15_139_cif.got.tgz:276365.got - 2010.06.03 18:47:42.
