data_PCOD9291627
_publ_section_title
;
Structure prediction by ZEFSAII (Michael W. Deem and Ramdas Pophale) SiO2 
 PCOD9291627
Probable space group: C 2/C
;
_chemical_formula_sum "Si O2"
_cell_formula_units_Z 52
_cell_length_a 17.939228
_cell_length_b 9.527567
_cell_length_c 20.723642
_cell_angle_alpha 90.000000
_cell_angle_beta 40.728711
_cell_angle_gamma 90.000000
_cell_volume 2311.095354
_symmetry_space_group_name_H-M "C 2/C"
_symmetry_group_IT_number 15
_symmetry_cell_setting 'monoclinic'
loop_
_space_group_symop_operation_xyz
x,y,z
-x,y,1/2-z
-x,-y,-z
x,-y,1/2+z
1/2+x,1/2+y,z
1/2-x,1/2+y,1/2-z
1/2-x,1/2-y,-z
1/2+x,1/2-y,1/2+z
loop_
_atom_site_type_symbol
_atom_site_label
_atom_site_fract_x
_atom_site_fract_y
_atom_site_fract_z
Si Si1 0.212987 0.786599 0.385885
Si Si2 0.243381 0.967446 0.122470
Si Si3 0.500000 0.489109 0.750000
Si Si4 0.525982 0.276614 0.613731
Si Si5 0.837593 0.572600 0.308555
Si Si6 0.218550 0.272665 0.292317
Si Si7 0.087345 0.543963 0.101267
O O1 0.258884 0.636182 0.378515
O O2 0.110991 0.823258 0.500813
O O3 0.305232 0.909176 0.327258
O O4 0.188278 0.770546 0.326030
O O5 0.115119 0.922997 0.187923
O O6 0.275249 0.918586 0.173261
O O7 0.340845 0.918675 0.009090
O O8 0.520170 0.390215 0.674347
O O9 0.402861 0.255002 0.661226
O O10 0.572389 0.126703 0.609876
O O11 0.745119 0.660100 0.330148
O O12 0.847977 0.597709 0.377765
O O13 0.958394 0.597044 0.194177
#
# Coordination Sequence:
#
# PCOD9291627 Si02
#       7
#     8   8   4   8   8   8   8
#     4  11  23  43  68  97 129 174 216 268 317 391
#     4  11  25  43  70  94 134 171 221 263 331 379
#     4  12  22  44  64 100 130 170 214 282 314 384
#     4  11  24  41  72  95 130 171 227 263 321 380
#     4  11  23  43  69  97 134 167 223 267 322 382
#     4  12  26  43  64 103 133 170 211 277 323 391
#     4  10  22  42  69  94 127 180 219 258 319 401
#
# _framework density 22.500153999999998
#
# number of rings (size 3 to 8) (size 9 to 14) (size 15 to 20)
#    0.000    0.923    3.077    3.692    2.154    6.154 
#    2.769    0.000    0.000    0.000    0.000    0.000 
#    0.000    0.000    0.000    0.000    0.000    0.000 
#
# Total GULP energy -145399.657533 kJ/mol
# GULP energy per Si atom -5592.294520 kJ/mol
# Density = 2.244894 g / cm^3
# Si number density = 22.500154 Si / 1000 Ang^3
#
#
#
# Elastic Constant Matrix: (Units=GPa)
#
#
# Indices 1 2 3 4 5 6 
#
# 1 122.7873 28.0038 46.6109 0.0000 12.7907 0.0000
# 2 28.0038 44.7813 13.6921 0.0000 7.4655 0.0000
# 3 46.6109 13.6921 154.2540 0.0000 20.8059 0.0000
# 4 0.0000 0.0000 0.0000 7.0411 0.0000 11.7721
# 5 12.7907 7.4655 20.8059 0.0000 23.3089 0.0000
# 6 0.0000 0.0000 0.0000 11.7721 0.0000 25.6183
#
#
#
# Elastic Compliance Matrix: (Units=1/GPa)
#
#
# Indices 1 2 3 4 5 6 
#
# 1 0.010522 -0.005529 -0.002443 0.000000 -0.001823 0.000000
# 2 -0.005529 0.026700 0.000051 0.000000 -0.005563 0.000000
# 3 -0.002443 0.000051 0.008001 0.000000 -0.005818 0.000000
# 4 0.000000 0.000000 0.000000 0.612905 0.000000 -0.281643
# 5 -0.001823 -0.005563 -0.005818 0.000000 0.050877 0.000000
# 6 0.000000 0.000000 0.000000 -0.281643 0.000000 0.168456
#
#
# Mechanical properties :
#
#
# Convention : Reuss Voigt Hill
#
# Bulk Modulus (GPa) = 34.03488 55.38181 44.70834
# Shear Modulus (GPa) = 5.53650 26.76137 16.14893
#
# Velocity S-wave (km/s) = 1.57035 3.45249 2.68195
# Velocity P-wave (km/s) = 4.29504 6.36870 5.43174
#
# Compressibility (1/GPa) = 0.02938163
#
# Stress axis : x y z
#
# Youngs Moduli (GPa) = 95.03485 37.45269 124.98188
#
# Poissons Ratio (x) = 0.20709 0.30532
# Poissons Ratio (y) = 0.52549 -0.00639
# Poissons Ratio (z) = 0.23216 -0.00192
#
# Static dielectric constant tensor:
#      x y z
#    x 1.805230 0.000000 -0.003890 
#    y 0.000000 1.881600 0.000000 
#    z -0.003890 0.000000 1.843130 
# 
# From -- ./inp_files/248547.got.cif
#   From: 2010.05.17/outbox.cif.g08.bks.cpg/sg15_125_cif.got.tgz:248547.got - 2010.06.03 18:47:42.
