data_PCOD9291371
_publ_section_title
;
Structure prediction by ZEFSAII (Michael W. Deem and Ramdas Pophale) SiO2 
 PCOD9291371
Probable space group: C 2/C
;
_chemical_formula_sum "Si O2"
_cell_formula_units_Z 48
_cell_length_a 16.637835
_cell_length_b 12.745964
_cell_length_c 21.727914
_cell_angle_alpha 90.000000
_cell_angle_beta 29.818183
_cell_angle_gamma 90.000000
_cell_volume 2291.193327
_symmetry_space_group_name_H-M "C 2/C"
_symmetry_group_IT_number 15
_symmetry_cell_setting 'monoclinic'
loop_
_space_group_symop_operation_xyz
x,y,z
-x,y,1/2-z
-x,-y,-z
x,-y,1/2+z
1/2+x,1/2+y,z
1/2-x,1/2+y,1/2-z
1/2-x,1/2-y,-z
1/2+x,1/2-y,1/2+z
loop_
_atom_site_type_symbol
_atom_site_label
_atom_site_fract_x
_atom_site_fract_y
_atom_site_fract_z
Si Si1 0.896833 0.130593 0.548402
Si Si2 0.423161 0.862584 0.492756
Si Si3 0.315404 0.133494 0.468167
Si Si4 0.545146 0.035462 0.790138
Si Si5 0.234966 0.432301 0.359255
Si Si6 0.464663 0.442747 0.424197
O O1 0.866986 0.244731 0.541003
O O2 0.731587 0.068512 0.674652
O O3 0.003185 0.134520 0.539795
O O4 0.985313 0.057626 0.439758
O O5 0.444112 0.898675 0.408112
O O6 0.598259 0.879646 0.407813
O O7 0.308373 0.944984 0.603941
O O8 0.250000 0.250000 0.500000
O O9 0.274910 0.111867 0.565753
O O10 0.209276 0.065847 0.490936
O O11 0.495934 0.086732 0.336534
O O12 0.500000 0.060812 0.750000
O O13 0.406182 0.418846 0.213912
#
# Coordination Sequence:
#
# PCOD9291371 Si02
#       6
#     8   8   8   8   8   8
#     4  11  24  43  67  97 132 180 222 275 337 393
#     4  10  23  43  67  97 130 180 220 270 336 387
#     4  11  24  44  68  99 133 176 218 277 344 393
#     4  11  23  45  66  96 136 171 229 278 323 409
#     4  10  22  42  66  99 135 166 225 275 322 407
#     4  11  23  42  64  99 134 165 227 274 327 412
#
# _framework density 20.949780000000001
#
# number of rings (size 3 to 8) (size 9 to 14) (size 15 to 20)
#    0.000    1.333    3.333    1.500    2.333    2.000 
#    6.000    0.000    0.000    0.000    0.000    0.000 
#    0.000    0.000    0.000    0.000    0.000    0.000 
#
# Total GULP energy -134012.900630 kJ/mol
# GULP energy per Si atom -5583.870860 kJ/mol
# Density = 2.090210 g / cm^3
# Si number density = 20.949780 Si / 1000 Ang^3
#
#
#
# Elastic Constant Matrix: (Units=GPa)
#
#
# Indices 1 2 3 4 5 6 
#
# 1 109.1021 18.3386 26.6255 -0.0001 17.9789 0.0002
# 2 18.3386 115.6891 28.9366 -0.0017 2.2192 0.0004
# 3 26.6255 28.9366 52.1411 -0.0036 13.9500 0.0012
# 4 -0.0001 -0.0017 -0.0036 7.8782 0.0007 -0.7896
# 5 17.9789 2.2192 13.9500 0.0007 24.0148 -0.0002
# 6 0.0002 0.0004 0.0012 -0.7896 -0.0002 19.8841
#
#
#
# Elastic Compliance Matrix: (Units=1/GPa)
#
#
# Indices 1 2 3 4 5 6 
#
# 1 0.011203 -0.000744 -0.003649 -0.000001 -0.006198 0.000000
# 2 -0.000744 0.010240 -0.006156 -0.000001 0.003187 0.000000
# 3 -0.003649 -0.006156 0.027913 0.000012 -0.012914 -0.000001
# 4 -0.000001 -0.000001 0.000012 0.127439 -0.000010 0.005061
# 5 -0.006198 0.003187 -0.012914 -0.000010 0.053488 0.000001
# 6 0.000000 0.000000 -0.000001 0.005061 0.000001 0.050492
#
#
# Mechanical properties :
#
#
# Convention : Reuss Voigt Hill
#
# Bulk Modulus (GPa) = 35.38772 47.19264 41.29018
# Shear Modulus (GPa) = 16.06197 23.89086 19.97641
#
# Velocity S-wave (km/s) = 2.77192 3.38063 3.09129
# Velocity P-wave (km/s) = 5.21278 6.14928 5.70029
#
# Compressibility (1/GPa) = 0.02825839
#
# Stress axis : x y z
#
# Youngs Moduli (GPa) = 89.26309 97.65284 35.82517
#
# Poissons Ratio (x) = 0.07267 0.13074
# Poissons Ratio (y) = 0.06643 0.22053
# Poissons Ratio (z) = 0.32575 0.60111
#
# Static dielectric constant tensor:
#      x y z
#    x 1.742290 0.000000 -0.021970 
#    y 0.000000 1.776550 0.000000 
#    z -0.021970 0.000000 1.772510 
# 
# From -- ./inp_files/277211.got.cif
#   From: 2010.05.17/outbox.cif.g08.bks.cpg/sg15_139_cif.got.tgz:277211.got - 2010.06.03 18:47:42.
