data_PCOD9291792
_publ_section_title
;
Structure prediction by ZEFSAII (Michael W. Deem and Ramdas Pophale) SiO2 
 PCOD9291792
Probable space group: C 2/C
;
_chemical_formula_sum "Si O2"
_cell_formula_units_Z 64
_cell_length_a 9.235776
_cell_length_b 15.857295
_cell_length_c 24.661758
_cell_angle_alpha 90.000000
_cell_angle_beta 49.637306
_cell_angle_gamma 90.000000
_cell_volume 2752.065617
_symmetry_space_group_name_H-M "C 2/C"
_symmetry_group_IT_number 15
_symmetry_cell_setting 'monoclinic'
loop_
_space_group_symop_operation_xyz
x,y,z
-x,y,1/2-z
-x,-y,-z
x,-y,1/2+z
1/2+x,1/2+y,z
1/2-x,1/2+y,1/2-z
1/2-x,1/2-y,-z
1/2+x,1/2-y,1/2+z
loop_
_atom_site_type_symbol
_atom_site_label
_atom_site_fract_x
_atom_site_fract_y
_atom_site_fract_z
Si Si1 0.620105 0.594174 0.335973
Si Si2 0.144675 0.299372 0.477764
Si Si3 0.506829 0.137038 0.812931
Si Si4 0.224306 0.223808 0.069041
Si Si5 0.818766 0.343445 0.890164
Si Si6 0.147699 0.734052 0.264799
Si Si7 0.212382 0.015797 0.580907
Si Si8 0.545455 0.000335 0.080017
O O1 0.439610 0.654858 0.387158
O O2 0.765059 0.599972 0.351002
O O3 0.740451 0.644167 0.261935
O O4 0.509868 0.506088 0.357433
O O5 0.250000 0.250000 0.500000
O O6 0.151505 0.224735 0.431504
O O7 0.248127 0.384350 0.435000
O O8 0.923795 0.312677 0.540650
O O9 0.500000 0.116237 0.750000
O O10 0.342899 0.200423 0.874870
O O11 0.703343 0.190470 0.772189
O O12 0.486752 0.059733 0.860175
O O13 0.250000 0.250000 0.000000
O O14 0.998729 0.280678 0.848025
O O15 0.858249 0.412761 0.925184
O O16 0.000000 0.740709 0.250000
O O17 0.307942 0.973086 0.503710
O O18 0.342084 0.990609 0.600467
#
# Coordination Sequence:
#
# PCOD9291792 Si02
#       8
#     8   8   8   8   8   8   8   8
#     4  10  22  42  72 101 137 188 233 301 362 426
#     4  12  25  41  70 106 138 187 236 309 363 433
#     4  11  26  44  71 105 149 199 244 302 369 453
#     4  11  21  42  71 103 139 185 244 298 368 427
#     4  11  24  45  68 100 146 186 237 297 372 428
#     4   9  23  46  69  99 141 191 240 289 358 439
#     4  11  24  44  72 107 141 181 244 305 368 425
#     4  11  25  45  70 104 150 179 236 310 366 430
#
# _framework density 23.255261000000001
#
# number of rings (size 3 to 8) (size 9 to 14) (size 15 to 20)
#    0.000    1.250    2.500    3.000    5.250    4.000 
#    2.250    0.000    0.000    0.000    0.000    0.000 
#    0.000    0.000    0.000    0.000    0.000    0.000 
#
# Total GULP energy -178419.322795 kJ/mol
# GULP energy per Si atom -5575.603837 kJ/mol
# Density = 2.320233 g / cm^3
# Si number density = 23.255261 Si / 1000 Ang^3
#
#
#
# Elastic Constant Matrix: (Units=GPa)
#
#
# Indices 1 2 3 4 5 6 
#
# 1 92.5824 54.5489 40.4930 0.0001 -6.6744 0.0000
# 2 54.5489 121.6154 41.1900 0.0000 -0.2038 0.0000
# 3 40.4930 41.1900 83.3564 0.0000 4.2895 -0.0001
# 4 0.0001 0.0000 0.0000 31.7236 -0.0001 -2.0737
# 5 -6.6744 -0.2038 4.2895 -0.0001 40.1250 0.0001
# 6 0.0000 0.0000 -0.0001 -2.0737 0.0001 32.6134
#
#
#
# Elastic Compliance Matrix: (Units=1/GPa)
#
#
# Indices 1 2 3 4 5 6 
#
# 1 0.016796 -0.005652 -0.005539 0.000000 0.003357 0.000000
# 2 -0.005652 0.011791 -0.003052 0.000000 -0.000554 0.000000
# 3 -0.005539 -0.003052 0.016334 0.000000 -0.002683 0.000000
# 4 0.000000 0.000000 0.000000 0.031654 0.000000 0.002013
# 5 0.003357 -0.000554 -0.002683 0.000000 0.025765 0.000000
# 6 0.000000 0.000000 0.000000 0.002013 0.000000 0.030790
#
#
# Mechanical properties :
#
#
# Convention : Reuss Voigt Hill
#
# Bulk Modulus (GPa) = 60.84951 63.33533 62.09242
# Shear Modulus (GPa) = 29.92347 31.64721 30.78534
#
# Velocity S-wave (km/s) = 3.59101 3.69299 3.64235
# Velocity P-wave (km/s) = 6.58912 6.74375 6.66688
#
# Compressibility (1/GPa) = 0.01643399
#
# Stress axis : x y z
#
# Youngs Moduli (GPa) = 59.53828 84.81381 61.22317
#
# Poissons Ratio (x) = 0.47936 0.33912
# Poissons Ratio (y) = 0.33651 0.18686
# Poissons Ratio (z) = 0.32978 0.25886
#
# Static dielectric constant tensor:
#      x y z
#    x 1.906910 0.000000 0.139000 
#    y 0.000000 2.102760 0.000000 
#    z 0.139000 0.000000 2.084520 
# 
# From -- ./inp_files/308260.got.cif
#   From: 2010.05.17/outbox.cif.g08.bks.cpg/sg15_155_cif.got.tgz:308260.got - 2010.06.03 18:47:42.
