data_PCOD9291726
_publ_section_title
;
Structure prediction by ZEFSAII (Michael W. Deem and Ramdas Pophale) SiO2 
 PCOD9291726
Probable space group: C 2/C
;
_chemical_formula_sum "Si O2"
_cell_formula_units_Z 60
_cell_length_a 14.639393
_cell_length_b 15.384993
_cell_length_c 14.125390
_cell_angle_alpha 90.000000
_cell_angle_beta 57.761093
_cell_angle_gamma 90.000000
_cell_volume 2690.942880
_symmetry_space_group_name_H-M "C 2/C"
_symmetry_group_IT_number 15
_symmetry_cell_setting 'monoclinic'
loop_
_space_group_symop_operation_xyz
x,y,z
-x,y,1/2-z
-x,-y,-z
x,-y,1/2+z
1/2+x,1/2+y,z
1/2-x,1/2+y,1/2-z
1/2-x,1/2-y,-z
1/2+x,1/2-y,1/2+z
loop_
_atom_site_type_symbol
_atom_site_label
_atom_site_fract_x
_atom_site_fract_y
_atom_site_fract_z
Si Si1 0.292815 0.513147 0.406733
Si Si2 0.901972 0.119147 0.735378
Si Si3 0.076580 0.620828 0.551546
Si Si4 0.915489 0.505418 0.211037
Si Si5 0.878773 0.301961 0.661712
Si Si6 0.500000 0.773834 0.250000
Si Si7 0.134825 0.853353 0.792327
Si Si8 0.838016 0.994551 0.097093
O O1 0.301350 0.418520 0.353025
O O2 0.172304 0.551696 0.482078
O O3 0.351765 0.576771 0.300101
O O4 0.345992 0.517725 0.480772
O O5 0.911844 0.220554 0.706170
O O6 0.893664 0.073048 0.637549
O O7 0.000000 0.092965 0.750000
O O8 0.086758 0.695172 0.466876
O O9 0.963701 0.568251 0.614937
O O10 0.086803 0.666196 0.648586
O O11 0.920425 0.603922 0.171806
O O12 0.790592 0.491721 0.307099
O O13 0.000000 0.501990 0.250000
O O14 0.749247 0.305618 0.737548
O O15 0.450974 0.715095 0.195297
O O16 0.119038 0.910817 0.894328
#
# Coordination Sequence:
#
# PCOD9291726 Si02
#       8
#     8   8   8   8   8   4   8   8
#     4  10  22  44  70  97 133 180 231 275 340 406
#     4  11  26  44  66  96 134 185 232 274 329 415
#     4  11  23  41  71 106 130 179 222 282 352 394
#     4  11  20  42  70 101 137 170 222 280 344 408
#     4  10  24  41  64  96 138 178 218 276 340 398
#     4  12  24  40  66 102 136 162 232 288 330 410
#     4   9  24  40  61 100 137 170 223 285 329 400
#     4  10  22  42  70  96 134 185 220 279 347 398
#
# _framework density 22.297018000000001
#
# number of rings (size 3 to 8) (size 9 to 14) (size 15 to 20)
#    0.000    1.600    2.000    1.600    9.333    2.667 
#    0.000    2.667    0.000    0.000    0.000    0.000 
#    0.000    0.000    0.000    0.000    0.000    0.000 
#
# Total GULP energy -167564.324483 kJ/mol
# GULP energy per Si atom -5585.477483 kJ/mol
# Density = 2.224627 g / cm^3
# Si number density = 22.297018 Si / 1000 Ang^3
#
#
#
# Elastic Constant Matrix: (Units=GPa)
#
#
# Indices 1 2 3 4 5 6 
#
# 1 100.6689 28.0428 27.6210 0.0000 17.6380 0.0000
# 2 28.0428 72.5943 23.7479 0.0000 -1.5461 0.0000
# 3 27.6210 23.7479 80.2568 0.0000 19.2682 0.0000
# 4 0.0000 0.0000 0.0000 20.1324 0.0000 9.0060
# 5 17.6380 -1.5461 19.2682 0.0000 32.9468 0.0000
# 6 0.0000 0.0000 0.0000 9.0060 0.0000 35.1531
#
#
#
# Elastic Compliance Matrix: (Units=1/GPa)
#
#
# Indices 1 2 3 4 5 6 
#
# 1 0.012689 -0.004518 -0.001569 0.000000 -0.006088 0.000000
# 2 -0.004518 0.017304 -0.005050 0.000000 0.006184 0.000000
# 3 -0.001569 -0.005050 0.016693 0.000000 -0.009160 0.000000
# 4 0.000000 0.000000 0.000000 0.056101 0.000000 -0.014373
# 5 -0.006088 0.006184 -0.009160 0.000000 0.039258 0.000000
# 6 0.000000 0.000000 0.000000 -0.014373 0.000000 0.032129
#
#
# Mechanical properties :
#
#
# Convention : Reuss Voigt Hill
#
# Bulk Modulus (GPa) = 40.96184 45.81592 43.38888
# Shear Modulus (GPa) = 24.43957 29.25370 26.84664
#
# Velocity S-wave (km/s) = 3.31432 3.62608 3.47370
# Velocity P-wave (km/s) = 5.74954 6.17446 5.96578
#
# Compressibility (1/GPa) = 0.02441297
#
# Stress axis : x y z
#
# Youngs Moduli (GPa) = 78.80718 57.78905 59.90445
#
# Poissons Ratio (x) = 0.26111 0.09396
# Poissons Ratio (y) = 0.35607 0.30252
# Poissons Ratio (z) = 0.12361 0.29184
#
# Static dielectric constant tensor:
#      x y z
#    x 1.819280 0.000000 0.005880 
#    y 0.000000 1.852720 0.000000 
#    z 0.005880 0.000000 1.857540 
# 
# From -- ./inp_files/154254.got.cif
#   From: 2010.05.17/outbox.cif.g08.bks.cpg/sg15_78_cif.got.tgz:154254.got - 2010.06.03 18:47:42.
