data_PCOD9291131
_publ_section_title
;
Structure prediction by ZEFSAII (Michael W. Deem and Ramdas Pophale) SiO2 
 PCOD9291131
Probable space group: C 2/C
;
_chemical_formula_sum "Si O2"
_cell_formula_units_Z 52
_cell_length_a 5.381140
_cell_length_b 17.796639
_cell_length_c 22.262730
_cell_angle_alpha 90.000000
_cell_angle_beta 106.384451
_cell_angle_gamma 90.000000
_cell_volume 2045.437166
_symmetry_space_group_name_H-M "C 2/C"
_symmetry_group_IT_number 15
_symmetry_cell_setting 'monoclinic'
loop_
_space_group_symop_operation_xyz
x,y,z
-x,y,1/2-z
-x,-y,-z
x,-y,1/2+z
1/2+x,1/2+y,z
1/2-x,1/2+y,1/2-z
1/2-x,1/2-y,-z
1/2+x,1/2-y,1/2+z
loop_
_atom_site_type_symbol
_atom_site_label
_atom_site_fract_x
_atom_site_fract_y
_atom_site_fract_z
Si Si1 0.368091 0.417800 0.349032
Si Si2 0.491869 0.949049 0.835844
Si Si3 0.500000 0.516272 0.250000
Si Si4 0.011699 0.305349 0.467768
Si Si5 0.135945 0.538046 0.564862
Si Si6 0.708376 0.746626 0.708916
Si Si7 0.859071 0.681344 0.094665
O O1 0.118763 0.470329 0.332812
O O2 0.521183 0.458169 0.305506
O O3 0.571298 0.429065 0.417338
O O4 0.308312 0.334916 0.323496
O O5 0.717793 0.890871 0.870643
O O6 0.360363 0.966268 0.890771
O O7 0.264885 0.935824 0.771642
O O8 0.250000 0.250000 0.500000
O O9 0.034801 0.385290 0.435616
O O10 0.894770 0.326835 0.525562
O O11 0.825733 0.253349 0.414685
O O12 0.000000 0.500000 0.500000
O O13 0.500000 0.751816 0.750000
O O14 0.622051 0.800601 0.648579
O O15 0.000000 0.759892 0.750000
#
# Coordination Sequence:
#
# PCOD9291131 Si02
#       7
#     8   8   4   8   8   8   8
#     4  11  24  43  71 101 140 187 243 296 361 443
#     4  11  25  41  72  98 141 184 238 299 364 438
#     4  10  22  42  64  96 136 174 236 286 356 422
#     4  11  26  46  72  97 147 187 243 310 372 449
#     4  11  24  45  68 104 139 182 243 298 370 441
#     4  12  28  48  79 109 152 199 255 309 377 452
#     4  11  27  46  66 110 139 191 247 306 379 435
#
# _framework density 25.422436000000001
#
# number of rings (size 3 to 8) (size 9 to 14) (size 15 to 20)
#    0.000    0.923    3.846    1.385    9.692    1.846 
#    0.000    0.000    0.000    0.000    0.000    0.000 
#    0.000    0.000    0.000    0.000    0.000    0.000 
#
# Total GULP energy -144993.776179 kJ/mol
# GULP energy per Si atom -5576.683699 kJ/mol
# Density = 2.536457 g / cm^3
# Si number density = 25.422436 Si / 1000 Ang^3
#
#
#
# Elastic Constant Matrix: (Units=GPa)
#
#
# Indices 1 2 3 4 5 6 
#
# 1 70.9505 4.2086 17.7403 0.0000 33.6297 0.0000
# 2 4.2086 110.0918 23.2060 0.0000 5.8817 0.0000
# 3 17.7403 23.2060 120.9184 0.0000 38.7018 0.0000
# 4 0.0000 0.0000 0.0000 45.7034 0.0000 12.5293
# 5 33.6297 5.8817 38.7018 0.0000 41.7694 0.0000
# 6 0.0000 0.0000 0.0000 12.5293 0.0000 20.9471
#
#
#
# Elastic Compliance Matrix: (Units=1/GPa)
#
#
# Indices 1 2 3 4 5 6 
#
# 1 0.023976 -0.000517 0.003891 0.000000 -0.022836 0.000000
# 2 -0.000517 0.009485 -0.002061 0.000000 0.000990 0.000000
# 3 0.003891 -0.002061 0.012801 0.000000 -0.014703 0.000000
# 4 0.000000 0.000000 0.000000 0.026172 0.000000 -0.015654
# 5 -0.022836 0.000990 -0.014703 0.000000 0.055810 0.000000
# 6 0.000000 0.000000 0.000000 -0.015654 0.000000 0.057103
#
#
# Mechanical properties :
#
#
# Convention : Reuss Voigt Hill
#
# Bulk Modulus (GPa) = 20.45554 43.58559 32.02057
# Shear Modulus (GPa) = 25.12348 38.80436 31.96392
#
# Velocity S-wave (km/s) = 3.14704 3.91113 3.54971
# Velocity P-wave (km/s) = 4.61182 6.13007 5.42432
#
# Compressibility (1/GPa) = 0.04888650
#
# Stress axis : x y z
#
# Youngs Moduli (GPa) = 41.70807 105.43296 78.12068
#
# Poissons Ratio (x) = 0.05447 -0.30393
# Poissons Ratio (y) = 0.02155 0.16104
# Poissons Ratio (z) = -0.16227 0.21735
#
# Static dielectric constant tensor:
#      x y z
#    x 2.186910 0.000000 -0.031130 
#    y 0.000000 4.089230 0.000000 
#    z -0.031130 0.000000 2.102930 
# 
# From -- ./inp_files/286159.got.cif
#   From: 2010.05.17/outbox.cif.g08.bks.cpg/sg15_144_cif.got.tgz:286159.got - 2010.06.03 18:47:42.
