data_PCOD9291373
_publ_section_title
;
Structure prediction by ZEFSAII (Michael W. Deem and Ramdas Pophale) SiO2 
 PCOD9291373
Probable space group: C 2/C
;
_chemical_formula_sum "Si O2"
_cell_formula_units_Z 44
_cell_length_a 22.017932
_cell_length_b 9.045079
_cell_length_c 9.007980
_cell_angle_alpha 90.000000
_cell_angle_beta 114.591159
_cell_angle_gamma 90.000000
_cell_volume 1631.261752
_symmetry_space_group_name_H-M "C 2/C"
_symmetry_group_IT_number 15
_symmetry_cell_setting 'monoclinic'
loop_
_space_group_symop_operation_xyz
x,y,z
-x,y,1/2-z
-x,-y,-z
x,-y,1/2+z
1/2+x,1/2+y,z
1/2-x,1/2+y,1/2-z
1/2-x,1/2-y,-z
1/2+x,1/2-y,1/2+z
loop_
_atom_site_type_symbol
_atom_site_label
_atom_site_fract_x
_atom_site_fract_y
_atom_site_fract_z
Si Si1 0.097531 0.900881 0.038776
Si Si2 0.752109 0.016082 0.385763
Si Si3 0.427081 0.700731 0.651995
Si Si4 0.384202 0.143367 0.835490
Si Si5 0.500000 0.185093 0.750000
Si Si6 0.785647 0.146600 0.155798
O O1 0.176458 0.931845 0.081232
O O2 0.097117 0.854976 0.211984
O O3 0.050884 0.780012 0.907072
O O4 0.066591 0.056204 0.948632
O O5 0.679136 0.956202 0.269719
O O6 0.761967 0.011858 0.571757
O O7 0.759229 0.161182 0.295126
O O8 0.500000 0.762768 0.750000
O O9 0.390065 0.824213 0.515859
O O10 0.451213 0.102045 0.816859
O O11 0.361259 0.303243 0.743358
O O12 0.750000 0.250000 0.000000
#
# Coordination Sequence:
#
# PCOD9291373 Si02
#       6
#     8   8   8   8   4   8
#     4  12  22  34  63  93 139 184 223 291 346 414
#     4  11  23  42  66  99 135 179 231 284 340 411
#     4  12  22  36  58 102 138 176 231 288 364 406
#     4  11  24  41  64 100 138 182 231 281 347 413
#     4  12  22  40  62  96 140 186 226 282 354 408
#     4  10  22  42  66  99 135 179 226 284 341 404
#
# _framework density 26.972987
#
# number of rings (size 3 to 8) (size 9 to 14) (size 15 to 20)
#    0.000    0.727    6.364    2.727    0.000    0.727 
#    3.273    0.000    0.000    4.364    2.364    0.000 
#    0.000    0.000    0.000    0.000    0.000    0.000 
#
# Total GULP energy -122634.462693 kJ/mol
# GULP energy per Si atom -5574.293759 kJ/mol
# Density = 2.691159 g / cm^3
# Si number density = 26.972987 Si / 1000 Ang^3
#
#
#
# Elastic Constant Matrix: (Units=GPa)
#
#
# Indices 1 2 3 4 5 6 
#
# 1 131.3494 43.4210 48.5136 0.0000 21.2332 0.0000
# 2 43.4210 29.1931 29.5958 0.0000 1.7978 0.0000
# 3 48.5136 29.5958 169.9448 0.0000 19.7032 0.0000
# 4 0.0000 0.0000 0.0000 47.8429 0.0000 5.7044
# 5 21.2332 1.7978 19.7032 0.0000 48.7283 0.0000
# 6 0.0000 0.0000 0.0000 5.7044 0.0000 32.9743
#
#
#
# Elastic Compliance Matrix: (Units=1/GPa)
#
#
# Indices 1 2 3 4 5 6 
#
# 1 0.016767 -0.024835 0.000293 0.000000 -0.006509 0.000000
# 2 -0.024835 0.078485 -0.007866 0.000000 0.011107 0.000000
# 3 0.000293 -0.007866 0.007503 0.000000 -0.002872 0.000000
# 4 0.000000 0.000000 0.000000 0.021342 0.000000 -0.003692
# 5 -0.006509 0.011107 -0.002872 0.000000 0.024109 0.000000
# 6 0.000000 0.000000 0.000000 -0.003692 0.000000 0.030965
#
#
# Mechanical properties :
#
#
# Convention : Reuss Voigt Hill
#
# Bulk Modulus (GPa) = 26.35831 63.72756 45.04293
# Shear Modulus (GPa) = 19.48291 39.83956 29.66123
#
# Velocity S-wave (km/s) = 2.69050 3.84737 3.31972
# Velocity P-wave (km/s) = 4.40966 6.58893 5.60621
#
# Compressibility (1/GPa) = 0.03793871
#
# Stress axis : x y z
#
# Youngs Moduli (GPa) = 59.64046 12.74129 133.27355
#
# Poissons Ratio (x) = 0.31644 -0.03908
# Poissons Ratio (y) = 1.48120 1.04835
# Poissons Ratio (z) = -0.01749 0.10022
#
# Static dielectric constant tensor:
#      x y z
#    x 2.124640 0.000000 -0.135250 
#    y 0.000000 2.518790 0.000000 
#    z -0.135250 0.000000 2.166770 
# 
# From -- ./inp_files/60945.got.cif
#   From: 2010.05.17/outbox.cif.g08.bks.cpg/sg15_31_cif.got.tgz:60945.got - 2010.06.03 18:47:42.
