data_PCOD9291956
_publ_section_title
;
Structure prediction by ZEFSAII (Michael W. Deem and Ramdas Pophale) SiO2 
 PCOD9291956
Probable space group: C 2/C
;
_chemical_formula_sum "Si O2"
_cell_formula_units_Z 40
_cell_length_a 15.528560
_cell_length_b 5.534542
_cell_length_c 21.239407
_cell_angle_alpha 90.000000
_cell_angle_beta 110.029285
_cell_angle_gamma 90.000000
_cell_volume 1714.984576
_symmetry_space_group_name_H-M "C 2/C"
_symmetry_group_IT_number 15
_symmetry_cell_setting 'monoclinic'
loop_
_space_group_symop_operation_xyz
x,y,z
-x,y,1/2-z
-x,-y,-z
x,-y,1/2+z
1/2+x,1/2+y,z
1/2-x,1/2+y,1/2-z
1/2-x,1/2-y,-z
1/2+x,1/2-y,1/2+z
loop_
_atom_site_type_symbol
_atom_site_label
_atom_site_fract_x
_atom_site_fract_y
_atom_site_fract_z
Si Si1 0.518886 0.702626 0.557299
Si Si2 0.820796 0.842640 0.602920
Si Si3 0.706797 0.221783 0.764701
Si Si4 0.024340 0.007103 0.189004
Si Si5 0.154104 0.487261 0.006217
O O1 0.500000 0.500000 0.500000
O O2 0.557241 0.635389 0.635515
O O3 0.589774 0.884425 0.542468
O O4 0.415401 0.795753 0.539566
O O5 0.784286 0.723767 0.657740
O O6 0.823685 0.659258 0.546233
O O7 0.750563 0.057373 0.565307
O O8 0.925650 0.902096 0.642360
O O9 0.761084 0.462039 0.753530
O O10 0.600560 0.288144 0.721604
O O11 0.000000 0.880451 0.250000
#
# Coordination Sequence:
#
# PCOD9291956 Si02
#       5
#     8   8   8   8   8
#     4  11  22  40  68  96 133 182 227 287 345 420
#     4  10  22  43  64 103 134 181 233 293 354 416
#     4  11  26  46  73  99 140 188 237 290 355 429
#     4  10  23  43  67 100 135 176 233 289 356 421
#     4  10  23  41  66  98 138 176 236 288 350 420
#
# _framework density 23.323823000000001
#
# number of rings (size 3 to 8) (size 9 to 14) (size 15 to 20)
#    0.000    1.600    2.000    1.200    2.800    5.600 
#    0.000    6.000    0.000    0.000    0.000    0.000 
#    0.000    0.000    0.000    0.000    0.000    0.000 
#
# Total GULP energy -111590.415965 kJ/mol
# GULP energy per Si atom -5579.520798 kJ/mol
# Density = 2.327074 g / cm^3
# Si number density = 23.323823 Si / 1000 Ang^3
#
#
#
# Elastic Constant Matrix: (Units=GPa)
#
#
# Indices 1 2 3 4 5 6 
#
# 1 134.9320 28.8070 49.7431 0.0000 13.9047 0.0000
# 2 28.8070 33.0670 7.7537 -0.0003 0.8568 -0.0002
# 3 49.7431 7.7537 133.5192 0.0000 -4.9990 0.0000
# 4 0.0000 -0.0003 0.0000 -156.5614 0.0000 -26.2435
# 5 13.9047 0.8568 -4.9990 0.0000 62.1549 0.0000
# 6 0.0000 -0.0002 0.0000 -26.2435 0.0000 35.4380
#
#
#
# Elastic Compliance Matrix: (Units=1/GPa)
#
#
# Indices 1 2 3 4 5 6 
#
# 1 0.010841 -0.008523 -0.003641 0.000000 -0.002601 0.000000
# 2 -0.008523 0.037380 0.001060 0.000000 0.001477 0.000000
# 3 -0.003641 0.001060 0.008841 0.000000 0.001511 0.000000
# 4 0.000000 0.000000 0.000000 -0.005682 0.000000 -0.004208
# 5 -0.002601 0.001477 0.001511 0.000000 0.016772 0.000000
# 6 0.000000 0.000000 0.000000 -0.004208 0.000000 0.025102
#
#
# Mechanical properties :
#
#
# Convention : Reuss Voigt Hill
#
# Bulk Modulus (GPa) = 28.69190 52.68065 40.68628
# Shear Modulus (GPa) = 39.34480 2.55394 20.94937
#
# Velocity S-wave (km/s) = 4.11164 1.04755 3.00024
# Velocity P-wave (km/s) = 5.90500 4.90905 5.42991
#
# Compressibility (1/GPa) = 0.03485304
#
# Stress axis : x y z
#
# Youngs Moduli (GPa) = 92.24081 26.75223 113.10717
#
# Poissons Ratio (x) = 0.22802 0.41186
# Poissons Ratio (y) = 0.78620 -0.11989
# Poissons Ratio (z) = 0.33588 -0.02836
#
# Static dielectric constant tensor:
#      x y z
#    x 1.564370 0.000000 0.085380 
#    y 0.000000 1.061540 0.000000 
#    z 0.085380 0.000000 1.899310 
# 
# From -- ./inp_files/246298.got.cif
#   From: 2010.05.17/outbox.cif.g08.bks.cpg/sg15_124_cif.got.tgz:246298.got - 2010.06.03 18:47:42.
