data_PCOD9291996
_publ_section_title
;
Structure prediction by ZEFSAII (Michael W. Deem and Ramdas Pophale) SiO2 
 PCOD9291996
Probable space group: C 2/C
;
_chemical_formula_sum "Si O2"
_cell_formula_units_Z 28
_cell_length_a 9.552290
_cell_length_b 9.023865
_cell_length_c 24.787975
_cell_angle_alpha 90.000000
_cell_angle_beta 144.214608
_cell_angle_gamma 90.000000
_cell_volume 1249.430242
_symmetry_space_group_name_H-M "C 2/C"
_symmetry_group_IT_number 15
_symmetry_cell_setting 'monoclinic'
loop_
_space_group_symop_operation_xyz
x,y,z
-x,y,1/2-z
-x,-y,-z
x,-y,1/2+z
1/2+x,1/2+y,z
1/2-x,1/2+y,1/2-z
1/2-x,1/2-y,-z
1/2+x,1/2-y,1/2+z
loop_
_atom_site_type_symbol
_atom_site_label
_atom_site_fract_x
_atom_site_fract_y
_atom_site_fract_z
Si Si1 0.555542 0.036529 0.955061
Si Si2 0.784072 0.847460 0.718752
Si Si3 0.403393 0.367268 0.880634
Si Si4 0.000000 0.554335 0.750000
O O1 0.432775 0.195647 0.904692
O O2 0.448062 0.910744 0.882800
O O3 0.837502 0.058822 0.032861
O O4 0.500000 0.000000 0.000000
O O5 0.823713 0.879115 0.793343
O O6 0.828533 0.671451 0.726992
O O7 0.000000 0.914632 0.750000
O O8 0.186107 0.453493 0.841421
#
# Coordination Sequence:
#
# PCOD9291996 Si02
#       4
#     8   8   8   4
#     4  11  23  43  71 100 132 178 225 275 335 395
#     4  10  22  43  64  97 138 173 224 271 329 391
#     4  11  24  43  68  99 136 175 226 275 330 399
#     4  10  24  40  64  98 128 172 220 268 332 392
#
# _framework density 22.410215999999998
#
# number of rings (size 3 to 8) (size 9 to 14) (size 15 to 20)
#    0.857    0.571    2.857    1.714    2.000    3.429 
#    0.000   20.000    0.000    0.000    0.000    0.000 
#    0.000    0.000    0.000    0.000    0.000    0.000 
#
# Total GULP energy -78152.159893 kJ/mol
# GULP energy per Si atom -5582.297135 kJ/mol
# Density = 2.235921 g / cm^3
# Si number density = 22.410216 Si / 1000 Ang^3
#
#
#
# Elastic Constant Matrix: (Units=GPa)
#
#
# Indices 1 2 3 4 5 6 
#
# 1 77.3427 50.2812 57.8449 0.0000 -6.3591 0.0000
# 2 50.2812 142.9573 98.9450 0.0000 24.6136 0.0000
# 3 57.8449 98.9450 162.7304 0.0000 3.2720 0.0000
# 4 0.0000 0.0000 0.0000 43.4704 0.0000 17.5950
# 5 -6.3591 24.6136 3.2720 0.0000 48.5419 0.0000
# 6 0.0000 0.0000 0.0000 17.5950 0.0000 21.3637
#
#
#
# Elastic Compliance Matrix: (Units=1/GPa)
#
#
# Indices 1 2 3 4 5 6 
#
# 1 0.019680 -0.005073 -0.004020 0.000000 0.005421 0.000000
# 2 -0.005073 0.015151 -0.007251 0.000000 -0.007858 0.000000
# 3 -0.004020 -0.007251 0.011936 0.000000 0.002346 0.000000
# 4 0.000000 0.000000 0.000000 0.034507 0.000000 -0.028420
# 5 0.005421 -0.007858 0.002346 0.000000 0.025137 0.000000
# 6 0.000000 0.000000 0.000000 -0.028420 0.000000 0.070215
#
#
# Mechanical properties :
#
#
# Convention : Reuss Voigt Hill
#
# Bulk Modulus (GPa) = 71.02920 88.57473 79.80197
# Shear Modulus (GPa) = 23.36375 34.40582 28.88478
#
# Velocity S-wave (km/s) = 3.23236 3.92251 3.59404
# Velocity P-wave (km/s) = 6.75978 7.75402 7.27391
#
# Compressibility (1/GPa) = 0.01407872
#
# Stress axis : x y z
#
# Youngs Moduli (GPa) = 50.81383 66.00246 83.78164
#
# Poissons Ratio (x) = 0.33482 0.33680
# Poissons Ratio (y) = 0.25777 0.60750
# Poissons Ratio (z) = 0.20427 0.47859
#
# Static dielectric constant tensor:
#      x y z
#    x 1.888870 0.000000 0.017370 
#    y 0.000000 1.845300 0.000000 
#    z 0.017370 0.000000 1.784580 
# 
# From -- ./inp_files/131869.got.cif
#   From: 2010.05.17/outbox.cif.g08.bks.cpg/sg15_66_cif.got.tgz:131869.got - 2010.06.03 18:47:42.
