data_PCOD9291329
_publ_section_title
;
Structure prediction by ZEFSAII (Michael W. Deem and Ramdas Pophale) SiO2 
 PCOD9291329
Probable space group: C 2/C
;
_chemical_formula_sum "Si O2"
_cell_formula_units_Z 36
_cell_length_a 11.968748
_cell_length_b 8.716905
_cell_length_c 15.659547
_cell_angle_alpha 90.000000
_cell_angle_beta 62.023113
_cell_angle_gamma 90.000000
_cell_volume 1442.840300
_symmetry_space_group_name_H-M "C 2/C"
_symmetry_group_IT_number 15
_symmetry_cell_setting 'monoclinic'
loop_
_space_group_symop_operation_xyz
x,y,z
-x,y,1/2-z
-x,-y,-z
x,-y,1/2+z
1/2+x,1/2+y,z
1/2-x,1/2+y,1/2-z
1/2-x,1/2-y,-z
1/2+x,1/2-y,1/2+z
loop_
_atom_site_type_symbol
_atom_site_label
_atom_site_fract_x
_atom_site_fract_y
_atom_site_fract_z
Si Si1 0.881561 0.631355 0.419544
Si Si2 0.222116 0.800077 0.726360
Si Si3 0.115297 0.118481 0.451703
Si Si4 0.000000 0.588507 0.750000
Si Si5 0.636925 0.595043 0.709832
O O1 0.913974 0.713812 0.496537
O O2 0.740113 0.560776 0.459160
O O3 0.867257 0.777297 0.361074
O O4 0.979855 0.517759 0.340250
O O5 0.157127 0.854925 0.838930
O O6 0.338688 0.695065 0.713616
O O7 0.123878 0.690269 0.715216
O O8 0.238386 0.958824 0.670337
O O9 0.000000 0.000000 0.500000
O O10 0.500000 0.518367 0.750000
#
# Coordination Sequence:
#
# PCOD9291329 Si02
#       5
#     8   8   8   4   8
#     4  10  23  41  67  94 139 173 222 282 332 394
#     4  11  24  40  69  99 134 177 230 272 340 402
#     4  10  22  42  66  95 131 182 219 274 345 395
#     4  12  24  42  66 106 134 178 232 274 332 406
#     4  11  21  41  66  96 131 178 220 284 324 394
#
# _framework density 24.950786999999998
#
# number of rings (size 3 to 8) (size 9 to 14) (size 15 to 20)
#    0.000    1.333    2.222    4.000    0.000    0.889 
#    0.000    1.111    0.000    0.000    0.000    0.000 
#    0.000    0.000    0.000    0.000    0.000    0.000 
#
# Total GULP energy -100612.633443 kJ/mol
# GULP energy per Si atom -5589.590747 kJ/mol
# Density = 2.489400 g / cm^3
# Si number density = 24.950787 Si / 1000 Ang^3
#
#
#
# Elastic Constant Matrix: (Units=GPa)
#
#
# Indices 1 2 3 4 5 6 
#
# 1 116.6762 50.1887 3.1323 0.0000 -1.8969 0.0000
# 2 50.1887 137.6309 16.0770 0.0000 2.9040 0.0000
# 3 3.1323 16.0770 45.9241 0.0000 4.6272 0.0000
# 4 0.0000 0.0000 0.0000 16.9544 0.0000 -7.1147
# 5 -1.8969 2.9040 4.6272 0.0000 30.1298 0.0000
# 6 0.0000 0.0000 0.0000 -7.1147 0.0000 49.2959
#
#
#
# Elastic Compliance Matrix: (Units=1/GPa)
#
#
# Indices 1 2 3 4 5 6 
#
# 1 0.010208 -0.003805 0.000543 0.000000 0.000926 0.000000
# 2 -0.003805 0.008997 -0.002822 0.000000 -0.000673 0.000000
# 3 0.000543 -0.002822 0.023052 0.000000 -0.003234 0.000000
# 4 0.000000 0.000000 0.000000 0.062784 0.000000 0.009061
# 5 0.000926 -0.000673 -0.003234 0.000000 0.033810 0.000000
# 6 0.000000 0.000000 0.000000 0.009061 0.000000 0.021593
#
#
# Mechanical properties :
#
#
# Convention : Reuss Voigt Hill
#
# Bulk Modulus (GPa) = 33.23686 48.78082 41.00884
# Shear Modulus (GPa) = 27.37559 34.66489 31.02024
#
# Velocity S-wave (km/s) = 3.31597 3.73142 3.52981
# Velocity P-wave (km/s) = 5.29252 6.17721 5.75190
#
# Compressibility (1/GPa) = 0.03008708
#
# Stress axis : x y z
#
# Youngs Moduli (GPa) = 97.96103 111.14315 43.38027
#
# Poissons Ratio (x) = 0.42295 -0.02354
# Poissons Ratio (y) = 0.37279 0.12244
# Poissons Ratio (z) = -0.05316 0.31369
#
# Static dielectric constant tensor:
#      x y z
#    x 2.011790 0.000000 -0.041770 
#    y 0.000000 1.963050 0.000000 
#    z -0.041770 0.000000 2.083540 
# 
# From -- ./inp_files/194949.got.cif
#   From: 2010.05.17/outbox.cif.g08.bks.cpg/sg15_98_cif.got.tgz:194949.got - 2010.06.03 18:47:42.
