data_PCOD9291617
_publ_section_title
;
Structure prediction by ZEFSAII (Michael W. Deem and Ramdas Pophale) SiO2 
 PCOD9291617
Probable space group: C 2/C
;
_chemical_formula_sum "Si O2"
_cell_formula_units_Z 40
_cell_length_a 5.031024
_cell_length_b 24.019243
_cell_length_c 17.152677
_cell_angle_alpha 90.000000
_cell_angle_beta 73.127466
_cell_angle_gamma 90.000000
_cell_volume 1983.527130
_symmetry_space_group_name_H-M "C 2/C"
_symmetry_group_IT_number 15
_symmetry_cell_setting 'monoclinic'
loop_
_space_group_symop_operation_xyz
x,y,z
-x,y,1/2-z
-x,-y,-z
x,-y,1/2+z
1/2+x,1/2+y,z
1/2-x,1/2+y,1/2-z
1/2-x,1/2-y,-z
1/2+x,1/2-y,1/2+z
loop_
_atom_site_type_symbol
_atom_site_label
_atom_site_fract_x
_atom_site_fract_y
_atom_site_fract_z
Si Si1 0.000000 0.802765 0.250000
Si Si2 0.824943 0.884399 0.696332
Si Si3 0.022801 0.526094 0.835050
Si Si4 0.000000 0.222575 0.250000
Si Si5 0.201164 0.051184 0.460017
Si Si6 0.530221 0.402322 0.129867
O O1 0.242752 0.762952 0.259561
O O2 0.053990 0.844062 0.172314
O O3 0.500000 0.878033 0.750000
O O4 0.871963 0.915076 0.611515
O O5 0.000000 0.914192 0.750000
O O6 0.968034 0.822915 0.683120
O O7 0.973467 0.481249 0.907181
O O8 0.782073 0.574233 0.856437
O O9 0.000000 0.501656 0.750000
O O10 0.309300 0.554717 0.828820
O O11 0.192409 0.092211 0.533983
O O12 0.000000 0.000000 0.500000
#
# Coordination Sequence:
#
# PCOD9291617 Si02
#       6
#     4   8   8   4   8   8
#     4  12  20  42  67  86 119 168 214 270 312 348
#     4  10  22  44  67  91 125 164 213 252 305 382
#     4  11  20  38  58  92 127 171 199 241 310 383
#     4  10  22  42  69  86 113 168 220 262 308 356
#     4  10  24  39  63  96 133 165 196 253 314 380
#     4  11  23  38  59  94 130 154 212 255 308 370
#
# _framework density 20.166096
#
# number of rings (size 3 to 8) (size 9 to 14) (size 15 to 20)
#    0.600    0.800    3.000    2.400    0.000    9.600 
#    0.000    2.000    0.000    0.000    0.000    0.000 
#    0.000    0.000    0.000    0.000    0.000    0.000 
#
# Total GULP energy -111467.536100 kJ/mol
# GULP energy per Si atom -5573.376805 kJ/mol
# Density = 2.012020 g / cm^3
# Si number density = 20.166096 Si / 1000 Ang^3
#
#
#
# Elastic Constant Matrix: (Units=GPa)
#
#
# Indices 1 2 3 4 5 6 
#
# 1 114.9594 42.4330 48.2803 0.0000 9.8514 0.0000
# 2 42.4330 139.6215 63.7196 0.0000 6.7410 0.0000
# 3 48.2803 63.7196 156.5430 0.0000 13.2731 0.0000
# 4 0.0000 0.0000 0.0000 4.2451 0.0000 -13.2610
# 5 9.8514 6.7410 13.2731 0.0000 22.4712 0.0000
# 6 0.0000 0.0000 0.0000 -13.2610 0.0000 21.1533
#
#
#
# Elastic Compliance Matrix: (Units=1/GPa)
#
#
# Indices 1 2 3 4 5 6 
#
# 1 0.010628 -0.002097 -0.002192 0.000000 -0.002735 0.000000
# 2 -0.002097 0.009217 -0.003104 0.000000 -0.000012 0.000000
# 3 -0.002192 -0.003104 0.008598 0.000000 -0.003186 0.000000
# 4 0.000000 0.000000 0.000000 -0.245810 0.000000 -0.154098
# 5 -0.002735 -0.000012 -0.003186 0.000000 0.047586 0.000000
# 6 0.000000 0.000000 0.000000 -0.154098 0.000000 -0.049330
#
#
# Mechanical properties :
#
#
# Convention : Reuss Voigt Hill
#
# Bulk Modulus (GPa) = 73.22964 79.99883 76.61424
# Shear Modulus (GPa) = -25.02841 26.68666 0.82912
#
# Velocity S-wave (km/s) = -3.52677 3.64172 0.64190
# Velocity P-wave (km/s) = 4.45062 7.57885 6.21478
#
# Compressibility (1/GPa) = 0.01365567
#
# Stress axis : x y z
#
# Youngs Moduli (GPa) = 94.09125 108.49880 116.31170
#
# Poissons Ratio (x) = 0.22758 0.25497
# Poissons Ratio (y) = 0.19736 0.36099
# Poissons Ratio (z) = 0.20626 0.33674
#
# Static dielectric constant tensor:
#      x y z
#    x 1.745860 0.000000 -0.005200 
#    y 0.000000 1.743210 0.000000 
#    z -0.005200 0.000000 1.770060 
# 
# From -- ./inp_files/185059.got.cif
#   From: 2010.05.17/outbox.cif.g08.bks.cpg/sg15_93_cif.got.tgz:185059.got - 2010.06.03 18:47:42.
