data_PCOD9291202
_publ_section_title
;
Structure prediction by ZEFSAII (Michael W. Deem and Ramdas Pophale) SiO2 
 PCOD9291202
Probable space group: C 2/C
;
_chemical_formula_sum "Si O2"
_cell_formula_units_Z 60
_cell_length_a 9.638479
_cell_length_b 9.855023
_cell_length_c 29.101023
_cell_angle_alpha 90.000000
_cell_angle_beta 96.669956
_cell_angle_gamma 90.000000
_cell_volume 2745.522278
_symmetry_space_group_name_H-M "C 2/C"
_symmetry_group_IT_number 15
_symmetry_cell_setting 'monoclinic'
loop_
_space_group_symop_operation_xyz
x,y,z
-x,y,1/2-z
-x,-y,-z
x,-y,1/2+z
1/2+x,1/2+y,z
1/2-x,1/2+y,1/2-z
1/2-x,1/2-y,-z
1/2+x,1/2-y,1/2+z
loop_
_atom_site_type_symbol
_atom_site_label
_atom_site_fract_x
_atom_site_fract_y
_atom_site_fract_z
Si Si1 0.644306 0.915644 0.911862
Si Si2 0.189191 0.896409 0.205664
Si Si3 0.018586 0.544901 0.818057
Si Si4 0.183128 0.320075 0.453483
Si Si5 0.943956 0.166354 0.897408
Si Si6 0.000000 0.295888 0.750000
Si Si7 0.466047 0.369463 0.899926
Si Si8 0.425684 0.312865 0.796158
O O1 0.564673 0.008000 0.870875
O O2 0.550188 0.784489 0.913102
O O3 0.797227 0.871635 0.899163
O O4 0.659720 0.017535 0.955341
O O5 0.096008 0.853717 0.157783
O O6 0.127846 0.806739 0.244573
O O7 0.349802 0.876491 0.199301
O O8 0.180018 0.059595 0.210936
O O9 0.999595 0.402126 0.792015
O O10 0.894986 0.653110 0.805458
O O11 0.250000 0.250000 0.500000
O O12 0.298797 0.307187 0.417725
O O13 0.044226 0.240256 0.433465
O O14 0.006464 0.022041 0.915287
O O15 0.502704 0.347658 0.847620
O O16 0.500000 0.325749 0.750000
#
# Coordination Sequence:
#
# PCOD9291202 Si02
#       8
#     8   8   8   8   8   4   8   8
#     4  11  22  41  67  94 130 160 214 266 320 387
#     4  11  23  40  58  87 128 167 212 264 311 371
#     4  12  23  40  58  91 126 174 213 259 316 371
#     4  11  24  45  69  94 129 170 213 267 330 391
#     4  10  22  42  65  95 128 167 212 266 320 388
#     4  12  26  34  62  92 124 170 224 254 308 376
#     4  10  22  43  64  94 128 175 206 266 327 376
#     4  11  21  38  60  89 126 164 217 257 305 377
#
# _framework density 21.853764999999999
#
# number of rings (size 3 to 8) (size 9 to 14) (size 15 to 20)
#    0.000    1.067    8.000    0.000    1.867    3.733 
#    0.000    2.667    0.000    0.000    0.000    0.000 
#    0.000    0.000    0.000    0.000    0.000    0.000 
#
# Total GULP energy -167331.455626 kJ/mol
# GULP energy per Si atom -5577.715188 kJ/mol
# Density = 2.180402 g / cm^3
# Si number density = 21.853765 Si / 1000 Ang^3
#
#
#
# Elastic Constant Matrix: (Units=GPa)
#
#
# Indices 1 2 3 4 5 6 
#
# 1 57.7429 62.7277 -2.3566 0.0000 9.7293 0.0000
# 2 62.7277 146.2318 -0.1465 0.0000 2.6139 0.0000
# 3 -2.3566 -0.1465 17.6953 0.0000 12.8697 0.0000
# 4 0.0000 0.0000 0.0000 11.3322 0.0000 15.9017
# 5 9.7293 2.6139 12.8697 0.0000 17.7278 0.0000
# 6 0.0000 0.0000 0.0000 15.9017 0.0000 30.4720
#
#
#
# Elastic Compliance Matrix: (Units=1/GPa)
#
#
# Indices 1 2 3 4 5 6 
#
# 1 0.056054 -0.022749 0.057650 0.000000 -0.069261 0.000000
# 2 -0.022749 0.016113 -0.021713 0.000000 0.025872 0.000000
# 3 0.057650 -0.021713 0.179431 0.000000 -0.158698 0.000000
# 4 0.000000 0.000000 0.000000 0.329601 0.000000 -0.172001
# 5 -0.069261 0.025872 -0.158698 0.000000 0.205815 0.000000
# 6 0.000000 0.000000 0.000000 -0.172001 0.000000 0.122575
#
#
# Mechanical properties :
#
#
# Convention : Reuss Voigt Hill
#
# Bulk Modulus (GPa) = 3.59746 38.01325 20.80535
# Shear Modulus (GPa) = 5.12363 22.66942 13.89652
#
# Velocity S-wave (km/s) = 1.53284 3.22424 2.52442
# Velocity P-wave (km/s) = 2.18690 5.59403 4.24710
#
# Compressibility (1/GPa) = 0.27797377
#
# Stress axis : x y z
#
# Youngs Moduli (GPa) = 17.83983 62.06249 5.57318
#
# Poissons Ratio (x) = 1.41188 -0.32130
# Poissons Ratio (y) = 0.40584 0.12101
# Poissons Ratio (z) = -1.02847 1.34758
#
# Static dielectric constant tensor:
#      x y z
#    x 1.788750 0.000000 0.007630 
#    y 0.000000 1.867790 0.000000 
#    z 0.007630 0.000000 1.836920 
# 
# From -- ./inp_files/310013.got.cif
#   From: 2010.05.17/outbox.cif.g08.bks.cpg/sg15_156_cif.got.tgz:310013.got - 2010.06.03 18:47:42.
