data_PCOD9291974
_publ_section_title
;
Structure prediction by ZEFSAII (Michael W. Deem and Ramdas Pophale) SiO2 
 PCOD9291974
Probable space group: C 2/C
;
_chemical_formula_sum "Si O2"
_cell_formula_units_Z 48
_cell_length_a 17.497256
_cell_length_b 12.352174
_cell_length_c 13.422167
_cell_angle_alpha 90.000000
_cell_angle_beta 49.020738
_cell_angle_gamma 90.000000
_cell_volume 2190.041992
_symmetry_space_group_name_H-M "C 2/C"
_symmetry_group_IT_number 15
_symmetry_cell_setting 'monoclinic'
loop_
_space_group_symop_operation_xyz
x,y,z
-x,y,1/2-z
-x,-y,-z
x,-y,1/2+z
1/2+x,1/2+y,z
1/2-x,1/2+y,1/2-z
1/2-x,1/2-y,-z
1/2+x,1/2-y,1/2+z
loop_
_atom_site_type_symbol
_atom_site_label
_atom_site_fract_x
_atom_site_fract_y
_atom_site_fract_z
Si Si1 0.361727 0.437436 0.835998
Si Si2 0.500000 0.366671 0.250000
Si Si3 0.084869 0.219112 0.355029
Si Si4 0.294895 0.115936 0.874784
Si Si5 0.956596 0.681364 0.126705
Si Si6 0.256731 0.579401 0.223986
Si Si7 0.500000 0.999924 0.250000
O O1 0.406328 0.549258 0.838207
O O2 0.447048 0.368980 0.700915
O O3 0.280415 0.458607 0.816400
O O4 0.298914 0.370142 0.970815
O O5 0.474752 0.286699 0.179887
O O6 0.170182 0.285569 0.223252
O O7 0.143635 0.148452 0.386954
O O8 0.008779 0.296786 0.475777
O O9 0.259456 0.021584 0.831665
O O10 0.398691 0.072452 0.837000
O O11 0.840276 0.654961 0.205359
O O12 0.998003 0.579042 0.155082
#
# Coordination Sequence:
#
# PCOD9291974 Si02
#       7
#     8   4   8   8   8   8   4
#     4  10  25  41  61  98 125 171 215 258 325 379
#     4  11  24  43  68  92 134 169 208 281 306 384
#     4  10  24  38  64  92 123 169 207 266 314 383
#     4  11  22  41  64  90 134 164 213 269 315 380
#     4  10  22  43  64  94 128 165 219 259 322 378
#     4   9  24  40  62  98 120 175 213 255 325 382
#     4   9  24  37  64  94 120 171 210 265 318 374
#
# _framework density 21.917387999999999
#
# number of rings (size 3 to 8) (size 9 to 14) (size 15 to 20)
#    1.000    1.000    0.000    1.500    7.000    4.000 
#    0.000    5.000    0.000    0.000    0.000    0.000 
#    0.000    0.000    0.000    0.000    0.000    0.000 
#
# Total GULP energy -133812.886443 kJ/mol
# GULP energy per Si atom -5575.536935 kJ/mol
# Density = 2.186750 g / cm^3
# Si number density = 21.917388 Si / 1000 Ang^3
#
#
#
# Elastic Constant Matrix: (Units=GPa)
#
#
# Indices 1 2 3 4 5 6 
#
# 1 86.9515 18.6376 -4.0937 0.0000 9.0600 0.0000
# 2 18.6376 66.2618 12.7208 0.0000 -1.0961 0.0000
# 3 -4.0937 12.7208 71.9402 0.0000 22.4526 0.0000
# 4 0.0000 0.0000 0.0000 11.7579 0.0000 -27.5072
# 5 9.0600 -1.0961 22.4526 0.0000 11.9075 0.0000
# 6 0.0000 0.0000 0.0000 -27.5072 0.0000 -16.0393
#
#
#
# Elastic Compliance Matrix: (Units=1/GPa)
#
#
# Indices 1 2 3 4 5 6 
#
# 1 0.020184 -0.010319 0.019593 0.000000 -0.053251 0.000000
# 2 -0.010319 0.022290 -0.018516 0.000000 0.044818 0.000000
# 3 0.019593 -0.018516 0.057044 0.000000 -0.124175 0.000000
# 4 0.000000 0.000000 0.000000 0.016969 0.000000 -0.029101
# 5 -0.053251 0.044818 -0.124175 0.000000 0.362766 0.000000
# 6 0.000000 0.000000 0.000000 -0.029101 0.000000 -0.012439
#
#
# Mechanical properties :
#
#
# Convention : Reuss Voigt Hill
#
# Bulk Modulus (GPa) = 12.34067 31.07587 21.70827
# Shear Modulus (GPa) = 9.75971 14.71779 12.23875
#
# Velocity S-wave (km/s) = 2.11249 2.59417 2.36562
# Velocity P-wave (km/s) = 3.40484 4.81481 4.16985
#
# Compressibility (1/GPa) = 0.08103288
#
# Stress axis : x y z
#
# Youngs Moduli (GPa) = 49.54516 44.86248 17.53020
#
# Poissons Ratio (x) = 0.46295 -0.34347
# Poissons Ratio (y) = 0.51128 0.32460
# Poissons Ratio (z) = -0.97074 0.83069
#
# Static dielectric constant tensor:
#      x y z
#    x 1.823820 0.000000 -0.001970 
#    y 0.000000 1.803550 0.000000 
#    z -0.001970 0.000000 1.798230 
# 
# From -- ./inp_files/167860.got.cif
#   From: 2010.05.17/outbox.cif.g08.bks.cpg/sg15_84_cif.got.tgz:167860.got - 2010.06.03 18:47:42.
