data_PCOD9291054
_publ_section_title
;
Structure prediction by ZEFSAII (Michael W. Deem and Ramdas Pophale) SiO2 
 PCOD9291054
Probable space group: C 2/C
;
_chemical_formula_sum "Si O2"
_cell_formula_units_Z 52
_cell_length_a 9.673917
_cell_length_b 17.203942
_cell_length_c 14.672908
_cell_angle_alpha 90.000000
_cell_angle_beta 113.912564
_cell_angle_gamma 90.000000
_cell_volume 2232.395585
_symmetry_space_group_name_H-M "C 2/C"
_symmetry_group_IT_number 15
_symmetry_cell_setting 'monoclinic'
loop_
_space_group_symop_operation_xyz
x,y,z
-x,y,1/2-z
-x,-y,-z
x,-y,1/2+z
1/2+x,1/2+y,z
1/2-x,1/2+y,1/2-z
1/2-x,1/2-y,-z
1/2+x,1/2-y,1/2+z
loop_
_atom_site_type_symbol
_atom_site_label
_atom_site_fract_x
_atom_site_fract_y
_atom_site_fract_z
Si Si1 0.844572 0.547652 0.964008
Si Si2 0.801146 0.914994 0.651201
Si Si3 0.012352 0.349647 0.856587
Si Si4 0.082523 0.214562 0.435534
Si Si5 0.881233 0.349395 0.295898
Si Si6 0.547612 0.674507 0.628395
Si Si7 0.500000 0.460158 0.250000
O O1 0.728239 0.476485 0.938772
O O2 0.840379 0.591257 0.865627
O O3 0.000000 0.500000 0.000000
O O4 0.859010 0.608260 0.049811
O O5 0.647039 0.874177 0.640634
O O6 0.903907 0.847547 0.640513
O O7 0.871563 0.976083 0.741264
O O8 0.026371 0.256445 0.861981
O O9 0.000000 0.376883 0.750000
O O10 0.250000 0.250000 0.500000
O O11 0.034458 0.174476 0.516560
O O12 0.967196 0.280019 0.371352
O O13 0.724715 0.324477 0.205974
O O14 0.000000 0.377695 0.250000
O O15 0.478312 0.600312 0.661199
#
# Coordination Sequence:
#
# PCOD9291054 Si02
#       7
#     8   8   8   8   8   8   4
#     4  10  22  42  64 101 136 172 230 292 347 394
#     4  11  25  44  69 104 141 180 224 304 348 404
#     4  11  23  44  74  98 134 182 239 280 345 424
#     4  12  23  44  75 104 139 180 243 286 340 425
#     4  12  23  40  73 107 132 187 239 285 346 417
#     4  12  25  45  70 102 141 191 229 289 349 416
#     4  12  28  48  64 102 154 174 228 294 360 408
#
# _framework density 23.293364
#
# number of rings (size 3 to 8) (size 9 to 14) (size 15 to 20)
#    0.000    0.615    6.923    0.923    3.231    4.308 
#    2.769    2.308    0.000    0.000    0.000    0.000 
#    0.000    0.000    0.000    0.000    0.000    0.000 
#
# Total GULP energy -145255.235536 kJ/mol
# GULP energy per Si atom -5586.739828 kJ/mol
# Density = 2.324035 g / cm^3
# Si number density = 23.293364 Si / 1000 Ang^3
#
#
#
# Elastic Constant Matrix: (Units=GPa)
#
#
# Indices 1 2 3 4 5 6 
#
# 1 43.2257 17.8657 10.8427 0.0000 -0.9347 0.0000
# 2 17.8657 126.9063 23.3715 0.0000 3.8676 0.0000
# 3 10.8427 23.3715 113.1374 0.0000 -19.6678 0.0000
# 4 0.0000 0.0000 0.0000 37.4323 0.0000 5.8325
# 5 -0.9347 3.8676 -19.6678 0.0000 36.4630 0.0000
# 6 0.0000 0.0000 0.0000 5.8325 0.0000 31.5032
#
#
#
# Elastic Compliance Matrix: (Units=1/GPa)
#
#
# Indices 1 2 3 4 5 6 
#
# 1 0.024884 -0.003188 -0.001718 0.000000 0.000050 0.000000
# 2 -0.003188 0.008730 -0.001846 0.000000 -0.002003 0.000000
# 3 -0.001718 -0.001846 0.010385 0.000000 0.005753 0.000000
# 4 0.000000 0.000000 0.000000 0.027508 0.000000 -0.005093
# 5 0.000050 -0.002003 0.005753 0.000000 0.030742 0.000000
# 6 0.000000 0.000000 0.000000 -0.005093 0.000000 0.032686
#
#
# Mechanical properties :
#
#
# Convention : Reuss Voigt Hill
#
# Bulk Modulus (GPa) = 32.79249 43.04769 37.92009
# Shear Modulus (GPa) = 31.52510 36.49235 34.00872
#
# Velocity S-wave (km/s) = 3.68284 3.96238 3.82516
# Velocity P-wave (km/s) = 5.67389 6.28130 5.98530
#
# Compressibility (1/GPa) = 0.03049478
#
# Stress axis : x y z
#
# Youngs Moduli (GPa) = 40.18640 114.55131 96.29340
#
# Poissons Ratio (x) = 0.36523 0.16539
# Poissons Ratio (y) = 0.12813 0.17776
# Poissons Ratio (z) = 0.06902 0.21147
#
# Static dielectric constant tensor:
#      x y z
#    x 1.988570 0.000000 0.124630 
#    y 0.000000 1.767120 0.000000 
#    z 0.124630 0.000000 1.969410 
# 
# From -- ./inp_files/144346.got.cif
#   From: 2010.05.17/outbox.cif.g08.bks.cpg/sg15_73_cif.got.tgz:144346.got - 2010.06.03 18:47:42.
