data_PCOD9291312
_publ_section_title
;
Structure prediction by ZEFSAII (Michael W. Deem and Ramdas Pophale) SiO2 
 PCOD9291312
Probable space group: C 2/C
;
_chemical_formula_sum "Si O2"
_cell_formula_units_Z 56
_cell_length_a 7.933719
_cell_length_b 10.883684
_cell_length_c 26.126566
_cell_angle_alpha 90.000000
_cell_angle_beta 66.519153
_cell_angle_gamma 90.000000
_cell_volume 2069.168944
_symmetry_space_group_name_H-M "C 2/C"
_symmetry_group_IT_number 15
_symmetry_cell_setting 'monoclinic'
loop_
_space_group_symop_operation_xyz
x,y,z
-x,y,1/2-z
-x,-y,-z
x,-y,1/2+z
1/2+x,1/2+y,z
1/2-x,1/2+y,1/2-z
1/2-x,1/2-y,-z
1/2+x,1/2-y,1/2+z
loop_
_atom_site_type_symbol
_atom_site_label
_atom_site_fract_x
_atom_site_fract_y
_atom_site_fract_z
Si Si1 0.222651 0.497802 0.469844
Si Si2 0.696583 0.936905 0.798153
Si Si3 0.104861 0.252151 0.579860
Si Si4 0.348363 0.318366 0.313367
Si Si5 0.758470 0.437714 0.820853
Si Si6 0.232129 0.461612 0.078741
Si Si7 0.792650 0.209909 0.384958
O O1 0.266568 0.353178 0.458210
O O2 0.304197 0.553685 0.512633
O O3 0.307384 0.584740 0.415412
O O4 0.000000 0.500000 0.500000
O O5 0.786139 0.969973 0.732015
O O6 0.480093 0.937180 0.807468
O O7 0.776611 0.828181 0.825743
O O8 0.744447 0.055430 0.824465
O O9 0.068325 0.204483 0.641666
O O10 0.155806 0.396419 0.579474
O O11 0.914734 0.250693 0.573802
O O12 0.207143 0.205047 0.325434
O O13 0.674152 0.513239 0.877379
O O14 0.000000 0.193115 0.750000
O O15 0.116026 0.337704 0.106667
#
# Coordination Sequence:
#
# PCOD9291312 Si02
#       7
#     8   8   8   8   8   8   8
#     4  12  24  47  73  98 140 180 227 288 340 401
#     4  11  21  41  68  95 132 176 221 280 339 396
#     4  11  24  46  69 100 133 185 223 278 347 404
#     4  11  21  40  68  95 131 174 224 273 345 405
#     4  10  22  42  66  94 132 177 224 274 341 405
#     4  11  25  43  69 101 133 180 230 272 338 406
#     4  12  24  45  69  97 139 177 225 286 337 405
#
# _framework density 27.064007
#
# number of rings (size 3 to 8) (size 9 to 14) (size 15 to 20)
#    0.000    0.857    7.143    0.857    4.000    0.571 
#    2.571    1.429    0.000    0.000    0.000    0.000 
#    0.000    0.000    0.000    0.000    0.000    0.000 
#
# Total GULP energy -155997.177161 kJ/mol
# GULP energy per Si atom -5571.327756 kJ/mol
# Density = 2.700241 g / cm^3
# Si number density = 27.064007 Si / 1000 Ang^3
#
#
#
# Elastic Constant Matrix: (Units=GPa)
#
#
# Indices 1 2 3 4 5 6 
#
# 1 57.3800 30.3728 38.8643 0.0000 15.7549 0.0000
# 2 30.3728 188.6330 37.8314 0.0000 15.4759 0.0000
# 3 38.8643 37.8314 143.9698 0.0000 56.1146 0.0000
# 4 0.0000 0.0000 0.0000 50.6489 0.0000 10.1631
# 5 15.7549 15.4759 56.1146 0.0000 50.8269 0.0000
# 6 0.0000 0.0000 0.0000 10.1631 0.0000 37.4384
#
#
#
# Elastic Compliance Matrix: (Units=1/GPa)
#
#
# Indices 1 2 3 4 5 6 
#
# 1 0.022419 -0.002528 -0.005230 0.000000 -0.000406 0.000000
# 2 -0.002528 0.005882 -0.000826 0.000000 -0.000095 0.000000
# 3 -0.005230 -0.000826 0.013770 0.000000 -0.013330 0.000000
# 4 0.000000 0.000000 0.000000 0.020881 0.000000 -0.005668
# 5 -0.000406 -0.000095 -0.013330 0.000000 0.034547 0.000000
# 6 0.000000 0.000000 0.000000 -0.005668 0.000000 0.028249
#
#
# Mechanical properties :
#
#
# Convention : Reuss Voigt Hill
#
# Bulk Modulus (GPa) = 40.15272 67.12441 53.63856
# Shear Modulus (GPa) = 33.06508 46.64380 39.85444
#
# Velocity S-wave (km/s) = 3.49913 4.15596 3.84161
# Velocity P-wave (km/s) = 5.58512 6.91992 6.28804
#
# Compressibility (1/GPa) = 0.02490491
#
# Stress axis : x y z
#
# Youngs Moduli (GPa) = 44.60463 170.01617 72.61939
#
# Poissons Ratio (x) = 0.42975 0.37976
# Poissons Ratio (y) = 0.11275 0.05999
# Poissons Ratio (z) = 0.23326 0.14044
#
# Static dielectric constant tensor:
#      x y z
#    x 2.252940 0.000000 -0.102400 
#    y 0.000000 2.218130 0.000000 
#    z -0.102400 0.000000 2.291050 
# 
# From -- ./inp_files/307411.got.cif
#   From: 2010.05.17/outbox.cif.g08.bks.cpg/sg15_154_cif.got.tgz:307411.got - 2010.06.03 18:47:42.
