data_PCOD9291528
_publ_section_title
;
Structure prediction by ZEFSAII (Michael W. Deem and Ramdas Pophale) SiO2 
 PCOD9291528
Probable space group: C 2/C
;
_chemical_formula_sum "Si O2"
_cell_formula_units_Z 36
_cell_length_a 12.139093
_cell_length_b 27.559568
_cell_length_c 5.456485
_cell_angle_alpha 90.000000
_cell_angle_beta 56.308422
_cell_angle_gamma 90.000000
_cell_volume 1518.845349
_symmetry_space_group_name_H-M "C 2/C"
_symmetry_group_IT_number 15
_symmetry_cell_setting 'monoclinic'
loop_
_space_group_symop_operation_xyz
x,y,z
-x,y,1/2-z
-x,-y,-z
x,-y,1/2+z
1/2+x,1/2+y,z
1/2-x,1/2+y,1/2-z
1/2-x,1/2-y,-z
1/2+x,1/2-y,1/2+z
loop_
_atom_site_type_symbol
_atom_site_label
_atom_site_fract_x
_atom_site_fract_y
_atom_site_fract_z
Si Si1 0.149927 0.482360 0.369255
Si Si2 0.743431 0.120922 0.813272
Si Si3 0.000000 0.126822 0.250000
Si Si4 0.417220 0.794002 0.106251
Si Si5 0.858035 0.806139 0.556017
O O1 0.210246 0.513527 0.519777
O O2 0.160298 0.427540 0.452237
O O3 0.000000 0.500000 0.500000
O O4 0.891692 0.102010 0.557205
O O5 0.656426 0.155698 0.746100
O O6 0.768691 0.158998 0.002222
O O7 0.098145 0.162171 0.270571
O O8 0.500000 0.781117 0.250000
O O9 0.500000 0.801258 0.750000
O O10 0.318702 0.748519 0.172159
O O11 0.000000 0.798901 0.250000
#
# Coordination Sequence:
#
# PCOD9291528 Si02
#       5
#     8   8   4   8   8
#     4  10  25  46  71 101 139 170 229 297 359 413
#     4  11  25  41  75  97 141 193 234 290 357 419
#     4  10  22  42  68  94 144 184 242 270 358 408
#     4  11  25  40  67 107 147 186 241 287 349 413
#     4   9  20  42  62 101 142 190 233 289 335 422
#
# _framework density 23.702217999999998
#
# number of rings (size 3 to 8) (size 9 to 14) (size 15 to 20)
#    0.000    1.778    1.111    0.667   12.444    0.889 
#    0.000    1.111    0.000    0.000    0.000    0.000 
#    0.000    0.000    0.000    0.000    0.000    0.000 
#
# Total GULP energy -100268.095345 kJ/mol
# GULP energy per Si atom -5570.449741 kJ/mol
# Density = 2.364827 g / cm^3
# Si number density = 23.702218 Si / 1000 Ang^3
#
#
#
# Elastic Constant Matrix: (Units=GPa)
#
#
# Indices 1 2 3 4 5 6 
#
# 1 83.3996 50.7876 32.2656 0.0000 10.5781 0.0000
# 2 50.7876 130.6607 -4.2947 0.0000 -7.3131 0.0000
# 3 32.2656 -4.2947 109.1366 0.0000 -0.9606 0.0000
# 4 0.0000 0.0000 0.0000 17.5331 0.0000 12.4650
# 5 10.5781 -7.3131 -0.9606 0.0000 46.5930 0.0000
# 6 0.0000 0.0000 0.0000 12.4650 0.0000 21.2385
#
#
#
# Elastic Compliance Matrix: (Units=1/GPa)
#
#
# Indices 1 2 3 4 5 6 
#
# 1 0.020420 -0.008490 -0.006425 0.000000 -0.006101 0.000000
# 2 -0.008490 0.011262 0.002986 0.000000 0.003757 0.000000
# 3 -0.006425 0.002986 0.011199 0.000000 0.002158 0.000000
# 4 0.000000 0.000000 0.000000 0.097873 0.000000 -0.057442
# 5 -0.006101 0.003757 0.002158 0.000000 0.023482 0.000000
# 6 0.000000 0.000000 0.000000 -0.057442 0.000000 0.080797
#
#
# Mechanical properties :
#
#
# Convention : Reuss Voigt Hill
#
# Bulk Modulus (GPa) = 52.56620 53.41265 52.98943
# Shear Modulus (GPa) = 18.16657 33.36880 25.76769
#
# Velocity S-wave (km/s) = 2.77149 3.75618 3.30076
# Velocity P-wave (km/s) = 5.69802 6.43395 6.07713
#
# Compressibility (1/GPa) = 0.01902363
#
# Stress axis : x y z
#
# Youngs Moduli (GPa) = 48.97162 88.79559 89.29519
#
# Poissons Ratio (x) = 0.75386 0.57371
# Poissons Ratio (y) = 0.41576 -0.26665
# Poissons Ratio (z) = 0.31464 -0.26516
#
# Static dielectric constant tensor:
#      x y z
#    x 1.224590 0.000000 1.410280 
#    y 0.000000 1.845150 0.000000 
#    z 1.410280 0.000000 -0.544260 
# 
# From -- ./inp_files/4850.got.cif
#   From: 2010.05.17/outbox.cif.g08.bks.cpg/sg15_3_cif.got.tgz:4850.got - 2010.06.03 18:47:42.
