data_PCOD9291639
_publ_section_title
;
Structure prediction by ZEFSAII (Michael W. Deem and Ramdas Pophale) SiO2 
 PCOD9291639
Probable space group: C 2/C
;
_chemical_formula_sum "Si O2"
_cell_formula_units_Z 64
_cell_length_a 9.178133
_cell_length_b 10.379669
_cell_length_c 30.983658
_cell_angle_alpha 90.000000
_cell_angle_beta 87.327059
_cell_angle_gamma 90.000000
_cell_volume 2948.477217
_symmetry_space_group_name_H-M "C 2/C"
_symmetry_group_IT_number 15
_symmetry_cell_setting 'monoclinic'
loop_
_space_group_symop_operation_xyz
x,y,z
-x,y,1/2-z
-x,-y,-z
x,-y,1/2+z
1/2+x,1/2+y,z
1/2-x,1/2+y,1/2-z
1/2-x,1/2-y,-z
1/2+x,1/2-y,1/2+z
loop_
_atom_site_type_symbol
_atom_site_label
_atom_site_fract_x
_atom_site_fract_y
_atom_site_fract_z
Si Si1 0.645233 0.188476 0.719702
Si Si2 0.115849 0.399119 0.516527
Si Si3 0.818264 0.327053 0.856085
Si Si4 0.173404 0.399163 0.740015
Si Si5 0.446798 0.729027 0.589875
Si Si6 0.430686 0.469903 0.546689
Si Si7 0.604790 0.800653 0.424886
Si Si8 0.154180 0.381224 0.121718
O O1 0.500000 0.206360 0.750000
O O2 0.714604 0.050644 0.734209
O O3 0.745593 0.313037 0.725817
O O4 0.610696 0.171303 0.669538
O O5 0.256253 0.457589 0.538930
O O6 0.170791 0.337414 0.470322
O O7 0.000000 0.500000 0.500000
O O8 0.020491 0.307930 0.549443
O O9 0.796176 0.326134 0.805582
O O10 0.719756 0.233524 0.886364
O O11 0.787269 0.474862 0.869990
O O12 0.980616 0.286888 0.868298
O O13 0.000000 0.399766 0.750000
O O14 0.480395 0.580567 0.578431
O O15 0.273253 0.714612 0.599117
O O16 0.500000 0.500000 0.500000
O O17 0.477559 0.332481 0.563736
O O18 0.486191 0.895335 0.406800
#
# Coordination Sequence:
#
# PCOD9291639 Si02
#       8
#     8   8   8   8   8   8   8   8
#     4  10  22  44  67  97 133 168 213 268 326 398
#     4  12  26  42  64  92 127 173 219 265 320 382
#     4  11  23  44  65  93 130 168 212 268 320 386
#     4  10  22  42  69  97 133 170 213 268 332 396
#     4  12  22  42  62  88 133 163 213 267 316 373
#     4  12  24  41  61  89 124 170 217 265 316 374
#     4  12  23  43  63  90 128 167 217 263 321 376
#     4  11  25  42  65  96 127 165 215 265 319 383
#
# _framework density 21.706119999999999
#
# number of rings (size 3 to 8) (size 9 to 14) (size 15 to 20)
#    0.000    0.750    3.750    4.125    1.750    1.500 
#    4.500    0.000    0.000    0.000    0.000    0.000 
#    0.000    0.000    0.000    0.000    0.000    0.000 
#
# Total GULP energy -178668.519442 kJ/mol
# GULP energy per Si atom -5583.391233 kJ/mol
# Density = 2.165672 g / cm^3
# Si number density = 21.706120 Si / 1000 Ang^3
#
#
#
# Elastic Constant Matrix: (Units=GPa)
#
#
# Indices 1 2 3 4 5 6 
#
# 1 75.9160 8.0307 10.0161 0.0000 -8.8081 0.0000
# 2 8.0307 61.6208 -7.5488 0.0000 6.1087 0.0000
# 3 10.0161 -7.5488 81.6678 0.0000 -5.2781 0.0000
# 4 0.0000 0.0000 0.0000 31.8488 0.0000 4.6038
# 5 -8.8081 6.1087 -5.2781 0.0000 36.7728 0.0000
# 6 0.0000 0.0000 0.0000 4.6038 0.0000 33.1915
#
#
#
# Elastic Compliance Matrix: (Units=1/GPa)
#
#
# Indices 1 2 3 4 5 6 
#
# 1 0.014060 -0.002392 -0.001718 0.000000 0.003519 0.000000
# 2 -0.002392 0.017058 0.001665 0.000000 -0.003168 0.000000
# 3 -0.001718 0.001665 0.012683 0.000000 0.001132 0.000000
# 4 0.000000 0.000000 0.000000 0.032041 0.000000 -0.004444
# 5 0.003519 -0.003168 0.001132 0.000000 0.028726 0.000000
# 6 0.000000 0.000000 0.000000 -0.004444 0.000000 0.030745
#
#
# Mechanical properties :
#
#
# Convention : Reuss Voigt Hill
#
# Bulk Modulus (GPa) = 25.69901 26.68896 26.19399
# Shear Modulus (GPa) = 32.64319 34.27641 33.45980
#
# Velocity S-wave (km/s) = 3.88218 3.97812 3.93044
# Velocity P-wave (km/s) = 5.65335 5.78125 5.71766
#
# Compressibility (1/GPa) = 0.03891200
#
# Stress axis : x y z
#
# Youngs Moduli (GPa) = 71.12191 58.62356 78.84855
#
# Poissons Ratio (x) = 0.14021 0.13547
# Poissons Ratio (y) = 0.17010 -0.13131
# Poissons Ratio (z) = 0.12219 -0.09763
#
# Static dielectric constant tensor:
#      x y z
#    x 1.814630 0.000000 -0.036380 
#    y 0.000000 1.811880 0.000000 
#    z -0.036380 0.000000 1.803530 
# 
# From -- ./inp_files/307476.got.cif
#   From: 2010.05.17/outbox.cif.g08.bks.cpg/sg15_154_cif.got.tgz:307476.got - 2010.06.03 18:47:42.
