data_PCOD9291118
_publ_section_title
;
Structure prediction by ZEFSAII (Michael W. Deem and Ramdas Pophale) SiO2 
 PCOD9291118
Probable space group: C 2/C
;
_chemical_formula_sum "Si O2"
_cell_formula_units_Z 40
_cell_length_a 11.245119
_cell_length_b 12.167393
_cell_length_c 13.835426
_cell_angle_alpha 90.000000
_cell_angle_beta 118.122619
_cell_angle_gamma 90.000000
_cell_volume 1669.527541
_symmetry_space_group_name_H-M "C 2/C"
_symmetry_group_IT_number 15
_symmetry_cell_setting 'monoclinic'
loop_
_space_group_symop_operation_xyz
x,y,z
-x,y,1/2-z
-x,-y,-z
x,-y,1/2+z
1/2+x,1/2+y,z
1/2-x,1/2+y,1/2-z
1/2-x,1/2-y,-z
1/2+x,1/2-y,1/2+z
loop_
_atom_site_type_symbol
_atom_site_label
_atom_site_fract_x
_atom_site_fract_y
_atom_site_fract_z
Si Si1 0.742765 0.091908 0.830594
Si Si2 0.366637 0.811281 0.405540
Si Si3 0.035828 0.966803 0.373576
Si Si4 0.101391 0.217674 0.379651
Si Si5 0.710424 0.880362 0.924098
O O1 0.683406 0.111119 0.700786
O O2 0.895628 0.047760 0.876618
O O3 0.720963 0.201467 0.888857
O O4 0.669578 0.990808 0.854933
O O5 0.511349 0.766395 0.430237
O O6 0.381981 0.857676 0.519221
O O7 0.248947 0.717377 0.365845
O O8 0.000000 0.936965 0.250000
O O9 0.145757 0.892831 0.466344
O O10 0.107615 0.086796 0.397530
O O11 0.000000 0.225626 0.250000
#
# Coordination Sequence:
#
# PCOD9291118 Si02
#       5
#     8   8   8   8   8
#     4  11  22  40  70  97 132 181 221 276 349 400
#     4  10  22  42  64  95 137 172 227 285 331 412
#     4  11  21  42  68  98 132 175 225 282 339 404
#     4   9  21  39  65  94 133 174 224 277 331 408
#     4  11  23  40  69  96 134 179 222 282 343 399
#
# _framework density 23.958873000000001
#
# number of rings (size 3 to 8) (size 9 to 14) (size 15 to 20)
#    0.000    1.600    4.000    0.600    0.000    1.600 
#    0.000    0.000   26.400    0.000    0.000    0.000 
#    0.000    0.000    0.000    0.000    0.000    0.000 
#
# Total GULP energy -111735.571354 kJ/mol
# GULP energy per Si atom -5586.778568 kJ/mol
# Density = 2.390434 g / cm^3
# Si number density = 23.958873 Si / 1000 Ang^3
#
#
#
# Elastic Constant Matrix: (Units=GPa)
#
#
# Indices 1 2 3 4 5 6 
#
# 1 83.0648 24.5312 27.7835 0.0000 -30.8861 0.0000
# 2 24.5312 111.1761 42.9975 0.0000 -20.3149 0.0000
# 3 27.7835 42.9975 86.3122 0.0000 -26.7888 0.0000
# 4 0.0000 0.0000 0.0000 43.4553 0.0000 -7.5561
# 5 -30.8861 -20.3149 -26.7888 0.0000 47.2156 0.0000
# 6 0.0000 0.0000 0.0000 -7.5561 0.0000 35.3333
#
#
#
# Elastic Compliance Matrix: (Units=1/GPa)
#
#
# Indices 1 2 3 4 5 6 
#
# 1 0.016428 -0.001244 -0.001820 0.000000 0.009179 0.000000
# 2 -0.001244 0.011393 -0.004862 0.000000 0.001329 0.000000
# 3 -0.001820 -0.004862 0.016477 0.000000 0.006066 0.000000
# 4 0.000000 0.000000 0.000000 0.023901 0.000000 0.005111
# 5 0.009179 0.001329 0.006066 0.000000 0.031197 0.000000
# 6 0.000000 0.000000 0.000000 0.005111 0.000000 0.029395
#
#
# Mechanical properties :
#
#
# Convention : Reuss Voigt Hill
#
# Bulk Modulus (GPa) = 35.15539 52.35304 43.75421
# Shear Modulus (GPa) = 32.44155 37.55023 34.99589
#
# Velocity S-wave (km/s) = 3.68374 3.96318 3.82601
# Velocity P-wave (km/s) = 5.72698 6.54531 6.14977
#
# Compressibility (1/GPa) = 0.02844514
#
# Stress axis : x y z
#
# Youngs Moduli (GPa) = 60.87294 87.77592 60.69238
#
# Poissons Ratio (x) = 0.10918 0.11043
# Poissons Ratio (y) = 0.07572 0.29511
# Poissons Ratio (z) = 0.11076 0.42680
#
# Static dielectric constant tensor:
#      x y z
#    x 2.007700 0.000000 -0.016410 
#    y 0.000000 2.007180 0.000000 
#    z -0.016410 0.000000 1.939760 
# 
# From -- ./inp_files/142378.got.cif
#   From: 2010.05.17/outbox.cif.g08.bks.cpg/sg15_72_cif.got.tgz:142378.got - 2010.06.03 18:47:42.
