data_PCOD9291354
_publ_section_title
;
Structure prediction by ZEFSAII (Michael W. Deem and Ramdas Pophale) SiO2 
 PCOD9291354
Probable space group: C 2/C
;
_chemical_formula_sum "Si O2"
_cell_formula_units_Z 52
_cell_length_a 10.507510
_cell_length_b 23.689390
_cell_length_c 11.328811
_cell_angle_alpha 90.000000
_cell_angle_beta 130.991283
_cell_angle_gamma 90.000000
_cell_volume 2128.508125
_symmetry_space_group_name_H-M "C 2/C"
_symmetry_group_IT_number 15
_symmetry_cell_setting 'monoclinic'
loop_
_space_group_symop_operation_xyz
x,y,z
-x,y,1/2-z
-x,-y,-z
x,-y,1/2+z
1/2+x,1/2+y,z
1/2-x,1/2+y,1/2-z
1/2-x,1/2-y,-z
1/2+x,1/2-y,1/2+z
loop_
_atom_site_type_symbol
_atom_site_label
_atom_site_fract_x
_atom_site_fract_y
_atom_site_fract_z
Si Si1 0.736005 0.509936 0.867862
Si Si2 0.255382 0.251911 0.739089
Si Si3 0.436629 0.173257 0.031369
Si Si4 0.878303 0.884133 0.069758
Si Si5 0.514122 0.075958 0.622975
Si Si6 0.437104 0.330194 0.539591
Si Si7 0.500000 0.582091 0.250000
O O1 0.651949 0.550394 0.915154
O O2 0.804484 0.550222 0.806177
O O3 0.616510 0.460451 0.748242
O O4 0.887203 0.475652 0.021320
O O5 0.313714 0.214303 0.883613
O O6 0.414593 0.292024 0.814559
O O7 0.091134 0.288955 0.667725
O O8 0.204314 0.210463 0.600683
O O9 0.309798 0.141980 0.042411
O O10 0.508181 0.127003 0.982659
O O11 0.000000 0.863041 0.250000
O O12 0.973120 0.864488 0.011384
O O13 0.500000 0.093426 0.750000
O O14 0.385158 0.377904 0.600119
#
# Coordination Sequence:
#
# PCOD9291354 Si02
#       7
#     8   8   8   8   8   8   4
#     4  10  24  43  65  99 134 169 225 271 338 404
#     4  10  23  45  65  99 129 182 222 281 334 395
#     4  10  22  42  66  97 135 172 228 272 336 397
#     4  11  22  42  67 101 136 174 224 282 336 405
#     4  10  23  43  67  93 131 179 215 272 334 407
#     4  11  26  42  68  98 136 178 228 279 340 394
#     4  12  26  42  68 100 136 174 226 278 336 410
#
# _framework density 24.430257000000001
#
# number of rings (size 3 to 8) (size 9 to 14) (size 15 to 20)
#    0.000    1.538    2.308    0.923    4.308    5.538 
#    5.538    0.000    0.000    0.000    0.000    0.000 
#    0.000    0.000    0.000    0.000    0.000    0.000 
#
# Total GULP energy -145482.349295 kJ/mol
# GULP energy per Si atom -5595.474973 kJ/mol
# Density = 2.437465 g / cm^3
# Si number density = 24.430257 Si / 1000 Ang^3
#
#
#
# Elastic Constant Matrix: (Units=GPa)
#
#
# Indices 1 2 3 4 5 6 
#
# 1 53.3201 34.8826 30.0971 0.0000 -14.2558 0.0000
# 2 34.8826 132.0197 45.4944 0.0000 0.5847 0.0000
# 3 30.0971 45.4944 79.9909 0.0000 16.5134 0.0000
# 4 0.0000 0.0000 0.0000 39.4149 0.0000 5.2806
# 5 -14.2558 0.5847 16.5134 0.0000 37.2548 0.0000
# 6 0.0000 0.0000 0.0000 5.2806 0.0000 16.0105
#
#
#
# Elastic Compliance Matrix: (Units=1/GPa)
#
#
# Indices 1 2 3 4 5 6 
#
# 1 0.035553 -0.004258 -0.015165 0.000000 0.020394 0.000000
# 2 -0.004258 0.010139 -0.004177 0.000000 0.000063 0.000000
# 3 -0.015165 -0.004177 0.023960 0.000000 -0.016358 0.000000
# 4 0.000000 0.000000 0.000000 0.026544 0.000000 -0.008755
# 5 0.020394 0.000063 -0.016358 0.000000 0.041896 0.000000
# 6 0.000000 0.000000 0.000000 -0.008755 0.000000 0.065347
#
#
# Mechanical properties :
#
#
# Convention : Reuss Voigt Hill
#
# Bulk Modulus (GPa) = 44.54217 54.03100 49.28659
# Shear Modulus (GPa) = 19.37054 28.85983 24.11518
#
# Velocity S-wave (km/s) = 2.81889 3.44075 3.14523
# Velocity P-wave (km/s) = 5.37278 6.16032 5.77998
#
# Compressibility (1/GPa) = 0.02245063
#
# Stress axis : x y z
#
# Youngs Moduli (GPa) = 28.12693 98.62916 41.73575
#
# Poissons Ratio (x) = 0.41999 0.63294
# Poissons Ratio (y) = 0.11977 0.17434
# Poissons Ratio (z) = 0.42655 0.41201
#
# Static dielectric constant tensor:
#      x y z
#    x 1.975060 0.000000 0.014210 
#    y 0.000000 1.921810 0.000000 
#    z 0.014210 0.000000 1.946750 
# 
# From -- ./inp_files/91334.got.cif
#   From: 2010.05.17/outbox.cif.g08.bks.cpg/sg15_46_cif.got.tgz:91334.got - 2010.06.03 18:47:42.
