data_PCOD9291363
_publ_section_title
;
Structure prediction by ZEFSAII (Michael W. Deem and Ramdas Pophale) SiO2 
 PCOD9291363
Probable space group: C 2/C
;
_chemical_formula_sum "Si O2"
_cell_formula_units_Z 36
_cell_length_a 12.093278
_cell_length_b 8.636012
_cell_length_c 19.385708
_cell_angle_alpha 90.000000
_cell_angle_beta 48.941748
_cell_angle_gamma 90.000000
_cell_volume 1526.632775
_symmetry_space_group_name_H-M "C 2/C"
_symmetry_group_IT_number 15
_symmetry_cell_setting 'monoclinic'
loop_
_space_group_symop_operation_xyz
x,y,z
-x,y,1/2-z
-x,-y,-z
x,-y,1/2+z
1/2+x,1/2+y,z
1/2-x,1/2+y,1/2-z
1/2-x,1/2-y,-z
1/2+x,1/2-y,1/2+z
loop_
_atom_site_type_symbol
_atom_site_label
_atom_site_fract_x
_atom_site_fract_y
_atom_site_fract_z
Si Si1 0.107640 0.879995 0.362343
Si Si2 0.000000 0.786384 0.750000
Si Si3 0.824770 0.966097 0.015181
Si Si4 0.475178 0.148087 0.905757
Si Si5 0.765878 0.546017 0.172443
O O1 0.183469 0.957883 0.398539
O O2 0.149444 0.700922 0.339703
O O3 0.166346 0.972324 0.272831
O O4 0.934509 0.902675 0.444545
O O5 0.966962 0.686914 0.695390
O O6 0.141831 0.889285 0.671787
O O7 0.664826 0.962202 0.047615
O O8 0.910256 0.805106 0.963493
O O9 0.607569 0.076924 0.895367
#
# Coordination Sequence:
#
# PCOD9291363 Si02
#       5
#     8   4   8   8   8
#     4  11  22  40  67  98 134 174 228 270 334 396
#     4  12  22  44  68  96 136 180 218 274 324 406
#     4  10  22  42  66  98 136 172 218 287 331 390
#     4  11  22  42  70  93 132 183 221 269 344 387
#     4  12  23  42  69  95 132 182 222 271 329 406
#
# _framework density 23.581309000000001
#
# number of rings (size 3 to 8) (size 9 to 14) (size 15 to 20)
#    0.000    0.889    6.667    0.000    0.000    1.778 
#    0.000    7.778    0.000    0.000    0.000    0.000 
#    0.000    0.000    0.000    0.000    0.000    0.000 
#
# Total GULP energy -100698.169872 kJ/mol
# GULP energy per Si atom -5594.342771 kJ/mol
# Density = 2.352764 g / cm^3
# Si number density = 23.581309 Si / 1000 Ang^3
#
#
#
# Elastic Constant Matrix: (Units=GPa)
#
#
# Indices 1 2 3 4 5 6 
#
# 1 70.3151 14.5315 14.8122 0.0000 -35.6708 0.0000
# 2 14.5315 59.6178 8.6761 0.0000 -15.5367 0.0000
# 3 14.8122 8.6761 78.9449 0.0000 -12.1725 0.0000
# 4 0.0000 0.0000 0.0000 25.9203 0.0000 -16.6937
# 5 -35.6708 -15.5367 -12.1725 0.0000 46.9560 0.0000
# 6 0.0000 0.0000 0.0000 -16.6937 0.0000 36.2182
#
#
#
# Elastic Compliance Matrix: (Units=1/GPa)
#
#
# Indices 1 2 3 4 5 6 
#
# 1 0.023417 -0.001032 -0.001656 0.000000 0.017019 0.000000
# 2 -0.001032 0.018498 -0.001059 0.000000 0.005063 0.000000
# 3 -0.001656 -0.001059 0.013381 0.000000 0.001860 0.000000
# 4 0.000000 0.000000 0.000000 0.054867 0.000000 0.025289
# 5 0.017019 0.005063 0.001860 0.000000 0.036382 0.000000
# 6 0.000000 0.000000 0.000000 0.025289 0.000000 0.039267
#
#
# Mechanical properties :
#
#
# Convention : Reuss Voigt Hill
#
# Bulk Modulus (GPa) = 20.91907 31.65749 26.28828
# Shear Modulus (GPa) = 23.89593 33.20944 28.55268
#
# Velocity S-wave (km/s) = 3.18676 3.75680 3.48346
# Velocity P-wave (km/s) = 4.73612 5.68084 5.22986
#
# Compressibility (1/GPa) = 0.04780328
#
# Stress axis : x y z
#
# Youngs Moduli (GPa) = 42.70336 54.05879 74.73277
#
# Poissons Ratio (x) = 0.05577 0.12378
# Poissons Ratio (y) = 0.04406 0.07913
# Poissons Ratio (z) = 0.07073 0.05724
#
# Static dielectric constant tensor:
#      x y z
#    x 1.906280 0.000000 -0.008510 
#    y 0.000000 1.875850 0.000000 
#    z -0.008510 0.000000 1.936550 
# 
# From -- ./inp_files/241699.got.cif
#   From: 2010.05.17/outbox.cif.g08.bks.cpg/sg15_121_cif.got.tgz:241699.got - 2010.06.03 18:47:42.
