data_PCOD9291343
_publ_section_title
;
Structure prediction by ZEFSAII (Michael W. Deem and Ramdas Pophale) SiO2 
 PCOD9291343
Probable space group: C 2/C
;
_chemical_formula_sum "Si O2"
_cell_formula_units_Z 48
_cell_length_a 19.502688
_cell_length_b 16.595474
_cell_length_c 14.596646
_cell_angle_alpha 90.000000
_cell_angle_beta 25.723645
_cell_angle_gamma 90.000000
_cell_volume 2050.490994
_symmetry_space_group_name_H-M "C 2/C"
_symmetry_group_IT_number 15
_symmetry_cell_setting 'monoclinic'
loop_
_space_group_symop_operation_xyz
x,y,z
-x,y,1/2-z
-x,-y,-z
x,-y,1/2+z
1/2+x,1/2+y,z
1/2-x,1/2+y,1/2-z
1/2-x,1/2-y,-z
1/2+x,1/2-y,1/2+z
loop_
_atom_site_type_symbol
_atom_site_label
_atom_site_fract_x
_atom_site_fract_y
_atom_site_fract_z
Si Si1 0.993161 0.368768 0.509664
Si Si2 0.574552 0.303732 0.443267
Si Si3 0.802551 0.070860 0.565317
Si Si4 0.136320 0.671903 0.028760
Si Si5 0.833766 0.933164 0.655760
Si Si6 0.310927 0.997303 0.481804
O O1 0.011168 0.281043 0.440748
O O2 0.813953 0.391875 0.714411
O O3 0.117108 0.429635 0.315988
O O4 0.043076 0.363615 0.554234
O O5 0.634749 0.345731 0.464872
O O6 0.461596 0.367941 0.530463
O O7 0.716348 0.287349 0.199515
O O8 0.791041 0.049505 0.472643
O O9 0.889358 0.001646 0.518868
O O10 0.196671 0.594840 0.014047
O O11 0.000000 0.717895 0.250000
O O12 0.760414 0.973690 0.834460
O O13 0.500000 0.976761 0.250000
#
# Coordination Sequence:
#
# PCOD9291343 Si02
#       6
#     8   8   8   8   8   8
#     4  11  22  43  67  92 138 187 216 273 348 410
#     4  11  25  42  63 101 140 178 218 283 354 396
#     4  11  23  42  66  97 133 177 231 278 337 403
#     4  10  22  42  66  96 134 172 226 281 340 406
#     4  12  21  41  69  95 131 176 235 280 329 400
#     4  11  21  38  68 100 122 171 236 278 324 396
#
# _framework density 23.409027999999999
#
# number of rings (size 3 to 8) (size 9 to 14) (size 15 to 20)
#    0.000    1.000    5.000    5.000    0.000    1.333 
#    0.000    9.167    0.000    0.000    0.000    0.000 
#    0.000    0.000    0.000    0.000    0.000    0.000 
#
# Total GULP energy -134151.791431 kJ/mol
# GULP energy per Si atom -5589.657976 kJ/mol
# Density = 2.335575 g / cm^3
# Si number density = 23.409028 Si / 1000 Ang^3
#
#
#
# Elastic Constant Matrix: (Units=GPa)
#
#
# Indices 1 2 3 4 5 6 
#
# 1 92.9491 14.6765 19.4523 -0.0003 3.1842 0.0000
# 2 14.6765 86.4374 5.6163 -0.0007 -10.5947 0.0006
# 3 19.4523 5.6163 77.2590 -0.0011 -11.9902 0.0010
# 4 -0.0003 -0.0007 -0.0011 19.3304 0.0007 -12.4063
# 5 3.1842 -10.5947 -11.9902 0.0007 34.7459 -0.0005
# 6 0.0000 0.0006 0.0010 -12.4063 -0.0005 0.4040
#
#
#
# Elastic Compliance Matrix: (Units=1/GPa)
#
#
# Indices 1 2 3 4 5 6 
#
# 1 0.011885 -0.002158 -0.003282 0.000000 -0.002880 0.000000
# 2 -0.002158 0.012418 0.000274 0.000000 0.004078 0.000000
# 3 -0.003282 0.000274 0.014591 0.000001 0.005419 0.000001
# 4 0.000000 0.000000 0.000001 -0.002765 -0.000001 -0.084913
# 5 -0.002880 0.004078 0.005419 -0.000001 0.032158 0.000000
# 6 0.000000 0.000000 0.000001 -0.084913 0.000000 -0.132304
#
#
# Mechanical properties :
#
#
# Convention : Reuss Voigt Hill
#
# Bulk Modulus (GPa) = 35.01362 37.34843 36.18103
# Shear Modulus (GPa) = -113.21452 25.35607 -43.92922
#
# Velocity S-wave (km/s) = -6.96194 3.29473 -4.33667
# Velocity P-wave (km/s) = 7.04521 5.51933 3.09613
#
# Compressibility (1/GPa) = 0.02856032
#
# Stress axis : x y z
#
# Youngs Moduli (GPa) = 84.14057 80.53113 68.53489
#
# Poissons Ratio (x) = 0.17376 0.22496
# Poissons Ratio (y) = 0.18155 -0.01875
# Poissons Ratio (z) = 0.27619 -0.02203
#
# Static dielectric constant tensor:
#      x y z
#    x 1.867160 0.000000 0.001990 
#    y 0.000000 1.897160 0.000000 
#    z 0.001990 0.000000 1.928530 
# 
# From -- ./inp_files/70646.got.cif
#   From: 2010.05.17/outbox.cif.g08.bks.cpg/sg15_36_cif.got.tgz:70646.got - 2010.06.03 18:47:42.
