data_PCOD9291504
_publ_section_title
;
Structure prediction by ZEFSAII (Michael W. Deem and Ramdas Pophale) SiO2 
 PCOD9291504
Probable space group: C 2/C
;
_chemical_formula_sum "Si O2"
_cell_formula_units_Z 48
_cell_length_a 21.074758
_cell_length_b 8.243059
_cell_length_c 13.207272
_cell_angle_alpha 90.000000
_cell_angle_beta 75.986740
_cell_angle_gamma 90.000000
_cell_volume 2226.092330
_symmetry_space_group_name_H-M "C 2/C"
_symmetry_group_IT_number 15
_symmetry_cell_setting 'monoclinic'
loop_
_space_group_symop_operation_xyz
x,y,z
-x,y,1/2-z
-x,-y,-z
x,-y,1/2+z
1/2+x,1/2+y,z
1/2-x,1/2+y,1/2-z
1/2-x,1/2-y,-z
1/2+x,1/2-y,1/2+z
loop_
_atom_site_type_symbol
_atom_site_label
_atom_site_fract_x
_atom_site_fract_y
_atom_site_fract_z
Si Si1 0.558666 0.146195 0.856480
Si Si2 0.266297 0.480536 0.800448
Si Si3 0.000000 0.918282 0.750000
Si Si4 0.613610 0.343062 0.171949
Si Si5 0.156651 0.602321 0.993381
Si Si6 0.685672 0.879225 0.165969
Si Si7 0.500000 0.097972 0.250000
O O1 0.528249 0.315486 0.833030
O O2 0.590896 0.116020 0.951827
O O3 0.619343 0.128660 0.755587
O O4 0.504375 0.015720 0.845959
O O5 0.333523 0.580777 0.773677
O O6 0.216014 0.577383 0.892222
O O7 0.281256 0.299386 0.836516
O O8 0.233145 0.490563 0.703055
O O9 0.940583 0.018537 0.822488
O O10 0.565895 0.201608 0.229046
O O11 0.652745 0.265129 0.062866
O O12 0.165972 0.449332 0.064797
#
# Coordination Sequence:
#
# PCOD9291504 Si02
#       7
#     8   8   4   8   8   8   4
#     4  10  22  44  68  94 128 177 218 270 323 381
#     4  11  24  41  69  94 134 172 214 272 329 384
#     4  10  22  44  66  90 134 180 214 264 330 378
#     4  11  22  41  66  96 130 172 216 266 323 389
#     4  11  24  41  68 100 128 169 225 269 323 388
#     4  11  22  44  66  96 133 172 216 273 326 383
#     4  10  22  42  68  88 130 176 214 264 328 384
#
# _framework density 21.562446999999999
#
# number of rings (size 3 to 8) (size 9 to 14) (size 15 to 20)
#    0.000    1.333    3.333    2.000    2.333    2.667 
#    0.000    1.667    0.000    0.000    0.000    0.000 
#    0.000    0.000    0.000    0.000    0.000    0.000 
#
# Total GULP energy -133854.987934 kJ/mol
# GULP energy per Si atom -5577.291164 kJ/mol
# Density = 2.151337 g / cm^3
# Si number density = 21.562447 Si / 1000 Ang^3
#
#
#
# Elastic Constant Matrix: (Units=GPa)
#
#
# Indices 1 2 3 4 5 6 
#
# 1 98.9485 52.2435 25.3808 0.0000 10.3715 0.0000
# 2 52.2435 120.8692 25.1570 0.0000 19.0831 0.0000
# 3 25.3808 25.1570 61.1651 0.0000 13.3749 0.0000
# 4 0.0000 0.0000 0.0000 15.5888 0.0000 -6.1249
# 5 10.3715 19.0831 13.3749 0.0000 38.9215 0.0000
# 6 0.0000 0.0000 0.0000 -6.1249 0.0000 27.8092
#
#
#
# Elastic Compliance Matrix: (Units=1/GPa)
#
#
# Indices 1 2 3 4 5 6 
#
# 1 0.013774 -0.005225 -0.003594 0.000000 0.000127 0.000000
# 2 -0.005225 0.011470 -0.001756 0.000000 -0.003628 0.000000
# 3 -0.003594 -0.001756 0.019641 0.000000 -0.004931 0.000000
# 4 0.000000 0.000000 0.000000 0.070226 0.000000 0.015467
# 5 0.000127 -0.003628 -0.004931 0.000000 0.029132 0.000000
# 6 0.000000 0.000000 0.000000 0.015467 0.000000 0.039366
#
#
# Mechanical properties :
#
#
# Convention : Reuss Voigt Hill
#
# Bulk Modulus (GPa) = 42.13346 54.06060 48.09703
# Shear Modulus (GPa) = 23.51048 28.34400 25.92724
#
# Velocity S-wave (km/s) = 3.30562 3.62955 3.47136
# Velocity P-wave (km/s) = 5.84398 6.53383 6.19851
#
# Compressibility (1/GPa) = 0.02373410
#
# Stress axis : x y z
#
# Youngs Moduli (GPa) = 72.60138 87.18164 50.91386
#
# Poissons Ratio (x) = 0.45556 0.18299
# Poissons Ratio (y) = 0.37938 0.08941
# Poissons Ratio (z) = 0.26093 0.15309
#
# Static dielectric constant tensor:
#      x y z
#    x 0.000000 0.000000 0.000000 
#    y 0.000000 0.000000 0.000000 
#    z 0.000000 0.000000 0.000000 
# 
# From -- ./inp_files/116410.got.cif
#   From: 2010.05.17/outbox.cif.g08.bks.cpg/sg15_59_cif.got.tgz:116410.got - 2010.06.03 18:47:42.
