data_PCOD9291183
_publ_section_title
;
Structure prediction by ZEFSAII (Michael W. Deem and Ramdas Pophale) SiO2 
 PCOD9291183
Probable space group: C 2/C
;
_chemical_formula_sum "Si O2"
_cell_formula_units_Z 48
_cell_length_a 23.114504
_cell_length_b 13.695753
_cell_length_c 11.347638
_cell_angle_alpha 90.000000
_cell_angle_beta 37.690088
_cell_angle_gamma 90.000000
_cell_volume 2196.313876
_symmetry_space_group_name_H-M "C 2/C"
_symmetry_group_IT_number 15
_symmetry_cell_setting 'monoclinic'
loop_
_space_group_symop_operation_xyz
x,y,z
-x,y,1/2-z
-x,-y,-z
x,-y,1/2+z
1/2+x,1/2+y,z
1/2-x,1/2+y,1/2-z
1/2-x,1/2-y,-z
1/2+x,1/2-y,1/2+z
loop_
_atom_site_type_symbol
_atom_site_label
_atom_site_fract_x
_atom_site_fract_y
_atom_site_fract_z
Si Si1 0.667301 0.944664 0.501035
Si Si2 0.459240 0.384157 0.485670
Si Si3 0.000000 0.229989 0.250000
Si Si4 0.889912 0.473417 0.156968
Si Si5 0.357674 0.235060 0.791838
Si Si6 0.118155 0.921018 0.405044
Si Si7 0.500000 0.208738 0.250000
O O1 0.638826 0.007850 0.429262
O O2 0.772702 0.909077 0.300349
O O3 0.588591 0.859890 0.635490
O O4 0.664285 0.991575 0.637009
O O5 0.390639 0.342609 0.697209
O O6 0.557598 0.419495 0.382034
O O7 0.406789 0.471598 0.503309
O O8 0.479366 0.285247 0.385564
O O9 0.932485 0.290616 0.273762
O O10 0.927867 0.161658 0.439832
O O11 0.868606 0.357247 0.188244
O O12 0.000000 0.500000 0.000000
O O13 0.250000 0.250000 0.000000
#
# Coordination Sequence:
#
# PCOD9291183 Si02
#       7
#     8   8   4   8   8   8   4
#     4  12  25  44  72 102 145 186 232 289 358 424
#     4  10  22  42  65  92 136 179 229 295 338 415
#     4  10  23  37  66  96 132 168 232 291 337 428
#     4  12  24  44  67  99 142 184 227 286 349 417
#     4  11  22  40  64  93 129 176 231 281 343 408
#     4  10  23  44  66 102 136 184 237 287 360 416
#     4  12  23  43  68 102 142 182 234 299 345 422
#
# _framework density 21.854800999999998
#
# number of rings (size 3 to 8) (size 9 to 14) (size 15 to 20)
#    0.000    1.000    3.333    2.500    2.333    4.667 
#    0.000    0.000    0.000    0.000    0.000    0.000 
#    0.000    0.000    0.000    0.000    0.000    0.000 
#
# Total GULP energy -133883.738461 kJ/mol
# GULP energy per Si atom -5578.489103 kJ/mol
# Density = 2.180506 g / cm^3
# Si number density = 21.854801 Si / 1000 Ang^3
#
#
#
# Elastic Constant Matrix: (Units=GPa)
#
#
# Indices 1 2 3 4 5 6 
#
# 1 42.9815 10.3899 18.8618 0.0000 4.9852 0.0000
# 2 10.3899 70.1998 27.0344 0.0000 -4.5246 0.0000
# 3 18.8618 27.0344 128.6045 0.0000 -24.3606 0.0000
# 4 0.0000 0.0000 0.0000 27.7530 0.0000 3.8129
# 5 4.9852 -4.5246 -24.3606 0.0000 46.9951 0.0000
# 6 0.0000 0.0000 0.0000 3.8129 0.0000 24.9987
#
#
#
# Elastic Compliance Matrix: (Units=1/GPa)
#
#
# Indices 1 2 3 4 5 6 
#
# 1 0.026406 -0.002581 -0.004333 0.000000 -0.005296 0.000000
# 2 -0.002581 0.015754 -0.002877 0.000000 0.000299 0.000000
# 3 -0.004333 -0.002877 0.010036 0.000000 0.005385 0.000000
# 4 0.000000 0.000000 0.000000 0.036803 0.000000 -0.005613
# 5 -0.005296 0.000299 0.005385 0.000000 0.024661 0.000000
# 6 0.000000 0.000000 0.000000 -0.005613 0.000000 0.040858
#
#
# Mechanical properties :
#
#
# Convention : Reuss Voigt Hill
#
# Bulk Modulus (GPa) = 30.66119 39.37312 35.01715
# Shear Modulus (GPa) = 27.03130 32.31602 29.67366
#
# Velocity S-wave (km/s) = 3.52072 3.84952 3.68878
# Velocity P-wave (km/s) = 5.53057 6.14925 5.84810
#
# Compressibility (1/GPa) = 0.03261452
#
# Stress axis : x y z
#
# Youngs Moduli (GPa) = 37.87083 63.47569 99.64049
#
# Poissons Ratio (x) = 0.16381 0.43179
# Poissons Ratio (y) = 0.09773 0.28662
# Poissons Ratio (z) = 0.16411 0.18259
#
# Static dielectric constant tensor:
#      x y z
#    x 1.897600 0.000000 0.082330 
#    y 0.000000 1.830480 0.000000 
#    z 0.082330 0.000000 1.682430 
# 
# From -- ./inp_files/112967.got.cif
#   From: 2010.05.17/outbox.cif.g08.bks.cpg/sg15_57_cif.got.tgz:112967.got - 2010.06.03 18:47:42.
