data_PCOD9291742
_publ_section_title
;
Structure prediction by ZEFSAII (Michael W. Deem and Ramdas Pophale) SiO2 
 PCOD9291742
Probable space group: C 2/C
;
_chemical_formula_sum "Si O2"
_cell_formula_units_Z 60
_cell_length_a 23.869431
_cell_length_b 12.488248
_cell_length_c 16.415639
_cell_angle_alpha 90.000000
_cell_angle_beta 28.306721
_cell_angle_gamma 90.000000
_cell_volume 2320.358710
_symmetry_space_group_name_H-M "C 2/C"
_symmetry_group_IT_number 15
_symmetry_cell_setting 'monoclinic'
loop_
_space_group_symop_operation_xyz
x,y,z
-x,y,1/2-z
-x,-y,-z
x,-y,1/2+z
1/2+x,1/2+y,z
1/2-x,1/2+y,1/2-z
1/2-x,1/2-y,-z
1/2+x,1/2-y,1/2+z
loop_
_atom_site_type_symbol
_atom_site_label
_atom_site_fract_x
_atom_site_fract_y
_atom_site_fract_z
Si Si1 0.500000 0.745651 0.750000
Si Si2 0.237131 0.613053 0.663638
Si Si3 0.100146 0.813152 0.677102
Si Si4 0.673329 0.618834 0.424336
Si Si5 0.330209 0.690084 0.718041
Si Si6 0.426848 0.394013 0.614748
Si Si7 0.341573 0.053738 0.471571
Si Si8 0.040882 0.578004 0.809757
O O1 0.551303 0.669752 0.613837
O O2 0.603502 0.832733 0.629056
O O3 0.286896 0.688676 0.527304
O O4 0.304017 0.499961 0.575142
O O5 0.270319 0.664619 0.707179
O O6 0.099283 0.586939 0.823960
O O7 0.040051 0.699800 0.778927
O O8 0.000000 0.868141 0.750000
O O9 0.117327 0.879022 0.737680
O O10 0.777992 0.698349 0.315571
O O11 0.669482 0.617042 0.331465
O O12 0.469470 0.693394 0.530764
O O13 0.282253 0.591963 0.834569
O O14 0.500000 0.500000 0.500000
O O15 0.356291 0.978187 0.375826
O O16 0.425431 0.992643 0.432533
#
# Coordination Sequence:
#
# PCOD9291742 Si02
#       8
#     4   8   8   8   8   8   8   8
#     4   8  20  42  66  90 134 172 216 268 322 402
#     4  12  26  40  67 102 133 176 233 272 346 408
#     4  12  23  44  69  97 133 176 228 282 342 413
#     4  11  25  43  68  99 135 182 227 282 333 420
#     4  11  25  43  66  99 133 178 229 280 338 410
#     4  12  26  46  67  97 141 181 218 292 351 394
#     4   9  21  44  67  97 135 172 226 273 343 397
#     4  10  22  42  70  98 130 177 217 290 340 401
#
# _framework density 25.858070999999999
#
# number of rings (size 3 to 8) (size 9 to 14) (size 15 to 20)
#    0.000    1.333    4.000    1.200    4.667    5.867 
#    0.000    4.667    0.000    0.000    0.000    0.000 
#    0.000    0.000    0.000    0.000    0.000    0.000 
#
# Total GULP energy -167724.225620 kJ/mol
# GULP energy per Si atom -5590.807521 kJ/mol
# Density = 2.579922 g / cm^3
# Si number density = 25.858071 Si / 1000 Ang^3
#
#
#
# Elastic Constant Matrix: (Units=GPa)
#
#
# Indices 1 2 3 4 5 6 
#
# 1 81.8085 8.4419 -14.1607 0.0000 5.3681 0.0000
# 2 8.4419 153.1489 21.5548 0.0000 10.7027 0.0000
# 3 -14.1607 21.5548 81.5935 0.0000 5.8403 0.0000
# 4 0.0000 0.0000 0.0000 30.1199 0.0000 3.1499
# 5 5.3681 10.7027 5.8403 0.0000 38.2588 0.0000
# 6 0.0000 0.0000 0.0000 3.1499 0.0000 18.0454
#
#
#
# Elastic Compliance Matrix: (Units=1/GPa)
#
#
# Indices 1 2 3 4 5 6 
#
# 1 0.012904 -0.000945 0.002629 0.000000 -0.001947 0.000000
# 2 -0.000945 0.006955 -0.001892 0.000000 -0.001524 0.000000
# 3 0.002629 -0.001892 0.013346 0.000000 -0.001877 0.000000
# 4 0.000000 0.000000 0.000000 0.033818 0.000000 -0.005903
# 5 -0.001947 -0.001524 -0.001877 0.000000 0.027124 0.000000
# 6 0.000000 0.000000 0.000000 -0.005903 0.000000 0.056446
#
#
# Mechanical properties :
#
#
# Convention : Reuss Voigt Hill
#
# Bulk Modulus (GPa) = 30.49960 38.69143 34.59552
# Shear Modulus (GPa) = 30.87575 37.33247 34.10411
#
# Velocity S-wave (km/s) = 3.45925 3.80379 3.63560
# Velocity P-wave (km/s) = 5.27027 5.85553 5.57059
#
# Compressibility (1/GPa) = 0.03278732
#
# Stress axis : x y z
#
# Youngs Moduli (GPa) = 77.49547 143.79164 74.92736
#
# Poissons Ratio (x) = 0.13591 -0.19695
# Poissons Ratio (y) = 0.07325 0.14177
# Poissons Ratio (z) = -0.20370 0.27207
#
# Static dielectric constant tensor:
#      x y z
#    x 2.056570 0.000000 -0.032990 
#    y 0.000000 2.029950 0.000000 
#    z -0.032990 0.000000 2.053260 
# 
# From -- ./inp_files/222539.got.cif
#   From: 2010.05.17/outbox.cif.g08.bks.cpg/sg15_112_cif.got.tgz:222539.got - 2010.06.03 18:47:42.
