data_PCOD9291209
_publ_section_title
;
Structure prediction by ZEFSAII (Michael W. Deem and Ramdas Pophale) SiO2 
 PCOD9291209
Probable space group: C 2/C
;
_chemical_formula_sum "Si O2"
_cell_formula_units_Z 32
_cell_length_a 9.150061
_cell_length_b 15.490839
_cell_length_c 14.369079
_cell_angle_alpha 90.000000
_cell_angle_beta 37.078178
_cell_angle_gamma 90.000000
_cell_volume 1227.937185
_symmetry_space_group_name_H-M "C 2/C"
_symmetry_group_IT_number 15
_symmetry_cell_setting 'monoclinic'
loop_
_space_group_symop_operation_xyz
x,y,z
-x,y,1/2-z
-x,-y,-z
x,-y,1/2+z
1/2+x,1/2+y,z
1/2-x,1/2+y,1/2-z
1/2-x,1/2-y,-z
1/2+x,1/2-y,1/2+z
loop_
_atom_site_type_symbol
_atom_site_label
_atom_site_fract_x
_atom_site_fract_y
_atom_site_fract_z
Si Si1 0.141946 0.807411 0.469481
Si Si2 0.967423 0.430523 0.875540
Si Si3 0.136168 0.761480 0.269143
Si Si4 0.505907 0.469649 0.846667
O O1 0.250000 0.750000 0.500000
O O2 0.772347 0.805997 0.181369
O O3 0.101741 0.904879 0.522632
O O4 0.873565 0.772132 0.598242
O O5 0.007022 0.327915 0.867429
O O6 0.204318 0.483134 0.792140
O O7 0.000000 0.445079 0.750000
O O8 0.700773 0.457081 0.046110
O O9 0.000000 0.803892 0.250000
O O10 0.500000 0.422526 0.750000
#
# Coordination Sequence:
#
# PCOD9291209 Si02
#       4
#     8   8   8   8
#     4  11  22  40  64  96 133 175 224 281 336 400
#     4  10  22  42  66  97 134 174 222 280 337 403
#     4  10  22  42  65  95 136 176 222 279 340 404
#     4  11  23  42  68 100 135 175 224 280 338 405
#
# _framework density 26.059964000000001
#
# number of rings (size 3 to 8) (size 9 to 14) (size 15 to 20)
#    0.000    1.500    0.000    6.000    0.000    2.000 
#    0.000   11.250    0.000    0.000    0.000    0.000 
#    0.000    0.000    0.000    0.000    0.000    0.000 
#
# Total GULP energy -89223.609991 kJ/mol
# GULP energy per Si atom -5576.475624 kJ/mol
# Density = 2.600065 g / cm^3
# Si number density = 26.059964 Si / 1000 Ang^3
#
#
#
# Elastic Constant Matrix: (Units=GPa)
#
#
# Indices 1 2 3 4 5 6 
#
# 1 98.1348 50.1117 10.9604 0.0052 -13.2401 -0.0060
# 2 50.1117 26.5830 83.0830 0.0285 -2.4059 0.0002
# 3 10.9604 83.0830 97.2749 0.0340 -1.8273 0.0008
# 4 0.0052 0.0285 0.0340 21.6467 0.0050 4.1501
# 5 -13.2401 -2.4059 -1.8273 0.0050 47.7478 -0.0041
# 6 -0.0060 0.0002 0.0008 4.1501 -0.0041 11.1247
#
#
#
# Elastic Compliance Matrix: (Units=1/GPa)
#
#
# Indices 1 2 3 4 5 6 
#
# 1 0.007673 0.007004 -0.006805 -0.000002 0.002220 0.000006
# 2 0.007004 -0.016133 0.013021 -0.000002 0.001627 0.000004
# 3 -0.006805 0.013021 -0.000098 -0.000015 -0.001235 0.000001
# 4 -0.000002 -0.000002 -0.000015 0.049755 -0.000008 -0.018561
# 5 0.002220 0.001627 -0.001235 -0.000008 0.021594 0.000012
# 6 0.000006 0.000004 0.000001 -0.018561 0.000012 0.096815
#
#
# Mechanical properties :
#
#
# Convention : Reuss Voigt Hill
#
# Bulk Modulus (GPa) = 55.92168 56.70032 56.31100
# Shear Modulus (GPa) = 35.93849 21.29300 28.61575
#
# Velocity S-wave (km/s) = 3.71761 2.86156 3.31731
# Velocity P-wave (km/s) = 6.31925 5.72039 6.02726
#
# Compressibility (1/GPa) = 0.01788215
#
# Stress axis : x y z
#
# Youngs Moduli (GPa) = 130.32271 -61.98356 -10243.20993
#
# Poissons Ratio (x) = 0.43411 -69.70210
# Poissons Ratio (y) = -0.91273 133.37676
# Poissons Ratio (z) = 0.88681 0.80709
#
# Static dielectric constant tensor:
#      x y z
#    x 1.130410 0.000110 -0.913600 
#    y 0.000110 2.122260 0.000110 
#    z -0.913600 0.000110 1.278790 
# 
# From -- ./inp_files/199372.got.cif
#   From: 2010.05.17/outbox.cif.g08.bks.cpg/sg15_100_cif.got.tgz:199372.got - 2010.06.03 18:47:42.
