data_PCOD9291842
_publ_section_title
;
Structure prediction by ZEFSAII (Michael W. Deem and Ramdas Pophale) SiO2 
 PCOD9291842
Probable space group: C 2/C
;
_chemical_formula_sum "Si O2"
_cell_formula_units_Z 40
_cell_length_a 11.587863
_cell_length_b 29.586464
_cell_length_c 5.184717
_cell_angle_alpha 90.000000
_cell_angle_beta 86.589278
_cell_angle_gamma 90.000000
_cell_volume 1774.400002
_symmetry_space_group_name_H-M "C 2/C"
_symmetry_group_IT_number 15
_symmetry_cell_setting 'monoclinic'
loop_
_space_group_symop_operation_xyz
x,y,z
-x,y,1/2-z
-x,-y,-z
x,-y,1/2+z
1/2+x,1/2+y,z
1/2-x,1/2+y,1/2-z
1/2-x,1/2-y,-z
1/2+x,1/2-y,1/2+z
loop_
_atom_site_type_symbol
_atom_site_label
_atom_site_fract_x
_atom_site_fract_y
_atom_site_fract_z
Si Si1 0.000000 0.822121 0.250000
Si Si2 0.000000 0.115438 0.250000
Si Si3 0.077254 0.659302 0.982511
Si Si4 0.254392 0.704700 0.659350
Si Si5 0.743038 0.112430 0.314800
Si Si6 0.363234 0.978112 0.708169
O O1 0.119916 0.795898 0.230558
O O2 0.997468 0.853259 0.500293
O O3 0.126811 0.093336 0.226582
O O4 0.182434 0.626960 0.054588
O O5 0.000000 0.665583 0.250000
O O6 0.000000 0.643706 0.750000
O O7 0.853410 0.702552 0.631587
O O8 0.250000 0.750000 0.500000
O O9 0.244772 0.658478 0.485626
O O10 0.663219 0.070805 0.408331
O O11 0.500000 0.982145 0.750000
O O12 0.315994 0.013074 0.501782
#
# Coordination Sequence:
#
# PCOD9291842 Si02
#       6
#     4   4   8   8   8   8
#     4  10  22  46  66  97 140 190 240 289 348 422
#     4  10  22  42  72  97 134 190 232 283 354 426
#     4  12  25  44  69 107 142 184 238 305 362 421
#     4  11  26  47  75 104 146 195 250 296 360 430
#     4  11  24  46  71 102 144 188 241 294 364 425
#     4  10  24  42  69 102 139 182 230 294 369 438
#
# _framework density 22.542832000000001
#
# number of rings (size 3 to 8) (size 9 to 14) (size 15 to 20)
#    0.000    1.200    4.000    0.600    2.800    3.200 
#    7.200    1.000    0.000    0.000    0.000    0.000 
#    0.000    0.000    0.000    0.000    0.000    0.000 
#
# Total GULP energy -111582.824072 kJ/mol
# GULP energy per Si atom -5579.141204 kJ/mol
# Density = 2.249152 g / cm^3
# Si number density = 22.542832 Si / 1000 Ang^3
#
#
#
# Elastic Constant Matrix: (Units=GPa)
#
#
# Indices 1 2 3 4 5 6 
#
# 1 109.6306 -1.6238 48.7124 0.0000 27.8538 0.0000
# 2 -1.6238 83.7242 35.9671 0.0000 5.8437 0.0000
# 3 48.7124 35.9671 142.3197 0.0000 9.2511 0.0000
# 4 0.0000 0.0000 0.0000 10.9154 0.0000 -17.8612
# 5 27.8538 5.8437 9.2511 0.0000 36.9400 0.0000
# 6 0.0000 0.0000 0.0000 -17.8612 0.0000 0.9143
#
#
#
# Elastic Compliance Matrix: (Units=1/GPa)
#
#
# Indices 1 2 3 4 5 6 
#
# 1 0.013774 0.003025 -0.004852 0.000000 -0.009649 0.000000
# 2 0.003025 0.014124 -0.004383 0.000000 -0.003418 0.000000
# 3 -0.004852 -0.004383 0.009669 0.000000 0.001930 0.000000
# 4 0.000000 0.000000 0.000000 -0.002958 0.000000 -0.057795
# 5 -0.009649 -0.003418 0.001930 0.000000 0.034404 0.000000
# 6 0.000000 0.000000 0.000000 -0.057795 0.000000 -0.035320
#
#
# Mechanical properties :
#
#
# Convention : Reuss Voigt Hill
#
# Bulk Modulus (GPa) = 39.76466 55.75397 47.75931
# Shear Modulus (GPa) = 91.75441 26.59520 59.17480
#
# Velocity S-wave (km/s) = 6.38675 3.43849 5.12903
# Velocity P-wave (km/s) = 8.48913 6.36793 7.50386
#
# Compressibility (1/GPa) = 0.02514796
#
# Stress axis : x y z
#
# Youngs Moduli (GPa) = 72.60261 70.80203 103.42215
#
# Poissons Ratio (x) = -0.21416 0.50176
# Poissons Ratio (y) = -0.21961 0.45325
# Poissons Ratio (z) = 0.35224 0.31029
#
# Static dielectric constant tensor:
#      x y z
#    x 1.920660 0.000000 -0.033660 
#    y 0.000000 1.851210 0.000000 
#    z -0.033660 0.000000 1.924460 
# 
# From -- ./inp_files/5085.got.cif
#   From: 2010.05.17/outbox.cif.g08.bks.cpg/sg15_3_cif.got.tgz:5085.got - 2010.06.03 18:47:42.
