data_PCOD9291583
_publ_section_title
;
Structure prediction by ZEFSAII (Michael W. Deem and Ramdas Pophale) SiO2 
 PCOD9291583
Probable space group: C 2/C
;
_chemical_formula_sum "Si O2"
_cell_formula_units_Z 36
_cell_length_a 14.227043
_cell_length_b 9.378621
_cell_length_c 18.344649
_cell_angle_alpha 90.000000
_cell_angle_beta 142.222254
_cell_angle_gamma 90.000000
_cell_volume 1499.478022
_symmetry_space_group_name_H-M "C 2/C"
_symmetry_group_IT_number 15
_symmetry_cell_setting 'monoclinic'
loop_
_space_group_symop_operation_xyz
x,y,z
-x,y,1/2-z
-x,-y,-z
x,-y,1/2+z
1/2+x,1/2+y,z
1/2-x,1/2+y,1/2-z
1/2-x,1/2-y,-z
1/2+x,1/2-y,1/2+z
loop_
_atom_site_type_symbol
_atom_site_label
_atom_site_fract_x
_atom_site_fract_y
_atom_site_fract_z
Si Si1 0.500000 0.099355 0.250000
Si Si2 0.766644 0.101670 0.313683
Si Si3 0.611616 0.367009 0.017781
Si Si4 0.760361 0.921601 0.012555
Si Si5 0.668143 0.933760 0.589456
O O1 0.630190 0.168603 0.278062
O O2 0.395851 0.024313 0.124299
O O3 0.731624 0.102872 0.207627
O O4 0.935744 0.160322 0.433144
O O5 0.788293 0.939879 0.356804
O O6 0.615233 0.485831 0.955964
O O7 0.671581 0.209461 0.042569
O O8 0.750000 0.750000 0.000000
O O9 0.762830 0.958120 0.098315
O O10 0.500000 0.000000 0.500000
#
# Coordination Sequence:
#
# PCOD9291583 Si02
#       5
#     4   8   8   8   8
#     4  10  22  42  68  98 144 184 228 290 354 416
#     4  10  24  43  74 102 146 183 238 291 355 418
#     4  10  26  46  70 105 146 189 235 296 356 425
#     4  11  26  46  70 104 143 187 238 291 361 420
#     4  12  26  43  74 107 138 188 243 288 359 423
#
# _framework density 24.008355999999999
#
# number of rings (size 3 to 8) (size 9 to 14) (size 15 to 20)
#    0.000    1.333    2.222    0.667   12.444    2.667 
#    0.000    0.000    0.000    0.000    0.000    0.000 
#    0.000    0.000    0.000    0.000    0.000    0.000 
#
# Total GULP energy -100346.435181 kJ/mol
# GULP energy per Si atom -5574.801955 kJ/mol
# Density = 2.395371 g / cm^3
# Si number density = 24.008356 Si / 1000 Ang^3
#
#
#
# Elastic Constant Matrix: (Units=GPa)
#
#
# Indices 1 2 3 4 5 6 
#
# 1 172.2140 50.6858 28.1221 0.0000 -15.9712 0.0000
# 2 50.6858 151.5189 4.5687 0.0000 -8.5333 0.0000
# 3 28.1221 4.5687 65.1025 0.0000 -4.6243 0.0000
# 4 0.0000 0.0000 0.0000 9.2714 0.0000 -9.7657
# 5 -15.9712 -8.5333 -4.6243 0.0000 46.5509 0.0000
# 6 0.0000 0.0000 0.0000 -9.7657 0.0000 24.3233
#
#
#
# Elastic Compliance Matrix: (Units=1/GPa)
#
#
# Indices 1 2 3 4 5 6 
#
# 1 0.007064 -0.002181 -0.002774 0.000000 0.001748 0.000000
# 2 -0.002181 0.007352 0.000472 0.000000 0.000646 0.000000
# 3 -0.002774 0.000472 0.016581 0.000000 0.000782 0.000000
# 4 0.000000 0.000000 0.000000 0.186900 0.000000 0.075040
# 5 0.001748 0.000646 0.000782 0.000000 0.022278 0.000000
# 6 0.000000 0.000000 0.000000 0.075040 0.000000 0.071241
#
#
# Mechanical properties :
#
#
# Convention : Reuss Voigt Hill
#
# Bulk Modulus (GPa) = 45.39136 61.73207 53.56172
# Shear Modulus (GPa) = 15.25669 36.39303 25.82486
#
# Velocity S-wave (km/s) = 2.52360 3.89761 3.28329
# Velocity P-wave (km/s) = 5.23822 6.78408 6.06064
#
# Compressibility (1/GPa) = 0.02203063
#
# Stress axis : x y z
#
# Youngs Moduli (GPa) = 141.56859 136.02606 60.30959
#
# Poissons Ratio (x) = 0.29665 0.16730
# Poissons Ratio (y) = 0.30874 -0.02847
# Poissons Ratio (z) = 0.39272 -0.06421
#
# Static dielectric constant tensor:
#      x y z
#    x 1.987750 0.000000 0.006290 
#    y 0.000000 1.923210 0.000000 
#    z 0.006290 0.000000 1.904610 
# 
# From -- ./inp_files/242892.got.cif
#   From: 2010.05.17/outbox.cif.g08.bks.cpg/sg15_122_cif.got.tgz:242892.got - 2010.06.03 18:47:42.
