data_PCOD9291807
_publ_section_title
;
Structure prediction by ZEFSAII (Michael W. Deem and Ramdas Pophale) SiO2 
 PCOD9291807
Probable space group: C 2/C
;
_chemical_formula_sum "Si O2"
_cell_formula_units_Z 60
_cell_length_a 18.814131
_cell_length_b 5.225886
_cell_length_c 29.227846
_cell_angle_alpha 90.000000
_cell_angle_beta 108.386038
_cell_angle_gamma 90.000000
_cell_volume 2727.002674
_symmetry_space_group_name_H-M "C 2/C"
_symmetry_group_IT_number 15
_symmetry_cell_setting 'monoclinic'
loop_
_space_group_symop_operation_xyz
x,y,z
-x,y,1/2-z
-x,-y,-z
x,-y,1/2+z
1/2+x,1/2+y,z
1/2-x,1/2+y,1/2-z
1/2-x,1/2-y,-z
1/2+x,1/2-y,1/2+z
loop_
_atom_site_type_symbol
_atom_site_label
_atom_site_fract_x
_atom_site_fract_y
_atom_site_fract_z
Si Si1 0.485969 0.744922 0.347851
Si Si2 0.000000 0.112491 0.250000
Si Si3 0.101113 0.269931 0.649705
Si Si4 0.233458 0.341567 0.608824
Si Si5 0.369111 0.039338 0.598616
Si Si6 0.703812 0.002937 0.504670
Si Si7 0.860103 0.807386 0.178654
Si Si8 0.205701 0.454683 0.751327
O O1 0.480447 0.772276 0.291540
O O2 0.443188 0.489942 0.352555
O O3 0.452637 0.987376 0.367895
O O4 0.572956 0.737169 0.378550
O O5 0.927798 0.946234 0.219326
O O6 0.165259 0.242125 0.624952
O O7 0.144406 0.346563 0.704458
O O8 0.198812 0.492641 0.558350
O O9 0.289712 0.512912 0.651020
O O10 0.286599 0.123396 0.598429
O O11 0.366569 0.989151 0.544070
O O12 0.390025 0.814016 0.637659
O O13 0.750000 0.250000 0.500000
O O14 0.750000 0.750000 0.500000
O O15 0.826400 0.584920 0.204461
O O16 0.227546 0.745004 0.742839
#
# Coordination Sequence:
#
# PCOD9291807 Si02
#       8
#     8   4   8   8   8   8   8   8
#     4  12  28  45  66  97 146 185 228 280 343 426
#     4  12  26  44  64 102 136 194 228 272 336 418
#     4  12  27  44  65 101 143 181 227 285 353 409
#     4  11  24  45  73 101 136 178 233 296 346 408
#     4  11  25  44  74 100 137 183 239 286 349 411
#     4  10  22  42  72 106 132 170 236 300 348 400
#     4  12  24  40  69  97 137 179 233 280 341 409
#     4  12  25  40  61  94 133 176 222 275 339 406
#
# _framework density 22.002179000000002
#
# number of rings (size 3 to 8) (size 9 to 14) (size 15 to 20)
#    0.000    0.533    5.333    2.400    3.733    0.533 
#    0.000    1.333    0.000    0.000    0.000    0.000 
#    0.000    0.000    0.000    0.000    0.000    0.000 
#
# Total GULP energy -167805.340509 kJ/mol
# GULP energy per Si atom -5593.511350 kJ/mol
# Density = 2.195210 g / cm^3
# Si number density = 22.002179 Si / 1000 Ang^3
#
#
#
# Elastic Constant Matrix: (Units=GPa)
#
#
# Indices 1 2 3 4 5 6 
#
# 1 111.9194 34.4538 38.7347 -0.0001 -6.5707 -0.0001
# 2 34.4538 77.6518 11.9613 -0.0003 1.4780 -0.0004
# 3 38.7347 11.9613 147.1520 -0.0001 11.4976 -0.0001
# 4 -0.0001 -0.0003 -0.0001 11.3010 0.0000 -18.2056
# 5 -6.5707 1.4780 11.4976 0.0000 18.2696 -0.0001
# 6 -0.0001 -0.0004 -0.0001 -18.2056 -0.0001 21.6058
#
#
#
# Elastic Compliance Matrix: (Units=1/GPa)
#
#
# Indices 1 2 3 4 5 6 
#
# 1 0.011992 -0.004944 -0.003284 0.000000 0.006780 0.000000
# 2 -0.004944 0.015082 0.000326 -0.000002 -0.003203 -0.000001
# 3 -0.003284 0.000326 0.008128 0.000000 -0.006323 0.000000
# 4 0.000000 -0.000002 0.000000 -0.247552 -0.000001 -0.208594
# 5 0.006780 -0.003203 -0.006323 -0.000001 0.061412 0.000000
# 6 0.000000 -0.000001 0.000000 -0.208594 0.000000 -0.129483
#
#
# Mechanical properties :
#
#
# Convention : Reuss Voigt Hill
#
# Bulk Modulus (GPa) = 51.55520 56.33588 53.94554
# Shear Modulus (GPa) = -19.36856 27.00684 3.81914
#
# Velocity S-wave (km/s) = -2.97021 3.50732 1.31893
# Velocity P-wave (km/s) = 3.42343 6.48552 5.18565
#
# Compressibility (1/GPa) = 0.01939669
#
# Stress axis : x y z
#
# Youngs Moduli (GPa) = 83.39114 66.30270 123.03451
#
# Poissons Ratio (x) = 0.32779 0.40410
# Poissons Ratio (y) = 0.41227 -0.04007
# Poissons Ratio (z) = 0.27389 -0.02159
#
# Static dielectric constant tensor:
#      x y z
#    x 1.835250 0.000000 0.016520 
#    y 0.000000 1.857760 0.000000 
#    z 0.016520 0.000000 1.855860 
# 
# From -- ./inp_files/315078.got.cif
#   From: 2010.05.17/outbox.cif.g08.bks.cpg/sg15_158_cif.got.tgz:315078.got - 2010.06.03 18:47:42.
