data_PCOD9291871
_publ_section_title
;
Structure prediction by ZEFSAII (Michael W. Deem and Ramdas Pophale) SiO2 
 PCOD9291871
Probable space group: C 2/C
;
_chemical_formula_sum "Si O2"
_cell_formula_units_Z 44
_cell_length_a 13.257145
_cell_length_b 12.504797
_cell_length_c 24.054496
_cell_angle_alpha 90.000000
_cell_angle_beta 151.244789
_cell_angle_gamma 90.000000
_cell_volume 1918.358800
_symmetry_space_group_name_H-M "C 2/C"
_symmetry_group_IT_number 15
_symmetry_cell_setting 'monoclinic'
loop_
_space_group_symop_operation_xyz
x,y,z
-x,y,1/2-z
-x,-y,-z
x,-y,1/2+z
1/2+x,1/2+y,z
1/2-x,1/2+y,1/2-z
1/2-x,1/2-y,-z
1/2+x,1/2-y,1/2+z
loop_
_atom_site_type_symbol
_atom_site_label
_atom_site_fract_x
_atom_site_fract_y
_atom_site_fract_z
Si Si1 0.000000 0.915447 0.250000
Si Si2 0.665364 0.554421 0.536714
Si Si3 0.556783 0.051200 0.661850
Si Si4 0.537173 0.123305 0.535748
Si Si5 0.229420 0.278089 0.325885
Si Si6 0.439232 0.582786 0.313428
O O1 0.962442 0.991903 0.178529
O O2 0.214409 0.853362 0.343738
O O3 0.500000 0.500000 0.500000
O O4 0.782253 0.649367 0.625167
O O5 0.784251 0.630306 0.728186
O O6 0.537363 0.592520 0.421338
O O7 0.466385 0.120207 0.566260
O O8 0.370565 0.999209 0.608464
O O9 0.702605 0.957985 0.708935
O O10 0.425866 0.204497 0.440053
O O11 0.500000 0.000000 0.500000
O O12 0.067305 0.190616 0.224798
#
# Coordination Sequence:
#
# PCOD9291871 Si02
#       6
#     4   8   8   8   8   8
#     4  10  22  42  74 104 148 186 236 298 346 420
#     4  12  27  45  71 105 142 187 238 297 356 421
#     4  11  25  45  72 102 145 184 234 299 354 424
#     4  11  22  44  71 106 143 186 239 294 351 421
#     4  12  25  44  73 103 139 190 239 286 358 423
#     4  11  25  45  70 109 142 185 239 292 356 421
#
# _framework density 22.936271999999999
#
# number of rings (size 3 to 8) (size 9 to 14) (size 15 to 20)
#    0.000    0.727    5.455    2.727    2.545    1.455 
#    0.000   10.000    0.000    0.000    0.000    0.000 
#    0.000    0.000    0.000    0.000    0.000    0.000 
#
# Total GULP energy -122662.398856 kJ/mol
# GULP energy per Si atom -5575.563584 kJ/mol
# Density = 2.288407 g / cm^3
# Si number density = 22.936272 Si / 1000 Ang^3
#
#
#
# Elastic Constant Matrix: (Units=GPa)
#
#
# Indices 1 2 3 4 5 6 
#
# 1 153.3773 32.7521 50.2465 0.0001 5.1979 0.0001
# 2 32.7521 51.1107 28.4390 0.0002 -3.3966 0.0000
# 3 50.2465 28.4390 147.6863 0.0004 -36.7775 0.0000
# 4 0.0001 0.0002 0.0004 31.0325 0.0002 -0.8099
# 5 5.1979 -3.3966 -36.7775 0.0002 59.7768 0.0001
# 6 0.0001 0.0000 0.0000 -0.8099 0.0001 21.5382
#
#
#
# Elastic Compliance Matrix: (Units=1/GPa)
#
#
# Indices 1 2 3 4 5 6 
#
# 1 0.008360 -0.004015 -0.002727 0.000000 -0.002633 0.000000
# 2 -0.004015 0.023971 -0.003335 0.000000 -0.000341 0.000000
# 3 -0.002727 -0.003335 0.009864 0.000000 0.006116 0.000000
# 4 0.000000 0.000000 0.000000 0.032256 0.000000 0.001213
# 5 -0.002633 -0.000341 0.006116 0.000000 0.020702 0.000000
# 6 0.000000 0.000000 0.000000 0.001213 0.000000 0.046475
#
#
# Mechanical properties :
#
#
# Convention : Reuss Voigt Hill
#
# Bulk Modulus (GPa) = 45.36731 63.89439 54.63085
# Shear Modulus (GPa) = 29.56361 38.51861 34.04111
#
# Velocity S-wave (km/s) = 3.59408 4.10246 3.85666
# Velocity P-wave (km/s) = 6.08654 7.09634 6.61075
#
# Compressibility (1/GPa) = 0.02204230
#
# Stress axis : x y z
#
# Youngs Moduli (GPa) = 119.62231 41.71710 101.37772
#
# Poissons Ratio (x) = 0.16748 0.27642
# Poissons Ratio (y) = 0.48025 0.33808
# Poissons Ratio (z) = 0.32617 0.13912
#
# Static dielectric constant tensor:
#      x y z
#    x 1.908670 0.000000 0.046290 
#    y 0.000000 1.816560 0.000000 
#    z 0.046290 0.000000 1.910260 
# 
# From -- ./inp_files/274221.got.cif
#   From: 2010.05.17/outbox.cif.g08.bks.cpg/sg15_138_cif.got.tgz:274221.got - 2010.06.03 18:47:42.
