data_PCOD9291040
_publ_section_title
;
Structure prediction by ZEFSAII (Michael W. Deem and Ramdas Pophale) SiO2 
 PCOD9291040
Probable space group: C 2/C
;
_chemical_formula_sum "Si O2"
_cell_formula_units_Z 48
_cell_length_a 18.735656
_cell_length_b 4.940701
_cell_length_c 24.146831
_cell_angle_alpha 90.000000
_cell_angle_beta 67.381726
_cell_angle_gamma 90.000000
_cell_volume 2063.291252
_symmetry_space_group_name_H-M "C 2/C"
_symmetry_group_IT_number 15
_symmetry_cell_setting 'monoclinic'
loop_
_space_group_symop_operation_xyz
x,y,z
-x,y,1/2-z
-x,-y,-z
x,-y,1/2+z
1/2+x,1/2+y,z
1/2-x,1/2+y,1/2-z
1/2-x,1/2-y,-z
1/2+x,1/2-y,1/2+z
loop_
_atom_site_type_symbol
_atom_site_label
_atom_site_fract_x
_atom_site_fract_y
_atom_site_fract_z
Si Si1 0.862255 0.483410 0.038657
Si Si2 0.598171 0.378639 0.873200
Si Si3 0.809018 0.020937 0.501912
Si Si4 0.301256 0.734085 0.726800
Si Si5 0.953811 0.214306 0.918310
Si Si6 0.457679 0.998320 0.205514
O O1 0.881109 0.364826 0.092475
O O2 0.846941 0.799769 0.039990
O O3 0.795131 0.275209 0.033653
O O4 0.929202 0.423769 0.973478
O O5 0.667098 0.579473 0.836616
O O6 0.524640 0.536940 0.918132
O O7 0.569862 0.255728 0.822739
O O8 0.750000 0.250000 0.500000
O O9 0.876078 0.964468 0.436961
O O10 0.251723 0.003602 0.729206
O O11 0.378365 0.829356 0.736300
O O12 0.982829 0.347285 0.853159
O O13 0.500000 0.935352 0.250000
#
# Coordination Sequence:
#
# PCOD9291040 Si02
#       6
#     8   8   8   8   8   8
#     4  10  23  40  70 102 132 180 223 284 345 412
#     4  11  23  43  74 103 139 175 243 284 360 418
#     4  10  22  42  63  96 146 178 226 272 350 419
#     4  11  24  49  70  98 140 182 238 296 350 424
#     4   9  23  40  68  96 140 174 227 279 350 408
#     4  11  25  46  73 104 142 189 242 298 356 423
#
# _framework density 23.263802999999999
#
# number of rings (size 3 to 8) (size 9 to 14) (size 15 to 20)
#    1.000    0.667    1.667    2.000    4.667    4.000 
#    6.000    0.000    0.000    0.000    0.000    0.000 
#    0.000    0.000    0.000    0.000    0.000    0.000 
#
# Total GULP energy -133912.194072 kJ/mol
# GULP energy per Si atom -5579.674753 kJ/mol
# Density = 2.321085 g / cm^3
# Si number density = 23.263803 Si / 1000 Ang^3
#
#
#
# Elastic Constant Matrix: (Units=GPa)
#
#
# Indices 1 2 3 4 5 6 
#
# 1 77.7833 8.1853 38.6360 -0.0245 -18.1109 -0.0088
# 2 8.1853 119.1833 6.6864 -0.0357 -15.9982 0.0118
# 3 38.6360 6.6864 81.8583 -0.0008 7.0565 -0.0026
# 4 -0.0245 -0.0357 -0.0008 -10.6614 -0.0377 19.1472
# 5 -18.1109 -15.9982 7.0565 -0.0377 35.9702 0.0015
# 6 -0.0088 0.0118 -0.0026 19.1472 0.0015 17.2822
#
#
#
# Elastic Compliance Matrix: (Units=1/GPa)
#
#
# Indices 1 2 3 4 5 6 
#
# 1 0.021589 0.000978 -0.011438 -0.000029 0.013549 0.000040
# 2 0.000978 0.009064 -0.001619 -0.000020 0.004841 0.000016
# 3 -0.011438 -0.001619 0.018620 0.000021 -0.010132 -0.000025
# 4 -0.000029 -0.000020 0.000021 -0.031372 -0.000062 0.034758
# 5 0.013549 0.004841 -0.010132 -0.000062 0.038763 0.000068
# 6 0.000040 0.000016 -0.000025 0.034758 0.000068 0.019354
#
#
# Mechanical properties :
#
#
# Convention : Reuss Voigt Hill
#
# Bulk Modulus (GPa) = 39.81651 42.87117 41.34384
# Shear Modulus (GPa) = 46.06252 23.53935 34.80094
#
# Velocity S-wave (km/s) = 4.45456 3.18440 3.87192
# Velocity P-wave (km/s) = 6.60377 5.65587 6.14811
#
# Compressibility (1/GPa) = 0.02511521
#
# Stress axis : x y z
#
# Youngs Moduli (GPa) = 46.31938 110.32705 53.70486
#
# Poissons Ratio (x) = -0.10786 0.61426
# Poissons Ratio (y) = -0.04528 0.08695
# Poissons Ratio (z) = 0.52978 0.17863
#
# Static dielectric constant tensor:
#      x y z
#    x 2.029980 0.000000 0.048600 
#    y 0.000000 1.909090 -0.000020 
#    z 0.048600 -0.000020 1.872000 
# 
# From -- ./inp_files/275627.got.cif
#   From: 2010.05.17/outbox.cif.g08.bks.cpg/sg15_138_cif.got.tgz:275627.got - 2010.06.03 18:47:42.
