data_PCOD9291179
_publ_section_title
;
Structure prediction by ZEFSAII (Michael W. Deem and Ramdas Pophale) SiO2 
 PCOD9291179
Probable space group: C 2/C
;
_chemical_formula_sum "Si O2"
_cell_formula_units_Z 56
_cell_length_a 22.241005
_cell_length_b 5.165529
_cell_length_c 22.614020
_cell_angle_alpha 90.000000
_cell_angle_beta 73.228238
_cell_angle_gamma 90.000000
_cell_volume 2487.530721
_symmetry_space_group_name_H-M "C 2/C"
_symmetry_group_IT_number 15
_symmetry_cell_setting 'monoclinic'
loop_
_space_group_symop_operation_xyz
x,y,z
-x,y,1/2-z
-x,-y,-z
x,-y,1/2+z
1/2+x,1/2+y,z
1/2-x,1/2+y,1/2-z
1/2-x,1/2-y,-z
1/2+x,1/2-y,1/2+z
loop_
_atom_site_type_symbol
_atom_site_label
_atom_site_fract_x
_atom_site_fract_y
_atom_site_fract_z
Si Si1 0.193544 0.407092 0.139979
Si Si2 0.303003 0.263368 0.568370
Si Si3 0.315565 0.462414 0.946047
Si Si4 0.550268 0.621015 0.820174
Si Si5 0.107200 0.640397 0.855161
Si Si6 0.409702 0.696369 0.821920
Si Si7 0.283354 0.381967 0.755172
O O1 0.256507 0.575920 0.124820
O O2 0.130129 0.543900 0.178497
O O3 0.205985 0.163435 0.178465
O O4 0.185607 0.335935 0.073289
O O5 0.327012 0.450442 0.509246
O O6 0.253469 0.065271 0.553262
O O7 0.359867 0.147662 0.589972
O O8 0.368406 0.569775 0.886048
O O9 0.554180 0.359269 0.857892
O O10 0.479646 0.715978 0.827477
O O11 0.580222 0.573836 0.746157
O O12 0.585346 0.856161 0.842936
O O13 0.161254 0.747986 0.796554
O O14 0.273477 0.682110 0.743777
#
# Coordination Sequence:
#
# PCOD9291179 Si02
#       7
#     8   8   8   8   8   8   8
#     4  11  21  36  65  90 126 165 213 265 322 385
#     4  10  23  40  63  96 130 166 213 264 328 390
#     4  10  22  42  65  92 127 171 218 262 320 385
#     4  11  26  43  67  94 132 170 220 265 323 372
#     4  12  24  42  64  97 133 168 207 270 325 385
#     4  10  24  42  64  94 122 174 219 268 310 383
#     4  12  23  36  61  98 135 159 203 262 335 394
#
# _framework density 22.512286
#
# number of rings (size 3 to 8) (size 9 to 14) (size 15 to 20)
#    0.000    1.143    2.857    3.000    6.000    1.143 
#    0.000    1.429    0.000    0.000    0.000    0.000 
#    0.000    0.000    0.000    0.000    0.000    0.000 
#
# Total GULP energy -156406.330088 kJ/mol
# GULP energy per Si atom -5585.940360 kJ/mol
# Density = 2.246105 g / cm^3
# Si number density = 22.512286 Si / 1000 Ang^3
#
#
#
# Elastic Constant Matrix: (Units=GPa)
#
#
# Indices 1 2 3 4 5 6 
#
# 1 109.3795 23.0168 42.5203 -0.0006 11.3130 -0.0003
# 2 23.0168 53.5547 13.1912 -0.0021 -1.9891 -0.0023
# 3 42.5203 13.1912 99.8158 -0.0007 7.7276 -0.0003
# 4 -0.0006 -0.0021 -0.0007 35.0645 -0.0005 11.0017
# 5 11.3130 -1.9891 7.7276 -0.0005 30.1165 -0.0003
# 6 -0.0003 -0.0023 -0.0003 11.0017 -0.0003 17.0085
#
#
#
# Elastic Compliance Matrix: (Units=1/GPa)
#
#
# Indices 1 2 3 4 5 6 
#
# 1 0.012100 -0.004279 -0.004301 0.000000 -0.003724 0.000000
# 2 -0.004279 0.020929 -0.001198 0.000000 0.003297 0.000002
# 3 -0.004301 -0.001198 0.012131 0.000000 -0.001576 0.000000
# 4 0.000000 0.000000 0.000000 0.035780 0.000000 -0.023144
# 5 -0.003724 0.003297 -0.001576 0.000000 0.035226 0.000001
# 6 0.000000 0.000002 0.000000 -0.023144 0.000001 0.073764
#
#
# Mechanical properties :
#
#
# Convention : Reuss Voigt Hill
#
# Bulk Modulus (GPa) = 39.05675 46.68961 42.87318
# Shear Modulus (GPa) = 22.93353 28.70602 25.81978
#
# Velocity S-wave (km/s) = 3.19519 3.57477 3.39029
# Velocity P-wave (km/s) = 5.56768 6.15006 5.86610
#
# Compressibility (1/GPa) = 0.02560377
#
# Stress axis : x y z
#
# Youngs Moduli (GPa) = 82.64454 47.77990 82.43457
#
# Poissons Ratio (x) = 0.20447 0.35452
# Poissons Ratio (y) = 0.35367 0.09878
# Poissons Ratio (z) = 0.35542 0.05725
#
# Static dielectric constant tensor:
#      x y z
#    x 1.883980 0.000000 0.005000 
#    y 0.000000 1.939270 0.000000 
#    z 0.005000 0.000000 1.844980 
# 
# From -- ./inp_files/278913.got.cif
#   From: 2010.05.17/outbox.cif.g08.bks.cpg/sg15_140_cif.got.tgz:278913.got - 2010.06.03 18:47:42.
