data_PCOD9291469
_publ_section_title
;
Structure prediction by ZEFSAII (Michael W. Deem and Ramdas Pophale) SiO2 
 PCOD9291469
Probable space group: C 2/C
;
_chemical_formula_sum "Si O2"
_cell_formula_units_Z 52
_cell_length_a 16.259478
_cell_length_b 12.320618
_cell_length_c 13.074258
_cell_angle_alpha 90.000000
_cell_angle_beta 120.202153
_cell_angle_gamma 90.000000
_cell_volume 2263.593795
_symmetry_space_group_name_H-M "C 2/C"
_symmetry_group_IT_number 15
_symmetry_cell_setting 'monoclinic'
loop_
_space_group_symop_operation_xyz
x,y,z
-x,y,1/2-z
-x,-y,-z
x,-y,1/2+z
1/2+x,1/2+y,z
1/2-x,1/2+y,1/2-z
1/2-x,1/2-y,-z
1/2+x,1/2-y,1/2+z
loop_
_atom_site_type_symbol
_atom_site_label
_atom_site_fract_x
_atom_site_fract_y
_atom_site_fract_z
Si Si1 0.104131 0.725002 0.615316
Si Si2 0.381596 0.414203 0.258140
Si Si3 0.313887 0.385182 0.519655
Si Si4 0.426900 0.575513 0.549998
Si Si5 0.000000 0.208984 0.250000
Si Si6 0.181123 0.501190 0.094822
Si Si7 0.688345 0.774237 0.665315
O O1 0.071559 0.819699 0.518837
O O2 0.119026 0.607854 0.568628
O O3 0.208203 0.765715 0.718230
O O4 0.035480 0.724368 0.672051
O O5 0.469753 0.475760 0.363124
O O6 0.393907 0.395244 0.144909
O O7 0.280761 0.468977 0.209632
O O8 0.379705 0.298762 0.310142
O O9 0.356448 0.480088 0.475054
O O10 0.402812 0.355215 0.652281
O O11 0.222944 0.443613 0.516056
O O12 0.296973 0.283092 0.435933
O O13 0.144030 0.607170 0.128447
#
# Coordination Sequence:
#
# PCOD9291469 Si02
#       7
#     8   8   8   8   4   8   8
#     4  11  26  41  67  98 139 175 227 282 342 404
#     4   9  21  41  66  97 129 167 221 282 335 387
#     4  11  23  40  74  97 136 174 229 282 336 394
#     4  10  22  42  68 100 130 170 226 283 337 396
#     4  12  24  44  68 106 136 176 230 288 336 402
#     4  10  22  43  62  99 132 176 223 269 330 419
#     4  11  23  40  66  97 134 178 223 277 335 403
#
# _framework density 22.972318999999999
#
# number of rings (size 3 to 8) (size 9 to 14) (size 15 to 20)
#    0.000    1.538    1.538    3.231    4.308    6.769 
#    0.000    4.615    0.000    0.000    0.000    0.000 
#    0.000    0.000    0.000    0.000    0.000    0.000 
#
# Total GULP energy -145085.263652 kJ/mol
# GULP energy per Si atom -5580.202448 kJ/mol
# Density = 2.292003 g / cm^3
# Si number density = 22.972319 Si / 1000 Ang^3
#
#
#
# Elastic Constant Matrix: (Units=GPa)
#
#
# Indices 1 2 3 4 5 6 
#
# 1 72.3315 22.1480 10.7064 0.0000 -18.2690 0.0000
# 2 22.1480 148.2854 20.6446 0.0000 -20.8832 0.0000
# 3 10.7064 20.6446 85.9459 0.0000 -6.1428 0.0000
# 4 0.0000 0.0000 0.0000 17.1067 0.0000 -11.7193
# 5 -18.2690 -20.8832 -6.1428 0.0000 35.1476 0.0000
# 6 0.0000 0.0000 0.0000 -11.7193 0.0000 35.9615
#
#
#
# Elastic Compliance Matrix: (Units=1/GPa)
#
#
# Indices 1 2 3 4 5 6 
#
# 1 0.016274 -0.001203 -0.001200 0.000000 0.007535 0.000000
# 2 -0.001203 0.007637 -0.001423 0.000000 0.003664 0.000000
# 3 -0.001200 -0.001423 0.012174 0.000000 0.000659 0.000000
# 4 0.000000 0.000000 0.000000 0.075258 0.000000 0.024525
# 5 0.007535 0.003664 0.000659 0.000000 0.034660 0.000000
# 6 0.000000 0.000000 0.000000 0.024525 0.000000 0.035800
#
#
# Mechanical properties :
#
#
# Convention : Reuss Voigt Hill
#
# Bulk Modulus (GPa) = 35.16852 45.95122 40.55987
# Shear Modulus (GPa) = 25.13423 34.51409 29.82416
#
# Velocity S-wave (km/s) = 3.31132 3.88031 3.60705
# Velocity P-wave (km/s) = 5.47377 6.33420 5.91964
#
# Compressibility (1/GPa) = 0.02843452
#
# Stress axis : x y z
#
# Youngs Moduli (GPa) = 61.44722 130.93324 82.14529
#
# Poissons Ratio (x) = 0.15745 0.09857
# Poissons Ratio (y) = 0.07389 0.11688
# Poissons Ratio (z) = 0.07373 0.18630
#
# Static dielectric constant tensor:
#      x y z
#    x 1.914120 0.000000 -0.035710 
#    y 0.000000 1.874270 0.000000 
#    z -0.035710 0.000000 1.902310 
# 
# From -- ./inp_files/161052.got.cif
#   From: 2010.05.17/outbox.cif.g08.bks.cpg/sg15_81_cif.got.tgz:161052.got - 2010.06.03 18:47:42.
