data_PCOD9291280
_publ_section_title
;
Structure prediction by ZEFSAII (Michael W. Deem and Ramdas Pophale) SiO2 
 PCOD9291280
Probable space group: C 2/C
;
_chemical_formula_sum "Si O2"
_cell_formula_units_Z 60
_cell_length_a 13.666449
_cell_length_b 24.397788
_cell_length_c 9.009984
_cell_angle_alpha 90.000000
_cell_angle_beta 80.016840
_cell_angle_gamma 90.000000
_cell_volume 2958.721618
_symmetry_space_group_name_H-M "C 2/C"
_symmetry_group_IT_number 15
_symmetry_cell_setting 'monoclinic'
loop_
_space_group_symop_operation_xyz
x,y,z
-x,y,1/2-z
-x,-y,-z
x,-y,1/2+z
1/2+x,1/2+y,z
1/2-x,1/2+y,1/2-z
1/2-x,1/2-y,-z
1/2+x,1/2-y,1/2+z
loop_
_atom_site_type_symbol
_atom_site_label
_atom_site_fract_x
_atom_site_fract_y
_atom_site_fract_z
Si Si1 0.126673 0.659895 0.293532
Si Si2 0.451535 0.631569 0.413232
Si Si3 0.445764 0.452177 0.421231
Si Si4 0.222040 0.474977 0.549217
Si Si5 0.634013 0.745488 0.996682
Si Si6 0.237356 0.927874 0.635304
Si Si7 0.500000 0.818395 0.250000
Si Si8 0.070748 0.617868 0.012223
O O1 0.111051 0.720832 0.353273
O O2 0.222607 0.632686 0.340632
O O3 0.039342 0.621151 0.385592
O O4 0.129410 0.655526 0.116145
O O5 0.500000 0.652839 0.250000
O O6 0.532323 0.603721 0.496695
O O7 0.398513 0.682744 0.502719
O O8 0.375270 0.583669 0.382712
O O9 0.500000 0.450452 0.250000
O O10 0.500000 0.500000 0.500000
O O11 0.327424 0.460462 0.443381
O O12 0.241166 0.460902 0.717336
O O13 0.209549 0.538650 0.510409
O O14 0.130187 0.439154 0.511328
O O15 0.573736 0.779690 0.137195
O O16 0.750000 0.750000 0.000000
O O17 0.441366 0.856531 0.146953
#
# Coordination Sequence:
#
# PCOD9291280 Si02
#       8
#     8   8   8   8   8   8   4   8
#     4   9  20  42  64  89 127 167 204 265 325 371
#     4  12  23  41  62  92 131 167 208 259 316 379
#     4  12  24  40  61  89 127 168 206 257 312 370
#     4  11  23  38  62  94 124 165 209 257 317 380
#     4  11  22  39  67  93 123 167 218 260 321 381
#     4  11  22  37  64  90 126 168 208 257 315 378
#     4  10  22  42  66  92 126 168 214 274 322 380
#     4   9  21  41  65  89 129 163 208 265 322 379
#
# _framework density 20.279029000000001
#
# number of rings (size 3 to 8) (size 9 to 14) (size 15 to 20)
#    0.000    1.333    4.667    1.200    0.000    3.733 
#    4.800    2.000    0.000    0.000    0.000    0.000 
#    0.000    0.000    0.000    0.000    0.000    0.000 
#
# Total GULP energy -167346.143684 kJ/mol
# GULP energy per Si atom -5578.204789 kJ/mol
# Density = 2.023287 g / cm^3
# Si number density = 20.279029 Si / 1000 Ang^3
#
#
#
# Elastic Constant Matrix: (Units=GPa)
#
#
# Indices 1 2 3 4 5 6 
#
# 1 64.2588 10.8027 -9.8461 0.0000 11.5917 0.0000
# 2 10.8027 82.8988 29.3086 0.0000 16.6503 0.0000
# 3 -9.8461 29.3086 67.4716 0.0000 14.9238 0.0000
# 4 0.0000 0.0000 0.0000 17.3420 0.0000 -11.3318
# 5 11.5917 16.6503 14.9238 0.0000 24.4049 0.0000
# 6 0.0000 0.0000 0.0000 -11.3318 0.0000 27.4423
#
#
#
# Elastic Compliance Matrix: (Units=1/GPa)
#
#
# Indices 1 2 3 4 5 6 
#
# 1 0.018959 -0.002453 0.006307 0.000000 -0.011188 0.000000
# 2 -0.002453 0.015639 -0.005839 0.000000 -0.005934 0.000000
# 3 0.006307 -0.005839 0.020884 0.000000 -0.011783 0.000000
# 4 0.000000 0.000000 0.000000 0.078972 0.000000 0.032610
# 5 -0.011188 -0.005934 -0.011783 0.000000 0.057543 0.000000
# 6 0.000000 0.000000 0.000000 0.032610 0.000000 0.049906
#
#
# Mechanical properties :
#
#
# Convention : Reuss Voigt Hill
#
# Bulk Modulus (GPa) = 19.41307 30.57331 24.99319
# Shear Modulus (GPa) = 19.00829 26.12878 22.56854
#
# Velocity S-wave (km/s) = 3.06492 3.59341 3.33964
# Velocity P-wave (km/s) = 4.70305 5.68558 5.21750
#
# Compressibility (1/GPa) = 0.05151168
#
# Stress axis : x y z
#
# Youngs Moduli (GPa) = 52.74508 63.94408 47.88380
#
# Poissons Ratio (x) = 0.15687 -0.30200
# Poissons Ratio (y) = 0.12940 0.27958
# Poissons Ratio (z) = -0.33266 0.37335
#
# Static dielectric constant tensor:
#      x y z
#    x 1.731250 0.000000 0.009550 
#    y 0.000000 1.724290 0.000000 
#    z 0.009550 0.000000 1.721400 
# 
# From -- ./inp_files/42172.got.cif
#   From: 2010.05.17/outbox.cif.g08.bks.cpg/sg15_22_cif.got.tgz:42172.got - 2010.06.03 18:47:42.
