data_PCOD9291489
_publ_section_title
;
Structure prediction by ZEFSAII (Michael W. Deem and Ramdas Pophale) SiO2 
 PCOD9291489
Probable space group: C 2/C
;
_chemical_formula_sum "Si O2"
_cell_formula_units_Z 52
_cell_length_a 24.289516
_cell_length_b 5.110239
_cell_length_c 23.052892
_cell_angle_alpha 90.000000
_cell_angle_beta 129.478694
_cell_angle_gamma 90.000000
_cell_volume 2208.638414
_symmetry_space_group_name_H-M "C 2/C"
_symmetry_group_IT_number 15
_symmetry_cell_setting 'monoclinic'
loop_
_space_group_symop_operation_xyz
x,y,z
-x,y,1/2-z
-x,-y,-z
x,-y,1/2+z
1/2+x,1/2+y,z
1/2-x,1/2+y,1/2-z
1/2-x,1/2-y,-z
1/2+x,1/2-y,1/2+z
loop_
_atom_site_type_symbol
_atom_site_label
_atom_site_fract_x
_atom_site_fract_y
_atom_site_fract_z
Si Si1 0.279292 0.246604 0.190527
Si Si2 0.987903 0.101882 0.365811
Si Si3 0.000000 0.101102 0.750000
Si Si4 0.087319 0.609778 0.138586
Si Si5 0.693264 0.248938 0.120040
Si Si6 0.654091 0.321000 0.965374
Si Si7 0.651199 0.817849 0.888064
O O1 0.344571 0.176581 0.275637
O O2 0.250787 0.538069 0.180063
O O3 0.307328 0.219809 0.143761
O O4 0.215903 0.036909 0.155903
O O5 0.973084 0.068975 0.286758
O O6 0.940872 0.324802 0.364111
O O7 0.070561 0.169933 0.425366
O O8 0.971597 0.824080 0.384269
O O9 0.067015 0.268641 0.817679
O O10 0.117492 0.655848 0.094548
O O11 0.693311 0.252694 0.050759
O O12 0.672169 0.599523 0.949374
O O13 0.663072 0.100401 0.923085
#
# Coordination Sequence:
#
# PCOD9291489 Si02
#       7
#     8   8   4   8   8   8   8
#     4  12  25  43  70  97 127 182 219 280 315 388
#     4  11  24  40  71 100 132 162 223 271 342 380
#     4  10  22  42  68 104 132 164 204 294 326 400
#     4  12  25  44  69 101 126 179 220 279 319 388
#     4  12  27  46  65  91 145 176 226 257 323 396
#     4  11  26  43  65 103 133 180 207 277 328 404
#     4  11  24  41  70 101 133 166 226 266 343 380
#
# _framework density 23.543918000000001
#
# number of rings (size 3 to 8) (size 9 to 14) (size 15 to 20)
#    0.000    0.615    1.538    6.462    4.308    6.154 
#    0.000    0.000    0.000    0.000    0.000    0.000 
#    0.000    0.000    0.000    0.000    0.000    0.000 
#
# Total GULP energy -145835.940877 kJ/mol
# GULP energy per Si atom -5609.074649 kJ/mol
# Density = 2.349033 g / cm^3
# Si number density = 23.543918 Si / 1000 Ang^3
#
#
#
# Elastic Constant Matrix: (Units=GPa)
#
#
# Indices 1 2 3 4 5 6 
#
# 1 113.7452 7.1805 4.2012 -0.0086 -16.7297 0.0070
# 2 7.1805 79.0624 7.0315 -0.0177 -5.9735 0.0299
# 3 4.2012 7.0315 56.5533 0.0073 -4.5365 0.0031
# 4 -0.0086 -0.0177 0.0073 17.8573 0.0010 1.6021
# 5 -16.7297 -5.9735 -4.5365 0.0010 30.5694 -0.0001
# 6 0.0070 0.0299 0.0031 1.6021 -0.0001 47.7541
#
#
#
# Elastic Compliance Matrix: (Units=1/GPa)
#
#
# Indices 1 2 3 4 5 6 
#
# 1 0.009582 -0.000462 -0.000244 0.000004 0.005118 -0.000001
# 2 -0.000462 0.012972 -0.001412 0.000014 0.002073 -0.000008
# 3 -0.000244 -0.001412 0.018058 -0.000009 0.002270 0.000000
# 4 0.000004 0.000014 -0.000009 0.056169 0.000002 -0.001884
# 5 0.005118 0.002073 0.002270 0.000002 0.036255 -0.000002
# 6 -0.000001 -0.000008 0.000000 -0.001884 -0.000002 0.021004
#
#
# Mechanical properties :
#
#
# Convention : Reuss Voigt Hill
#
# Bulk Modulus (GPa) = 27.49006 31.79860 29.64433
# Shear Modulus (GPa) = 29.34225 34.63266 31.98745
#
# Velocity S-wave (km/s) = 3.53409 3.83950 3.68996
# Velocity P-wave (km/s) = 5.32490 5.76117 5.54732
#
# Compressibility (1/GPa) = 0.03637679
#
# Stress axis : x y z
#
# Youngs Moduli (GPa) = 104.35733 77.08678 55.37622
#
# Poissons Ratio (x) = 0.03561 0.01351
# Poissons Ratio (y) = 0.04821 0.07821
# Poissons Ratio (z) = 0.02545 0.10887
#
# Static dielectric constant tensor:
#      x y z
#    x 1.891760 -0.000010 0.004880 
#    y -0.000010 1.822460 0.000000 
#    z 0.004880 0.000000 1.882920 
# 
# From -- ./inp_files/281234.got.cif
#   From: 2010.05.17/outbox.cif.g08.bks.cpg/sg15_141_cif.got.tgz:281234.got - 2010.06.03 18:47:42.
