data_PCOD9291702
_publ_section_title
;
Structure prediction by ZEFSAII (Michael W. Deem and Ramdas Pophale) SiO2 
 PCOD9291702
Probable space group: C 2/C
;
_chemical_formula_sum "Si O2"
_cell_formula_units_Z 60
_cell_length_a 21.111191
_cell_length_b 13.396544
_cell_length_c 27.709058
_cell_angle_alpha 90.000000
_cell_angle_beta 156.928386
_cell_angle_gamma 90.000000
_cell_volume 3071.014595
_symmetry_space_group_name_H-M "C 2/C"
_symmetry_group_IT_number 15
_symmetry_cell_setting 'monoclinic'
loop_
_space_group_symop_operation_xyz
x,y,z
-x,y,1/2-z
-x,-y,-z
x,-y,1/2+z
1/2+x,1/2+y,z
1/2-x,1/2+y,1/2-z
1/2-x,1/2-y,-z
1/2+x,1/2-y,1/2+z
loop_
_atom_site_type_symbol
_atom_site_label
_atom_site_fract_x
_atom_site_fract_y
_atom_site_fract_z
Si Si1 0.650144 0.925829 0.605823
Si Si2 0.031330 0.783363 0.979408
Si Si3 0.000000 0.546223 0.250000
Si Si4 0.878203 0.694180 0.556247
Si Si5 0.864094 0.661215 0.061003
Si Si6 0.809072 0.375112 0.755269
Si Si7 0.182132 0.570535 0.805431
Si Si8 0.690194 0.509082 0.376231
O O1 0.591430 0.819441 0.544679
O O2 0.701607 0.906214 0.696453
O O3 0.774527 0.976938 0.655932
O O4 0.500000 0.000000 0.500000
O O5 0.053253 0.766095 0.937461
O O6 0.850118 0.811199 0.867035
O O7 0.151941 0.870532 0.079676
O O8 0.930035 0.608026 0.155996
O O9 0.856464 0.478013 0.170004
O O10 0.750000 0.750000 0.500000
O O11 0.780598 0.603095 0.463675
O O12 0.033335 0.645421 0.690803
O O13 0.027725 0.684185 0.145189
O O14 0.750000 0.750000 0.000000
O O15 0.765449 0.586850 0.956324
O O16 0.816430 0.479105 0.731082
O O17 0.500000 0.511672 0.250000
#
# Coordination Sequence:
#
# PCOD9291702 Si02
#       8
#     8   8   4   8   8   8   8   8
#     4  11  23  45  68  93 140 181 216 284 336 392
#     4  11  25  37  68 100 127 174 224 268 336 400
#     4  10  22  42  70  90 138 172 212 286 336 382
#     4  11  23  40  66  97 134 169 216 274 337 401
#     4  11  25  45  69  98 135 180 228 274 334 405
#     4  11  23  44  67  96 136 177 228 278 334 404
#     4  11  22  44  63  98 135 173 219 280 337 401
#     4  11  25  43  67 103 131 174 229 276 335 404
#
# _framework density 19.537517000000001
#
# number of rings (size 3 to 8) (size 9 to 14) (size 15 to 20)
#    0.000    1.067    4.000    2.800    6.533    3.200 
#    0.000    1.333    0.000    0.000    0.000    0.000 
#    0.000    0.000    0.000    0.000    0.000    0.000 
#
# Total GULP energy -167551.413844 kJ/mol
# GULP energy per Si atom -5585.047128 kJ/mol
# Density = 1.949305 g / cm^3
# Si number density = 19.537517 Si / 1000 Ang^3
#
#
#
# Elastic Constant Matrix: (Units=GPa)
#
#
# Indices 1 2 3 4 5 6 
#
# 1 142.9625 45.7172 48.2075 -0.0003 16.6512 -0.0003
# 2 45.7172 85.2292 29.4279 -0.0031 15.4444 -0.0010
# 3 48.2075 29.4279 104.4445 -0.0065 33.4864 -0.0013
# 4 -0.0003 -0.0031 -0.0065 22.6117 -0.0017 12.8017
# 5 16.6512 15.4444 33.4864 -0.0017 43.3197 -0.0004
# 6 -0.0003 -0.0010 -0.0013 12.8017 -0.0004 27.2438
#
#
#
# Elastic Compliance Matrix: (Units=1/GPa)
#
#
# Indices 1 2 3 4 5 6 
#
# 1 0.009325 -0.003925 -0.003321 -0.000002 0.000382 0.000001
# 2 -0.003925 0.014839 -0.001538 0.000002 -0.002593 0.000000
# 3 -0.003321 -0.001538 0.014565 0.000004 -0.009434 -0.000001
# 4 -0.000002 0.000002 0.000004 0.060255 -0.000001 -0.028313
# 5 0.000382 -0.002593 -0.009434 -0.000001 0.031155 0.000000
# 6 0.000001 0.000000 -0.000001 -0.028313 0.000000 0.050010
#
#
# Mechanical properties :
#
#
# Convention : Reuss Voigt Hill
#
# Bulk Modulus (GPa) = 47.25349 64.37125 55.81237
# Shear Modulus (GPa) = 24.41759 32.58728 28.50243
#
# Velocity S-wave (km/s) = 3.53906 4.08846 3.82364
# Velocity P-wave (km/s) = 6.39832 7.43683 6.93703
#
# Compressibility (1/GPa) = 0.02116246
#
# Stress axis : x y z
#
# Youngs Moduli (GPa) = 107.23643 67.38884 68.65602
#
# Poissons Ratio (x) = 0.26448 0.22799
# Poissons Ratio (y) = 0.42087 0.10561
# Poissons Ratio (z) = 0.35610 0.10366
#
# Static dielectric constant tensor:
#      x y z
#    x 1.617180 0.000000 -0.004900 
#    y 0.000000 1.676620 0.000000 
#    z -0.004900 0.000000 1.655060 
# 
# From -- ./inp_files/301199.got.cif
#   From: 2010.05.17/outbox.cif.g08.bks.cpg/sg15_151_cif.got.tgz:301199.got - 2010.06.03 18:47:42.
