data_PCOD9291855
_publ_section_title
;
Structure prediction by ZEFSAII (Michael W. Deem and Ramdas Pophale) SiO2 
 PCOD9291855
Probable space group: C 2/C
;
_chemical_formula_sum "Si O2"
_cell_formula_units_Z 48
_cell_length_a 14.238800
_cell_length_b 11.457875
_cell_length_c 20.608290
_cell_angle_alpha 90.000000
_cell_angle_beta 34.760180
_cell_angle_gamma 90.000000
_cell_volume 1916.915747
_symmetry_space_group_name_H-M "C 2/C"
_symmetry_group_IT_number 15
_symmetry_cell_setting 'monoclinic'
loop_
_space_group_symop_operation_xyz
x,y,z
-x,y,1/2-z
-x,-y,-z
x,-y,1/2+z
1/2+x,1/2+y,z
1/2-x,1/2+y,1/2-z
1/2-x,1/2-y,-z
1/2+x,1/2-y,1/2+z
loop_
_atom_site_type_symbol
_atom_site_label
_atom_site_fract_x
_atom_site_fract_y
_atom_site_fract_z
Si Si1 0.202292 0.455195 0.077277
Si Si2 0.890961 0.542892 0.000333
Si Si3 0.625217 0.349241 0.942940
Si Si4 0.563257 0.418167 0.837348
Si Si5 0.270665 0.267002 0.139922
Si Si6 0.836953 0.870334 0.311525
O O1 0.261398 0.580500 0.071264
O O2 0.183920 0.369330 0.148794
O O3 0.060282 0.459461 0.103038
O O4 0.366555 0.405451 0.947958
O O5 0.833110 0.670652 0.052693
O O6 0.746943 0.447571 0.085162
O O7 0.000000 0.500000 0.000000
O O8 0.601538 0.425342 0.891759
O O9 0.713951 0.233103 0.866507
O O10 0.444070 0.312470 0.071557
O O11 0.654160 0.307598 0.753286
O O12 0.623196 0.533979 0.765921
O O13 0.000000 0.818289 0.250000
#
# Coordination Sequence:
#
# PCOD9291855 Si02
#       6
#     8   8   8   8   8   8
#     4  11  24  45  71 107 140 191 239 287 361 419
#     4  11  22  44  69 102 137 185 240 288 348 420
#     4  11  25  43  71 109 141 184 238 296 345 426
#     4  10  23  41  74 100 146 183 235 283 355 423
#     4  10  22  42  73 103 139 190 230 289 354 421
#     4  11  23  45  68  99 142 194 230 284 359 411
#
# _framework density 25.040225
#
# number of rings (size 3 to 8) (size 9 to 14) (size 15 to 20)
#    0.000    1.333    3.333    2.500    4.667    0.667 
#    6.000    0.000    3.667    0.000    0.000    0.000 
#    0.000    0.000    0.000    0.000    0.000    0.000 
#
# Total GULP energy -134193.918275 kJ/mol
# GULP energy per Si atom -5591.413261 kJ/mol
# Density = 2.498323 g / cm^3
# Si number density = 25.040225 Si / 1000 Ang^3
#
#
#
# Elastic Constant Matrix: (Units=GPa)
#
#
# Indices 1 2 3 4 5 6 
#
# 1 128.0265 29.2523 33.8832 -0.0001 17.8429 0.0000
# 2 29.2523 120.3276 37.9971 -0.0001 4.7631 0.0000
# 3 33.8832 37.9971 110.0155 -0.0006 4.7592 0.0002
# 4 -0.0001 -0.0001 -0.0006 30.8875 0.0001 4.6543
# 5 17.8429 4.7631 4.7592 0.0001 35.4919 0.0000
# 6 0.0000 0.0000 0.0002 4.6543 0.0000 27.7815
#
#
#
# Elastic Compliance Matrix: (Units=1/GPa)
#
#
# Indices 1 2 3 4 5 6 
#
# 1 0.009297 -0.001400 -0.002198 0.000000 -0.004191 0.000000
# 2 -0.001400 0.009563 -0.002863 0.000000 -0.000196 0.000000
# 3 -0.002198 -0.002863 0.010754 0.000000 0.000048 0.000000
# 4 0.000000 0.000000 0.000000 0.033214 0.000000 -0.005564
# 5 -0.004191 -0.000196 0.000048 0.000000 0.030302 0.000000
# 6 0.000000 0.000000 0.000000 -0.005564 0.000000 0.036927
#
#
# Mechanical properties :
#
#
# Convention : Reuss Voigt Hill
#
# Bulk Modulus (GPa) = 59.91629 62.29277 61.10453
# Shear Modulus (GPa) = 33.66022 35.98132 34.82077
#
# Velocity S-wave (km/s) = 3.67037 3.79481 3.73311
# Velocity P-wave (km/s) = 6.47628 6.64318 6.56026
#
# Compressibility (1/GPa) = 0.01668995
#
# Stress axis : x y z
#
# Youngs Moduli (GPa) = 107.56514 104.57123 92.99261
#
# Poissons Ratio (x) = 0.14639 0.20444
# Poissons Ratio (y) = 0.15059 0.26625
# Poissons Ratio (z) = 0.23647 0.29941
#
# Static dielectric constant tensor:
#      x y z
#    x 2.107310 0.000000 -0.036680 
#    y 0.000000 1.942030 0.000000 
#    z -0.036680 0.000000 2.004460 
# 
# From -- ./inp_files/243920.got.cif
#   From: 2010.05.17/outbox.cif.g08.bks.cpg/sg15_122_cif.got.tgz:243920.got - 2010.06.03 18:47:42.
