data_PCOD9291438
_publ_section_title
;
Structure prediction by ZEFSAII (Michael W. Deem and Ramdas Pophale) SiO2 
 PCOD9291438
Probable space group: C 2/C
;
_chemical_formula_sum "Si O2"
_cell_formula_units_Z 52
_cell_length_a 13.269692
_cell_length_b 25.117822
_cell_length_c 10.605065
_cell_angle_alpha 90.000000
_cell_angle_beta 131.070620
_cell_angle_gamma 90.000000
_cell_volume 2664.833740
_symmetry_space_group_name_H-M "C 2/C"
_symmetry_group_IT_number 15
_symmetry_cell_setting 'monoclinic'
loop_
_space_group_symop_operation_xyz
x,y,z
-x,y,1/2-z
-x,-y,-z
x,-y,1/2+z
1/2+x,1/2+y,z
1/2-x,1/2+y,1/2-z
1/2-x,1/2-y,-z
1/2+x,1/2-y,1/2+z
loop_
_atom_site_type_symbol
_atom_site_label
_atom_site_fract_x
_atom_site_fract_y
_atom_site_fract_z
Si Si1 0.017024 0.042341 0.402208
Si Si2 0.000000 0.236538 0.750000
Si Si3 0.578856 0.995048 0.693796
Si Si4 0.273995 0.290333 0.865796
Si Si5 0.247080 0.403305 0.720769
Si Si6 0.296881 0.899422 0.103578
Si Si7 0.350711 0.223319 0.682705
O O1 0.899859 0.084735 0.317202
O O2 0.000000 0.015523 0.250000
O O3 0.150628 0.076889 0.511219
O O4 0.000000 0.000000 0.500000
O O5 0.872557 0.268813 0.706363
O O6 0.904197 0.206452 0.567720
O O7 0.500000 0.973435 0.750000
O O8 0.617945 0.054739 0.761605
O O9 0.500000 0.000000 0.500000
O O10 0.695021 0.953338 0.757968
O O11 0.238952 0.348437 0.786263
O O12 0.324917 0.252464 0.794213
O O13 0.179042 0.399672 0.527434
O O14 0.320952 0.839729 0.169686
O O15 0.500000 0.230010 0.750000
O O16 0.250000 0.250000 0.500000
#
# Coordination Sequence:
#
# PCOD9291438 Si02
#       7
#     8   4   8   8   8   8   8
#     4  10  22  42  67  96 136 174 225 282 352 415
#     4  10  26  50  64 100 142 192 236 292 360 450
#     4  12  25  43  68  98 142 187 233 287 358 426
#     4  11  25  47  72  99 143 185 242 295 364 435
#     4  11  24  43  70 100 136 175 230 295 355 427
#     4  11  24  45  69 104 136 177 236 300 352 431
#     4  12  26  43  76 107 136 182 240 308 371 415
#
# _framework density 19.513413
#
# number of rings (size 3 to 8) (size 9 to 14) (size 15 to 20)
#    0.000    0.923    4.615    1.385    5.385    0.000 
#    4.154    0.000    0.000    0.000    0.000    0.000 
#    0.000    0.000    0.000    0.000    0.000    0.000 
#
# Total GULP energy -144924.101283 kJ/mol
# GULP energy per Si atom -5574.003895 kJ/mol
# Density = 1.946900 g / cm^3
# Si number density = 19.513413 Si / 1000 Ang^3
#
#
#
# Elastic Constant Matrix: (Units=GPa)
#
#
# Indices 1 2 3 4 5 6 
#
# 1 132.6505 42.7943 57.9751 0.0000 13.0213 0.0000
# 2 42.7943 142.2443 59.9423 0.0000 -0.8093 0.0000
# 3 57.9751 59.9423 135.1858 0.0000 4.4217 0.0000
# 4 0.0000 0.0000 0.0000 15.9863 0.0000 -24.2432
# 5 13.0213 -0.8093 4.4217 0.0000 36.8496 0.0000
# 6 0.0000 0.0000 0.0000 -24.2432 0.0000 -14.4966
#
#
#
# Elastic Compliance Matrix: (Units=1/GPa)
#
#
# Indices 1 2 3 4 5 6 
#
# 1 0.009839 -0.001528 -0.003441 0.000000 -0.003098 0.000000
# 2 -0.001528 0.008898 -0.003328 0.000000 0.001135 0.000000
# 3 -0.003441 -0.003328 0.010352 0.000000 -0.000099 0.000000
# 4 0.000000 0.000000 0.000000 0.017690 0.000000 -0.029584
# 5 -0.003098 0.001135 -0.000099 0.000000 0.028269 0.000000
# 6 0.000000 0.000000 0.000000 -0.029584 0.000000 -0.019508
#
#
# Mechanical properties :
#
#
# Convention : Reuss Voigt Hill
#
# Bulk Modulus (GPa) = 80.01961 81.27820 80.64891
# Shear Modulus (GPa) = 65.53205 24.29247 44.91226
#
# Velocity S-wave (km/s) = 5.80138 3.53216 4.80271
# Velocity P-wave (km/s) = 9.27206 7.64053 8.49556
#
# Compressibility (1/GPa) = 0.01249694
#
# Stress axis : x y z
#
# Youngs Moduli (GPa) = 101.63208 112.37858 96.60352
#
# Poissons Ratio (x) = 0.17169 0.33241
# Poissons Ratio (y) = 0.15527 0.32145
# Poissons Ratio (z) = 0.34971 0.37395
#
# Static dielectric constant tensor:
#      x y z
#    x 1.693530 0.000000 -0.029710 
#    y 0.000000 1.626110 0.000000 
#    z -0.029710 0.000000 1.653730 
# 
# From -- ./inp_files/34424.got.cif
#   From: 2010.05.17/outbox.cif.g08.bks.cpg/sg15_18_cif.got.tgz:34424.got - 2010.06.03 18:47:42.
