data_PCOD9291847
_publ_section_title
;
Structure prediction by ZEFSAII (Michael W. Deem and Ramdas Pophale) SiO2 
 PCOD9291847
Probable space group: C 2/C
;
_chemical_formula_sum "Si O2"
_cell_formula_units_Z 48
_cell_length_a 14.539838
_cell_length_b 15.960193
_cell_length_c 13.662497
_cell_angle_alpha 90.000000
_cell_angle_beta 141.433350
_cell_angle_gamma 90.000000
_cell_volume 1976.567804
_symmetry_space_group_name_H-M "C 2/C"
_symmetry_group_IT_number 15
_symmetry_cell_setting 'monoclinic'
loop_
_space_group_symop_operation_xyz
x,y,z
-x,y,1/2-z
-x,-y,-z
x,-y,1/2+z
1/2+x,1/2+y,z
1/2-x,1/2+y,1/2-z
1/2-x,1/2-y,-z
1/2+x,1/2-y,1/2+z
loop_
_atom_site_type_symbol
_atom_site_label
_atom_site_fract_x
_atom_site_fract_y
_atom_site_fract_z
Si Si1 0.845559 0.663861 0.571452
Si Si2 0.205580 0.042869 0.612379
Si Si3 0.377581 0.902666 0.875667
Si Si4 0.230877 0.190308 0.094562
Si Si5 0.813284 0.379977 0.477120
Si Si6 0.458242 0.408306 0.350707
O O1 0.750000 0.750000 0.500000
O O2 0.871977 0.621233 0.485766
O O3 0.750883 0.712112 0.900065
O O4 0.000000 0.685928 0.750000
O O5 0.311402 0.988319 0.772640
O O6 0.074210 0.982725 0.466151
O O7 0.279452 0.090410 0.584977
O O8 0.128684 0.108282 0.621246
O O9 0.268313 0.835694 0.734532
O O10 0.541313 0.895562 0.964748
O O11 0.168473 0.368886 0.891452
O O12 0.064929 0.169782 0.922489
O O13 0.668331 0.433986 0.330991
#
# Coordination Sequence:
#
# PCOD9291847 Si02
#       6
#     8   8   8   8   8   8
#     4  12  31  52  80 116 156 210 262 326 394 472
#     4  10  26  50  71 110 148 200 266 309 386 467
#     4  11  26  46  76 106 153 204 252 329 387 466
#     4  10  23  40  67 109 147 193 249 317 389 460
#     4  11  22  40  70 109 148 193 253 317 389 457
#     4  10  22  42  72  99 148 200 244 322 375 456
#
# _framework density 24.284520000000001
#
# number of rings (size 3 to 8) (size 9 to 14) (size 15 to 20)
#    0.000    1.333    0.000    3.000    7.000   14.667 
#    0.000    0.000    0.000    0.000    0.000    0.000 
#    0.000    0.000    0.000    0.000    0.000    0.000 
#
# Total GULP energy -134056.943681 kJ/mol
# GULP energy per Si atom -5585.705987 kJ/mol
# Density = 2.422925 g / cm^3
# Si number density = 24.284520 Si / 1000 Ang^3
#
#
#
# Elastic Constant Matrix: (Units=GPa)
#
#
# Indices 1 2 3 4 5 6 
#
# 1 202.3194 51.3237 94.8331 0.0000 -11.4895 0.0000
# 2 51.3237 80.3759 52.5978 0.0000 -1.0546 0.0000
# 3 94.8331 52.5978 164.2850 0.0000 5.0323 0.0000
# 4 0.0000 0.0000 0.0000 22.5571 0.0000 2.2651
# 5 -11.4895 -1.0546 5.0323 0.0000 53.1406 0.0000
# 6 0.0000 0.0000 0.0000 2.2651 0.0000 37.1005
#
#
#
# Elastic Compliance Matrix: (Units=1/GPa)
#
#
# Indices 1 2 3 4 5 6 
#
# 1 0.007288 -0.002326 -0.003519 0.000000 0.001863 0.000000
# 2 -0.002326 0.016515 -0.003951 0.000000 0.000199 0.000000
# 3 -0.003519 -0.003951 0.009436 0.000000 -0.001733 0.000000
# 4 0.000000 0.000000 0.000000 0.044605 0.000000 -0.002723
# 5 0.001863 0.000199 -0.001733 0.000000 0.019389 0.000000
# 6 0.000000 0.000000 0.000000 -0.002723 0.000000 0.027120
#
#
# Mechanical properties :
#
#
# Convention : Reuss Voigt Hill
#
# Bulk Modulus (GPa) = 73.27692 93.83215 83.55454
# Shear Modulus (GPa) = 33.67102 39.10802 36.38952
#
# Velocity S-wave (km/s) = 3.72764 4.01734 3.87520
# Velocity P-wave (km/s) = 6.98333 7.76153 7.38269
#
# Compressibility (1/GPa) = 0.01364686
#
# Stress axis : x y z
#
# Youngs Moduli (GPa) = 137.20711 60.55123 105.97193
#
# Poissons Ratio (x) = 0.14086 0.37295
# Poissons Ratio (y) = 0.31919 0.41866
# Poissons Ratio (z) = 0.48288 0.23922
#
# Static dielectric constant tensor:
#      x y z
#    x 2.014320 0.000000 -0.040970 
#    y 0.000000 1.970060 0.000000 
#    z -0.040970 0.000000 1.968240 
# 
# From -- ./inp_files/216366.got.cif
#   From: 2010.05.17/outbox.cif.g08.bks.cpg/sg15_109_cif.got.tgz:216366.got - 2010.06.03 18:47:42.
