data_PCOD9291289
_publ_section_title
;
Structure prediction by ZEFSAII (Michael W. Deem and Ramdas Pophale) SiO2 
 PCOD9291289
Probable space group: C 2/C
;
_chemical_formula_sum "Si O2"
_cell_formula_units_Z 36
_cell_length_a 15.279985
_cell_length_b 11.415365
_cell_length_c 15.113337
_cell_angle_alpha 90.000000
_cell_angle_beta 133.299493
_cell_angle_gamma 90.000000
_cell_volume 1918.547310
_symmetry_space_group_name_H-M "C 2/C"
_symmetry_group_IT_number 15
_symmetry_cell_setting 'monoclinic'
loop_
_space_group_symop_operation_xyz
x,y,z
-x,y,1/2-z
-x,-y,-z
x,-y,1/2+z
1/2+x,1/2+y,z
1/2-x,1/2+y,1/2-z
1/2-x,1/2-y,-z
1/2+x,1/2-y,1/2+z
loop_
_atom_site_type_symbol
_atom_site_label
_atom_site_fract_x
_atom_site_fract_y
_atom_site_fract_z
Si Si1 0.981681 0.345606 0.917699
Si Si2 0.603952 0.412401 0.100709
Si Si3 0.708964 0.988207 0.120240
Si Si4 0.500000 0.984490 0.750000
Si Si5 0.258498 0.114695 0.531406
O O1 0.953062 0.209282 0.904953
O O2 0.884644 0.411414 0.912722
O O3 0.967351 0.402464 0.810608
O O4 0.118088 0.379053 0.040828
O O5 0.693445 0.461030 0.237784
O O6 0.679520 0.396893 0.063730
O O7 0.500000 0.500000 0.000000
O O8 0.772463 0.033786 0.074885
O O9 0.390822 0.068285 0.647531
O O10 0.250000 0.250000 0.500000
#
# Coordination Sequence:
#
# PCOD9291289 Si02
#       5
#     8   8   8   4   8
#     4  10  22  42  66  92 133 173 213 271 326 394
#     4  12  27  41  67 101 135 167 219 279 326 383
#     4  10  23  43  65  95 130 172 219 263 333 383
#     4  10  22  42  68  94 128 186 216 258 346 390
#     4  11  23  41  68  96 127 174 224 269 316 393
#
# _framework density 18.764196999999999
#
# number of rings (size 3 to 8) (size 9 to 14) (size 15 to 20)
#    0.000    1.333    4.444    0.000    3.111    4.444 
#    0.000    4.444    0.000    0.000    0.000    0.000 
#    0.000    0.000    0.000    0.000    0.000    0.000 
#
# Total GULP energy -100509.652813 kJ/mol
# GULP energy per Si atom -5583.869601 kJ/mol
# Density = 1.872149 g / cm^3
# Si number density = 18.764197 Si / 1000 Ang^3
#
#
#
# Elastic Constant Matrix: (Units=GPa)
#
#
# Indices 1 2 3 4 5 6 
#
# 1 95.7634 56.6821 60.9399 0.0000 -23.8694 0.0000
# 2 56.6821 138.1029 82.0692 0.0000 6.3869 0.0000
# 3 60.9399 82.0692 164.6186 0.0000 -13.9214 0.0000
# 4 0.0000 0.0000 0.0000 14.8765 0.0000 -5.6705
# 5 -23.8694 6.3869 -13.9214 0.0000 23.9327 0.0000
# 6 0.0000 0.0000 0.0000 -5.6705 0.0000 33.2926
#
#
#
# Elastic Compliance Matrix: (Units=1/GPa)
#
#
# Indices 1 2 3 4 5 6 
#
# 1 0.023654 -0.009861 -0.001707 0.000000 0.025230 0.000000
# 2 -0.009861 0.015299 -0.005420 0.000000 -0.017071 0.000000
# 3 -0.001707 -0.005420 0.009873 0.000000 0.005487 0.000000
# 4 0.000000 0.000000 0.000000 0.071887 0.000000 0.012244
# 5 0.025230 -0.017071 0.005487 0.000000 0.074695 0.000000
# 6 0.000000 0.000000 0.000000 0.012244 0.000000 0.032122
#
#
# Mechanical properties :
#
#
# Convention : Reuss Voigt Hill
#
# Bulk Modulus (GPa) = 67.34200 88.65190 77.99695
# Shear Modulus (GPa) = 18.76489 27.67329 23.21909
#
# Velocity S-wave (km/s) = 3.16577 3.84447 3.52151
# Velocity P-wave (km/s) = 7.02348 8.18867 7.62836
#
# Compressibility (1/GPa) = 0.01484957
#
# Stress axis : x y z
#
# Youngs Moduli (GPa) = 42.27638 65.36451 101.28946
#
# Poissons Ratio (x) = 0.64456 0.17286
# Poissons Ratio (y) = 0.41689 0.54902
# Poissons Ratio (z) = 0.07215 0.35429
#
# Static dielectric constant tensor:
#      x y z
#    x 1.634090 0.000000 -0.031610 
#    y 0.000000 1.631750 0.000000 
#    z -0.031610 0.000000 1.631540 
# 
# From -- ./inp_files/94346.got.cif
#   From: 2010.05.17/outbox.cif.g08.bks.cpg/sg15_48_cif.got.tgz:94346.got - 2010.06.03 18:47:42.
