data_PCOD9291462
_publ_section_title
;
Structure prediction by ZEFSAII (Michael W. Deem and Ramdas Pophale) SiO2 
 PCOD9291462
Probable space group: C 2/C
;
_chemical_formula_sum "Si O2"
_cell_formula_units_Z 48
_cell_length_a 8.855126
_cell_length_b 14.964413
_cell_length_c 26.705772
_cell_angle_alpha 90.000000
_cell_angle_beta 141.215877
_cell_angle_gamma 90.000000
_cell_volume 2216.679361
_symmetry_space_group_name_H-M "C 2/C"
_symmetry_group_IT_number 15
_symmetry_cell_setting 'monoclinic'
loop_
_space_group_symop_operation_xyz
x,y,z
-x,y,1/2-z
-x,-y,-z
x,-y,1/2+z
1/2+x,1/2+y,z
1/2-x,1/2+y,1/2-z
1/2-x,1/2-y,-z
1/2+x,1/2-y,1/2+z
loop_
_atom_site_type_symbol
_atom_site_label
_atom_site_fract_x
_atom_site_fract_y
_atom_site_fract_z
Si Si1 0.607434 0.815646 0.685103
Si Si2 0.197774 0.541756 0.620839
Si Si3 0.000000 0.191509 0.750000
Si Si4 0.421221 0.402352 0.958369
Si Si5 0.466893 0.242841 0.442687
Si Si6 0.000000 0.902753 0.750000
Si Si7 0.775017 0.918921 0.555603
O O1 0.567965 0.750571 0.720582
O O2 0.364968 0.876261 0.615968
O O3 0.649581 0.766074 0.642416
O O4 0.874952 0.855229 0.764029
O O5 0.294653 0.628218 0.673523
O O6 0.274477 0.462048 0.676332
O O7 0.323750 0.507017 0.602013
O O8 0.922748 0.549558 0.536104
O O9 0.505054 0.390498 0.922319
O O10 0.500000 0.500000 0.000000
O O11 0.558371 0.329337 0.028633
O O12 0.750000 0.250000 0.500000
O O13 0.368229 0.157574 0.449350
#
# Coordination Sequence:
#
# PCOD9291462 Si02
#       7
#     8   8   4   8   8   4   8
#     4  11  25  43  64  97 137 184 224 280 345 420
#     4  10  23  41  71  97 130 183 228 273 339 418
#     4  11  26  44  66  97 144 180 231 276 352 414
#     4  11  25  40  70 106 138 169 235 293 341 407
#     4  10  22  42  67  99 135 173 223 278 339 407
#     4  11  22  44  66  91 138 180 221 276 344 416
#     4  11  22  42  75 101 134 178 235 286 347 397
#
# _framework density 21.654011000000001
#
# number of rings (size 3 to 8) (size 9 to 14) (size 15 to 20)
#    0.000    1.333    1.667    3.500   11.667    1.333 
#    0.000    0.000    0.000    0.000    0.000    0.000 
#    0.000    0.000    0.000    0.000    0.000    0.000 
#
# Total GULP energy -133623.392243 kJ/mol
# GULP energy per Si atom -5567.641343 kJ/mol
# Density = 2.160473 g / cm^3
# Si number density = 21.654011 Si / 1000 Ang^3
#
#
#
# Elastic Constant Matrix: (Units=GPa)
#
#
# Indices 1 2 3 4 5 6 
#
# 1 135.2403 37.6530 37.3752 0.0000 -2.0691 0.0000
# 2 37.6530 86.1899 27.7721 0.0000 3.6190 0.0000
# 3 37.3752 27.7721 75.6743 0.0000 -2.9450 0.0000
# 4 0.0000 0.0000 0.0000 41.6699 0.0000 -9.6278
# 5 -2.0691 3.6190 -2.9450 0.0000 29.6914 0.0000
# 6 0.0000 0.0000 0.0000 -9.6278 0.0000 30.0016
#
#
#
# Elastic Compliance Matrix: (Units=1/GPa)
#
#
# Indices 1 2 3 4 5 6 
#
# 1 0.009167 -0.002928 -0.003427 0.000000 0.000656 0.000000
# 2 -0.002928 0.014224 -0.003864 0.000000 -0.002321 0.000000
# 3 -0.003427 -0.003864 0.016398 0.000000 0.001859 0.000000
# 4 0.000000 0.000000 0.000000 0.025920 0.000000 0.008318
# 5 0.000656 -0.002321 0.001859 0.000000 0.034193 0.000000
# 6 0.000000 0.000000 0.000000 0.008318 0.000000 0.036001
#
#
# Mechanical properties :
#
#
# Convention : Reuss Voigt Hill
#
# Bulk Modulus (GPa) = 51.68137 55.85611 53.76874
# Shear Modulus (GPa) = 30.71425 33.22619 31.97022
#
# Velocity S-wave (km/s) = 3.77026 3.92141 3.84658
# Velocity P-wave (km/s) = 6.54766 6.80838 6.67929
#
# Compressibility (1/GPa) = 0.01934933
#
# Stress axis : x y z
#
# Youngs Moduli (GPa) = 109.09187 70.30399 60.98357
#
# Poissons Ratio (x) = 0.20583 0.20901
# Poissons Ratio (y) = 0.31939 0.23567
# Poissons Ratio (z) = 0.37390 0.27169
#
# Static dielectric constant tensor:
#      x y z
#    x 1.750750 0.000000 0.021340 
#    y 0.000000 1.918090 0.000000 
#    z 0.021340 0.000000 1.874380 
# 
# From -- ./inp_files/289144.got.cif
#   From: 2010.05.17/outbox.cif.g08.bks.cpg/sg15_145_cif.got.tgz:289144.got - 2010.06.03 18:47:42.
