data_PCOD9291023
_publ_section_title
;
Structure prediction by ZEFSAII (Michael W. Deem and Ramdas Pophale) SiO2 
 PCOD9291023
Probable space group: C 2/C
;
_chemical_formula_sum "Si O2"
_cell_formula_units_Z 56
_cell_length_a 8.196836
_cell_length_b 11.942882
_cell_length_c 27.394214
_cell_angle_alpha 90.000000
_cell_angle_beta 69.557419
_cell_angle_gamma 90.000000
_cell_volume 2512.837091
_symmetry_space_group_name_H-M "C 2/C"
_symmetry_group_IT_number 15
_symmetry_cell_setting 'monoclinic'
loop_
_space_group_symop_operation_xyz
x,y,z
-x,y,1/2-z
-x,-y,-z
x,-y,1/2+z
1/2+x,1/2+y,z
1/2-x,1/2+y,1/2-z
1/2-x,1/2-y,-z
1/2+x,1/2-y,1/2+z
loop_
_atom_site_type_symbol
_atom_site_label
_atom_site_fract_x
_atom_site_fract_y
_atom_site_fract_z
Si Si1 0.040450 0.884813 0.106301
Si Si2 0.277523 0.810009 0.645582
Si Si3 0.019898 0.618707 0.645516
Si Si4 0.215346 0.951909 0.911595
Si Si5 0.586836 0.783600 0.440658
Si Si6 0.348721 0.474657 0.303668
Si Si7 0.995902 0.397661 0.962641
O O1 0.937995 0.774713 0.135296
O O2 0.227258 0.842278 0.070194
O O3 0.930742 0.951402 0.077036
O O4 0.068852 0.960254 0.151124
O O5 0.228229 0.900206 0.691097
O O6 0.343492 0.881373 0.591336
O O7 0.116867 0.725785 0.656433
O O8 0.015262 0.641433 0.587777
O O9 0.821675 0.603467 0.682553
O O10 0.135697 0.505890 0.639195
O O11 0.117993 0.835411 0.911814
O O12 0.322814 0.917850 0.948748
O O13 0.502068 0.787877 0.502763
O O14 0.500000 0.451680 0.250000
O O15 0.000000 0.500000 0.000000
#
# Coordination Sequence:
#
# PCOD9291023 Si02
#       7
#     8   8   8   8   8   8   8
#     4  10  23  41  63  91 126 168 208 257 318 371
#     4  11  23  43  64  90 132 170 198 259 327 368
#     4  10  22  42  63  90 127 164 206 257 314 380
#     4  11  21  40  59  87 130 167 208 257 299 362
#     4  11  21  38  59  89 128 170 214 251 300 357
#     4  11  23  44  69  93 120 153 208 268 323 387
#     4  12  22  39  62  92 133 171 219 259 296 367
#
# _framework density 22.285567
#
# number of rings (size 3 to 8) (size 9 to 14) (size 15 to 20)
#    0.000    1.143    4.286    2.143    0.000    2.286 
#    2.571    2.143    0.000    0.000    0.000    0.000 
#    0.000    0.000    0.000    0.000    0.000    0.000 
#
# Total GULP energy -156271.118407 kJ/mol
# GULP energy per Si atom -5581.111372 kJ/mol
# Density = 2.223484 g / cm^3
# Si number density = 22.285567 Si / 1000 Ang^3
#
#
#
# Elastic Constant Matrix: (Units=GPa)
#
#
# Indices 1 2 3 4 5 6 
#
# 1 48.7296 16.2241 0.4183 0.0000 -7.1389 0.0000
# 2 16.2241 97.6360 11.3742 0.0000 -2.7752 0.0000
# 3 0.4183 11.3742 42.3736 0.0000 -11.4263 0.0000
# 4 0.0000 0.0000 0.0000 7.8609 0.0000 -3.8811
# 5 -7.1389 -2.7752 -11.4263 0.0000 10.2770 0.0000
# 6 0.0000 0.0000 0.0000 -3.8811 0.0000 38.1184
#
#
#
# Elastic Compliance Matrix: (Units=1/GPa)
#
#
# Indices 1 2 3 4 5 6 
#
# 1 0.025626 -0.004443 0.007736 0.000000 0.025202 0.000000
# 2 -0.004443 0.011344 -0.004295 0.000000 -0.004799 0.000000
# 3 0.007736 -0.004295 0.036865 0.000000 0.045201 0.000000
# 4 0.000000 0.000000 0.000000 0.133945 0.000000 0.013638
# 5 0.025202 -0.004799 0.045201 0.000000 0.163772 0.000000
# 6 0.000000 0.000000 0.000000 0.013638 0.000000 0.027623
#
#
# Mechanical properties :
#
#
# Convention : Reuss Voigt Hill
#
# Bulk Modulus (GPa) = 13.92174 27.19696 20.55935
# Shear Modulus (GPa) = 11.76126 21.96609 16.86367
#
# Velocity S-wave (km/s) = 2.29978 3.14293 2.75382
# Velocity P-wave (km/s) = 3.64863 5.03995 4.39963
#
# Compressibility (1/GPa) = 0.07183009
#
# Stress axis : x y z
#
# Youngs Moduli (GPa) = 39.02224 88.14897 27.12602
#
# Poissons Ratio (x) = 0.39166 -0.20984
# Poissons Ratio (y) = 0.17338 0.11651
# Poissons Ratio (z) = -0.30186 0.37862
#
# Static dielectric constant tensor:
#      x y z
#    x 1.817180 0.000000 0.005800 
#    y 0.000000 1.909850 0.000000 
#    z 0.005800 0.000000 1.807490 
# 
# From -- ./inp_files/307384.got.cif
#   From: 2010.05.17/outbox.cif.g08.bks.cpg/sg15_154_cif.got.tgz:307384.got - 2010.06.03 18:47:42.
