data_PCOD9291541
_publ_section_title
;
Structure prediction by ZEFSAII (Michael W. Deem and Ramdas Pophale) SiO2 
 PCOD9291541
Probable space group: C 2/C
;
_chemical_formula_sum "Si O2"
_cell_formula_units_Z 52
_cell_length_a 28.741180
_cell_length_b 11.639049
_cell_length_c 22.717082
_cell_angle_alpha 90.000000
_cell_angle_beta 164.099658
_cell_angle_gamma 90.000000
_cell_volume 2081.946936
_symmetry_space_group_name_H-M "C 2/C"
_symmetry_group_IT_number 15
_symmetry_cell_setting 'monoclinic'
loop_
_space_group_symop_operation_xyz
x,y,z
-x,y,1/2-z
-x,-y,-z
x,-y,1/2+z
1/2+x,1/2+y,z
1/2-x,1/2+y,1/2-z
1/2-x,1/2-y,-z
1/2+x,1/2-y,1/2+z
loop_
_atom_site_type_symbol
_atom_site_label
_atom_site_fract_x
_atom_site_fract_y
_atom_site_fract_z
Si Si1 0.559188 0.704558 0.647330
Si Si2 0.153342 0.463761 0.728099
Si Si3 0.093581 0.862648 0.983024
Si Si4 0.500000 0.238863 0.750000
Si Si5 0.568258 0.807188 0.889678
Si Si6 0.171386 0.156862 0.235437
Si Si7 0.538203 0.049634 0.709806
O O1 0.457401 0.737839 0.581737
O O2 0.461231 0.633588 0.478256
O O3 0.620746 0.829828 0.698221
O O4 0.739362 0.651288 0.883323
O O5 0.333497 0.509196 0.923746
O O6 0.000000 0.500000 0.500000
O O7 0.132387 0.535778 0.762923
O O8 0.249227 0.778460 0.189457
O O9 0.058678 0.821132 0.873987
O O10 0.937380 0.839420 0.836842
O O11 0.603559 0.144457 0.835835
O O12 0.500000 0.739446 0.750000
O O13 0.456881 0.922244 0.758606
O O14 0.342501 0.083604 0.454943
#
# Coordination Sequence:
#
# PCOD9291541 Si02
#       7
#     8   8   8   4   8   8   8
#     4  11  25  41  69  90 134 171 221 264 325 380
#     4  11  24  43  64  93 133 172 207 277 325 379
#     4  11  23  41  66  99 135 166 218 261 334 383
#     4  10  22  42  68  96 128 172 206 272 318 398
#     4  11  24  47  65  96 127 181 214 268 317 394
#     4  11  23  41  68 102 128 167 213 275 322 389
#     4  10  24  42  69  95 133 165 219 268 333 381
#
# _framework density 24.97662
#
# number of rings (size 3 to 8) (size 9 to 14) (size 15 to 20)
#    0.000    1.231    2.308    3.231    4.308    7.385 
#    1.385    0.000    0.000    0.000    0.000    0.000 
#    0.000    0.000    0.000    0.000    0.000    0.000 
#
# Total GULP energy -145275.592339 kJ/mol
# GULP energy per Si atom -5587.522782 kJ/mol
# Density = 2.491977 g / cm^3
# Si number density = 24.976620 Si / 1000 Ang^3
#
#
#
# Elastic Constant Matrix: (Units=GPa)
#
#
# Indices 1 2 3 4 5 6 
#
# 1 136.6308 23.3249 47.6625 -0.0021 -2.5415 -0.0019
# 2 23.3249 95.0349 -0.3123 -0.0021 3.7369 -0.0019
# 3 47.6625 -0.3123 88.2677 -0.0024 -1.9142 -0.0024
# 4 -0.0021 -0.0021 -0.0024 32.4771 -0.0014 -2.9559
# 5 -2.5415 3.7369 -1.9142 -0.0014 50.4127 -0.0014
# 6 -0.0019 -0.0019 -0.0024 -2.9559 -0.0014 8.7945
#
#
#
# Elastic Compliance Matrix: (Units=1/GPa)
#
#
# Indices 1 2 3 4 5 6 
#
# 1 0.009527 -0.002373 -0.005143 0.000000 0.000461 0.000000
# 2 -0.002373 0.011144 0.001301 0.000001 -0.000896 0.000002
# 3 -0.005143 0.001301 0.014115 0.000001 0.000180 0.000004
# 4 0.000000 0.000001 0.000001 0.031763 0.000001 0.010676
# 5 0.000461 -0.000896 0.000180 0.000001 0.019933 0.000003
# 6 0.000000 0.000002 0.000004 0.010676 0.000003 0.117296
#
#
# Mechanical properties :
#
#
# Convention : Reuss Voigt Hill
#
# Bulk Modulus (GPa) = 44.72865 51.25373 47.99119
# Shear Modulus (GPa) = 22.35557 34.95407 28.65482
#
# Velocity S-wave (km/s) = 2.99500 3.74501 3.39081
# Velocity P-wave (km/s) = 5.46874 6.26621 5.88101
#
# Compressibility (1/GPa) = 0.02235704
#
# Stress axis : x y z
#
# Youngs Moduli (GPa) = 104.96868 89.73089 70.84886
#
# Poissons Ratio (x) = 0.21295 0.36435
# Poissons Ratio (y) = 0.24911 -0.09221
# Poissons Ratio (z) = 0.53981 -0.11678
#
# Static dielectric constant tensor:
#      x y z
#    x 2.020570 0.000000 -0.035010 
#    y 0.000000 2.014010 0.000000 
#    z -0.035010 0.000000 2.044940 
# 
# From -- ./inp_files/257814.got.cif
#   From: 2010.05.17/outbox.cif.g08.bks.cpg/sg15_129_cif.got.tgz:257814.got - 2010.06.03 18:47:42.
