data_PCOD9291723
_publ_section_title
;
Structure prediction by ZEFSAII (Michael W. Deem and Ramdas Pophale) SiO2 
 PCOD9291723
Probable space group: C 2/C
;
_chemical_formula_sum "Si O2"
_cell_formula_units_Z 56
_cell_length_a 9.473361
_cell_length_b 10.296994
_cell_length_c 29.055194
_cell_angle_alpha 90.000000
_cell_angle_beta 81.550510
_cell_angle_gamma 90.000000
_cell_volume 2803.487540
_symmetry_space_group_name_H-M "C 2/C"
_symmetry_group_IT_number 15
_symmetry_cell_setting 'monoclinic'
loop_
_space_group_symop_operation_xyz
x,y,z
-x,y,1/2-z
-x,-y,-z
x,-y,1/2+z
1/2+x,1/2+y,z
1/2-x,1/2+y,1/2-z
1/2-x,1/2-y,-z
1/2+x,1/2-y,1/2+z
loop_
_atom_site_type_symbol
_atom_site_label
_atom_site_fract_x
_atom_site_fract_y
_atom_site_fract_z
Si Si1 0.277226 0.618267 0.689442
Si Si2 0.640151 0.251685 0.963611
Si Si3 0.633256 0.278927 0.467447
Si Si4 0.747434 0.984686 0.598190
Si Si5 0.584893 0.013308 0.412505
Si Si6 0.719994 0.912025 0.814804
Si Si7 0.000000 0.516145 0.750000
Si Si8 0.000000 0.985320 0.250000
O O1 0.283163 0.511779 0.649323
O O2 0.286353 0.762697 0.669947
O O3 0.405704 0.596767 0.718784
O O4 0.122984 0.600926 0.720328
O O5 0.695487 0.347022 0.921569
O O6 0.611646 0.108786 0.944640
O O7 0.750000 0.250000 0.000000
O O8 0.502605 0.309616 0.994945
O O9 0.750000 0.250000 0.500000
O O10 0.680065 0.399568 0.434204
O O11 0.606873 0.148522 0.438767
O O12 0.578002 0.991218 0.597415
O O13 0.686273 0.007111 0.362569
O O14 0.593325 0.937528 0.783485
O O15 0.874292 0.939592 0.784089
#
# Coordination Sequence:
#
# PCOD9291723 Si02
#       8
#     8   8   8   8   8   8   4   4
#     4  11  23  44  68 100 134 174 225 271 343 399
#     4  12  26  45  70 101 140 180 228 281 341 399
#     4  12  24  45  72  95 138 180 226 282 343 396
#     4  12  25  44  70 102 136 181 228 281 336 406
#     4  12  25  45  69 102 139 177 228 289 331 403
#     4  11  23  44  69  98 137 173 222 278 339 399
#     4  10  22  42  70  96 130 180 214 274 344 404
#     4  10  26  42  66 106 134 168 224 280 332 410
#
# _framework density 19.975121000000001
#
# number of rings (size 3 to 8) (size 9 to 14) (size 15 to 20)
#    0.000    0.571    5.714    2.571    0.000    4.571 
#   10.286    0.000    0.000    0.000    0.000    0.000 
#    0.000    0.000    0.000    0.000    0.000    0.000 
#
# Total GULP energy -156438.516432 kJ/mol
# GULP energy per Si atom -5587.089873 kJ/mol
# Density = 1.992966 g / cm^3
# Si number density = 19.975121 Si / 1000 Ang^3
#
#
#
# Elastic Constant Matrix: (Units=GPa)
#
#
# Indices 1 2 3 4 5 6 
#
# 1 131.4102 7.4034 32.3470 0.0000 -8.7996 0.0000
# 2 7.4034 73.8864 10.0129 0.0000 -4.2662 0.0000
# 3 32.3470 10.0129 92.0306 0.0000 -7.4215 0.0000
# 4 0.0000 0.0000 0.0000 37.3304 0.0000 -1.5325
# 5 -8.7996 -4.2662 -7.4215 0.0000 30.2909 0.0000
# 6 0.0000 0.0000 0.0000 -1.5325 0.0000 14.9363
#
#
#
# Elastic Compliance Matrix: (Units=1/GPa)
#
#
# Indices 1 2 3 4 5 6 
#
# 1 0.008431 -0.000368 -0.002785 0.000000 0.001715 0.000000
# 2 -0.000368 0.013829 -0.001251 0.000000 0.001534 0.000000
# 3 -0.002785 -0.001251 0.012141 0.000000 0.001989 0.000000
# 4 0.000000 0.000000 0.000000 0.026901 0.000000 0.002760
# 5 0.001715 0.001534 0.001989 0.000000 0.034215 0.000000
# 6 0.000000 0.000000 0.000000 0.002760 0.000000 0.067234
#
#
# Mechanical properties :
#
#
# Convention : Reuss Voigt Hill
#
# Bulk Modulus (GPa) = 39.07439 44.09487 41.58463
# Shear Modulus (GPa) = 27.76358 33.01579 30.38968
#
# Velocity S-wave (km/s) = 3.73219 4.06993 3.90471
# Velocity P-wave (km/s) = 6.17870 6.64895 6.41814
#
# Compressibility (1/GPa) = 0.02559221
#
# Stress axis : x y z
#
# Youngs Moduli (GPa) = 118.61172 72.30987 82.36292
#
# Poissons Ratio (x) = 0.02663 0.22937
# Poissons Ratio (y) = 0.04369 0.10307
# Poissons Ratio (z) = 0.33032 0.09049
#
# Static dielectric constant tensor:
#      x y z
#    x 1.650980 0.000000 -0.007940 
#    y 0.000000 1.701410 0.000000 
#    z -0.007940 0.000000 1.707660 
# 
# From -- ./inp_files/288007.got.cif
#   From: 2010.05.17/outbox.cif.g08.bks.cpg/sg15_145_cif.got.tgz:288007.got - 2010.06.03 18:47:42.
