data_PCOD9291773
_publ_section_title
;
Structure prediction by ZEFSAII (Michael W. Deem and Ramdas Pophale) SiO2 
 PCOD9291773
Probable space group: C 2/C
;
_chemical_formula_sum "Si O2"
_cell_formula_units_Z 40
_cell_length_a 29.284149
_cell_length_b 9.850275
_cell_length_c 9.336278
_cell_angle_alpha 90.000000
_cell_angle_beta 142.755687
_cell_angle_gamma 90.000000
_cell_volume 1629.912928
_symmetry_space_group_name_H-M "C 2/C"
_symmetry_group_IT_number 15
_symmetry_cell_setting 'monoclinic'
loop_
_space_group_symop_operation_xyz
x,y,z
-x,y,1/2-z
-x,-y,-z
x,-y,1/2+z
1/2+x,1/2+y,z
1/2-x,1/2+y,1/2-z
1/2-x,1/2-y,-z
1/2+x,1/2-y,1/2+z
loop_
_atom_site_type_symbol
_atom_site_label
_atom_site_fract_x
_atom_site_fract_y
_atom_site_fract_z
Si Si1 0.709359 0.007707 0.428258
Si Si2 0.183678 0.970918 0.538191
Si Si3 0.921101 0.342321 0.016466
Si Si4 0.465678 0.647896 0.890186
Si Si5 0.122722 0.257272 0.278415
O O1 0.764810 0.007017 0.699819
O O2 0.629888 0.084249 0.228194
O O3 0.757543 0.086290 0.429063
O O4 0.678593 0.853308 0.328183
O O5 0.155136 0.107469 0.387540
O O6 0.111708 0.876404 0.389935
O O7 0.942444 0.203512 0.988729
O O8 0.883082 0.320270 0.075270
O O9 0.000000 0.414796 0.250000
O O10 0.500000 0.500000 0.000000
O O11 0.535521 0.739635 0.010408
#
# Coordination Sequence:
#
# PCOD9291773 Si02
#       5
#     8   8   8   8   8
#     4  12  24  42  68 104 137 175 229 284 347 401
#     4  11  24  41  70  98 138 173 230 281 343 405
#     4  10  22  42  71  93 137 179 227 271 346 408
#     4   9  21  42  67  95 128 180 224 274 333 411
#     4  10  22  44  65  98 137 179 227 279 341 412
#
# _framework density 24.541187999999998
#
# number of rings (size 3 to 8) (size 9 to 14) (size 15 to 20)
#    0.000    1.600    2.000    1.800    2.800    6.400 
#    0.000    3.000    0.000    0.000    0.000    0.000 
#    0.000    0.000    0.000    0.000    0.000    0.000 
#
# Total GULP energy -111637.503686 kJ/mol
# GULP energy per Si atom -5581.875184 kJ/mol
# Density = 2.448533 g / cm^3
# Si number density = 24.541188 Si / 1000 Ang^3
#
#
#
# Elastic Constant Matrix: (Units=GPa)
#
#
# Indices 1 2 3 4 5 6 
#
# 1 62.8415 1.9133 40.6465 0.0000 17.7350 0.0000
# 2 1.9133 63.1982 33.9441 0.0000 22.0487 0.0000
# 3 40.6465 33.9441 205.0708 0.0000 31.3666 0.0000
# 4 0.0000 0.0000 0.0000 -301.4806 0.0000 -130.9566
# 5 17.7350 22.0487 31.3666 0.0000 39.9847 0.0000
# 6 0.0000 0.0000 0.0000 -130.9566 0.0000 -44.3440
#
#
#
# Elastic Compliance Matrix: (Units=1/GPa)
#
#
# Indices 1 2 3 4 5 6 
#
# 1 0.020467 0.004272 -0.003426 0.000000 -0.008746 0.000000
# 2 0.004272 0.021092 -0.002579 0.000000 -0.011503 0.000000
# 3 -0.003426 -0.002579 0.006287 0.000000 -0.001990 0.000000
# 4 0.000000 0.000000 0.000000 0.011729 0.000000 -0.034638
# 5 -0.008746 -0.011503 -0.001990 0.000000 0.036793 0.000000
# 6 0.000000 0.000000 0.000000 -0.034638 0.000000 0.079741
#
#
# Mechanical properties :
#
#
# Convention : Reuss Voigt Hill
#
# Bulk Modulus (GPa) = 22.53242 53.79092 38.16167
# Shear Modulus (GPa) = 25.72448 -44.19420 -9.23486
#
# Velocity S-wave (km/s) = 3.24113 -4.24821 -1.94195
# Velocity P-wave (km/s) = 4.81746 1.44804 3.24893
#
# Compressibility (1/GPa) = 0.04438051
#
# Stress axis : x y z
#
# Youngs Moduli (GPa) = 48.85830 47.41148 159.06705
#
# Poissons Ratio (x) = -0.20254 0.54498
# Poissons Ratio (y) = -0.20872 0.41016
# Poissons Ratio (z) = 0.16739 0.12225
#
# Static dielectric constant tensor:
#      x y z
#    x 2.004130 0.000000 0.028220 
#    y 0.000000 1.974250 0.000000 
#    z 0.028220 0.000000 2.027320 
# 
# From -- ./inp_files/69244.got.cif
#   From: 2010.05.17/outbox.cif.g08.bks.cpg/sg15_35_cif.got.tgz:69244.got - 2010.06.03 18:47:42.
