data_PCOD9291372
_publ_section_title
;
Structure prediction by ZEFSAII (Michael W. Deem and Ramdas Pophale) SiO2 
 PCOD9291372
Probable space group: C 2/C
;
_chemical_formula_sum "Si O2"
_cell_formula_units_Z 32
_cell_length_a 22.256889
_cell_length_b 7.585569
_cell_length_c 18.555589
_cell_angle_alpha 90.000000
_cell_angle_beta 154.152541
_cell_angle_gamma 90.000000
_cell_volume 1365.811124
_symmetry_space_group_name_H-M "C 2/C"
_symmetry_group_IT_number 15
_symmetry_cell_setting 'monoclinic'
loop_
_space_group_symop_operation_xyz
x,y,z
-x,y,1/2-z
-x,-y,-z
x,-y,1/2+z
1/2+x,1/2+y,z
1/2-x,1/2+y,1/2-z
1/2-x,1/2-y,-z
1/2+x,1/2-y,1/2+z
loop_
_atom_site_type_symbol
_atom_site_label
_atom_site_fract_x
_atom_site_fract_y
_atom_site_fract_z
Si Si1 0.127413 0.634405 0.336524
Si Si2 0.221055 0.717489 0.130732
Si Si3 0.432659 0.737210 0.247371
Si Si4 0.863037 0.425113 0.812904
O O1 0.250000 0.750000 0.500000
O O2 0.142121 0.418913 0.359079
O O3 0.102709 0.674063 0.224695
O O4 0.000000 0.676445 0.250000
O O5 0.332616 0.637493 0.195177
O O6 0.221885 0.665031 0.214902
O O7 0.265187 0.919567 0.180089
O O8 0.066655 0.697498 0.935874
O O9 0.500000 0.645756 0.250000
O O10 0.000000 0.500000 0.000000
#
# Coordination Sequence:
#
# PCOD9291372 Si02
#       4
#     8   8   8   8
#     4  10  23  42  68  98 138 177 228 290 338 409
#     4  11  22  42  71  97 141 182 227 291 344 416
#     4  10  22  42  66  99 135 178 230 286 344 410
#     4  11  24  45  69 104 142 178 233 287 353 410
#
# _framework density 23.429300000000001
#
# number of rings (size 3 to 8) (size 9 to 14) (size 15 to 20)
#    0.000    1.500    5.000    0.750    3.500    1.000 
#    0.000   15.000    0.000    0.000    0.000    0.000 
#    0.000    0.000    0.000    0.000    0.000    0.000 
#
# Total GULP energy -89279.864856 kJ/mol
# GULP energy per Si atom -5579.991554 kJ/mol
# Density = 2.337597 g / cm^3
# Si number density = 23.429300 Si / 1000 Ang^3
#
#
#
# Elastic Constant Matrix: (Units=GPa)
#
#
# Indices 1 2 3 4 5 6 
#
# 1 307.8622 22.3838 74.3483 0.0000 8.1298 0.0000
# 2 22.3838 39.0616 22.8723 0.0000 4.4215 0.0000
# 3 74.3483 22.8723 83.6532 0.0000 0.7689 0.0000
# 4 0.0000 0.0000 0.0000 30.2938 0.0000 -3.1074
# 5 8.1298 4.4215 0.7689 0.0000 48.8335 0.0000
# 6 0.0000 0.0000 0.0000 -3.1074 0.0000 28.9843
#
#
#
# Elastic Compliance Matrix: (Units=1/GPa)
#
#
# Indices 1 2 3 4 5 6 
#
# 1 0.004157 -0.000181 -0.003639 0.000000 -0.000618 0.000000
# 2 -0.000181 0.030830 -0.008244 0.000000 -0.002631 0.000000
# 3 -0.003639 -0.008244 0.017433 0.000000 0.001078 0.000000
# 4 0.000000 0.000000 0.000000 0.033377 0.000000 0.003578
# 5 -0.000618 -0.002631 0.001078 0.000000 0.020802 0.000000
# 6 0.000000 0.000000 0.000000 0.003578 0.000000 0.034885
#
#
# Mechanical properties :
#
#
# Convention : Reuss Voigt Hill
#
# Bulk Modulus (GPa) = 35.34816 74.42066 54.88441
# Shear Modulus (GPa) = 28.56466 42.35382 35.45924
#
# Velocity S-wave (km/s) = 3.49547 4.25635 3.89454
# Velocity P-wave (km/s) = 5.60455 7.48253 6.61057
#
# Compressibility (1/GPa) = 0.02829001
#
# Stress axis : x y z
#
# Youngs Moduli (GPa) = 240.58645 32.43639 57.36388
#
# Poissons Ratio (x) = 0.00587 0.20875
# Poissons Ratio (y) = 0.04356 0.47292
# Poissons Ratio (z) = 0.87549 0.26741
#
# Static dielectric constant tensor:
#      x y z
#    x 2.076340 0.000000 0.053820 
#    y 0.000000 1.723500 0.000000 
#    z 0.053820 0.000000 1.978060 
# 
# From -- ./inp_files/255133.got.cif
#   From: 2010.05.17/outbox.cif.g08.bks.cpg/sg15_128_cif.got.tgz:255133.got - 2010.06.03 18:47:42.
