data_PCOD9291025
_publ_section_title
;
Structure prediction by ZEFSAII (Michael W. Deem and Ramdas Pophale) SiO2 
 PCOD9291025
Probable space group: C 2/C
;
_chemical_formula_sum "Si O2"
_cell_formula_units_Z 48
_cell_length_a 5.160032
_cell_length_b 27.841885
_cell_length_c 14.079963
_cell_angle_alpha 90.000000
_cell_angle_beta 92.534677
_cell_angle_gamma 90.000000
_cell_volume 2020.819104
_symmetry_space_group_name_H-M "C 2/C"
_symmetry_group_IT_number 15
_symmetry_cell_setting 'monoclinic'
loop_
_space_group_symop_operation_xyz
x,y,z
-x,y,1/2-z
-x,-y,-z
x,-y,1/2+z
1/2+x,1/2+y,z
1/2-x,1/2+y,1/2-z
1/2-x,1/2-y,-z
1/2+x,1/2-y,1/2+z
loop_
_atom_site_type_symbol
_atom_site_label
_atom_site_fract_x
_atom_site_fract_y
_atom_site_fract_z
Si Si1 0.000749 0.262283 0.864122
Si Si2 0.738389 0.480320 0.443739
Si Si3 0.305692 0.877684 0.495655
Si Si4 0.654490 0.067773 0.157388
Si Si5 0.508908 0.203086 0.864432
Si Si6 0.075233 0.839504 0.858495
O O1 0.794012 0.222350 0.892794
O O2 0.843292 0.311385 0.887284
O O3 0.000000 0.263639 0.750000
O O4 0.291545 0.243285 0.889813
O O5 0.500000 0.500000 0.500000
O O6 0.690610 0.423428 0.435624
O O7 0.758221 0.512919 0.350237
O O8 0.000000 0.500000 0.500000
O O9 0.480655 0.908948 0.570672
O O10 0.445667 0.844547 0.420946
O O11 0.124887 0.842667 0.557060
O O12 0.500000 0.075914 0.250000
O O13 0.892024 0.103743 0.155797
O O14 0.500000 0.196462 0.750000
O O15 0.000000 0.821176 0.750000
#
# Coordination Sequence:
#
# PCOD9291025 Si02
#       6
#     8   8   8   8   8   8
#     4  10  23  43  65  93 134 181 224 281 333 399
#     4  10  22  42  63  90 132 172 213 270 332 396
#     4  11  25  41  68 102 135 178 227 285 338 409
#     4  11  23  41  66 100 140 179 222 279 346 408
#     4  10  24  45  67  92 135 181 232 279 334 396
#     4  12  23  39  69  98 139 177 225 280 347 406
#
# _framework density 23.752745999999998
#
# number of rings (size 3 to 8) (size 9 to 14) (size 15 to 20)
#    0.000    1.333    3.333    2.000    4.667    2.000 
#    0.000    0.000    0.000    1.000    0.000    0.000 
#    0.000    0.000    0.000    0.000    0.000    0.000 
#
# Total GULP energy -133854.510223 kJ/mol
# GULP energy per Si atom -5577.271259 kJ/mol
# Density = 2.369868 g / cm^3
# Si number density = 23.752746 Si / 1000 Ang^3
#
#
#
# Elastic Constant Matrix: (Units=GPa)
#
#
# Indices 1 2 3 4 5 6 
#
# 1 130.9845 30.2926 22.2430 0.0000 -26.0252 0.0000
# 2 30.2926 179.1839 55.0102 0.0000 -31.9836 0.0000
# 3 22.2430 55.0102 103.9918 0.0000 -27.6253 0.0000
# 4 0.0000 0.0000 0.0000 33.7067 0.0000 -13.7327
# 5 -26.0252 -31.9836 -27.6253 0.0000 32.1969 0.0000
# 6 0.0000 0.0000 0.0000 -13.7327 0.0000 35.5362
#
#
#
# Elastic Compliance Matrix: (Units=1/GPa)
#
#
# Indices 1 2 3 4 5 6 
#
# 1 0.009107 -0.000295 0.000111 0.000000 0.007164 0.000000
# 2 -0.000295 0.007259 -0.002493 0.000000 0.004833 0.000000
# 3 0.000111 -0.002493 0.013311 0.000000 0.009035 0.000000
# 4 0.000000 0.000000 0.000000 0.035211 0.000000 0.013607
# 5 0.007164 0.004833 0.009035 0.000000 0.049403 0.000000
# 6 0.000000 0.000000 0.000000 0.013607 0.000000 0.033399
#
#
# Mechanical properties :
#
#
# Convention : Reuss Voigt Hill
#
# Bulk Modulus (GPa) = 41.11199 69.91688 55.51443
# Shear Modulus (GPa) = 31.02681 40.72892 35.87787
#
# Velocity S-wave (km/s) = 3.61812 4.14539 3.89070
# Velocity P-wave (km/s) = 5.89917 7.23958 6.60348
#
# Compressibility (1/GPa) = 0.02432381
#
# Stress axis : x y z
#
# Youngs Moduli (GPa) = 109.80304 137.76471 75.12580
#
# Poissons Ratio (x) = 0.04065 -0.00835
# Poissons Ratio (y) = 0.03240 0.18726
# Poissons Ratio (z) = -0.01221 0.34340
#
# Static dielectric constant tensor:
#      x y z
#    x 2.044730 0.000000 0.077430 
#    y 0.000000 2.018930 0.000000 
#    z 0.077430 0.000000 2.011730 
# 
# From -- ./inp_files/130045.got.cif
#   From: 2010.05.17/outbox.cif.g08.bks.cpg/sg15_66_cif.got.tgz:130045.got - 2010.06.03 18:47:42.
