data_PCOD9291358
_publ_section_title
;
Structure prediction by ZEFSAII (Michael W. Deem and Ramdas Pophale) SiO2 
 PCOD9291358
Probable space group: C 2/C
;
_chemical_formula_sum "Si O2"
_cell_formula_units_Z 56
_cell_length_a 21.447317
_cell_length_b 12.006040
_cell_length_c 10.688359
_cell_angle_alpha 90.000000
_cell_angle_beta 109.527125
_cell_angle_gamma 90.000000
_cell_volume 2593.925377
_symmetry_space_group_name_H-M "C 2/C"
_symmetry_group_IT_number 15
_symmetry_cell_setting 'monoclinic'
loop_
_space_group_symop_operation_xyz
x,y,z
-x,y,1/2-z
-x,-y,-z
x,-y,1/2+z
1/2+x,1/2+y,z
1/2-x,1/2+y,1/2-z
1/2-x,1/2-y,-z
1/2+x,1/2-y,1/2+z
loop_
_atom_site_type_symbol
_atom_site_label
_atom_site_fract_x
_atom_site_fract_y
_atom_site_fract_z
Si Si1 0.873201 0.552746 0.415472
Si Si2 0.856010 0.056318 0.698513
Si Si3 0.219877 0.281509 0.802034
Si Si4 0.671858 0.850351 0.266068
Si Si5 0.071595 0.030950 0.496055
Si Si6 0.436871 0.222107 0.616978
Si Si7 0.234126 0.510408 0.475988
O O1 0.821954 0.643219 0.323960
O O2 0.874967 0.447538 0.323619
O O3 0.933911 0.623230 0.511470
O O4 0.837172 0.499075 0.510054
O O5 0.830568 0.183157 0.694009
O O6 0.882009 0.017657 0.850779
O O7 0.790577 0.989592 0.613968
O O8 0.905134 0.035851 0.613075
O O9 0.288935 0.229750 0.800521
O O10 0.239272 0.368067 0.922439
O O11 0.628160 0.788383 0.339260
O O12 0.733003 0.916929 0.370000
O O13 0.067723 0.159697 0.453536
O O14 0.000000 0.000000 0.500000
O O15 0.500000 0.216345 0.750000
#
# Coordination Sequence:
#
# PCOD9291358 Si02
#       7
#     8   8   8   8   8   8   8
#     4  10  22  42  66  97 142 170 230 288 343 424
#     4  12  24  44  73 103 142 184 227 289 361 419
#     4  11  22  41  67 105 141 179 225 286 371 411
#     4  10  23  40  68 101 141 179 229 294 349 430
#     4  12  28  49  69 104 140 187 245 294 342 422
#     4  11  25  45  68  94 133 192 236 289 353 408
#     4  10  23  38  63 106 137 173 223 288 353 432
#
# _framework density 21.588902000000001
#
# number of rings (size 3 to 8) (size 9 to 14) (size 15 to 20)
#    0.000    1.143    2.857    2.571    4.000    2.857 
#    0.000    0.000    3.143    0.000    0.000    0.000 
#    0.000    0.000    0.000    0.000    0.000    0.000 
#
# Total GULP energy -156382.466542 kJ/mol
# GULP energy per Si atom -5585.088091 kJ/mol
# Density = 2.153976 g / cm^3
# Si number density = 21.588902 Si / 1000 Ang^3
#
#
#
# Elastic Constant Matrix: (Units=GPa)
#
#
# Indices 1 2 3 4 5 6 
#
# 1 73.0397 47.3035 19.1029 0.0000 -14.9949 0.0000
# 2 47.3035 109.1230 38.2456 0.0000 -16.6541 0.0000
# 3 19.1029 38.2456 135.3659 0.0000 5.3745 0.0000
# 4 0.0000 0.0000 0.0000 27.4579 0.0000 -16.6290
# 5 -14.9949 -16.6541 5.3745 0.0000 36.0442 0.0000
# 6 0.0000 0.0000 0.0000 -16.6290 0.0000 36.0748
#
#
#
# Elastic Compliance Matrix: (Units=1/GPa)
#
#
# Indices 1 2 3 4 5 6 
#
# 1 0.019799 -0.007537 -0.000859 0.000000 0.004882 0.000000
# 2 -0.007537 0.014092 -0.003070 0.000000 0.003834 0.000000
# 3 -0.000859 -0.003070 0.008497 0.000000 -0.003043 0.000000
# 4 0.000000 0.000000 0.000000 0.050524 0.000000 0.023289
# 5 0.004882 0.003834 -0.003043 0.000000 0.032000 0.000000
# 6 0.000000 0.000000 0.000000 0.023289 0.000000 0.038456
#
#
# Mechanical properties :
#
#
# Convention : Reuss Voigt Hill
#
# Bulk Modulus (GPa) = 51.39444 58.53696 54.96570
# Shear Modulus (GPa) = 25.93575 34.10714 30.02145
#
# Velocity S-wave (km/s) = 3.46980 3.97904 3.73312
# Velocity P-wave (km/s) = 6.31746 6.94864 6.64056
#
# Compressibility (1/GPa) = 0.01945736
#
# Stress axis : x y z
#
# Youngs Moduli (GPa) = 50.50724 70.96152 117.69175
#
# Poissons Ratio (x) = 0.53481 0.10104
# Poissons Ratio (y) = 0.38066 0.36133
# Poissons Ratio (z) = 0.04336 0.21786
#
# Static dielectric constant tensor:
#      x y z
#    x 1.783180 0.000000 -0.028640 
#    y 0.000000 1.812790 0.000000 
#    z -0.028640 0.000000 1.898020 
# 
# From -- ./inp_files/117674.got.cif
#   From: 2010.05.17/outbox.cif.g08.bks.cpg/sg15_59_cif.got.tgz:117674.got - 2010.06.03 18:47:42.
