data_PCOD9291213
_publ_section_title
;
Structure prediction by ZEFSAII (Michael W. Deem and Ramdas Pophale) SiO2 
 PCOD9291213
Probable space group: C 2/C
;
_chemical_formula_sum "Si O2"
_cell_formula_units_Z 56
_cell_length_a 18.319089
_cell_length_b 29.336074
_cell_length_c 5.389515
_cell_angle_alpha 90.000000
_cell_angle_beta 66.086507
_cell_angle_gamma 90.000000
_cell_volume 2647.750516
_symmetry_space_group_name_H-M "C 2/C"
_symmetry_group_IT_number 15
_symmetry_cell_setting 'monoclinic'
loop_
_space_group_symop_operation_xyz
x,y,z
-x,y,1/2-z
-x,-y,-z
x,-y,1/2+z
1/2+x,1/2+y,z
1/2-x,1/2+y,1/2-z
1/2-x,1/2-y,-z
1/2+x,1/2-y,1/2+z
loop_
_atom_site_type_symbol
_atom_site_label
_atom_site_fract_x
_atom_site_fract_y
_atom_site_fract_z
Si Si1 0.787348 0.720162 0.722075
Si Si2 0.820621 0.392341 0.670590
Si Si3 0.451322 0.625680 0.574632
Si Si4 0.274342 0.379857 0.209459
Si Si5 0.587297 0.810404 0.115106
Si Si6 0.416976 0.731001 0.732506
Si Si7 0.408838 0.981347 0.598969
O O1 0.731090 0.675894 0.765751
O O2 0.867968 0.692899 0.689663
O O3 0.830874 0.755646 0.473877
O O4 0.750000 0.750000 0.000000
O O5 0.765055 0.393752 0.500512
O O6 0.857370 0.341767 0.628921
O O7 0.892487 0.428812 0.559015
O O8 0.773472 0.398807 0.989212
O O9 0.500000 0.607473 0.750000
O O10 0.365410 0.604846 0.624451
O O11 0.430682 0.677835 0.677386
O O12 0.500000 0.625620 0.250000
O O13 0.500000 0.830286 0.250000
O O14 0.583433 0.759419 0.019104
O O15 0.500000 0.747059 0.750000
O O16 0.500000 0.000000 0.500000
O O17 0.372261 0.008059 0.417175
#
# Coordination Sequence:
#
# PCOD9291213 Si02
#       7
#     8   8   8   8   8   8   8
#     4  11  24  36  55  78 117 165 218 278 330 371
#     4  11  24  41  64  93 128 164 210 264 307 375
#     4  11  25  40  62  85 121 167 218 270 328 389
#     4  11  24  42  61  91 124 163 216 275 328 367
#     4  11  22  36  53  78 116 158 218 264 318 358
#     4  11  22  36  54  79 114 165 225 277 318 378
#     4  10  22  42  65  96 131 170 212 238 299 382
#
# _framework density 21.150027000000001
#
# number of rings (size 3 to 8) (size 9 to 14) (size 15 to 20)
#    0.000    1.143    2.857    3.000   12.000    1.143 
#    5.143    0.000    0.000    0.000    0.000    0.000 
#    0.000   40.000    0.000    0.000    0.000    0.000 
#
# Total GULP energy -156016.577705 kJ/mol
# GULP energy per Si atom -5572.020632 kJ/mol
# Density = 2.110189 g / cm^3
# Si number density = 21.150027 Si / 1000 Ang^3
#
#
#
# Elastic Constant Matrix: (Units=GPa)
#
#
# Indices 1 2 3 4 5 6 
#
# 1 119.5456 4.0172 34.3548 0.0000 0.8176 0.0000
# 2 4.0172 45.5319 -0.2278 0.0000 6.9058 0.0000
# 3 34.3548 -0.2278 117.5919 0.0000 5.1078 0.0000
# 4 0.0000 0.0000 0.0000 17.3600 0.0000 1.0372
# 5 0.8176 6.9058 5.1078 0.0000 44.0220 0.0000
# 6 0.0000 0.0000 0.0000 1.0372 0.0000 24.9149
#
#
#
# Elastic Compliance Matrix: (Units=1/GPa)
#
#
# Indices 1 2 3 4 5 6 
#
# 1 0.009166 -0.000864 -0.002691 0.000000 0.000278 0.000000
# 2 -0.000864 0.022584 0.000452 0.000000 -0.003579 0.000000
# 3 -0.002691 0.000452 0.009339 0.000000 -0.001104 0.000000
# 4 0.000000 0.000000 0.000000 0.057747 0.000000 -0.002404
# 5 0.000278 -0.003579 -0.001104 0.000000 0.023400 0.000000
# 6 0.000000 0.000000 0.000000 -0.002404 0.000000 0.040237
#
#
# Mechanical properties :
#
#
# Convention : Reuss Voigt Hill
#
# Bulk Modulus (GPa) = 28.66916 39.88421 34.27668
# Shear Modulus (GPa) = 27.73029 33.56105 30.64567
#
# Velocity S-wave (km/s) = 3.62487 3.98780 3.81066
# Velocity P-wave (km/s) = 5.57711 6.33262 5.96683
#
# Compressibility (1/GPa) = 0.03488069
#
# Stress axis : x y z
#
# Youngs Moduli (GPa) = 109.10329 44.27920 107.07595
#
# Poissons Ratio (x) = 0.03827 0.28819
# Poissons Ratio (y) = 0.09429 -0.04837
# Poissons Ratio (z) = 0.29365 -0.02000
#
# Static dielectric constant tensor:
#      x y z
#    x 1.870600 0.000000 0.019210 
#    y 0.000000 1.763950 0.000000 
#    z 0.019210 0.000000 1.833300 
# 
# From -- ./inp_files/11952.got.cif
#   From: 2010.05.17/outbox.cif.g08.bks.cpg/sg15_6_cif.got.tgz:11952.got - 2010.06.03 18:47:42.
