data_PCOD9291210
_publ_section_title
;
Structure prediction by ZEFSAII (Michael W. Deem and Ramdas Pophale) SiO2 
 PCOD9291210
Probable space group: C 2/C
;
_chemical_formula_sum "Si O2"
_cell_formula_units_Z 52
_cell_length_a 7.499828
_cell_length_b 30.584658
_cell_length_c 12.297571
_cell_angle_alpha 90.000000
_cell_angle_beta 125.058534
_cell_angle_gamma 90.000000
_cell_volume 2309.020475
_symmetry_space_group_name_H-M "C 2/C"
_symmetry_group_IT_number 15
_symmetry_cell_setting 'monoclinic'
loop_
_space_group_symop_operation_xyz
x,y,z
-x,y,1/2-z
-x,-y,-z
x,-y,1/2+z
1/2+x,1/2+y,z
1/2-x,1/2+y,1/2-z
1/2-x,1/2-y,-z
1/2+x,1/2-y,1/2+z
loop_
_atom_site_type_symbol
_atom_site_label
_atom_site_fract_x
_atom_site_fract_y
_atom_site_fract_z
Si Si1 0.644701 0.868451 0.458630
Si Si2 0.472713 0.466447 0.362654
Si Si3 0.000000 0.563801 0.750000
Si Si4 0.256453 0.723110 0.312014
Si Si5 0.343888 0.133717 0.298605
Si Si6 0.453835 0.565819 0.391338
Si Si7 0.815799 0.779590 0.420390
O O1 0.486963 0.902337 0.344949
O O2 0.559918 0.857644 0.548966
O O3 0.715868 0.827003 0.412141
O O4 0.860302 0.897883 0.547144
O O5 0.500000 0.449779 0.250000
O O6 0.221728 0.463303 0.316896
O O7 0.529869 0.517765 0.383372
O O8 0.607012 0.440717 0.502306
O O9 0.307569 0.676110 0.274492
O O10 0.420272 0.723506 0.472101
O O11 0.000000 0.723857 0.250000
O O12 0.271160 0.760256 0.223788
O O13 0.500000 0.134066 0.250000
O O14 0.229906 0.086634 0.248609
O O15 0.750000 0.750000 0.500000
#
# Coordination Sequence:
#
# PCOD9291210 Si02
#       7
#     8   8   4   8   8   8   8
#     4  11  23  43  65  95 134 168 230 272 335 402
#     4  10  22  43  67  92 136 172 220 275 343 399
#     4  10  26  42  64 102 134 176 222 280 336 420
#     4  11  25  44  64  98 134 172 228 281 340 402
#     4  11  23  38  65  94 126 167 216 270 327 395
#     4  10  22  42  65  96 125 175 220 273 332 402
#     4  12  24  41  70  94 130 183 223 276 339 405
#
# _framework density 22.520372999999999
#
# number of rings (size 3 to 8) (size 9 to 14) (size 15 to 20)
#    0.000    1.231    3.077    2.308    5.385    0.000 
#    0.000    6.154    0.000    0.000    0.000    0.000 
#    0.000    0.000    0.000    0.000    0.000    0.000 
#
# Total GULP energy -145016.321132 kJ/mol
# GULP energy per Si atom -5577.550813 kJ/mol
# Density = 2.246912 g / cm^3
# Si number density = 22.520373 Si / 1000 Ang^3
#
#
#
# Elastic Constant Matrix: (Units=GPa)
#
#
# Indices 1 2 3 4 5 6 
#
# 1 54.1528 24.8016 4.1235 0.0000 -6.1611 0.0000
# 2 24.8016 106.3073 20.1084 0.0000 -2.5437 0.0000
# 3 4.1235 20.1084 100.6443 0.0000 -18.0718 0.0000
# 4 0.0000 0.0000 0.0000 15.1114 0.0000 -3.6231
# 5 -6.1611 -2.5437 -18.0718 0.0000 39.0551 0.0000
# 6 0.0000 0.0000 0.0000 -3.6231 0.0000 18.7390
#
#
#
# Elastic Compliance Matrix: (Units=1/GPa)
#
#
# Indices 1 2 3 4 5 6 
#
# 1 0.021068 -0.004973 0.000730 0.000000 0.003337 0.000000
# 2 -0.004973 0.010953 -0.002178 0.000000 -0.001079 0.000000
# 3 0.000730 -0.002178 0.011273 0.000000 0.005190 0.000000
# 4 0.000000 0.000000 0.000000 0.069392 0.000000 0.013416
# 5 0.003337 -0.001079 0.005190 0.000000 0.028462 0.000000
# 6 0.000000 0.000000 0.000000 0.013416 0.000000 0.055959
#
#
# Mechanical properties :
#
#
# Convention : Reuss Voigt Hill
#
# Bulk Modulus (GPa) = 32.84030 39.90793 36.37411
# Shear Modulus (GPa) = 22.71676 28.71917 25.71797
#
# Velocity S-wave (km/s) = 3.17948 3.57494 3.38300
# Velocity P-wave (km/s) = 5.30028 5.89912 5.60770
#
# Compressibility (1/GPa) = 0.03045039
#
# Stress axis : x y z
#
# Youngs Moduli (GPa) = 47.46493 91.29735 88.70616
#
# Poissons Ratio (x) = 0.45406 -0.06473
# Poissons Ratio (y) = 0.23606 0.19324
# Poissons Ratio (z) = -0.03464 0.19888
#
# Static dielectric constant tensor:
#      x y z
#    x 1.944200 0.000000 0.035270 
#    y 0.000000 1.852110 0.000000 
#    z 0.035270 0.000000 1.965490 
# 
# From -- ./inp_files/81479.got.cif
#   From: 2010.05.17/outbox.cif.g08.bks.cpg/sg15_41_cif.got.tgz:81479.got - 2010.06.03 18:47:42.
