data_PCOD9291632
_publ_section_title
;
Structure prediction by ZEFSAII (Michael W. Deem and Ramdas Pophale) SiO2 
 PCOD9291632
Probable space group: C 2/C
;
_chemical_formula_sum "Si O2"
_cell_formula_units_Z 64
_cell_length_a 12.112204
_cell_length_b 15.438987
_cell_length_c 31.598873
_cell_angle_alpha 90.000000
_cell_angle_beta 34.242726
_cell_angle_gamma 90.000000
_cell_volume 3324.990999
_symmetry_space_group_name_H-M "C 2/C"
_symmetry_group_IT_number 15
_symmetry_cell_setting 'monoclinic'
loop_
_space_group_symop_operation_xyz
x,y,z
-x,y,1/2-z
-x,-y,-z
x,-y,1/2+z
1/2+x,1/2+y,z
1/2-x,1/2+y,1/2-z
1/2-x,1/2-y,-z
1/2+x,1/2-y,1/2+z
loop_
_atom_site_type_symbol
_atom_site_label
_atom_site_fract_x
_atom_site_fract_y
_atom_site_fract_z
Si Si1 0.862478 0.696816 0.834943
Si Si2 0.062137 0.403015 0.475089
Si Si3 0.191504 0.198544 0.663238
Si Si4 0.264637 0.647035 0.486741
Si Si5 0.536492 0.206938 0.065140
Si Si6 0.393043 0.299834 0.670245
Si Si7 0.271099 0.468344 0.069515
Si Si8 0.024033 0.643190 0.163371
O O1 0.652699 0.738770 0.889493
O O2 0.799557 0.605823 0.875621
O O3 0.000000 0.687296 0.750000
O O4 0.984349 0.756582 0.830033
O O5 0.251335 0.375700 0.387946
O O6 0.065978 0.364766 0.520278
O O7 0.000000 0.500000 0.500000
O O8 0.894192 0.363717 0.499180
O O9 0.341198 0.223328 0.653270
O O10 0.154932 0.286560 0.647742
O O11 0.000000 0.174165 0.750000
O O12 0.250000 0.750000 0.500000
O O13 0.473831 0.633690 0.398031
O O14 0.243203 0.580831 0.532762
O O15 0.493215 0.173900 0.125408
O O16 0.750000 0.250000 0.000000
O O17 0.190934 0.347039 0.747371
O O18 0.135058 0.551739 0.123143
O O19 0.500000 0.500000 0.000000
#
# Coordination Sequence:
#
# PCOD9291632 Si02
#       8
#     8   8   8   8   8   8   8   8
#     4  12  25  44  71 100 142 188 228 290 367 422
#     4  12  24  40  65 101 131 173 230 286 339 409
#     4  10  22  42  69  95 136 184 227 275 354 425
#     4  12  22  43  72  94 134 188 231 274 351 430
#     4  12  23  42  71  97 141 184 231 282 360 435
#     4  11  22  43  72  97 132 191 231 272 350 438
#     4  12  26  43  70 112 140 177 242 309 345 414
#     4  11  24  43  69 103 141 180 231 294 352 419
#
# _framework density 19.248172
#
# number of rings (size 3 to 8) (size 9 to 14) (size 15 to 20)
#    0.000    0.500    6.250    2.250    0.000    2.500 
#    0.000    5.625    0.000    0.000    0.000    0.000 
#    0.000    0.000    0.000    0.000    0.000    0.000 
#
# Total GULP energy -178450.776776 kJ/mol
# GULP energy per Si atom -5576.586774 kJ/mol
# Density = 1.920436 g / cm^3
# Si number density = 19.248172 Si / 1000 Ang^3
#
#
#
# Elastic Constant Matrix: (Units=GPa)
#
#
# Indices 1 2 3 4 5 6 
#
# 1 107.6137 42.9723 29.6377 -0.0001 5.0850 -0.0002
# 2 42.9723 124.9074 59.2483 -0.0009 0.5908 0.0001
# 3 29.6377 59.2483 144.6058 -0.0034 9.6086 -0.0026
# 4 -0.0001 -0.0009 -0.0034 22.6412 0.0003 3.4709
# 5 5.0850 0.5908 9.6086 0.0003 39.9191 0.0009
# 6 -0.0002 0.0001 -0.0026 3.4709 0.0009 26.6461
#
#
#
# Elastic Compliance Matrix: (Units=1/GPa)
#
#
# Indices 1 2 3 4 5 6 
#
# 1 0.010910 -0.003381 -0.000774 0.000000 -0.001153 0.000000
# 2 -0.003381 0.011013 -0.003900 0.000000 0.001206 0.000000
# 3 -0.000774 -0.003900 0.008802 0.000001 -0.001962 0.000001
# 4 0.000000 0.000000 0.000001 0.045067 0.000000 -0.005870
# 5 -0.001153 0.001206 -0.001962 0.000000 0.025652 -0.000001
# 6 0.000000 0.000000 0.000001 -0.005870 -0.000001 0.038294
#
#
# Mechanical properties :
#
#
# Convention : Reuss Voigt Hill
#
# Bulk Modulus (GPa) = 68.41699 71.20484 69.81091
# Shear Modulus (GPa) = 31.11008 34.19252 32.65130
#
# Velocity S-wave (km/s) = 4.02464 4.21931 4.12312
# Velocity P-wave (km/s) = 7.56431 7.79809 7.68209
#
# Compressibility (1/GPa) = 0.01461625
#
# Stress axis : x y z
#
# Youngs Moduli (GPa) = 91.65692 90.80171 113.60843
#
# Poissons Ratio (x) = 0.30698 0.08797
# Poissons Ratio (y) = 0.30987 0.44302
# Poissons Ratio (z) = 0.07097 0.35408
#
# Static dielectric constant tensor:
#      x y z
#    x 1.647900 -0.000030 0.057330 
#    y -0.000030 1.608720 0.000080 
#    z 0.057330 0.000080 1.446230 
# 
# From -- ./inp_files/293056.got.cif
#   From: 2010.05.17/outbox.cif.g08.bks.cpg/sg15_147_cif.got.tgz:293056.got - 2010.06.03 18:47:42.
