data_PCOD9291968
_publ_section_title
;
Structure prediction by ZEFSAII (Michael W. Deem and Ramdas Pophale) SiO2 
 PCOD9291968
Probable space group: C 2/C
;
_chemical_formula_sum "Si O2"
_cell_formula_units_Z 48
_cell_length_a 28.074987
_cell_length_b 10.335710
_cell_length_c 15.594232
_cell_angle_alpha 90.000000
_cell_angle_beta 30.320273
_cell_angle_gamma 90.000000
_cell_volume 2284.397531
_symmetry_space_group_name_H-M "C 2/C"
_symmetry_group_IT_number 15
_symmetry_cell_setting 'monoclinic'
loop_
_space_group_symop_operation_xyz
x,y,z
-x,y,1/2-z
-x,-y,-z
x,-y,1/2+z
1/2+x,1/2+y,z
1/2-x,1/2+y,1/2-z
1/2-x,1/2-y,-z
1/2+x,1/2-y,1/2+z
loop_
_atom_site_type_symbol
_atom_site_label
_atom_site_fract_x
_atom_site_fract_y
_atom_site_fract_z
Si Si1 0.814347 0.741677 0.145439
Si Si2 0.016102 0.694520 0.503798
Si Si3 0.613112 0.024170 0.222706
Si Si4 0.786082 0.532852 0.613141
Si Si5 0.405513 0.571378 0.172069
Si Si6 0.788847 0.134803 0.500951
O O1 0.807046 0.585544 0.146096
O O2 0.731999 0.824651 0.320129
O O3 0.814874 0.802572 0.050101
O O4 0.911223 0.765081 0.045967
O O5 0.076157 0.650812 0.328341
O O6 0.970131 0.577635 0.628765
O O7 0.928389 0.781434 0.611004
O O8 0.706126 0.971216 0.127228
O O9 0.640651 0.034960 0.080190
O O10 0.685998 0.487457 0.729364
O O11 0.379871 0.576192 0.312228
O O12 0.500000 0.500000 0.000000
O O13 0.750000 0.250000 0.500000
#
# Coordination Sequence:
#
# PCOD9291968 Si02
#       6
#     8   8   8   8   8   8
#     4  12  23  40  67 100 123 169 222 269 307 388
#     4  11  22  38  69  97 125 163 224 259 318 383
#     4  10  22  43  64  93 128 178 203 262 326 392
#     4  11  24  43  66  92 137 170 216 262 326 382
#     4  11  21  42  61  90 125 168 202 264 322 382
#     4  11  20  41  66  82 125 173 207 250 329 382
#
# _framework density 21.012103
#
# number of rings (size 3 to 8) (size 9 to 14) (size 15 to 20)
#    0.000    1.000    6.667    1.000    0.000    4.667 
#    3.000    0.000    0.000    0.000    0.000    0.000 
#    0.000    0.000    0.000    0.000    0.000    0.000 
#
# Total GULP energy -133949.173335 kJ/mol
# GULP energy per Si atom -5581.215556 kJ/mol
# Density = 2.096428 g / cm^3
# Si number density = 21.012103 Si / 1000 Ang^3
#
#
#
# Elastic Constant Matrix: (Units=GPa)
#
#
# Indices 1 2 3 4 5 6 
#
# 1 41.8675 27.8114 28.4174 0.0000 17.3930 0.0000
# 2 27.8114 44.5945 45.5629 0.0000 13.9686 0.0000
# 3 28.4174 45.5629 147.6679 0.0000 14.1712 0.0000
# 4 0.0000 0.0000 0.0000 43.3837 0.0000 -8.7971
# 5 17.3930 13.9686 14.1712 0.0000 23.9995 0.0000
# 6 0.0000 0.0000 0.0000 -8.7971 0.0000 24.0780
#
#
#
# Elastic Compliance Matrix: (Units=1/GPa)
#
#
# Indices 1 2 3 4 5 6 
#
# 1 0.048351 -0.023431 -0.000022 0.000000 -0.021390 0.000000
# 2 -0.023431 0.049135 -0.010110 0.000000 -0.005648 0.000000
# 3 -0.000022 -0.010110 0.009890 0.000000 0.000061 0.000000
# 4 0.000000 0.000000 0.000000 0.024894 0.000000 0.009095
# 5 -0.021390 -0.005648 0.000061 0.000000 0.060421 0.000000
# 6 0.000000 0.000000 0.000000 0.009095 0.000000 0.044855
#
#
# Mechanical properties :
#
#
# Convention : Reuss Voigt Hill
#
# Bulk Modulus (GPa) = 24.84479 48.63479 36.73979
# Shear Modulus (GPa) = 15.71890 27.11479 21.41684
#
# Velocity S-wave (km/s) = 2.73809 3.59616 3.19605
# Velocity P-wave (km/s) = 4.67396 6.35921 5.58056
#
# Compressibility (1/GPa) = 0.04024988
#
# Stress axis : x y z
#
# Youngs Moduli (GPa) = 20.68224 20.35191 101.11487
#
# Poissons Ratio (x) = 0.47687 0.00225
# Poissons Ratio (y) = 0.48461 1.02223
# Poissons Ratio (z) = 0.00046 0.20575
#
# Static dielectric constant tensor:
#      x y z
#    x 1.739830 0.000000 0.012740 
#    y 0.000000 1.888020 0.000000 
#    z 0.012740 0.000000 1.754750 
# 
# From -- ./inp_files/181713.got.cif
#   From: 2010.05.17/outbox.cif.g08.bks.cpg/sg15_91_cif.got.tgz:181713.got - 2010.06.03 18:47:42.
