data_PCOD9291344
_publ_section_title
;
Structure prediction by ZEFSAII (Michael W. Deem and Ramdas Pophale) SiO2 
 PCOD9291344
Probable space group: C 2/C
;
_chemical_formula_sum "Si O2"
_cell_formula_units_Z 28
_cell_length_a 19.347330
_cell_length_b 8.093127
_cell_length_c 9.324116
_cell_angle_alpha 90.000000
_cell_angle_beta 128.291986
_cell_angle_gamma 90.000000
_cell_volume 1145.879494
_symmetry_space_group_name_H-M "C 2/C"
_symmetry_group_IT_number 15
_symmetry_cell_setting 'monoclinic'
loop_
_space_group_symop_operation_xyz
x,y,z
-x,y,1/2-z
-x,-y,-z
x,-y,1/2+z
1/2+x,1/2+y,z
1/2-x,1/2+y,1/2-z
1/2-x,1/2-y,-z
1/2+x,1/2-y,1/2+z
loop_
_atom_site_type_symbol
_atom_site_label
_atom_site_fract_x
_atom_site_fract_y
_atom_site_fract_z
Si Si1 0.105118 0.504011 0.130404
Si Si2 0.710291 0.090830 0.028705
Si Si3 0.615110 0.633929 0.126768
Si Si4 0.000000 0.942084 0.750000
O O1 0.139764 0.634593 0.060337
O O2 0.157719 0.519123 0.346508
O O3 0.134481 0.323115 0.111469
O O4 0.000000 0.500000 0.000000
O O5 0.797944 0.029714 0.222367
O O6 0.750000 0.250000 0.000000
O O7 0.556525 0.646835 0.197689
O O8 0.564316 0.553065 0.930048
#
# Coordination Sequence:
#
# PCOD9291344 Si02
#       4
#     8   8   8   4
#     4  11  24  41  70 101 135 182 237 284 341 415
#     4  10  23  43  64  99 140 175 224 288 349 401
#     4  10  23  42  67  95 137 178 229 278 349 406
#     4  10  22  42  66  96 134 182 224 284 344 408
#
# _framework density 24.435379999999999
#
# number of rings (size 3 to 8) (size 9 to 14) (size 15 to 20)
#    0.000    1.714    0.000    2.571   12.000    0.000 
#    5.143    7.143    0.000    0.000    0.000    0.000 
#    0.000    0.000    0.000    0.000    0.000    0.000 
#
# Total GULP energy -78214.762445 kJ/mol
# GULP energy per Si atom -5586.768746 kJ/mol
# Density = 2.437976 g / cm^3
# Si number density = 24.435380 Si / 1000 Ang^3
#
#
#
# Elastic Constant Matrix: (Units=GPa)
#
#
# Indices 1 2 3 4 5 6 
#
# 1 162.7412 13.9861 74.0099 0.0000 4.1956 0.0000
# 2 13.9861 46.8571 32.5970 0.0000 -2.9652 0.0000
# 3 74.0099 32.5970 238.3936 0.0000 9.1750 0.0000
# 4 0.0000 0.0000 0.0000 34.1372 0.0000 -1.3036
# 5 4.1956 -2.9652 9.1750 0.0000 50.3680 0.0000
# 6 0.0000 0.0000 0.0000 -1.3036 0.0000 33.8091
#
#
#
# Elastic Compliance Matrix: (Units=1/GPa)
#
#
# Indices 1 2 3 4 5 6 
#
# 1 0.007176 -0.000679 -0.002125 0.000000 -0.000251 0.000000
# 2 -0.000679 0.023849 -0.003128 0.000000 0.002030 0.000000
# 3 -0.002125 -0.003128 0.005320 0.000000 -0.000976 0.000000
# 4 0.000000 0.000000 0.000000 0.029337 0.000000 0.001131
# 5 -0.000251 0.002030 -0.000976 0.000000 0.020172 0.000000
# 6 0.000000 0.000000 0.000000 0.001131 0.000000 0.029621
#
#
# Mechanical properties :
#
#
# Convention : Reuss Voigt Hill
#
# Bulk Modulus (GPa) = 40.85108 76.57532 58.71320
# Shear Modulus (GPa) = 36.90018 45.48945 41.19482
#
# Velocity S-wave (km/s) = 3.89023 4.31933 4.11039
# Velocity P-wave (km/s) = 6.07724 7.50210 6.82694
#
# Compressibility (1/GPa) = 0.02447916
#
# Stress axis : x y z
#
# Youngs Moduli (GPa) = 139.35160 41.93057 187.97462
#
# Poissons Ratio (x) = 0.02848 0.39950
# Poissons Ratio (y) = 0.09466 0.58803
# Poissons Ratio (z) = 0.29616 0.13117
#
# Static dielectric constant tensor:
#      x y z
#    x 2.021570 0.000000 0.024190 
#    y 0.000000 1.964840 0.000000 
#    z 0.024190 0.000000 2.007470 
# 
# From -- ./inp_files/36620.got.cif
#   From: 2010.05.17/outbox.cif.g08.bks.cpg/sg15_19_cif.got.tgz:36620.got - 2010.06.03 18:47:42.
