data_PCOD9291888
_publ_section_title
;
Structure prediction by ZEFSAII (Michael W. Deem and Ramdas Pophale) SiO2 
 PCOD9291888
Probable space group: C 2/C
;
_chemical_formula_sum "Si O2"
_cell_formula_units_Z 44
_cell_length_a 20.957883
_cell_length_b 7.535760
_cell_length_c 11.685094
_cell_angle_alpha 90.000000
_cell_angle_beta 55.698583
_cell_angle_gamma 90.000000
_cell_volume 1524.512814
_symmetry_space_group_name_H-M "C 2/C"
_symmetry_group_IT_number 15
_symmetry_cell_setting 'monoclinic'
loop_
_space_group_symop_operation_xyz
x,y,z
-x,y,1/2-z
-x,-y,-z
x,-y,1/2+z
1/2+x,1/2+y,z
1/2-x,1/2+y,1/2-z
1/2-x,1/2-y,-z
1/2+x,1/2-y,1/2+z
loop_
_atom_site_type_symbol
_atom_site_label
_atom_site_fract_x
_atom_site_fract_y
_atom_site_fract_z
Si Si1 0.255033 0.003284 0.187820
Si Si2 0.665827 0.337182 0.975346
Si Si3 0.101217 0.574772 0.794025
Si Si4 0.648809 0.284391 0.527541
Si Si5 0.525515 0.273859 0.448778
Si Si6 0.000000 0.816537 0.250000
O O1 0.271291 0.822405 0.098830
O O2 0.321455 0.979461 0.218422
O O3 0.180895 0.060755 0.336685
O O4 0.279021 0.177389 0.094524
O O5 0.670516 0.518400 0.045255
O O6 0.585610 0.258631 0.109230
O O7 0.114627 0.660931 0.659652
O O8 0.049087 0.398223 0.847233
O O9 0.054379 0.715994 0.915735
O O10 0.585601 0.289455 0.489915
O O11 0.523572 0.415300 0.347240
#
# Coordination Sequence:
#
# PCOD9291888 Si02
#       6
#     8   8   8   8   8   4
#     4  11  24  51  71 107 150 197 247 308 362 444
#     4  12  26  47  78 108 152 194 250 303 372 440
#     4  10  22  42  75 107 147 197 247 299 374 442
#     4  11  25  45  75 108 142 197 249 300 373 439
#     4  10  23  42  72 109 154 189 241 314 368 433
#     4  12  26  46  70 118 148 188 252 314 358 436
#
# _framework density 28.861678999999999
#
# number of rings (size 3 to 8) (size 9 to 14) (size 15 to 20)
#    0.000    1.091    3.636    1.636    7.636    2.909 
#    3.273    2.727    0.000    0.000    0.000    0.000 
#    0.000    0.000    0.000    0.000    0.000    0.000 
#
# Total GULP energy -122846.221150 kJ/mol
# GULP energy per Si atom -5583.919143 kJ/mol
# Density = 2.879599 g / cm^3
# Si number density = 28.861679 Si / 1000 Ang^3
#
#
#
# Elastic Constant Matrix: (Units=GPa)
#
#
# Indices 1 2 3 4 5 6 
#
# 1 103.3047 39.9512 69.1042 0.0000 -7.8419 0.0000
# 2 39.9512 200.2172 57.6990 0.0000 -30.4991 0.0000
# 3 69.1042 57.6990 223.6494 0.0000 -33.6845 0.0000
# 4 0.0000 0.0000 0.0000 125.6909 0.0000 -12.7243
# 5 -7.8419 -30.4991 -33.6845 0.0000 42.8706 0.0000
# 6 0.0000 0.0000 0.0000 -12.7243 0.0000 37.3754
#
#
#
# Elastic Compliance Matrix: (Units=1/GPa)
#
#
# Indices 1 2 3 4 5 6 
#
# 1 0.012730 -0.001739 -0.003766 0.000000 -0.001868 0.000000
# 2 -0.001739 0.006026 -0.000476 0.000000 0.003595 0.000000
# 3 -0.003766 -0.000476 0.006355 0.000000 0.003966 0.000000
# 4 0.000000 0.000000 0.000000 0.008240 0.000000 0.002805
# 5 -0.001868 0.003595 0.003966 0.000000 0.028658 0.000000
# 6 0.000000 0.000000 0.000000 0.002805 0.000000 0.027711
#
#
# Mechanical properties :
#
#
# Convention : Reuss Voigt Hill
#
# Bulk Modulus (GPa) = 76.05033 95.63111 85.84072
# Shear Modulus (GPa) = 47.14044 65.21519 56.17781
#
# Velocity S-wave (km/s) = 4.04582 4.75866 4.41665
# Velocity P-wave (km/s) = 6.94493 7.96237 7.47099
#
# Compressibility (1/GPa) = 0.01314919
#
# Stress axis : x y z
#
# Youngs Moduli (GPa) = 78.55326 165.93517 157.35658
#
# Poissons Ratio (x) = 0.28863 0.59261
# Poissons Ratio (y) = 0.13664 0.07487
# Poissons Ratio (z) = 0.29583 0.07895
#
# Static dielectric constant tensor:
#      x y z
#    x 2.481800 0.000000 0.175160 
#    y 0.000000 2.355680 0.000000 
#    z 0.175160 0.000000 2.245020 
# 
# From -- ./inp_files/121785.got.cif
#   From: 2010.05.17/outbox.cif.g08.bks.cpg/sg15_61_cif.got.tgz:121785.got - 2010.06.03 18:47:42.
