data_PCOD9291474
_publ_section_title
;
Structure prediction by ZEFSAII (Michael W. Deem and Ramdas Pophale) SiO2 
 PCOD9291474
Probable space group: C 2/C
;
_chemical_formula_sum "Si O2"
_cell_formula_units_Z 32
_cell_length_a 18.203302
_cell_length_b 16.302801
_cell_length_c 5.328993
_cell_angle_alpha 90.000000
_cell_angle_beta 108.124611
_cell_angle_gamma 90.000000
_cell_volume 1502.989141
_symmetry_space_group_name_H-M "C 2/C"
_symmetry_group_IT_number 15
_symmetry_cell_setting 'monoclinic'
loop_
_space_group_symop_operation_xyz
x,y,z
-x,y,1/2-z
-x,-y,-z
x,-y,1/2+z
1/2+x,1/2+y,z
1/2-x,1/2+y,1/2-z
1/2-x,1/2-y,-z
1/2+x,1/2-y,1/2+z
loop_
_atom_site_type_symbol
_atom_site_label
_atom_site_fract_x
_atom_site_fract_y
_atom_site_fract_z
Si Si1 0.207225 0.689511 0.146461
Si Si2 0.000000 0.055036 0.750000
Si Si3 0.921749 0.668423 0.826804
Si Si4 0.500000 0.055370 0.250000
Si Si5 0.637471 0.319276 0.458493
O O1 0.278659 0.647038 0.364731
O O2 0.160145 0.751654 0.274273
O O3 0.250000 0.750000 0.000000
O O4 0.148009 0.636411 0.920357
O O5 0.076160 0.112466 0.819999
O O6 0.000000 0.000000 0.500000
O O7 0.000000 0.664178 0.750000
O O8 0.903519 0.762519 0.874398
O O9 0.931912 0.617607 0.094806
O O10 0.500000 0.000000 0.500000
#
# Coordination Sequence:
#
# PCOD9291474 Si02
#       5
#     8   4   8   4   8
#     4   9  20  38  71  95 128 167 232 290 331 393
#     4  12  29  44  69 102 150 190 226 288 363 426
#     4  11  21  39  70  97 125 176 225 285 340 407
#     4  12  25  40  57  92 134 164 210 264 333 406
#     4  10  22  42  68 101 132 175 244 283 340 417
#
# _framework density 21.290907000000001
#
# number of rings (size 3 to 8) (size 9 to 14) (size 15 to 20)
#    0.000    1.500    1.250    3.750    8.750    0.000 
#    0.000    2.500    0.000    0.000    0.000    0.000 
#    0.000    0.000    0.000    0.000    0.000    0.000 
#
# Total GULP energy -89202.825153 kJ/mol
# GULP energy per Si atom -5575.176572 kJ/mol
# Density = 2.124245 g / cm^3
# Si number density = 21.290907 Si / 1000 Ang^3
#
#
#
# Elastic Constant Matrix: (Units=GPa)
#
#
# Indices 1 2 3 4 5 6 
#
# 1 129.7793 56.1248 73.8625 0.0000 19.5976 0.0000
# 2 56.1248 80.9368 59.4759 0.0000 26.8443 0.0000
# 3 73.8625 59.4759 175.0015 0.0000 41.2222 0.0000
# 4 0.0000 0.0000 0.0000 41.1978 0.0000 7.9028
# 5 19.5976 26.8443 41.2222 0.0000 55.4138 0.0000
# 6 0.0000 0.0000 0.0000 7.9028 0.0000 7.3442
#
#
#
# Elastic Compliance Matrix: (Units=1/GPa)
#
#
# Indices 1 2 3 4 5 6 
#
# 1 0.012149 -0.006467 -0.003220 0.000000 0.001231 0.000000
# 2 -0.006467 0.020949 -0.003078 0.000000 -0.005572 0.000000
# 3 -0.003220 -0.003078 0.009093 0.000000 -0.004135 0.000000
# 4 0.000000 0.000000 0.000000 0.030587 0.000000 -0.032913
# 5 0.001231 -0.005572 -0.004135 0.000000 0.023385 0.000000
# 6 0.000000 0.000000 0.000000 -0.032913 0.000000 0.171579
#
#
# Mechanical properties :
#
#
# Convention : Reuss Voigt Hill
#
# Bulk Modulus (GPa) = 60.01598 84.96043 72.48821
# Shear Modulus (GPa) = 16.73217 33.87478 25.30348
#
# Velocity S-wave (km/s) = 2.80640 3.99312 3.45115
# Velocity P-wave (km/s) = 6.22503 7.82631 7.07114
#
# Compressibility (1/GPa) = 0.01666223
#
# Stress axis : x y z
#
# Youngs Moduli (GPa) = 82.31431 47.73395 109.97166
#
# Poissons Ratio (x) = 0.30868 0.35409
# Poissons Ratio (y) = 0.53230 0.33850
# Poissons Ratio (z) = 0.26504 0.14693
#
# Static dielectric constant tensor:
#      x y z
#    x 1.803620 0.000000 0.019650 
#    y 0.000000 1.776950 0.000000 
#    z 0.019650 0.000000 1.906080 
# 
# From -- ./inp_files/9555.got.cif
#   From: 2010.05.17/outbox.cif.g08.bks.cpg/sg15_5_cif.got.tgz:9555.got - 2010.06.03 18:47:42.
