data_PCOD9291284
_publ_section_title
;
Structure prediction by ZEFSAII (Michael W. Deem and Ramdas Pophale) SiO2 
 PCOD9291284
Probable space group: C 2/C
;
_chemical_formula_sum "Si O2"
_cell_formula_units_Z 56
_cell_length_a 22.244517
_cell_length_b 5.620228
_cell_length_c 21.571921
_cell_angle_alpha 90.000000
_cell_angle_beta 72.942530
_cell_angle_gamma 90.000000
_cell_volume 2578.271402
_symmetry_space_group_name_H-M "C 2/C"
_symmetry_group_IT_number 15
_symmetry_cell_setting 'monoclinic'
loop_
_space_group_symop_operation_xyz
x,y,z
-x,y,1/2-z
-x,-y,-z
x,-y,1/2+z
1/2+x,1/2+y,z
1/2-x,1/2+y,1/2-z
1/2-x,1/2-y,-z
1/2+x,1/2-y,1/2+z
loop_
_atom_site_type_symbol
_atom_site_label
_atom_site_fract_x
_atom_site_fract_y
_atom_site_fract_z
Si Si1 0.566470 0.747671 0.652764
Si Si2 0.679011 0.490130 0.072595
Si Si3 0.887941 0.222380 0.157368
Si Si4 0.697466 0.243826 0.933538
Si Si5 0.507425 0.745847 0.033704
Si Si6 0.634866 0.101499 0.538655
Si Si7 0.918697 0.275674 0.706683
O O1 0.611648 0.522159 0.627595
O O2 0.492038 0.748023 0.662467
O O3 0.576059 0.814176 0.721201
O O4 0.599908 0.916336 0.593052
O O5 0.729901 0.331845 0.092654
O O6 0.688646 0.771069 0.062196
O O7 0.685277 0.404479 0.998556
O O8 0.835367 0.184202 0.120012
O O9 0.885262 0.486479 0.189492
O O10 0.955249 0.238285 0.102543
O O11 0.888735 0.982512 0.199064
O O12 0.662560 0.006527 0.968090
O O13 0.578435 0.732617 0.034894
O O14 0.500000 0.500000 0.000000
O O15 0.500000 0.000000 0.000000
#
# Coordination Sequence:
#
# PCOD9291284 Si02
#       7
#     8   8   8   8   8   8   8
#     4  10  24  43  64  95 124 176 224 273 319 393
#     4  10  22  42  66  92 129 172 223 267 325 391
#     4  12  24  42  64  99 134 170 211 274 332 393
#     4  10  23  40  63  98 129 171 216 271 332 397
#     4  12  23  36  61  98 138 167 206 262 339 402
#     4  11  21  38  65  94 131 172 219 273 327 396
#     4  11  26  43  68  95 133 172 222 270 330 386
#
# _framework density 21.71998
#
# number of rings (size 3 to 8) (size 9 to 14) (size 15 to 20)
#    0.000    1.143    2.857    3.000    6.000    1.143 
#    0.000    1.429    0.000    0.000    0.000    0.000 
#    0.000    0.000    0.000    0.000    0.000    0.000 
#
# Total GULP energy -156021.549461 kJ/mol
# GULP energy per Si atom -5572.198195 kJ/mol
# Density = 2.167054 g / cm^3
# Si number density = 21.719980 Si / 1000 Ang^3
#
#
#
# Elastic Constant Matrix: (Units=GPa)
#
#
# Indices 1 2 3 4 5 6 
#
# 1 55.2681 11.1340 -0.8438 0.0000 9.4935 0.0000
# 2 11.1340 86.2319 19.8739 -0.0003 17.5536 -0.0003
# 3 -0.8438 19.8739 40.4240 -0.0002 9.0414 -0.0001
# 4 0.0000 -0.0003 -0.0002 19.8721 -0.0002 15.2130
# 5 9.4935 17.5536 9.0414 -0.0002 27.5212 -0.0001
# 6 0.0000 -0.0003 -0.0001 15.2130 -0.0001 30.5825
#
#
#
# Elastic Compliance Matrix: (Units=1/GPa)
#
#
# Indices 1 2 3 4 5 6 
#
# 1 0.019625 -0.001850 0.002773 0.000000 -0.006501 0.000000
# 2 -0.001850 0.014517 -0.005664 0.000000 -0.006761 0.000000
# 3 0.002773 -0.005664 0.029126 0.000000 -0.006913 0.000000
# 4 0.000000 0.000000 0.000000 0.081271 0.000000 -0.040427
# 5 -0.006501 -0.006761 -0.006913 0.000000 0.045161 0.000000
# 6 0.000000 0.000000 0.000000 -0.040427 0.000000 0.052809
#
#
# Mechanical properties :
#
#
# Convention : Reuss Voigt Hill
#
# Bulk Modulus (GPa) = 18.59147 26.91692 22.75419
# Shear Modulus (GPa) = 18.52409 25.71250 22.11829
#
# Velocity S-wave (km/s) = 2.92354 3.44440 3.19460
# Velocity P-wave (km/s) = 4.46927 5.31395 4.90981
#
# Compressibility (1/GPa) = 0.05378811
#
# Stress axis : x y z
#
# Youngs Moduli (GPa) = 50.95468 68.88499 34.33328
#
# Poissons Ratio (x) = 0.12742 -0.09521
# Poissons Ratio (y) = 0.09425 0.19445
# Poissons Ratio (z) = -0.14130 0.39014
#
# Static dielectric constant tensor:
#      x y z
#    x 2.363280 -0.000040 -0.420720 
#    y -0.000040 1.848020 -0.000020 
#    z -0.420720 -0.000020 1.651290 
# 
# From -- ./inp_files/254019.got.cif
#   From: 2010.05.17/outbox.cif.g08.bks.cpg/sg15_128_cif.got.tgz:254019.got - 2010.06.03 18:47:42.
