data_PCOD9291895
_publ_section_title
;
Structure prediction by ZEFSAII (Michael W. Deem and Ramdas Pophale) SiO2 
 PCOD9291895
Probable space group: C 2/C
;
_chemical_formula_sum "Si O2"
_cell_formula_units_Z 56
_cell_length_a 8.672963
_cell_length_b 16.611902
_cell_length_c 17.268790
_cell_angle_alpha 90.000000
_cell_angle_beta 120.314732
_cell_angle_gamma 90.000000
_cell_volume 2147.797322
_symmetry_space_group_name_H-M "C 2/C"
_symmetry_group_IT_number 15
_symmetry_cell_setting 'monoclinic'
loop_
_space_group_symop_operation_xyz
x,y,z
-x,y,1/2-z
-x,-y,-z
x,-y,1/2+z
1/2+x,1/2+y,z
1/2-x,1/2+y,1/2-z
1/2-x,1/2-y,-z
1/2+x,1/2-y,1/2+z
loop_
_atom_site_type_symbol
_atom_site_label
_atom_site_fract_x
_atom_site_fract_y
_atom_site_fract_z
Si Si1 0.560016 0.965434 0.933096
Si Si2 0.776813 0.674038 0.366124
Si Si3 0.841560 0.850720 0.390791
Si Si4 0.719518 0.773778 0.804787
Si Si5 0.508355 0.600104 0.088238
Si Si6 0.102340 0.941364 0.386291
Si Si7 0.339719 0.901564 0.307210
O O1 0.443543 0.885249 0.894624
O O2 0.504570 0.037309 0.861410
O O3 0.761593 0.947591 0.007295
O O4 0.500000 0.000000 0.000000
O O5 0.818175 0.760346 0.413639
O O6 0.721671 0.698911 0.266323
O O7 0.629414 0.633359 0.381980
O O8 0.894895 0.899253 0.480380
O O9 0.697080 0.881156 0.291690
O O10 0.010076 0.855665 0.374740
O O11 0.822009 0.687879 0.842013
O O12 0.000000 0.272845 0.750000
O O13 0.816996 0.844207 0.878078
O O14 0.541348 0.511130 0.130915
O O15 0.191276 0.946705 0.324500
#
# Coordination Sequence:
#
# PCOD9291895 Si02
#       7
#     8   8   8   8   8   8   8
#     4  10  22  42  79 108 146 194 263 298 376 446
#     4  11  24  48  74 112 150 206 248 300 387 449
#     4  11  26  42  74 113 156 190 253 315 377 442
#     4  11  27  47  74 114 148 194 257 317 375 440
#     4  12  26  46  76 110 157 193 252 307 380 456
#     4  11  24  46  76 110 147 206 256 298 384 443
#     4  10  22  48  75 106 148 206 252 309 375 447
#
# _framework density 26.073225000000001
#
# number of rings (size 3 to 8) (size 9 to 14) (size 15 to 20)
#    0.000    1.143    2.857    3.429    8.000    2.857 
#    0.000    2.143    0.000    0.000    0.000    0.000 
#    0.000    0.000    0.000    0.000    0.000    0.000 
#
# Total GULP energy -156248.431737 kJ/mol
# GULP energy per Si atom -5580.301133 kJ/mol
# Density = 2.601388 g / cm^3
# Si number density = 26.073225 Si / 1000 Ang^3
#
#
#
# Elastic Constant Matrix: (Units=GPa)
#
#
# Indices 1 2 3 4 5 6 
#
# 1 100.7979 38.4516 25.3272 0.0000 13.6269 0.0000
# 2 38.4516 130.1443 55.5973 0.0000 9.2997 0.0000
# 3 25.3272 55.5973 108.8524 0.0000 -2.1265 0.0000
# 4 0.0000 0.0000 0.0000 37.2555 0.0000 -19.6076
# 5 13.6269 9.2997 -2.1265 0.0000 52.9985 0.0000
# 6 0.0000 0.0000 0.0000 -19.6076 0.0000 10.4021
#
#
#
# Elastic Compliance Matrix: (Units=1/GPa)
#
#
# Indices 1 2 3 4 5 6 
#
# 1 0.011635 -0.002654 -0.001402 0.000000 -0.002582 0.000000
# 2 -0.002654 0.010634 -0.004841 0.000000 -0.001378 0.000000
# 3 -0.001402 -0.004841 0.012019 0.000000 0.001692 0.000000
# 4 0.000000 0.000000 0.000000 3.381997 0.000000 6.374960
# 5 -0.002582 -0.001378 0.001692 0.000000 0.019842 0.000000
# 6 0.000000 0.000000 0.000000 6.374960 0.000000 12.112735
#
#
# Mechanical properties :
#
#
# Convention : Reuss Voigt Hill
#
# Bulk Modulus (GPa) = 60.62954 64.28299 62.45627
# Shear Modulus (GPa) = 0.32109 34.82579 17.57344
#
# Velocity S-wave (km/s) = 0.35130 3.65868 2.59897
# Velocity P-wave (km/s) = 4.84444 6.52351 5.74564
#
# Compressibility (1/GPa) = 0.01649361
#
# Stress axis : x y z
#
# Youngs Moduli (GPa) = 85.95032 94.03385 83.20441
#
# Poissons Ratio (x) = 0.24957 0.11665
# Poissons Ratio (y) = 0.22812 0.40279
# Poissons Ratio (z) = 0.12050 0.45522
#
# Static dielectric constant tensor:
#      x y z
#    x 2.177400 0.000000 0.098800 
#    y 0.000000 2.147300 0.000000 
#    z 0.098800 0.000000 2.049370 
# 
# From -- ./inp_files/198441.got.cif
#   From: 2010.05.17/outbox.cif.g08.bks.cpg/sg15_100_cif.got.tgz:198441.got - 2010.06.03 18:47:42.
