data_PCOD9291737
_publ_section_title
;
Structure prediction by ZEFSAII (Michael W. Deem and Ramdas Pophale) SiO2 
 PCOD9291737
Probable space group: C 2/C
;
_chemical_formula_sum "Si O2"
_cell_formula_units_Z 60
_cell_length_a 23.409072
_cell_length_b 21.391678
_cell_length_c 5.580556
_cell_angle_alpha 90.000000
_cell_angle_beta 66.184593
_cell_angle_gamma 90.000000
_cell_volume 2556.565623
_symmetry_space_group_name_H-M "C 2/C"
_symmetry_group_IT_number 15
_symmetry_cell_setting 'monoclinic'
loop_
_space_group_symop_operation_xyz
x,y,z
-x,y,1/2-z
-x,-y,-z
x,-y,1/2+z
1/2+x,1/2+y,z
1/2-x,1/2+y,1/2-z
1/2-x,1/2-y,-z
1/2+x,1/2-y,1/2+z
loop_
_atom_site_type_symbol
_atom_site_label
_atom_site_fract_x
_atom_site_fract_y
_atom_site_fract_z
Si Si1 0.095571 0.532919 0.171055
Si Si2 0.475245 0.428605 0.043172
Si Si3 0.620747 0.281794 0.800519
Si Si4 0.190987 0.254006 0.775880
Si Si5 0.500000 0.244203 0.750000
Si Si6 0.253647 0.031644 0.565769
Si Si7 0.413218 0.824128 0.757465
Si Si8 0.347603 0.626182 0.871398
O O1 0.075736 0.503528 0.461935
O O2 0.076959 0.605254 0.182628
O O3 0.171476 0.533227 0.053163
O O4 0.500000 0.403298 0.750000
O O5 0.500000 0.398679 0.250000
O O6 0.500000 0.500000 0.000000
O O7 0.400885 0.420521 0.188843
O O8 0.684192 0.256204 0.570489
O O9 0.558117 0.283144 0.750076
O O10 0.601607 0.225980 0.013012
O O11 0.636616 0.348576 0.890322
O O12 0.250000 0.250000 0.500000
O O13 0.149889 0.315780 0.795533
O O14 0.152600 0.191382 0.767804
O O15 0.529306 0.200845 0.494575
O O16 0.219292 0.095658 0.556360
O O17 0.234603 0.988540 0.368575
#
# Coordination Sequence:
#
# PCOD9291737 Si02
#       8
#     8   8   8   8   4   8   8   8
#     4  10  23  44  70 108 140 182 228 279 346 428
#     4  10  25  43  63  90 131 182 234 294 344 402
#     4  10  24  43  69 102 134 185 237 296 359 430
#     4  10  23  43  66 103 135 175 229 299 362 428
#     4  10  22  44  70  96 140 180 234 280 370 404
#     4  10  24  42  69  97 140 184 230 285 350 421
#     4  10  22  42  70  97 139 184 224 290 350 423
#     4  11  25  41  69  98 132 185 241 293 356 421
#
# _framework density 23.468983000000001
#
# number of rings (size 3 to 8) (size 9 to 14) (size 15 to 20)
#    0.000    1.867    0.000    1.200   11.200    5.333 
#    9.600    0.667    0.000    0.000    0.000    0.000 
#    0.000    0.000    0.000    0.000    0.000    0.000 
#
# Total GULP energy -167339.316018 kJ/mol
# GULP energy per Si atom -5577.977201 kJ/mol
# Density = 2.341557 g / cm^3
# Si number density = 23.468983 Si / 1000 Ang^3
#
#
#
# Elastic Constant Matrix: (Units=GPa)
#
#
# Indices 1 2 3 4 5 6 
#
# 1 84.9577 23.8631 47.5329 0.0000 -5.2469 0.0000
# 2 23.8631 104.6787 30.5589 0.0000 0.9177 0.0000
# 3 47.5329 30.5589 168.1943 0.0000 -10.7435 0.0000
# 4 0.0000 0.0000 0.0000 28.4326 0.0000 -1.9963
# 5 -5.2469 0.9177 -10.7435 0.0000 35.5901 0.0000
# 6 0.0000 0.0000 0.0000 -1.9963 0.0000 25.3833
#
#
#
# Elastic Compliance Matrix: (Units=1/GPa)
#
#
# Indices 1 2 3 4 5 6 
#
# 1 0.014496 -0.002259 -0.003616 0.000000 0.001104 0.000000
# 2 -0.002259 0.010464 -0.001327 0.000000 -0.001003 0.000000
# 3 -0.003616 -0.001327 0.007318 0.000000 0.001710 0.000000
# 4 0.000000 0.000000 0.000000 0.035366 0.000000 0.002781
# 5 0.001104 -0.001003 0.001710 0.000000 0.028803 0.000000
# 6 0.000000 0.000000 0.000000 0.002781 0.000000 0.039615
#
#
# Mechanical properties :
#
#
# Convention : Reuss Voigt Hill
#
# Bulk Modulus (GPa) = 55.94418 62.41561 59.17989
# Shear Modulus (GPa) = 31.96462 34.93958 33.45210
#
# Velocity S-wave (km/s) = 3.69452 3.86263 3.77951
# Velocity P-wave (km/s) = 6.48757 6.82245 6.65712
#
# Compressibility (1/GPa) = 0.01787496
#
# Stress axis : x y z
#
# Youngs Moduli (GPa) = 68.98358 95.56455 136.65501
#
# Poissons Ratio (x) = 0.21585 0.49412
# Poissons Ratio (y) = 0.15582 0.18134
# Poissons Ratio (z) = 0.24943 0.12681
#
# Static dielectric constant tensor:
#      x y z
#    x 1.999030 0.000000 0.033910 
#    y 0.000000 1.752140 0.000000 
#    z 0.033910 0.000000 1.822570 
# 
# From -- ./inp_files/17517.got.cif
#   From: 2010.05.17/outbox.cif.g08.bks.cpg/sg15_9_cif.got.tgz:17517.got - 2010.06.03 18:47:42.
