data_PCOD9291120
_publ_section_title
;
Structure prediction by ZEFSAII (Michael W. Deem and Ramdas Pophale) SiO2 
 PCOD9291120
Probable space group: C 2/C
;
_chemical_formula_sum "Si O2"
_cell_formula_units_Z 48
_cell_length_a 14.505212
_cell_length_b 26.677135
_cell_length_c 5.499042
_cell_angle_alpha 90.000000
_cell_angle_beta 65.169747
_cell_angle_gamma 90.000000
_cell_volume 1931.184097
_symmetry_space_group_name_H-M "C 2/C"
_symmetry_group_IT_number 15
_symmetry_cell_setting 'monoclinic'
loop_
_space_group_symop_operation_xyz
x,y,z
-x,y,1/2-z
-x,-y,-z
x,-y,1/2+z
1/2+x,1/2+y,z
1/2-x,1/2+y,1/2-z
1/2-x,1/2-y,-z
1/2+x,1/2-y,1/2+z
loop_
_atom_site_type_symbol
_atom_site_label
_atom_site_fract_x
_atom_site_fract_y
_atom_site_fract_z
Si Si1 0.617477 0.527981 0.269574
Si Si2 0.322264 0.327249 0.243657
Si Si3 0.366419 0.869490 0.272525
Si Si4 0.500000 0.181728 0.250000
Si Si5 0.638570 0.025357 0.490354
Si Si6 0.806253 0.715403 0.207405
Si Si7 0.500000 0.377403 0.750000
O O1 0.589231 0.496652 0.540895
O O2 0.574151 0.584508 0.315084
O O3 0.739077 0.526628 0.146073
O O4 0.238158 0.369827 0.271712
O O5 0.292081 0.309743 0.552069
O O6 0.299765 0.273345 0.141213
O O7 0.429601 0.346357 0.018108
O O8 0.386161 0.919088 0.398151
O O9 0.345123 0.823095 0.469041
O O10 0.459227 0.854353 0.003069
O O11 0.401737 0.214322 0.291131
O O12 0.606022 0.009512 0.255415
#
# Coordination Sequence:
#
# PCOD9291120 Si02
#       7
#     8   8   8   4   8   8   4
#     4  10  22  42  64  95 140 187 230 277 342 417
#     4  10  24  42  65 101 139 176 235 274 344 408
#     4  11  22  44  71  96 134 180 225 289 346 420
#     4  10  24  40  72  99 127 174 232 280 362 404
#     4  10  23  41  69  99 137 184 231 285 353 421
#     4  10  23  46  68  95 137 183 225 287 347 421
#     4  12  22  40  62 103 139 176 226 288 330 416
#
# _framework density 24.855217
#
# number of rings (size 3 to 8) (size 9 to 14) (size 15 to 20)
#    0.000    1.667    1.667    1.500    7.000    1.333 
#    3.000    0.833    0.000    0.000    0.000    0.000 
#    0.000    0.000    0.000    0.000    0.000    0.000 
#
# Total GULP energy -134145.920912 kJ/mol
# GULP energy per Si atom -5589.413371 kJ/mol
# Density = 2.479865 g / cm^3
# Si number density = 24.855217 Si / 1000 Ang^3
#
#
#
# Elastic Constant Matrix: (Units=GPa)
#
#
# Indices 1 2 3 4 5 6 
#
# 1 93.8780 28.4171 48.2124 0.0000 -12.9380 0.0000
# 2 28.4171 146.9304 91.2015 0.0000 -10.4099 0.0000
# 3 48.2124 91.2015 208.4570 0.0000 -45.4212 0.0000
# 4 0.0000 0.0000 0.0000 30.9888 0.0000 -29.6524
# 5 -12.9380 -10.4099 -45.4212 0.0000 40.8593 0.0000
# 6 0.0000 0.0000 0.0000 -29.6524 0.0000 0.7890
#
#
#
# Elastic Compliance Matrix: (Units=1/GPa)
#
#
# Indices 1 2 3 4 5 6 
#
# 1 0.012208 -0.000946 -0.002138 0.000000 0.001248 0.000000
# 2 -0.000946 0.009676 -0.004675 0.000000 -0.003031 0.000000
# 3 -0.002138 -0.004675 0.009145 0.000000 0.008298 0.000000
# 4 0.000000 0.000000 0.000000 -0.000923 0.000000 -0.034689
# 5 0.001248 -0.003031 0.008298 0.000000 0.033322 0.000000
# 6 0.000000 0.000000 0.000000 -0.034689 0.000000 -0.036252
#
#
# Mechanical properties :
#
#
# Convention : Reuss Voigt Hill
#
# Bulk Modulus (GPa) = 64.46579 87.21415 75.83997
# Shear Modulus (GPa) = 104.46283 33.28972 68.87627
#
# Velocity S-wave (km/s) = 6.48997 3.66368 5.26983
# Velocity P-wave (km/s) = 9.06380 7.28435 8.22236
#
# Compressibility (1/GPa) = 0.01551210
#
# Stress axis : x y z
#
# Youngs Moduli (GPa) = 81.91121 103.34876 109.34860
#
# Poissons Ratio (x) = 0.09774 0.23377
# Poissons Ratio (y) = 0.07747 0.51121
# Poissons Ratio (z) = 0.17511 0.48316
#
# Static dielectric constant tensor:
#      x y z
#    x 2.149090 0.000000 0.056240 
#    y 0.000000 1.918690 0.000000 
#    z 0.056240 0.000000 2.015950 
# 
# From -- ./inp_files/11206.got.cif
#   From: 2010.05.17/outbox.cif.g08.bks.cpg/sg15_6_cif.got.tgz:11206.got - 2010.06.03 18:47:42.
