data_PCOD9291779
_publ_section_title
;
Structure prediction by ZEFSAII (Michael W. Deem and Ramdas Pophale) SiO2 
 PCOD9291779
Probable space group: C 2/C
;
_chemical_formula_sum "Si O2"
_cell_formula_units_Z 64
_cell_length_a 24.238809
_cell_length_b 7.812608
_cell_length_c 14.953737
_cell_angle_alpha 90.000000
_cell_angle_beta 98.244482
_cell_angle_gamma 90.000000
_cell_volume 2802.498241
_symmetry_space_group_name_H-M "C 2/C"
_symmetry_group_IT_number 15
_symmetry_cell_setting 'monoclinic'
loop_
_space_group_symop_operation_xyz
x,y,z
-x,y,1/2-z
-x,-y,-z
x,-y,1/2+z
1/2+x,1/2+y,z
1/2-x,1/2+y,1/2-z
1/2-x,1/2-y,-z
1/2+x,1/2-y,1/2+z
loop_
_atom_site_type_symbol
_atom_site_label
_atom_site_fract_x
_atom_site_fract_y
_atom_site_fract_z
Si Si1 0.867479 0.336763 0.927452
Si Si2 0.674535 0.730555 0.037602
Si Si3 0.224075 0.050817 0.884364
Si Si4 0.061248 0.754826 0.778068
Si Si5 0.212298 0.923704 0.172452
Si Si6 0.176210 0.675118 0.891513
Si Si7 0.036058 0.142617 0.459610
Si Si8 0.067961 0.668372 0.589180
O O1 0.820100 0.252030 0.856290
O O2 0.905905 0.480676 0.889891
O O3 0.839331 0.393556 0.014775
O O4 0.909320 0.188701 0.972660
O O5 0.712724 0.878800 0.091765
O O6 0.686143 0.571139 0.105692
O O7 0.608909 0.762806 0.022958
O O8 0.693588 0.685531 0.942406
O O9 0.209083 0.047330 0.776909
O O10 0.202916 0.865107 0.913233
O O11 0.117479 0.668710 0.826456
O O12 0.049794 0.887723 0.857173
O O13 0.075414 0.790181 0.678171
O O14 0.000000 0.665958 0.750000
O O15 0.275993 0.915657 0.153788
O O16 0.996475 0.311803 0.449573
O O17 0.000000 0.000000 0.500000
#
# Coordination Sequence:
#
# PCOD9291779 Si02
#       8
#     8   8   8   8   8   8   8   8
#     4  11  24  41  67  96 133 179 221 277 339 401
#     4  11  25  41  63  98 136 176 224 283 339 397
#     4  11  24  40  63  93 136 174 226 275 339 399
#     4   9  21  41  67  94 127 172 213 270 331 394
#     4  12  23  41  66  96 133 179 229 276 337 410
#     4  11  23  42  63  94 134 175 222 278 342 396
#     4  10  22  42  71  97 129 175 222 277 340 397
#     4  11  22  42  67  94 135 174 223 273 338 403
#
# _framework density 22.836766999999998
#
# number of rings (size 3 to 8) (size 9 to 14) (size 15 to 20)
#    0.000    1.250    1.250    4.500    5.250    2.000 
#    2.250    0.000    0.000    0.000    0.000    0.000 
#    0.000    0.000    0.000    0.000    0.000    0.000 
#
# Total GULP energy -178494.622321 kJ/mol
# GULP energy per Si atom -5577.956948 kJ/mol
# Density = 2.278479 g / cm^3
# Si number density = 22.836767 Si / 1000 Ang^3
#
#
#
# Elastic Constant Matrix: (Units=GPa)
#
#
# Indices 1 2 3 4 5 6 
#
# 1 107.1817 16.9548 28.8728 0.0000 1.7384 0.0000
# 2 16.9548 53.8136 18.1468 0.0000 0.1370 0.0000
# 3 28.8728 18.1468 107.2762 0.0000 -17.9254 0.0000
# 4 0.0000 0.0000 0.0000 17.1308 0.0000 -8.9874
# 5 1.7384 0.1370 -17.9254 0.0000 35.1794 0.0000
# 6 0.0000 0.0000 0.0000 -8.9874 0.0000 32.0291
#
#
#
# Elastic Compliance Matrix: (Units=1/GPa)
#
#
# Indices 1 2 3 4 5 6 
#
# 1 0.010473 -0.002372 -0.002735 0.000000 -0.001902 0.000000
# 2 -0.002372 0.020366 -0.003061 0.000000 -0.001522 0.000000
# 3 -0.002735 -0.003061 0.011587 0.000000 0.006051 0.000000
# 4 0.000000 0.000000 0.000000 0.068451 0.000000 0.019207
# 5 -0.001902 -0.001522 0.006051 0.000000 0.031609 0.000000
# 6 0.000000 0.000000 0.000000 0.019207 0.000000 0.036611
#
#
# Mechanical properties :
#
#
# Convention : Reuss Voigt Hill
#
# Bulk Modulus (GPa) = 38.33063 44.02448 41.17756
# Shear Modulus (GPa) = 24.49413 30.48767 27.49090
#
# Velocity S-wave (km/s) = 3.27857 3.65776 3.47335
# Velocity P-wave (km/s) = 5.58150 6.09580 5.84431
#
# Compressibility (1/GPa) = 0.02608880
#
# Stress axis : x y z
#
# Youngs Moduli (GPa) = 95.48443 49.10095 86.30531
#
# Poissons Ratio (x) = 0.11649 0.23606
# Poissons Ratio (y) = 0.22653 0.26417
# Poissons Ratio (z) = 0.26117 0.15029
#
# Static dielectric constant tensor:
#      x y z
#    x 1.871700 0.000000 -0.001070 
#    y 0.000000 1.929340 0.000000 
#    z -0.001070 0.000000 1.840620 
# 
# From -- ./inp_files/172400.got.cif
#   From: 2010.05.17/outbox.cif.g08.bks.cpg/sg15_87_cif.got.tgz:172400.got - 2010.06.03 18:47:42.
