data_PCOD9291201
_publ_section_title
;
Structure prediction by ZEFSAII (Michael W. Deem and Ramdas Pophale) SiO2 
 PCOD9291201
Probable space group: C 2/C
;
_chemical_formula_sum "Si O2"
_cell_formula_units_Z 36
_cell_length_a 11.065892
_cell_length_b 23.096888
_cell_length_c 11.168814
_cell_angle_alpha 90.000000
_cell_angle_beta 30.414353
_cell_angle_gamma 90.000000
_cell_volume 1445.146352
_symmetry_space_group_name_H-M "C 2/C"
_symmetry_group_IT_number 15
_symmetry_cell_setting 'monoclinic'
loop_
_space_group_symop_operation_xyz
x,y,z
-x,y,1/2-z
-x,-y,-z
x,-y,1/2+z
1/2+x,1/2+y,z
1/2-x,1/2+y,1/2-z
1/2-x,1/2-y,-z
1/2+x,1/2-y,1/2+z
loop_
_atom_site_type_symbol
_atom_site_label
_atom_site_fract_x
_atom_site_fract_y
_atom_site_fract_z
Si Si1 0.980035 0.609473 0.998285
Si Si2 0.300525 0.229390 0.093936
Si Si3 0.173583 0.039477 0.432753
Si Si4 0.000000 0.543948 0.750000
Si Si5 0.757098 0.156633 0.977169
O O1 0.177869 0.635086 0.914881
O O2 0.070983 0.584395 0.797653
O O3 0.797840 0.660620 0.118544
O O4 0.867749 0.557062 0.167370
O O5 0.083341 0.253247 0.362246
O O6 0.250000 0.250000 0.000000
O O7 0.158422 0.102419 0.510997
O O8 0.275936 0.998926 0.451128
O O9 0.000000 0.000000 0.500000
O O10 0.000000 0.192880 0.750000
O O11 0.500000 0.176999 0.250000
#
# Coordination Sequence:
#
# PCOD9291201 Si02
#       5
#     8   8   8   4   8
#     4  11  24  43  68 101 146 186 232 296 355 414
#     4  10  23  44  71 100 132 172 238 302 357 409
#     4  11  24  38  64  97 144 191 234 275 342 431
#     4  12  22  38  60 100 144 186 234 264 350 432
#     4  10  22  42  65  94 138 188 233 275 340 411
#
# _framework density 24.910972999999998
#
# number of rings (size 3 to 8) (size 9 to 14) (size 15 to 20)
#    0.000    1.333    3.333    3.333    3.111    8.889 
#    0.000    0.000    0.000   17.333    0.000    0.000 
#    0.000    0.000    0.000    0.000    0.000    0.000 
#
# Total GULP energy -100231.688945 kJ/mol
# GULP energy per Si atom -5568.427164 kJ/mol
# Density = 2.485427 g / cm^3
# Si number density = 24.910973 Si / 1000 Ang^3
#
#
#
# Elastic Constant Matrix: (Units=GPa)
#
#
# Indices 1 2 3 4 5 6 
#
# 1 121.6676 39.4830 30.3126 -0.0009 -7.5323 -0.0011
# 2 39.4830 102.2661 28.8681 -0.0002 -11.7888 -0.0003
# 3 30.3126 28.8681 156.5967 -0.0011 -28.4040 -0.0013
# 4 -0.0009 -0.0002 -0.0011 -350.5973 0.0003 -391.6491
# 5 -7.5323 -11.7888 -28.4040 0.0003 40.6810 0.0004
# 6 -0.0011 -0.0003 -0.0013 -391.6491 0.0004 -410.6943
#
#
#
# Elastic Compliance Matrix: (Units=1/GPa)
#
#
# Indices 1 2 3 4 5 6 
#
# 1 0.009620 -0.003368 -0.001254 0.000000 -0.000070 0.000000
# 2 -0.003368 0.011625 -0.001137 0.000000 0.001951 0.000000
# 3 -0.001254 -0.001137 0.007713 0.000000 0.004824 0.000000
# 4 0.000000 0.000000 0.000000 0.043688 0.000000 -0.041662
# 5 -0.000070 0.001951 0.004824 0.000000 0.028502 0.000000
# 6 0.000000 0.000000 0.000000 -0.041662 0.000000 0.037295
#
#
# Mechanical properties :
#
#
# Convention : Reuss Voigt Hill
#
# Bulk Modulus (GPa) = 57.34190 64.20643 60.77417
# Shear Modulus (GPa) = 32.09769 -125.33102 -46.61666
#
# Velocity S-wave (km/s) = 3.59346 -7.10076 -4.33058
# Velocity P-wave (km/s) = 6.34712 6.43408 0.74547
#
# Compressibility (1/GPa) = 0.01743925
#
# Stress axis : x y z
#
# Youngs Moduli (GPa) = 103.94728 86.02335 129.64910
#
# Poissons Ratio (x) = 0.28975 0.16259
# Poissons Ratio (y) = 0.35013 0.14742
# Poissons Ratio (z) = 0.13035 0.09782
#
# Static dielectric constant tensor:
#      x y z
#    x 1.879150 0.000000 0.057060 
#    y 0.000000 2.030270 0.000000 
#    z 0.057060 0.000000 1.991460 
# 
# From -- ./inp_files/91081.got.cif
#   From: 2010.05.17/outbox.cif.g08.bks.cpg/sg15_46_cif.got.tgz:91081.got - 2010.06.03 18:47:42.
