data_PCOD9291801
_publ_section_title
;
Structure prediction by ZEFSAII (Michael W. Deem and Ramdas Pophale) SiO2 
 PCOD9291801
Probable space group: C 2/C
;
_chemical_formula_sum "Si O2"
_cell_formula_units_Z 64
_cell_length_a 14.771646
_cell_length_b 29.723886
_cell_length_c 8.917092
_cell_angle_alpha 90.000000
_cell_angle_beta 127.159803
_cell_angle_gamma 90.000000
_cell_volume 3120.260985
_symmetry_space_group_name_H-M "C 2/C"
_symmetry_group_IT_number 15
_symmetry_cell_setting 'monoclinic'
loop_
_space_group_symop_operation_xyz
x,y,z
-x,y,1/2-z
-x,-y,-z
x,-y,1/2+z
1/2+x,1/2+y,z
1/2-x,1/2+y,1/2-z
1/2-x,1/2-y,-z
1/2+x,1/2-y,1/2+z
loop_
_atom_site_type_symbol
_atom_site_label
_atom_site_fract_x
_atom_site_fract_y
_atom_site_fract_z
Si Si1 0.924360 0.975227 0.802115
Si Si2 0.626782 0.109711 0.898690
Si Si3 0.595913 0.748625 0.231617
Si Si4 0.387263 0.021201 0.813029
Si Si5 0.244584 0.453982 0.023925
Si Si6 0.790068 0.180525 0.919262
Si Si7 0.992394 0.177044 0.564032
Si Si8 0.792826 0.894197 0.825384
O O1 0.845165 0.938571 0.799268
O O2 0.000000 0.952293 0.750000
O O3 0.854332 0.014827 0.653109
O O4 0.000000 0.000000 0.000000
O O5 0.500000 0.128749 0.750000
O O6 0.614744 0.059473 0.818185
O O7 0.722507 0.136631 0.903705
O O8 0.675850 0.113426 0.116854
O O9 0.500000 0.767491 0.250000
O O10 0.691736 0.783742 0.278014
O O11 0.649907 0.707530 0.383392
O O12 0.539915 0.726184 0.031085
O O13 0.330061 0.979036 0.675484
O O14 0.318039 0.043333 0.880451
O O15 0.500000 0.000000 0.000000
O O16 0.271940 0.406169 0.978601
O O17 0.887231 0.167878 0.897454
O O18 0.000000 0.175488 0.750000
O O19 0.890630 0.143331 0.414320
#
# Coordination Sequence:
#
# PCOD9291801 Si02
#       8
#     8   8   8   8   8   8   8   8
#     4  12  24  38  58  86 118 167 217 264 326 387
#     4  12  25  43  67  97 128 177 228 286 340 398
#     4   9  19  43  74 105 136 173 220 273 327 408
#     4  12  24  42  66  88 125 172 229 284 337 395
#     4  12  23  42  59  88 124 173 217 276 335 389
#     4  10  22  42  72 104 133 176 224 270 334 404
#     4  11  26  42  69 105 143 179 212 275 340 404
#     4  12  26  42  63  96 136 169 226 281 334 402
#
# _framework density 20.511104
#
# number of rings (size 3 to 8) (size 9 to 14) (size 15 to 20)
#    0.000    0.750    5.000    2.250    5.250    0.500 
#    0.000    0.000    0.000    0.000    0.000    0.000 
#    0.000    0.000    0.000    0.000    0.000    0.000 
#
# Total GULP energy -178647.334160 kJ/mol
# GULP energy per Si atom -5582.729192 kJ/mol
# Density = 2.046442 g / cm^3
# Si number density = 20.511104 Si / 1000 Ang^3
#
#
#
# Elastic Constant Matrix: (Units=GPa)
#
#
# Indices 1 2 3 4 5 6 
#
# 1 74.8816 4.3448 5.4304 0.0000 -2.7702 0.0000
# 2 4.3448 52.4177 6.9227 0.0000 2.4369 0.0000
# 3 5.4304 6.9227 103.8675 0.0000 11.4432 0.0000
# 4 0.0000 0.0000 0.0000 14.3906 0.0000 9.4894
# 5 -2.7702 2.4369 11.4432 0.0000 33.0166 0.0000
# 6 0.0000 0.0000 0.0000 9.4894 0.0000 25.9554
#
#
#
# Elastic Compliance Matrix: (Units=1/GPa)
#
#
# Indices 1 2 3 4 5 6 
#
# 1 0.013531 -0.001085 -0.000799 0.000000 0.001492 0.000000
# 2 -0.001085 0.019367 -0.001109 0.000000 -0.001136 0.000000
# 3 -0.000799 -0.001109 0.010128 0.000000 -0.003496 0.000000
# 4 0.000000 0.000000 0.000000 0.091565 0.000000 -0.033477
# 5 0.001492 -0.001136 -0.003496 0.000000 0.031708 0.000000
# 6 0.000000 0.000000 0.000000 -0.033477 0.000000 0.050767
#
#
# Mechanical properties :
#
#
# Convention : Reuss Voigt Hill
#
# Bulk Modulus (GPa) = 26.99897 29.39584 28.19740
# Shear Modulus (GPa) = 21.24046 28.97043 25.10545
#
# Velocity S-wave (km/s) = 3.22150 3.76230 3.50236
# Velocity P-wave (km/s) = 5.19895 5.76507 5.48931
#
# Compressibility (1/GPa) = 0.03703845
#
# Stress axis : x y z
#
# Youngs Moduli (GPa) = 73.90667 51.63487 98.73154
#
# Poissons Ratio (x) = 0.05604 0.07894
# Poissons Ratio (y) = 0.08021 0.10948
# Poissons Ratio (z) = 0.05909 0.05726
#
# Static dielectric constant tensor:
#      x y z
#    x 1.785240 0.000000 0.010720 
#    y 0.000000 1.732540 0.000000 
#    z 0.010720 0.000000 1.729050 
# 
# From -- ./inp_files/44903.got.cif
#   From: 2010.05.17/outbox.cif.g08.bks.cpg/sg15_23_cif.got.tgz:44903.got - 2010.06.03 18:47:42.
