data_PCOD9291275
_publ_section_title
;
Structure prediction by ZEFSAII (Michael W. Deem and Ramdas Pophale) SiO2 
 PCOD9291275
Probable space group: C 2/C
;
_chemical_formula_sum "Si O2"
_cell_formula_units_Z 60
_cell_length_a 9.049065
_cell_length_b 21.340241
_cell_length_c 22.811645
_cell_angle_alpha 90.000000
_cell_angle_beta 41.356337
_cell_angle_gamma 90.000000
_cell_volume 2910.651827
_symmetry_space_group_name_H-M "C 2/C"
_symmetry_group_IT_number 15
_symmetry_cell_setting 'monoclinic'
loop_
_space_group_symop_operation_xyz
x,y,z
-x,y,1/2-z
-x,-y,-z
x,-y,1/2+z
1/2+x,1/2+y,z
1/2-x,1/2+y,1/2-z
1/2-x,1/2-y,-z
1/2+x,1/2-y,1/2+z
loop_
_atom_site_type_symbol
_atom_site_label
_atom_site_fract_x
_atom_site_fract_y
_atom_site_fract_z
Si Si1 0.634327 0.798077 0.579262
Si Si2 0.000000 0.537011 0.750000
Si Si3 0.719120 0.098505 0.977745
Si Si4 0.297461 0.125164 0.022985
Si Si5 0.508915 0.847446 0.160061
Si Si6 0.984582 0.015102 0.074350
Si Si7 0.812418 0.225417 0.353060
Si Si8 0.987529 0.190546 0.688629
O O1 0.750000 0.750000 0.500000
O O2 0.717576 0.868063 0.542939
O O3 0.395879 0.798852 0.620619
O O4 0.602366 0.759185 0.648222
O O5 0.997912 0.585733 0.695649
O O6 0.230440 0.497705 0.673135
O O7 0.877292 0.144223 0.892975
O O8 0.478755 0.096198 0.015833
O O9 0.846310 0.033909 0.945467
O O10 0.188028 0.185347 0.087300
O O11 0.098097 0.080806 0.058885
O O12 0.442878 0.143962 0.922745
O O13 0.694558 0.799246 0.129332
O O14 0.277229 0.811746 0.243927
O O15 0.000000 0.000000 0.000000
O O16 0.000000 0.212552 0.250000
O O17 0.000000 0.165931 0.750000
#
# Coordination Sequence:
#
# PCOD9291275 Si02
#       8
#     8   4   8   8   8   8   8   8
#     4   9  20  36  59  92 128 163 205 261 328 384
#     4  12  24  44  72 100 132 180 228 280 346 404
#     4  10  22  42  66  91 128 175 222 271 325 392
#     4  11  25  44  67  99 132 176 227 276 334 401
#     4  12  21  40  71  97 131 174 221 274 336 406
#     4  12  26  47  68  94 134 175 231 281 333 404
#     4  11  22  41  65  96 135 171 210 271 341 400
#     4  11  19  35  62 101 130 163 215 269 323 403
#
# _framework density 20.613938999999998
#
# number of rings (size 3 to 8) (size 9 to 14) (size 15 to 20)
#    0.000    1.067    6.000    0.800    1.867    0.000 
#    7.200    0.667    0.000    0.000    0.000    0.000 
#    0.000    0.000    0.000    0.000    0.000    0.000 
#
# Total GULP energy -167092.355446 kJ/mol
# GULP energy per Si atom -5569.745182 kJ/mol
# Density = 2.056702 g / cm^3
# Si number density = 20.613939 Si / 1000 Ang^3
#
#
#
# Elastic Constant Matrix: (Units=GPa)
#
#
# Indices 1 2 3 4 5 6 
#
# 1 45.2414 11.0798 33.3228 -0.0010 5.7257 0.0034
# 2 11.0798 50.9831 41.7277 -0.0008 -2.9531 0.0018
# 3 33.3228 41.7277 111.6830 -0.0011 -0.3739 0.0011
# 4 -0.0010 -0.0008 -0.0011 22.8409 0.0004 4.7927
# 5 5.7257 -2.9531 -0.3739 0.0004 28.6381 -0.0016
# 6 0.0034 0.0018 0.0011 4.7927 -0.0016 21.4804
#
#
#
# Elastic Compliance Matrix: (Units=1/GPa)
#
#
# Indices 1 2 3 4 5 6 
#
# 1 0.029333 0.000666 -0.009021 0.000002 -0.005914 -0.000005
# 2 0.000666 0.028492 -0.010835 0.000001 0.002664 -0.000002
# 3 -0.009021 -0.010835 0.015697 0.000000 0.000891 0.000002
# 4 0.000002 0.000001 0.000000 0.045931 -0.000001 -0.010248
# 5 -0.005914 0.002664 0.000891 -0.000001 0.036387 0.000004
# 6 -0.000005 -0.000002 0.000002 -0.010248 0.000004 0.048841
#
#
# Mechanical properties :
#
#
# Convention : Reuss Voigt Hill
#
# Bulk Modulus (GPa) = 28.45600 42.24089 35.34845
# Shear Modulus (GPa) = 19.62513 22.71036 21.16774
#
# Velocity S-wave (km/s) = 3.08885 3.32279 3.20795
# Velocity P-wave (km/s) = 5.15321 5.93777 5.55935
#
# Compressibility (1/GPa) = 0.03514197
#
# Stress axis : x y z
#
# Youngs Moduli (GPa) = 34.09092 35.09748 63.70762
#
# Poissons Ratio (x) = -0.02337 0.57469
# Poissons Ratio (y) = -0.02270 0.69028
# Poissons Ratio (z) = 0.30753 0.38029
#
# Static dielectric constant tensor:
#      x y z
#    x 1.815230 0.000000 -0.012440 
#    y 0.000000 1.773990 0.000000 
#    z -0.012440 0.000000 1.746990 
# 
# From -- ./inp_files/266209.got.cif
#   From: 2010.05.17/outbox.cif.g08.bks.cpg/sg15_134_cif.got.tgz:266209.got - 2010.06.03 18:47:42.
