data_PCOD9291829
_publ_section_title
;
Structure prediction by ZEFSAII (Michael W. Deem and Ramdas Pophale) SiO2 
 PCOD9291829
Probable space group: C 2/C
;
_chemical_formula_sum "Si O2"
_cell_formula_units_Z 48
_cell_length_a 12.004157
_cell_length_b 8.774686
_cell_length_c 26.366405
_cell_angle_alpha 90.000000
_cell_angle_beta 55.952018
_cell_angle_gamma 90.000000
_cell_volume 2301.138957
_symmetry_space_group_name_H-M "C 2/C"
_symmetry_group_IT_number 15
_symmetry_cell_setting 'monoclinic'
loop_
_space_group_symop_operation_xyz
x,y,z
-x,y,1/2-z
-x,-y,-z
x,-y,1/2+z
1/2+x,1/2+y,z
1/2-x,1/2+y,1/2-z
1/2-x,1/2-y,-z
1/2+x,1/2-y,1/2+z
loop_
_atom_site_type_symbol
_atom_site_label
_atom_site_fract_x
_atom_site_fract_y
_atom_site_fract_z
Si Si1 0.390886 0.415863 0.378823
Si Si2 0.339224 0.114347 0.343182
Si Si3 0.455830 0.436465 0.565678
Si Si4 0.084522 0.428954 0.433447
Si Si5 0.146763 0.834324 0.259559
Si Si6 0.095976 0.537400 0.321273
O O1 0.358309 0.233213 0.385719
O O2 0.447896 0.494172 0.415091
O O3 0.242305 0.471625 0.401576
O O4 0.511003 0.429863 0.306337
O O5 0.199808 0.026478 0.381135
O O6 0.346358 0.225748 0.292329
O O7 0.471754 0.014529 0.314839
O O8 0.500000 0.500000 0.500000
O O9 0.445953 0.251991 0.564067
O O10 0.046855 0.497905 0.389294
O O11 0.000000 0.500000 0.500000
O O12 0.145203 0.710854 0.304644
O O13 0.277423 0.935280 0.224956
#
# Coordination Sequence:
#
# PCOD9291829 Si02
#       6
#     8   8   8   8   8   8
#     4  10  22  42  72  93 134 182 223 286 345 404
#     4  10  23  45  70 101 142 178 224 285 352 410
#     4  11  25  44  70 100 133 186 241 275 345 417
#     4  11  27  46  64 100 142 184 231 286 348 403
#     4  11  22  44  73 102 136 180 233 281 355 417
#     4  11  23  42  74  99 138 180 227 288 346 412
#
# _framework density 20.859234000000001
#
# number of rings (size 3 to 8) (size 9 to 14) (size 15 to 20)
#    0.000    1.333    3.333    3.000    7.000    2.000 
#    0.000    1.667    7.333    0.000    0.000    0.000 
#    0.000    0.000    0.000    0.000    0.000    0.000 
#
# Total GULP energy -133769.202793 kJ/mol
# GULP energy per Si atom -5573.716783 kJ/mol
# Density = 2.081176 g / cm^3
# Si number density = 20.859234 Si / 1000 Ang^3
#
#
#
# Elastic Constant Matrix: (Units=GPa)
#
#
# Indices 1 2 3 4 5 6 
#
# 1 140.2106 46.1923 46.7626 0.0000 -2.0280 0.0000
# 2 46.1923 55.1243 44.5895 0.0000 8.9616 0.0000
# 3 46.7626 44.5895 125.2895 0.0000 4.3405 0.0000
# 4 0.0000 0.0000 0.0000 44.5866 0.0000 -1.8876
# 5 -2.0280 8.9616 4.3405 0.0000 35.7278 0.0000
# 6 0.0000 0.0000 0.0000 -1.8876 0.0000 41.7165
#
#
#
# Elastic Compliance Matrix: (Units=1/GPa)
#
#
# Indices 1 2 3 4 5 6 
#
# 1 0.010202 -0.008200 -0.000985 0.000000 0.002756 0.000000
# 2 -0.008200 0.033110 -0.008455 0.000000 -0.007743 0.000000
# 3 -0.000985 -0.008455 0.011334 0.000000 0.000688 0.000000
# 4 0.000000 0.000000 0.000000 0.022471 0.000000 0.001017
# 5 0.002756 -0.007743 0.000688 0.000000 0.030005 0.000000
# 6 0.000000 0.000000 0.000000 0.001017 0.000000 0.024017
#
#
# Mechanical properties :
#
#
# Convention : Reuss Voigt Hill
#
# Bulk Modulus (GPa) = 51.63493 66.19034 58.91264
# Shear Modulus (GPa) = 28.92263 36.61153 32.76708
#
# Velocity S-wave (km/s) = 3.72770 4.19402 3.96772
# Velocity P-wave (km/s) = 6.58296 7.43330 7.02101
#
# Compressibility (1/GPa) = 0.01936673
#
# Stress axis : x y z
#
# Youngs Moduli (GPa) = 98.01979 30.20211 88.22833
#
# Poissons Ratio (x) = 0.24767 0.08689
# Poissons Ratio (y) = 0.80380 0.74595
# Poissons Ratio (z) = 0.09653 0.25535
#
# Static dielectric constant tensor:
#      x y z
#    x 1.822070 0.000000 -0.013490 
#    y 0.000000 1.685560 0.000000 
#    z -0.013490 0.000000 1.783590 
# 
# From -- ./inp_files/291036.got.cif
#   From: 2010.05.17/outbox.cif.g08.bks.cpg/sg15_146_cif.got.tgz:291036.got - 2010.06.03 18:47:42.
