data_PCOD9291228
_publ_section_title
;
Structure prediction by ZEFSAII (Michael W. Deem and Ramdas Pophale) SiO2 
 PCOD9291228
Probable space group: C 2/C
;
_chemical_formula_sum "Si O2"
_cell_formula_units_Z 56
_cell_length_a 14.012021
_cell_length_b 25.400517
_cell_length_c 12.861265
_cell_angle_alpha 90.000000
_cell_angle_beta 31.988712
_cell_angle_gamma 90.000000
_cell_volume 2424.933165
_symmetry_space_group_name_H-M "C 2/C"
_symmetry_group_IT_number 15
_symmetry_cell_setting 'monoclinic'
loop_
_space_group_symop_operation_xyz
x,y,z
-x,y,1/2-z
-x,-y,-z
x,-y,1/2+z
1/2+x,1/2+y,z
1/2-x,1/2+y,1/2-z
1/2-x,1/2-y,-z
1/2+x,1/2-y,1/2+z
loop_
_atom_site_type_symbol
_atom_site_label
_atom_site_fract_x
_atom_site_fract_y
_atom_site_fract_z
Si Si1 0.932584 0.432114 0.995517
Si Si2 0.328776 0.981181 0.301667
Si Si3 0.486574 0.535908 0.642111
Si Si4 0.500000 0.801034 0.750000
Si Si5 0.359002 0.647479 0.974515
Si Si6 0.556527 0.172355 0.906229
Si Si7 0.500000 0.894646 0.250000
Si Si8 0.567693 0.271993 0.389818
O O1 0.942833 0.453895 0.104218
O O2 0.722631 0.446161 0.170271
O O3 0.982868 0.371174 0.967635
O O4 0.062885 0.463573 0.797693
O O5 0.340988 0.939013 0.383974
O O6 0.120404 0.992366 0.465998
O O7 0.500000 0.519514 0.750000
O O8 0.598694 0.589683 0.523538
O O9 0.673489 0.838163 0.590929
O O10 0.457579 0.761795 0.693184
O O11 0.500000 0.654770 0.750000
O O12 0.403775 0.687258 0.027075
O O13 0.524732 0.143412 0.826162
O O14 0.757776 0.192773 0.749075
O O15 0.446281 0.226399 0.012415
#
# Coordination Sequence:
#
# PCOD9291228 Si02
#       8
#     8   8   8   4   8   8   4   8
#     4  10  22  42  65  99 129 171 227 290 347 411
#     4  10  22  42  70  91 129 176 229 290 350 392
#     4  11  23  35  63  98 134 171 214 264 347 433
#     4  12  24  37  62  92 138 166 209 266 346 414
#     4  11  23  37  57  98 139 168 202 260 341 419
#     4  11  25  42  72  95 140 183 236 282 346 406
#     4  10  24  49  66  94 136 188 237 300 328 392
#     4  12  22  41  65  98 135 182 217 283 344 418
#
# _framework density 23.093420999999999
#
# number of rings (size 3 to 8) (size 9 to 14) (size 15 to 20)
#    0.000    1.143    3.571    2.571    4.000    1.143 
#    0.000    0.000    6.286    0.000    0.000    0.000 
#    0.000    0.000    0.000    0.000    0.000    0.000 
#
# Total GULP energy -155929.542915 kJ/mol
# GULP energy per Si atom -5568.912247 kJ/mol
# Density = 2.304086 g / cm^3
# Si number density = 23.093421 Si / 1000 Ang^3
#
#
#
# Elastic Constant Matrix: (Units=GPa)
#
#
# Indices 1 2 3 4 5 6 
#
# 1 103.1534 31.1064 26.6045 0.0011 -18.4646 -0.0004
# 2 31.1064 106.9715 26.7926 0.0013 -11.7517 -0.0001
# 3 26.6045 26.7926 68.6697 0.0021 -28.0378 -0.0008
# 4 0.0011 0.0013 0.0021 21.9507 -0.0004 11.5264
# 5 -18.4646 -11.7517 -28.0378 -0.0004 32.1855 0.0006
# 6 -0.0004 -0.0001 -0.0008 11.5264 0.0006 74.9555
#
#
#
# Elastic Compliance Matrix: (Units=1/GPa)
#
#
# Indices 1 2 3 4 5 6 
#
# 1 0.011664 -0.002470 -0.001849 0.000000 0.004179 0.000000
# 2 -0.002470 0.010887 -0.003486 0.000000 -0.000479 0.000000
# 3 -0.001849 -0.003486 0.024346 -0.000002 0.018874 0.000000
# 4 0.000000 0.000000 -0.000002 0.049558 -0.000001 -0.007621
# 5 0.004179 -0.000479 0.018874 -0.000001 0.049735 0.000000
# 6 0.000000 0.000000 0.000000 -0.007621 0.000000 0.014513
#
#
# Mechanical properties :
#
#
# Convention : Reuss Voigt Hill
#
# Bulk Modulus (GPa) = 31.96287 49.75573 40.85930
# Shear Modulus (GPa) = 26.77494 38.77109 32.77302
#
# Velocity S-wave (km/s) = 3.40872 4.10186 3.77125
# Velocity P-wave (km/s) = 5.41878 6.63520 6.05760
#
# Compressibility (1/GPa) = 0.03128630
#
# Stress axis : x y z
#
# Youngs Moduli (GPa) = 85.73415 91.85233 41.07521
#
# Poissons Ratio (x) = 0.22683 0.07595
# Poissons Ratio (y) = 0.21172 0.14321
# Poissons Ratio (z) = 0.15853 0.32024
#
# Static dielectric constant tensor:
#      x y z
#    x 1.974540 0.000000 0.034410 
#    y 0.000000 1.972840 0.000000 
#    z 0.034410 0.000000 1.930330 
# 
# From -- ./inp_files/157224.got.cif
#   From: 2010.05.17/outbox.cif.g08.bks.cpg/sg15_79_cif.got.tgz:157224.got - 2010.06.03 18:47:42.
