data_PCOD9291563
_publ_section_title
;
Structure prediction by ZEFSAII (Michael W. Deem and Ramdas Pophale) SiO2 
 PCOD9291563
Probable space group: C 2/C
;
_chemical_formula_sum "Si O2"
_cell_formula_units_Z 44
_cell_length_a 7.901141
_cell_length_b 22.174914
_cell_length_c 12.448387
_cell_angle_alpha 90.000000
_cell_angle_beta 122.397535
_cell_angle_gamma 90.000000
_cell_volume 1841.568374
_symmetry_space_group_name_H-M "C 2/C"
_symmetry_group_IT_number 15
_symmetry_cell_setting 'monoclinic'
loop_
_space_group_symop_operation_xyz
x,y,z
-x,y,1/2-z
-x,-y,-z
x,-y,1/2+z
1/2+x,1/2+y,z
1/2-x,1/2+y,1/2-z
1/2-x,1/2-y,-z
1/2+x,1/2-y,1/2+z
loop_
_atom_site_type_symbol
_atom_site_label
_atom_site_fract_x
_atom_site_fract_y
_atom_site_fract_z
Si Si1 0.000000 0.043164 0.250000
Si Si2 0.260990 0.118729 0.181285
Si Si3 0.042404 0.572421 0.889606
Si Si4 0.220857 0.755404 0.364176
Si Si5 0.268496 0.454685 0.031966
Si Si6 0.399382 0.800849 0.097621
O O1 0.171105 0.084872 0.254369
O O2 0.056764 0.996365 0.362669
O O3 0.500000 0.109429 0.250000
O O4 0.232703 0.190688 0.174971
O O5 0.173119 0.092648 0.039568
O O6 0.183611 0.631647 0.952981
O O7 0.000000 0.578596 0.750000
O O8 0.857055 0.571967 0.910400
O O9 0.131309 0.506260 0.932864
O O10 0.250000 0.750000 0.500000
O O11 0.394493 0.800858 0.396119
O O12 0.000000 0.773582 0.250000
O O13 0.500000 0.790036 0.250000
O O14 0.250000 0.750000 0.000000
#
# Coordination Sequence:
#
# PCOD9291563 Si02
#       6
#     4   8   8   8   8   8
#     4  12  26  40  68 108 136 184 238 284 362 444
#     4  11  25  45  71  99 142 185 234 298 356 430
#     4  10  22  42  68  97 137 182 227 292 359 420
#     4  11  25  47  71 102 143 189 240 294 368 429
#     4  11  22  42  66  99 141 176 232 288 359 421
#     4  11  25  44  70 104 138 183 239 295 350 429
#
# _framework density 23.892679000000001
#
# number of rings (size 3 to 8) (size 9 to 14) (size 15 to 20)
#    0.000    1.091    0.000    6.545    3.818    2.909 
#    9.818    0.000    0.000    0.000    0.000    0.000 
#    0.000    0.000    0.000    0.000    0.000    0.000 
#
# Total GULP energy -122825.375790 kJ/mol
# GULP energy per Si atom -5582.971627 kJ/mol
# Density = 2.383830 g / cm^3
# Si number density = 23.892679 Si / 1000 Ang^3
#
#
#
# Elastic Constant Matrix: (Units=GPa)
#
#
# Indices 1 2 3 4 5 6 
#
# 1 59.7262 18.6012 12.7497 0.0000 1.1999 0.0000
# 2 18.6012 133.4155 6.3095 0.0000 11.6781 0.0000
# 3 12.7497 6.3095 85.3263 0.0000 -8.1143 0.0000
# 4 0.0000 0.0000 0.0000 5.6993 0.0000 4.5987
# 5 1.1999 11.6781 -8.1143 0.0000 33.5851 0.0000
# 6 0.0000 0.0000 0.0000 4.5987 0.0000 27.1617
#
#
#
# Elastic Compliance Matrix: (Units=1/GPa)
#
#
# Indices 1 2 3 4 5 6 
#
# 1 0.018032 -0.002354 -0.002563 0.000000 -0.000445 0.000000
# 2 -0.002354 0.008098 -0.000519 0.000000 -0.002857 0.000000
# 3 -0.002563 -0.000519 0.012453 0.000000 0.003281 0.000000
# 4 0.000000 0.000000 0.000000 0.203224 0.000000 -0.034407
# 5 -0.000445 -0.002857 0.003281 0.000000 0.031577 0.000000
# 6 0.000000 0.000000 0.000000 -0.034407 0.000000 0.042642
#
#
# Mechanical properties :
#
#
# Convention : Reuss Voigt Hill
#
# Bulk Modulus (GPa) = 36.08479 39.30987 37.69733
# Shear Modulus (GPa) = 14.87497 29.34305 22.10901
#
# Velocity S-wave (km/s) = 2.49785 3.50825 3.04525
# Velocity P-wave (km/s) = 4.84300 5.73575 5.30818
#
# Compressibility (1/GPa) = 0.02771251
#
# Stress axis : x y z
#
# Youngs Moduli (GPa) = 55.45643 123.48415 80.30204
#
# Poissons Ratio (x) = 0.29068 0.20579
# Poissons Ratio (y) = 0.13054 0.04166
# Poissons Ratio (z) = 0.14212 0.06406
#
# Static dielectric constant tensor:
#      x y z
#    x 1.891890 0.000000 0.100120 
#    y 0.000000 1.973510 0.000000 
#    z 0.100120 0.000000 2.001090 
# 
# From -- ./inp_files/79969.got.cif
#   From: 2010.05.17/outbox.cif.g08.bks.cpg/sg15_40_cif.got.tgz:79969.got - 2010.06.03 18:47:42.
