data_PCOD9291755
_publ_section_title
;
Structure prediction by ZEFSAII (Michael W. Deem and Ramdas Pophale) SiO2 
 PCOD9291755
Probable space group: C 2/C
;
_chemical_formula_sum "Si O2"
_cell_formula_units_Z 44
_cell_length_a 7.543780
_cell_length_b 17.280096
_cell_length_c 14.556619
_cell_angle_alpha 90.000000
_cell_angle_beta 86.706421
_cell_angle_gamma 90.000000
_cell_volume 1894.426440
_symmetry_space_group_name_H-M "C 2/C"
_symmetry_group_IT_number 15
_symmetry_cell_setting 'monoclinic'
loop_
_space_group_symop_operation_xyz
x,y,z
-x,y,1/2-z
-x,-y,-z
x,-y,1/2+z
1/2+x,1/2+y,z
1/2-x,1/2+y,1/2-z
1/2-x,1/2-y,-z
1/2+x,1/2-y,1/2+z
loop_
_atom_site_type_symbol
_atom_site_label
_atom_site_fract_x
_atom_site_fract_y
_atom_site_fract_z
Si Si1 0.935381 0.359318 0.348023
Si Si2 0.581831 0.576823 0.449572
Si Si3 0.500000 0.464440 0.750000
Si Si4 0.533522 0.862517 0.545998
Si Si5 0.606700 0.289456 0.435287
Si Si6 0.384697 0.023636 0.174782
O O1 0.027250 0.335135 0.440366
O O2 0.993575 0.449045 0.346690
O O3 0.000000 0.325174 0.250000
O O4 0.728661 0.339184 0.363153
O O5 0.500000 0.500000 0.500000
O O6 0.538346 0.580214 0.343008
O O7 0.793133 0.585601 0.448987
O O8 0.508329 0.650259 0.505406
O O9 0.309078 0.502472 0.782918
O O10 0.508734 0.781570 0.600020
O O11 0.377604 0.919848 0.586929
O O12 0.750000 0.250000 0.500000
O O13 0.500000 0.067289 0.250000
#
# Coordination Sequence:
#
# PCOD9291755 Si02
#       6
#     8   8   4   8   8   8
#     4  10  22  42  70  99 142 186 236 296 364 428
#     4  12  25  44  75 104 144 192 248 303 355 435
#     4  12  24  42  72 110 144 188 246 294 372 424
#     4  11  22  45  66 106 145 187 241 297 366 432
#     4  10  23  45  69 100 144 191 229 297 373 429
#     4  11  22  42  70 105 140 188 246 295 357 435
#
# _framework density 23.226027999999999
#
# number of rings (size 3 to 8) (size 9 to 14) (size 15 to 20)
#    0.000    1.091    1.818    5.455    2.545    0.000 
#   14.727    0.000    0.000    0.000    0.000    0.000 
#    0.000    0.000    0.000    0.000    0.000    0.000 
#
# Total GULP energy -122665.923558 kJ/mol
# GULP energy per Si atom -5575.723798 kJ/mol
# Density = 2.317316 g / cm^3
# Si number density = 23.226028 Si / 1000 Ang^3
#
#
#
# Elastic Constant Matrix: (Units=GPa)
#
#
# Indices 1 2 3 4 5 6 
#
# 1 112.1448 49.7358 43.1972 0.0000 -27.7093 0.0000
# 2 49.7358 125.4227 18.0336 0.0000 -37.1879 0.0000
# 3 43.1972 18.0336 109.3458 0.0000 -25.0841 0.0000
# 4 0.0000 0.0000 0.0000 4.6843 0.0000 14.8559
# 5 -27.7093 -37.1879 -25.0841 0.0000 45.2310 0.0000
# 6 0.0000 0.0000 0.0000 14.8559 0.0000 -1.6455
#
#
#
# Elastic Compliance Matrix: (Units=1/GPa)
#
#
# Indices 1 2 3 4 5 6 
#
# 1 0.012666 -0.003703 -0.003794 0.000000 0.002611 0.000000
# 2 -0.003703 0.011634 0.001396 0.000000 0.008070 0.000000
# 3 -0.003794 0.001396 0.011623 0.000000 0.005269 0.000000
# 4 0.000000 0.000000 0.000000 0.007204 0.000000 0.065042
# 5 0.002611 0.008070 0.005269 0.000000 0.033265 0.000000
# 6 0.000000 0.000000 0.000000 0.065042 0.000000 -0.020509
#
#
# Mechanical properties :
#
#
# Convention : Reuss Voigt Hill
#
# Bulk Modulus (GPa) = 42.15992 63.20516 52.68254
# Shear Modulus (GPa) = 65.79607 25.38373 45.58990
#
# Velocity S-wave (km/s) = 5.32824 3.30949 4.43525
# Velocity P-wave (km/s) = 7.48631 6.47115 6.99717
#
# Compressibility (1/GPa) = 0.02371921
#
# Stress axis : x y z
#
# Youngs Moduli (GPa) = 78.95283 85.95753 86.03899
#
# Poissons Ratio (x) = 0.31830 0.32643
# Poissons Ratio (y) = 0.29236 -0.12007
# Poissons Ratio (z) = 0.29955 -0.11996
#
# Static dielectric constant tensor:
#      x y z
#    x 1.958030 0.000000 0.025150 
#    y 0.000000 1.925640 0.000000 
#    z 0.025150 0.000000 2.061200 
# 
# From -- ./inp_files/134366.got.cif
#   From: 2010.05.17/outbox.cif.g08.bks.cpg/sg15_68_cif.got.tgz:134366.got - 2010.06.03 18:47:42.
