data_PCOD9291418
_publ_section_title
;
Structure prediction by ZEFSAII (Michael W. Deem and Ramdas Pophale) SiO2 
 PCOD9291418
Probable space group: C 2/C
;
_chemical_formula_sum "Si O2"
_cell_formula_units_Z 64
_cell_length_a 13.856231
_cell_length_b 17.733267
_cell_length_c 23.319803
_cell_angle_alpha 90.000000
_cell_angle_beta 34.077077
_cell_angle_gamma 90.000000
_cell_volume 3210.593361
_symmetry_space_group_name_H-M "C 2/C"
_symmetry_group_IT_number 15
_symmetry_cell_setting 'monoclinic'
loop_
_space_group_symop_operation_xyz
x,y,z
-x,y,1/2-z
-x,-y,-z
x,-y,1/2+z
1/2+x,1/2+y,z
1/2-x,1/2+y,1/2-z
1/2-x,1/2-y,-z
1/2+x,1/2-y,1/2+z
loop_
_atom_site_type_symbol
_atom_site_label
_atom_site_fract_x
_atom_site_fract_y
_atom_site_fract_z
Si Si1 0.506787 0.089861 0.128531
Si Si2 0.314754 0.316327 0.511502
Si Si3 0.510765 0.910143 0.125269
Si Si4 0.677671 0.311196 0.490283
Si Si5 0.196146 0.203205 0.167335
Si Si6 0.947878 0.413090 0.526755
Si Si7 0.778528 0.191404 0.166275
Si Si8 0.296551 0.694137 0.712964
O O1 0.693206 0.112961 0.059016
O O2 0.510379 0.114040 0.058860
O O3 0.362223 0.132022 0.238684
O O4 0.487022 0.999685 0.140918
O O5 0.250000 0.250000 0.500000
O O6 0.292146 0.303717 0.590584
O O7 0.513767 0.329127 0.398194
O O8 0.689876 0.880520 0.064936
O O9 0.347738 0.866700 0.231493
O O10 0.503402 0.886937 0.061249
O O11 0.750000 0.250000 0.500000
O O12 0.703129 0.265660 0.419012
O O13 0.473556 0.326867 0.593268
O O14 0.253252 0.118243 0.125890
O O15 0.239321 0.229248 0.209267
O O16 0.000000 0.212796 0.250000
O O17 0.000000 0.500000 0.500000
O O18 0.714394 0.274601 0.217314
#
# Coordination Sequence:
#
# PCOD9291418 Si02
#       8
#     8   8   8   8   8   8   8   8
#     4  11  26  47  66  97 141 182 223 275 344 405
#     4  12  26  45  68  98 135 182 232 275 331 407
#     4  11  25  45  68 103 138 175 222 281 347 404
#     4  12  22  38  69 102 132 169 222 284 339 398
#     4  12  20  38  66 103 133 169 230 278 336 402
#     4  10  22  42  67  94 138 176 218 288 336 394
#     4  12  24  44  69 101 133 180 224 286 337 401
#     4  12  24  41  70  98 134 173 231 280 333 396
#
# _framework density 19.934009
#
# number of rings (size 3 to 8) (size 9 to 14) (size 15 to 20)
#    0.000    0.500    7.500    0.375    1.750    1.000 
#    4.500    5.000    0.000    0.000    0.000    0.000 
#    0.000    0.000    0.000    0.000    0.000    0.000 
#
# Total GULP energy -178227.450238 kJ/mol
# GULP energy per Si atom -5569.607820 kJ/mol
# Density = 1.988864 g / cm^3
# Si number density = 19.934009 Si / 1000 Ang^3
#
#
#
# Elastic Constant Matrix: (Units=GPa)
#
#
# Indices 1 2 3 4 5 6 
#
# 1 93.9449 22.8580 59.5184 0.0005 -0.7797 -0.0002
# 2 22.8580 92.0601 47.6986 -0.0016 -13.8945 0.0002
# 3 59.5184 47.6986 142.5363 -0.0011 -24.7379 0.0006
# 4 0.0005 -0.0016 -0.0011 28.0238 -0.0001 -0.5111
# 5 -0.7797 -13.8945 -24.7379 -0.0001 41.2394 0.0001
# 6 -0.0002 0.0002 0.0006 -0.5111 0.0001 30.1533
#
#
#
# Elastic Compliance Matrix: (Units=1/GPa)
#
#
# Indices 1 2 3 4 5 6 
#
# 1 0.015068 -0.000880 -0.006697 -0.000001 -0.004029 0.000000
# 2 -0.000880 0.013341 -0.003706 0.000001 0.002255 0.000000
# 3 -0.006697 -0.003706 0.012070 0.000000 0.005865 0.000000
# 4 -0.000001 0.000001 0.000000 0.035695 0.000001 0.000605
# 5 -0.004029 0.002255 0.005865 0.000001 0.028451 0.000000
# 6 0.000000 0.000000 0.000000 0.000605 0.000000 0.033174
#
#
# Mechanical properties :
#
#
# Convention : Reuss Voigt Hill
#
# Bulk Modulus (GPa) = 55.81881 65.41015 60.61448
# Shear Modulus (GPa) = 30.05985 33.11437 31.58711
#
# Velocity S-wave (km/s) = 3.88747 4.08020 3.98500
# Velocity P-wave (km/s) = 6.94352 7.42172 7.18660
#
# Compressibility (1/GPa) = 0.01791511
#
# Stress axis : x y z
#
# Youngs Moduli (GPa) = 66.36699 74.95485 82.84935
#
# Poissons Ratio (x) = 0.06593 0.55481
# Poissons Ratio (y) = 0.05838 0.30703
# Poissons Ratio (z) = 0.44443 0.27777
#
# Static dielectric constant tensor:
#      x y z
#    x 1.847540 0.000000 0.184780 
#    y 0.000000 1.701640 0.000010 
#    z 0.184780 0.000010 2.375090 
# 
# From -- ./inp_files/274823.got.cif
#   From: 2010.05.17/outbox.cif.g08.bks.cpg/sg15_138_cif.got.tgz:274823.got - 2010.06.03 18:47:42.
