data_PCOD9291883
_publ_section_title
;
Structure prediction by ZEFSAII (Michael W. Deem and Ramdas Pophale) SiO2 
 PCOD9291883
Probable space group: C 2/C
;
_chemical_formula_sum "Si O2"
_cell_formula_units_Z 32
_cell_length_a 10.944422
_cell_length_b 14.492666
_cell_length_c 9.652264
_cell_angle_alpha 90.000000
_cell_angle_beta 68.567297
_cell_angle_gamma 90.000000
_cell_volume 1425.111342
_symmetry_space_group_name_H-M "C 2/C"
_symmetry_group_IT_number 15
_symmetry_cell_setting 'monoclinic'
loop_
_space_group_symop_operation_xyz
x,y,z
-x,y,1/2-z
-x,-y,-z
x,-y,1/2+z
1/2+x,1/2+y,z
1/2-x,1/2+y,1/2-z
1/2-x,1/2-y,-z
1/2+x,1/2-y,1/2+z
loop_
_atom_site_type_symbol
_atom_site_label
_atom_site_fract_x
_atom_site_fract_y
_atom_site_fract_z
Si Si1 0.015389 0.706882 0.402464
Si Si2 0.417115 0.936607 0.139930
Si Si3 0.724006 0.596919 0.174130
Si Si4 0.981286 0.104913 0.470858
O O1 0.157599 0.668095 0.381410
O O2 0.000000 0.676434 0.250000
O O3 0.915195 0.659370 0.554355
O O4 0.016020 0.816617 0.415255
O O5 0.500000 0.928674 0.250000
O O6 0.282882 0.997049 0.199432
O O7 0.500000 0.000000 0.000000
O O8 0.655606 0.601909 0.053895
O O9 0.606921 0.373211 0.822995
O O10 0.000000 0.000000 0.500000
#
# Coordination Sequence:
#
# PCOD9291883 Si02
#       4
#     8   8   8   8
#     4  11  26  46  72 103 132 184 235 276 335 412
#     4  10  22  42  75 101 132 175 236 279 329 398
#     4  10  24  45  69  98 136 178 230 278 340 402
#     4  11  27  43  65 100 142 181 219 282 350 398
#
# _framework density 22.454384000000001
#
# number of rings (size 3 to 8) (size 9 to 14) (size 15 to 20)
#    0.000    1.500    0.000    3.750   17.500    3.000 
#    0.000    0.000    0.000    0.000    0.000    0.000 
#    0.000    0.000    0.000    0.000    0.000    0.000 
#
# Total GULP energy -89253.791749 kJ/mol
# GULP energy per Si atom -5578.361984 kJ/mol
# Density = 2.240328 g / cm^3
# Si number density = 22.454384 Si / 1000 Ang^3
#
#
#
# Elastic Constant Matrix: (Units=GPa)
#
#
# Indices 1 2 3 4 5 6 
#
# 1 91.8198 5.0231 15.3757 0.0000 1.4720 0.0000
# 2 5.0231 122.2047 19.9793 0.0000 0.7159 0.0000
# 3 15.3757 19.9793 93.7892 0.0000 23.2736 0.0000
# 4 0.0000 0.0000 0.0000 24.6872 0.0000 -21.1563
# 5 1.4720 0.7159 23.2736 0.0000 17.8672 0.0000
# 6 0.0000 0.0000 0.0000 -21.1563 0.0000 -14.5564
#
#
#
# Elastic Compliance Matrix: (Units=1/GPa)
#
#
# Indices 1 2 3 4 5 6 
#
# 1 0.011256 -0.000089 -0.002360 0.000000 0.002150 0.000000
# 2 -0.000089 0.008587 -0.002558 0.000000 0.002995 0.000000
# 3 -0.002360 -0.002558 0.017023 0.000000 -0.021877 0.000000
# 4 0.000000 0.000000 0.000000 0.018039 0.000000 -0.026218
# 5 0.002150 0.002995 -0.021877 0.000000 0.084168 0.000000
# 6 0.000000 0.000000 0.000000 -0.026218 0.000000 -0.030593
#
#
# Mechanical properties :
#
#
# Convention : Reuss Voigt Hill
#
# Bulk Modulus (GPa) = 37.24126 43.17444 40.20785
# Shear Modulus (GPa) = 39.23270 23.42862 31.33066
#
# Velocity S-wave (km/s) = 4.18451 3.23366 3.73943
# Velocity P-wave (km/s) = 6.32203 5.76293 6.04895
#
# Compressibility (1/GPa) = 0.02685194
#
# Stress axis : x y z
#
# Youngs Moduli (GPa) = 88.83761 116.45084 58.74543
#
# Poissons Ratio (x) = 0.01042 0.13863
# Poissons Ratio (y) = 0.00795 0.15026
# Poissons Ratio (z) = 0.20965 0.29787
#
# Static dielectric constant tensor:
#      x y z
#    x 1.846640 0.000000 -0.080650 
#    y 0.000000 1.917970 0.000000 
#    z -0.080650 0.000000 1.767800 
# 
# From -- ./inp_files/84747.got.cif
#   From: 2010.05.17/outbox.cif.g08.bks.cpg/sg15_43_cif.got.tgz:84747.got - 2010.06.03 18:47:42.
