data_PCOD9291129
_publ_section_title
;
Structure prediction by ZEFSAII (Michael W. Deem and Ramdas Pophale) SiO2 
 PCOD9291129
Probable space group: C 2/C
;
_chemical_formula_sum "Si O2"
_cell_formula_units_Z 52
_cell_length_a 11.884697
_cell_length_b 7.364892
_cell_length_c 30.916359
_cell_angle_alpha 90.000000
_cell_angle_beta 52.623886
_cell_angle_gamma 90.000000
_cell_volume 2150.445459
_symmetry_space_group_name_H-M "C 2/C"
_symmetry_group_IT_number 15
_symmetry_cell_setting 'monoclinic'
loop_
_space_group_symop_operation_xyz
x,y,z
-x,y,1/2-z
-x,-y,-z
x,-y,1/2+z
1/2+x,1/2+y,z
1/2-x,1/2+y,1/2-z
1/2-x,1/2-y,-z
1/2+x,1/2-y,1/2+z
loop_
_atom_site_type_symbol
_atom_site_label
_atom_site_fract_x
_atom_site_fract_y
_atom_site_fract_z
Si Si1 0.500000 0.144909 0.250000
Si Si2 0.534820 0.637131 0.066872
Si Si3 0.350958 0.137118 0.203928
Si Si4 0.790043 0.061307 0.837294
Si Si5 0.338591 0.026977 0.477559
Si Si6 0.441213 0.557183 0.183718
Si Si7 0.682947 0.282303 0.943659
O O1 0.451107 0.047182 0.217520
O O2 0.631166 0.276855 0.207060
O O3 0.679114 0.524424 0.030526
O O4 0.469108 0.630638 0.129560
O O5 0.419433 0.581582 0.058086
O O6 0.576798 0.842571 0.045162
O O7 0.408644 0.341149 0.185617
O O8 0.328497 0.033093 0.164266
O O9 0.193112 0.138596 0.260718
O O10 0.734902 0.144966 0.894710
O O11 0.917106 0.926498 0.820860
O O12 0.392369 0.169800 0.500306
O O13 0.312493 0.116809 0.436985
#
# Coordination Sequence:
#
# PCOD9291129 Si02
#       7
#     4   8   8   8   8   8   8
#     4  10  22  42  64  96 132 170 228 276 332 424
#     4  11  23  43  69 101 135 173 230 284 337 413
#     4  11  22  44  68  95 137 176 220 287 341 409
#     4  11  21  43  68  95 141 175 224 283 340 406
#     4  10  24  45  67 100 138 178 230 284 341 403
#     4  11  24  44  68 101 136 177 227 281 348 412
#     4  11  23  43  69  98 135 184 222 282 344 404
#
# _framework density 24.181037
#
# number of rings (size 3 to 8) (size 9 to 14) (size 15 to 20)
#    0.000    1.231    4.615    1.846    0.000    3.692 
#    5.538    0.000    0.000    0.000    0.000    0.000 
#    0.000    0.000    0.000    0.000    0.000    0.000 
#
# Total GULP energy -145571.072252 kJ/mol
# GULP energy per Si atom -5598.887394 kJ/mol
# Density = 2.412600 g / cm^3
# Si number density = 24.181037 Si / 1000 Ang^3
#
#
#
# Elastic Constant Matrix: (Units=GPa)
#
#
# Indices 1 2 3 4 5 6 
#
# 1 131.1837 18.0372 22.5989 0.0000 35.3340 0.0000
# 2 18.0372 51.6436 10.6685 0.0000 6.6620 0.0000
# 3 22.5989 10.6685 86.5912 0.0000 22.0325 0.0000
# 4 0.0000 0.0000 0.0000 40.8749 0.0000 10.8285
# 5 35.3340 6.6620 22.0325 0.0000 47.7117 0.0000
# 6 0.0000 0.0000 0.0000 10.8285 0.0000 30.3036
#
#
#
# Elastic Compliance Matrix: (Units=1/GPa)
#
#
# Indices 1 2 3 4 5 6 
#
# 1 0.009864 -0.002464 -0.000566 0.000000 -0.006699 0.000000
# 2 -0.002464 0.020632 -0.001847 0.000000 -0.000203 0.000000
# 3 -0.000566 -0.001847 0.013316 0.000000 -0.005472 0.000000
# 4 0.000000 0.000000 0.000000 0.027023 0.000000 -0.009656
# 5 -0.006699 -0.000203 -0.005472 0.000000 0.028476 0.000000
# 6 0.000000 0.000000 0.000000 -0.009656 0.000000 0.036450
#
#
# Mechanical properties :
#
#
# Convention : Reuss Voigt Hill
#
# Bulk Modulus (GPa) = 29.36235 41.33641 35.34938
# Shear Modulus (GPa) = 31.87413 38.31897 35.09655
#
# Velocity S-wave (km/s) = 3.63457 3.98511 3.81387
# Velocity P-wave (km/s) = 5.45734 6.18922 5.83477
#
# Compressibility (1/GPa) = 0.03405722
#
# Stress axis : x y z
#
# Youngs Moduli (GPa) = 101.38260 48.46886 75.09668
#
# Poissons Ratio (x) = 0.11942 0.04251
# Poissons Ratio (y) = 0.24979 0.13872
# Poissons Ratio (z) = 0.05739 0.08953
#
# Static dielectric constant tensor:
#      x y z
#    x 1.969550 0.000000 -0.003240 
#    y 0.000000 1.942090 0.000000 
#    z -0.003240 0.000000 1.927160 
# 
# From -- ./inp_files/309880.got.cif
#   From: 2010.05.17/outbox.cif.g08.bks.cpg/sg15_155_cif.got.tgz:309880.got - 2010.06.03 18:47:42.
