data_PCOD9291420
_publ_section_title
;
Structure prediction by ZEFSAII (Michael W. Deem and Ramdas Pophale) SiO2 
 PCOD9291420
Probable space group: C 2/C
;
_chemical_formula_sum "Si O2"
_cell_formula_units_Z 64
_cell_length_a 11.428256
_cell_length_b 16.706577
_cell_length_c 19.791676
_cell_angle_alpha 90.000000
_cell_angle_beta 51.367638
_cell_angle_gamma 90.000000
_cell_volume 2951.851022
_symmetry_space_group_name_H-M "C 2/C"
_symmetry_group_IT_number 15
_symmetry_cell_setting 'monoclinic'
loop_
_space_group_symop_operation_xyz
x,y,z
-x,y,1/2-z
-x,-y,-z
x,-y,1/2+z
1/2+x,1/2+y,z
1/2-x,1/2+y,1/2-z
1/2-x,1/2-y,-z
1/2+x,1/2-y,1/2+z
loop_
_atom_site_type_symbol
_atom_site_label
_atom_site_fract_x
_atom_site_fract_y
_atom_site_fract_z
Si Si1 0.230593 0.858892 0.305296
Si Si2 0.174652 0.420928 0.090628
Si Si3 0.959282 0.284215 0.131589
Si Si4 0.034365 0.539293 0.414466
Si Si5 0.362281 0.503082 0.248303
Si Si6 0.494891 0.599768 0.076192
Si Si7 0.092483 0.153718 0.528961
Si Si8 0.162202 0.671307 0.965052
O O1 0.303757 0.914789 0.336630
O O2 0.346435 0.794265 0.235235
O O3 0.078752 0.825548 0.392512
O O4 0.176639 0.914758 0.263811
O O5 0.106653 0.334381 0.095509
O O6 0.059186 0.487909 0.106617
O O7 0.334562 0.427709 0.996394
O O8 0.882889 0.331551 0.096522
O O9 0.991141 0.193385 0.099171
O O10 0.209607 0.537550 0.335230
O O11 0.000000 0.500000 0.500000
O O12 0.966513 0.628089 0.445114
O O13 0.500000 0.505120 0.250000
O O14 0.412282 0.550650 0.163377
O O15 0.414445 0.593916 0.031786
O O16 0.170136 0.233925 0.474205
O O17 0.185530 0.130707 0.562166
#
# Coordination Sequence:
#
# PCOD9291420 Si02
#       8
#     8   8   8   8   8   8   8   8
#     4  11  25  40  66  94 133 171 215 270 330 383
#     4  11  23  43  66  97 130 175 214 266 332 391
#     4  11  22  42  68  95 132 169 220 269 323 391
#     4  12  24  42  69  95 133 173 213 269 324 390
#     4  12  28  43  64  99 129 168 222 268 325 391
#     4  10  25  44  66  97 130 169 221 272 327 381
#     4   9  23  43  67  95 128 174 217 270 325 387
#     4  10  22  42  67  95 127 173 223 257 328 389
#
# _framework density 21.681311999999998
#
# number of rings (size 3 to 8) (size 9 to 14) (size 15 to 20)
#    0.000    1.250    2.500    1.500    8.750    2.000 
#    0.000    0.000    0.000    0.000    0.000    0.000 
#    0.000    0.000    0.000    0.000    0.000    0.000 
#
# Total GULP energy -178840.251444 kJ/mol
# GULP energy per Si atom -5588.757858 kJ/mol
# Density = 2.163196 g / cm^3
# Si number density = 21.681312 Si / 1000 Ang^3
#
#
#
# Elastic Constant Matrix: (Units=GPa)
#
#
# Indices 1 2 3 4 5 6 
#
# 1 134.6113 12.4778 44.3786 0.0000 -11.0941 0.0000
# 2 12.4778 56.6701 4.5961 0.0000 -5.6594 0.0000
# 3 44.3786 4.5961 112.5141 -0.0001 -19.2590 0.0000
# 4 0.0000 0.0000 -0.0001 34.1870 0.0001 -0.2578
# 5 -11.0941 -5.6594 -19.2590 0.0001 21.7780 0.0000
# 6 0.0000 0.0000 0.0000 -0.2578 0.0000 21.1463
#
#
#
# Elastic Compliance Matrix: (Units=1/GPa)
#
#
# Indices 1 2 3 4 5 6 
#
# 1 0.008716 -0.001539 -0.003162 0.000000 0.001244 0.000000
# 2 -0.001539 0.018388 0.000636 0.000000 0.004557 0.000000
# 3 -0.003162 0.000636 0.011621 0.000000 0.008831 0.000000
# 4 0.000000 0.000000 0.000000 0.029254 0.000000 0.000357
# 5 0.001244 0.004557 0.008831 0.000000 0.055545 0.000000
# 6 0.000000 0.000000 0.000000 0.000357 0.000000 0.047294
#
#
# Mechanical properties :
#
#
# Convention : Reuss Voigt Hill
#
# Bulk Modulus (GPa) = 32.68474 47.41116 40.04795
# Shear Modulus (GPa) = 26.43452 31.57847 29.00650
#
# Velocity S-wave (km/s) = 3.49554 3.82053 3.66164
# Velocity P-wave (km/s) = 5.60353 6.43247 6.03226
#
# Compressibility (1/GPa) = 0.03059531
#
# Stress axis : x y z
#
# Youngs Moduli (GPa) = 114.72559 54.38249 86.05370
#
# Poissons Ratio (x) = 0.08367 0.27212
# Poissons Ratio (y) = 0.17651 -0.05470
# Poissons Ratio (z) = 0.36279 -0.03457
#
# Static dielectric constant tensor:
#      x y z
#    x 1.829040 0.000000 0.016290 
#    y 0.000000 1.797770 0.000000 
#    z 0.016290 0.000000 1.775970 
# 
# From -- ./inp_files/239786.got.cif
#   From: 2010.05.17/outbox.cif.g08.bks.cpg/sg15_120_cif.got.tgz:239786.got - 2010.06.03 18:47:42.
