data_PCOD9291077
_publ_section_title
;
Structure prediction by ZEFSAII (Michael W. Deem and Ramdas Pophale) SiO2 
 PCOD9291077
Probable space group: C 2/C
;
_chemical_formula_sum "Si O2"
_cell_formula_units_Z 52
_cell_length_a 11.470126
_cell_length_b 26.139621
_cell_length_c 8.417248
_cell_angle_alpha 90.000000
_cell_angle_beta 103.304410
_cell_angle_gamma 90.000000
_cell_volume 2455.966095
_symmetry_space_group_name_H-M "C 2/C"
_symmetry_group_IT_number 15
_symmetry_cell_setting 'monoclinic'
loop_
_space_group_symop_operation_xyz
x,y,z
-x,y,1/2-z
-x,-y,-z
x,-y,1/2+z
1/2+x,1/2+y,z
1/2-x,1/2+y,1/2-z
1/2-x,1/2-y,-z
1/2+x,1/2-y,1/2+z
loop_
_atom_site_type_symbol
_atom_site_label
_atom_site_fract_x
_atom_site_fract_y
_atom_site_fract_z
Si Si1 0.350320 0.825179 0.433241
Si Si2 0.227799 0.591953 0.996122
Si Si3 0.289954 0.298890 0.411702
Si Si4 0.043060 0.224540 0.093617
Si Si5 0.693161 0.624556 0.147790
Si Si6 0.480744 0.557262 0.932379
Si Si7 0.500000 0.101572 0.750000
O O1 0.248672 0.802382 0.283045
O O2 0.415933 0.772415 0.499346
O O3 0.291905 0.859404 0.550465
O O4 0.436015 0.862328 0.359975
O O5 0.251643 0.591013 0.191838
O O6 0.224229 0.652779 0.966345
O O7 0.346773 0.573066 0.942874
O O8 0.106072 0.571627 0.876967
O O9 0.250000 0.250000 0.500000
O O10 0.431871 0.302505 0.474613
O O11 0.137010 0.180506 0.171435
O O12 0.000000 0.247164 0.250000
O O13 0.581702 0.592838 0.043579
O O14 0.500000 0.560066 0.750000
O O15 0.500000 0.500000 0.000000
#
# Coordination Sequence:
#
# PCOD9291077 Si02
#       7
#     8   8   8   8   8   8   4
#     4  11  23  37  57  91 131 183 235 274 336 400
#     4  11  22  42  67  97 135 175 219 278 335 402
#     4  11  19  34  58  83 129 185 225 274 324 394
#     4  12  19  35  58  87 133 180 230 279 333 393
#     4  12  24  39  63 100 134 173 226 286 342 398
#     4  12  25  46  76 106 134 168 219 281 346 401
#     4  10  22  42  64  88 136 184 228 274 332 400
#
# _framework density 21.172929
#
# number of rings (size 3 to 8) (size 9 to 14) (size 15 to 20)
#    0.000    0.615    5.385    4.615    0.000    0.615 
#    0.000    1.538    0.000    8.308    0.000    0.000 
#    0.000    0.000    0.000    0.000    0.000    0.000 
#
# Total GULP energy -145206.196325 kJ/mol
# GULP energy per Si atom -5584.853705 kJ/mol
# Density = 2.112474 g / cm^3
# Si number density = 21.172929 Si / 1000 Ang^3
#
#
#
# Elastic Constant Matrix: (Units=GPa)
#
#
# Indices 1 2 3 4 5 6 
#
# 1 139.7407 25.4716 75.7768 0.0000 -1.2497 0.0000
# 2 25.4716 62.6645 19.3125 0.0000 -9.2076 0.0000
# 3 75.7768 19.3125 130.2701 0.0000 6.3955 0.0000
# 4 0.0000 0.0000 0.0000 23.2938 0.0000 -2.4131
# 5 -1.2497 -9.2076 6.3955 0.0000 38.3739 0.0000
# 6 0.0000 0.0000 0.0000 -2.4131 0.0000 15.8500
#
#
#
# Elastic Compliance Matrix: (Units=1/GPa)
#
#
# Indices 1 2 3 4 5 6 
#
# 1 0.010859 -0.002456 -0.005990 0.000000 0.000763 0.000000
# 2 -0.002456 0.018071 -0.001472 0.000000 0.004501 0.000000
# 3 -0.005990 -0.001472 0.011500 0.000000 -0.002465 0.000000
# 4 0.000000 0.000000 0.000000 0.043618 0.000000 0.006641
# 5 0.000763 0.004501 -0.002465 0.000000 0.027575 0.000000
# 6 0.000000 0.000000 0.000000 0.006641 0.000000 0.064103
#
#
# Mechanical properties :
#
#
# Convention : Reuss Voigt Hill
#
# Bulk Modulus (GPa) = 48.55455 63.75523 56.15489
# Shear Modulus (GPa) = 24.70063 29.64451 27.17257
#
# Velocity S-wave (km/s) = 3.41928 3.74587 3.58629
# Velocity P-wave (km/s) = 6.21054 6.99183 6.61273
#
# Compressibility (1/GPa) = 0.02059539
#
# Stress axis : x y z
#
# Youngs Moduli (GPa) = 92.09313 55.33693 86.95907
#
# Poissons Ratio (x) = 0.13589 0.52086
# Poissons Ratio (y) = 0.22616 0.12796
# Poissons Ratio (z) = 0.55161 0.08143
#
# Static dielectric constant tensor:
#      x y z
#    x 1.820480 0.000000 0.039610 
#    y 0.000000 1.781660 0.000000 
#    z 0.039610 0.000000 1.873980 
# 
# From -- ./inp_files/33719.got.cif
#   From: 2010.05.17/outbox.cif.g08.bks.cpg/sg15_17_cif.got.tgz:33719.got - 2010.06.03 18:47:42.
