data_PCOD9291824
_publ_section_title
;
Structure prediction by ZEFSAII (Michael W. Deem and Ramdas Pophale) SiO2 
 PCOD9291824
Probable space group: C 2/C
;
_chemical_formula_sum "Si O2"
_cell_formula_units_Z 36
_cell_length_a 29.505811
_cell_length_b 7.326984
_cell_length_c 14.642323
_cell_angle_alpha 90.000000
_cell_angle_beta 147.701757
_cell_angle_gamma 90.000000
_cell_volume 1691.412119
_symmetry_space_group_name_H-M "C 2/C"
_symmetry_group_IT_number 15
_symmetry_cell_setting 'monoclinic'
loop_
_space_group_symop_operation_xyz
x,y,z
-x,y,1/2-z
-x,-y,-z
x,-y,1/2+z
1/2+x,1/2+y,z
1/2-x,1/2+y,1/2-z
1/2-x,1/2-y,-z
1/2+x,1/2-y,1/2+z
loop_
_atom_site_type_symbol
_atom_site_label
_atom_site_fract_x
_atom_site_fract_y
_atom_site_fract_z
Si Si1 0.328641 0.626628 0.605510
Si Si2 0.173518 0.128370 0.561502
Si Si3 0.002427 0.300928 0.859027
Si Si4 0.000000 0.656739 0.750000
Si Si5 0.830738 0.116286 0.278520
O O1 0.250000 0.750000 0.500000
O O2 0.318061 0.552670 0.485249
O O3 0.416217 0.738068 0.759686
O O4 0.332638 0.451327 0.678181
O O5 0.249698 0.261365 0.664154
O O6 0.084176 0.224304 0.388993
O O7 0.175260 0.064379 0.668934
O O8 0.005705 0.517819 0.845937
O O9 0.000000 0.225579 0.750000
O O10 0.084308 0.223863 0.049007
#
# Coordination Sequence:
#
# PCOD9291824 Si02
#       5
#     8   8   8   4   8
#     4  12  25  44  67 100 134 172 223 275 324 398
#     4  12  23  44  65 101 134 172 219 273 331 394
#     4  10  22  45  65  94 132 173 220 270 329 384
#     4  10  22  42  72  90 134 178 210 276 330 384
#     4  12  24  40  70  97 133 180 220 269 336 388
#
# _framework density 21.283991
#
# number of rings (size 3 to 8) (size 9 to 14) (size 15 to 20)
#    0.667    0.000    2.222    6.667    0.000    0.000 
#    0.000    3.333    0.000    0.000    0.000    0.000 
#    0.000    0.000    0.000    0.000    0.000    0.000 
#
# Total GULP energy -100712.530006 kJ/mol
# GULP energy per Si atom -5595.140556 kJ/mol
# Density = 2.123555 g / cm^3
# Si number density = 21.283991 Si / 1000 Ang^3
#
#
#
# Elastic Constant Matrix: (Units=GPa)
#
#
# Indices 1 2 3 4 5 6 
#
# 1 51.9311 5.9690 29.0355 0.0000 26.3997 0.0000
# 2 5.9690 70.3702 35.8328 0.0000 30.5497 0.0000
# 3 29.0355 35.8328 139.5334 0.0000 52.6896 0.0000
# 4 0.0000 0.0000 0.0000 39.3050 0.0000 24.3876
# 5 26.3997 30.5497 52.6896 0.0000 55.1827 0.0000
# 6 0.0000 0.0000 0.0000 24.3876 0.0000 30.3524
#
#
#
# Elastic Compliance Matrix: (Units=1/GPa)
#
#
# Indices 1 2 3 4 5 6 
#
# 1 0.026574 0.004482 -0.001475 0.000000 -0.013786 0.000000
# 2 0.004482 0.019638 -0.001659 0.000000 -0.011432 0.000000
# 3 -0.001475 -0.001659 0.011395 0.000000 -0.009256 0.000000
# 4 0.000000 0.000000 0.000000 0.050736 0.000000 -0.040766
# 5 -0.013786 -0.011432 -0.009256 0.000000 0.039884 0.000000
# 6 0.000000 0.000000 0.000000 -0.040766 0.000000 0.065701
#
#
# Mechanical properties :
#
#
# Convention : Reuss Voigt Hill
#
# Bulk Modulus (GPa) = 16.58283 44.83434 30.70858
# Shear Modulus (GPa) = 21.61389 37.70116 29.65753
#
# Velocity S-wave (km/s) = 3.19015 4.21329 3.73690
# Velocity P-wave (km/s) = 4.62358 6.69176 5.75140
#
# Compressibility (1/GPa) = 0.06030334
#
# Stress axis : x y z
#
# Youngs Moduli (GPa) = 37.63051 50.92142 87.75871
#
# Poissons Ratio (x) = -0.22823 0.12944
# Poissons Ratio (y) = -0.16866 0.14558
# Poissons Ratio (z) = 0.05550 0.08447
#
# Static dielectric constant tensor:
#      x y z
#    x 1.730720 0.000000 -0.018810 
#    y 0.000000 1.758380 0.000000 
#    z -0.018810 0.000000 1.715100 
# 
# From -- ./inp_files/177057.got.cif
#   From: 2010.05.17/outbox.cif.g08.bks.cpg/sg15_89_cif.got.tgz:177057.got - 2010.06.03 18:47:42.
