data_PCOD9291193
_publ_section_title
;
Structure prediction by ZEFSAII (Michael W. Deem and Ramdas Pophale) SiO2 
 PCOD9291193
Probable space group: C 2/C
;
_chemical_formula_sum "Si O2"
_cell_formula_units_Z 48
_cell_length_a 24.502871
_cell_length_b 8.448870
_cell_length_c 11.162583
_cell_angle_alpha 90.000000
_cell_angle_beta 102.401082
_cell_angle_gamma 90.000000
_cell_volume 2256.978179
_symmetry_space_group_name_H-M "C 2/C"
_symmetry_group_IT_number 15
_symmetry_cell_setting 'monoclinic'
loop_
_space_group_symop_operation_xyz
x,y,z
-x,y,1/2-z
-x,-y,-z
x,-y,1/2+z
1/2+x,1/2+y,z
1/2-x,1/2+y,1/2-z
1/2-x,1/2-y,-z
1/2+x,1/2-y,1/2+z
loop_
_atom_site_type_symbol
_atom_site_label
_atom_site_fract_x
_atom_site_fract_y
_atom_site_fract_z
Si Si1 0.857699 0.860946 0.572184
Si Si2 0.651846 0.963530 0.501083
Si Si3 0.760481 0.917707 0.943512
Si Si4 0.051548 0.092327 0.967631
Si Si5 0.972369 0.561422 0.112263
Si Si6 0.846708 0.760862 0.830573
O O1 0.851318 0.722641 0.469780
O O2 0.856546 0.769730 0.695921
O O3 0.805700 0.978156 0.535441
O O4 0.913331 0.964905 0.591120
O O5 0.701784 0.995206 0.430495
O O6 0.591706 0.007658 0.420214
O O7 0.660636 0.086773 0.614939
O O8 0.792531 0.869257 0.837141
O O9 0.750000 0.750000 0.000000
O O10 0.028373 0.247861 0.891696
O O11 0.098867 0.160745 0.080705
O O12 0.000000 0.000000 0.000000
O O13 0.000000 0.506106 0.250000
O O14 0.000000 0.500000 0.000000
#
# Coordination Sequence:
#
# PCOD9291193 Si02
#       6
#     8   8   8   8   8   8
#     4  11  22  40  68  98 131 180 225 287 347 413
#     4  10  22  42  65  93 139 178 227 281 347 412
#     4   9  20  42  63  96 136 167 224 280 341 418
#     4  10  23  43  65  95 135 178 227 286 347 418
#     4  11  26  46  70 104 140 184 236 292 351 419
#     4   9  22  40  62  97 132 173 228 283 340 412
#
# _framework density 21.267372999999999
#
# number of rings (size 3 to 8) (size 9 to 14) (size 15 to 20)
#    0.000    2.000    0.000    2.500    7.000    2.667 
#    0.000    3.333    0.000    0.000    0.000    0.000 
#    0.000    0.000    0.000    0.000    0.000    0.000 
#
# Total GULP energy -133914.982042 kJ/mol
# GULP energy per Si atom -5579.790918 kJ/mol
# Density = 2.121897 g / cm^3
# Si number density = 21.267373 Si / 1000 Ang^3
#
#
#
# Elastic Constant Matrix: (Units=GPa)
#
#
# Indices 1 2 3 4 5 6 
#
# 1 150.4096 35.7294 43.2643 0.0000 -16.2153 0.0000
# 2 35.7294 136.2555 39.8731 0.0000 -8.8977 0.0000
# 3 43.2643 39.8731 93.1223 0.0000 -13.2973 0.0000
# 4 0.0000 0.0000 0.0000 17.8917 0.0000 -3.0769
# 5 -16.2153 -8.8977 -13.2973 0.0000 14.5251 0.0000
# 6 0.0000 0.0000 0.0000 -3.0769 0.0000 40.7085
#
#
#
# Elastic Compliance Matrix: (Units=1/GPa)
#
#
# Indices 1 2 3 4 5 6 
#
# 1 0.008298 -0.001027 -0.002510 0.000000 0.006336 0.000000
# 2 -0.001027 0.008575 -0.003000 0.000000 0.001359 0.000000
# 3 -0.002510 -0.003000 0.014411 0.000000 0.008552 0.000000
# 4 0.000000 0.000000 0.000000 0.056628 0.000000 0.004280
# 5 0.006336 0.001359 0.008552 0.000000 0.084581 0.000000
# 6 0.000000 0.000000 0.000000 0.004280 0.000000 0.024888
#
#
# Mechanical properties :
#
#
# Convention : Reuss Voigt Hill
#
# Bulk Modulus (GPa) = 54.92301 68.61344 61.76822
# Shear Modulus (GPa) = 23.09185 32.01979 27.55582
#
# Velocity S-wave (km/s) = 3.29870 3.88439 3.60347
# Velocity P-wave (km/s) = 6.35529 7.24226 6.81322
#
# Compressibility (1/GPa) = 0.01820731
#
# Stress axis : x y z
#
# Youngs Moduli (GPa) = 120.51487 116.61339 69.39250
#
# Poissons Ratio (x) = 0.11982 0.17421
# Poissons Ratio (y) = 0.12383 0.20820
# Poissons Ratio (z) = 0.30255 0.34988
#
# Static dielectric constant tensor:
#      x y z
#    x 1.830630 0.000000 -0.014390 
#    y 0.000000 1.728190 0.000000 
#    z -0.014390 0.000000 1.762500 
# 
# From -- ./inp_files/116368.got.cif
#   From: 2010.05.17/outbox.cif.g08.bks.cpg/sg15_59_cif.got.tgz:116368.got - 2010.06.03 18:47:42.
