data_PCOD9291582
_publ_section_title
;
Structure prediction by ZEFSAII (Michael W. Deem and Ramdas Pophale) SiO2 
 PCOD9291582
Probable space group: C 2/C
;
_chemical_formula_sum "Si O2"
_cell_formula_units_Z 52
_cell_length_a 16.935792
_cell_length_b 4.865866
_cell_length_c 27.011598
_cell_angle_alpha 90.000000
_cell_angle_beta 68.161261
_cell_angle_gamma 90.000000
_cell_volume 2066.206155
_symmetry_space_group_name_H-M "C 2/C"
_symmetry_group_IT_number 15
_symmetry_cell_setting 'monoclinic'
loop_
_space_group_symop_operation_xyz
x,y,z
-x,y,1/2-z
-x,-y,-z
x,-y,1/2+z
1/2+x,1/2+y,z
1/2-x,1/2+y,1/2-z
1/2-x,1/2-y,-z
1/2+x,1/2-y,1/2+z
loop_
_atom_site_type_symbol
_atom_site_label
_atom_site_fract_x
_atom_site_fract_y
_atom_site_fract_z
Si Si1 0.699283 0.955100 0.458698
Si Si2 0.838910 0.037328 0.600212
Si Si3 0.366248 0.235824 0.927943
Si Si4 0.049991 0.845948 0.846811
Si Si5 0.229430 0.555207 0.790214
Si Si6 0.173355 0.612510 0.673212
Si Si7 0.500000 0.244177 0.750000
O O1 0.674954 0.173597 0.422211
O O2 0.656802 0.057760 0.519107
O O3 0.801204 0.000420 0.443871
O O4 0.662203 0.674275 0.445285
O O5 0.911734 0.065350 0.623721
O O6 0.759421 0.936985 0.653134
O O7 0.466210 0.267373 0.897286
O O8 0.342970 0.100212 0.881268
O O9 0.130161 0.635908 0.823215
O O10 0.019211 0.902903 0.797432
O O11 0.293441 0.409676 0.815048
O O12 0.225312 0.291130 0.753050
O O13 0.084057 0.565361 0.719785
#
# Coordination Sequence:
#
# PCOD9291582 Si02
#       7
#     8   8   8   8   8   8   4
#     4  10  23  48  75 102 140 189 221 298 345 420
#     4  11  24  45  75 101 139 185 238 275 357 412
#     4   9  22  43  73 107 143 176 238 282 360 402
#     4  11  23  43  71 104 140 184 234 290 337 424
#     4  12  25  45  73  96 139 193 231 281 343 409
#     4  10  22  44  72 100 141 185 231 283 346 419
#     4  10  22  42  68  98 142 176 232 288 342 396
#
# _framework density 25.166898
#
# number of rings (size 3 to 8) (size 9 to 14) (size 15 to 20)
#    0.000    1.538    1.538    2.769    0.000    6.769 
#    0.000   17.692    0.000    0.000    0.000    0.000 
#    0.000    0.000    0.000    0.000    0.000    0.000 
#
# Total GULP energy -144933.532651 kJ/mol
# GULP energy per Si atom -5574.366640 kJ/mol
# Density = 2.510962 g / cm^3
# Si number density = 25.166898 Si / 1000 Ang^3
#
#
#
# Elastic Constant Matrix: (Units=GPa)
#
#
# Indices 1 2 3 4 5 6 
#
# 1 165.1494 28.6720 66.5159 -0.0002 -14.8441 0.0064
# 2 28.6720 55.3654 -7.6337 0.0013 -0.1032 0.0108
# 3 66.5159 -7.6337 159.6412 0.0014 -11.6406 0.0020
# 4 -0.0002 0.0013 0.0014 25.3431 -0.0021 10.0199
# 5 -14.8441 -0.1032 -11.6406 -0.0021 50.2959 -0.0021
# 6 0.0064 0.0108 0.0020 10.0199 -0.0021 14.8239
#
#
#
# Elastic Compliance Matrix: (Units=1/GPa)
#
#
# Indices 1 2 3 4 5 6 
#
# 1 0.008538 -0.004925 -0.003672 0.000001 0.001660 0.000000
# 2 -0.004925 0.021025 0.003005 0.000006 -0.000715 -0.000017
# 3 -0.003672 0.003005 0.007994 0.000000 0.000773 -0.000002
# 4 0.000001 0.000006 0.000000 0.053849 0.000001 -0.036398
# 5 0.001660 -0.000715 0.000773 0.000001 0.020550 0.000002
# 6 0.000000 -0.000017 -0.000002 -0.036398 0.000002 0.092061
#
#
# Mechanical properties :
#
#
# Convention : Reuss Voigt Hill
#
# Bulk Modulus (GPa) = 37.91560 61.69604 49.80582
# Shear Modulus (GPa) = 22.32222 37.59939 29.96081
#
# Velocity S-wave (km/s) = 2.98143 3.86943 3.45408
# Velocity P-wave (km/s) = 5.19137 6.67317 5.97836
#
# Compressibility (1/GPa) = 0.02637437
#
# Stress axis : x y z
#
# Youngs Moduli (GPa) = 117.11927 47.56171 125.09275
#
# Poissons Ratio (x) = 0.23424 0.45934
# Poissons Ratio (y) = 0.57680 -0.37594
# Poissons Ratio (z) = 0.43006 -0.14294
#
# Static dielectric constant tensor:
#      x y z
#    x 2.084220 0.000000 -0.005900 
#    y 0.000000 2.107580 -0.000010 
#    z -0.005900 -0.000010 2.045740 
# 
# From -- ./inp_files/297437.got.cif
#   From: 2010.05.17/outbox.cif.g08.bks.cpg/sg15_149_cif.got.tgz:297437.got - 2010.06.03 18:47:42.
