data_PCOD9291566
_publ_section_title
;
Structure prediction by ZEFSAII (Michael W. Deem and Ramdas Pophale) SiO2 
 PCOD9291566
Probable space group: C 2/C
;
_chemical_formula_sum "Si O2"
_cell_formula_units_Z 40
_cell_length_a 9.912163
_cell_length_b 11.696420
_cell_length_c 30.035238
_cell_angle_alpha 90.000000
_cell_angle_beta 29.092837
_cell_angle_gamma 90.000000
_cell_volume 1693.131814
_symmetry_space_group_name_H-M "C 2/C"
_symmetry_group_IT_number 15
_symmetry_cell_setting 'monoclinic'
loop_
_space_group_symop_operation_xyz
x,y,z
-x,y,1/2-z
-x,-y,-z
x,-y,1/2+z
1/2+x,1/2+y,z
1/2-x,1/2+y,1/2-z
1/2-x,1/2-y,-z
1/2+x,1/2-y,1/2+z
loop_
_atom_site_type_symbol
_atom_site_label
_atom_site_fract_x
_atom_site_fract_y
_atom_site_fract_z
Si Si1 0.781321 0.827717 0.778330
Si Si2 0.809147 0.900483 0.535614
Si Si3 0.942772 0.156499 0.132031
Si Si4 0.000255 0.909394 0.382354
Si Si5 0.583625 0.818485 0.438910
O O1 0.007307 0.406102 0.856747
O O2 0.682539 0.703828 0.824438
O O3 0.000000 0.876123 0.750000
O O4 0.903896 0.809887 0.694159
O O5 0.824369 0.897174 0.478215
O O6 0.922306 0.781813 0.522557
O O7 0.000000 0.000000 0.500000
O O8 0.826894 0.251638 0.131715
O O9 0.833329 0.027155 0.160355
O O10 0.268162 0.141720 0.025197
O O11 0.798295 0.909482 0.397174
#
# Coordination Sequence:
#
# PCOD9291566 Si02
#       5
#     8   8   8   8   8
#     4  11  25  44  66 100 141 180 248 308 356 438
#     4  11  22  43  71  98 133 192 236 286 372 446
#     4  11  23  42  66 102 137 185 230 304 360 427
#     4  11  23  43  67  96 137 186 234 292 372 435
#     4  10  22  42  68  97 141 178 238 286 367 447
#
# _framework density 23.624858
#
# number of rings (size 3 to 8) (size 9 to 14) (size 15 to 20)
#    0.000    1.200    2.000    5.400    0.000    6.400 
#    3.600    0.000    0.000    0.000    0.000    0.000 
#    0.000    0.000    0.000    0.000    0.000    0.000 
#
# Total GULP energy -111908.615503 kJ/mol
# GULP energy per Si atom -5595.430775 kJ/mol
# Density = 2.357109 g / cm^3
# Si number density = 23.624858 Si / 1000 Ang^3
#
#
#
# Elastic Constant Matrix: (Units=GPa)
#
#
# Indices 1 2 3 4 5 6 
#
# 1 122.8128 27.5140 47.3096 -0.0014 15.3140 -0.0011
# 2 27.5140 76.4015 30.7308 -0.0020 1.1220 0.0006
# 3 47.3096 30.7308 101.8089 0.0195 25.2846 0.0156
# 4 -0.0014 -0.0020 0.0195 15.5162 0.0021 11.6996
# 5 15.3140 1.1220 25.2846 0.0021 58.4797 -0.0089
# 6 -0.0011 0.0006 0.0156 11.6996 -0.0089 29.2871
#
#
#
# Elastic Compliance Matrix: (Units=1/GPa)
#
#
# Indices 1 2 3 4 5 6 
#
# 1 0.010229 -0.002110 -0.003878 0.000006 -0.000962 0.000000
# 2 -0.002110 0.015515 -0.004219 0.000007 0.002079 0.000000
# 3 -0.003878 -0.004219 0.014144 -0.000016 -0.005019 -0.000003
# 4 0.000006 0.000007 -0.000016 0.092230 -0.000004 -0.036844
# 5 -0.000962 0.002079 -0.005019 -0.000004 0.019482 0.000010
# 6 0.000000 0.000000 -0.000003 -0.036844 0.000010 0.048863
#
#
# Mechanical properties :
#
#
# Convention : Reuss Voigt Hill
#
# Bulk Modulus (GPa) = 51.34768 56.90356 54.12562
# Shear Modulus (GPa) = 21.99079 33.68785 27.83932
#
# Velocity S-wave (km/s) = 3.05427 3.78027 3.43649
# Velocity P-wave (km/s) = 5.84977 6.57210 6.22143
#
# Compressibility (1/GPa) = 0.01947508
#
# Stress axis : x y z
#
# Youngs Moduli (GPa) = 97.76371 64.45354 70.70027
#
# Poissons Ratio (x) = 0.13599 0.27414
# Poissons Ratio (y) = 0.20627 0.29829
# Poissons Ratio (z) = 0.37908 0.27194
#
# Static dielectric constant tensor:
#      x y z
#    x 1.946490 0.000000 -0.033660 
#    y 0.000000 1.897830 0.000010 
#    z -0.033660 0.000010 1.865560 
# 
# From -- ./inp_files/310736.got.cif
#   From: 2010.05.17/outbox.cif.g08.bks.cpg/sg15_156_cif.got.tgz:310736.got - 2010.06.03 18:47:42.
