data_PCOD9291425
_publ_section_title
;
Structure prediction by ZEFSAII (Michael W. Deem and Ramdas Pophale) SiO2 
 PCOD9291425
Probable space group: C 2/C
;
_chemical_formula_sum "Si O2"
_cell_formula_units_Z 40
_cell_length_a 8.914029
_cell_length_b 10.314080
_cell_length_c 16.750734
_cell_angle_alpha 90.000000
_cell_angle_beta 99.412049
_cell_angle_gamma 90.000000
_cell_volume 1519.329980
_symmetry_space_group_name_H-M "C 2/C"
_symmetry_group_IT_number 15
_symmetry_cell_setting 'monoclinic'
loop_
_space_group_symop_operation_xyz
x,y,z
-x,y,1/2-z
-x,-y,-z
x,-y,1/2+z
1/2+x,1/2+y,z
1/2-x,1/2+y,1/2-z
1/2-x,1/2-y,-z
1/2+x,1/2-y,1/2+z
loop_
_atom_site_type_symbol
_atom_site_label
_atom_site_fract_x
_atom_site_fract_y
_atom_site_fract_z
Si Si1 0.440588 0.844351 0.046694
Si Si2 0.058802 0.242042 0.633275
Si Si3 0.858715 0.811464 0.699116
Si Si4 0.716284 0.214147 0.646393
Si Si5 0.654644 0.495753 0.566276
O O1 0.392790 0.740195 0.112777
O O2 0.610372 0.883531 0.087958
O O3 0.307616 0.949960 0.038238
O O4 0.455072 0.784132 0.960597
O O5 0.178755 0.344823 0.680752
O O6 0.131897 0.099499 0.634471
O O7 0.896653 0.214014 0.657657
O O8 0.846599 0.706928 0.769672
O O9 0.000000 0.892382 0.750000
O O10 0.682160 0.353563 0.602171
O O11 0.500000 0.500000 0.500000
#
# Coordination Sequence:
#
# PCOD9291425 Si02
#       5
#     8   8   8   8   8
#     4  10  22  42  67  95 133 171 218 278 324 392
#     4  11  22  43  69  96 132 172 223 274 328 399
#     4   9  20  39  64  89 131 173 207 266 336 378
#     4  11  23  42  64  98 135 170 218 276 330 393
#     4  11  23  39  67  98 127 170 226 262 332 402
#
# _framework density 26.327394999999999
#
# number of rings (size 3 to 8) (size 9 to 14) (size 15 to 20)
#    0.000    1.600    2.000    3.600    2.800    0.800 
#    0.000   28.000    0.000    0.000    0.000    0.000 
#    0.000    0.000    0.000    0.000    0.000    0.000 
#
# Total GULP energy -111508.157806 kJ/mol
# GULP energy per Si atom -5575.407890 kJ/mol
# Density = 2.626747 g / cm^3
# Si number density = 26.327395 Si / 1000 Ang^3
#
#
#
# Elastic Constant Matrix: (Units=GPa)
#
#
# Indices 1 2 3 4 5 6 
#
# 1 214.5927 30.1242 37.5932 0.0000 7.9748 0.0000
# 2 30.1242 70.7757 3.5704 0.0000 -0.1822 0.0000
# 3 37.5932 3.5704 112.9231 0.0000 4.0396 0.0000
# 4 0.0000 0.0000 0.0000 19.4525 0.0000 -6.8209
# 5 7.9748 -0.1822 4.0396 0.0000 70.8940 0.0000
# 6 0.0000 0.0000 0.0000 -6.8209 0.0000 36.6538
#
#
#
# Elastic Compliance Matrix: (Units=1/GPa)
#
#
# Indices 1 2 3 4 5 6 
#
# 1 0.005275 -0.002162 -0.001670 0.000000 -0.000504 0.000000
# 2 -0.002162 0.015038 0.000235 0.000000 0.000268 0.000000
# 3 -0.001670 0.000235 0.009416 0.000000 -0.000348 0.000000
# 4 0.000000 0.000000 0.000000 0.054996 0.000000 0.010234
# 5 -0.000504 0.000268 -0.000348 0.000000 0.014183 0.000000
# 6 0.000000 0.000000 0.000000 0.010234 0.000000 0.029187
#
#
# Mechanical properties :
#
#
# Convention : Reuss Voigt Hill
#
# Bulk Modulus (GPa) = 44.37478 60.09634 52.23556
# Shear Modulus (GPa) = 35.01388 47.20033 41.10710
#
# Velocity S-wave (km/s) = 3.65079 4.23877 3.95572
# Velocity P-wave (km/s) = 5.88750 6.84341 6.38337
#
# Compressibility (1/GPa) = 0.02253532
#
# Stress axis : x y z
#
# Youngs Moduli (GPa) = 189.58352 66.49708 106.19716
#
# Poissons Ratio (x) = 0.14378 0.17731
# Poissons Ratio (y) = 0.40991 -0.02493
# Poissons Ratio (z) = 0.31653 -0.01561
#
# Static dielectric constant tensor:
#      x y z
#    x 2.384550 0.000000 0.063320 
#    y 0.000000 2.139030 0.000000 
#    z 0.063320 0.000000 2.098020 
# 
# From -- ./inp_files/187952.got.cif
#   From: 2010.05.17/outbox.cif.g08.bks.cpg/sg15_94_cif.got.tgz:187952.got - 2010.06.03 18:47:42.
