data_PCOD9291510
_publ_section_title
;
Structure prediction by ZEFSAII (Michael W. Deem and Ramdas Pophale) SiO2 
 PCOD9291510
Probable space group: C 2/C
;
_chemical_formula_sum "Si O2"
_cell_formula_units_Z 48
_cell_length_a 32.564630
_cell_length_b 13.627372
_cell_length_c 16.234930
_cell_angle_alpha 90.000000
_cell_angle_beta 18.487579
_cell_angle_gamma 90.000000
_cell_volume 2284.565639
_symmetry_space_group_name_H-M "C 2/C"
_symmetry_group_IT_number 15
_symmetry_cell_setting 'monoclinic'
loop_
_space_group_symop_operation_xyz
x,y,z
-x,y,1/2-z
-x,-y,-z
x,-y,1/2+z
1/2+x,1/2+y,z
1/2-x,1/2+y,1/2-z
1/2-x,1/2-y,-z
1/2+x,1/2-y,1/2+z
loop_
_atom_site_type_symbol
_atom_site_label
_atom_site_fract_x
_atom_site_fract_y
_atom_site_fract_z
Si Si1 0.905905 0.030522 0.606226
Si Si2 0.474125 0.278432 0.895181
Si Si3 0.594245 0.314100 0.952840
Si Si4 0.084498 0.340432 0.331450
Si Si5 0.692614 0.053239 0.134975
Si Si6 0.198541 0.183453 0.438151
O O1 0.976991 0.106591 0.411332
O O2 0.873359 0.927145 0.627537
O O3 0.785910 0.079832 0.881894
O O4 0.000000 0.000000 0.500000
O O5 0.500000 0.259790 0.750000
O O6 0.567882 0.215812 0.776270
O O7 0.328591 0.246742 0.196726
O O8 0.629236 0.237799 0.814628
O O9 0.659665 0.302129 0.916955
O O10 0.438573 0.298405 0.256444
O O11 0.173183 0.436601 0.164547
O O12 0.942028 0.388276 0.619277
O O13 0.754036 0.083153 0.106390
#
# Coordination Sequence:
#
# PCOD9291510 Si02
#       6
#     8   8   8   8   8   8
#     4  12  23  38  63  94 123 164 207 257 316 374
#     4  11  25  42  63  91 129 168 209 263 313 371
#     4  11  23  40  66  93 125 163 212 258 311 380
#     4  10  22  43  67  92 124 171 216 249 315 380
#     4  10  22  42  68  91 127 168 206 263 313 377
#     4  10  23  42  62  92 126 166 207 260 316 369
#
# _framework density 21.010558
#
# number of rings (size 3 to 8) (size 9 to 14) (size 15 to 20)
#    0.000    1.333    3.333    1.000    4.667    6.000 
#    0.000    0.000    7.333    0.000    0.000    0.000 
#    0.000    0.000    0.000    0.000    0.000    0.000 
#
# Total GULP energy -133866.364788 kJ/mol
# GULP energy per Si atom -5577.765199 kJ/mol
# Density = 2.096274 g / cm^3
# Si number density = 21.010558 Si / 1000 Ang^3
#
#
#
# Elastic Constant Matrix: (Units=GPa)
#
#
# Indices 1 2 3 4 5 6 
#
# 1 123.7470 81.5662 35.6921 0.0000 12.7531 0.0000
# 2 81.5662 140.2905 21.3258 0.0000 11.1344 0.0000
# 3 35.6921 21.3258 73.0230 0.0000 -2.1695 0.0000
# 4 0.0000 0.0000 0.0000 21.5812 0.0000 4.9606
# 5 12.7531 11.1344 -2.1695 0.0000 32.9029 0.0000
# 6 0.0000 0.0000 0.0000 4.9606 0.0000 19.5383
#
#
#
# Elastic Compliance Matrix: (Units=1/GPa)
#
#
# Indices 1 2 3 4 5 6 
#
# 1 0.014982 -0.007637 -0.005198 0.000000 -0.003565 0.000000
# 2 -0.007637 0.011595 0.000319 0.000000 -0.000942 0.000000
# 3 -0.005198 0.000319 0.016230 0.000000 0.002977 0.000000
# 4 0.000000 0.000000 0.000000 0.049208 0.000000 -0.012494
# 5 -0.003565 -0.000942 0.002977 0.000000 0.032290 0.000000
# 6 0.000000 0.000000 0.000000 -0.012494 0.000000 0.054354
#
#
# Mechanical properties :
#
#
# Convention : Reuss Voigt Hill
#
# Bulk Modulus (GPa) = 56.26378 68.24761 62.25570
# Shear Modulus (GPa) = 23.85303 28.03624 25.94464
#
# Velocity S-wave (km/s) = 3.37306 3.65689 3.51784
# Velocity P-wave (km/s) = 6.48128 7.09813 6.79671
#
# Compressibility (1/GPa) = 0.01777342
#
# Stress axis : x y z
#
# Youngs Moduli (GPa) = 66.74729 86.24491 61.61249
#
# Poissons Ratio (x) = 0.65869 0.32028
# Poissons Ratio (y) = 0.50978 -0.01964
# Poissons Ratio (z) = 0.34697 -0.02750
#
# Static dielectric constant tensor:
#      x y z
#    x 1.445500 0.000000 -0.113100 
#    y 0.000000 2.111780 0.000000 
#    z -0.113100 0.000000 1.761480 
# 
# From -- ./inp_files/182419.got.cif
#   From: 2010.05.17/outbox.cif.g08.bks.cpg/sg15_92_cif.got.tgz:182419.got - 2010.06.03 18:47:42.
