data_PCOD9291088
_publ_section_title
;
Structure prediction by ZEFSAII (Michael W. Deem and Ramdas Pophale) SiO2 
 PCOD9291088
Probable space group: C 2/C
;
_chemical_formula_sum "Si O2"
_cell_formula_units_Z 52
_cell_length_a 17.550101
_cell_length_b 18.106291
_cell_length_c 14.982379
_cell_angle_alpha 90.000000
_cell_angle_beta 145.983614
_cell_angle_gamma 90.000000
_cell_volume 2663.395301
_symmetry_space_group_name_H-M "C 2/C"
_symmetry_group_IT_number 15
_symmetry_cell_setting 'monoclinic'
loop_
_space_group_symop_operation_xyz
x,y,z
-x,y,1/2-z
-x,-y,-z
x,-y,1/2+z
1/2+x,1/2+y,z
1/2-x,1/2+y,1/2-z
1/2-x,1/2-y,-z
1/2+x,1/2-y,1/2+z
loop_
_atom_site_type_symbol
_atom_site_label
_atom_site_fract_x
_atom_site_fract_y
_atom_site_fract_z
Si Si1 0.865645 0.548768 0.504979
Si Si2 0.000000 0.578115 0.250000
Si Si3 0.046172 0.831366 0.203500
Si Si4 0.345946 0.804126 0.498093
Si Si5 0.119239 0.614731 0.657683
Si Si6 0.650720 0.185429 0.875513
Si Si7 0.362613 0.467865 0.324808
O O1 0.837242 0.609820 0.554339
O O2 0.722716 0.518730 0.327641
O O3 0.957901 0.481391 0.632848
O O4 0.967478 0.585126 0.531234
O O5 0.117286 0.638978 0.385835
O O6 0.187291 0.787945 0.351750
O O7 0.082572 0.893065 0.167582
O O8 0.000000 0.870099 0.250000
O O9 0.932945 0.770038 0.076765
O O10 0.375560 0.846492 0.433421
O O11 0.157490 0.667036 0.777561
O O12 0.239534 0.553696 0.772386
O O13 0.500000 0.213107 0.750000
O O14 0.750000 0.250000 0.000000
O O15 0.500000 0.500000 0.500000
#
# Coordination Sequence:
#
# PCOD9291088 Si02
#       7
#     8   4   8   8   8   8   8
#     4  11  22  42  67  93 125 174 219 256 315 389
#     4  12  20  40  70  94 122 166 228 246 316 386
#     4  11  24  43  59  91 128 166 209 258 323 380
#     4  11  25  38  67  94 127 169 216 262 318 383
#     4  10  22  42  64  91 126 169 220 257 311 382
#     4  10  23  40  66  93 127 170 215 261 319 381
#     4  11  26  40  62  99 129 160 211 273 324 371
#
# _framework density 19.523952000000001
#
# number of rings (size 3 to 8) (size 9 to 14) (size 15 to 20)
#    0.000    1.231    6.154    0.923    0.000   11.077 
#    0.000    0.000    0.000    0.000    0.000    0.000 
#    0.000    0.000    0.000    0.000    0.000    0.000 
#
# Total GULP energy -144740.756904 kJ/mol
# GULP energy per Si atom -5566.952189 kJ/mol
# Density = 1.947951 g / cm^3
# Si number density = 19.523952 Si / 1000 Ang^3
#
#
#
# Elastic Constant Matrix: (Units=GPa)
#
#
# Indices 1 2 3 4 5 6 
#
# 1 53.6088 31.2500 33.6359 0.0000 5.1623 0.0000
# 2 31.2500 99.8610 55.4705 0.0000 8.4499 0.0000
# 3 33.6359 55.4705 137.3782 0.0000 16.0457 0.0000
# 4 0.0000 0.0000 0.0000 32.5970 0.0000 0.9927
# 5 5.1623 8.4499 16.0457 0.0000 23.2873 0.0000
# 6 0.0000 0.0000 0.0000 0.9927 0.0000 12.6776
#
#
#
# Elastic Compliance Matrix: (Units=1/GPa)
#
#
# Indices 1 2 3 4 5 6 
#
# 1 0.024205 -0.005498 -0.003602 0.000000 -0.000888 0.000000
# 2 -0.005498 0.014189 -0.004267 0.000000 -0.000989 0.000000
# 3 -0.003602 -0.004267 0.010451 0.000000 -0.004854 0.000000
# 4 0.000000 0.000000 0.000000 0.030751 0.000000 -0.002408
# 5 -0.000888 -0.000989 -0.004854 0.000000 0.046843 0.000000
# 6 0.000000 0.000000 0.000000 -0.002408 0.000000 0.079068
#
#
# Mechanical properties :
#
#
# Convention : Reuss Voigt Hill
#
# Bulk Modulus (GPa) = 45.23166 59.06232 52.14699
# Shear Modulus (GPa) = 20.86714 25.07847 22.97281
#
# Velocity S-wave (km/s) = 3.27279 3.58788 3.43395
# Velocity P-wave (km/s) = 6.12365 6.89062 6.51843
#
# Compressibility (1/GPa) = 0.02210841
#
# Stress axis : x y z
#
# Youngs Moduli (GPa) = 41.31448 70.47901 95.68239
#
# Poissons Ratio (x) = 0.38751 0.34469
# Poissons Ratio (y) = 0.22716 0.40831
# Poissons Ratio (z) = 0.14883 0.30076
#
# Static dielectric constant tensor:
#      x y z
#    x 1.690820 0.000000 -0.058240 
#    y 0.000000 1.710880 0.000000 
#    z -0.058240 0.000000 1.732240 
# 
# From -- ./inp_files/163640.got.cif
#   From: 2010.05.17/outbox.cif.g08.bks.cpg/sg15_82_cif.got.tgz:163640.got - 2010.06.03 18:47:42.
