data_PCOD9291008
_publ_section_title
;
Structure prediction by ZEFSAII (Michael W. Deem and Ramdas Pophale) SiO2 
 PCOD9291008
Probable space group: C 2/C
;
_chemical_formula_sum "Si O2"
_cell_formula_units_Z 64
_cell_length_a 20.530392
_cell_length_b 18.014049
_cell_length_c 24.936246
_cell_angle_alpha 90.000000
_cell_angle_beta 159.115544
_cell_angle_gamma 90.000000
_cell_volume 3287.610493
_symmetry_space_group_name_H-M "C 2/C"
_symmetry_group_IT_number 15
_symmetry_cell_setting 'monoclinic'
loop_
_space_group_symop_operation_xyz
x,y,z
-x,y,1/2-z
-x,-y,-z
x,-y,1/2+z
1/2+x,1/2+y,z
1/2-x,1/2+y,1/2-z
1/2-x,1/2-y,-z
1/2+x,1/2-y,1/2+z
loop_
_atom_site_type_symbol
_atom_site_label
_atom_site_fract_x
_atom_site_fract_y
_atom_site_fract_z
Si Si1 0.589208 0.333597 0.156926
Si Si2 0.052469 0.655561 0.123177
Si Si3 0.466694 0.061117 0.787938
Si Si4 0.319436 0.453100 0.635868
Si Si5 0.384037 0.194717 0.796810
Si Si6 0.158865 0.051844 0.094339
Si Si7 0.346144 0.623141 0.671727
Si Si8 0.176931 0.661456 0.105156
O O1 0.558426 0.244834 0.131040
O O2 0.742958 0.344502 0.229440
O O3 0.636110 0.347432 0.254602
O O4 0.432471 0.391134 0.018318
O O5 0.224252 0.608028 0.277286
O O6 0.050417 0.640087 0.057915
O O7 0.863996 0.634220 0.006987
O O8 0.500000 0.058597 0.750000
O O9 0.406197 0.142554 0.762412
O O10 0.308562 0.003197 0.683392
O O11 0.652246 0.045414 0.964901
O O12 0.500000 0.416133 0.750000
O O13 0.373279 0.535388 0.694031
O O14 0.262759 0.410665 0.645552
O O15 0.317217 0.276955 0.733124
O O16 0.566990 0.198356 0.972008
O O17 0.000000 0.000000 0.000000
O O18 0.500000 0.654966 0.750000
#
# Coordination Sequence:
#
# PCOD9291008 Si02
#       8
#     8   8   8   8   8   8   8   8
#     4  11  24  42  67  97 133 172 219 275 328 397
#     4  11  24  44  67  98 132 174 222 274 331 397
#     4  11  25  43  66  96 137 172 221 281 330 399
#     4  10  24  43  64  94 129 178 219 263 337 395
#     4  10  22  42  63 100 128 175 217 268 338 394
#     4  12  26  41  69 101 134 176 225 274 339 395
#     4  11  24  43  66  93 129 172 223 275 329 392
#     4  10  23  39  69  94 134 171 220 275 325 406
#
# _framework density 19.467026000000001
#
# number of rings (size 3 to 8) (size 9 to 14) (size 15 to 20)
#    0.000    1.250    3.750    0.750   10.500    2.500 
#    0.000    3.750    0.000    0.000    0.000    0.000 
#    0.000    0.000    0.000    0.000    0.000    0.000 
#
# Total GULP energy -178419.379991 kJ/mol
# GULP energy per Si atom -5575.605625 kJ/mol
# Density = 1.942272 g / cm^3
# Si number density = 19.467026 Si / 1000 Ang^3
#
#
#
# Elastic Constant Matrix: (Units=GPa)
#
#
# Indices 1 2 3 4 5 6 
#
# 1 125.4008 33.9728 30.9308 -0.0244 12.3161 -0.0119
# 2 33.9728 42.3704 22.1548 -0.2479 8.2341 -0.0947
# 3 30.9308 22.1548 64.1402 -0.1227 17.7655 -0.0599
# 4 -0.0244 -0.2479 -0.1227 -11.9714 -0.0348 -10.9264
# 5 12.3161 8.2341 17.7655 -0.0348 27.6452 -0.0093
# 6 -0.0119 -0.0947 -0.0599 -10.9264 -0.0093 19.8413
#
#
#
# Elastic Compliance Matrix: (Units=1/GPa)
#
#
# Indices 1 2 3 4 5 6 
#
# 1 0.010568 -0.007022 -0.002367 0.000122 -0.001095 0.000032
# 2 -0.007022 0.033629 -0.007691 -0.000478 -0.001946 -0.000131
# 3 -0.002367 -0.007691 0.022460 -0.000037 -0.011088 0.000004
# 4 0.000122 -0.000478 -0.000037 -0.055583 0.000032 -0.030611
# 5 -0.001095 -0.001946 -0.011088 0.000032 0.044366 -0.000005
# 6 0.000032 -0.000131 0.000004 -0.030611 -0.000005 0.033542
#
#
# Mechanical properties :
#
#
# Convention : Reuss Voigt Hill
#
# Bulk Modulus (GPa) = 30.77376 45.11425 37.94401
# Shear Modulus (GPa) = 37.32033 16.75989 27.04011
#
# Velocity S-wave (km/s) = 4.38323 2.93736 3.73100
# Velocity P-wave (km/s) = 6.43889 5.89314 6.17205
#
# Compressibility (1/GPa) = 0.03249521
#
# Stress axis : x y z
#
# Youngs Moduli (GPa) = 94.62207 29.73657 44.52318
#
# Poissons Ratio (x) = 0.20882 0.10540
# Poissons Ratio (y) = 0.66447 0.34245
# Poissons Ratio (z) = 0.22399 0.22872
#
# Static dielectric constant tensor:
#      x y z
#    x 1.709040 -0.000010 0.049140 
#    y -0.000010 1.672390 -0.000020 
#    z 0.049140 -0.000020 1.736910 
# 
# From -- ./inp_files/70590.got.cif
#   From: 2010.05.17/outbox.cif.g08.bks.cpg/sg15_36_cif.got.tgz:70590.got - 2010.06.03 18:47:42.
