data_PCOD9291156
_publ_section_title
;
Structure prediction by ZEFSAII (Michael W. Deem and Ramdas Pophale) SiO2 
 PCOD9291156
Probable space group: C 2/C
;
_chemical_formula_sum "Si O2"
_cell_formula_units_Z 56
_cell_length_a 18.016516
_cell_length_b 14.484085
_cell_length_c 12.073529
_cell_angle_alpha 90.000000
_cell_angle_beta 127.000376
_cell_angle_gamma 90.000000
_cell_volume 2516.185034
_symmetry_space_group_name_H-M "C 2/C"
_symmetry_group_IT_number 15
_symmetry_cell_setting 'monoclinic'
loop_
_space_group_symop_operation_xyz
x,y,z
-x,y,1/2-z
-x,-y,-z
x,-y,1/2+z
1/2+x,1/2+y,z
1/2-x,1/2+y,1/2-z
1/2-x,1/2-y,-z
1/2+x,1/2-y,1/2+z
loop_
_atom_site_type_symbol
_atom_site_label
_atom_site_fract_x
_atom_site_fract_y
_atom_site_fract_z
Si Si1 0.887441 0.005324 0.402623
Si Si2 0.893316 0.968659 0.664160
Si Si3 0.285888 0.090175 0.228009
Si Si4 0.123060 0.389905 0.149292
Si Si5 0.914541 0.617014 0.539908
Si Si6 0.850254 0.241953 0.145956
Si Si7 0.105736 0.417988 0.886242
O O1 0.858908 0.978062 0.247188
O O2 0.824093 0.097268 0.357683
O O3 0.861447 0.967929 0.504954
O O4 0.000000 0.000000 0.500000
O O5 0.882613 0.862075 0.687664
O O6 0.000000 0.997841 0.750000
O O7 0.344266 0.137280 0.377253
O O8 0.324365 0.116693 0.143688
O O9 0.317236 0.981837 0.272508
O O10 0.153001 0.302933 0.246995
O O11 0.015853 0.409561 0.086639
O O12 0.122318 0.371761 0.018611
O O13 0.916003 0.704924 0.618332
O O14 0.879673 0.527988 0.577629
O O15 0.750000 0.250000 0.000000
O O16 0.000000 0.406576 0.750000
#
# Coordination Sequence:
#
# PCOD9291156 Si02
#       7
#     8   8   8   8   8   8   8
#     4  10  23  41  62  89 115 158 212 267 311 364
#     4  10  22  42  65  83 112 153 207 261 311 362
#     4  11  20  33  59  90 126 165 201 247 301 370
#     4  11  21  33  57  88 126 162 199 248 304 369
#     4  11  20  34  57  89 127 160 199 247 303 369
#     4  12  23  37  58  89 122 161 204 253 310 375
#     4  11  18  34  56  91 128 164 199 241 304 372
#
# _framework density 22.255915999999999
#
# number of rings (size 3 to 8) (size 9 to 14) (size 15 to 20)
#    0.000    1.143    4.286    3.857    4.000    0.000 
#    0.000    0.000    3.143    2.571    0.000    0.000 
#    0.000    0.000    0.000    0.000    0.000    0.000 
#
# Total GULP energy -155991.412692 kJ/mol
# GULP energy per Si atom -5571.121882 kJ/mol
# Density = 2.220526 g / cm^3
# Si number density = 22.255916 Si / 1000 Ang^3
#
#
#
# Elastic Constant Matrix: (Units=GPa)
#
#
# Indices 1 2 3 4 5 6 
#
# 1 115.3707 3.8783 51.6116 0.0000 -25.1881 0.0000
# 2 3.8783 42.9238 31.2895 0.0000 -19.8911 0.0000
# 3 51.6116 31.2895 153.5392 0.0000 -48.7090 0.0000
# 4 0.0000 0.0000 0.0000 29.6458 0.0000 -7.5685
# 5 -25.1881 -19.8911 -48.7090 0.0000 59.7736 0.0000
# 6 0.0000 0.0000 0.0000 -7.5685 0.0000 16.2794
#
#
#
# Elastic Compliance Matrix: (Units=1/GPa)
#
#
# Indices 1 2 3 4 5 6 
#
# 1 0.010627 0.002671 -0.003255 0.000000 0.002714 0.000000
# 2 0.002671 0.029820 -0.004679 0.000000 0.007236 0.000000
# 3 -0.003255 -0.004679 0.010292 0.000000 0.005458 0.000000
# 4 0.000000 0.000000 0.000000 0.038274 0.000000 0.017794
# 5 0.002714 0.007236 0.005458 0.000000 0.024729 0.000000
# 6 0.000000 0.000000 0.000000 0.017794 0.000000 0.069700
#
#
# Mechanical properties :
#
#
# Convention : Reuss Voigt Hill
#
# Bulk Modulus (GPa) = 24.86894 53.93251 39.40072
# Shear Modulus (GPa) = 24.11097 36.14338 30.12717
#
# Velocity S-wave (km/s) = 3.29500 4.03425 3.68322
# Velocity P-wave (km/s) = 5.06699 6.78128 5.98582
#
# Compressibility (1/GPa) = 0.04021080
#
# Stress axis : x y z
#
# Youngs Moduli (GPa) = 94.10195 33.53488 97.15856
#
# Poissons Ratio (x) = -0.08956 0.31629
# Poissons Ratio (y) = -0.25130 0.45462
# Poissons Ratio (z) = 0.30634 0.15692
#
# Static dielectric constant tensor:
#      x y z
#    x 1.898680 0.000000 -0.000390 
#    y 0.000000 1.784250 0.000000 
#    z -0.000390 0.000000 1.917410 
# 
# From -- ./inp_files/105787.got.cif
#   From: 2010.05.17/outbox.cif.g08.bks.cpg/sg15_53_cif.got.tgz:105787.got - 2010.06.03 18:47:42.
