data_PCOD9291370
_publ_section_title
;
Structure prediction by ZEFSAII (Michael W. Deem and Ramdas Pophale) SiO2 
 PCOD9291370
Probable space group: C 2/C
;
_chemical_formula_sum "Si O2"
_cell_formula_units_Z 48
_cell_length_a 8.859252
_cell_length_b 15.853123
_cell_length_c 25.849285
_cell_angle_alpha 90.000000
_cell_angle_beta 38.028381
_cell_angle_gamma 90.000000
_cell_volume 2236.544811
_symmetry_space_group_name_H-M "C 2/C"
_symmetry_group_IT_number 15
_symmetry_cell_setting 'monoclinic'
loop_
_space_group_symop_operation_xyz
x,y,z
-x,y,1/2-z
-x,-y,-z
x,-y,1/2+z
1/2+x,1/2+y,z
1/2-x,1/2+y,1/2-z
1/2-x,1/2-y,-z
1/2+x,1/2-y,1/2+z
loop_
_atom_site_type_symbol
_atom_site_label
_atom_site_fract_x
_atom_site_fract_y
_atom_site_fract_z
Si Si1 0.575491 0.927798 0.937691
Si Si2 0.500000 0.630210 0.750000
Si Si3 0.904439 0.000232 0.688673
Si Si4 0.427824 0.559603 0.971412
Si Si5 0.890338 0.766276 0.625352
Si Si6 0.500000 0.091225 0.250000
Si Si7 0.864556 0.764224 0.049725
O O1 0.542633 0.829625 0.961688
O O2 0.369044 0.939890 0.949959
O O3 0.866471 0.943646 0.852145
O O4 0.500000 0.000000 0.000000
O O5 0.398302 0.576092 0.730406
O O6 0.711394 0.687631 0.668952
O O7 0.976390 0.024484 0.609983
O O8 0.631479 0.962898 0.758583
O O9 0.537435 0.654700 0.946022
O O10 0.500000 0.500000 0.000000
O O11 0.722070 0.847652 0.675744
O O12 0.043607 0.781825 0.532854
O O13 0.071660 0.746528 0.623867
#
# Coordination Sequence:
#
# PCOD9291370 Si02
#       7
#     8   4   8   8   8   4   8
#     4  10  22  42  66  99 133 172 225 285 339 397
#     4  11  26  44  66  95 142 188 218 279 340 431
#     4  11  25  43  67  97 139 181 226 276 349 413
#     4  11  25  40  73 106 134 171 231 294 343 401
#     4  10  23  41  69  97 133 181 226 273 349 403
#     4  11  22  44  64  99 140 180 224 275 344 421
#     4  11  22  42  71 101 132 175 230 291 333 400
#
# _framework density 21.461676000000001
#
# number of rings (size 3 to 8) (size 9 to 14) (size 15 to 20)
#    0.000    1.333    1.667    3.500   11.667    1.333 
#    0.000    1.667    0.000    0.000    0.000    0.000 
#    0.000    0.000    0.000    0.000    0.000    0.000 
#
# Total GULP energy -133853.753892 kJ/mol
# GULP energy per Si atom -5577.239745 kJ/mol
# Density = 2.141283 g / cm^3
# Si number density = 21.461676 Si / 1000 Ang^3
#
#
#
# Elastic Constant Matrix: (Units=GPa)
#
#
# Indices 1 2 3 4 5 6 
#
# 1 154.6464 67.6547 26.4180 -0.0002 -38.5481 -0.0004
# 2 67.6547 139.6298 10.8462 -0.0021 -12.4087 0.0013
# 3 26.4180 10.8462 39.1450 -0.0066 -10.4662 0.0049
# 4 -0.0002 -0.0021 -0.0066 3.3062 0.0016 -3.0036
# 5 -38.5481 -12.4087 -10.4662 0.0016 43.6302 0.0001
# 6 -0.0004 0.0013 0.0049 -3.0036 0.0001 23.4225
#
#
#
# Elastic Compliance Matrix: (Units=1/GPa)
#
#
# Indices 1 2 3 4 5 6 
#
# 1 0.010912 -0.004303 -0.004190 -0.000015 0.007412 -0.000001
# 2 -0.004303 0.009137 0.000054 0.000006 -0.001190 0.000000
# 3 -0.004190 0.000054 0.029249 0.000058 0.003330 0.000001
# 4 -0.000015 0.000006 0.000058 0.342340 -0.000010 0.043900
# 5 0.007412 -0.001190 0.003330 -0.000010 0.029929 -0.000002
# 6 -0.000001 0.000000 0.000001 0.043900 -0.000002 0.048323
#
#
# Mechanical properties :
#
#
# Convention : Reuss Voigt Hill
#
# Bulk Modulus (GPa) = 30.84530 60.36210 45.60370
# Shear Modulus (GPa) = 10.04873 29.30526 19.67699
#
# Velocity S-wave (km/s) = 2.16618 3.69923 3.03123
# Velocity P-wave (km/s) = 4.54532 6.81413 5.79190
#
# Compressibility (1/GPa) = 0.03241985
#
# Stress axis : x y z
#
# Youngs Moduli (GPa) = 91.63925 109.44754 34.18890
#
# Poissons Ratio (x) = 0.47097 0.14326
# Poissons Ratio (y) = 0.39434 -0.00185
# Poissons Ratio (z) = 0.38400 -0.00594
#
# Static dielectric constant tensor:
#      x y z
#    x 1.787910 0.000010 -0.033810 
#    y 0.000010 1.826090 0.000000 
#    z -0.033810 0.000000 1.800730 
# 
# From -- ./inp_files/289059.got.cif
#   From: 2010.05.17/outbox.cif.g08.bks.cpg/sg15_145_cif.got.tgz:289059.got - 2010.06.03 18:47:42.
