data_PCOD9291788
_publ_section_title
;
Structure prediction by ZEFSAII (Michael W. Deem and Ramdas Pophale) SiO2 
 PCOD9291788
Probable space group: C 2/C
;
_chemical_formula_sum "Si O2"
_cell_formula_units_Z 64
_cell_length_a 13.739724
_cell_length_b 17.116420
_cell_length_c 22.393541
_cell_angle_alpha 90.000000
_cell_angle_beta 150.825594
_cell_angle_gamma 90.000000
_cell_volume 2567.209557
_symmetry_space_group_name_H-M "C 2/C"
_symmetry_group_IT_number 15
_symmetry_cell_setting 'monoclinic'
loop_
_space_group_symop_operation_xyz
x,y,z
-x,y,1/2-z
-x,-y,-z
x,-y,1/2+z
1/2+x,1/2+y,z
1/2-x,1/2+y,1/2-z
1/2-x,1/2-y,-z
1/2+x,1/2-y,1/2+z
loop_
_atom_site_type_symbol
_atom_site_label
_atom_site_fract_x
_atom_site_fract_y
_atom_site_fract_z
Si Si1 0.953909 0.758696 0.511731
Si Si2 0.009009 0.910722 0.899459
Si Si3 0.295631 0.970926 0.560297
Si Si4 0.265672 0.440199 0.139053
Si Si5 0.126639 0.201367 0.981513
Si Si6 0.665849 0.113629 0.121139
Si Si7 0.297784 0.843825 0.274958
Si Si8 0.795600 0.514364 0.698025
O O1 0.901389 0.842350 0.511433
O O2 0.122183 0.776924 0.549828
O O3 0.031215 0.711399 0.610444
O O4 0.814631 0.694391 0.405503
O O5 0.831635 0.881019 0.762086
O O6 0.904499 0.976566 0.884431
O O7 0.181141 0.963210 0.961186
O O8 0.301148 0.001297 0.631239
O O9 0.529624 0.968442 0.673263
O O10 0.194242 0.887518 0.508088
O O11 0.500000 0.423794 0.250000
O O12 0.225729 0.532654 0.120678
O O13 0.236955 0.405541 0.190166
O O14 0.079620 0.399265 0.002859
O O15 0.250000 0.250000 0.000000
O O16 0.898307 0.206919 0.839371
O O17 0.323855 0.895875 0.230631
#
# Coordination Sequence:
#
# PCOD9291788 Si02
#       8
#     8   8   8   8   8   8   8   8
#     4  11  26  43  66  99 148 183 229 300 363 418
#     4  12  22  46  73  99 142 187 242 289 356 431
#     4  11  25  43  75 105 133 189 241 291 347 435
#     4  10  22  42  71  99 142 182 236 291 349 439
#     4  12  26  39  67 106 144 180 233 288 368 428
#     4  10  23  42  65 104 133 189 228 291 360 414
#     4  11  24  44  67 102 140 190 226 300 361 417
#     4  11  23  44  71 102 139 180 242 288 350 431
#
# _framework density 24.929791000000002
#
# number of rings (size 3 to 8) (size 9 to 14) (size 15 to 20)
#    0.000    1.000    3.750    1.875    7.000    1.000 
#    0.000    0.625    5.500    0.000    0.000    0.000 
#    0.000    0.000    0.000    0.000    0.000    0.000 
#
# Total GULP energy -178841.502505 kJ/mol
# GULP energy per Si atom -5588.796953 kJ/mol
# Density = 2.487305 g / cm^3
# Si number density = 24.929791 Si / 1000 Ang^3
#
#
#
# Elastic Constant Matrix: (Units=GPa)
#
#
# Indices 1 2 3 4 5 6 
#
# 1 31.0160 12.1353 9.3482 0.0012 -20.7344 0.0000
# 2 12.1353 150.4120 29.0480 0.0012 -16.2616 0.0000
# 3 9.3482 29.0480 144.5053 0.0073 -9.9809 0.0002
# 4 0.0012 0.0012 0.0073 40.0179 0.0017 -4.8808
# 5 -20.7344 -16.2616 -9.9809 0.0017 30.2371 0.0000
# 6 0.0000 0.0000 0.0002 -4.8808 0.0000 33.0840
#
#
#
# Elastic Compliance Matrix: (Units=1/GPa)
#
#
# Indices 1 2 3 4 5 6 
#
# 1 0.059697 -0.000245 -0.001018 -0.000003 0.040469 -0.000001
# 2 -0.000245 0.007263 -0.001214 0.000000 0.003338 0.000000
# 3 -0.001018 -0.001214 0.007303 -0.000001 0.001060 0.000000
# 4 -0.000003 0.000000 -0.000001 0.025447 -0.000004 0.003754
# 5 0.040469 0.003338 0.001060 -0.000004 0.062967 -0.000001
# 6 -0.000001 0.000000 0.000000 0.003754 -0.000001 0.030780
#
#
# Mechanical properties :
#
#
# Convention : Reuss Voigt Hill
#
# Bulk Modulus (GPa) = 14.42750 47.44404 30.93577
# Shear Modulus (GPa) = 22.57195 39.02793 30.79994
#
# Velocity S-wave (km/s) = 3.01229 3.96095 3.51873
# Velocity P-wave (km/s) = 4.23064 6.32386 5.38003
#
# Compressibility (1/GPa) = 0.06931207
#
# Stress axis : x y z
#
# Youngs Moduli (GPa) = 16.75117 137.67637 136.92645
#
# Poissons Ratio (x) = 0.03368 0.13933
# Poissons Ratio (y) = 0.00410 0.16619
# Poissons Ratio (z) = 0.01705 0.16710
#
# Static dielectric constant tensor:
#      x y z
#    x 2.027250 0.000000 0.015470 
#    y 0.000000 1.823830 0.000000 
#    z 0.015470 0.000000 2.041220 
# 
# From -- ./inp_files/274859.got.cif
#   From: 2010.05.17/outbox.cif.g08.bks.cpg/sg15_138_cif.got.tgz:274859.got - 2010.06.03 18:47:42.
