data_PCOD9291113
_publ_section_title
;
Structure prediction by ZEFSAII (Michael W. Deem and Ramdas Pophale) SiO2 
 PCOD9291113
Probable space group: C 2/C
;
_chemical_formula_sum "Si O2"
_cell_formula_units_Z 56
_cell_length_a 19.040943
_cell_length_b 23.366724
_cell_length_c 10.440685
_cell_angle_alpha 90.000000
_cell_angle_beta 143.299196
_cell_angle_gamma 90.000000
_cell_volume 2776.210001
_symmetry_space_group_name_H-M "C 2/C"
_symmetry_group_IT_number 15
_symmetry_cell_setting 'monoclinic'
loop_
_space_group_symop_operation_xyz
x,y,z
-x,y,1/2-z
-x,-y,-z
x,-y,1/2+z
1/2+x,1/2+y,z
1/2-x,1/2+y,1/2-z
1/2-x,1/2-y,-z
1/2+x,1/2-y,1/2+z
loop_
_atom_site_type_symbol
_atom_site_label
_atom_site_fract_x
_atom_site_fract_y
_atom_site_fract_z
Si Si1 0.372642 0.113870 0.714759
Si Si2 0.722914 0.705867 0.072422
Si Si3 0.137297 0.947150 0.876690
Si Si4 0.361897 0.891210 0.901233
Si Si5 0.500000 0.629368 0.750000
Si Si6 0.243937 0.220179 0.630427
Si Si7 0.500000 0.339475 0.750000
Si Si8 0.132617 0.034039 0.090421
O O1 0.275213 0.065790 0.589322
O O2 0.362316 0.131491 0.549235
O O3 0.329841 0.165777 0.740837
O O4 0.504128 0.092967 0.930911
O O5 0.822217 0.658618 0.247296
O O6 0.712069 0.739781 0.190866
O O7 0.750000 0.750000 0.000000
O O8 0.607096 0.669962 0.868786
O O9 0.071400 0.885743 0.767465
O O10 0.121090 0.981091 0.721870
O O11 0.107817 0.981269 0.961658
O O12 0.263785 0.940820 0.755986
O O13 0.451671 0.586820 0.570338
O O14 0.250000 0.250000 0.500000
O O15 0.108560 0.199249 0.458536
#
# Coordination Sequence:
#
# PCOD9291113 Si02
#       8
#     8   8   8   8   4   8   4   8
#     4   9  19  38  64  88 120 155 211 247 289 364
#     4  11  25  38  58  86 124 165 198 241 306 355
#     4  10  22  42  64  95 121 158 201 258 310 360
#     4   9  19  39  62  88 120 162 200 248 300 361
#     4  10  25  42  60  88 124 164 203 246 298 372
#     4  11  23  38  62  90 118 161 206 252 288 353
#     4  10  25  38  64  96 120 156 213 252 292 364
#     4  10  22  42  66  90 123 159 203 254 312 359
#
# _framework density 20.171385000000001
#
# number of rings (size 3 to 8) (size 9 to 14) (size 15 to 20)
#    0.000    2.000    1.429    0.429    8.000    2.857 
#    7.714    0.000    0.000    0.000    0.000    0.000 
#    0.000    0.000    0.000    0.000    0.000    0.000 
#
# Total GULP energy -156209.003495 kJ/mol
# GULP energy per Si atom -5578.892982 kJ/mol
# Density = 2.012547 g / cm^3
# Si number density = 20.171385 Si / 1000 Ang^3
#
#
#
# Elastic Constant Matrix: (Units=GPa)
#
#
# Indices 1 2 3 4 5 6 
#
# 1 81.6643 24.7308 38.5158 0.0000 -1.7684 0.0000
# 2 24.7308 55.8297 27.1551 0.0000 1.1702 0.0000
# 3 38.5158 27.1551 109.3478 0.0000 27.4733 0.0000
# 4 0.0000 0.0000 0.0000 7.1078 0.0000 -3.2409
# 5 -1.7684 1.1702 27.4733 0.0000 37.7663 0.0000
# 6 0.0000 0.0000 0.0000 -3.2409 0.0000 27.5793
#
#
#
# Elastic Compliance Matrix: (Units=1/GPa)
#
#
# Indices 1 2 3 4 5 6 
#
# 1 0.016584 -0.004511 -0.006059 0.000000 0.005324 0.000000
# 2 -0.004511 0.022038 -0.004478 0.000000 0.002363 0.000000
# 3 -0.006059 -0.004478 0.015207 0.000000 -0.011207 0.000000
# 4 0.000000 0.000000 0.000000 0.148656 0.000000 0.017469
# 5 0.005324 0.002363 -0.011207 0.000000 0.034808 0.000000
# 6 0.000000 0.000000 0.000000 0.017469 0.000000 0.038312
#
#
# Mechanical properties :
#
#
# Convention : Reuss Voigt Hill
#
# Bulk Modulus (GPa) = 42.13295 47.51614 44.82454
# Shear Modulus (GPa) = 15.94330 24.92003 20.43166
#
# Velocity S-wave (km/s) = 2.81444 3.51866 3.18607
# Velocity P-wave (km/s) = 5.61197 6.33366 5.98371
#
# Compressibility (1/GPa) = 0.02373439
#
# Stress axis : x y z
#
# Youngs Moduli (GPa) = 60.29848 45.37570 65.75869
#
# Poissons Ratio (x) = 0.20468 0.39842
# Poissons Ratio (y) = 0.27200 0.29446
# Poissons Ratio (z) = 0.36534 0.20318
#
# Static dielectric constant tensor:
#      x y z
#    x 1.722510 0.000000 0.027860 
#    y 0.000000 1.711830 0.000000 
#    z 0.027860 0.000000 1.733840 
# 
# From -- ./inp_files/114781.got.cif
#   From: 2010.05.17/outbox.cif.g08.bks.cpg/sg15_58_cif.got.tgz:114781.got - 2010.06.03 18:47:42.
