data_PCOD9291423
_publ_section_title
;
Structure prediction by ZEFSAII (Michael W. Deem and Ramdas Pophale) SiO2 
 PCOD9291423
Probable space group: C 2/C
;
_chemical_formula_sum "Si O2"
_cell_formula_units_Z 44
_cell_length_a 11.892347
_cell_length_b 18.052360
_cell_length_c 9.547713
_cell_angle_alpha 90.000000
_cell_angle_beta 112.991249
_cell_angle_gamma 90.000000
_cell_volume 1886.927209
_symmetry_space_group_name_H-M "C 2/C"
_symmetry_group_IT_number 15
_symmetry_cell_setting 'monoclinic'
loop_
_space_group_symop_operation_xyz
x,y,z
-x,y,1/2-z
-x,-y,-z
x,-y,1/2+z
1/2+x,1/2+y,z
1/2-x,1/2+y,1/2-z
1/2-x,1/2-y,-z
1/2+x,1/2-y,1/2+z
loop_
_atom_site_type_symbol
_atom_site_label
_atom_site_fract_x
_atom_site_fract_y
_atom_site_fract_z
Si Si1 0.500000 0.489871 0.250000
Si Si2 0.350809 0.434569 0.435910
Si Si3 0.383919 0.177153 0.428890
Si Si4 0.700637 0.199936 0.820109
Si Si5 0.634561 0.951421 0.774864
Si Si6 0.851535 0.311941 0.516039
O O1 0.436099 0.442683 0.340863
O O2 0.589911 0.539106 0.389587
O O3 0.311209 0.350576 0.429061
O O4 0.235558 0.486668 0.343359
O O5 0.393188 0.193175 0.598379
O O6 0.260101 0.219773 0.325505
O O7 0.373224 0.091101 0.378578
O O8 0.504164 0.208659 0.409328
O O9 0.663479 0.167454 0.653823
O O10 0.500000 0.979275 0.750000
O O11 0.665027 0.883354 0.894831
O O12 0.750000 0.250000 0.500000
#
# Coordination Sequence:
#
# PCOD9291423 Si02
#       6
#     4   8   8   8   8   8
#     4  10  24  42  62  98 130 172 214 268 320 400
#     4  11  23  43  66  96 133 170 221 263 334 383
#     4  10  23  41  60  94 128 164 219 262 324 380
#     4  11  23  41  63  92 126 172 211 267 323 386
#     4  10  22  42  67  95 129 171 217 273 316 384
#     4  11  22  39  65  92 125 168 217 266 317 385
#
# _framework density 23.318335000000001
#
# number of rings (size 3 to 8) (size 9 to 14) (size 15 to 20)
#    0.000    1.455    1.818    2.727    0.000    5.818 
#    6.545    4.545    0.000    0.000    0.000    0.000 
#    0.000    0.000    0.000    0.000    0.000    0.000 
#
# Total GULP energy -122934.524496 kJ/mol
# GULP energy per Si atom -5587.932932 kJ/mol
# Density = 2.326526 g / cm^3
# Si number density = 23.318335 Si / 1000 Ang^3
#
#
#
# Elastic Constant Matrix: (Units=GPa)
#
#
# Indices 1 2 3 4 5 6 
#
# 1 83.5835 21.3031 26.3008 0.0000 -8.4687 0.0000
# 2 21.3031 36.9830 5.7342 0.0000 -3.7630 0.0000
# 3 26.3008 5.7342 124.4797 0.0000 -18.4514 0.0000
# 4 0.0000 0.0000 0.0000 0.4169 0.0000 -31.5916
# 5 -8.4687 -3.7630 -18.4514 0.0000 34.6935 0.0000
# 6 0.0000 0.0000 0.0000 -31.5916 0.0000 -54.9244
#
#
#
# Elastic Compliance Matrix: (Units=1/GPa)
#
#
# Indices 1 2 3 4 5 6 
#
# 1 0.014980 -0.008085 -0.002584 0.000000 0.001405 0.000000
# 2 -0.008085 0.031796 0.000502 0.000000 0.001742 0.000000
# 3 -0.002584 0.000502 0.009196 0.000000 0.004314 0.000000
# 4 0.000000 0.000000 0.000000 0.053799 0.000000 -0.030944
# 5 0.001405 0.001742 0.004314 0.000000 0.031650 0.000000
# 6 0.000000 0.000000 0.000000 -0.030944 0.000000 -0.000408
#
#
# Mechanical properties :
#
#
# Convention : Reuss Voigt Hill
#
# Bulk Modulus (GPa) = 28.06102 39.08027 33.57064
# Shear Modulus (GPa) = 28.86370 8.81774 18.84072
#
# Velocity S-wave (km/s) = 3.52207 1.94671 2.84558
# Velocity P-wave (km/s) = 5.34790 4.67426 5.02239
#
# Compressibility (1/GPa) = 0.03563663
#
# Stress axis : x y z
#
# Youngs Moduli (GPa) = 66.75383 31.45029 108.74442
#
# Poissons Ratio (x) = 0.25429 0.28104
# Poissons Ratio (y) = 0.53973 -0.05457
# Poissons Ratio (z) = 0.17252 -0.01578
#
# Static dielectric constant tensor:
#      x y z
#    x 1.917700 0.000000 0.010300 
#    y 0.000000 1.825950 0.000000 
#    z 0.010300 0.000000 1.931980 
# 
# From -- ./inp_files/30821.got.cif
#   From: 2010.05.17/outbox.cif.g08.bks.cpg/sg15_16_cif.got.tgz:30821.got - 2010.06.03 18:47:42.
