data_PCOD9291615
_publ_section_title
;
Structure prediction by ZEFSAII (Michael W. Deem and Ramdas Pophale) SiO2 
 PCOD9291615
Probable space group: C 2/C
;
_chemical_formula_sum "Si O2"
_cell_formula_units_Z 32
_cell_length_a 9.929804
_cell_length_b 14.528123
_cell_length_c 10.691245
_cell_angle_alpha 90.000000
_cell_angle_beta 125.613740
_cell_angle_gamma 90.000000
_cell_volume 1253.857704
_symmetry_space_group_name_H-M "C 2/C"
_symmetry_group_IT_number 15
_symmetry_cell_setting 'monoclinic'
loop_
_space_group_symop_operation_xyz
x,y,z
-x,y,1/2-z
-x,-y,-z
x,-y,1/2+z
1/2+x,1/2+y,z
1/2-x,1/2+y,1/2-z
1/2-x,1/2-y,-z
1/2+x,1/2-y,1/2+z
loop_
_atom_site_type_symbol
_atom_site_label
_atom_site_fract_x
_atom_site_fract_y
_atom_site_fract_z
Si Si1 0.249586 0.781142 0.815379
Si Si2 0.289817 0.577725 0.796361
Si Si3 0.590520 0.704358 0.978767
Si Si4 0.181258 0.045223 0.408563
O O1 0.196267 0.674370 0.772775
O O2 0.446594 0.780618 0.901702
O O3 0.152787 0.825399 0.647813
O O4 0.219361 0.845378 0.916422
O O5 0.476177 0.619342 0.870709
O O6 0.226331 0.520815 0.642354
O O7 0.292777 0.525317 0.930904
O O8 0.750000 0.750000 0.000000
O O9 0.000000 0.041996 0.250000
#
# Coordination Sequence:
#
# PCOD9291615 Si02
#       4
#     8   8   8   8
#     4  10  23  42  71 104 143 193 241 301 364 436
#     4  10  26  39  77 103 147 191 249 294 369 439
#     4  10  22  42  69 104 141 191 246 295 365 432
#     4  12  22  45  68 111 141 191 245 299 364 442
#
# _framework density 25.521239000000001
#
# number of rings (size 3 to 8) (size 9 to 14) (size 15 to 20)
#    1.500    0.000    2.500    2.250    3.500    0.000 
#    0.000    1.250    0.000    6.000    0.000    0.000 
#    0.000    0.000    0.000    0.000    0.000    0.000 
#
# Total GULP energy -89126.712836 kJ/mol
# GULP energy per Si atom -5570.419552 kJ/mol
# Density = 2.546315 g / cm^3
# Si number density = 25.521239 Si / 1000 Ang^3
#
#
#
# Elastic Constant Matrix: (Units=GPa)
#
#
# Indices 1 2 3 4 5 6 
#
# 1 63.2622 19.6419 43.2134 0.0000 -17.3991 0.0000
# 2 19.6419 142.5507 25.0630 0.0000 -27.0725 0.0000
# 3 43.2134 25.0630 123.0075 0.0000 -36.9073 0.0000
# 4 0.0000 0.0000 0.0000 49.6624 0.0000 -8.8732
# 5 -17.3991 -27.0725 -36.9073 0.0000 57.5869 0.0000
# 6 0.0000 0.0000 0.0000 -8.8732 0.0000 41.7789
#
#
#
# Elastic Compliance Matrix: (Units=1/GPa)
#
#
# Indices 1 2 3 4 5 6 
#
# 1 0.021261 -0.001476 -0.006746 0.000000 0.001406 0.000000
# 2 -0.001476 0.007841 -0.000132 0.000000 0.003155 0.000000
# 3 -0.006746 -0.000132 0.012252 0.000000 0.005752 0.000000
# 4 0.000000 0.000000 0.000000 0.020930 0.000000 0.004445
# 5 0.001406 0.003155 0.005752 0.000000 0.022960 0.000000
# 6 0.000000 0.000000 0.000000 0.004445 0.000000 0.024880
#
#
# Mechanical properties :
#
#
# Convention : Reuss Voigt Hill
#
# Bulk Modulus (GPa) = 40.57770 56.07300 48.32535
# Shear Modulus (GPa) = 37.02383 45.86578 41.44480
#
# Velocity S-wave (km/s) = 3.81295 4.24389 4.03418
# Velocity P-wave (km/s) = 5.94297 6.78476 6.37777
#
# Compressibility (1/GPa) = 0.02464408
#
# Stress axis : x y z
#
# Youngs Moduli (GPa) = 47.03531 127.53520 81.61643
#
# Poissons Ratio (x) = 0.18829 0.55062
# Poissons Ratio (y) = 0.06944 0.01079
# Poissons Ratio (z) = 0.31732 0.01686
#
# Static dielectric constant tensor:
#      x y z
#    x 2.329920 0.000000 -0.038980 
#    y 0.000000 2.232460 0.000000 
#    z -0.038980 0.000000 1.961870 
# 
# From -- ./inp_files/76264.got.cif
#   From: 2010.05.17/outbox.cif.g08.bks.cpg/sg15_39_cif.got.tgz:76264.got - 2010.06.03 18:47:42.
