data_PCOD9291874
_publ_section_title
;
Structure prediction by ZEFSAII (Michael W. Deem and Ramdas Pophale) SiO2 
 PCOD9291874
Probable space group: C 2/C
;
_chemical_formula_sum "Si O2"
_cell_formula_units_Z 32
_cell_length_a 7.292502
_cell_length_b 15.853413
_cell_length_c 9.399385
_cell_angle_alpha 90.000000
_cell_angle_beta 84.054519
_cell_angle_gamma 90.000000
_cell_volume 1080.827419
_symmetry_space_group_name_H-M "C 2/C"
_symmetry_group_IT_number 15
_symmetry_cell_setting 'monoclinic'
loop_
_space_group_symop_operation_xyz
x,y,z
-x,y,1/2-z
-x,-y,-z
x,-y,1/2+z
1/2+x,1/2+y,z
1/2-x,1/2+y,1/2-z
1/2-x,1/2-y,-z
1/2+x,1/2-y,1/2+z
loop_
_atom_site_type_symbol
_atom_site_label
_atom_site_fract_x
_atom_site_fract_y
_atom_site_fract_z
Si Si1 0.776417 0.801073 0.802253
Si Si2 0.717627 0.668620 0.605649
Si Si3 0.600020 0.914430 0.053125
Si Si4 0.150947 0.050720 0.363833
O O1 0.680453 0.715559 0.759619
O O2 0.710838 0.842407 0.954616
O O3 0.711910 0.878282 0.706592
O O4 0.000000 0.794535 0.750000
O O5 0.750000 0.750000 0.500000
O O6 0.611806 0.594907 0.522283
O O7 0.919339 0.631955 0.617586
O O8 0.500000 0.000000 0.000000
O O9 0.750845 0.962289 0.133530
O O10 0.000000 0.043966 0.250000
#
# Coordination Sequence:
#
# PCOD9291874 Si02
#       4
#     8   8   8   8
#     4  10  22  42  74 110 158 203 262 335 400 476
#     4   9  20  41  71 109 156 201 263 330 396 473
#     4  10  22  43  76 113 154 208 270 329 400 479
#     4   9  20  41  74 109 156 204 263 328 398 477
#
# _framework density 29.606947999999999
#
# number of rings (size 3 to 8) (size 9 to 14) (size 15 to 20)
#    0.000    2.500    0.000    0.000    0.000   14.000 
#    9.000    0.000   49.500   12.000    0.000    0.000 
#    0.000    0.000    0.000    0.000    0.000    0.000 
#
# Total GULP energy -89194.160889 kJ/mol
# GULP energy per Si atom -5574.635056 kJ/mol
# Density = 2.953956 g / cm^3
# Si number density = 29.606948 Si / 1000 Ang^3
#
#
#
# Elastic Constant Matrix: (Units=GPa)
#
#
# Indices 1 2 3 4 5 6 
#
# 1 219.7281 90.6023 67.2668 0.0000 24.5835 0.0000
# 2 90.6023 256.6690 100.9441 0.0000 21.4636 0.0000
# 3 67.2668 100.9441 160.8985 0.0000 34.5995 0.0000
# 4 0.0000 0.0000 0.0000 91.8632 0.0000 13.4023
# 5 24.5835 21.4636 34.5995 0.0000 41.6001 0.0000
# 6 0.0000 0.0000 0.0000 13.4023 0.0000 11.5354
#
#
#
# Elastic Compliance Matrix: (Units=1/GPa)
#
#
# Indices 1 2 3 4 5 6 
#
# 1 0.005667 -0.001421 -0.001115 0.000000 -0.001689 0.000000
# 2 -0.001421 0.005529 -0.002973 0.000000 0.000460 0.000000
# 3 -0.001115 -0.002973 0.009834 0.000000 -0.005986 0.000000
# 4 0.000000 0.000000 0.000000 0.013108 0.000000 -0.015229
# 5 -0.001689 0.000460 -0.005986 0.000000 0.029778 0.000000
# 6 0.000000 0.000000 0.000000 -0.015229 0.000000 0.104383
#
#
# Mechanical properties :
#
#
# Convention : Reuss Voigt Hill
#
# Bulk Modulus (GPa) = 99.88473 128.32469 114.10471
# Shear Modulus (GPa) = 27.37426 54.23188 40.80307
#
# Velocity S-wave (km/s) = 3.04400 4.28451 3.71638
# Velocity P-wave (km/s) = 6.79447 8.24093 7.55241
#
# Compressibility (1/GPa) = 0.01001154
#
# Stress axis : x y z
#
# Youngs Moduli (GPa) = 176.45579 180.87964 101.68975
#
# Poissons Ratio (x) = 0.25700 0.11335
# Poissons Ratio (y) = 0.25072 0.30237
# Poissons Ratio (z) = 0.19670 0.53783
#
# Static dielectric constant tensor:
#      x y z
#    x 2.415880 0.000000 -0.115990 
#    y 0.000000 2.331500 0.000000 
#    z -0.115990 0.000000 3.065150 
# 
# From -- ./inp_files/75601.got.cif
#   From: 2010.05.17/outbox.cif.g08.bks.cpg/sg15_38_cif.got.tgz:75601.got - 2010.06.03 18:47:42.
