data_PCOD9291643
_publ_section_title
;
Structure prediction by ZEFSAII (Michael W. Deem and Ramdas Pophale) SiO2 
 PCOD9291643
Probable space group: C 2/C
;
_chemical_formula_sum "Si O2"
_cell_formula_units_Z 40
_cell_length_a 22.698773
_cell_length_b 5.357896
_cell_length_c 19.040793
_cell_angle_alpha 90.000000
_cell_angle_beta 46.048615
_cell_angle_gamma 90.000000
_cell_volume 1667.137163
_symmetry_space_group_name_H-M "C 2/C"
_symmetry_group_IT_number 15
_symmetry_cell_setting 'monoclinic'
loop_
_space_group_symop_operation_xyz
x,y,z
-x,y,1/2-z
-x,-y,-z
x,-y,1/2+z
1/2+x,1/2+y,z
1/2-x,1/2+y,1/2-z
1/2-x,1/2-y,-z
1/2+x,1/2-y,1/2+z
loop_
_atom_site_type_symbol
_atom_site_label
_atom_site_fract_x
_atom_site_fract_y
_atom_site_fract_z
Si Si1 0.406669 0.583020 0.496976
Si Si2 0.701363 0.202594 0.968978
Si Si3 0.026698 0.543910 0.648977
Si Si4 0.222041 0.990754 0.731905
Si Si5 0.556592 0.742833 0.894570
O O1 0.320174 0.464597 0.551435
O O2 0.412343 0.797375 0.551953
O O3 0.465899 0.369215 0.477413
O O4 0.450266 0.674881 0.390592
O O5 0.745448 0.031479 0.874372
O O6 0.750000 0.250000 0.000000
O O7 0.613293 0.092548 0.063895
O O8 0.000000 0.510280 0.750000
O O9 0.956647 0.451589 0.653048
O O10 0.259402 0.223462 0.747350
O O11 0.124893 0.047489 0.812495
#
# Coordination Sequence:
#
# PCOD9291643 Si02
#       5
#     8   8   8   8   8
#     4  10  22  43  68  97 130 187 235 295 352 435
#     4  11  25  45  66 101 145 182 237 300 367 430
#     4  11  24  41  68  98 136 185 238 295 365 430
#     4  12  26  45  73 107 145 187 239 296 364 433
#     4  10  22  42  69  97 134 181 240 292 352 433
#
# _framework density 23.993224999999999
#
# number of rings (size 3 to 8) (size 9 to 14) (size 15 to 20)
#    0.000    1.200    2.000    3.000    2.800    5.600 
#    0.000    0.000    0.000    0.000    0.000    0.000 
#    0.000    0.000    0.000    0.000    0.000    0.000 
#
# Total GULP energy -111722.577344 kJ/mol
# GULP energy per Si atom -5586.128867 kJ/mol
# Density = 2.393862 g / cm^3
# Si number density = 23.993225 Si / 1000 Ang^3
#
#
#
# Elastic Constant Matrix: (Units=GPa)
#
#
# Indices 1 2 3 4 5 6 
#
# 1 148.2683 26.6097 37.1248 0.0120 12.6585 0.0074
# 2 26.6097 68.7388 4.5574 0.0327 9.8995 -0.0239
# 3 37.1248 4.5574 147.5956 -0.0129 30.4345 0.0125
# 4 0.0120 0.0327 -0.0129 34.4568 0.0167 -2.4395
# 5 12.6585 9.8995 30.4345 0.0167 43.4250 -0.0076
# 6 0.0074 -0.0239 0.0125 -2.4395 -0.0076 15.7163
#
#
#
# Elastic Compliance Matrix: (Units=1/GPa)
#
#
# Indices 1 2 3 4 5 6 
#
# 1 0.007728 -0.002822 -0.001782 -0.000001 -0.000360 -0.000007
# 2 -0.002822 0.016082 0.000935 -0.000011 -0.003499 0.000022
# 3 -0.001782 0.000935 0.008336 0.000005 -0.005536 -0.000006
# 4 -0.000001 -0.000011 0.000005 0.029344 -0.000011 0.004555
# 5 -0.000360 -0.003499 -0.005536 -0.000011 0.027811 0.000011
# 6 -0.000007 0.000022 -0.000006 0.004555 0.000011 0.064335
#
#
# Mechanical properties :
#
#
# Convention : Reuss Voigt Hill
#
# Bulk Modulus (GPa) = 40.31044 55.68741 47.99892
# Shear Modulus (GPa) = 29.54307 38.47366 34.00837
#
# Velocity S-wave (km/s) = 3.51281 4.00874 3.76894
# Velocity P-wave (km/s) = 5.76978 6.68481 6.24408
#
# Compressibility (1/GPa) = 0.02480747
#
# Stress axis : x y z
#
# Youngs Moduli (GPa) = 129.40005 62.18133 119.95766
#
# Poissons Ratio (x) = 0.17545 0.21381
# Poissons Ratio (y) = 0.36511 -0.11211
# Poissons Ratio (z) = 0.23064 -0.05811
#
# Static dielectric constant tensor:
#      x y z
#    x 1.905150 -0.000030 0.000330 
#    y -0.000030 2.048550 0.000010 
#    z 0.000330 0.000010 1.955770 
# 
# From -- ./inp_files/223523.got.cif
#   From: 2010.05.17/outbox.cif.g08.bks.cpg/sg15_112_cif.got.tgz:223523.got - 2010.06.03 18:47:42.
