data_PCOD9291782
_publ_section_title
;
Structure prediction by ZEFSAII (Michael W. Deem and Ramdas Pophale) SiO2 
 PCOD9291782
Probable space group: C 2/C
;
_chemical_formula_sum "Si O2"
_cell_formula_units_Z 52
_cell_length_a 19.560322
_cell_length_b 8.458701
_cell_length_c 18.904363
_cell_angle_alpha 90.000000
_cell_angle_beta 51.465819
_cell_angle_gamma 90.000000
_cell_volume 2446.695245
_symmetry_space_group_name_H-M "C 2/C"
_symmetry_group_IT_number 15
_symmetry_cell_setting 'monoclinic'
loop_
_space_group_symop_operation_xyz
x,y,z
-x,y,1/2-z
-x,-y,-z
x,-y,1/2+z
1/2+x,1/2+y,z
1/2-x,1/2+y,1/2-z
1/2-x,1/2-y,-z
1/2+x,1/2-y,1/2+z
loop_
_atom_site_type_symbol
_atom_site_label
_atom_site_fract_x
_atom_site_fract_y
_atom_site_fract_z
Si Si1 0.000000 0.140003 0.750000
Si Si2 0.155476 0.661992 0.075700
Si Si3 0.400447 0.011851 0.536152
Si Si4 0.940936 0.976899 0.648217
Si Si5 0.095931 0.844964 0.465573
Si Si6 0.705386 0.765484 0.289785
Si Si7 0.238025 0.517007 0.148836
O O1 0.079552 0.235303 0.661843
O O2 0.040572 0.036999 0.786462
O O3 0.178489 0.527396 0.118740
O O4 0.250000 0.750000 0.000000
O O5 0.115922 0.592076 0.029108
O O6 0.348738 0.118313 0.625085
O O7 0.500000 0.000000 0.500000
O O8 0.367286 0.831118 0.554365
O O9 0.851630 0.881032 0.700775
O O10 0.016031 0.861280 0.570836
O O11 0.937035 0.117183 0.592599
O O12 0.162260 0.988226 0.440806
O O13 0.773868 0.677287 0.297450
O O14 0.728776 0.870715 0.207794
#
# Coordination Sequence:
#
# PCOD9291782 Si02
#       7
#     4   8   8   8   8   8   8
#     4  12  28  42  74 102 146 190 234 302 372 422
#     4  12  28  47  70 108 149 191 241 306 367 442
#     4  12  24  44  73 103 141 189 244 295 370 432
#     4  10  23  43  67 100 136 179 241 286 363 425
#     4  10  22  42  71  97 134 187 228 294 352 434
#     4  11  24  42  71 100 138 186 237 292 349 445
#     4  11  25  43  69 103 143 182 239 288 367 428
#
# _framework density 21.253157000000002
#
# number of rings (size 3 to 8) (size 9 to 14) (size 15 to 20)
#    0.000    0.923    3.077    2.769   10.769    3.077 
#    0.000    0.000    0.000    0.000    0.000    0.000 
#    0.000    0.000    0.000    0.000    0.000    0.000 
#
# Total GULP energy -145265.184791 kJ/mol
# GULP energy per Si atom -5587.122492 kJ/mol
# Density = 2.120478 g / cm^3
# Si number density = 21.253157 Si / 1000 Ang^3
#
#
#
# Elastic Constant Matrix: (Units=GPa)
#
#
# Indices 1 2 3 4 5 6 
#
# 1 119.3590 33.2923 52.3901 0.0000 26.6302 -0.0001
# 2 33.2923 95.1000 41.3456 -0.0001 10.7901 -0.0002
# 3 52.3901 41.3456 102.9301 0.0000 16.0148 0.0000
# 4 0.0000 -0.0001 0.0000 32.7673 0.0000 0.6707
# 5 26.6302 10.7901 16.0148 0.0000 30.1467 0.0000
# 6 -0.0001 -0.0002 0.0000 0.6707 0.0000 33.8362
#
#
#
# Elastic Compliance Matrix: (Units=1/GPa)
#
#
# Indices 1 2 3 4 5 6 
#
# 1 0.012622 -0.001515 -0.004541 0.000000 -0.008195 0.000000
# 2 -0.001515 0.013034 -0.004303 0.000000 -0.001042 0.000000
# 3 -0.004541 -0.004303 0.014053 0.000000 -0.001914 0.000000
# 4 0.000000 0.000000 0.000000 0.030531 0.000000 -0.000605
# 5 -0.008195 -0.001042 -0.001914 0.000000 0.041800 0.000000
# 6 0.000000 0.000000 0.000000 -0.000605 0.000000 0.029566
#
#
# Mechanical properties :
#
#
# Convention : Reuss Voigt Hill
#
# Bulk Modulus (GPa) = 52.65220 63.49392 58.07306
# Shear Modulus (GPa) = 29.64652 32.04077 30.84365
#
# Velocity S-wave (km/s) = 3.73892 3.88697 3.81366
# Velocity P-wave (km/s) = 6.59295 7.07705 6.83928
#
# Compressibility (1/GPa) = 0.01899256
#
# Stress axis : x y z
#
# Youngs Moduli (GPa) = 79.22536 76.72062 71.16025
#
# Poissons Ratio (x) = 0.11620 0.32314
# Poissons Ratio (y) = 0.12000 0.30618
# Poissons Ratio (z) = 0.35976 0.33011
#
# Static dielectric constant tensor:
#      x y z
#    x 1.791880 0.000000 -0.055880 
#    y 0.000000 1.768640 0.000000 
#    z -0.055880 0.000000 1.814880 
# 
# From -- ./inp_files/209447.got.cif
#   From: 2010.05.17/outbox.cif.g08.bks.cpg/sg15_105_cif.got.tgz:209447.got - 2010.06.03 18:47:42.
