data_PCOD9291453
_publ_section_title
;
Structure prediction by ZEFSAII (Michael W. Deem and Ramdas Pophale) SiO2 
 PCOD9291453
Probable space group: C 2/C
;
_chemical_formula_sum "Si O2"
_cell_formula_units_Z 56
_cell_length_a 11.014527
_cell_length_b 27.144446
_cell_length_c 11.020586
_cell_angle_alpha 90.000000
_cell_angle_beta 129.712988
_cell_angle_gamma 90.000000
_cell_volume 2534.671617
_symmetry_space_group_name_H-M "C 2/C"
_symmetry_group_IT_number 15
_symmetry_cell_setting 'monoclinic'
loop_
_space_group_symop_operation_xyz
x,y,z
-x,y,1/2-z
-x,-y,-z
x,-y,1/2+z
1/2+x,1/2+y,z
1/2-x,1/2+y,1/2-z
1/2-x,1/2-y,-z
1/2+x,1/2-y,1/2+z
loop_
_atom_site_type_symbol
_atom_site_label
_atom_site_fract_x
_atom_site_fract_y
_atom_site_fract_z
Si Si1 0.647528 0.463238 0.252841
Si Si2 0.638115 0.720326 0.516423
Si Si3 0.810276 0.246648 0.348395
Si Si4 0.606686 0.393391 0.994846
Si Si5 0.708406 0.425985 0.795959
Si Si6 0.653915 0.822235 0.925426
Si Si7 0.054122 0.430938 0.911036
O O1 0.500000 0.454716 0.250000
O O2 0.647150 0.520340 0.213890
O O3 0.816703 0.459245 0.428576
O O4 0.638772 0.425296 0.135615
O O5 0.750000 0.750000 0.500000
O O6 0.665645 0.743108 0.667558
O O7 0.459796 0.731270 0.366304
O O8 0.670236 0.662166 0.541773
O O9 0.789419 0.203406 0.433552
O O10 0.841038 0.296754 0.441393
O O11 0.680676 0.419332 0.922317
O O12 0.417787 0.390297 0.849101
O O13 0.890678 0.419136 0.876384
O O14 0.500000 0.808559 0.750000
O O15 0.644661 0.880590 0.932528
O O16 0.000000 0.455780 0.750000
#
# Coordination Sequence:
#
# PCOD9291453 Si02
#       7
#     8   8   8   8   8   8   8
#     4  12  25  48  75 112 146 188 243 305 369 446
#     4  12  28  44  71 101 144 192 240 292 359 441
#     4  11  24  44  66  97 137 180 241 290 357 411
#     4  11  27  46  75 105 145 196 239 305 371 441
#     4  11  26  48  76 103 146 191 244 299 377 442
#     4  10  22  42  67  98 133 182 229 300 347 418
#     4  11  26  42  74 106 145 189 241 297 365 434
#
# _framework density 22.093592000000001
#
# number of rings (size 3 to 8) (size 9 to 14) (size 15 to 20)
#    0.000    0.857    2.857    3.000   14.000    0.571 
#    2.571    0.000    0.000    0.000    0.000    0.000 
#    0.000    0.000    0.000    0.000    0.000    0.000 
#
# Total GULP energy -156524.465339 kJ/mol
# GULP energy per Si atom -5590.159476 kJ/mol
# Density = 2.204331 g / cm^3
# Si number density = 22.093592 Si / 1000 Ang^3
#
#
#
# Elastic Constant Matrix: (Units=GPa)
#
#
# Indices 1 2 3 4 5 6 
#
# 1 63.6442 15.2089 3.8053 0.0000 12.4702 0.0000
# 2 15.2089 107.5079 7.5508 0.0000 -14.3479 0.0000
# 3 3.8053 7.5508 84.9333 0.0000 -2.0044 0.0000
# 4 0.0000 0.0000 0.0000 28.4271 0.0000 0.0396
# 5 12.4702 -14.3479 -2.0044 0.0000 34.9488 0.0000
# 6 0.0000 0.0000 0.0000 0.0396 0.0000 26.9855
#
#
#
# Elastic Compliance Matrix: (Units=1/GPa)
#
#
# Indices 1 2 3 4 5 6 
#
# 1 0.018179 -0.003591 -0.000684 0.000000 -0.008000 0.000000
# 2 -0.003591 0.010602 -0.000650 0.000000 0.005597 0.000000
# 3 -0.000684 -0.000650 0.011878 0.000000 0.000659 0.000000
# 4 0.000000 0.000000 0.000000 0.035178 0.000000 -0.000052
# 5 -0.008000 0.005597 0.000659 0.000000 0.033803 0.000000
# 6 0.000000 0.000000 0.000000 -0.000052 0.000000 0.037057
#
#
# Mechanical properties :
#
#
# Convention : Reuss Voigt Hill
#
# Bulk Modulus (GPa) = 32.45779 34.35724 33.40751
# Shear Modulus (GPa) = 29.97296 33.37364 31.67330
#
# Velocity S-wave (km/s) = 3.68725 3.89081 3.79039
# Velocity P-wave (km/s) = 5.73155 5.98072 5.85746
#
# Compressibility (1/GPa) = 0.03080925
#
# Stress axis : x y z
#
# Youngs Moduli (GPa) = 55.00852 94.31932 84.19005
#
# Poissons Ratio (x) = 0.33874 0.05759
# Poissons Ratio (y) = 0.19756 0.05469
# Poissons Ratio (z) = 0.03763 0.06127
#
# Static dielectric constant tensor:
#      x y z
#    x 1.829670 0.000000 -0.001090 
#    y 0.000000 1.814630 0.000000 
#    z -0.001090 0.000000 1.801650 
# 
# From -- ./inp_files/92089.got.cif
#   From: 2010.05.17/outbox.cif.g08.bks.cpg/sg15_47_cif.got.tgz:92089.got - 2010.06.03 18:47:42.
