data_PCOD9291715
_publ_section_title
;
Structure prediction by ZEFSAII (Michael W. Deem and Ramdas Pophale) SiO2 
 PCOD9291715
Probable space group: C 2/C
;
_chemical_formula_sum "Si O2"
_cell_formula_units_Z 36
_cell_length_a 19.011523
_cell_length_b 8.682529
_cell_length_c 10.363401
_cell_angle_alpha 90.000000
_cell_angle_beta 59.239795
_cell_angle_gamma 90.000000
_cell_volume 1470.002302
_symmetry_space_group_name_H-M "C 2/C"
_symmetry_group_IT_number 15
_symmetry_cell_setting 'monoclinic'
loop_
_space_group_symop_operation_xyz
x,y,z
-x,y,1/2-z
-x,-y,-z
x,-y,1/2+z
1/2+x,1/2+y,z
1/2-x,1/2+y,1/2-z
1/2-x,1/2-y,-z
1/2+x,1/2-y,1/2+z
loop_
_atom_site_type_symbol
_atom_site_label
_atom_site_fract_x
_atom_site_fract_y
_atom_site_fract_z
Si Si1 0.250000 0.250000 0.000000
Si Si2 0.918328 0.224406 0.747839
Si Si3 0.078883 0.875903 0.766054
Si Si4 0.193582 0.472463 0.749944
Si Si5 0.339417 0.249570 0.581400
O O1 0.159254 0.167712 0.107842
O O2 0.217503 0.401920 0.119763
O O3 0.885916 0.367980 0.698446
O O4 0.000000 0.261290 0.750000
O O5 0.922972 0.054456 0.684945
O O6 0.852359 0.204760 0.923919
O O7 0.084731 0.778925 0.893326
O O8 0.000000 0.851408 0.750000
O O9 0.265809 0.351774 0.704778
O O10 0.182241 0.571644 0.888941
#
# Coordination Sequence:
#
# PCOD9291715 Si02
#       5
#     4   8   8   8   8
#     4  10  22  42  70  94 134 180 216 288 342 390
#     4  11  25  45  67 100 142 177 227 291 339 411
#     4  10  23  44  68 102 138 180 231 285 340 419
#     4  11  24  41  69 100 135 179 234 278 337 419
#     4  11  24  43  69 101 132 185 225 279 352 403
#
# _framework density 24.489757999999998
#
# number of rings (size 3 to 8) (size 9 to 14) (size 15 to 20)
#    0.000    1.333    2.222    2.000    6.222    8.000 
#    8.000    0.000    0.000    0.000    0.000    0.000 
#    0.000    0.000    0.000    0.000    0.000    0.000 
#
# Total GULP energy -100202.686791 kJ/mol
# GULP energy per Si atom -5566.815933 kJ/mol
# Density = 2.443402 g / cm^3
# Si number density = 24.489758 Si / 1000 Ang^3
#
#
#
# Elastic Constant Matrix: (Units=GPa)
#
#
# Indices 1 2 3 4 5 6 
#
# 1 86.7382 57.8482 1.8674 0.0000 -16.9636 0.0000
# 2 57.8482 114.3290 9.9444 0.0000 -4.1466 0.0000
# 3 1.8674 9.9444 21.7189 0.0000 -3.7873 0.0000
# 4 0.0000 0.0000 0.0000 34.0172 0.0000 5.9977
# 5 -16.9636 -4.1466 -3.7873 0.0000 32.0552 0.0000
# 6 0.0000 0.0000 0.0000 5.9977 0.0000 51.2891
#
#
#
# Elastic Compliance Matrix: (Units=1/GPa)
#
#
# Indices 1 2 3 4 5 6 
#
# 1 0.020228 -0.010284 0.004701 0.000000 0.009930 0.000000
# 2 -0.010284 0.014353 -0.006446 0.000000 -0.004347 0.000000
# 3 0.004701 -0.006446 0.049906 0.000000 0.007550 0.000000
# 4 0.000000 0.000000 0.000000 0.030016 0.000000 -0.003510
# 5 0.009930 -0.004347 0.007550 0.000000 0.036781 0.000000
# 6 0.000000 0.000000 0.000000 -0.003510 0.000000 0.019908
#
#
# Mechanical properties :
#
#
# Convention : Reuss Voigt Hill
#
# Bulk Modulus (GPa) = 16.54786 40.23401 28.39093
# Shear Modulus (GPa) = 23.21339 33.68072 28.44706
#
# Velocity S-wave (km/s) = 3.08211 3.71252 3.41191
# Velocity P-wave (km/s) = 4.40881 5.90269 5.20957
#
# Compressibility (1/GPa) = 0.06043078
#
# Stress axis : x y z
#
# Youngs Moduli (GPa) = 49.43553 69.67130 20.03750
#
# Poissons Ratio (x) = 0.71649 -0.09420
# Poissons Ratio (y) = 0.50839 0.12915
# Poissons Ratio (z) = -0.23239 0.44908
#
# Static dielectric constant tensor:
#      x y z
#    x 2.004690 0.000000 0.005840 
#    y 0.000000 1.903560 0.000000 
#    z 0.005840 0.000000 2.082920 
# 
# From -- ./inp_files/102632.got.cif
#   From: 2010.05.17/outbox.cif.g08.bks.cpg/sg15_52_cif.got.tgz:102632.got - 2010.06.03 18:47:42.
