data_PCOD9291299
_publ_section_title
;
Structure prediction by ZEFSAII (Michael W. Deem and Ramdas Pophale) SiO2 
 PCOD9291299
Probable space group: C 2/C
;
_chemical_formula_sum "Si O2"
_cell_formula_units_Z 48
_cell_length_a 8.847468
_cell_length_b 11.304792
_cell_length_c 24.626817
_cell_angle_alpha 90.000000
_cell_angle_beta 75.881036
_cell_angle_gamma 90.000000
_cell_volume 2388.736011
_symmetry_space_group_name_H-M "C 2/C"
_symmetry_group_IT_number 15
_symmetry_cell_setting 'monoclinic'
loop_
_space_group_symop_operation_xyz
x,y,z
-x,y,1/2-z
-x,-y,-z
x,-y,1/2+z
1/2+x,1/2+y,z
1/2-x,1/2+y,1/2-z
1/2-x,1/2-y,-z
1/2+x,1/2-y,1/2+z
loop_
_atom_site_type_symbol
_atom_site_label
_atom_site_fract_x
_atom_site_fract_y
_atom_site_fract_z
Si Si1 0.500000 0.019561 0.750000
Si Si2 0.210692 0.613157 0.829169
Si Si3 0.004781 0.582078 0.554098
Si Si4 0.085618 0.809494 0.999407
Si Si5 0.500000 0.482725 0.750000
Si Si6 0.841835 0.956445 0.074239
Si Si7 0.787772 0.112634 0.178930
O O1 0.596690 0.091449 0.787148
O O2 0.381708 0.934673 0.791593
O O3 0.134104 0.556926 0.890427
O O4 0.377634 0.560951 0.795936
O O5 0.219282 0.753121 0.839999
O O6 0.992726 0.715457 0.533397
O O7 0.000000 0.500000 0.500000
O O8 0.165588 0.574381 0.573146
O O9 0.121124 0.933359 0.968174
O O10 0.250000 0.750000 0.000000
O O11 0.961410 0.847913 0.056254
O O12 0.604539 0.399593 0.778267
O O13 0.852726 0.016243 0.131460
#
# Coordination Sequence:
#
# PCOD9291299 Si02
#       7
#     4   8   8   8   4   8   8
#     4  10  22  42  66  94 124 170 222 268 334 392
#     4  11  23  43  67  95 134 169 220 277 331 394
#     4  12  24  43  67 101 137 175 224 276 337 404
#     4  11  24  43  65  92 134 173 218 270 324 398
#     4  10  26  42  66 100 126 172 224 276 326 402
#     4  11  24  41  66  95 127 178 217 266 334 396
#     4  11  22  42  66  94 128 169 217 273 334 387
#
# _framework density 20.094308999999999
#
# number of rings (size 3 to 8) (size 9 to 14) (size 15 to 20)
#    0.000    1.000    5.000    1.500    2.333    0.000 
#    3.000    1.667    0.000    0.000    0.000    0.000 
#    0.000    0.000    0.000    0.000    0.000    0.000 
#
# Total GULP energy -133912.587605 kJ/mol
# GULP energy per Si atom -5579.691150 kJ/mol
# Density = 2.004857 g / cm^3
# Si number density = 20.094309 Si / 1000 Ang^3
#
#
#
# Elastic Constant Matrix: (Units=GPa)
#
#
# Indices 1 2 3 4 5 6 
#
# 1 68.7305 32.9062 16.0573 0.0000 -19.9947 0.0000
# 2 32.9062 72.9872 22.1100 0.0000 -14.9600 0.0000
# 3 16.0573 22.1100 98.9259 0.0000 -32.8030 0.0000
# 4 0.0000 0.0000 0.0000 24.3267 0.0000 20.8702
# 5 -19.9947 -14.9600 -32.8030 0.0000 34.2532 0.0000
# 6 0.0000 0.0000 0.0000 20.8702 0.0000 -15.6445
#
#
#
# Elastic Compliance Matrix: (Units=1/GPa)
#
#
# Indices 1 2 3 4 5 6 
#
# 1 0.020947 -0.007838 0.001863 0.000000 0.010588 0.000000
# 2 -0.007838 0.018187 -0.002456 0.000000 0.001016 0.000000
# 3 0.001863 -0.002456 0.015181 0.000000 0.014553 0.000000
# 4 0.000000 0.000000 0.000000 0.019169 0.000000 0.025572
# 5 0.010588 0.001016 0.014553 0.000000 0.049755 0.000000
# 6 0.000000 0.000000 0.000000 0.025572 0.000000 -0.029807
#
#
# Mechanical properties :
#
#
# Convention : Reuss Voigt Hill
#
# Bulk Modulus (GPa) = 26.70023 42.53227 34.61625
# Shear Modulus (GPa) = 40.72367 19.89175 30.30771
#
# Velocity S-wave (km/s) = 4.50669 3.14971 3.88786
# Velocity P-wave (km/s) = 6.35584 5.86855 6.11705
#
# Compressibility (1/GPa) = 0.03745287
#
# Stress axis : x y z
#
# Youngs Moduli (GPa) = 47.73878 54.98433 65.87338
#
# Poissons Ratio (x) = 0.43097 -0.12270
# Poissons Ratio (y) = 0.37418 0.16176
# Poissons Ratio (z) = -0.08892 0.13502
#
# Static dielectric constant tensor:
#      x y z
#    x 1.744080 0.000000 -0.035830 
#    y 0.000000 1.675050 0.000000 
#    z -0.035830 0.000000 1.761770 
# 
# From -- ./inp_files/263122.got.cif
#   From: 2010.05.17/outbox.cif.g08.bks.cpg/sg15_132_cif.got.tgz:263122.got - 2010.06.03 18:47:42.
