data_PCOD9291391
_publ_section_title
;
Structure prediction by ZEFSAII (Michael W. Deem and Ramdas Pophale) SiO2 
 PCOD9291391
Probable space group: C 2/C
;
_chemical_formula_sum "Si O2"
_cell_formula_units_Z 48
_cell_length_a 27.399971
_cell_length_b 17.372809
_cell_length_c 14.243216
_cell_angle_alpha 90.000000
_cell_angle_beta 22.249040
_cell_angle_gamma 90.000000
_cell_volume 2567.123704
_symmetry_space_group_name_H-M "C 2/C"
_symmetry_group_IT_number 15
_symmetry_cell_setting 'monoclinic'
loop_
_space_group_symop_operation_xyz
x,y,z
-x,y,1/2-z
-x,-y,-z
x,-y,1/2+z
1/2+x,1/2+y,z
1/2-x,1/2+y,1/2-z
1/2-x,1/2-y,-z
1/2+x,1/2-y,1/2+z
loop_
_atom_site_type_symbol
_atom_site_label
_atom_site_fract_x
_atom_site_fract_y
_atom_site_fract_z
Si Si1 0.500000 0.561757 0.750000
Si Si2 0.322503 0.848658 0.963280
Si Si3 0.942408 0.423394 0.060954
Si Si4 0.911595 0.812118 0.258938
Si Si5 0.704357 0.570348 0.851340
Si Si6 0.403492 0.767105 0.227019
Si Si7 0.500000 0.702256 0.250000
O O1 0.540366 0.617956 0.762930
O O2 0.613285 0.504402 0.513465
O O3 0.211070 0.840074 0.083353
O O4 0.269524 0.903051 0.138911
O O5 0.451253 0.887453 0.696578
O O6 0.363408 0.759676 0.909452
O O7 0.812666 0.440620 0.236333
O O8 0.917720 0.357208 0.180799
O O9 0.000000 0.500000 0.000000
O O10 0.019119 0.779501 0.993482
O O11 0.620024 0.645005 0.026372
O O12 0.250000 0.750000 0.500000
O O13 0.471612 0.747976 0.204859
#
# Coordination Sequence:
#
# PCOD9291391 Si02
#       7
#     4   8   8   8   8   8   4
#     4  11  26  40  68 101 130 178 226 275 332 406
#     4  10  22  42  67  89 131 175 215 278 335 394
#     4  11  24  42  62  95 134 171 220 272 344 397
#     4  10  23  42  66 100 127 171 228 271 329 410
#     4  11  23  43  64  94 136 172 216 279 339 393
#     4  11  23  43  70  97 131 179 222 284 325 402
#     4  11  22  44  68  95 126 170 232 271 334 396
#
# _framework density 18.697970000000002
#
# number of rings (size 3 to 8) (size 9 to 14) (size 15 to 20)
#    0.000    1.333    3.333    1.500    4.667    2.000 
#    6.000    0.000    0.000    0.000    0.000    0.000 
#    0.000    0.000    0.000    0.000    0.000    0.000 
#
# Total GULP energy -133966.998413 kJ/mol
# GULP energy per Si atom -5581.958267 kJ/mol
# Density = 1.865541 g / cm^3
# Si number density = 18.697970 Si / 1000 Ang^3
#
#
#
# Elastic Constant Matrix: (Units=GPa)
#
#
# Indices 1 2 3 4 5 6 
#
# 1 123.7971 91.6418 44.7452 -0.0001 -15.2232 0.0000
# 2 91.6418 167.9492 54.3849 -0.0001 -5.4822 0.0000
# 3 44.7452 54.3849 95.8611 -0.0001 -14.5680 0.0001
# 4 -0.0001 -0.0001 -0.0001 9.0648 0.0001 3.8172
# 5 -15.2232 -5.4822 -14.5680 0.0001 33.5570 0.0000
# 6 0.0000 0.0000 0.0001 3.8172 0.0000 21.8839
#
#
#
# Elastic Compliance Matrix: (Units=1/GPa)
#
#
# Indices 1 2 3 4 5 6 
#
# 1 0.014740 -0.007217 -0.002086 0.000000 0.004602 0.000000
# 2 -0.007217 0.010841 -0.003223 0.000000 -0.002902 0.000000
# 3 -0.002086 -0.003223 0.013929 0.000000 0.004574 0.000000
# 4 0.000000 0.000000 0.000000 0.119062 0.000000 -0.020768
# 5 0.004602 -0.002902 0.004574 0.000000 0.033399 0.000000
# 6 0.000000 0.000000 0.000000 -0.020768 0.000000 0.049318
#
#
# Mechanical properties :
#
#
# Convention : Reuss Voigt Hill
#
# Bulk Modulus (GPa) = 69.16683 85.46124 77.31404
# Shear Modulus (GPa) = 18.43913 26.02352 22.23133
#
# Velocity S-wave (km/s) = 3.14372 3.73471 3.45189
# Velocity P-wave (km/s) = 7.08867 8.02513 7.57139
#
# Compressibility (1/GPa) = 0.01445780
#
# Stress axis : x y z
#
# Youngs Moduli (GPa) = 67.84061 92.24101 71.79218
#
# Poissons Ratio (x) = 0.66573 0.14979
# Poissons Ratio (y) = 0.48963 0.23137
# Poissons Ratio (z) = 0.14154 0.29727
#
# Static dielectric constant tensor:
#      x y z
#    x 1.636410 0.000000 0.010650 
#    y 0.000000 1.404420 0.000000 
#    z 0.010650 0.000000 1.682820 
# 
# From -- ./inp_files/182490.got.cif
#   From: 2010.05.17/outbox.cif.g08.bks.cpg/sg15_92_cif.got.tgz:182490.got - 2010.06.03 18:47:42.
