data_PCOD9291780
_publ_section_title
;
Structure prediction by ZEFSAII (Michael W. Deem and Ramdas Pophale) SiO2 
 PCOD9291780
Probable space group: C 2/C
;
_chemical_formula_sum "Si O2"
_cell_formula_units_Z 56
_cell_length_a 17.832311
_cell_length_b 9.074074
_cell_length_c 19.585499
_cell_angle_alpha 90.000000
_cell_angle_beta 59.368372
_cell_angle_gamma 90.000000
_cell_volume 2726.940909
_symmetry_space_group_name_H-M "C 2/C"
_symmetry_group_IT_number 15
_symmetry_cell_setting 'monoclinic'
loop_
_space_group_symop_operation_xyz
x,y,z
-x,y,1/2-z
-x,-y,-z
x,-y,1/2+z
1/2+x,1/2+y,z
1/2-x,1/2+y,1/2-z
1/2-x,1/2-y,-z
1/2+x,1/2-y,1/2+z
loop_
_atom_site_type_symbol
_atom_site_label
_atom_site_fract_x
_atom_site_fract_y
_atom_site_fract_z
Si Si1 0.954019 0.064357 0.433037
Si Si2 0.762000 0.293345 0.315782
Si Si3 0.335072 0.283195 0.506607
Si Si4 0.925299 0.699865 0.834043
Si Si5 0.161662 0.096307 0.341083
Si Si6 0.412593 0.204167 0.054624
Si Si7 0.967997 0.530465 0.420005
O O1 0.911278 0.179458 0.399474
O O2 0.936766 0.133249 0.516676
O O3 0.058280 0.071913 0.374548
O O4 0.901125 0.912361 0.449940
O O5 0.839315 0.331049 0.331351
O O6 0.800523 0.203779 0.234481
O O7 0.711818 0.440514 0.315730
O O8 0.690562 0.198644 0.390954
O O9 0.250000 0.250000 0.500000
O O10 0.321590 0.329981 0.592034
O O11 0.387403 0.131856 0.477118
O O12 0.959918 0.549383 0.851945
O O13 0.000000 0.759627 0.750000
O O14 0.450041 0.137447 0.107239
O O15 0.462219 0.104172 0.976094
#
# Coordination Sequence:
#
# PCOD9291780 Si02
#       7
#     8   8   8   8   8   8   8
#     4  11  23  48  73  94 140 190 232 276 356 419
#     4  12  27  42  69 101 136 179 230 288 344 413
#     4  12  25  43  69 104 136 177 234 293 338 413
#     4  11  25  46  66  99 140 181 224 285 353 417
#     4  12  26  45  69 100 139 184 229 290 350 425
#     4  10  22  42  71  97 130 182 231 273 339 421
#     4  10  23  39  70  97 133 174 224 282 340 410
#
# _framework density 20.535831999999999
#
# number of rings (size 3 to 8) (size 9 to 14) (size 15 to 20)
#    0.000    0.857    4.286    2.143    6.000    1.143 
#    0.000    0.714    0.000    0.000    0.000    0.000 
#    0.000    0.000    0.000    0.000    0.000    0.000 
#
# Total GULP energy -156275.502038 kJ/mol
# GULP energy per Si atom -5581.267930 kJ/mol
# Density = 2.048909 g / cm^3
# Si number density = 20.535832 Si / 1000 Ang^3
#
#
#
# Elastic Constant Matrix: (Units=GPa)
#
#
# Indices 1 2 3 4 5 6 
#
# 1 139.6889 24.9879 19.3248 0.0000 -0.9946 0.0000
# 2 24.9879 70.7192 7.6454 0.0000 15.4379 0.0001
# 3 19.3248 7.6454 71.2137 0.0000 4.5223 0.0000
# 4 0.0000 0.0000 0.0000 35.0130 0.0000 -4.4646
# 5 -0.9946 15.4379 4.5223 0.0000 23.7033 0.0000
# 6 0.0000 0.0001 0.0000 -4.4646 0.0000 32.4902
#
#
#
# Elastic Compliance Matrix: (Units=1/GPa)
#
#
# Indices 1 2 3 4 5 6 
#
# 1 0.008037 -0.003240 -0.002013 0.000000 0.002832 0.000000
# 2 -0.003240 0.017876 -0.000295 0.000000 -0.011722 0.000000
# 3 -0.002013 -0.000295 0.014793 0.000000 -0.002714 0.000000
# 4 0.000000 0.000000 0.000000 0.029070 0.000000 0.003995
# 5 0.002832 -0.011722 -0.002714 0.000000 0.050460 0.000000
# 6 0.000000 0.000000 0.000000 0.003995 0.000000 0.031327
#
#
# Mechanical properties :
#
#
# Convention : Reuss Voigt Hill
#
# Bulk Modulus (GPa) = 33.77413 42.83759 38.30586
# Shear Modulus (GPa) = 28.98046 33.55221 31.26634
#
# Velocity S-wave (km/s) = 3.76069 4.04646 3.90619
# Velocity P-wave (km/s) = 5.94468 6.53735 6.24805
#
# Compressibility (1/GPa) = 0.02960846
#
# Stress axis : x y z
#
# Youngs Moduli (GPa) = 124.42395 55.93994 67.60160
#
# Poissons Ratio (x) = 0.18127 0.13608
# Poissons Ratio (y) = 0.40318 0.01997
# Poissons Ratio (z) = 0.25045 0.01653
#
# Static dielectric constant tensor:
#      x y z
#    x 1.825570 0.000000 0.017750 
#    y 0.000000 1.755390 0.000000 
#    z 0.017750 0.000000 1.745410 
# 
# From -- ./inp_files/247339.got.cif
#   From: 2010.05.17/outbox.cif.g08.bks.cpg/sg15_124_cif.got.tgz:247339.got - 2010.06.03 18:47:42.
