data_PCOD9291426
_publ_section_title
;
Structure prediction by ZEFSAII (Michael W. Deem and Ramdas Pophale) SiO2 
 PCOD9291426
Probable space group: C 2/C
;
_chemical_formula_sum "Si O2"
_cell_formula_units_Z 40
_cell_length_a 20.178698
_cell_length_b 7.148468
_cell_length_c 17.831932
_cell_angle_alpha 90.000000
_cell_angle_beta 140.541690
_cell_angle_gamma 90.000000
_cell_volume 1634.674974
_symmetry_space_group_name_H-M "C 2/C"
_symmetry_group_IT_number 15
_symmetry_cell_setting 'monoclinic'
loop_
_space_group_symop_operation_xyz
x,y,z
-x,y,1/2-z
-x,-y,-z
x,-y,1/2+z
1/2+x,1/2+y,z
1/2-x,1/2+y,1/2-z
1/2-x,1/2-y,-z
1/2+x,1/2-y,1/2+z
loop_
_atom_site_type_symbol
_atom_site_label
_atom_site_fract_x
_atom_site_fract_y
_atom_site_fract_z
Si Si1 0.561019 0.052663 0.454521
Si Si2 0.303966 0.325844 0.432870
Si Si3 0.636416 0.666537 0.911822
Si Si4 0.864001 0.345755 0.326955
Si Si5 0.409254 0.653485 0.225966
O O1 0.623173 0.856106 0.506458
O O2 0.441255 0.016205 0.371804
O O3 0.569484 0.165810 0.385904
O O4 0.620101 0.169401 0.571226
O O5 0.356972 0.496703 0.521959
O O6 0.252988 0.371548 0.306553
O O7 0.196761 0.267896 0.382114
O O8 0.750000 0.750000 0.000000
O O9 0.604118 0.561098 0.808058
O O10 0.913556 0.180823 0.319092
O O11 0.500000 0.725934 0.250000
#
# Coordination Sequence:
#
# PCOD9291426 Si02
#       5
#     8   8   8   8   8
#     4  11  23  47  67 100 140 176 230 280 344 404
#     4  10  24  42  68  94 140 173 225 279 339 397
#     4  12  24  39  70 101 130 179 227 279 339 406
#     4   9  24  42  69  94 137 184 213 286 339 395
#     4  10  22  42  67  95 135 175 224 281 340 396
#
# _framework density 24.469697
#
# number of rings (size 3 to 8) (size 9 to 14) (size 15 to 20)
#    1.200    0.400    2.000    1.800    5.600    1.600 
#    0.000    9.000    0.000    0.000    0.000    0.000 
#    0.000    0.000    0.000    0.000    0.000    0.000 
#
# Total GULP energy -111681.863066 kJ/mol
# GULP energy per Si atom -5584.093153 kJ/mol
# Density = 2.441400 g / cm^3
# Si number density = 24.469697 Si / 1000 Ang^3
#
#
#
# Elastic Constant Matrix: (Units=GPa)
#
#
# Indices 1 2 3 4 5 6 
#
# 1 51.2047 19.7178 5.1077 0.0000 -4.4865 0.0000
# 2 19.7178 99.6827 51.2311 0.0000 -16.2131 0.0000
# 3 5.1077 51.2311 109.4129 0.0000 -17.6405 0.0000
# 4 0.0000 0.0000 0.0000 43.7837 0.0000 -8.4030
# 5 -4.4865 -16.2131 -17.6405 0.0000 37.4184 0.0000
# 6 0.0000 0.0000 0.0000 -8.4030 0.0000 39.8689
#
#
#
# Elastic Compliance Matrix: (Units=1/GPa)
#
#
# Indices 1 2 3 4 5 6 
#
# 1 0.021322 -0.004758 0.001420 0.000000 0.001164 0.000000
# 2 -0.004758 0.014600 -0.006154 0.000000 0.002854 0.000000
# 3 0.001420 -0.006154 0.012503 0.000000 0.003398 0.000000
# 4 0.000000 0.000000 0.000000 0.023802 0.000000 0.005017
# 5 0.001164 0.002854 0.003398 0.000000 0.029703 0.000000
# 6 0.000000 0.000000 0.000000 0.005017 0.000000 0.026140
#
#
# Mechanical properties :
#
#
# Convention : Reuss Voigt Hill
#
# Bulk Modulus (GPa) = 33.96590 45.82371 39.89481
# Shear Modulus (GPa) = 31.87405 36.49713 34.18559
#
# Velocity S-wave (km/s) = 3.61306 3.86621 3.74178
# Velocity P-wave (km/s) = 5.59612 6.22073 5.91667
#
# Compressibility (1/GPa) = 0.02944129
#
# Stress axis : x y z
#
# Youngs Moduli (GPa) = 46.89970 68.49293 79.98234
#
# Poissons Ratio (x) = 0.32590 -0.11360
# Poissons Ratio (y) = 0.22316 0.49221
# Poissons Ratio (z) = -0.06661 0.42150
#
# Static dielectric constant tensor:
#      x y z
#    x 1.932060 0.000000 -0.021820 
#    y 0.000000 1.928220 0.000000 
#    z -0.021820 0.000000 2.080580 
# 
# From -- ./inp_files/253903.got.cif
#   From: 2010.05.17/outbox.cif.g08.bks.cpg/sg15_127_cif.got.tgz:253903.got - 2010.06.03 18:47:42.
