data_PCOD9291861
_publ_section_title
;
Structure prediction by ZEFSAII (Michael W. Deem and Ramdas Pophale) SiO2 
 PCOD9291861
Probable space group: C 2/C
;
_chemical_formula_sum "Si O2"
_cell_formula_units_Z 40
_cell_length_a 23.826591
_cell_length_b 8.432818
_cell_length_c 15.820993
_cell_angle_alpha 90.000000
_cell_angle_beta 145.372591
_cell_angle_gamma 90.000000
_cell_volume 1806.334714
_symmetry_space_group_name_H-M "C 2/C"
_symmetry_group_IT_number 15
_symmetry_cell_setting 'monoclinic'
loop_
_space_group_symop_operation_xyz
x,y,z
-x,y,1/2-z
-x,-y,-z
x,-y,1/2+z
1/2+x,1/2+y,z
1/2-x,1/2+y,1/2-z
1/2-x,1/2-y,-z
1/2+x,1/2-y,1/2+z
loop_
_atom_site_type_symbol
_atom_site_label
_atom_site_fract_x
_atom_site_fract_y
_atom_site_fract_z
Si Si1 0.672592 0.415155 0.003679
Si Si2 0.387674 0.100636 0.135608
Si Si3 0.047575 0.853429 0.008568
Si Si4 0.633371 0.768599 0.294541
Si Si5 0.718165 0.751375 0.842344
O O1 0.585700 0.392768 0.961971
O O2 0.762420 0.289244 0.123049
O O3 0.722700 0.582973 0.086608
O O4 0.638191 0.380935 0.864575
O O5 0.500000 0.132681 0.250000
O O6 0.351198 0.225660 0.161128
O O7 0.380860 0.924900 0.165680
O O8 0.304187 0.121567 0.960502
O O9 0.142480 0.785875 0.174444
O O10 0.956196 0.736246 0.881253
O O11 0.000000 0.000000 0.000000
#
# Coordination Sequence:
#
# PCOD9291861 Si02
#       5
#     8   8   8   8   8
#     4  10  24  45  73  92 139 173 230 277 333 405
#     4  10  22  42  73  93 133 176 227 269 332 401
#     4  12  28  40  68 105 139 176 221 281 346 394
#     4  10  24  46  71  97 126 184 226 272 337 403
#     4  10  26  42  64 105 130 175 224 278 334 396
#
# _framework density 22.144290000000002
#
# number of rings (size 3 to 8) (size 9 to 14) (size 15 to 20)
#    0.000    1.600    0.000    1.800   16.800    4.800 
#    0.000    0.000    0.000    0.000    0.000    0.000 
#    0.000    0.000    0.000    0.000    0.000    0.000 
#
# Total GULP energy -111724.064580 kJ/mol
# GULP energy per Si atom -5586.203229 kJ/mol
# Density = 2.209389 g / cm^3
# Si number density = 22.144290 Si / 1000 Ang^3
#
#
#
# Elastic Constant Matrix: (Units=GPa)
#
#
# Indices 1 2 3 4 5 6 
#
# 1 81.6479 1.1990 4.2211 0.0000 35.2034 0.0000
# 2 1.1990 90.0089 44.8434 0.0000 -1.8769 0.0000
# 3 4.2211 44.8434 179.2136 0.0000 14.1209 0.0000
# 4 0.0000 0.0000 0.0000 25.2237 0.0000 3.3022
# 5 35.2034 -1.8769 14.1209 0.0000 37.9852 0.0000
# 6 0.0000 0.0000 0.0000 3.3022 0.0000 13.0277
#
#
#
# Elastic Compliance Matrix: (Units=1/GPa)
#
#
# Indices 1 2 3 4 5 6 
#
# 1 0.020740 -0.001399 0.001423 0.000000 -0.019819 0.000000
# 2 -0.001399 0.012916 -0.003452 0.000000 0.003218 0.000000
# 3 0.001423 -0.003452 0.006725 0.000000 -0.003989 0.000000
# 4 0.000000 0.000000 0.000000 0.041006 0.000000 -0.010394
# 5 -0.019819 0.003218 -0.003989 0.000000 0.046336 0.000000
# 6 0.000000 0.000000 0.000000 -0.010394 0.000000 0.079394
#
#
# Mechanical properties :
#
#
# Convention : Reuss Voigt Hill
#
# Bulk Modulus (GPa) = 29.82887 50.15526 39.99207
# Shear Modulus (GPa) = 22.20771 35.28777 28.74774
#
# Velocity S-wave (km/s) = 3.17024 3.99624 3.60696
# Velocity P-wave (km/s) = 5.18652 6.63263 5.95365
#
# Compressibility (1/GPa) = 0.03352457
#
# Stress axis : x y z
#
# Youngs Moduli (GPa) = 48.21616 77.42474 148.70712
#
# Poissons Ratio (x) = 0.10828 -0.21162
# Poissons Ratio (y) = 0.06743 0.51340
# Poissons Ratio (z) = -0.06862 0.26730
#
# Static dielectric constant tensor:
#      x y z
#    x 1.835370 0.000000 -0.014140 
#    y 0.000000 1.853060 0.000000 
#    z -0.014140 0.000000 1.868750 
# 
# From -- ./inp_files/221974.got.cif
#   From: 2010.05.17/outbox.cif.g08.bks.cpg/sg15_111_cif.got.tgz:221974.got - 2010.06.03 18:47:42.
