data_PCOD9291094
_publ_section_title
;
Structure prediction by ZEFSAII (Michael W. Deem and Ramdas Pophale) SiO2 
 PCOD9291094
Probable space group: C 2/C
;
_chemical_formula_sum "Si O2"
_cell_formula_units_Z 60
_cell_length_a 23.388878
_cell_length_b 25.170864
_cell_length_c 17.250410
_cell_angle_alpha 90.000000
_cell_angle_beta 161.654238
_cell_angle_gamma 90.000000
_cell_volume 3196.491708
_symmetry_space_group_name_H-M "C 2/C"
_symmetry_group_IT_number 15
_symmetry_cell_setting 'monoclinic'
loop_
_space_group_symop_operation_xyz
x,y,z
-x,y,1/2-z
-x,-y,-z
x,-y,1/2+z
1/2+x,1/2+y,z
1/2-x,1/2+y,1/2-z
1/2-x,1/2-y,-z
1/2+x,1/2-y,1/2+z
loop_
_atom_site_type_symbol
_atom_site_label
_atom_site_fract_x
_atom_site_fract_y
_atom_site_fract_z
Si Si1 0.637007 0.546280 0.194273
Si Si2 0.669006 0.690660 0.906664
Si Si3 0.614015 0.312485 0.769808
Si Si4 0.162539 0.927153 0.904911
Si Si5 0.511378 0.107687 0.172040
Si Si6 0.105842 0.146923 0.651963
Si Si7 0.486796 0.009734 0.892104
Si Si8 0.500000 0.772084 0.250000
O O1 0.664603 0.548599 0.321920
O O2 0.824393 0.532339 0.395621
O O3 0.500000 0.500000 0.000000
O O4 0.538523 0.598908 0.036609
O O5 0.500000 0.690641 0.750000
O O6 0.614330 0.671190 0.749284
O O7 0.750000 0.750000 0.000000
O O8 0.829735 0.650390 0.141572
O O9 0.628934 0.365118 0.842410
O O10 0.472786 0.316448 0.517566
O O11 0.551217 0.264607 0.743315
O O12 0.817785 0.304955 0.999551
O O13 0.000000 0.946383 0.750000
O O14 0.340380 0.946386 0.178332
O O15 0.500000 0.104224 0.250000
O O16 0.551519 0.048653 0.192964
O O17 0.307989 0.127023 0.887693
O O18 0.500000 0.000000 0.000000
#
# Coordination Sequence:
#
# PCOD9291094 Si02
#       8
#     8   8   8   8   8   8   8   4
#     4  11  22  41  65  94 132 171 214 262 323 391
#     4  11  25  45  69  96 130 171 219 274 338 395
#     4  10  23  41  65  92 127 166 213 268 328 383
#     4  11  24  41  63  91 134 170 214 270 325 378
#     4  10  22  43  65  91 131 169 212 269 324 381
#     4  10  23  41  67  95 128 171 216 265 329 391
#     4  12  26  39  64  99 129 177 218 262 327 396
#     4  10  22  42  64  92 122 166 214 266 326 382
#
# _framework density 18.770578
#
# number of rings (size 3 to 8) (size 9 to 14) (size 15 to 20)
#    0.000    1.333    2.000    3.200    9.333    2.667 
#    0.000    2.667    0.000    0.000    0.000    0.000 
#    0.000    0.000    0.000    0.000    0.000    0.000 
#
# Total GULP energy -167410.165301 kJ/mol
# GULP energy per Si atom -5580.338843 kJ/mol
# Density = 1.872786 g / cm^3
# Si number density = 18.770578 Si / 1000 Ang^3
#
#
#
# Elastic Constant Matrix: (Units=GPa)
#
#
# Indices 1 2 3 4 5 6 
#
# 1 115.7291 31.0884 56.7089 0.0000 14.3774 0.0000
# 2 31.0884 29.2004 14.0958 0.0000 -4.4724 0.0000
# 3 56.7089 14.0958 125.6924 0.0000 5.3533 0.0000
# 4 0.0000 0.0000 0.0000 31.1957 0.0000 1.1515
# 5 14.3774 -4.4724 5.3533 0.0000 39.9701 0.0000
# 6 0.0000 0.0000 0.0000 1.1515 0.0000 31.6881
#
#
#
# Elastic Compliance Matrix: (Units=1/GPa)
#
#
# Indices 1 2 3 4 5 6 
#
# 1 0.016397 -0.015962 -0.005311 0.000000 -0.006973 0.000000
# 2 -0.015962 0.052613 0.000811 0.000000 0.011520 0.000000
# 3 -0.005311 0.000811 0.010234 0.000000 0.000630 0.000000
# 4 0.000000 0.000000 0.000000 0.032099 0.000000 -0.001166
# 5 -0.006973 0.011520 0.000630 0.000000 0.028732 0.000000
# 6 0.000000 0.000000 0.000000 -0.001166 0.000000 0.031600
#
#
# Mechanical properties :
#
#
# Convention : Reuss Voigt Hill
#
# Bulk Modulus (GPa) = 26.09586 52.71201 39.40394
# Shear Modulus (GPa) = 22.18543 31.81936 27.00239
#
# Velocity S-wave (km/s) = 3.44164 4.12171 3.79694
# Velocity P-wave (km/s) = 5.45215 7.12703 6.34510
#
# Compressibility (1/GPa) = 0.03832025
#
# Stress axis : x y z
#
# Youngs Moduli (GPa) = 60.98508 19.00670 97.70997
#
# Poissons Ratio (x) = 0.30338 0.51894
# Poissons Ratio (y) = 0.97343 -0.07920
# Poissons Ratio (z) = 0.32389 -0.01541
#
# Static dielectric constant tensor:
#      x y z
#    x 1.617670 0.000000 -0.001200 
#    y 0.000000 7.348610 -0.000010 
#    z -0.001200 -0.000010 1.648130 
# 
# From -- ./inp_files/169957.got.cif
#   From: 2010.05.17/outbox.cif.g08.bks.cpg/sg15_85_cif.got.tgz:169957.got - 2010.06.03 18:47:42.
