data_PCOD9291492
_publ_section_title
;
Structure prediction by ZEFSAII (Michael W. Deem and Ramdas Pophale) SiO2 
 PCOD9291492
Probable space group: C 2/C
;
_chemical_formula_sum "Si O2"
_cell_formula_units_Z 32
_cell_length_a 18.828696
_cell_length_b 4.908119
_cell_length_c 14.972408
_cell_angle_alpha 90.000000
_cell_angle_beta 120.798374
_cell_angle_gamma 90.000000
_cell_volume 1188.521974
_symmetry_space_group_name_H-M "C 2/C"
_symmetry_group_IT_number 15
_symmetry_cell_setting 'monoclinic'
loop_
_space_group_symop_operation_xyz
x,y,z
-x,y,1/2-z
-x,-y,-z
x,-y,1/2+z
1/2+x,1/2+y,z
1/2-x,1/2+y,1/2-z
1/2-x,1/2-y,-z
1/2+x,1/2-y,1/2+z
loop_
_atom_site_type_symbol
_atom_site_label
_atom_site_fract_x
_atom_site_fract_y
_atom_site_fract_z
Si Si1 0.941453 0.638271 0.286174
Si Si2 0.399756 0.162949 0.011520
Si Si3 0.799743 0.550787 0.599732
Si Si4 0.848482 0.854800 0.376674
O O1 0.888403 0.399538 0.205479
O O2 0.876707 0.836289 0.293206
O O3 0.000000 0.776196 0.250000
O O4 0.988714 0.550597 0.098375
O O5 0.409005 0.453070 0.972294
O O6 0.357214 0.952644 0.917033
O O7 0.336338 0.179375 0.055159
O O8 0.750000 0.750000 0.500000
O O9 0.738713 0.527282 0.645361
#
# Coordination Sequence:
#
# PCOD9291492 Si02
#       4
#     8   8   8   8
#     4  10  22  42  68 104 141 187 239 291 355 430
#     4  10  22  43  68  99 137 182 234 294 354 419
#     4   9  21  43  70 102 144 186 234 295 362 430
#     4  11  22  42  68  99 138 183 233 294 354 419
#
# _framework density 26.924195999999998
#
# number of rings (size 3 to 8) (size 9 to 14) (size 15 to 20)
#    0.000    2.000    0.000    2.250    0.000    2.000 
#    0.000   47.500    0.000    0.000    0.000    0.000 
#    0.000    0.000    0.000    0.000    0.000    0.000 
#
# Total GULP energy -89215.159570 kJ/mol
# GULP energy per Si atom -5575.947473 kJ/mol
# Density = 2.686292 g / cm^3
# Si number density = 26.924196 Si / 1000 Ang^3
#
#
#
# Elastic Constant Matrix: (Units=GPa)
#
#
# Indices 1 2 3 4 5 6 
#
# 1 247.0978 35.7891 69.4757 0.0000 -25.1875 0.0000
# 2 35.7891 73.7871 23.7431 -0.0001 -10.9074 0.0002
# 3 69.4757 23.7431 102.6116 0.0000 2.0510 0.0000
# 4 0.0000 -0.0001 0.0000 19.3636 0.0000 -12.6906
# 5 -25.1875 -10.9074 2.0510 0.0000 71.1849 0.0000
# 6 0.0000 0.0002 0.0000 -12.6906 0.0000 24.7258
#
#
#
# Elastic Compliance Matrix: (Units=1/GPa)
#
#
# Indices 1 2 3 4 5 6 
#
# 1 0.005361 -0.001247 -0.003377 0.000000 0.001803 0.000000
# 2 -0.001247 0.015334 -0.002744 0.000000 0.001987 0.000000
# 3 -0.003377 -0.002744 0.012707 0.000000 -0.001981 0.000000
# 4 0.000000 0.000000 0.000000 0.077820 0.000000 0.039942
# 5 0.001803 0.001987 -0.001981 0.000000 0.015048 0.000000
# 6 0.000000 0.000000 0.000000 0.039942 0.000000 0.060944
#
#
# Mechanical properties :
#
#
# Convention : Reuss Voigt Hill
#
# Bulk Modulus (GPa) = 53.57356 75.72359 64.64857
# Shear Modulus (GPa) = 24.01877 42.68744 33.35311
#
# Velocity S-wave (km/s) = 2.99003 3.98611 3.52345
# Velocity P-wave (km/s) = 5.64460 7.02647 6.37310
#
# Compressibility (1/GPa) = 0.01866592
#
# Stress axis : x y z
#
# Youngs Moduli (GPa) = 186.53359 65.21500 78.69945
#
# Poissons Ratio (x) = 0.08132 0.26579
# Poissons Ratio (y) = 0.23260 0.21591
# Poissons Ratio (z) = 0.62998 0.17892
#
# Static dielectric constant tensor:
#      x y z
#    x 2.171370 0.000000 -0.015800 
#    y 0.000000 2.012640 0.000000 
#    z -0.015800 0.000000 2.266350 
# 
# From -- ./inp_files/158265.got.cif
#   From: 2010.05.17/outbox.cif.g08.bks.cpg/sg15_80_cif.got.tgz:158265.got - 2010.06.03 18:47:42.
