data_PCOD9291078
_publ_section_title
;
Structure prediction by ZEFSAII (Michael W. Deem and Ramdas Pophale) SiO2 
 PCOD9291078
Probable space group: C 2/C
;
_chemical_formula_sum "Si O2"
_cell_formula_units_Z 48
_cell_length_a 14.002003
_cell_length_b 12.574588
_cell_length_c 26.240957
_cell_angle_alpha 90.000000
_cell_angle_beta 31.434121
_cell_angle_gamma 90.000000
_cell_volume 2409.532439
_symmetry_space_group_name_H-M "C 2/C"
_symmetry_group_IT_number 15
_symmetry_cell_setting 'monoclinic'
loop_
_space_group_symop_operation_xyz
x,y,z
-x,y,1/2-z
-x,-y,-z
x,-y,1/2+z
1/2+x,1/2+y,z
1/2-x,1/2+y,1/2-z
1/2-x,1/2-y,-z
1/2+x,1/2-y,1/2+z
loop_
_atom_site_type_symbol
_atom_site_label
_atom_site_fract_x
_atom_site_fract_y
_atom_site_fract_z
Si Si1 0.630975 0.374252 0.738425
Si Si2 0.426636 0.029947 0.637497
Si Si3 0.039808 0.356551 0.671274
Si Si4 0.206093 0.127927 0.032207
Si Si5 0.161745 0.188549 0.805881
Si Si6 0.085596 0.956990 0.012437
O O1 0.500000 0.365691 0.750000
O O2 0.773561 0.471685 0.673241
O O3 0.483151 0.382249 0.851210
O O4 0.758841 0.272450 0.689839
O O5 0.617841 0.065219 0.524630
O O6 0.334486 0.136833 0.699647
O O7 0.459123 0.951225 0.671610
O O8 0.257557 0.369377 0.567537
O O9 0.000000 0.364367 0.750000
O O10 0.961407 0.250977 0.679635
O O11 0.250000 0.250000 0.000000
O O12 0.176519 0.061670 0.994563
O O13 0.054172 0.096325 0.884412
O O14 0.000000 0.000000 0.000000
#
# Coordination Sequence:
#
# PCOD9291078 Si02
#       6
#     8   8   8   8   8   8
#     4  11  25  42  64  95 130 169 214 264 325 387
#     4  10  22  42  64  89 130 170 212 269 311 388
#     4  10  23  40  63  95 127 169 215 265 323 376
#     4  11  23  42  66  94 128 169 216 266 322 382
#     4  11  22  41  63  91 132 163 216 270 315 379
#     4  11  24  40  68  93 127 171 219 262 321 382
#
# _framework density 19.920877999999998
#
# number of rings (size 3 to 8) (size 9 to 14) (size 15 to 20)
#    0.000    1.333    3.333    1.500    4.667    2.000 
#    0.000    0.000    0.000    0.000    0.000    0.000 
#    0.000    0.000    0.000    0.000    0.000    0.000 
#
# Total GULP energy -133855.081965 kJ/mol
# GULP energy per Si atom -5577.295082 kJ/mol
# Density = 1.987554 g / cm^3
# Si number density = 19.920878 Si / 1000 Ang^3
#
#
#
# Elastic Constant Matrix: (Units=GPa)
#
#
# Indices 1 2 3 4 5 6 
#
# 1 99.9419 27.1733 2.1143 0.0000 -14.5019 0.0000
# 2 27.1733 91.9591 12.9571 -0.0001 -9.0782 0.0000
# 3 2.1143 12.9571 64.2864 -0.0007 -20.4846 0.0003
# 4 0.0000 -0.0001 -0.0007 23.4125 0.0000 -4.4222
# 5 -14.5019 -9.0782 -20.4846 0.0000 27.8225 -0.0001
# 6 0.0000 0.0000 0.0003 -4.4222 -0.0001 12.9140
#
#
#
# Elastic Compliance Matrix: (Units=1/GPa)
#
#
# Indices 1 2 3 4 5 6 
#
# 1 0.011818 -0.003153 0.002459 0.000000 0.006941 0.000000
# 2 -0.003153 0.012180 -0.002102 0.000000 0.000783 0.000000
# 3 0.002459 -0.002102 0.021019 0.000001 0.016071 0.000000
# 4 0.000000 0.000000 0.000001 0.045666 0.000001 0.015637
# 5 0.006941 0.000783 0.016071 0.000001 0.051649 0.000000
# 6 0.000000 0.000000 0.000000 0.015637 0.000000 0.082790
#
#
# Mechanical properties :
#
#
# Convention : Reuss Voigt Hill
#
# Bulk Modulus (GPa) = 25.36482 37.85299 31.60890
# Shear Modulus (GPa) = 20.50390 27.09263 23.79826
#
# Velocity S-wave (km/s) = 3.21170 3.69183 3.46011
# Velocity P-wave (km/s) = 5.14915 6.10047 5.64489
#
# Compressibility (1/GPa) = 0.03942469
#
# Stress axis : x y z
#
# Youngs Moduli (GPa) = 84.61364 82.10422 47.57557
#
# Poissons Ratio (x) = 0.25891 -0.11698
# Poissons Ratio (y) = 0.26682 0.09998
# Poissons Ratio (z) = -0.20804 0.17255
#
# Static dielectric constant tensor:
#      x y z
#    x 1.720720 0.000000 -0.011090 
#    y 0.000000 1.726980 0.000000 
#    z -0.011090 0.000000 1.766110 
# 
# From -- ./inp_files/152442.got.cif
#   From: 2010.05.17/outbox.cif.g08.bks.cpg/sg15_77_cif.got.tgz:152442.got - 2010.06.03 18:47:42.
