data_PCOD9291899
_publ_section_title
;
Structure prediction by ZEFSAII (Michael W. Deem and Ramdas Pophale) SiO2 
 PCOD9291899
Probable space group: C 2/C
;
_chemical_formula_sum "Si O2"
_cell_formula_units_Z 44
_cell_length_a 16.798472
_cell_length_b 4.987515
_cell_length_c 21.998424
_cell_angle_alpha 90.000000
_cell_angle_beta 96.961577
_cell_angle_gamma 90.000000
_cell_volume 1829.497978
_symmetry_space_group_name_H-M "C 2/C"
_symmetry_group_IT_number 15
_symmetry_cell_setting 'monoclinic'
loop_
_space_group_symop_operation_xyz
x,y,z
-x,y,1/2-z
-x,-y,-z
x,-y,1/2+z
1/2+x,1/2+y,z
1/2-x,1/2+y,1/2-z
1/2-x,1/2-y,-z
1/2+x,1/2-y,1/2+z
loop_
_atom_site_type_symbol
_atom_site_label
_atom_site_fract_x
_atom_site_fract_y
_atom_site_fract_z
Si Si1 0.793050 0.890702 0.559665
Si Si2 0.852399 0.872798 0.280841
Si Si3 0.500000 0.723587 0.250000
Si Si4 0.712698 0.132004 0.667021
Si Si5 0.943289 0.635968 0.623045
Si Si6 0.542377 0.372980 0.446197
O O1 0.750000 0.750000 0.500000
O O2 0.735874 0.036605 0.602159
O O3 0.848578 0.678022 0.602228
O O4 0.861453 0.091177 0.539872
O O5 0.790683 0.882344 0.218101
O O6 0.817737 0.066265 0.330503
O O7 0.930298 0.023893 0.265027
O O8 0.850725 0.574505 0.308193
O O9 0.536171 0.912173 0.305989
O O10 0.978981 0.926727 0.610661
O O11 0.975760 0.423666 0.577571
O O12 0.500000 0.500000 0.500000
#
# Coordination Sequence:
#
# PCOD9291899 Si02
#       6
#     8   8   4   8   8   8
#     4  10  24  43  69  93 134 176 225 274 330 399
#     4  10  23  39  69  87 135 164 217 273 327 396
#     4  12  24  46  70 102 134 180 222 286 340 408
#     4  10  22  43  59  99 124 172 215 270 331 391
#     4  10  25  41  68  99 134 175 223 283 335 405
#     4  10  23  45  67  98 137 175 225 281 336 400
#
# _framework density 24.050314
#
# number of rings (size 3 to 8) (size 9 to 14) (size 15 to 20)
#    1.091    0.727    1.818    0.545    2.545    9.455 
#    0.000    0.000    0.000    0.000    0.000    0.000 
#    0.000    0.000    0.000    0.000    0.000    0.000 
#
# Total GULP energy -123023.907087 kJ/mol
# GULP energy per Si atom -5591.995777 kJ/mol
# Density = 2.399557 g / cm^3
# Si number density = 24.050314 Si / 1000 Ang^3
#
#
#
# Elastic Constant Matrix: (Units=GPa)
#
#
# Indices 1 2 3 4 5 6 
#
# 1 73.1755 -2.2410 22.1508 0.0000 -1.9380 0.0000
# 2 -2.2410 70.1382 -21.1915 0.0000 8.3581 0.0000
# 3 22.1508 -21.1915 88.2512 0.0000 10.3889 0.0000
# 4 0.0000 0.0000 0.0000 22.8492 0.0000 -9.5856
# 5 -1.9380 8.3581 10.3889 0.0000 42.2639 0.0000
# 6 0.0000 0.0000 0.0000 -9.5856 0.0000 17.1189
#
#
#
# Elastic Compliance Matrix: (Units=1/GPa)
#
#
# Indices 1 2 3 4 5 6 
#
# 1 0.014966 -0.001030 -0.004231 0.000000 0.001930 0.000000
# 2 -0.001030 0.016153 0.004654 0.000000 -0.004386 0.000000
# 3 -0.004231 0.004654 0.014048 0.000000 -0.004568 0.000000
# 4 0.000000 0.000000 0.000000 0.057202 0.000000 0.032030
# 5 0.001930 -0.004386 -0.004568 0.000000 0.025739 0.000000
# 6 0.000000 0.000000 0.000000 0.032030 0.000000 0.076350
#
#
# Mechanical properties :
#
#
# Convention : Reuss Voigt Hill
#
# Bulk Modulus (GPa) = 22.75161 25.44460 24.09811
# Shear Modulus (GPa) = 22.69370 31.96953 27.33161
#
# Velocity S-wave (km/s) = 3.07513 3.64988 3.37476
# Velocity P-wave (km/s) = 4.69990 5.32587 5.02265
#
# Compressibility (1/GPa) = 0.04395293
#
# Stress axis : x y z
#
# Youngs Moduli (GPa) = 66.81767 61.90668 71.18227
#
# Poissons Ratio (x) = 0.06377 0.30117
# Poissons Ratio (y) = 0.06883 -0.33126
# Poissons Ratio (z) = 0.28271 -0.28810
#
# Static dielectric constant tensor:
#      x y z
#    x 1.946520 0.000000 -0.007500 
#    y 0.000000 1.907170 0.000000 
#    z -0.007500 0.000000 1.917410 
# 
# From -- ./inp_files/246465.got.cif
#   From: 2010.05.17/outbox.cif.g08.bks.cpg/sg15_124_cif.got.tgz:246465.got - 2010.06.03 18:47:42.
