data_PCOD9291440
_publ_section_title
;
Structure prediction by ZEFSAII (Michael W. Deem and Ramdas Pophale) SiO2 
 PCOD9291440
Probable space group: C 2/C
;
_chemical_formula_sum "Si O2"
_cell_formula_units_Z 28
_cell_length_a 17.526945
_cell_length_b 15.986938
_cell_length_c 9.710703
_cell_angle_alpha 90.000000
_cell_angle_beta 148.994209
_cell_angle_gamma 90.000000
_cell_volume 1401.633818
_symmetry_space_group_name_H-M "C 2/C"
_symmetry_group_IT_number 15
_symmetry_cell_setting 'monoclinic'
loop_
_space_group_symop_operation_xyz
x,y,z
-x,y,1/2-z
-x,-y,-z
x,-y,1/2+z
1/2+x,1/2+y,z
1/2-x,1/2+y,1/2-z
1/2-x,1/2-y,-z
1/2+x,1/2-y,1/2+z
loop_
_atom_site_type_symbol
_atom_site_label
_atom_site_fract_x
_atom_site_fract_y
_atom_site_fract_z
Si Si1 0.500000 0.177734 0.250000
Si Si2 0.915416 0.060537 0.262183
Si Si3 0.143693 0.446368 0.757827
Si Si4 0.868567 0.839069 0.942458
O O1 0.406220 0.119733 0.204933
O O2 0.616365 0.240527 0.504460
O O3 0.896827 0.142620 0.326819
O O4 0.000000 0.074479 0.250000
O O5 0.000000 0.000000 0.500000
O O6 0.763526 0.013360 0.994199
O O7 0.223419 0.390085 0.763900
O O8 0.000000 0.500000 0.500000
O O9 0.000000 0.872048 0.250000
#
# Coordination Sequence:
#
# PCOD9291440 Si02
#       4
#     4   8   8   8
#     4  10  24  42  72  92 144 180 222 272 354 400
#     4  12  21  42  71  98 133 178 230 274 334 411
#     4  12  23  40  71 104 132 172 235 281 327 399
#     4  10  22  42  67  97 131 183 223 264 347 400
#
# _framework density 19.976686000000001
#
# number of rings (size 3 to 8) (size 9 to 14) (size 15 to 20)
#    0.857    0.000    5.714    2.571    0.000    0.000 
#    0.000    1.429    3.143    0.000    0.000    0.000 
#    0.000    0.000    0.000    0.000    0.000    0.000 
#
# Total GULP energy -78082.844141 kJ/mol
# GULP energy per Si atom -5577.346010 kJ/mol
# Density = 1.993122 g / cm^3
# Si number density = 19.976686 Si / 1000 Ang^3
#
#
#
# Elastic Constant Matrix: (Units=GPa)
#
#
# Indices 1 2 3 4 5 6 
#
# 1 190.8661 78.7828 67.8847 0.0000 -19.1952 0.0000
# 2 78.7828 130.3872 51.5320 0.0000 -6.1847 0.0000
# 3 67.8847 51.5320 115.0360 0.0000 13.0371 0.0000
# 4 0.0000 0.0000 0.0000 3.2905 0.0000 -34.8832
# 5 -19.1952 -6.1847 13.0371 0.0000 34.1475 0.0000
# 6 0.0000 0.0000 0.0000 -34.8832 0.0000 4.3914
#
#
#
# Elastic Compliance Matrix: (Units=1/GPa)
#
#
# Indices 1 2 3 4 5 6 
#
# 1 0.008750 -0.003273 -0.004377 0.000000 0.005997 0.000000
# 2 -0.003273 0.010944 -0.003123 0.000000 0.001335 0.000000
# 3 -0.004377 -0.003123 0.013607 0.000000 -0.008221 0.000000
# 4 0.000000 0.000000 0.000000 -0.003652 0.000000 -0.029012
# 5 0.005997 0.001335 -0.008221 0.000000 0.036036 0.000000
# 6 0.000000 0.000000 0.000000 -0.029012 0.000000 -0.002737
#
#
# Mechanical properties :
#
#
# Convention : Reuss Voigt Hill
#
# Bulk Modulus (GPa) = 85.06371 92.52092 88.79232
# Shear Modulus (GPa) = 56.55354 24.23854 40.39604
#
# Velocity S-wave (km/s) = 5.32647 3.48708 4.50172
# Velocity P-wave (km/s) = 8.97230 7.91379 8.45962
#
# Compressibility (1/GPa) = 0.01175589
#
# Stress axis : x y z
#
# Youngs Moduli (GPa) = 114.28574 91.37180 73.49389
#
# Poissons Ratio (x) = 0.29902 0.32170
# Poissons Ratio (y) = 0.37400 0.22950
# Poissons Ratio (z) = 0.50025 0.28533
#
# Static dielectric constant tensor:
#      x y z
#    x 1.729800 0.000000 0.012260 
#    y 0.000000 1.725270 0.000000 
#    z 0.012260 0.000000 1.710590 
# 
# From -- ./inp_files/48868.got.cif
#   From: 2010.05.17/outbox.cif.g08.bks.cpg/sg15_25_cif.got.tgz:48868.got - 2010.06.03 18:47:42.
