data_PCOD9291293
_publ_section_title
;
Structure prediction by ZEFSAII (Michael W. Deem and Ramdas Pophale) SiO2 
 PCOD9291293
Probable space group: C 2/C
;
_chemical_formula_sum "Si O2"
_cell_formula_units_Z 60
_cell_length_a 25.172106
_cell_length_b 21.688002
_cell_length_c 9.239021
_cell_angle_alpha 90.000000
_cell_angle_beta 37.762095
_cell_angle_gamma 90.000000
_cell_volume 3088.794483
_symmetry_space_group_name_H-M "C 2/C"
_symmetry_group_IT_number 15
_symmetry_cell_setting 'monoclinic'
loop_
_space_group_symop_operation_xyz
x,y,z
-x,y,1/2-z
-x,-y,-z
x,-y,1/2+z
1/2+x,1/2+y,z
1/2-x,1/2+y,1/2-z
1/2-x,1/2-y,-z
1/2+x,1/2-y,1/2+z
loop_
_atom_site_type_symbol
_atom_site_label
_atom_site_fract_x
_atom_site_fract_y
_atom_site_fract_z
Si Si1 0.380557 0.085090 0.626567
Si Si2 0.908352 0.527613 0.874198
Si Si3 0.207897 0.155184 0.685644
Si Si4 0.600700 0.364675 0.988190
Si Si5 0.855147 0.243377 0.924520
Si Si6 0.682661 0.590266 0.031151
Si Si7 0.274416 0.554137 0.089795
Si Si8 0.500000 0.186788 0.250000
O O1 0.408174 0.043515 0.704677
O O2 0.281963 0.106283 0.858824
O O3 0.437506 0.144251 0.478354
O O4 0.394292 0.043492 0.452643
O O5 0.000000 0.547096 0.750000
O O6 0.819583 0.556039 0.130440
O O7 0.152231 0.198677 0.698262
O O8 0.285565 0.201558 0.563871
O O9 0.165125 0.124193 0.917471
O O10 0.236261 0.095984 0.529653
O O11 0.650291 0.301379 0.924141
O O12 0.615323 0.385257 0.793051
O O13 0.651719 0.415222 0.972137
O O14 0.500000 0.360829 0.250000
O O15 0.947638 0.273673 0.747379
O O16 0.693163 0.515843 0.004603
#
# Coordination Sequence:
#
# PCOD9291293 Si02
#       8
#     8   8   8   8   8   8   8   4
#     4  11  24  37  63  99 136 177 206 260 318 409
#     4  11  23  37  60  97 142 174 205 253 326 400
#     4  10  22  42  66  93 130 170 214 271 327 390
#     4  11  23  44  67  87 124 173 225 275 323 378
#     4  10  23  42  65  88 127 181 219 269 319 375
#     4  11  22  40  67 100 127 165 214 271 335 394
#     4  10  23  40  66  99 133 163 209 267 336 394
#     4  12  22  40  66  92 130 174 226 256 326 386
#
# _framework density 19.425053999999999
#
# number of rings (size 3 to 8) (size 9 to 14) (size 15 to 20)
#    0.000    1.333    4.000    1.200    7.467    1.067 
#    0.000    2.667    2.933    0.000    0.000    0.000 
#    0.000    0.000    0.000    0.000    0.000    0.000 
#
# Total GULP energy -167293.159731 kJ/mol
# GULP energy per Si atom -5576.438658 kJ/mol
# Density = 1.938084 g / cm^3
# Si number density = 19.425054 Si / 1000 Ang^3
#
#
#
# Elastic Constant Matrix: (Units=GPa)
#
#
# Indices 1 2 3 4 5 6 
#
# 1 78.2334 46.9689 38.3535 0.0000 1.0090 0.0000
# 2 46.9689 126.5353 56.3519 0.0000 12.3915 0.0000
# 3 38.3535 56.3519 83.0295 0.0000 8.4480 0.0000
# 4 0.0000 0.0000 0.0000 12.5821 0.0000 -17.9203
# 5 1.0090 12.3915 8.4480 0.0000 31.1064 0.0000
# 6 0.0000 0.0000 0.0000 -17.9203 0.0000 20.9940
#
#
#
# Elastic Compliance Matrix: (Units=1/GPa)
#
#
# Indices 1 2 3 4 5 6 
#
# 1 0.018222 -0.004528 -0.005623 0.000000 0.002740 0.000000
# 2 -0.004528 0.012643 -0.006162 0.000000 -0.003216 0.000000
# 3 -0.005623 -0.006162 0.019082 0.000000 -0.002545 0.000000
# 4 0.000000 0.000000 0.000000 -0.368376 0.000000 -0.314444
# 5 0.002740 -0.003216 -0.002545 0.000000 0.034031 0.000000
# 6 0.000000 0.000000 0.000000 -0.314444 0.000000 -0.220775
#
#
# Mechanical properties :
#
#
# Convention : Reuss Voigt Hill
#
# Bulk Modulus (GPa) = 57.73104 63.46075 60.59590
# Shear Modulus (GPa) = -10.71184 22.67809 5.98313
#
# Velocity S-wave (km/s) = -2.35083 3.42053 1.75693
# Velocity P-wave (km/s) = 4.73454 6.95273 5.94795
#
# Compressibility (1/GPa) = 0.01732170
#
# Stress axis : x y z
#
# Youngs Moduli (GPa) = 54.87879 79.09658 52.40485
#
# Poissons Ratio (x) = 0.35815 0.29466
# Poissons Ratio (y) = 0.24849 0.32291
# Poissons Ratio (z) = 0.30857 0.48737
#
# Static dielectric constant tensor:
#      x y z
#    x 1.724620 0.000000 0.013640 
#    y 0.000000 1.701490 0.000000 
#    z 0.013640 0.000000 1.676740 
# 
# From -- ./inp_files/63518.got.cif
#   From: 2010.05.17/outbox.cif.g08.bks.cpg/sg15_32_cif.got.tgz:63518.got - 2010.06.03 18:47:42.
