data_PCOD9291381
_publ_section_title
;
Structure prediction by ZEFSAII (Michael W. Deem and Ramdas Pophale) SiO2 
 PCOD9291381
Probable space group: C 2/C
;
_chemical_formula_sum "Si O2"
_cell_formula_units_Z 36
_cell_length_a 7.193115
_cell_length_b 19.855503
_cell_length_c 10.915173
_cell_angle_alpha 90.000000
_cell_angle_beta 70.761512
_cell_angle_gamma 90.000000
_cell_volume 1471.878393
_symmetry_space_group_name_H-M "C 2/C"
_symmetry_group_IT_number 15
_symmetry_cell_setting 'monoclinic'
loop_
_space_group_symop_operation_xyz
x,y,z
-x,y,1/2-z
-x,-y,-z
x,-y,1/2+z
1/2+x,1/2+y,z
1/2-x,1/2+y,1/2-z
1/2-x,1/2-y,-z
1/2+x,1/2-y,1/2+z
loop_
_atom_site_type_symbol
_atom_site_label
_atom_site_fract_x
_atom_site_fract_y
_atom_site_fract_z
Si Si1 0.281827 0.531275 0.523441
Si Si2 0.500000 0.125000 0.750000
Si Si3 0.610284 0.097482 0.110777
Si Si4 0.055268 0.718725 0.976559
Si Si5 0.028939 0.847482 0.610777
O O1 0.500000 0.500000 0.500000
O O2 0.159667 0.465071 0.512915
O O3 0.329452 0.588569 0.415055
O O4 0.170769 0.575640 0.654222
O O5 0.574992 0.174360 0.845778
O O6 0.500000 0.067885 0.250000
O O7 0.820417 0.125000 0.109166
O O8 0.494507 0.161431 0.084945
O O9 0.922581 0.784929 0.987086
O O10 0.250000 0.750000 0.000000
O O11 0.000000 0.817885 0.750000
#
# Coordination Sequence:
#
# PCOD9291381 Si02
#       5
#     8   4   8   8   8
#     4  10  24  44  70 108 145 193 250 308 374 454
#     4  12  24  44  78 104 148 200 248 310 380 446
#     4  10  22  42  67 101 141 187 238 307 368 439
#     4  10  24  44  70 108 145 193 250 308 374 454
#     4  10  22  42  67 101 141 187 238 307 368 439
#
# _framework density 24.458542999999999
#
# number of rings (size 3 to 8) (size 9 to 14) (size 15 to 20)
#    0.000    1.778    2.222    0.000    3.111    8.889 
#    0.000    7.778    0.000    0.000    0.000    0.000 
#    0.000    0.000    0.000    0.000    0.000    0.000 
#
# Total GULP energy -100227.718963 kJ/mol
# GULP energy per Si atom -5568.206609 kJ/mol
# Density = 2.440287 g / cm^3
# Si number density = 24.458543 Si / 1000 Ang^3
#
#
#
# Elastic Constant Matrix: (Units=GPa)
#
#
# Indices 1 2 3 4 5 6 
#
# 1 68.8532 42.5287 6.7588 0.0000 -0.0619 0.0000
# 2 42.5287 186.6140 22.7402 0.0000 0.3243 0.0000
# 3 6.7588 22.7402 48.6427 0.0000 0.3926 0.0000
# 4 0.0000 0.0000 0.0000 51.0547 0.0000 -0.2582
# 5 -0.0619 0.3243 0.3926 0.0000 32.9259 0.0000
# 6 0.0000 0.0000 0.0000 -0.2582 0.0000 35.2818
#
#
#
# Elastic Compliance Matrix: (Units=1/GPa)
#
#
# Indices 1 2 3 4 5 6 
#
# 1 0.016919 -0.003785 -0.000582 0.000000 0.000076 0.000000
# 2 -0.003785 0.006529 -0.002526 0.000000 -0.000041 0.000000
# 3 -0.000582 -0.002526 0.021822 0.000000 -0.000236 0.000000
# 4 0.000000 0.000000 0.000000 0.019588 0.000000 0.000143
# 5 0.000076 -0.000041 -0.000236 0.000000 0.030375 0.000000
# 6 0.000000 0.000000 0.000000 0.000143 0.000000 0.028344
#
#
# Mechanical properties :
#
#
# Convention : Reuss Voigt Hill
#
# Bulk Modulus (GPa) = 31.76258 49.79613 40.77935
# Shear Modulus (GPa) = 33.81656 39.32463 36.57060
#
# Velocity S-wave (km/s) = 3.72238 4.01410 3.87099
# Velocity P-wave (km/s) = 5.61153 6.47206 6.05710
#
# Compressibility (1/GPa) = 0.03148359
#
# Stress axis : x y z
#
# Youngs Moduli (GPa) = 59.10626 153.15997 45.82576
#
# Poissons Ratio (x) = 0.57970 0.02667
# Poissons Ratio (y) = 0.22371 0.11576
# Poissons Ratio (z) = 0.03440 0.38690
#
# Static dielectric constant tensor:
#      x y z
#    x 3.092590 0.000000 0.019630 
#    y 0.000000 1.902210 0.000000 
#    z 0.019630 0.000000 1.894590 
# 
# From -- ./inp_files/76607.got.cif
#   From: 2010.05.17/outbox.cif.g08.bks.cpg/sg15_39_cif.got.tgz:76607.got - 2010.06.03 18:47:42.
