data_PCOD9291080
_publ_section_title
;
Structure prediction by ZEFSAII (Michael W. Deem and Ramdas Pophale) SiO2 
 PCOD9291080
Probable space group: C 2/C
;
_chemical_formula_sum "Si O2"
_cell_formula_units_Z 60
_cell_length_a 23.442914
_cell_length_b 25.773471
_cell_length_c 8.833594
_cell_angle_alpha 90.000000
_cell_angle_beta 30.817968
_cell_angle_gamma 90.000000
_cell_volume 2734.366007
_symmetry_space_group_name_H-M "C 2/C"
_symmetry_group_IT_number 15
_symmetry_cell_setting 'monoclinic'
loop_
_space_group_symop_operation_xyz
x,y,z
-x,y,1/2-z
-x,-y,-z
x,-y,1/2+z
1/2+x,1/2+y,z
1/2-x,1/2+y,1/2-z
1/2-x,1/2-y,-z
1/2+x,1/2-y,1/2+z
loop_
_atom_site_type_symbol
_atom_site_label
_atom_site_fract_x
_atom_site_fract_y
_atom_site_fract_z
Si Si1 0.874642 0.710191 0.552441
Si Si2 0.761674 0.047333 0.596013
Si Si3 0.319966 0.135006 0.927367
Si Si4 0.000000 0.661933 0.750000
Si Si5 0.999962 0.919767 0.077623
Si Si6 0.198249 0.324236 0.601475
Si Si7 0.231871 0.941001 0.061036
Si Si8 0.374929 0.676637 0.936228
O O1 0.829085 0.688687 0.813342
O O2 0.806678 0.690059 0.562353
O O3 0.884209 0.771877 0.514019
O O4 0.000000 0.688694 0.250000
O O5 0.687717 0.090395 0.679776
O O6 0.764620 0.048886 0.768927
O O7 0.723509 0.990954 0.627758
O O8 0.886960 0.061593 0.255845
O O9 0.424218 0.131322 0.802217
O O10 0.208462 0.137874 0.283255
O O11 0.089165 0.693136 0.444139
O O12 0.893545 0.935301 0.219670
O O13 0.980430 0.857343 0.142414
O O14 0.000000 0.941094 0.250000
O O15 0.204572 0.386762 0.603796
O O16 0.307908 0.305654 0.438901
#
# Coordination Sequence:
#
# PCOD9291080 Si02
#       8
#     8   8   8   4   8   8   8   8
#     4  12  22  40  66  95 125 168 218 270 325 374
#     4  12  24  41  66  95 131 172 215 265 325 385
#     4  11  23  42  67  90 134 166 214 274 315 388
#     4  10  22  42  64  90 118 174 204 258 334 366
#     4  11  21  41  63  96 132 169 207 264 317 393
#     4  10  22  43  65  90 130 167 214 271 317 387
#     4  11  25  41  67  95 130 174 217 260 329 389
#     4  10  23  40  67  92 130 172 212 260 329 392
#
# _framework density 21.942928999999999
#
# number of rings (size 3 to 8) (size 9 to 14) (size 15 to 20)
#    0.000    1.067    4.000    2.800    3.733    0.000 
#    0.000    0.667    2.933    0.000    0.000    0.000 
#    0.000    0.000    0.000    0.000    0.000    0.000 
#
# Total GULP energy -167610.396083 kJ/mol
# GULP energy per Si atom -5587.013203 kJ/mol
# Density = 2.189299 g / cm^3
# Si number density = 21.942929 Si / 1000 Ang^3
#
#
#
# Elastic Constant Matrix: (Units=GPa)
#
#
# Indices 1 2 3 4 5 6 
#
# 1 162.3359 27.3812 12.1272 0.0000 16.5855 0.0000
# 2 27.3812 113.7592 -2.7684 0.0000 5.6686 0.0000
# 3 12.1272 -2.7684 53.2984 -0.0002 10.2919 0.0000
# 4 0.0000 0.0000 -0.0002 23.4649 0.0000 9.1172
# 5 16.5855 5.6686 10.2919 0.0000 38.3456 0.0000
# 6 0.0000 0.0000 0.0000 9.1172 0.0000 26.1902
#
#
#
# Elastic Compliance Matrix: (Units=1/GPa)
#
#
# Indices 1 2 3 4 5 6 
#
# 1 0.006748 -0.001534 -0.001155 0.000000 -0.002382 0.000000
# 2 -0.001534 0.009233 0.001017 0.000000 -0.000974 0.000000
# 3 -0.001155 0.001017 0.020050 0.000000 -0.005032 0.000000
# 4 0.000000 0.000000 0.000000 0.049283 0.000000 -0.017156
# 5 -0.002382 -0.000974 -0.005032 0.000000 0.028604 0.000000
# 6 0.000000 0.000000 0.000000 -0.017156 0.000000 0.044154
#
#
# Mechanical properties :
#
#
# Convention : Reuss Voigt Hill
#
# Bulk Modulus (GPa) = 30.59356 44.76371 37.67864
# Shear Modulus (GPa) = 29.01719 37.11038 33.06379
#
# Velocity S-wave (km/s) = 3.64042 4.11691 3.88597
# Velocity P-wave (km/s) = 5.62519 6.56071 6.11088
#
# Compressibility (1/GPa) = 0.03268662
#
# Stress axis : x y z
#
# Youngs Moduli (GPa) = 148.18259 108.30769 49.87629
#
# Poissons Ratio (x) = 0.16611 0.05762
# Poissons Ratio (y) = 0.22727 -0.05071
# Poissons Ratio (z) = 0.17118 -0.11012
#
# Static dielectric constant tensor:
#      x y z
#    x 1.839700 0.000000 -0.028740 
#    y 0.000000 1.842440 0.000000 
#    z -0.028740 0.000000 1.804230 
# 
# From -- ./inp_files/42245.got.cif
#   From: 2010.05.17/outbox.cif.g08.bks.cpg/sg15_22_cif.got.tgz:42245.got - 2010.06.03 18:47:42.
