data_PCOD9291836
_publ_section_title
;
Structure prediction by ZEFSAII (Michael W. Deem and Ramdas Pophale) SiO2 
 PCOD9291836
Probable space group: C 2/C
;
_chemical_formula_sum "Si O2"
_cell_formula_units_Z 60
_cell_length_a 21.108360
_cell_length_b 23.558991
_cell_length_c 8.722299
_cell_angle_alpha 90.000000
_cell_angle_beta 141.726084
_cell_angle_gamma 90.000000
_cell_volume 2686.758072
_symmetry_space_group_name_H-M "C 2/C"
_symmetry_group_IT_number 15
_symmetry_cell_setting 'monoclinic'
loop_
_space_group_symop_operation_xyz
x,y,z
-x,y,1/2-z
-x,-y,-z
x,-y,1/2+z
1/2+x,1/2+y,z
1/2-x,1/2+y,1/2-z
1/2-x,1/2-y,-z
1/2+x,1/2-y,1/2+z
loop_
_atom_site_type_symbol
_atom_site_label
_atom_site_fract_x
_atom_site_fract_y
_atom_site_fract_z
Si Si1 0.500000 0.114457 0.750000
Si Si2 0.365786 0.088370 0.763315
Si Si3 0.680728 0.660343 0.262470
Si Si4 0.603184 0.452585 0.530058
Si Si5 0.240865 0.976823 0.515143
Si Si6 0.827476 0.697415 0.289991
Si Si7 0.807656 0.629159 0.954266
Si Si8 0.384210 0.314291 0.543831
O O1 0.456147 0.081471 0.813171
O O2 0.410458 0.154225 0.516443
O O3 0.278349 0.125711 0.513265
O O4 0.384970 0.120823 0.959565
O O5 0.315426 0.027859 0.701546
O O6 0.721466 0.688865 0.183970
O O7 0.643568 0.699970 0.331421
O O8 0.595271 0.611640 0.076897
O O9 0.500000 0.471001 0.250000
O O10 0.692552 0.449491 0.573449
O O11 0.647615 0.495492 0.740627
O O12 0.299222 0.928834 0.532449
O O13 0.868201 0.759469 0.407739
O O14 0.821816 0.680251 0.101260
O O15 0.696540 0.639132 0.665876
O O16 0.500000 0.334211 0.750000
#
# Coordination Sequence:
#
# PCOD9291836 Si02
#       8
#     4   8   8   8   8   8   8   8
#     4  10  22  42  72  96 130 170 226 282 322 402
#     4   9  21  41  62  96 127 173 214 264 334 389
#     4   9  21  38  63  89 129 169 213 263 331 393
#     4  11  22  36  61  97 130 177 221 265 324 403
#     4  11  21  40  61  90 137 176 213 270 334 399
#     4  11  21  43  67  91 127 174 217 277 339 387
#     4  11  23  40  66  92 134 171 217 272 331 396
#     4  11  24  41  64  97 129 171 224 268 329 399
#
# _framework density 22.331748000000001
#
# number of rings (size 3 to 8) (size 9 to 14) (size 15 to 20)
#    0.000    1.600    3.333    1.200    1.867    1.067 
#    0.000    2.667    2.933    0.000    0.000    0.000 
#    0.000    0.000    0.000    0.000    0.000    0.000 
#
# Total GULP energy -167605.954890 kJ/mol
# GULP energy per Si atom -5586.865163 kJ/mol
# Density = 2.228092 g / cm^3
# Si number density = 22.331748 Si / 1000 Ang^3
#
#
#
# Elastic Constant Matrix: (Units=GPa)
#
#
# Indices 1 2 3 4 5 6 
#
# 1 139.9971 15.6175 25.8016 0.0000 -22.9874 0.0000
# 2 15.6175 35.3239 13.0923 0.0000 -10.3690 0.0000
# 3 25.8016 13.0923 68.6661 0.0000 -10.6403 0.0000
# 4 0.0000 0.0000 0.0000 23.4262 0.0000 -3.9710
# 5 -22.9874 -10.3690 -10.6403 0.0000 33.2530 0.0000
# 6 0.0000 0.0000 0.0000 -3.9710 0.0000 66.5032
#
#
#
# Elastic Compliance Matrix: (Units=1/GPa)
#
#
# Indices 1 2 3 4 5 6 
#
# 1 0.008486 -0.001576 -0.002163 0.000000 0.004683 0.000000
# 2 -0.001576 0.032944 -0.004489 0.000000 0.007747 0.000000
# 3 -0.002163 -0.004489 0.016607 0.000000 0.002419 0.000000
# 4 0.000000 0.000000 0.000000 0.043124 0.000000 0.002575
# 5 0.004683 0.007747 0.002419 0.000000 0.036500 0.000000
# 6 0.000000 0.000000 0.000000 0.002575 0.000000 0.015191
#
#
# Mechanical properties :
#
#
# Convention : Reuss Voigt Hill
#
# Bulk Modulus (GPa) = 24.04860 39.22330 31.63595
# Shear Modulus (GPa) = 27.29767 37.26818 32.28292
#
# Velocity S-wave (km/s) = 3.50003 4.08958 3.80624
# Velocity P-wave (km/s) = 5.20825 6.31677 5.78910
#
# Compressibility (1/GPa) = 0.04158246
#
# Stress axis : x y z
#
# Youngs Moduli (GPa) = 117.83637 30.35471 60.21717
#
# Poissons Ratio (x) = 0.04783 0.13023
# Poissons Ratio (y) = 0.18568 0.27030
# Poissons Ratio (z) = 0.25484 0.13625
#
# Static dielectric constant tensor:
#      x y z
#    x 1.856240 0.000000 -0.025880 
#    y 0.000000 1.786860 0.000000 
#    z -0.025880 0.000000 1.846930 
# 
# From -- ./inp_files/58756.got.cif
#   From: 2010.05.17/outbox.cif.g08.bks.cpg/sg15_30_cif.got.tgz:58756.got - 2010.06.03 18:47:42.
