data_PCOD9291856
_publ_section_title
;
Structure prediction by ZEFSAII (Michael W. Deem and Ramdas Pophale) SiO2 
 PCOD9291856
Probable space group: C 2/C
;
_chemical_formula_sum "Si O2"
_cell_formula_units_Z 32
_cell_length_a 7.630868
_cell_length_b 14.812443
_cell_length_c 9.953533
_cell_angle_alpha 90.000000
_cell_angle_beta 85.147078
_cell_angle_gamma 90.000000
_cell_volume 1121.032526
_symmetry_space_group_name_H-M "C 2/C"
_symmetry_group_IT_number 15
_symmetry_cell_setting 'monoclinic'
loop_
_space_group_symop_operation_xyz
x,y,z
-x,y,1/2-z
-x,-y,-z
x,-y,1/2+z
1/2+x,1/2+y,z
1/2-x,1/2+y,1/2-z
1/2-x,1/2-y,-z
1/2+x,1/2-y,1/2+z
loop_
_atom_site_type_symbol
_atom_site_label
_atom_site_fract_x
_atom_site_fract_y
_atom_site_fract_z
Si Si1 0.787818 0.881403 0.537328
Si Si2 0.585135 0.891583 0.891152
Si Si3 0.848260 0.067368 0.602740
Si Si4 0.206092 0.264276 0.245560
O O1 0.586939 0.896212 0.502617
O O2 0.762297 0.788161 0.618553
O O3 0.957246 0.891807 0.431453
O O4 0.841094 0.961986 0.640010
O O5 0.500000 0.919279 0.750000
O O6 0.666973 0.792255 0.861988
O O7 0.744156 0.934336 0.966331
O O8 0.747633 0.132963 0.709123
O O9 0.000000 0.250046 0.250000
#
# Coordination Sequence:
#
# PCOD9291856 Si02
#       4
#     8   8   8   8
#     4  10  24  45  72 106 141 185 252 285 357 440
#     4  10  22  42  73 103 140 186 235 293 355 432
#     4  11  23  46  75 102 145 193 227 307 361 412
#     4  11  23  43  70 104 151 180 235 301 356 426
#
# _framework density 28.545113000000001
#
# number of rings (size 3 to 8) (size 9 to 14) (size 15 to 20)
#    0.000    1.500    2.500    1.500    0.000    4.000 
#    9.000    3.750    0.000    0.000    0.000    0.000 
#    0.000    0.000    0.000    0.000    0.000    0.000 
#
# Total GULP energy -89380.552879 kJ/mol
# GULP energy per Si atom -5586.284555 kJ/mol
# Density = 2.848014 g / cm^3
# Si number density = 28.545113 Si / 1000 Ang^3
#
#
#
# Elastic Constant Matrix: (Units=GPa)
#
#
# Indices 1 2 3 4 5 6 
#
# 1 232.8124 2.7292 70.5666 0.0000 -28.0885 0.0000
# 2 2.7292 99.3790 57.6372 0.0000 1.1098 0.0000
# 3 70.5666 57.6372 98.8215 0.0000 -3.3711 0.0000
# 4 0.0000 0.0000 0.0000 23.2642 0.0000 -29.3808
# 5 -28.0885 1.1098 -3.3711 0.0000 70.6414 0.0000
# 6 0.0000 0.0000 0.0000 -29.3808 0.0000 39.5861
#
#
#
# Elastic Compliance Matrix: (Units=1/GPa)
#
#
# Indices 1 2 3 4 5 6 
#
# 1 0.006585 0.003743 -0.006809 0.000000 0.002235 0.000000
# 2 0.003743 0.017365 -0.012781 0.000000 0.000606 0.000000
# 3 -0.006809 -0.012781 0.022387 0.000000 -0.001438 0.000000
# 4 0.000000 0.000000 0.000000 0.685987 0.000000 0.509141
# 5 0.002235 0.000606 -0.001438 0.000000 0.014966 0.000000
# 6 0.000000 0.000000 0.000000 0.509141 0.000000 0.403146
#
#
# Mechanical properties :
#
#
# Convention : Reuss Voigt Hill
#
# Bulk Modulus (GPa) = 68.28727 76.98653 72.63690
# Shear Modulus (GPa) = 4.21226 46.70368 25.45797
#
# Velocity S-wave (km/s) = 1.21608 4.04931 2.98963
# Velocity P-wave (km/s) = 5.09375 6.99222 6.11709
#
# Compressibility (1/GPa) = 0.01464402
#
# Stress axis : x y z
#
# Youngs Moduli (GPa) = 151.86155 57.58569 44.66898
#
# Poissons Ratio (x) = -0.21557 0.30416
# Poissons Ratio (y) = -0.56848 0.57090
# Poissons Ratio (z) = 1.03407 0.73599
#
# Static dielectric constant tensor:
#      x y z
#    x 2.170680 0.000000 0.025240 
#    y 0.000000 2.330000 0.000000 
#    z 0.025240 0.000000 2.331170 
# 
# From -- ./inp_files/75532.got.cif
#   From: 2010.05.17/outbox.cif.g08.bks.cpg/sg15_38_cif.got.tgz:75532.got - 2010.06.03 18:47:42.
