data_PCOD9291685
_publ_section_title
;
Structure prediction by ZEFSAII (Michael W. Deem and Ramdas Pophale) SiO2 
 PCOD9291685
Probable space group: C 2/C
;
_chemical_formula_sum "Si O2"
_cell_formula_units_Z 52
_cell_length_a 7.979204
_cell_length_b 20.275273
_cell_length_c 24.318764
_cell_angle_alpha 90.000000
_cell_angle_beta 38.452985
_cell_angle_gamma 90.000000
_cell_volume 2446.633689
_symmetry_space_group_name_H-M "C 2/C"
_symmetry_group_IT_number 15
_symmetry_cell_setting 'monoclinic'
loop_
_space_group_symop_operation_xyz
x,y,z
-x,y,1/2-z
-x,-y,-z
x,-y,1/2+z
1/2+x,1/2+y,z
1/2-x,1/2+y,1/2-z
1/2-x,1/2-y,-z
1/2+x,1/2-y,1/2+z
loop_
_atom_site_type_symbol
_atom_site_label
_atom_site_fract_x
_atom_site_fract_y
_atom_site_fract_z
Si Si1 0.354989 0.176302 0.480827
Si Si2 0.742002 0.017962 0.233645
Si Si3 0.500000 0.744660 0.750000
Si Si4 0.960694 0.689033 0.946847
Si Si5 0.082434 0.954650 0.058160
Si Si6 0.893652 0.450908 0.407888
Si Si7 0.756223 0.662278 0.219027
O O1 0.250000 0.250000 0.500000
O O2 0.529585 0.173169 0.490948
O O3 0.127883 0.122743 0.550683
O O4 0.505340 0.156262 0.386600
O O5 0.500000 0.022762 0.250000
O O6 0.798720 0.090719 0.241311
O O7 0.655170 0.970746 0.305989
O O8 0.991145 0.986747 0.138072
O O9 0.652285 0.789164 0.756223
O O10 0.743073 0.707948 0.654295
O O11 0.878541 0.622705 0.935587
O O12 0.750000 0.750000 0.000000
O O13 0.842817 0.960982 0.075831
O O14 0.335248 0.995099 0.969765
O O15 0.500000 0.686675 0.250000
#
# Coordination Sequence:
#
# PCOD9291685 Si02
#       7
#     8   8   4   8   8   8   8
#     4  12  25  46  69 101 141 181 238 299 361 434
#     4  10  22  42  70 103 143 184 236 301 364 433
#     4  12  28  50  74 104 156 190 246 308 370 442
#     4  12  28  46  72 103 143 198 242 303 371 440
#     4  10  23  41  72 102 139 188 230 303 361 430
#     4  10  23  43  69 101 140 183 243 287 369 440
#     4  12  26  45  74 108 141 191 244 299 367 442
#
# _framework density 21.253692000000001
#
# number of rings (size 3 to 8) (size 9 to 14) (size 15 to 20)
#    0.000    0.923    3.846    1.846    6.462    1.846 
#    0.000    0.769    0.000    0.000    0.000    0.000 
#    0.000    0.000    0.000    0.000    0.000    0.000 
#
# Total GULP energy -145291.920144 kJ/mol
# GULP energy per Si atom -5588.150775 kJ/mol
# Density = 2.120532 g / cm^3
# Si number density = 21.253692 Si / 1000 Ang^3
#
#
#
# Elastic Constant Matrix: (Units=GPa)
#
#
# Indices 1 2 3 4 5 6 
#
# 1 50.8861 8.9290 28.9075 -0.0105 16.4355 0.0120
# 2 8.9290 124.6297 62.6300 -0.0068 11.2250 0.0079
# 3 28.9075 62.6300 109.1291 -0.0251 25.1392 -0.0011
# 4 -0.0105 -0.0068 -0.0251 0.8837 0.0106 -2.5160
# 5 16.4355 11.2250 25.1392 0.0106 29.3667 -0.0081
# 6 0.0120 0.0079 -0.0011 -2.5160 -0.0081 31.3894
#
#
#
# Elastic Compliance Matrix: (Units=1/GPa)
#
#
# Indices 1 2 3 4 5 6 
#
# 1 0.025826 0.001853 -0.005496 0.000327 -0.010458 0.000013
# 2 0.001853 0.011464 -0.007252 -0.000149 0.000789 -0.000016
# 3 -0.005496 -0.007252 0.016734 0.000598 -0.008478 0.000050
# 4 0.000327 -0.000149 0.000598 1.466189 -0.001135 0.117522
# 5 -0.010458 0.000789 -0.008478 -0.001135 0.046861 -0.000075
# 6 0.000013 -0.000016 0.000050 0.117522 -0.000075 0.041278
#
#
# Mechanical properties :
#
#
# Convention : Reuss Voigt Hill
#
# Bulk Modulus (GPa) = 31.02100 53.95309 42.48705
# Shear Modulus (GPa) = 3.04713 24.60653 13.82683
#
# Velocity S-wave (km/s) = 1.19867 3.40627 2.55338
# Velocity P-wave (km/s) = 4.06731 6.39614 5.35974
#
# Compressibility (1/GPa) = 0.03223623
#
# Stress axis : x y z
#
# Youngs Moduli (GPa) = 38.72008 87.22689 59.75717
#
# Poissons Ratio (x) = -0.16166 0.32840
# Poissons Ratio (y) = -0.07176 0.43337
# Poissons Ratio (z) = 0.21279 0.63259
#
# Static dielectric constant tensor:
#      x y z
#    x 1.307020 0.000270 -0.271480 
#    y 0.000270 1.772110 0.000140 
#    z -0.271480 0.000140 1.660510 
# 
# From -- ./inp_files/266053.got.cif
#   From: 2010.05.17/outbox.cif.g08.bks.cpg/sg15_134_cif.got.tgz:266053.got - 2010.06.03 18:47:42.
