data_PCOD9291530
_publ_section_title
;
Structure prediction by ZEFSAII (Michael W. Deem and Ramdas Pophale) SiO2 
 PCOD9291530
Probable space group: C 2/C
;
_chemical_formula_sum "Si O2"
_cell_formula_units_Z 56
_cell_length_a 10.119471
_cell_length_b 10.050522
_cell_length_c 32.810448
_cell_angle_alpha 90.000000
_cell_angle_beta 121.410230
_cell_angle_gamma 90.000000
_cell_volume 2848.004165
_symmetry_space_group_name_H-M "C 2/C"
_symmetry_group_IT_number 15
_symmetry_cell_setting 'monoclinic'
loop_
_space_group_symop_operation_xyz
x,y,z
-x,y,1/2-z
-x,-y,-z
x,-y,1/2+z
1/2+x,1/2+y,z
1/2-x,1/2+y,1/2-z
1/2-x,1/2-y,-z
1/2+x,1/2-y,1/2+z
loop_
_atom_site_type_symbol
_atom_site_label
_atom_site_fract_x
_atom_site_fract_y
_atom_site_fract_z
Si Si1 0.579842 0.201723 0.984653
Si Si2 0.416752 0.566884 0.610399
Si Si3 0.598250 0.441206 0.224046
Si Si4 0.580979 0.461652 0.556064
Si Si5 0.602919 0.872482 0.726691
Si Si6 0.915098 0.565808 0.436312
Si Si7 0.919856 0.620639 0.116219
O O1 0.465103 0.306606 0.946219
O O2 0.537812 0.051822 0.965337
O O3 0.750000 0.250000 0.000000
O O4 0.558623 0.191840 0.030086
O O5 0.503582 0.532814 0.666843
O O6 0.514953 0.535082 0.585411
O O7 0.255953 0.487333 0.582313
O O8 0.380032 0.723380 0.606484
O O9 0.500000 0.460589 0.250000
O O10 0.643520 0.284628 0.230167
O O11 0.746129 0.536458 0.248793
O O12 0.500000 0.500000 0.500000
O O13 0.766445 0.465620 0.583235
O O14 0.500000 0.891428 0.750000
O O15 0.491576 0.907748 0.671361
O O16 0.945255 0.598456 0.394739
#
# Coordination Sequence:
#
# PCOD9291530 Si02
#       7
#     8   8   8   8   8   8   8
#     4  11  22  39  58  87 124 165 206 249 300 355
#     4  11  23  42  63  91 125 164 206 257 313 374
#     4  10  22  42  68  95 124 163 210 264 323 382
#     4  12  24  39  62  90 130 167 210 254 307 365
#     4  10  22  43  66  92 128 162 207 263 326 381
#     4  11  23  39  63  86 123 163 208 252 300 360
#     4  11  24  41  62  93 121 163 210 257 311 371
#
# _framework density 19.662894000000001
#
# number of rings (size 3 to 8) (size 9 to 14) (size 15 to 20)
#    0.000    1.143    2.857    3.429    2.000    1.714 
#    2.571    0.000    0.000    0.000    0.000    0.000 
#    0.000    0.000    0.000    0.000    0.000    0.000 
#
# Total GULP energy -156383.037823 kJ/mol
# GULP energy per Si atom -5585.108494 kJ/mol
# Density = 1.961814 g / cm^3
# Si number density = 19.662894 Si / 1000 Ang^3
#
#
#
# Elastic Constant Matrix: (Units=GPa)
#
#
# Indices 1 2 3 4 5 6 
#
# 1 113.8653 35.6347 61.1335 0.0000 -0.9420 0.0000
# 2 35.6347 49.9005 42.4768 0.0000 12.4028 0.0000
# 3 61.1335 42.4768 131.7314 0.0000 -20.8756 0.0000
# 4 0.0000 0.0000 0.0000 34.0648 0.0000 3.4988
# 5 -0.9420 12.4028 -20.8756 0.0000 38.9081 0.0000
# 6 0.0000 0.0000 0.0000 3.4988 0.0000 36.2078
#
#
#
# Elastic Compliance Matrix: (Units=1/GPa)
#
#
# Indices 1 2 3 4 5 6 
#
# 1 0.012741 -0.005516 -0.004160 0.000000 -0.000165 0.000000
# 2 -0.005516 0.040969 -0.013925 0.000000 -0.020665 0.000000
# 3 -0.004160 -0.013925 0.016066 0.000000 0.012958 0.000000
# 4 0.000000 0.000000 0.000000 0.029650 0.000000 -0.002865
# 5 -0.000165 -0.020665 0.012958 0.000000 0.039237 0.000000
# 6 0.000000 0.000000 0.000000 -0.002865 0.000000 0.027895
#
#
# Mechanical properties :
#
#
# Convention : Reuss Voigt Hill
#
# Bulk Modulus (GPa) = 44.30260 63.77634 54.03947
# Shear Modulus (GPa) = 22.59532 32.25295 27.42413
#
# Velocity S-wave (km/s) = 3.39357 4.05445 3.73864
# Velocity P-wave (km/s) = 6.15914 7.37722 6.79553
#
# Compressibility (1/GPa) = 0.02257204
#
# Stress axis : x y z
#
# Youngs Moduli (GPa) = 78.48787 24.40891 62.24482
#
# Poissons Ratio (x) = 0.13464 0.25896
# Poissons Ratio (y) = 0.43293 0.86678
# Poissons Ratio (z) = 0.32653 0.33990
#
# Static dielectric constant tensor:
#      x y z
#    x 1.664490 0.000000 -0.007060 
#    y 0.000000 1.690280 0.000000 
#    z -0.007060 0.000000 1.688840 
# 
# From -- ./inp_files/307545.got.cif
#   From: 2010.05.17/outbox.cif.g08.bks.cpg/sg15_154_cif.got.tgz:307545.got - 2010.06.03 18:47:42.
