data_PCOD9291406
_publ_section_title
;
Structure prediction by ZEFSAII (Michael W. Deem and Ramdas Pophale) SiO2 
 PCOD9291406
Probable space group: C 2/C
;
_chemical_formula_sum "Si O2"
_cell_formula_units_Z 40
_cell_length_a 23.980765
_cell_length_b 5.388328
_cell_length_c 22.938513
_cell_angle_alpha 90.000000
_cell_angle_beta 146.971048
_cell_angle_gamma 90.000000
_cell_volume 1615.581322
_symmetry_space_group_name_H-M "C 2/C"
_symmetry_group_IT_number 15
_symmetry_cell_setting 'monoclinic'
loop_
_space_group_symop_operation_xyz
x,y,z
-x,y,1/2-z
-x,-y,-z
x,-y,1/2+z
1/2+x,1/2+y,z
1/2-x,1/2+y,1/2-z
1/2-x,1/2-y,-z
1/2+x,1/2-y,1/2+z
loop_
_atom_site_type_symbol
_atom_site_label
_atom_site_fract_x
_atom_site_fract_y
_atom_site_fract_z
Si Si1 0.557705 0.205309 0.012523
Si Si2 0.138788 0.729217 0.872240
Si Si3 0.905351 0.555580 0.058951
Si Si4 0.915906 0.891747 0.343188
Si Si5 0.188330 0.773053 0.358320
O O1 0.609500 0.351600 0.110646
O O2 0.472151 0.345901 0.899210
O O3 0.500000 0.000000 0.000000
O O4 0.631869 0.112340 0.027836
O O5 0.069938 0.620090 0.864619
O O6 0.148425 0.502349 0.835572
O O7 0.123372 0.003482 0.832211
O O8 0.250000 0.750000 0.000000
O O9 0.995757 0.719147 0.110172
O O10 0.804907 0.717703 0.983974
O O11 0.822168 0.840340 0.218939
#
# Coordination Sequence:
#
# PCOD9291406 Si02
#       5
#     8   8   8   8   8
#     4   9  21  43  64  90 132 171 217 284 328 390
#     4  10  23  43  65  99 139 175 221 275 330 397
#     4  10  22  42  67  92 135 178 208 274 345 378
#     4  10  23  43  66  98 132 170 232 275 333 400
#     4  11  25  43  68 101 136 175 226 274 326 418
#
# _framework density 24.758890999999998
#
# number of rings (size 3 to 8) (size 9 to 14) (size 15 to 20)
#    0.000    2.000    0.000    2.400   14.000    0.800 
#   10.800    0.000    0.000    0.000    0.000    0.000 
#    0.000    0.000    0.000    0.000    0.000    0.000 
#
# Total GULP energy -111531.173878 kJ/mol
# GULP energy per Si atom -5576.558694 kJ/mol
# Density = 2.470254 g / cm^3
# Si number density = 24.758891 Si / 1000 Ang^3
#
#
#
# Elastic Constant Matrix: (Units=GPa)
#
#
# Indices 1 2 3 4 5 6 
#
# 1 45.6965 2.3690 -3.7286 -0.0003 -17.7902 0.0026
# 2 2.3690 100.1536 15.0234 -0.0011 -8.8766 0.0065
# 3 -3.7286 15.0234 73.6643 0.0003 -7.4395 0.0003
# 4 -0.0003 -0.0011 0.0003 29.6329 -0.0007 -8.4728
# 5 -17.7902 -8.8766 -7.4395 -0.0007 23.9451 0.0004
# 6 0.0026 0.0065 0.0003 -8.4728 0.0004 48.3092
#
#
#
# Elastic Compliance Matrix: (Units=1/GPa)
#
#
# Indices 1 2 3 4 5 6 
#
# 1 0.032046 0.000891 0.004004 0.000000 0.025383 -0.000002
# 2 0.000891 0.010578 -0.001703 0.000000 0.004054 -0.000001
# 3 0.004004 -0.001703 0.014827 0.000000 0.006950 0.000000
# 4 0.000000 0.000000 0.000000 0.035528 0.000001 0.006231
# 5 0.025383 0.004054 0.006950 0.000001 0.064283 -0.000002
# 6 -0.000002 -0.000001 0.000000 0.006231 -0.000002 0.021793
#
#
# Mechanical properties :
#
#
# Convention : Reuss Voigt Hill
#
# Bulk Modulus (GPa) = 15.66528 27.42687 21.54607
# Shear Modulus (GPa) = 25.77993 34.10082 29.94038
#
# Velocity S-wave (km/s) = 3.23032 3.71525 3.48124
# Velocity P-wave (km/s) = 4.50047 5.43192 4.98798
#
# Compressibility (1/GPa) = 0.06383545
#
# Stress axis : x y z
#
# Youngs Moduli (GPa) = 31.20521 94.53256 67.44489
#
# Poissons Ratio (x) = -0.08424 -0.27004
# Poissons Ratio (y) = -0.02781 0.11485
# Poissons Ratio (z) = -0.12494 0.16097
#
# Static dielectric constant tensor:
#      x y z
#    x 2.029770 0.000000 0.037940 
#    y 0.000000 2.086840 0.000000 
#    z 0.037940 0.000000 2.034530 
# 
# From -- ./inp_files/175539.got.cif
#   From: 2010.05.17/outbox.cif.g08.bks.cpg/sg15_88_cif.got.tgz:175539.got - 2010.06.03 18:47:42.
