data_PCOD9291079
_publ_section_title
;
Structure prediction by ZEFSAII (Michael W. Deem and Ramdas Pophale) SiO2 
 PCOD9291079
Probable space group: C 2/C
;
_chemical_formula_sum "Si O2"
_cell_formula_units_Z 32
_cell_length_a 9.692178
_cell_length_b 23.598508
_cell_length_c 11.092628
_cell_angle_alpha 90.000000
_cell_angle_beta 143.340144
_cell_angle_gamma 90.000000
_cell_volume 1514.818881
_symmetry_space_group_name_H-M "C 2/C"
_symmetry_group_IT_number 15
_symmetry_cell_setting 'monoclinic'
loop_
_space_group_symop_operation_xyz
x,y,z
-x,y,1/2-z
-x,-y,-z
x,-y,1/2+z
1/2+x,1/2+y,z
1/2-x,1/2+y,1/2-z
1/2-x,1/2-y,-z
1/2+x,1/2-y,1/2+z
loop_
_atom_site_type_symbol
_atom_site_label
_atom_site_fract_x
_atom_site_fract_y
_atom_site_fract_z
Si Si1 0.000000 0.381138 0.250000
Si Si2 0.403452 0.697718 0.061734
Si Si3 0.723063 0.836549 0.838141
Si Si4 0.500000 0.611130 0.750000
Si Si5 0.985688 0.432337 0.498562
O O1 0.046923 0.413703 0.405724
O O2 0.220724 0.342967 0.372031
O O3 0.500000 0.669052 0.250000
O O4 0.631016 0.706773 0.141674
O O5 0.250000 0.750000 0.000000
O O6 0.500000 0.812466 0.750000
O O7 0.635943 0.891560 0.696473
O O8 0.894733 0.854936 0.064222
O O9 0.279342 0.578299 0.648038
O O10 0.000000 0.500000 0.500000
#
# Coordination Sequence:
#
# PCOD9291079 Si02
#       5
#     4   8   8   4   8
#     4  12  24  42  68 103 141 176 230 290 332 410
#     4  12  24  44  72  98 133 180 232 287 350 406
#     4  10  23  44  67  97 138 179 226 285 342 413
#     4  10  22  42  64  89 145 178 218 280 340 398
#     4  11  25  40  67 102 136 185 232 275 346 409
#
# _framework density 21.124635999999999
#
# number of rings (size 3 to 8) (size 9 to 14) (size 15 to 20)
#    0.000    1.000    6.250    0.000    5.250    3.000 
#    0.000    1.250    2.750    0.000    0.000    0.000 
#    0.000    0.000    0.000    0.000    0.000    0.000 
#
# Total GULP energy -89168.820317 kJ/mol
# GULP energy per Si atom -5573.051270 kJ/mol
# Density = 2.107656 g / cm^3
# Si number density = 21.124636 Si / 1000 Ang^3
#
#
#
# Elastic Constant Matrix: (Units=GPa)
#
#
# Indices 1 2 3 4 5 6 
#
# 1 189.4910 43.3527 43.9673 0.0000 24.2207 0.0000
# 2 43.3527 64.0692 25.5083 0.0000 10.5520 0.0000
# 3 43.9673 25.5083 112.8876 0.0000 4.6378 0.0000
# 4 0.0000 0.0000 0.0000 5.7564 0.0000 3.3260
# 5 24.2207 10.5520 4.6378 0.0000 48.4491 0.0000
# 6 0.0000 0.0000 0.0000 3.3260 0.0000 15.8729
#
#
#
# Elastic Compliance Matrix: (Units=1/GPa)
#
#
# Indices 1 2 3 4 5 6 
#
# 1 0.006800 -0.003495 -0.001757 0.000000 -0.002470 0.000000
# 2 -0.003495 0.019516 -0.002957 0.000000 -0.002220 0.000000
# 3 -0.001757 -0.002957 0.010189 0.000000 0.000547 0.000000
# 4 0.000000 0.000000 0.000000 0.197650 0.000000 -0.041415
# 5 -0.002470 -0.002220 0.000547 0.000000 0.022306 0.000000
# 6 0.000000 0.000000 0.000000 -0.041415 0.000000 0.071678
#
#
# Mechanical properties :
#
#
# Convention : Reuss Voigt Hill
#
# Bulk Modulus (GPa) = 49.78723 65.78938 57.78831
# Shear Modulus (GPa) = 14.23469 30.92365 22.57917
#
# Velocity S-wave (km/s) = 2.59866 3.83020 3.27288
# Velocity P-wave (km/s) = 5.71170 7.12542 6.45737
#
# Compressibility (1/GPa) = 0.02008547
#
# Stress axis : x y z
#
# Youngs Moduli (GPa) = 147.04996 51.23963 98.14866
#
# Poissons Ratio (x) = 0.17908 0.17249
# Poissons Ratio (y) = 0.51394 0.29027
# Poissons Ratio (z) = 0.25842 0.15154
#
# Static dielectric constant tensor:
#      x y z
#    x 1.847340 0.000000 0.014050 
#    y 0.000000 1.799290 0.000000 
#    z 0.014050 0.000000 1.802200 
# 
# From -- ./inp_files/78912.got.cif
#   From: 2010.05.17/outbox.cif.g08.bks.cpg/sg15_40_cif.got.tgz:78912.got - 2010.06.03 18:47:42.
