data_PCOD9291814
_publ_section_title
;
Structure prediction by ZEFSAII (Michael W. Deem and Ramdas Pophale) SiO2 
 PCOD9291814
Probable space group: C 2/C
;
_chemical_formula_sum "Si O2"
_cell_formula_units_Z 52
_cell_length_a 13.646039
_cell_length_b 11.347113
_cell_length_c 13.981534
_cell_angle_alpha 90.000000
_cell_angle_beta 62.715827
_cell_angle_gamma 90.000000
_cell_volume 1924.081397
_symmetry_space_group_name_H-M "C 2/C"
_symmetry_group_IT_number 15
_symmetry_cell_setting 'monoclinic'
loop_
_space_group_symop_operation_xyz
x,y,z
-x,y,1/2-z
-x,-y,-z
x,-y,1/2+z
1/2+x,1/2+y,z
1/2-x,1/2+y,1/2-z
1/2-x,1/2-y,-z
1/2+x,1/2-y,1/2+z
loop_
_atom_site_type_symbol
_atom_site_label
_atom_site_fract_x
_atom_site_fract_y
_atom_site_fract_z
Si Si1 0.250000 0.250000 0.500000
Si Si2 0.241287 0.007431 0.266727
Si Si3 0.337443 0.666073 0.353613
Si Si4 0.898745 0.623471 0.943164
Si Si5 0.477423 0.901124 0.607029
Si Si6 0.387006 0.484518 0.491768
Si Si7 0.109566 0.194241 0.726028
O O1 0.343163 0.358033 0.475228
O O2 0.186031 0.277349 0.627299
O O3 0.197024 0.895348 0.229243
O O4 0.175123 0.119149 0.248838
O O5 0.368766 0.024291 0.183834
O O6 0.206755 0.979253 0.389738
O O7 0.211638 0.658021 0.449399
O O8 0.393267 0.790548 0.354984
O O9 0.392911 0.573045 0.400381
O O10 0.919277 0.484864 0.913924
O O11 0.987068 0.635812 0.991091
O O12 0.453231 0.782940 0.674063
O O13 0.500000 0.500000 0.500000
O O14 0.000000 0.120136 0.750000
#
# Coordination Sequence:
#
# PCOD9291814 Si02
#       7
#     4   8   8   8   8   8   8
#     4  12  26  48  74 116 160 216 274 362 416 512
#     4  11  24  44  70 107 148 201 263 330 397 489
#     4  10  22  44  72 108 153 192 260 327 406 490
#     4   9  21  43  74 106 147 196 247 331 395 488
#     4  10  22  42  72 107 148 200 261 311 408 488
#     4  12  26  46  75 106 155 210 267 336 415 492
#     4  12  26  44  72 108 154 208 270 332 410 504
#
# _framework density 27.025884000000001
#
# number of rings (size 3 to 8) (size 9 to 14) (size 15 to 20)
#    0.000    1.231    3.077    1.846    2.154    2.462 
#    0.000    0.000    6.769    0.000    0.000    0.000 
#    0.000    0.000    0.000    0.000    0.000    0.000 
#
# Total GULP energy -144855.571496 kJ/mol
# GULP energy per Si atom -5571.368134 kJ/mol
# Density = 2.696437 g / cm^3
# Si number density = 27.025884 Si / 1000 Ang^3
#
#
#
# Elastic Constant Matrix: (Units=GPa)
#
#
# Indices 1 2 3 4 5 6 
#
# 1 113.0672 46.9492 7.8333 0.0000 -7.4351 0.0000
# 2 46.9492 116.2411 -12.7746 0.0000 11.2980 0.0000
# 3 7.8333 -12.7746 51.9106 0.0000 -16.0774 0.0000
# 4 0.0000 0.0000 0.0000 39.9348 0.0000 -1.7295
# 5 -7.4351 11.2980 -16.0774 0.0000 42.5446 0.0000
# 6 0.0000 0.0000 0.0000 -1.7295 0.0000 61.3852
#
#
#
# Elastic Compliance Matrix: (Units=1/GPa)
#
#
# Indices 1 2 3 4 5 6 
#
# 1 0.011241 -0.005019 -0.002163 0.000000 0.002480 0.000000
# 2 -0.005019 0.011196 0.002628 0.000000 -0.002857 0.000000
# 3 -0.002163 0.002628 0.022542 0.000000 0.007443 0.000000
# 4 0.000000 0.000000 0.000000 0.025071 0.000000 0.000706
# 5 0.002480 -0.002857 0.007443 0.000000 0.027510 0.000000
# 6 0.000000 0.000000 0.000000 0.000706 0.000000 0.016310
#
#
# Mechanical properties :
#
#
# Convention : Reuss Voigt Hill
#
# Bulk Modulus (GPa) = 27.87816 40.58164 34.22990
# Shear Modulus (GPa) = 37.05413 44.72032 40.88723
#
# Velocity S-wave (km/s) = 3.70680 4.07224 3.89381
# Velocity P-wave (km/s) = 5.35334 6.09584 5.73662
#
# Compressibility (1/GPa) = 0.03587037
#
# Stress axis : x y z
#
# Youngs Moduli (GPa) = 88.95738 89.31365 44.36141
#
# Poissons Ratio (x) = 0.44827 0.09597
# Poissons Ratio (y) = 0.44649 -0.11657
# Poissons Ratio (z) = 0.19245 -0.23469
#
# Static dielectric constant tensor:
#      x y z
#    x 2.183860 0.000000 0.210720 
#    y 0.000000 2.142930 0.000000 
#    z 0.210720 0.000000 2.304850 
# 
# From -- ./inp_files/152539.got.cif
#   From: 2010.05.17/outbox.cif.g08.bks.cpg/sg15_77_cif.got.tgz:152539.got - 2010.06.03 18:47:42.
