data_PCOD9291137
_publ_section_title
;
Structure prediction by ZEFSAII (Michael W. Deem and Ramdas Pophale) SiO2 
 PCOD9291137
Probable space group: C 2/C
;
_chemical_formula_sum "Si O2"
_cell_formula_units_Z 44
_cell_length_a 4.865901
_cell_length_b 19.641386
_cell_length_c 20.488139
_cell_angle_alpha 90.000000
_cell_angle_beta 107.551077
_cell_angle_gamma 90.000000
_cell_volume 1866.960601
_symmetry_space_group_name_H-M "C 2/C"
_symmetry_group_IT_number 15
_symmetry_cell_setting 'monoclinic'
loop_
_space_group_symop_operation_xyz
x,y,z
-x,y,1/2-z
-x,-y,-z
x,-y,1/2+z
1/2+x,1/2+y,z
1/2-x,1/2+y,1/2-z
1/2-x,1/2-y,-z
1/2+x,1/2-y,1/2+z
loop_
_atom_site_type_symbol
_atom_site_label
_atom_site_fract_x
_atom_site_fract_y
_atom_site_fract_z
Si Si1 0.721600 0.896591 0.138510
Si Si2 0.561180 0.316244 0.468141
Si Si3 0.500000 0.289782 0.250000
Si Si4 0.219673 0.515102 0.826969
Si Si5 0.767482 0.221394 0.144055
Si Si6 0.786496 0.134554 0.388705
O O1 0.773343 0.862819 0.072101
O O2 0.775761 0.838013 0.195591
O O3 0.426784 0.935697 0.129947
O O4 0.976503 0.951270 0.168190
O O5 0.750000 0.250000 0.500000
O O6 0.289648 0.282081 0.412019
O O7 0.521592 0.356994 0.532262
O O8 0.678098 0.250227 0.207690
O O9 0.267751 0.440122 0.858400
O O10 0.000000 0.513412 0.750000
O O11 0.530821 0.161684 0.116364
O O12 0.071971 0.186579 0.152970
#
# Coordination Sequence:
#
# PCOD9291137 Si02
#       6
#     8   8   4   8   8   8
#     4  11  24  43  71  95 134 183 225 280 334 405
#     4   9  22  44  70 100 135 169 225 287 343 398
#     4  10  22  42  64  98 128 172 236 272 344 398
#     4  12  25  44  65  96 141 184 228 275 325 409
#     4  10  23  40  67  97 130 174 219 288 339 401
#     4  11  24  42  65  98 137 175 220 277 342 395
#
# _framework density 23.567715
#
# number of rings (size 3 to 8) (size 9 to 14) (size 15 to 20)
#    0.000    1.455    1.818    1.636    1.273   15.273 
#    0.000    0.000    0.000    0.000    0.000    0.000 
#    0.000    0.000    0.000    0.000    0.000    0.000 
#
# Total GULP energy -123298.714750 kJ/mol
# GULP energy per Si atom -5604.487034 kJ/mol
# Density = 2.351407 g / cm^3
# Si number density = 23.567715 Si / 1000 Ang^3
#
#
#
# Elastic Constant Matrix: (Units=GPa)
#
#
# Indices 1 2 3 4 5 6 
#
# 1 91.8909 14.3760 2.5474 0.0000 -8.0886 0.0000
# 2 14.3760 127.4569 58.8718 0.0000 -12.9637 0.0000
# 3 2.5474 58.8718 117.1096 0.0000 -9.9849 0.0000
# 4 0.0000 0.0000 0.0000 32.3454 0.0000 10.6419
# 5 -8.0886 -12.9637 -9.9849 0.0000 25.8148 0.0000
# 6 0.0000 0.0000 0.0000 10.6419 0.0000 27.5523
#
#
#
# Elastic Compliance Matrix: (Units=1/GPa)
#
#
# Indices 1 2 3 4 5 6 
#
# 1 0.011341 -0.001260 0.000657 0.000000 0.003175 0.000000
# 2 -0.001260 0.010629 -0.005062 0.000000 0.002985 0.000000
# 3 0.000657 -0.005062 0.011241 0.000000 0.002012 0.000000
# 4 0.000000 0.000000 0.000000 0.035417 0.000000 -0.013680
# 5 0.003175 0.002985 0.002012 0.000000 0.042010 0.000000
# 6 0.000000 0.000000 0.000000 -0.013680 0.000000 0.041578
#
#
# Mechanical properties :
#
#
# Convention : Reuss Voigt Hill
#
# Bulk Modulus (GPa) = 45.69775 54.22751 49.96263
# Shear Modulus (GPa) = 29.26744 34.52000 31.89372
#
# Velocity S-wave (km/s) = 3.52780 3.83131 3.68269
# Velocity P-wave (km/s) = 6.00216 6.52925 6.27125
#
# Compressibility (1/GPa) = 0.02188291
#
# Stress axis : x y z
#
# Youngs Moduli (GPa) = 88.17705 94.07835 88.96226
#
# Poissons Ratio (x) = 0.11852 -0.05848
# Poissons Ratio (y) = 0.11109 0.45029
# Poissons Ratio (z) = -0.05796 0.47618
#
# Static dielectric constant tensor:
#      x y z
#    x 1.888920 0.000000 0.065050 
#    y 0.000000 1.843730 0.000000 
#    z 0.065050 0.000000 1.929070 
# 
# From -- ./inp_files/227001.got.cif
#   From: 2010.05.17/outbox.cif.g08.bks.cpg/sg15_114_cif.got.tgz:227001.got - 2010.06.03 18:47:42.
