data_PCOD9291399
_publ_section_title
;
Structure prediction by ZEFSAII (Michael W. Deem and Ramdas Pophale) SiO2 
 PCOD9291399
Probable space group: C 2/C
;
_chemical_formula_sum "Si O2"
_cell_formula_units_Z 48
_cell_length_a 12.866251
_cell_length_b 12.778035
_cell_length_c 18.278758
_cell_angle_alpha 90.000000
_cell_angle_beta 131.838215
_cell_angle_gamma 90.000000
_cell_volume 2238.913309
_symmetry_space_group_name_H-M "C 2/C"
_symmetry_group_IT_number 15
_symmetry_cell_setting 'monoclinic'
loop_
_space_group_symop_operation_xyz
x,y,z
-x,y,1/2-z
-x,-y,-z
x,-y,1/2+z
1/2+x,1/2+y,z
1/2-x,1/2+y,1/2-z
1/2-x,1/2-y,-z
1/2+x,1/2-y,1/2+z
loop_
_atom_site_type_symbol
_atom_site_label
_atom_site_fract_x
_atom_site_fract_y
_atom_site_fract_z
Si Si1 0.383230 0.027450 0.780039
Si Si2 0.404082 0.611284 0.090051
Si Si3 0.702623 0.859395 0.118825
Si Si4 0.183470 0.464435 0.954911
Si Si5 0.649076 0.616877 0.100116
Si Si6 0.000000 0.060678 0.750000
Si Si7 0.500000 0.786416 0.250000
O O1 0.369455 0.064497 0.857071
O O2 0.534648 0.972947 0.845867
O O3 0.388651 0.134017 0.734428
O O4 0.255737 0.952110 0.699252
O O5 0.492051 0.604666 0.056387
O O6 0.459230 0.515131 0.164869
O O7 0.436713 0.712450 0.155956
O O8 0.243050 0.580588 0.001431
O O9 0.669143 0.740161 0.117279
O O10 0.867406 0.871824 0.207167
O O11 0.668181 0.897279 0.021027
O O12 0.300412 0.413610 0.957347
#
# Coordination Sequence:
#
# PCOD9291399 Si02
#       7
#     8   8   8   8   8   4   4
#     4  12  24  45  67  98 131 169 222 273 319 386
#     4  10  22  42  67  92 129 169 218 265 321 386
#     4  11  24  42  66  94 130 175 217 260 332 389
#     4  11  25  43  63  98 137 165 214 278 321 378
#     4  12  23  43  66  97 130 172 217 266 324 393
#     4   9  20  39  64  90 124 169 212 265 318 384
#     4  11  22  45  68  96 124 177 218 265 328 382
#
# _framework density 21.438973000000001
#
# number of rings (size 3 to 8) (size 9 to 14) (size 15 to 20)
#    0.000    1.000    5.000    1.500    2.333    0.667 
#    0.000    0.000    0.000    0.000    0.000    0.000 
#    0.000    0.000    0.000    0.000    0.000    0.000 
#
# Total GULP energy -134060.032571 kJ/mol
# GULP energy per Si atom -5585.834690 kJ/mol
# Density = 2.139018 g / cm^3
# Si number density = 21.438973 Si / 1000 Ang^3
#
#
#
# Elastic Constant Matrix: (Units=GPa)
#
#
# Indices 1 2 3 4 5 6 
#
# 1 84.0345 4.8059 -0.1265 0.0000 -14.3040 0.0000
# 2 4.8059 74.1766 10.2875 0.0000 -1.2842 0.0000
# 3 -0.1265 10.2875 57.0069 0.0000 -3.8872 0.0000
# 4 0.0000 0.0000 0.0000 20.1944 0.0000 -13.0517
# 5 -14.3040 -1.2842 -3.8872 0.0000 46.5980 0.0000
# 6 0.0000 0.0000 0.0000 -13.0517 0.0000 19.4683
#
#
#
# Elastic Compliance Matrix: (Units=1/GPa)
#
#
# Indices 1 2 3 4 5 6 
#
# 1 0.012608 -0.000811 0.000439 0.000000 0.003885 0.000000
# 2 -0.000811 0.013881 -0.002512 0.000000 -0.000076 0.000000
# 3 0.000439 -0.002512 0.018103 0.000000 0.001576 0.000000
# 4 0.000000 0.000000 0.000000 0.087378 0.000000 0.058579
# 5 0.003885 -0.000076 0.001576 0.000000 0.022782 0.000000
# 6 0.000000 0.000000 0.000000 0.058579 0.000000 0.090637
#
#
# Mechanical properties :
#
#
# Convention : Reuss Voigt Hill
#
# Bulk Modulus (GPa) = 25.75605 27.23909 26.49757
# Shear Modulus (GPa) = 18.93232 30.60222 24.76727
#
# Velocity S-wave (km/s) = 2.97489 3.78221 3.40258
# Velocity P-wave (km/s) = 4.88259 5.63972 5.27476
#
# Compressibility (1/GPa) = 0.03882583
#
# Stress axis : x y z
#
# Youngs Moduli (GPa) = 79.31410 72.04133 55.23802
#
# Poissons Ratio (x) = 0.05839 -0.02426
# Poissons Ratio (y) = 0.06429 0.13875
# Poissons Ratio (z) = -0.03483 0.18096
#
# Static dielectric constant tensor:
#      x y z
#    x 1.815610 0.000000 -0.016000 
#    y 0.000000 1.747760 0.000000 
#    z -0.016000 0.000000 1.816650 
# 
# From -- ./inp_files/237773.got.cif
#   From: 2010.05.17/outbox.cif.g08.bks.cpg/sg15_119_cif.got.tgz:237773.got - 2010.06.03 18:47:42.
