data_PCOD9291360
_publ_section_title
;
Structure prediction by ZEFSAII (Michael W. Deem and Ramdas Pophale) SiO2 
 PCOD9291360
Probable space group: C 2/C
;
_chemical_formula_sum "Si O2"
_cell_formula_units_Z 60
_cell_length_a 21.862548
_cell_length_b 8.789098
_cell_length_c 27.875817
_cell_angle_alpha 90.000000
_cell_angle_beta 30.476272
_cell_angle_gamma 90.000000
_cell_volume 2716.664979
_symmetry_space_group_name_H-M "C 2/C"
_symmetry_group_IT_number 15
_symmetry_cell_setting 'monoclinic'
loop_
_space_group_symop_operation_xyz
x,y,z
-x,y,1/2-z
-x,-y,-z
x,-y,1/2+z
1/2+x,1/2+y,z
1/2-x,1/2+y,1/2-z
1/2-x,1/2-y,-z
1/2+x,1/2-y,1/2+z
loop_
_atom_site_type_symbol
_atom_site_label
_atom_site_fract_x
_atom_site_fract_y
_atom_site_fract_z
Si Si1 0.884810 0.537347 0.733375
Si Si2 0.500000 0.051741 0.750000
Si Si3 0.644260 0.017456 0.911154
Si Si4 0.382690 0.924249 0.966671
Si Si5 0.362808 0.635120 0.103251
Si Si6 0.631517 0.376107 0.788503
Si Si7 0.065964 0.078381 0.548722
Si Si8 0.274231 0.103124 0.953756
O O1 0.938355 0.469231 0.746819
O O2 0.748474 0.482793 0.820641
O O3 0.896409 0.720796 0.721401
O O4 0.976920 0.473063 0.631994
O O5 0.390270 0.144449 0.844567
O O6 0.678089 0.193582 0.880944
O O7 0.731715 0.919132 0.818191
O O8 0.667193 0.991535 0.952288
O O9 0.500000 0.000000 0.000000
O O10 0.384625 0.743435 0.970419
O O11 0.313267 0.975643 0.965996
O O12 0.397444 0.653851 0.135659
O O13 0.448620 0.592536 0.999579
O O14 0.546415 0.525566 0.842240
O O15 0.168226 0.955124 0.491794
O O16 0.250000 0.250000 0.000000
#
# Coordination Sequence:
#
# PCOD9291360 Si02
#       8
#     8   4   8   8   8   8   8   8
#     4  11  23  42  69  98 136 175 229 276 338 395
#     4  10  22  42  66  98 132 178 216 274 330 394
#     4  11  25  44  64  96 138 175 223 279 339 396
#     4  10  23  41  66  93 134 175 219 277 332 396
#     4  11  23  42  68  95 135 176 224 269 337 398
#     4  12  25  40  67 101 134 176 226 275 334 398
#     4  11  23  43  65  98 133 175 221 275 335 400
#     4  11  23  42  69  97 137 171 230 270 337 396
#
# _framework density 22.085903999999999
#
# number of rings (size 3 to 8) (size 9 to 14) (size 15 to 20)
#    0.000    1.067    1.333    5.600    1.867    5.333 
#    0.000    0.000    0.000    0.000    0.000    0.000 
#    0.000    0.000    0.000    0.000    0.000    0.000 
#
# Total GULP energy -167265.022869 kJ/mol
# GULP energy per Si atom -5575.500762 kJ/mol
# Density = 2.203564 g / cm^3
# Si number density = 22.085904 Si / 1000 Ang^3
#
#
#
# Elastic Constant Matrix: (Units=GPa)
#
#
# Indices 1 2 3 4 5 6 
#
# 1 75.9060 10.4530 2.7028 0.0107 11.9055 -0.0123
# 2 10.4530 80.6469 13.7205 0.0102 7.4238 -0.0108
# 3 2.7028 13.7205 105.9731 -0.0028 7.0472 0.0025
# 4 0.0107 0.0102 -0.0028 26.1055 -0.0048 -0.2095
# 5 11.9055 7.4238 7.0472 -0.0048 32.1539 0.0094
# 6 -0.0123 -0.0108 0.0025 -0.2095 0.0094 19.8928
#
#
#
# Elastic Compliance Matrix: (Units=1/GPa)
#
#
# Indices 1 2 3 4 5 6 
#
# 1 0.014137 -0.001403 0.000150 -0.000006 -0.004944 0.000010
# 2 -0.001403 0.013037 -0.001509 -0.000005 -0.002160 0.000007
# 3 0.000150 -0.001509 0.009750 0.000001 -0.001844 -0.000001
# 4 -0.000006 -0.000005 0.000001 0.038309 0.000009 0.000403
# 5 -0.004944 -0.002160 -0.001844 0.000009 0.033834 -0.000020
# 6 0.000010 0.000007 -0.000001 0.000403 -0.000020 0.050274
#
#
# Mechanical properties :
#
#
# Convention : Reuss Voigt Hill
#
# Bulk Modulus (GPa) = 31.84522 35.14205 33.49364
# Shear Modulus (GPa) = 28.51732 31.34043 29.92887
#
# Velocity S-wave (km/s) = 3.59723 3.77108 3.68518
# Velocity P-wave (km/s) = 5.63058 5.90825 5.77109
#
# Compressibility (1/GPa) = 0.03140188
#
# Stress axis : x y z
#
# Youngs Moduli (GPa) = 70.73428 76.70457 102.55905
#
# Poissons Ratio (x) = 0.10760 -0.01536
# Poissons Ratio (y) = 0.09923 0.15471
# Poissons Ratio (z) = -0.01060 0.11571
#
# Static dielectric constant tensor:
#      x y z
#    x 1.864240 -0.000010 0.034840 
#    y -0.000010 1.802970 0.000010 
#    z 0.034840 0.000010 1.819680 
# 
# From -- ./inp_files/318493.got.cif
#   From: 2010.05.17/outbox.cif.g08.bks.cpg/sg15_160_cif.got.tgz:318493.got - 2010.06.03 18:47:42.
