data_PCOD9291868
_publ_section_title
;
Structure prediction by ZEFSAII (Michael W. Deem and Ramdas Pophale) SiO2 
 PCOD9291868
Probable space group: C 2/C
;
_chemical_formula_sum "Si O2"
_cell_formula_units_Z 36
_cell_length_a 24.849358
_cell_length_b 14.847815
_cell_length_c 15.519863
_cell_angle_alpha 90.000000
_cell_angle_beta 16.906535
_cell_angle_gamma 90.000000
_cell_volume 1665.240315
_symmetry_space_group_name_H-M "C 2/C"
_symmetry_group_IT_number 15
_symmetry_cell_setting 'monoclinic'
loop_
_space_group_symop_operation_xyz
x,y,z
-x,y,1/2-z
-x,-y,-z
x,-y,1/2+z
1/2+x,1/2+y,z
1/2-x,1/2+y,1/2-z
1/2-x,1/2-y,-z
1/2+x,1/2-y,1/2+z
loop_
_atom_site_type_symbol
_atom_site_label
_atom_site_fract_x
_atom_site_fract_y
_atom_site_fract_z
Si Si1 0.104084 0.191551 0.006357
Si Si2 0.909261 0.901568 0.647632
Si Si3 0.873817 0.838894 0.523324
Si Si4 0.352120 0.978109 0.153347
Si Si5 0.000000 0.533225 0.750000
O O1 0.210817 0.268634 0.791106
O O2 0.244077 0.115108 0.827381
O O3 0.000000 0.226581 0.250000
O O4 0.970754 0.143442 0.141840
O O5 0.972359 0.847649 0.465539
O O6 0.687618 0.912363 0.982397
O O7 0.000000 0.000000 0.500000
O O8 0.790198 0.937951 0.631875
O O9 0.000000 0.811858 0.250000
O O10 0.453166 0.976178 0.906230
O O11 0.500000 0.000000 0.000000
#
# Coordination Sequence:
#
# PCOD9291868 Si02
#       5
#     8   8   8   8   4
#     4  12  27  46  73 103 146 190 236 298 361 422
#     4  11  24  47  74 102 146 188 239 296 358 430
#     4  11  28  46  70 107 143 189 242 294 360 426
#     4  11  25  44  71 102 143 185 238 293 355 425
#     4  10  22  42  74 102 134 186 240 284 364 416
#
# _framework density 21.618501999999999
#
# number of rings (size 3 to 8) (size 9 to 14) (size 15 to 20)
#    0.000    0.889    4.444    2.000   14.000    1.778 
#    0.000    0.000    0.000    0.000    0.000    0.000 
#    0.000    0.000    0.000    0.000    0.000    0.000 
#
# Total GULP energy -100702.717464 kJ/mol
# GULP energy per Si atom -5594.595415 kJ/mol
# Density = 2.156930 g / cm^3
# Si number density = 21.618502 Si / 1000 Ang^3
#
#
#
# Elastic Constant Matrix: (Units=GPa)
#
#
# Indices 1 2 3 4 5 6 
#
# 1 123.7636 -9.2547 51.0157 0.0012 11.0673 -0.0001
# 2 -9.2547 74.1661 39.6741 0.0014 9.8244 -0.0002
# 3 51.0157 39.6741 132.6686 0.0014 37.0072 -0.0005
# 4 0.0012 0.0014 0.0014 27.6457 -0.0001 1.0369
# 5 11.0673 9.8244 37.0072 -0.0001 46.9557 -0.0002
# 6 -0.0001 -0.0002 -0.0005 1.0369 -0.0002 21.0231
#
#
#
# Elastic Compliance Matrix: (Units=1/GPa)
#
#
# Indices 1 2 3 4 5 6 
#
# 1 0.010623 0.004200 -0.005636 0.000000 0.001060 0.000000
# 2 0.004200 0.017723 -0.007184 -0.000001 0.000964 0.000000
# 3 -0.005636 -0.007184 0.014181 0.000000 -0.008345 0.000000
# 4 0.000000 -0.000001 0.000000 0.036239 0.000000 -0.001787
# 5 0.001060 0.000964 -0.008345 0.000000 0.027422 0.000000
# 6 0.000000 0.000000 0.000000 -0.001787 0.000000 0.047655
#
#
# Mechanical properties :
#
#
# Convention : Reuss Voigt Hill
#
# Bulk Modulus (GPa) = 39.54726 54.82984 47.18855
# Shear Modulus (GPa) = 27.85340 35.73578 31.79459
#
# Velocity S-wave (km/s) = 3.59333 4.07014 3.83915
# Velocity P-wave (km/s) = 5.96230 6.89243 6.44417
#
# Compressibility (1/GPa) = 0.02528620
#
# Stress axis : x y z
#
# Youngs Moduli (GPa) = 94.13895 56.42507 70.51642
#
# Poissons Ratio (x) = -0.23700 0.39746
# Poissons Ratio (y) = -0.39541 0.50658
# Poissons Ratio (z) = 0.53061 0.40535
#
# Static dielectric constant tensor:
#      x y z
#    x 1.781910 0.000000 0.001800 
#    y 0.000000 1.791660 0.000000 
#    z 0.001800 0.000000 1.800700 
# 
# From -- ./inp_files/173577.got.cif
#   From: 2010.05.17/outbox.cif.g08.bks.cpg/sg15_87_cif.got.tgz:173577.got - 2010.06.03 18:47:42.
