data_PCOD9291101
_publ_section_title
;
Structure prediction by ZEFSAII (Michael W. Deem and Ramdas Pophale) SiO2 
 PCOD9291101
Probable space group: C 2/C
;
_chemical_formula_sum "Si O2"
_cell_formula_units_Z 60
_cell_length_a 11.032554
_cell_length_b 9.368548
_cell_length_c 28.643221
_cell_angle_alpha 90.000000
_cell_angle_beta 88.251143
_cell_angle_gamma 90.000000
_cell_volume 2959.155997
_symmetry_space_group_name_H-M "C 2/C"
_symmetry_group_IT_number 15
_symmetry_cell_setting 'monoclinic'
loop_
_space_group_symop_operation_xyz
x,y,z
-x,y,1/2-z
-x,-y,-z
x,-y,1/2+z
1/2+x,1/2+y,z
1/2-x,1/2+y,1/2-z
1/2-x,1/2-y,-z
1/2+x,1/2-y,1/2+z
loop_
_atom_site_type_symbol
_atom_site_label
_atom_site_fract_x
_atom_site_fract_y
_atom_site_fract_z
Si Si1 0.343690 0.555349 0.213366
Si Si2 0.059943 0.353687 0.017864
Si Si3 0.798362 0.264652 0.858075
Si Si4 0.082070 0.210040 0.846021
Si Si5 0.816242 0.501884 0.694097
Si Si6 0.172898 0.814373 0.958197
Si Si7 0.000000 0.312186 0.250000
Si Si8 0.178308 0.867338 0.445395
O O1 0.244599 0.613443 0.177578
O O2 0.403573 0.412039 0.193141
O O3 0.279689 0.523538 0.263183
O O4 0.436188 0.684575 0.219133
O O5 0.113629 0.259661 0.974593
O O6 0.176335 0.368222 0.049789
O O7 0.000000 0.500000 0.000000
O O8 0.951831 0.270775 0.044131
O O9 0.749356 0.300878 0.909938
O O10 0.942348 0.248109 0.855764
O O11 0.739302 0.116108 0.841185
O O12 0.153174 0.351729 0.829943
O O13 0.138641 0.148154 0.892737
O O14 0.933954 0.567112 0.717859
O O15 0.141502 0.979641 0.966510
O O16 0.250000 0.750000 0.000000
#
# Coordination Sequence:
#
# PCOD9291101 Si02
#       8
#     8   8   8   8   8   8   4   8
#     4  11  23  46  65  99 136 183 233 287 350 414
#     4  11  25  46  73 101 143 181 237 293 355 425
#     4  11  26  43  67 104 138 185 235 285 362 421
#     4  12  25  43  71 101 144 178 239 290 349 429
#     4  11  25  42  69  99 136 186 230 290 353 413
#     4  12  24  46  73  99 145 188 235 294 354 430
#     4  10  22  42  64  92 130 172 226 274 344 404
#     4  11  26  45  69 107 135 191 232 294 362 420
#
# _framework density 20.276053000000001
#
# number of rings (size 3 to 8) (size 9 to 14) (size 15 to 20)
#    0.000    0.800    2.667    4.400    1.867    2.667 
#    9.600    0.000    0.000    0.000    0.000    0.000 
#    0.000    0.000    0.000    0.000    0.000    0.000 
#
# Total GULP energy -167282.665525 kJ/mol
# GULP energy per Si atom -5576.088851 kJ/mol
# Density = 2.022990 g / cm^3
# Si number density = 20.276053 Si / 1000 Ang^3
#
#
#
# Elastic Constant Matrix: (Units=GPa)
#
#
# Indices 1 2 3 4 5 6 
#
# 1 103.1622 26.6349 30.8950 0.0000 -7.9367 0.0000
# 2 26.6349 99.9024 7.9985 0.0000 -0.2340 0.0000
# 3 30.8950 7.9985 67.2456 0.0000 15.0099 0.0000
# 4 0.0000 0.0000 0.0000 39.7607 0.0000 -1.5249
# 5 -7.9367 -0.2340 15.0099 0.0000 22.4129 0.0000
# 6 0.0000 0.0000 0.0000 -1.5249 0.0000 27.9085
#
#
#
# Elastic Compliance Matrix: (Units=1/GPa)
#
#
# Indices 1 2 3 4 5 6 
#
# 1 0.013738 -0.002976 -0.008273 0.000000 0.010374 0.000000
# 2 -0.002976 0.010773 0.000348 0.000000 -0.001174 0.000000
# 3 -0.008273 0.000348 0.022673 0.000000 -0.018110 0.000000
# 4 0.000000 0.000000 0.000000 0.025203 0.000000 0.001377
# 5 0.010374 -0.001174 -0.018110 0.000000 0.060407 0.000000
# 6 0.000000 0.000000 0.000000 0.001377 0.000000 0.035907
#
#
# Mechanical properties :
#
#
# Convention : Reuss Voigt Hill
#
# Bulk Modulus (GPa) = 39.39978 44.59633 41.99806
# Shear Modulus (GPa) = 25.13042 31.66852 28.39947
#
# Velocity S-wave (km/s) = 3.52435 3.95634 3.74657
# Velocity P-wave (km/s) = 6.00294 6.55076 6.28282
#
# Compressibility (1/GPa) = 0.02538085
#
# Stress axis : x y z
#
# Youngs Moduli (GPa) = 72.79306 92.82856 44.10574
#
# Poissons Ratio (x) = 0.27625 0.36489
# Poissons Ratio (y) = 0.21662 -0.01535
# Poissons Ratio (z) = 0.60223 -0.03231
#
# Static dielectric constant tensor:
#      x y z
#    x 1.740200 0.000000 0.004660 
#    y 0.000000 1.703870 0.000000 
#    z 0.004660 0.000000 1.689800 
# 
# From -- ./inp_files/291579.got.cif
#   From: 2010.05.17/outbox.cif.g08.bks.cpg/sg15_146_cif.got.tgz:291579.got - 2010.06.03 18:47:42.
