data_PCOD9291951
_publ_section_title
;
Structure prediction by ZEFSAII (Michael W. Deem and Ramdas Pophale) SiO2 
 PCOD9291951
Probable space group: C 2/C
;
_chemical_formula_sum "Si O2"
_cell_formula_units_Z 48
_cell_length_a 12.587977
_cell_length_b 7.982713
_cell_length_c 24.193364
_cell_angle_alpha 90.000000
_cell_angle_beta 130.113929
_cell_angle_gamma 90.000000
_cell_volume 1859.219215
_symmetry_space_group_name_H-M "C 2/C"
_symmetry_group_IT_number 15
_symmetry_cell_setting 'monoclinic'
loop_
_space_group_symop_operation_xyz
x,y,z
-x,y,1/2-z
-x,-y,-z
x,-y,1/2+z
1/2+x,1/2+y,z
1/2-x,1/2+y,1/2-z
1/2-x,1/2-y,-z
1/2+x,1/2-y,1/2+z
loop_
_atom_site_type_symbol
_atom_site_label
_atom_site_fract_x
_atom_site_fract_y
_atom_site_fract_z
Si Si1 0.367446 0.321462 0.673076
Si Si2 0.565857 0.111163 0.460724
Si Si3 0.648901 0.971790 0.177658
Si Si4 0.225687 0.368790 0.809114
Si Si5 0.357998 0.651424 0.613579
Si Si6 0.120079 0.118319 0.566753
O O1 0.500000 0.251605 0.750000
O O2 0.256965 0.409732 0.678989
O O3 0.424521 0.480736 0.657524
O O4 0.279334 0.184960 0.608290
O O5 0.490408 0.961556 0.405065
O O6 0.577159 0.250487 0.415670
O O7 0.709319 0.093484 0.539335
O O8 0.457934 0.204283 0.463626
O O9 0.627913 0.047590 0.230941
O O10 0.709578 0.788369 0.200785
O O11 0.164617 0.281583 0.843788
O O12 0.337039 0.507751 0.865275
O O13 0.000000 0.000000 0.500000
#
# Coordination Sequence:
#
# PCOD9291951 Si02
#       6
#     8   8   8   8   8   8
#     4  10  24  42  67  98 136 175 226 288 346 415
#     4  10  22  43  64 100 134 180 227 280 342 428
#     4  10  23  40  69  92 133 177 230 281 345 416
#     4  11  23  43  64  99 126 182 224 288 344 410
#     4  10  23  41  69  97 137 176 226 280 354 412
#     4  11  23  43  68  96 136 180 234 284 342 416
#
# _framework density 25.817288999999999
#
# number of rings (size 3 to 8) (size 9 to 14) (size 15 to 20)
#    0.000    1.667    1.667    2.000    9.333    2.000 
#    6.000    0.833    0.000    0.000    0.000    0.000 
#    0.000    0.000    0.000    0.000    0.000    0.000 
#
# Total GULP energy -133948.279583 kJ/mol
# GULP energy per Si atom -5581.178316 kJ/mol
# Density = 2.575853 g / cm^3
# Si number density = 25.817289 Si / 1000 Ang^3
#
#
#
# Elastic Constant Matrix: (Units=GPa)
#
#
# Indices 1 2 3 4 5 6 
#
# 1 55.8357 9.0310 25.0963 0.0000 -4.2384 0.0000
# 2 9.0310 81.9093 14.8776 0.0000 -8.1468 0.0000
# 3 25.0963 14.8776 138.1001 0.0000 -1.1739 0.0000
# 4 0.0000 0.0000 0.0000 45.7206 0.0000 1.3585
# 5 -4.2384 -8.1468 -1.1739 0.0000 35.1275 0.0000
# 6 0.0000 0.0000 0.0000 1.3585 0.0000 22.9141
#
#
#
# Elastic Compliance Matrix: (Units=1/GPa)
#
#
# Indices 1 2 3 4 5 6 
#
# 1 0.019825 -0.001366 -0.003439 0.000000 0.001960 0.000000
# 2 -0.001366 0.012837 -0.001111 0.000000 0.002775 0.000000
# 3 -0.003439 -0.001111 0.007982 0.000000 -0.000406 0.000000
# 4 0.000000 0.000000 0.000000 0.021911 0.000000 -0.001299
# 5 0.001960 0.002775 -0.000406 0.000000 0.029334 0.000000
# 6 0.000000 0.000000 0.000000 -0.001299 0.000000 0.043718
#
#
# Mechanical properties :
#
#
# Convention : Reuss Voigt Hill
#
# Bulk Modulus (GPa) = 34.70761 41.53942 38.12352
# Shear Modulus (GPa) = 31.83821 35.87514 33.85667
#
# Velocity S-wave (km/s) = 3.51552 3.73175 3.62525
# Velocity P-wave (km/s) = 5.47278 5.89004 5.68524
#
# Compressibility (1/GPa) = 0.02881213
#
# Stress axis : x y z
#
# Youngs Moduli (GPa) = 50.44105 77.89920 125.27718
#
# Poissons Ratio (x) = 0.10643 0.43081
# Poissons Ratio (y) = 0.06891 0.13919
# Poissons Ratio (z) = 0.17346 0.08655
#
# Static dielectric constant tensor:
#      x y z
#    x 2.217890 0.000000 0.016970 
#    y 0.000000 1.998420 0.000000 
#    z 0.016970 0.000000 1.982520 
# 
# From -- ./inp_files/295375.got.cif
#   From: 2010.05.17/outbox.cif.g08.bks.cpg/sg15_148_cif.got.tgz:295375.got - 2010.06.03 18:47:42.
