data_PCOD9291093
_publ_section_title
;
Structure prediction by ZEFSAII (Michael W. Deem and Ramdas Pophale) SiO2 
 PCOD9291093
Probable space group: C 2/C
;
_chemical_formula_sum "Si O2"
_cell_formula_units_Z 40
_cell_length_a 9.813282
_cell_length_b 10.296011
_cell_length_c 23.459588
_cell_angle_alpha 90.000000
_cell_angle_beta 39.667602
_cell_angle_gamma 90.000000
_cell_volume 1513.041086
_symmetry_space_group_name_H-M "C 2/C"
_symmetry_group_IT_number 15
_symmetry_cell_setting 'monoclinic'
loop_
_space_group_symop_operation_xyz
x,y,z
-x,y,1/2-z
-x,-y,-z
x,-y,1/2+z
1/2+x,1/2+y,z
1/2-x,1/2+y,1/2-z
1/2-x,1/2-y,-z
1/2+x,1/2-y,1/2+z
loop_
_atom_site_type_symbol
_atom_site_label
_atom_site_fract_x
_atom_site_fract_y
_atom_site_fract_z
Si Si1 0.253022 0.531876 0.659717
Si Si2 0.745201 0.177596 0.334478
Si Si3 0.838340 0.431630 0.924308
Si Si4 0.654564 0.869963 0.995620
Si Si5 0.765201 0.251732 0.851096
O O1 0.314872 0.849464 0.580654
O O2 0.322745 0.384429 0.652053
O O3 0.000000 0.523388 0.750000
O O4 0.315681 0.672362 0.661774
O O5 0.593249 0.089601 0.344377
O O6 0.593916 0.860340 0.405504
O O7 0.000000 0.161469 0.250000
O O8 0.741067 0.535588 0.911163
O O9 0.766419 0.299990 0.916791
O O10 0.765559 0.489843 0.007610
O O11 0.750000 0.750000 0.000000
O O12 0.000000 0.223236 0.750000
#
# Coordination Sequence:
#
# PCOD9291093 Si02
#       5
#     8   8   8   8   8
#     4   8  18  40  61  90 127 172 217 256 322 384
#     4  11  24  41  67  97 131 176 219 269 331 383
#     4  10  22  42  64  91 132 169 220 264 324 392
#     4  12  24  41  70  98 133 171 222 272 325 387
#     4   9  22  43  66  98 134 174 217 265 328 388
#
# _framework density 26.436821999999999
#
# number of rings (size 3 to 8) (size 9 to 14) (size 15 to 20)
#    1.200    0.800    2.000    0.600    2.800    4.800 
#    0.000    4.000    0.000    0.000    0.000    0.000 
#    0.000    0.000    0.000    0.000    0.000    0.000 
#
# Total GULP energy -111493.686473 kJ/mol
# GULP energy per Si atom -5574.684324 kJ/mol
# Density = 2.637665 g / cm^3
# Si number density = 26.436822 Si / 1000 Ang^3
#
#
#
# Elastic Constant Matrix: (Units=GPa)
#
#
# Indices 1 2 3 4 5 6 
#
# 1 41.3694 13.4283 17.8289 0.0000 -12.2450 0.0000
# 2 13.4283 95.7173 26.3222 -0.0001 -7.0992 0.0000
# 3 17.8289 26.3222 123.3202 -0.0001 -16.6650 0.0000
# 4 0.0000 -0.0001 -0.0001 25.0963 0.0000 -8.6237
# 5 -12.2450 -7.0992 -16.6650 0.0000 34.8148 0.0000
# 6 0.0000 0.0000 0.0000 -8.6237 0.0000 24.4914
#
#
#
# Elastic Compliance Matrix: (Units=1/GPa)
#
#
# Indices 1 2 3 4 5 6 
#
# 1 0.028567 -0.002723 -0.002423 0.000000 0.008332 0.000000
# 2 -0.002723 0.011406 -0.001984 0.000000 0.000418 0.000000
# 3 -0.002423 -0.001984 0.009316 0.000000 0.003202 0.000000
# 4 0.000000 0.000000 0.000000 0.045331 0.000000 0.015962
# 5 0.008332 0.000418 0.003202 0.000000 0.033272 0.000000
# 6 0.000000 0.000000 0.000000 0.015962 0.000000 0.046451
#
#
# Mechanical properties :
#
#
# Convention : Reuss Voigt Hill
#
# Bulk Modulus (GPa) = 28.54886 41.72951 35.13919
# Shear Modulus (GPa) = 24.96505 30.40234 27.68369
#
# Velocity S-wave (km/s) = 3.07633 3.39484 3.23950
# Velocity P-wave (km/s) = 4.84156 5.58440 5.22619
#
# Compressibility (1/GPa) = 0.03502766
#
# Stress axis : x y z
#
# Youngs Moduli (GPa) = 35.00555 87.67145 107.34751
#
# Poissons Ratio (x) = 0.23877 0.26007
# Poissons Ratio (y) = 0.09534 0.21302
# Poissons Ratio (z) = 0.08481 0.17397
#
# Static dielectric constant tensor:
#      x y z
#    x 1.775700 0.000000 -0.273010 
#    y 0.000000 2.069830 0.000000 
#    z -0.273010 0.000000 1.848090 
# 
# From -- ./inp_files/309610.got.cif
#   From: 2010.05.17/outbox.cif.g08.bks.cpg/sg15_155_cif.got.tgz:309610.got - 2010.06.03 18:47:42.
