data_PCOD9291151
_publ_section_title
;
Structure prediction by ZEFSAII (Michael W. Deem and Ramdas Pophale) SiO2 
 PCOD9291151
Probable space group: C 2/C
;
_chemical_formula_sum "Si O2"
_cell_formula_units_Z 56
_cell_length_a 7.259388
_cell_length_b 17.771484
_cell_length_c 21.100439
_cell_angle_alpha 90.000000
_cell_angle_beta 61.636249
_cell_angle_gamma 90.000000
_cell_volume 2395.371339
_symmetry_space_group_name_H-M "C 2/C"
_symmetry_group_IT_number 15
_symmetry_cell_setting 'monoclinic'
loop_
_space_group_symop_operation_xyz
x,y,z
-x,y,1/2-z
-x,-y,-z
x,-y,1/2+z
1/2+x,1/2+y,z
1/2-x,1/2+y,1/2-z
1/2-x,1/2-y,-z
1/2+x,1/2-y,1/2+z
loop_
_atom_site_type_symbol
_atom_site_label
_atom_site_fract_x
_atom_site_fract_y
_atom_site_fract_z
Si Si1 0.135106 0.087671 0.049412
Si Si2 0.275886 0.167000 0.367712
Si Si3 0.693977 0.827276 0.361726
Si Si4 0.347486 0.538749 0.645802
Si Si5 0.000000 0.537443 0.250000
Si Si6 0.276808 0.324680 0.091922
Si Si7 0.985778 0.666047 0.467888
Si Si8 0.000000 0.054402 0.750000
O O1 0.342214 0.099364 0.057278
O O2 0.970317 0.151247 0.096839
O O3 0.194843 0.113441 0.969050
O O4 0.011226 0.009513 0.077738
O O5 0.322973 0.250237 0.337124
O O6 0.379566 0.103121 0.309927
O O7 0.340970 0.158675 0.430534
O O8 0.471380 0.813840 0.363350
O O9 0.635835 0.836726 0.445778
O O10 0.822131 0.895508 0.311726
O O11 0.372666 0.628140 0.634428
O O12 0.390361 0.509459 0.711026
O O13 0.099310 0.524351 0.683167
O O14 0.394801 0.246942 0.057072
#
# Coordination Sequence:
#
# PCOD9291151 Si02
#       8
#     8   8   8   8   4   8   8   4
#     4  10  22  42  65 101 131 171 223 278 336 406
#     4  11  21  39  69  97 133 171 221 281 337 399
#     4  11  22  42  65 101 133 165 228 280 336 408
#     4  11  25  43  64  91 140 186 222 279 340 417
#     4  10  25  44  60  89 136 180 226 266 342 413
#     4  11  21  43  71  99 132 173 224 288 345 398
#     4  11  22  40  74 101 132 170 230 288 343 393
#     4  12  27  40  64  91 136 176 228 268 342 411
#
# _framework density 23.378420999999999
#
# number of rings (size 3 to 8) (size 9 to 14) (size 15 to 20)
#    0.000    1.143    2.857    3.857    4.000    0.000 
#    0.000    1.429    0.000    0.000    0.000    0.000 
#    0.000    0.000    0.000    0.000    0.000    0.000 
#
# Total GULP energy -155968.135639 kJ/mol
# GULP energy per Si atom -5570.290559 kJ/mol
# Density = 2.332521 g / cm^3
# Si number density = 23.378421 Si / 1000 Ang^3
#
#
#
# Elastic Constant Matrix: (Units=GPa)
#
#
# Indices 1 2 3 4 5 6 
#
# 1 61.1282 16.1287 27.5867 0.0000 -8.4570 0.0000
# 2 16.1287 93.1930 26.8322 0.0000 -8.7605 0.0000
# 3 27.5867 26.8322 70.1331 0.0000 -9.9718 0.0000
# 4 0.0000 0.0000 0.0000 68.8951 0.0000 -59.9366
# 5 -8.4570 -8.7605 -9.9718 0.0000 40.4036 0.0000
# 6 0.0000 0.0000 0.0000 -59.9366 0.0000 114.7729
#
#
#
# Elastic Compliance Matrix: (Units=1/GPa)
#
#
# Indices 1 2 3 4 5 6 
#
# 1 0.020224 -0.001228 -0.007173 0.000000 0.002197 0.000000
# 2 -0.001228 0.012225 -0.003994 0.000000 0.001408 0.000000
# 3 -0.007173 -0.003994 0.018936 0.000000 0.002306 0.000000
# 4 0.000000 0.000000 0.000000 0.026599 0.000000 0.013891
# 5 0.002197 0.001408 0.002306 0.000000 0.026084 0.000000
# 6 0.000000 0.000000 0.000000 0.013891 0.000000 0.015967
#
#
# Mechanical properties :
#
#
# Convention : Reuss Voigt Hill
#
# Bulk Modulus (GPa) = 37.60099 40.61662 39.10881
# Shear Modulus (GPa) = 32.53279 55.07476 43.80378
#
# Velocity S-wave (km/s) = 3.73443 4.85892 4.33330
# Velocity P-wave (km/s) = 5.89179 6.99214 6.46542
#
# Compressibility (1/GPa) = 0.02659504
#
# Stress axis : x y z
#
# Youngs Moduli (GPa) = 49.44596 81.79762 52.80973
#
# Poissons Ratio (x) = 0.10049 0.37879
# Poissons Ratio (y) = 0.06074 0.21091
# Poissons Ratio (z) = 0.35467 0.32669
#
# Static dielectric constant tensor:
#      x y z
#    x 0.846420 0.000000 0.352420 
#    y 0.000000 1.858900 0.000000 
#    z 0.352420 0.000000 1.884020 
# 
# From -- ./inp_files/232617.got.cif
#   From: 2010.05.17/outbox.cif.g08.bks.cpg/sg15_117_cif.got.tgz:232617.got - 2010.06.03 18:47:42.
