data_PCOD9291457
_publ_section_title
;
Structure prediction by ZEFSAII (Michael W. Deem and Ramdas Pophale) SiO2 
 PCOD9291457
Probable space group: C 2/C
;
_chemical_formula_sum "Si O2"
_cell_formula_units_Z 64
_cell_length_a 17.613468
_cell_length_b 15.544628
_cell_length_c 14.081504
_cell_angle_alpha 90.000000
_cell_angle_beta 47.641341
_cell_angle_gamma 90.000000
_cell_volume 2848.947301
_symmetry_space_group_name_H-M "C 2/C"
_symmetry_group_IT_number 15
_symmetry_cell_setting 'monoclinic'
loop_
_space_group_symop_operation_xyz
x,y,z
-x,y,1/2-z
-x,-y,-z
x,-y,1/2+z
1/2+x,1/2+y,z
1/2-x,1/2+y,1/2-z
1/2-x,1/2-y,-z
1/2+x,1/2-y,1/2+z
loop_
_atom_site_type_symbol
_atom_site_label
_atom_site_fract_x
_atom_site_fract_y
_atom_site_fract_z
Si Si1 0.598274 0.608218 0.376175
Si Si2 0.120893 0.079721 0.840461
Si Si3 0.668484 0.643752 0.603668
Si Si4 0.161530 0.528763 0.130037
Si Si5 0.364967 0.763168 0.025975
Si Si6 0.486953 0.064565 0.421131
Si Si7 0.108473 0.804829 0.675816
Si Si8 0.252131 0.349308 0.110828
O O1 0.488395 0.596949 0.519170
O O2 0.654717 0.517299 0.337652
O O3 0.645654 0.692861 0.383136
O O4 0.588853 0.624785 0.272475
O O5 0.113838 0.093299 0.734255
O O6 0.203207 0.140467 0.822108
O O7 0.733470 0.579706 0.481061
O O8 0.602075 0.707494 0.594709
O O9 0.757015 0.698082 0.582891
O O10 0.095898 0.530236 0.087045
O O11 0.184922 0.431872 0.140766
O O12 0.092172 0.570929 0.271501
O O13 0.442478 0.840946 0.985533
O O14 0.500000 0.000000 0.500000
O O15 0.188855 0.736432 0.647156
O O16 0.153747 0.845155 0.542445
O O17 0.000000 0.759529 0.750000
#
# Coordination Sequence:
#
# PCOD9291457 Si02
#       8
#     8   8   8   8   8   8   8   8
#     4  11  24  41  66  97 134 181 232 289 343 423
#     4  11  24  42  65  99 133 179 233 286 357 408
#     4  10  22  42  67  98 136 177 231 290 347 426
#     4  10  23  41  68 101 135 181 231 288 359 415
#     4  10  23  43  67  97 135 181 228 290 347 420
#     4  10  24  43  67 103 139 184 232 291 355 426
#     4  11  24  44  67  98 136 179 233 285 350 419
#     4  11  24  43  70  97 138 183 227 294 352 423
#
# _framework density 22.464438999999999
#
# number of rings (size 3 to 8) (size 9 to 14) (size 15 to 20)
#    0.000    1.500    1.250    2.250    7.000    5.500 
#    2.250    0.000    0.000    0.000    0.000    0.000 
#    0.000    0.000    0.000    0.000    0.000    0.000 
#
# Total GULP energy -178902.016586 kJ/mol
# GULP energy per Si atom -5590.688018 kJ/mol
# Density = 2.241331 g / cm^3
# Si number density = 22.464439 Si / 1000 Ang^3
#
#
#
# Elastic Constant Matrix: (Units=GPa)
#
#
# Indices 1 2 3 4 5 6 
#
# 1 50.1003 21.0981 28.8342 0.0000 20.4882 0.0000
# 2 21.0981 88.2452 26.7048 0.0000 14.7685 0.0000
# 3 28.8342 26.7048 112.5784 0.0000 23.4429 0.0000
# 4 0.0000 0.0000 0.0000 7.2302 0.0000 6.1017
# 5 20.4882 14.7685 23.4429 0.0000 36.0791 0.0000
# 6 0.0000 0.0000 0.0000 6.1017 0.0000 44.9253
#
#
#
# Elastic Compliance Matrix: (Units=1/GPa)
#
#
# Indices 1 2 3 4 5 6 
#
# 1 0.028792 -0.003630 -0.003953 0.000000 -0.012296 0.000000
# 2 -0.003630 0.013085 -0.001721 0.000000 -0.002177 0.000000
# 3 -0.003953 -0.001721 0.011205 0.000000 -0.004332 0.000000
# 4 0.000000 0.000000 0.000000 0.156215 0.000000 -0.021217
# 5 -0.012296 -0.002177 -0.004332 0.000000 0.038405 0.000000
# 6 0.000000 0.000000 0.000000 -0.021217 0.000000 0.025141
#
#
# Mechanical properties :
#
#
# Convention : Reuss Voigt Hill
#
# Bulk Modulus (GPa) = 29.00648 44.91091 36.95869
# Shear Modulus (GPa) = 16.50482 29.26603 22.88542
#
# Velocity S-wave (km/s) = 2.71349 3.61331 3.19523
# Velocity P-wave (km/s) = 4.77049 6.11910 5.48639
#
# Compressibility (1/GPa) = 0.03447506
#
# Stress axis : x y z
#
# Youngs Moduli (GPa) = 34.73218 76.42364 89.24294
#
# Poissons Ratio (x) = 0.27739 0.35277
# Poissons Ratio (y) = 0.12607 0.15358
# Poissons Ratio (z) = 0.13729 0.13152
#
# Static dielectric constant tensor:
#      x y z
#    x 1.831700 0.000000 -0.006310 
#    y 0.000000 1.821480 0.000000 
#    z -0.006310 0.000000 1.852410 
# 
# From -- ./inp_files/162540.got.cif
#   From: 2010.05.17/outbox.cif.g08.bks.cpg/sg15_82_cif.got.tgz:162540.got - 2010.06.03 18:47:42.
