data_PCOD9291318
_publ_section_title
;
Structure prediction by ZEFSAII (Michael W. Deem and Ramdas Pophale) SiO2 
 PCOD9291318
Probable space group: C 2/C
;
_chemical_formula_sum "Si O2"
_cell_formula_units_Z 56
_cell_length_a 23.301152
_cell_length_b 13.756839
_cell_length_c 8.153833
_cell_angle_alpha 90.000000
_cell_angle_beta 126.074050
_cell_angle_gamma 90.000000
_cell_volume 2112.550743
_symmetry_space_group_name_H-M "C 2/C"
_symmetry_group_IT_number 15
_symmetry_cell_setting 'monoclinic'
loop_
_space_group_symop_operation_xyz
x,y,z
-x,y,1/2-z
-x,-y,-z
x,-y,1/2+z
1/2+x,1/2+y,z
1/2-x,1/2+y,1/2-z
1/2-x,1/2-y,-z
1/2+x,1/2-y,1/2+z
loop_
_atom_site_type_symbol
_atom_site_label
_atom_site_fract_x
_atom_site_fract_y
_atom_site_fract_z
Si Si1 0.000000 0.475821 0.750000
Si Si2 0.102442 0.457322 0.170700
Si Si3 0.000000 0.757547 0.750000
Si Si4 0.829673 0.703364 0.536724
Si Si5 0.479243 0.607848 0.524502
Si Si6 0.172956 0.665639 0.324349
Si Si7 0.160362 0.089824 0.395432
Si Si8 0.817945 0.120438 0.694753
O O1 0.933751 0.421597 0.557919
O O2 0.964544 0.545651 0.821291
O O3 0.164626 0.389504 0.336242
O O4 0.124222 0.570585 0.212020
O O5 0.083352 0.718781 0.864499
O O6 0.992959 0.816834 0.566431
O O7 0.794697 0.676742 0.304886
O O8 0.801998 0.805878 0.556087
O O9 0.500000 0.622881 0.750000
O O10 0.500000 0.500000 0.500000
O O11 0.396480 0.607094 0.344494
O O12 0.150248 0.777632 0.320886
O O13 0.233088 0.639664 0.557022
O O14 0.147868 0.096917 0.571491
O O15 0.179679 0.977859 0.405223
#
# Coordination Sequence:
#
# PCOD9291318 Si02
#       8
#     4   8   4   8   8   8   8   8
#     4  10  23  36  66  99 132 173 216 276 337 412
#     4  11  21  43  64  97 135 170 226 273 341 410
#     4  10  23  40  62  97 140 183 216 286 339 422
#     4  10  22  42  66  94 136 175 217 279 353 394
#     4  11  21  37  65  99 136 179 227 271 348 420
#     4  10  23  41  71  94 126 183 226 272 341 411
#     4  10  23  43  64  95 134 170 217 282 334 411
#     4  10  23  45  68  94 132 177 228 277 347 395
#
# _framework density 26.508241000000002
#
# number of rings (size 3 to 8) (size 9 to 14) (size 15 to 20)
#    0.000    1.714    2.143    1.286    8.000    0.000 
#    7.714    0.714    1.571    3.429    0.000    0.000 
#    0.000    0.000    0.000    0.000    0.000    0.000 
#
# Total GULP energy -155870.799480 kJ/mol
# GULP energy per Si atom -5566.814267 kJ/mol
# Density = 2.644791 g / cm^3
# Si number density = 26.508241 Si / 1000 Ang^3
#
#
#
# Elastic Constant Matrix: (Units=GPa)
#
#
# Indices 1 2 3 4 5 6 
#
# 1 31.9705 33.8214 35.4420 0.0000 0.5020 0.0000
# 2 33.8214 199.3424 42.5092 0.0000 -1.0344 0.0000
# 3 35.4420 42.5092 172.3146 0.0000 -13.0315 0.0000
# 4 0.0000 0.0000 0.0000 42.4375 0.0000 6.0061
# 5 0.5020 -1.0344 -13.0315 0.0000 37.7578 0.0000
# 6 0.0000 0.0000 0.0000 6.0061 0.0000 22.7815
#
#
#
# Elastic Compliance Matrix: (Units=1/GPa)
#
#
# Indices 1 2 3 4 5 6 
#
# 1 0.047342 -0.006243 -0.008479 0.000000 -0.003727 0.000000
# 2 -0.006243 0.006122 -0.000213 0.000000 0.000177 0.000000
# 3 -0.008479 -0.000213 0.007812 0.000000 0.002803 0.000000
# 4 0.000000 0.000000 0.000000 0.024477 0.000000 -0.006453
# 5 -0.003727 0.000177 0.002803 0.000000 0.027506 0.000000
# 6 0.000000 0.000000 0.000000 -0.006453 0.000000 0.045597
#
#
# Mechanical properties :
#
#
# Convention : Reuss Voigt Hill
#
# Bulk Modulus (GPa) = 31.84158 69.68585 50.76372
# Shear Modulus (GPa) = 25.10100 40.05234 32.57667
#
# Velocity S-wave (km/s) = 3.08053 3.89130 3.50941
# Velocity P-wave (km/s) = 4.96900 6.82166 5.96766
#
# Compressibility (1/GPa) = 0.03140547
#
# Stress axis : x y z
#
# Youngs Moduli (GPa) = 21.12288 163.34335 128.01189
#
# Poissons Ratio (x) = 1.01983 1.08541
# Poissons Ratio (y) = 0.13188 0.02723
# Poissons Ratio (z) = 0.17910 0.03474
#
# Static dielectric constant tensor:
#      x y z
#    x 2.749960 0.000000 0.273510 
#    y 0.000000 2.370580 0.000000 
#    z 0.273510 0.000000 2.311390 
# 
# From -- ./inp_files/69997.got.cif
#   From: 2010.05.17/outbox.cif.g08.bks.cpg/sg15_35_cif.got.tgz:69997.got - 2010.06.03 18:47:42.
