data_PCOD9291859
_publ_section_title
;
Structure prediction by ZEFSAII (Michael W. Deem and Ramdas Pophale) SiO2 
 PCOD9291859
Probable space group: C 2/C
;
_chemical_formula_sum "Si O2"
_cell_formula_units_Z 28
_cell_length_a 21.494431
_cell_length_b 5.210204
_cell_length_c 9.189355
_cell_angle_alpha 90.000000
_cell_angle_beta 87.477089
_cell_angle_gamma 90.000000
_cell_volume 1028.121744
_symmetry_space_group_name_H-M "C 2/C"
_symmetry_group_IT_number 15
_symmetry_cell_setting 'monoclinic'
loop_
_space_group_symop_operation_xyz
x,y,z
-x,y,1/2-z
-x,-y,-z
x,-y,1/2+z
1/2+x,1/2+y,z
1/2-x,1/2+y,1/2-z
1/2-x,1/2-y,-z
1/2+x,1/2-y,1/2+z
loop_
_atom_site_type_symbol
_atom_site_label
_atom_site_fract_x
_atom_site_fract_y
_atom_site_fract_z
Si Si1 0.581158 0.216868 0.478087
Si Si2 0.000000 0.419949 0.250000
Si Si3 0.189768 0.526055 0.128857
Si Si4 0.674315 0.528135 0.327552
O O1 0.542248 0.097522 0.350034
O O2 0.639596 0.031838 0.510459
O O3 0.612311 0.481582 0.425635
O O4 0.540648 0.237339 0.628926
O O5 0.262885 0.515043 0.082134
O O6 0.177219 0.787892 0.216153
O O7 0.179164 0.285829 0.236877
#
# Coordination Sequence:
#
# PCOD9291859 Si02
#       4
#     8   4   8   8
#     4  11  21  46  71 103 143 188 242 287 349 418
#     4  10  24  42  78  98 146 194 238 288 346 418
#     4  10  22  42  73 107 141 181 230 295 356 415
#     4  10  22  42  73 107 141 181 230 295 356 415
#
# _framework density 27.234128999999999
#
# number of rings (size 3 to 8) (size 9 to 14) (size 15 to 20)
#    0.000    1.714    2.857    0.857    0.000    2.286 
#    0.000   12.857    0.000    0.000    0.000    0.000 
#    0.000    0.000    0.000    0.000    0.000    0.000 
#
# Total GULP energy -78662.254151 kJ/mol
# GULP energy per Si atom -5618.732439 kJ/mol
# Density = 2.717214 g / cm^3
# Si number density = 27.234129 Si / 1000 Ang^3
#
#
#
# Elastic Constant Matrix: (Units=GPa)
#
#
# Indices 1 2 3 4 5 6 
#
# 1 170.0998 21.4920 97.5980 0.0000 4.9456 0.0000
# 2 21.4920 157.4466 67.3244 0.0000 -5.0655 0.0000
# 3 97.5980 67.3244 190.0385 0.0000 -7.6360 0.0000
# 4 0.0000 0.0000 0.0000 41.3397 0.0000 4.3372
# 5 4.9456 -5.0655 -7.6360 0.0000 77.9754 0.0000
# 6 0.0000 0.0000 0.0000 4.3372 0.0000 22.8340
#
#
#
# Elastic Compliance Matrix: (Units=1/GPa)
#
#
# Indices 1 2 3 4 5 6 
#
# 1 0.008494 0.000815 -0.004689 0.000000 -0.000945 0.000000
# 2 0.000815 0.007568 -0.003094 0.000000 0.000137 0.000000
# 3 -0.004689 -0.003094 0.008805 0.000000 0.000959 0.000000
# 4 0.000000 0.000000 0.000000 0.024682 0.000000 -0.004688
# 5 -0.000945 0.000137 0.000959 0.000000 0.012987 0.000000
# 6 0.000000 0.000000 0.000000 -0.004688 0.000000 0.044685
#
#
# Mechanical properties :
#
#
# Convention : Reuss Voigt Hill
#
# Bulk Modulus (GPa) = 91.48736 98.93487 95.21112
# Shear Modulus (GPa) = 40.06452 50.50786 45.28619
#
# Velocity S-wave (km/s) = 3.83967 4.31115 4.08223
# Velocity P-wave (km/s) = 7.30228 7.82226 7.56674
#
# Compressibility (1/GPa) = 0.01093047
#
# Stress axis : x y z
#
# Youngs Moduli (GPa) = 117.73431 132.14375 113.57461
#
# Poissons Ratio (x) = -0.10772 0.53253
# Poissons Ratio (y) = -0.09597 0.35141
# Poissons Ratio (z) = 0.55204 0.40886
#
# Static dielectric constant tensor:
#      x y z
#    x 2.159750 0.000000 0.005670 
#    y 0.000000 2.097530 0.000000 
#    z 0.005670 0.000000 2.117750 
# 
# From -- ./inp_files/67927.got.cif
#   From: 2010.05.17/outbox.cif.g08.bks.cpg/sg15_34_cif.got.tgz:67927.got - 2010.06.03 18:47:42.
