data_PCOD9291403
_publ_section_title
;
Structure prediction by ZEFSAII (Michael W. Deem and Ramdas Pophale) SiO2 
 PCOD9291403
Probable space group: C 2/C
;
_chemical_formula_sum "Si O2"
_cell_formula_units_Z 44
_cell_length_a 10.271552
_cell_length_b 12.680789
_cell_length_c 15.579586
_cell_angle_alpha 90.000000
_cell_angle_beta 60.396093
_cell_angle_gamma 90.000000
_cell_volume 1764.365216
_symmetry_space_group_name_H-M "C 2/C"
_symmetry_group_IT_number 15
_symmetry_cell_setting 'monoclinic'
loop_
_space_group_symop_operation_xyz
x,y,z
-x,y,1/2-z
-x,-y,-z
x,-y,1/2+z
1/2+x,1/2+y,z
1/2-x,1/2+y,1/2-z
1/2-x,1/2-y,-z
1/2+x,1/2-y,1/2+z
loop_
_atom_site_type_symbol
_atom_site_label
_atom_site_fract_x
_atom_site_fract_y
_atom_site_fract_z
Si Si1 0.000000 0.637652 0.250000
Si Si2 0.293777 0.310448 0.573501
Si Si3 0.347461 0.939005 0.640757
Si Si4 0.626563 0.286998 0.444940
Si Si5 0.933273 0.047320 0.685053
Si Si6 0.724642 0.471341 0.512050
O O1 0.156371 0.699366 0.184381
O O2 0.021506 0.571186 0.331433
O O3 0.250000 0.250000 0.500000
O O4 0.461455 0.272853 0.542144
O O5 0.296440 0.434846 0.548951
O O6 0.320381 0.821482 0.613544
O O7 0.339048 0.000179 0.551717
O O8 0.214573 0.986432 0.740509
O O9 0.591528 0.364096 0.376687
O O10 0.742210 0.357323 0.462592
O O11 0.000000 0.094809 0.750000
O O12 0.061722 0.968757 0.610188
#
# Coordination Sequence:
#
# PCOD9291403 Si02
#       6
#     4   8   8   8   8   8
#     4  12  24  40  64  96 132 168 224 260 336 380
#     4  11  23  44  68  99 133 175 218 270 323 397
#     4  11  23  38  67  97 131 168 221 273 322 395
#     4  11  21  41  68  93 129 176 215 274 327 386
#     4   9  20  39  65  95 124 170 224 263 321 398
#     4  10  22  42  67  92 133 170 218 269 337 390
#
# _framework density 24.938144999999999
#
# number of rings (size 3 to 8) (size 9 to 14) (size 15 to 20)
#    0.000    1.455    1.818    4.909    1.273    2.182 
#    0.000    0.000   28.000    0.000    0.000    0.000 
#    0.000    0.000    0.000    0.000    0.000    0.000 
#
# Total GULP energy -122932.120118 kJ/mol
# GULP energy per Si atom -5587.823642 kJ/mol
# Density = 2.488138 g / cm^3
# Si number density = 24.938145 Si / 1000 Ang^3
#
#
#
# Elastic Constant Matrix: (Units=GPa)
#
#
# Indices 1 2 3 4 5 6 
#
# 1 96.8910 -13.4324 27.4424 0.0000 2.6029 0.0000
# 2 -13.4324 76.4993 0.5046 0.0000 -6.9387 0.0000
# 3 27.4424 0.5046 96.6905 0.0000 -4.1934 0.0000
# 4 0.0000 0.0000 0.0000 38.1094 0.0000 8.9332
# 5 2.6029 -6.9387 -4.1934 0.0000 64.6155 0.0000
# 6 0.0000 0.0000 0.0000 8.9332 0.0000 25.4693
#
#
#
# Elastic Compliance Matrix: (Units=1/GPa)
#
#
# Indices 1 2 3 4 5 6 
#
# 1 0.011549 0.002008 -0.003308 0.000000 -0.000464 0.000000
# 2 0.002008 0.013550 -0.000583 0.000000 0.001336 0.000000
# 3 -0.003308 -0.000583 0.011319 0.000000 0.000805 0.000000
# 4 0.000000 0.000000 0.000000 0.028591 0.000000 -0.010028
# 5 -0.000464 0.001336 0.000805 0.000000 0.015691 0.000000
# 6 0.000000 0.000000 0.000000 -0.010028 0.000000 0.042780
#
#
# Mechanical properties :
#
#
# Convention : Reuss Voigt Hill
#
# Bulk Modulus (GPa) = 30.62710 33.23441 31.93076
# Shear Modulus (GPa) = 36.19795 42.67660 39.43727
#
# Velocity S-wave (km/s) = 3.81400 4.14127 3.98100
# Velocity P-wave (km/s) = 5.63057 6.01851 5.82777
#
# Compressibility (1/GPa) = 0.03265082
#
# Stress axis : x y z
#
# Youngs Moduli (GPa) = 86.58997 73.80309 88.34550
#
# Poissons Ratio (x) = -0.14816 0.29228
# Poissons Ratio (y) = -0.17383 0.05146
# Poissons Ratio (z) = 0.28647 0.04299
#
# Static dielectric constant tensor:
#      x y z
#    x 2.082750 0.000000 0.017610 
#    y 0.000000 1.995290 0.000000 
#    z 0.017610 0.000000 1.984730 
# 
# From -- ./inp_files/143338.got.cif
#   From: 2010.05.17/outbox.cif.g08.bks.cpg/sg15_72_cif.got.tgz:143338.got - 2010.06.03 18:47:42.
