data_PCOD9291919
_publ_section_title
;
Structure prediction by ZEFSAII (Michael W. Deem and Ramdas Pophale) SiO2 
 PCOD9291919
Probable space group: C 2/C
;
_chemical_formula_sum "Si O2"
_cell_formula_units_Z 60
_cell_length_a 22.513170
_cell_length_b 15.778056
_cell_length_c 21.134759
_cell_angle_alpha 90.000000
_cell_angle_beta 21.999656
_cell_angle_gamma 90.000000
_cell_volume 2812.266070
_symmetry_space_group_name_H-M "C 2/C"
_symmetry_group_IT_number 15
_symmetry_cell_setting 'monoclinic'
loop_
_space_group_symop_operation_xyz
x,y,z
-x,y,1/2-z
-x,-y,-z
x,-y,1/2+z
1/2+x,1/2+y,z
1/2-x,1/2+y,1/2-z
1/2-x,1/2-y,-z
1/2+x,1/2-y,1/2+z
loop_
_atom_site_type_symbol
_atom_site_label
_atom_site_fract_x
_atom_site_fract_y
_atom_site_fract_z
Si Si1 0.921380 0.746681 0.157490
Si Si2 0.000000 0.875630 0.750000
Si Si3 0.563217 0.844037 0.050397
Si Si4 0.830463 0.657813 0.667755
Si Si5 0.752568 0.692732 0.911834
Si Si6 0.451299 0.454871 0.922512
Si Si7 0.676835 0.623209 0.425662
Si Si8 0.738718 0.465623 0.730996
O O1 0.819981 0.783391 0.198564
O O2 0.805938 0.693088 0.315964
O O3 0.009410 0.829229 0.096276
O O4 0.054851 0.681129 0.003965
O O5 0.149827 0.822348 0.577255
O O6 0.043423 0.932589 0.767302
O O7 0.437711 0.813578 0.120707
O O8 0.434142 0.838053 0.235031
O O9 0.708314 0.784098 0.927422
O O10 0.638658 0.925986 0.941403
O O11 0.792033 0.558115 0.702316
O O12 0.659026 0.626579 0.957808
O O13 0.337969 0.534954 0.024138
O O14 0.570727 0.471633 0.861240
O O15 0.717408 0.595961 0.312683
#
# Coordination Sequence:
#
# PCOD9291919 Si02
#       8
#     8   4   8   8   8   8   8   8
#     4  10  23  33  55  84 125 161 195 246 304 376
#     4   8  24  44  68  86 116 162 232 258 312 356
#     4  12  23  36  59  89 131 162 208 251 304 373
#     4  11  22  36  52  91 127 168 201 240 308 378
#     4  10  24  40  62  87 117 171 213 256 309 353
#     4  10  22  43  62  86 117 166 209 264 308 369
#     4  11  22  38  59  89 128 163 197 254 319 381
#     4  12  24  36  59  95 129 169 204 250 313 395
#
# _framework density 21.335108000000002
#
# number of rings (size 3 to 8) (size 9 to 14) (size 15 to 20)
#    0.800    0.533    2.667    3.200    9.333    0.533 
#    0.000    0.000    0.000    0.800    0.000    0.000 
#    0.000    0.000    0.000    0.000    0.000    0.000 
#
# Total GULP energy -167242.916306 kJ/mol
# GULP energy per Si atom -5574.763877 kJ/mol
# Density = 2.128655 g / cm^3
# Si number density = 21.335108 Si / 1000 Ang^3
#
#
#
# Elastic Constant Matrix: (Units=GPa)
#
#
# Indices 1 2 3 4 5 6 
#
# 1 38.6902 18.7527 9.1993 0.0000 2.6338 0.0001
# 2 18.7527 113.1628 38.3436 0.0132 4.8666 -0.0051
# 3 9.1993 38.3436 105.3125 0.0180 3.7571 -0.0054
# 4 0.0000 0.0132 0.0180 44.9587 -0.0035 0.7173
# 5 2.6338 4.8666 3.7571 -0.0035 27.6231 0.0006
# 6 0.0001 -0.0051 -0.0054 0.7173 0.0006 16.9819
#
#
#
# Elastic Compliance Matrix: (Units=1/GPa)
#
#
# Indices 1 2 3 4 5 6 
#
# 1 0.028263 -0.004324 -0.000830 0.000002 -0.001820 -0.000002
# 2 -0.004324 0.010788 -0.003514 -0.000002 -0.001010 0.000002
# 3 -0.000830 -0.003514 0.010875 -0.000003 -0.000781 0.000003
# 4 0.000002 -0.000002 -0.000003 0.022258 0.000004 -0.000940
# 5 -0.001820 -0.001010 -0.000781 0.000004 0.036659 -0.000002
# 6 -0.000002 0.000002 0.000003 -0.000940 -0.000002 0.058926
#
#
# Mechanical properties :
#
#
# Convention : Reuss Voigt Hill
#
# Bulk Modulus (GPa) = 30.68349 43.30631 36.99490
# Shear Modulus (GPa) = 25.51433 30.63739 28.07586
#
# Velocity S-wave (km/s) = 3.46191 3.79358 3.63153
# Velocity P-wave (km/s) = 5.51295 6.28733 5.91283
#
# Compressibility (1/GPa) = 0.03259082
#
# Stress axis : x y z
#
# Youngs Moduli (GPa) = 35.38138 92.69984 91.95194
#
# Poissons Ratio (x) = 0.40086 0.07627
# Poissons Ratio (y) = 0.15300 0.32311
# Poissons Ratio (z) = 0.02935 0.32574
#
# Static dielectric constant tensor:
#      x y z
#    x 1.810810 0.000000 0.046760 
#    y 0.000000 1.777100 0.000000 
#    z 0.046760 0.000000 1.921890 
# 
# From -- ./inp_files/283647.got.cif
#   From: 2010.05.17/outbox.cif.g08.bks.cpg/sg15_142_cif.got.tgz:283647.got - 2010.06.03 18:47:42.
