data_PCOD9291375
_publ_section_title
;
Structure prediction by ZEFSAII (Michael W. Deem and Ramdas Pophale) SiO2 
 PCOD9291375
Probable space group: C 2/C
;
_chemical_formula_sum "Si O2"
_cell_formula_units_Z 32
_cell_length_a 18.194019
_cell_length_b 4.884106
_cell_length_c 17.183723
_cell_angle_alpha 90.000000
_cell_angle_beta 126.438811
_cell_angle_gamma 90.000000
_cell_volume 1228.435971
_symmetry_space_group_name_H-M "C 2/C"
_symmetry_group_IT_number 15
_symmetry_cell_setting 'monoclinic'
loop_
_space_group_symop_operation_xyz
x,y,z
-x,y,1/2-z
-x,-y,-z
x,-y,1/2+z
1/2+x,1/2+y,z
1/2-x,1/2+y,1/2-z
1/2-x,1/2-y,-z
1/2+x,1/2-y,1/2+z
loop_
_atom_site_type_symbol
_atom_site_label
_atom_site_fract_x
_atom_site_fract_y
_atom_site_fract_z
Si Si1 0.055655 0.688486 0.095654
Si Si2 0.208883 0.304597 0.575620
Si Si3 0.379112 0.323599 0.056664
Si Si4 0.595900 0.086135 0.783614
O O1 0.145721 0.789348 0.108820
O O2 0.083776 0.522592 0.189434
O O3 0.977961 0.888346 0.080951
O O4 0.000000 0.500000 0.000000
O O5 0.176009 0.606068 0.531434
O O6 0.314095 0.269378 0.661554
O O7 0.177655 0.099512 0.487106
O O8 0.390897 0.163542 0.145616
O O9 0.500000 0.221946 0.750000
#
# Coordination Sequence:
#
# PCOD9291375 Si02
#       4
#     8   8   8   8
#     4   9  21  41  65  96 134 172 217 271 328 389
#     4  11  22  42  67  96 130 172 217 271 329 390
#     4  10  22  43  67  96 130 170 218 273 328 389
#     4  10  22  42  67 100 135 176 222 271 329 394
#
# _framework density 26.049384
#
# number of rings (size 3 to 8) (size 9 to 14) (size 15 to 20)
#    0.000    2.000    0.000    2.250    0.000    4.000 
#    0.000   42.500    0.000    0.000    0.000    0.000 
#    0.000    0.000    0.000    0.000    0.000    0.000 
#
# Total GULP energy -89696.826862 kJ/mol
# GULP energy per Si atom -5606.051679 kJ/mol
# Density = 2.599009 g / cm^3
# Si number density = 26.049384 Si / 1000 Ang^3
#
#
#
# Elastic Constant Matrix: (Units=GPa)
#
#
# Indices 1 2 3 4 5 6 
#
# 1 214.7925 43.3186 90.8442 0.0000 34.7805 0.0000
# 2 43.3186 98.4311 17.6003 -0.0005 14.7135 0.0011
# 3 90.8442 17.6003 141.0516 0.0000 4.3464 0.0002
# 4 0.0000 -0.0005 0.0000 25.2654 -0.0001 7.5309
# 5 34.7805 14.7135 4.3464 -0.0001 57.7139 0.0000
# 6 0.0000 0.0011 0.0002 7.5309 0.0000 39.7149
#
#
#
# Elastic Compliance Matrix: (Units=1/GPa)
#
#
# Indices 1 2 3 4 5 6 
#
# 1 0.007561 -0.001966 -0.004510 0.000000 -0.003716 0.000000
# 2 -0.001966 0.011293 -0.000091 0.000000 -0.001688 0.000000
# 3 -0.004510 -0.000091 0.009944 0.000000 0.001992 0.000000
# 4 0.000000 0.000000 0.000000 0.041951 0.000000 -0.007955
# 5 -0.003716 -0.001688 0.001992 0.000000 0.019846 0.000000
# 6 0.000000 0.000000 0.000000 -0.007955 0.000000 0.026688
#
#
# Mechanical properties :
#
#
# Convention : Reuss Voigt Hill
#
# Bulk Modulus (GPa) = 63.83737 84.20014 74.01876
# Shear Modulus (GPa) = 36.86249 44.70630 40.78439
#
# Velocity S-wave (km/s) = 3.76586 4.14721 3.96113
# Velocity P-wave (km/s) = 6.59306 7.43814 7.02831
#
# Compressibility (1/GPa) = 0.01566481
#
# Stress axis : x y z
#
# Youngs Moduli (GPa) = 132.25278 88.55005 100.56037
#
# Poissons Ratio (x) = 0.17407 0.45353
# Poissons Ratio (y) = 0.25998 0.00916
# Poissons Ratio (z) = 0.59647 0.00807
#
# Static dielectric constant tensor:
#      x y z
#    x 2.133320 0.000000 -0.011350 
#    y 0.000000 2.146780 0.000000 
#    z -0.011350 0.000000 2.024560 
# 
# From -- ./inp_files/212771.got.cif
#   From: 2010.05.17/outbox.cif.g08.bks.cpg/sg15_107_cif.got.tgz:212771.got - 2010.06.03 18:47:42.
