data_PCOD9291886
_publ_section_title
;
Structure prediction by ZEFSAII (Michael W. Deem and Ramdas Pophale) SiO2 
 PCOD9291886
Probable space group: C 2/C
;
_chemical_formula_sum "Si O2"
_cell_formula_units_Z 44
_cell_length_a 8.980501
_cell_length_b 17.398534
_cell_length_c 18.275774
_cell_angle_alpha 90.000000
_cell_angle_beta 134.192334
_cell_angle_gamma 90.000000
_cell_volume 2047.436807
_symmetry_space_group_name_H-M "C 2/C"
_symmetry_group_IT_number 15
_symmetry_cell_setting 'monoclinic'
loop_
_space_group_symop_operation_xyz
x,y,z
-x,y,1/2-z
-x,-y,-z
x,-y,1/2+z
1/2+x,1/2+y,z
1/2-x,1/2+y,1/2-z
1/2-x,1/2-y,-z
1/2+x,1/2-y,1/2+z
loop_
_atom_site_type_symbol
_atom_site_label
_atom_site_fract_x
_atom_site_fract_y
_atom_site_fract_z
Si Si1 0.784340 0.854697 0.636981
Si Si2 0.525879 0.161168 0.920023
Si Si3 0.500000 0.892567 0.250000
Si Si4 0.944406 0.235123 0.515649
Si Si5 0.789759 0.032367 0.635912
Si Si6 0.459306 0.559737 0.922390
O O1 0.750698 0.844760 0.537287
O O2 0.621318 0.791790 0.608179
O O3 0.000000 0.840093 0.750000
O O4 0.735806 0.944175 0.635460
O O5 0.525791 0.157016 0.833119
O O6 0.394436 0.088276 0.904213
O O7 0.419800 0.233433 0.924274
O O8 0.285293 0.941021 0.184936
O O9 0.750000 0.250000 0.500000
O O10 0.003358 0.146968 0.540200
O O11 0.000000 0.054893 0.750000
O O12 0.869339 0.040766 0.580497
O O13 0.500000 0.500000 0.000000
#
# Coordination Sequence:
#
# PCOD9291886 Si02
#       6
#     8   8   4   8   8   8
#     4   9  21  39  74 114 145 188 248 308 370 435
#     4  10  22  42  75 105 145 193 248 294 379 428
#     4  12  26  44  74 106 150 200 242 310 364 460
#     4  10  23  45  76 106 146 192 251 313 363 442
#     4  11  20  43  73 104 144 200 245 304 365 441
#     4  12  26  45  73 107 150 192 252 302 378 441
#
# _framework density 21.490285
#
# number of rings (size 3 to 8) (size 9 to 14) (size 15 to 20)
#    1.091    0.364    3.636    1.636    1.273    2.182 
#    0.000    0.000    2.000    0.000    0.000    0.000 
#    0.000    0.000    0.000    0.000    0.000    0.000 
#
# Total GULP energy -122777.138224 kJ/mol
# GULP energy per Si atom -5580.779010 kJ/mol
# Density = 2.144137 g / cm^3
# Si number density = 21.490285 Si / 1000 Ang^3
#
#
#
# Elastic Constant Matrix: (Units=GPa)
#
#
# Indices 1 2 3 4 5 6 
#
# 1 134.0626 75.0140 63.6667 0.0000 -10.9742 0.0000
# 2 75.0140 149.6040 44.4325 0.0000 20.3171 0.0000
# 3 63.6667 44.4325 151.7001 0.0000 -2.3110 0.0000
# 4 0.0000 0.0000 0.0000 17.1260 0.0000 9.8906
# 5 -10.9742 20.3171 -2.3110 0.0000 33.7686 0.0000
# 6 0.0000 0.0000 0.0000 9.8906 0.0000 16.0039
#
#
#
# Elastic Compliance Matrix: (Units=1/GPa)
#
#
# Indices 1 2 3 4 5 6 
#
# 1 0.013763 -0.006974 -0.003605 0.000000 0.008422 0.000000
# 2 -0.006974 0.011629 -0.000621 0.000000 -0.009306 0.000000
# 3 -0.003605 -0.000621 0.008283 0.000000 -0.000231 0.000000
# 4 0.000000 0.000000 0.000000 0.090798 0.000000 -0.056114
# 5 0.008422 -0.009306 -0.000231 0.000000 0.037934 0.000000
# 6 0.000000 0.000000 0.000000 -0.056114 0.000000 0.097164
#
#
# Mechanical properties :
#
#
# Convention : Reuss Voigt Hill
#
# Bulk Modulus (GPa) = 88.68968 89.06589 88.87778
# Shear Modulus (GPa) = 17.49902 30.19660 23.84781
#
# Velocity S-wave (km/s) = 2.85665 3.75257 3.33483
# Velocity P-wave (km/s) = 7.22771 7.76598 7.50167
#
# Compressibility (1/GPa) = 0.01127527
#
# Stress axis : x y z
#
# Youngs Moduli (GPa) = 72.65858 85.98848 120.72323
#
# Poissons Ratio (x) = 0.59968 0.43523
# Poissons Ratio (y) = 0.50672 0.07498
# Poissons Ratio (z) = 0.26195 0.05341
#
# Static dielectric constant tensor:
#      x y z
#    x 1.823140 0.000000 0.005070 
#    y 0.000000 1.767440 0.000000 
#    z 0.005070 0.000000 1.862750 
# 
# From -- ./inp_files/191196.got.cif
#   From: 2010.05.17/outbox.cif.g08.bks.cpg/sg15_96_cif.got.tgz:191196.got - 2010.06.03 18:47:42.
