data_PCOD9291867
_publ_section_title
;
Structure prediction by ZEFSAII (Michael W. Deem and Ramdas Pophale) SiO2 
 PCOD9291867
Probable space group: C 2/C
;
_chemical_formula_sum "Si O2"
_cell_formula_units_Z 48
_cell_length_a 22.368919
_cell_length_b 9.029873
_cell_length_c 10.263392
_cell_angle_alpha 90.000000
_cell_angle_beta 103.134847
_cell_angle_gamma 90.000000
_cell_volume 2018.850900
_symmetry_space_group_name_H-M "C 2/C"
_symmetry_group_IT_number 15
_symmetry_cell_setting 'monoclinic'
loop_
_space_group_symop_operation_xyz
x,y,z
-x,y,1/2-z
-x,-y,-z
x,-y,1/2+z
1/2+x,1/2+y,z
1/2-x,1/2+y,1/2-z
1/2-x,1/2-y,-z
1/2+x,1/2-y,1/2+z
loop_
_atom_site_type_symbol
_atom_site_label
_atom_site_fract_x
_atom_site_fract_y
_atom_site_fract_z
Si Si1 0.268361 0.784520 0.155796
Si Si2 0.250000 0.250000 0.000000
Si Si3 0.500000 0.292967 0.750000
Si Si4 0.944725 0.930135 0.143632
Si Si5 0.389670 0.848829 0.534477
Si Si6 0.314800 0.467942 0.204039
Si Si7 0.603365 0.943381 0.234081
O O1 0.290015 0.629058 0.229987
O O2 0.210675 0.848695 0.205769
O O3 0.327089 0.890893 0.199179
O O4 0.250000 0.750000 0.000000
O O5 0.317698 0.180717 0.007294
O O6 0.217850 0.089286 0.943296
O O7 0.526180 0.408849 0.872005
O O8 0.443701 0.187687 0.756700
O O9 0.886709 0.963247 0.209858
O O10 0.000000 0.856201 0.250000
O O11 0.921068 0.810991 0.029134
O O12 0.401653 0.962203 0.423299
O O13 0.409929 0.917788 0.681479
#
# Coordination Sequence:
#
# PCOD9291867 Si02
#       7
#     8   4   4   8   8   8   8
#     4  12  27  43  71 109 143 190 247 301 381 447
#     4  10  22  42  74 100 146 184 242 296 378 444
#     4  10  24  52  72 110 150 192 262 300 378 448
#     4   9  22  48  70 106 146 197 242 307 372 446
#     4  11  26  47  77 107 153 198 253 306 387 441
#     4  11  24  44  71 103 146 186 237 311 365 447
#     4  12  27  49  74 112 149 200 248 317 368 460
#
# _framework density 23.775901000000001
#
# number of rings (size 3 to 8) (size 9 to 14) (size 15 to 20)
#    0.500    0.667    3.333    1.000    8.167    1.333 
#    3.000    0.000    0.000    0.000    0.000    0.000 
#    0.000    0.000    0.000    0.000    0.000    0.000 
#
# Total GULP energy -133635.282435 kJ/mol
# GULP energy per Si atom -5568.136768 kJ/mol
# Density = 2.372179 g / cm^3
# Si number density = 23.775901 Si / 1000 Ang^3
#
#
#
# Elastic Constant Matrix: (Units=GPa)
#
#
# Indices 1 2 3 4 5 6 
#
# 1 122.8960 30.3871 27.4608 0.0000 14.3928 0.0000
# 2 30.3871 91.2139 16.7942 0.0000 -16.8304 0.0000
# 3 27.4608 16.7942 58.4209 0.0000 -15.7078 0.0000
# 4 0.0000 0.0000 0.0000 29.0622 0.0000 0.5839
# 5 14.3928 -16.8304 -15.7078 0.0000 24.7492 0.0000
# 6 0.0000 0.0000 0.0000 0.5839 0.0000 28.3588
#
#
#
# Elastic Compliance Matrix: (Units=1/GPa)
#
#
# Indices 1 2 3 4 5 6 
#
# 1 0.014108 -0.006350 -0.009855 0.000000 -0.018778 0.000000
# 2 -0.006350 0.015517 0.002839 0.000000 0.016047 0.000000
# 3 -0.009855 0.002839 0.027725 0.000000 0.025258 0.000000
# 4 0.000000 0.000000 0.000000 0.034423 0.000000 -0.000709
# 5 -0.018778 0.016047 0.025258 0.000000 0.078269 0.000000
# 6 0.000000 0.000000 0.000000 -0.000709 0.000000 0.035277
#
#
# Mechanical properties :
#
#
# Convention : Reuss Voigt Hill
#
# Bulk Modulus (GPa) = 32.66139 46.86831 39.76485
# Shear Modulus (GPa) = 20.63914 29.62662 25.13288
#
# Velocity S-wave (km/s) = 2.94950 3.53381 3.25479
# Velocity P-wave (km/s) = 5.03651 6.03372 5.55752
#
# Compressibility (1/GPa) = 0.03061719
#
# Stress axis : x y z
#
# Youngs Moduli (GPa) = 70.87969 64.44518 36.06899
#
# Poissons Ratio (x) = 0.40926 0.35546
# Poissons Ratio (y) = 0.45012 -0.10240
# Poissons Ratio (z) = 0.69852 -0.18296
#
# Static dielectric constant tensor:
#      x y z
#    x 1.841960 0.000000 -0.025070 
#    y 0.000000 1.897910 0.000000 
#    z -0.025070 0.000000 2.053630 
# 
# From -- ./inp_files/116490.got.cif
#   From: 2010.05.17/outbox.cif.g08.bks.cpg/sg15_59_cif.got.tgz:116490.got - 2010.06.03 18:47:42.
