data_PCOD9291460
_publ_section_title
;
Structure prediction by ZEFSAII (Michael W. Deem and Ramdas Pophale) SiO2 
 PCOD9291460
Probable space group: C 2/C
;
_chemical_formula_sum "Si O2"
_cell_formula_units_Z 40
_cell_length_a 12.155018
_cell_length_b 11.113586
_cell_length_c 13.255778
_cell_angle_alpha 90.000000
_cell_angle_beta 64.940779
_cell_angle_gamma 90.000000
_cell_volume 1622.113177
_symmetry_space_group_name_H-M "C 2/C"
_symmetry_group_IT_number 15
_symmetry_cell_setting 'monoclinic'
loop_
_space_group_symop_operation_xyz
x,y,z
-x,y,1/2-z
-x,-y,-z
x,-y,1/2+z
1/2+x,1/2+y,z
1/2-x,1/2+y,1/2-z
1/2-x,1/2-y,-z
1/2+x,1/2-y,1/2+z
loop_
_atom_site_type_symbol
_atom_site_label
_atom_site_fract_x
_atom_site_fract_y
_atom_site_fract_z
Si Si1 0.852534 0.776011 0.817179
Si Si2 0.726916 0.451178 0.471621
Si Si3 0.896428 0.405279 0.031192
Si Si4 0.053176 0.154513 0.569028
Si Si5 0.306090 0.318802 0.274856
O O1 0.818046 0.877126 0.911974
O O2 0.768274 0.789932 0.749301
O O3 0.000000 0.772123 0.750000
O O4 0.796280 0.649692 0.880017
O O5 0.826175 0.551581 0.459906
O O6 0.613394 0.538793 0.494828
O O7 0.944772 0.270359 0.003368
O O8 0.802597 0.410898 0.159680
O O9 0.000000 0.500000 0.000000
O O10 0.132727 0.192207 0.637837
O O11 0.916790 0.138928 0.662423
#
# Coordination Sequence:
#
# PCOD9291460 Si02
#       5
#     8   8   8   8   8
#     4  11  24  42  66  99 139 184 232 283 347 413
#     4  10  23  43  63  95 142 178 226 291 341 406
#     4  11  22  44  69  98 140 175 226 292 346 410
#     4  10  23  46  66 101 137 175 231 288 345 416
#     4  10  22  42  67  99 130 181 230 275 346 411
#
# _framework density 24.659192000000001
#
# number of rings (size 3 to 8) (size 9 to 14) (size 15 to 20)
#    0.000    1.600    0.000    4.800    5.600    2.400 
#   32.400    0.000    0.000    0.000    0.000    0.000 
#    0.000    0.000    0.000    0.000    0.000    0.000 
#
# Total GULP energy -111622.104664 kJ/mol
# GULP energy per Si atom -5581.105233 kJ/mol
# Density = 2.460307 g / cm^3
# Si number density = 24.659192 Si / 1000 Ang^3
#
#
#
# Elastic Constant Matrix: (Units=GPa)
#
#
# Indices 1 2 3 4 5 6 
#
# 1 107.1040 7.9485 42.0370 0.0000 -31.3421 0.0000
# 2 7.9485 141.9373 65.9737 0.0000 -9.4345 0.0000
# 3 42.0370 65.9737 141.1848 0.0000 -33.9558 0.0000
# 4 0.0000 0.0000 0.0000 31.3805 0.0000 1.4660
# 5 -31.3421 -9.4345 -33.9558 0.0000 39.0113 0.0000
# 6 0.0000 0.0000 0.0000 1.4660 0.0000 32.3932
#
#
#
# Elastic Compliance Matrix: (Units=1/GPa)
#
#
# Indices 1 2 3 4 5 6 
#
# 1 0.012580 0.000833 -0.002094 0.000000 0.008486 0.000000
# 2 0.000833 0.009165 -0.004853 0.000000 -0.001338 0.000000
# 3 -0.002094 -0.004853 0.011746 0.000000 0.007368 0.000000
# 4 0.000000 0.000000 0.000000 0.031934 0.000000 -0.001445
# 5 0.008486 -0.001338 0.007368 0.000000 0.038541 0.000000
# 6 0.000000 0.000000 0.000000 -0.001445 0.000000 0.030936
#
#
# Mechanical properties :
#
#
# Convention : Reuss Voigt Hill
#
# Bulk Modulus (GPa) = 47.02821 69.12717 58.07769
# Shear Modulus (GPa) = 32.42167 38.84145 35.63156
#
# Velocity S-wave (km/s) = 3.62994 3.97310 3.80539
# Velocity P-wave (km/s) = 6.05651 7.01008 6.55067
#
# Compressibility (1/GPa) = 0.02126383
#
# Stress axis : x y z
#
# Youngs Moduli (GPa) = 79.49160 109.10683 85.13547
#
# Poissons Ratio (x) = -0.09087 0.17827
# Poissons Ratio (y) = -0.06620 0.41313
# Poissons Ratio (z) = 0.16645 0.52946
#
# Static dielectric constant tensor:
#      x y z
#    x 2.397240 0.000000 0.050180 
#    y 0.000000 1.914740 0.000000 
#    z 0.050180 0.000000 1.968830 
# 
# From -- ./inp_files/197091.got.cif
#   From: 2010.05.17/outbox.cif.g08.bks.cpg/sg15_99_cif.got.tgz:197091.got - 2010.06.03 18:47:42.
