data_PCOD9291729
_publ_section_title
;
Structure prediction by ZEFSAII (Michael W. Deem and Ramdas Pophale) SiO2 
 PCOD9291729
Probable space group: C 2/C
;
_chemical_formula_sum "Si O2"
_cell_formula_units_Z 36
_cell_length_a 24.930160
_cell_length_b 4.934605
_cell_length_c 25.667571
_cell_angle_alpha 90.000000
_cell_angle_beta 155.051884
_cell_angle_gamma 90.000000
_cell_volume 1331.883120
_symmetry_space_group_name_H-M "C 2/C"
_symmetry_group_IT_number 15
_symmetry_cell_setting 'monoclinic'
loop_
_space_group_symop_operation_xyz
x,y,z
-x,y,1/2-z
-x,-y,-z
x,-y,1/2+z
1/2+x,1/2+y,z
1/2-x,1/2+y,1/2-z
1/2-x,1/2-y,-z
1/2+x,1/2-y,1/2+z
loop_
_atom_site_type_symbol
_atom_site_label
_atom_site_fract_x
_atom_site_fract_y
_atom_site_fract_z
Si Si1 0.215727 0.094823 0.251092
Si Si2 0.000000 0.445292 0.750000
Si Si3 0.377139 0.268328 0.038636
Si Si4 0.273905 0.726840 0.082495
Si Si5 0.961473 0.396834 0.024255
O O1 0.262705 0.281676 0.243919
O O2 0.313935 0.175717 0.382545
O O3 0.070644 0.178303 0.132904
O O4 0.929742 0.271651 0.643523
O O5 0.911079 0.640197 0.707228
O O6 0.461572 0.127912 0.068566
O O7 0.336368 0.574082 0.993717
O O8 0.248737 0.082822 0.922901
O O9 0.250000 0.750000 0.000000
O O10 0.000000 0.500000 0.000000
#
# Coordination Sequence:
#
# PCOD9291729 Si02
#       5
#     8   4   8   8   8
#     4  10  22  42  70  96 141 192 240 292 351 420
#     4  10  22  44  68  92 134 170 226 286 360 410
#     4  11  25  41  68 103 133 180 231 288 351 425
#     4  10  23  43  68  97 133 173 228 285 353 421
#     4  10  24  46  69 104 145 191 238 291 355 428
#
# _framework density 27.029395999999998
#
# number of rings (size 3 to 8) (size 9 to 14) (size 15 to 20)
#    0.000    1.778    0.000    3.333    3.111   15.111 
#    8.000    0.000    0.000    0.000    0.000    0.000 
#    0.000    0.000    0.000    0.000    0.000    0.000 
#
# Total GULP energy -100711.031465 kJ/mol
# GULP energy per Si atom -5595.057304 kJ/mol
# Density = 2.696788 g / cm^3
# Si number density = 27.029396 Si / 1000 Ang^3
#
#
#
# Elastic Constant Matrix: (Units=GPa)
#
#
# Indices 1 2 3 4 5 6 
#
# 1 104.6018 6.2166 18.1355 0.0165 -20.6025 0.0158
# 2 6.2166 86.0553 20.4392 0.0379 -6.1941 0.0938
# 3 18.1355 20.4392 144.7412 0.0032 1.0514 0.0002
# 4 0.0165 0.0379 0.0032 18.2468 -0.0043 7.3025
# 5 -20.6025 -6.1941 1.0514 -0.0043 41.0156 -0.0019
# 6 0.0158 0.0938 0.0002 7.3025 -0.0019 46.6343
#
#
#
# Elastic Compliance Matrix: (Units=1/GPa)
#
#
# Indices 1 2 3 4 5 6 
#
# 1 0.010888 -0.000059 -0.001396 -0.000007 0.005496 -0.000002
# 2 -0.000059 0.012168 -0.001724 -0.000016 0.001852 -0.000022
# 3 -0.001396 -0.001724 0.007336 0.000002 -0.001150 0.000004
# 4 -0.000007 -0.000016 0.000002 0.058468 0.000000 -0.009156
# 5 0.005496 0.001852 -0.001150 0.000000 0.027451 -0.000004
# 6 -0.000002 -0.000022 0.000004 -0.009156 -0.000004 0.022877
#
#
# Mechanical properties :
#
#
# Convention : Reuss Voigt Hill
#
# Bulk Modulus (GPa) = 41.61045 47.22009 44.41527
# Shear Modulus (GPa) = 32.56117 40.55314 36.55716
#
# Velocity S-wave (km/s) = 3.47458 3.87762 3.68162
# Velocity P-wave (km/s) = 5.61470 6.12827 5.87710
#
# Compressibility (1/GPa) = 0.02403243
#
# Stress axis : x y z
#
# Youngs Moduli (GPa) = 91.84347 82.18566 136.32163
#
# Poissons Ratio (x) = 0.00489 0.19027
# Poissons Ratio (y) = 0.00546 0.23505
# Poissons Ratio (z) = 0.12819 0.14171
#
# Static dielectric constant tensor:
#      x y z
#    x 2.276880 -0.000010 0.149250 
#    y -0.000010 2.112770 0.000010 
#    z 0.149250 0.000010 2.190100 
# 
# From -- ./inp_files/302768.got.cif
#   From: 2010.05.17/outbox.cif.g08.bks.cpg/sg15_152_cif.got.tgz:302768.got - 2010.06.03 18:47:42.
