data_PCOD9291589
_publ_section_title
;
Structure prediction by ZEFSAII (Michael W. Deem and Ramdas Pophale) SiO2 
 PCOD9291589
Probable space group: C 2/C
;
_chemical_formula_sum "Si O2"
_cell_formula_units_Z 44
_cell_length_a 10.565063
_cell_length_b 27.499047
_cell_length_c 7.640388
_cell_angle_alpha 90.000000
_cell_angle_beta 75.873562
_cell_angle_gamma 90.000000
_cell_volume 2152.629022
_symmetry_space_group_name_H-M "C 2/C"
_symmetry_group_IT_number 15
_symmetry_cell_setting 'monoclinic'
loop_
_space_group_symop_operation_xyz
x,y,z
-x,y,1/2-z
-x,-y,-z
x,-y,1/2+z
1/2+x,1/2+y,z
1/2-x,1/2+y,1/2-z
1/2-x,1/2-y,-z
1/2+x,1/2-y,1/2+z
loop_
_atom_site_type_symbol
_atom_site_label
_atom_site_fract_x
_atom_site_fract_y
_atom_site_fract_z
Si Si1 0.000000 0.682598 0.250000
Si Si2 0.805497 0.932203 0.181091
Si Si3 0.775524 0.610206 0.448067
Si Si4 0.500154 0.657563 0.561917
Si Si5 0.153717 0.960057 0.710893
Si Si6 0.908869 0.746724 0.945846
O O1 0.111205 0.645480 0.148795
O O2 0.047957 0.715124 0.398853
O O3 0.709605 0.908800 0.357200
O O4 0.915051 0.890911 0.116330
O O5 0.853173 0.982419 0.251488
O O6 0.772761 0.947081 0.994265
O O7 0.645754 0.642414 0.475847
O O8 0.736861 0.565216 0.335845
O O9 0.500000 0.683127 0.750000
O O10 0.444810 0.696493 0.450626
O O11 0.000000 0.943800 0.750000
O O12 0.000000 0.728974 0.750000
O O13 0.750000 0.750000 0.000000
#
# Coordination Sequence:
#
# PCOD9291589 Si02
#       6
#     4   8   8   8   8   8
#     4  12  30  50  68  98 144 184 242 292 342 430
#     4  11  23  38  68 104 136 174 226 288 348 411
#     4  11  25  43  66  96 136 184 225 284 350 406
#     4  10  22  42  69 100 136 174 224 290 351 405
#     4  12  21  37  68 105 138 172 226 288 350 411
#     4  12  29  47  75 106 139 187 238 294 362 419
#
# _framework density 20.440121000000001
#
# number of rings (size 3 to 8) (size 9 to 14) (size 15 to 20)
#    0.000    0.727    4.545    3.273   10.182    1.455 
#    0.000    0.909    0.000    0.000    0.000    0.000 
#    0.000    0.000    0.000    0.000    0.000    0.000 
#
# Total GULP energy -122613.615291 kJ/mol
# GULP energy per Si atom -5573.346150 kJ/mol
# Density = 2.039360 g / cm^3
# Si number density = 20.440121 Si / 1000 Ang^3
#
#
#
# Elastic Constant Matrix: (Units=GPa)
#
#
# Indices 1 2 3 4 5 6 
#
# 1 52.9829 52.1246 64.3261 0.0000 -4.7593 0.0000
# 2 52.1246 122.0144 70.7227 0.0000 -11.9281 0.0000
# 3 64.3261 70.7227 180.1722 0.0000 0.4685 0.0000
# 4 0.0000 0.0000 0.0000 6.6246 0.0000 0.2842
# 5 -4.7593 -11.9281 0.4685 0.0000 21.9333 0.0000
# 6 0.0000 0.0000 0.0000 0.2842 0.0000 7.5255
#
#
#
# Elastic Compliance Matrix: (Units=1/GPa)
#
#
# Indices 1 2 3 4 5 6 
#
# 1 0.044949 -0.012399 -0.011190 0.000000 0.003249 0.000000
# 2 -0.012399 0.014840 -0.001413 0.000000 0.005410 0.000000
# 3 -0.011190 -0.001413 0.010109 0.000000 -0.003412 0.000000
# 4 0.000000 0.000000 0.000000 0.151197 0.000000 -0.005711
# 5 0.003249 0.005410 -0.003412 0.000000 0.049313 0.000000
# 6 0.000000 0.000000 0.000000 -0.005711 0.000000 0.133097
#
#
# Mechanical properties :
#
#
# Convention : Reuss Voigt Hill
#
# Bulk Modulus (GPa) = 50.26155 81.05738 65.65947
# Shear Modulus (GPa) = 10.86628 18.41642 14.64135
#
# Velocity S-wave (km/s) = 2.30818 3.00491 2.67929
# Velocity P-wave (km/s) = 5.63441 7.19593 6.46251
#
# Compressibility (1/GPa) = 0.01989592
#
# Stress axis : x y z
#
# Youngs Moduli (GPa) = 22.24743 67.38439 98.92629
#
# Poissons Ratio (x) = 0.83549 1.10694
# Poissons Ratio (y) = 0.27584 0.13974
# Poissons Ratio (z) = 0.24894 0.09519
#
# Static dielectric constant tensor:
#      x y z
#    x 1.677520 0.000000 0.047650 
#    y 0.000000 1.724570 0.000000 
#    z 0.047650 0.000000 1.795780 
# 
# From -- ./inp_files/32444.got.cif
#   From: 2010.05.17/outbox.cif.g08.bks.cpg/sg15_17_cif.got.tgz:32444.got - 2010.06.03 18:47:42.
