data_PCOD9291519
_publ_section_title
;
Structure prediction by ZEFSAII (Michael W. Deem and Ramdas Pophale) SiO2 
 PCOD9291519
Probable space group: C 2/C
;
_chemical_formula_sum "Si O2"
_cell_formula_units_Z 56
_cell_length_a 12.405695
_cell_length_b 17.708400
_cell_length_c 15.272234
_cell_angle_alpha 90.000000
_cell_angle_beta 120.533663
_cell_angle_gamma 90.000000
_cell_volume 2889.834548
_symmetry_space_group_name_H-M "C 2/C"
_symmetry_group_IT_number 15
_symmetry_cell_setting 'monoclinic'
loop_
_space_group_symop_operation_xyz
x,y,z
-x,y,1/2-z
-x,-y,-z
x,-y,1/2+z
1/2+x,1/2+y,z
1/2-x,1/2+y,1/2-z
1/2-x,1/2-y,-z
1/2+x,1/2-y,1/2+z
loop_
_atom_site_type_symbol
_atom_site_label
_atom_site_fract_x
_atom_site_fract_y
_atom_site_fract_z
Si Si1 0.066260 0.693712 0.182370
Si Si2 0.500000 0.579207 0.250000
Si Si3 0.442933 0.954017 0.557363
Si Si4 0.994831 0.850927 0.070384
Si Si5 0.672306 0.556306 0.871229
Si Si6 0.672135 0.621334 0.166337
Si Si7 0.731321 0.557585 0.692624
Si Si8 0.500000 0.946922 0.250000
O O1 0.209097 0.672020 0.261143
O O2 0.000000 0.697622 0.250000
O O3 0.005509 0.626620 0.100026
O O4 0.046281 0.770210 0.120699
O O5 0.399940 0.523296 0.162762
O O6 0.574250 0.623026 0.206091
O O7 0.296086 0.946722 0.480208
O O8 0.500000 0.000000 0.500000
O O9 0.471978 0.001611 0.655121
O O10 0.922424 0.885434 0.124077
O O11 0.112572 0.904676 0.097125
O O12 0.898127 0.852463 0.950198
O O13 0.712648 0.573820 0.788397
O O14 0.719925 0.533692 0.177226
O O15 0.865103 0.589507 0.716180
#
# Coordination Sequence:
#
# PCOD9291519 Si02
#       8
#     8   4   8   8   8   8   8   4
#     4  12  25  45  65  97 142 169 214 280 346 396
#     4  10  22  42  68  94 128 172 224 284 322 394
#     4  12  23  41  68  99 132 179 221 269 335 397
#     4  12  25  40  69 102 129 174 224 279 340 397
#     4  11  20  38  65 100 129 168 224 276 334 383
#     4  11  23  44  64  94 131 176 221 276 332 401
#     4  11  21  41  66  98 134 169 226 277 326 404
#     4  12  22  40  64 102 130 172 220 278 326 392
#
# _framework density 19.378271000000002
#
# number of rings (size 3 to 8) (size 9 to 14) (size 15 to 20)
#    0.000    0.571    6.429    3.857    2.000    3.429 
#    0.000    1.429    0.000    0.000    0.000    0.000 
#    0.000    0.000    0.000    0.000    0.000    0.000 
#
# Total GULP energy -156531.340115 kJ/mol
# GULP energy per Si atom -5590.405004 kJ/mol
# Density = 1.933417 g / cm^3
# Si number density = 19.378271 Si / 1000 Ang^3
#
#
#
# Elastic Constant Matrix: (Units=GPa)
#
#
# Indices 1 2 3 4 5 6 
#
# 1 151.3267 42.7670 53.8512 0.0000 11.7129 0.0000
# 2 42.7670 74.5690 53.3043 0.0000 2.4229 0.0000
# 3 53.8512 53.3043 148.3709 0.0000 18.2449 0.0000
# 4 0.0000 0.0000 0.0000 24.7774 0.0000 2.0884
# 5 11.7129 2.4229 18.2449 0.0000 45.8619 0.0000
# 6 0.0000 0.0000 0.0000 2.0884 0.0000 18.8649
#
#
#
# Elastic Compliance Matrix: (Units=1/GPa)
#
#
# Indices 1 2 3 4 5 6 
#
# 1 0.008278 -0.003596 -0.001552 0.000000 -0.001307 0.000000
# 2 -0.003596 0.019735 -0.006066 0.000000 0.002289 0.000000
# 3 -0.001552 -0.006066 0.009878 0.000000 -0.003213 0.000000
# 4 0.000000 0.000000 0.000000 0.040740 0.000000 -0.004510
# 5 -0.001307 0.002289 -0.003213 0.000000 0.023296 0.000000
# 6 0.000000 0.000000 0.000000 -0.004510 0.000000 0.053508
#
#
# Mechanical properties :
#
#
# Convention : Reuss Voigt Hill
#
# Bulk Modulus (GPa) = 64.67422 74.90128 69.78775
# Shear Modulus (GPa) = 27.32017 32.85711 30.08864
#
# Velocity S-wave (km/s) = 3.75885 4.12219 3.94471
# Velocity P-wave (km/s) = 7.23088 7.83535 7.53918
#
# Compressibility (1/GPa) = 0.01546211
#
# Stress axis : x y z
#
# Youngs Moduli (GPa) = 120.80469 50.67225 101.23879
#
# Poissons Ratio (x) = 0.18220 0.15712
# Poissons Ratio (y) = 0.43437 0.61415
# Poissons Ratio (z) = 0.18748 0.30740
#
# Static dielectric constant tensor:
#      x y z
#    x 1.707840 0.000000 0.011540 
#    y 0.000000 1.656790 0.000000 
#    z 0.011540 0.000000 1.672620 
# 
# From -- ./inp_files/146205.got.cif
#   From: 2010.05.17/outbox.cif.g08.bks.cpg/sg15_74_cif.got.tgz:146205.got - 2010.06.03 18:47:42.
