data_PCOD9291336
_publ_section_title
;
Structure prediction by ZEFSAII (Michael W. Deem and Ramdas Pophale) SiO2 
 PCOD9291336
Probable space group: C 2/C
;
_chemical_formula_sum "Si O2"
_cell_formula_units_Z 36
_cell_length_a 16.516540
_cell_length_b 11.730773
_cell_length_c 24.942938
_cell_angle_alpha 90.000000
_cell_angle_beta 159.362730
_cell_angle_gamma 90.000000
_cell_volume 1703.300997
_symmetry_space_group_name_H-M "C 2/C"
_symmetry_group_IT_number 15
_symmetry_cell_setting 'monoclinic'
loop_
_space_group_symop_operation_xyz
x,y,z
-x,y,1/2-z
-x,-y,-z
x,-y,1/2+z
1/2+x,1/2+y,z
1/2-x,1/2+y,1/2-z
1/2-x,1/2-y,-z
1/2+x,1/2-y,1/2+z
loop_
_atom_site_type_symbol
_atom_site_label
_atom_site_fract_x
_atom_site_fract_y
_atom_site_fract_z
Si Si1 0.614310 0.682780 0.065268
Si Si2 0.621699 0.870979 0.511573
Si Si3 0.302284 0.483851 0.308046
Si Si4 0.500000 0.664106 0.750000
Si Si5 0.005224 0.955134 0.826977
O O1 0.739903 0.577554 0.172533
O O2 0.790725 0.759375 0.141084
O O3 0.495381 0.759449 0.037098
O O4 0.419917 0.626119 0.907673
O O5 0.422595 0.948486 0.363562
O O6 0.812806 0.864584 0.583171
O O7 0.762691 0.925728 0.648393
O O8 0.476841 0.535102 0.372244
O O9 0.570178 0.578175 0.841702
#
# Coordination Sequence:
#
# PCOD9291336 Si02
#       5
#     8   8   8   4   8
#     4  11  26  42  65 100 130 167 216 265 329 369
#     4  10  23  44  66  92 133 169 209 273 315 384
#     4  11  25  44  64 100 128 167 217 270 312 393
#     4  10  22  42  66  96 122 170 216 268 308 388
#     4  10  24  42  68  99 122 175 226 248 325 390
#
# _framework density 21.135431000000001
#
# number of rings (size 3 to 8) (size 9 to 14) (size 15 to 20)
#    0.000    1.778    2.222    0.667    9.333    1.778 
#    4.000    0.000    0.000    0.000    0.000    0.000 
#    0.000    0.000    0.000    0.000    0.000    0.000 
#
# Total GULP energy -100552.019572 kJ/mol
# GULP energy per Si atom -5586.223310 kJ/mol
# Density = 2.108733 g / cm^3
# Si number density = 21.135431 Si / 1000 Ang^3
#
#
#
# Elastic Constant Matrix: (Units=GPa)
#
#
# Indices 1 2 3 4 5 6 
#
# 1 54.3415 20.4121 30.4018 -0.0006 3.2991 0.0013
# 2 20.4121 85.5641 45.7138 0.0147 14.4975 0.0018
# 3 30.4018 45.7138 75.9958 0.0426 19.7972 -0.0006
# 4 -0.0006 0.0147 0.0426 23.3762 0.0073 0.5187
# 5 3.2991 14.4975 19.7972 0.0073 14.9793 -0.0038
# 6 0.0013 0.0018 -0.0006 0.5187 -0.0038 36.2128
#
#
#
# Elastic Compliance Matrix: (Units=1/GPa)
#
#
# Indices 1 2 3 4 5 6 
#
# 1 0.025119 -0.001463 -0.012347 0.000020 0.012202 0.000000
# 2 -0.001463 0.017512 -0.008567 0.000006 -0.005304 -0.000002
# 3 -0.012347 -0.008567 0.031086 -0.000042 -0.030073 -0.000001
# 4 0.000020 0.000006 -0.000042 0.042792 0.000024 -0.000613
# 5 0.012202 -0.005304 -0.030073 0.000024 0.108950 0.000010
# 6 0.000000 -0.000002 -0.000001 -0.000613 0.000010 0.027623
#
#
# Mechanical properties :
#
#
# Convention : Reuss Voigt Hill
#
# Bulk Modulus (GPa) = 34.52871 45.43965 39.98418
# Shear Modulus (GPa) = 16.26069 22.87193 19.56631
#
# Velocity S-wave (km/s) = 2.77674 3.29319 3.04593
# Velocity P-wave (km/s) = 5.16263 6.00051 5.59727
#
# Compressibility (1/GPa) = 0.02896141
#
# Stress axis : x y z
#
# Youngs Moduli (GPa) = 39.81091 57.10421 32.16931
#
# Poissons Ratio (x) = 0.08355 0.39721
# Poissons Ratio (y) = 0.05825 0.27559
# Poissons Ratio (z) = 0.49156 0.48921
#
# Static dielectric constant tensor:
#      x y z
#    x 1.758750 0.000000 0.026180 
#    y 0.000000 1.759830 -0.000010 
#    z 0.026180 -0.000010 1.748330 
# 
# From -- ./inp_files/298828.got.cif
#   From: 2010.05.17/outbox.cif.g08.bks.cpg/sg15_150_cif.got.tgz:298828.got - 2010.06.03 18:47:42.
