data_PCOD9291985
_publ_section_title
;
Structure prediction by ZEFSAII (Michael W. Deem and Ramdas Pophale) SiO2 
 PCOD9291985
Probable space group: C 2/C
;
_chemical_formula_sum "Si O2"
_cell_formula_units_Z 32
_cell_length_a 14.446065
_cell_length_b 18.887184
_cell_length_c 6.933311
_cell_angle_alpha 90.000000
_cell_angle_beta 136.901398
_cell_angle_gamma 90.000000
_cell_volume 1292.530751
_symmetry_space_group_name_H-M "C 2/C"
_symmetry_group_IT_number 15
_symmetry_cell_setting 'monoclinic'
loop_
_space_group_symop_operation_xyz
x,y,z
-x,y,1/2-z
-x,-y,-z
x,-y,1/2+z
1/2+x,1/2+y,z
1/2-x,1/2+y,1/2-z
1/2-x,1/2-y,-z
1/2+x,1/2-y,1/2+z
loop_
_atom_site_type_symbol
_atom_site_label
_atom_site_fract_x
_atom_site_fract_y
_atom_site_fract_z
Si Si1 0.500000 0.341774 0.750000
Si Si2 0.500000 0.979933 0.750000
Si Si3 0.866755 0.780713 0.919674
Si Si4 0.770183 0.380849 0.271027
Si Si5 0.137191 0.615438 0.015351
O O1 0.412145 0.297642 0.769834
O O2 0.391629 0.385691 0.458170
O O3 0.372240 0.926082 0.553835
O O4 0.426766 0.042202 0.503709
O O5 0.812573 0.701261 0.856099
O O6 0.746360 0.836074 0.787019
O O7 0.000000 0.789208 0.250000
O O8 0.796981 0.403908 0.089961
O O9 0.000000 0.657480 0.750000
#
# Coordination Sequence:
#
# PCOD9291985 Si02
#       5
#     4   4   8   8   8
#     4  10  24  41  64  97 136 168 210 282 324 373
#     4  10  22  43  64  95 128 178 218 258 330 401
#     4  11  24  42  67 101 130 169 223 269 323 382
#     4  11  22  41  64 100 128 172 221 269 322 390
#     4   9  22  40  66  86 133 176 211 262 330 383
#
# _framework density 24.757631
#
# number of rings (size 3 to 8) (size 9 to 14) (size 15 to 20)
#    0.750    1.000    1.250    3.750    7.000    3.000 
#    2.250    2.500    0.000    0.000    0.000    0.000 
#    0.000    0.000    0.000    0.000    0.000    0.000 
#
# Total GULP energy -89207.375294 kJ/mol
# GULP energy per Si atom -5575.460956 kJ/mol
# Density = 2.470128 g / cm^3
# Si number density = 24.757631 Si / 1000 Ang^3
#
#
#
# Elastic Constant Matrix: (Units=GPa)
#
#
# Indices 1 2 3 4 5 6 
#
# 1 64.8240 36.4516 27.3920 0.0000 7.0688 0.0000
# 2 36.4516 184.9302 117.2477 0.0000 25.2494 0.0000
# 3 27.3920 117.2477 266.2025 0.0000 32.3224 0.0000
# 4 0.0000 0.0000 0.0000 74.6206 0.0000 -4.1109
# 5 7.0688 25.2494 32.3224 0.0000 50.9828 0.0000
# 6 0.0000 0.0000 0.0000 -4.1109 0.0000 14.0642
#
#
#
# Elastic Compliance Matrix: (Units=1/GPa)
#
#
# Indices 1 2 3 4 5 6 
#
# 1 0.017398 -0.003129 -0.000333 0.000000 -0.000651 0.000000
# 2 -0.003129 0.008213 -0.003092 0.000000 -0.001673 0.000000
# 3 -0.000333 -0.003092 0.005375 0.000000 -0.001830 0.000000
# 4 0.000000 0.000000 0.000000 0.013620 0.000000 0.003981
# 5 -0.000651 -0.001673 -0.001830 0.000000 0.021694 0.000000
# 6 0.000000 0.000000 0.000000 0.003981 0.000000 0.072266
#
#
# Mechanical properties :
#
#
# Convention : Reuss Voigt Hill
#
# Bulk Modulus (GPa) = 55.93760 97.57103 76.75432
# Shear Modulus (GPa) = 31.71900 50.25788 40.98844
#
# Velocity S-wave (km/s) = 3.58324 4.51044 4.07331
# Velocity P-wave (km/s) = 6.30576 8.16219 7.29329
#
# Compressibility (1/GPa) = 0.01787706
#
# Stress axis : x y z
#
# Youngs Moduli (GPa) = 57.47882 121.75377 186.04671
#
# Poissons Ratio (x) = 0.38101 0.06192
# Poissons Ratio (y) = 0.17987 0.57532
# Poissons Ratio (z) = 0.01913 0.37650
#
# Static dielectric constant tensor:
#      x y z
#    x 3.364320 0.000000 -0.008730 
#    y 0.000000 1.939860 0.000000 
#    z -0.008730 0.000000 2.056220 
# 
# From -- ./inp_files/50521.got.cif
#   From: 2010.05.17/outbox.cif.g08.bks.cpg/sg15_26_cif.got.tgz:50521.got - 2010.06.03 18:47:42.
