data_PCOD9291150
_publ_section_title
;
Structure prediction by ZEFSAII (Michael W. Deem and Ramdas Pophale) SiO2 
 PCOD9291150
Probable space group: C 2/C
;
_chemical_formula_sum "Si O2"
_cell_formula_units_Z 44
_cell_length_a 18.234701
_cell_length_b 6.277748
_cell_length_c 18.585434
_cell_angle_alpha 90.000000
_cell_angle_beta 67.640047
_cell_angle_gamma 90.000000
_cell_volume 1967.563522
_symmetry_space_group_name_H-M "C 2/C"
_symmetry_group_IT_number 15
_symmetry_cell_setting 'monoclinic'
loop_
_space_group_symop_operation_xyz
x,y,z
-x,y,1/2-z
-x,-y,-z
x,-y,1/2+z
1/2+x,1/2+y,z
1/2-x,1/2+y,1/2-z
1/2-x,1/2-y,-z
1/2+x,1/2-y,1/2+z
loop_
_atom_site_type_symbol
_atom_site_label
_atom_site_fract_x
_atom_site_fract_y
_atom_site_fract_z
Si Si1 0.000000 0.057745 0.750000
Si Si2 0.810929 0.937435 0.646422
Si Si3 0.633785 0.893397 0.659406
Si Si4 0.415075 0.795310 0.213069
Si Si5 0.576225 0.171502 0.403324
Si Si6 0.399651 0.182126 0.489893
O O1 0.075888 0.203334 0.705738
O O2 0.025208 0.901945 0.805424
O O3 0.718611 0.906594 0.666040
O O4 0.836230 0.801701 0.706694
O O5 0.853185 0.837977 0.560115
O O6 0.851624 0.169104 0.639180
O O7 0.639961 0.865396 0.571829
O O8 0.594473 0.110781 0.703471
O O9 0.435643 0.994936 0.154897
O O10 0.488849 0.269626 0.444900
O O11 0.593670 0.039300 0.469061
#
# Coordination Sequence:
#
# PCOD9291150 Si02
#       6
#     4   8   8   8   8   8
#     4  12  26  46  70 100 138 184 244 286 346 412
#     4  11  25  41  69  99 141 179 227 290 356 410
#     4  12  26  42  69 101 140 179 237 291 347 415
#     4  11  25  42  68  99 133 188 230 293 340 414
#     4  10  22  44  69  97 137 182 236 279 347 418
#     4  10  22  42  65 100 136 183 229 282 344 418
#
# _framework density 22.362682
#
# number of rings (size 3 to 8) (size 9 to 14) (size 15 to 20)
#    0.000    1.091    0.000    6.000    5.091    6.545 
#    0.000    0.000    0.000    0.000    0.000    0.000 
#    0.000    0.000    0.000    0.000    0.000    0.000 
#
# Total GULP energy -122990.765304 kJ/mol
# GULP energy per Si atom -5590.489332 kJ/mol
# Density = 2.231178 g / cm^3
# Si number density = 22.362682 Si / 1000 Ang^3
#
#
#
# Elastic Constant Matrix: (Units=GPa)
#
#
# Indices 1 2 3 4 5 6 
#
# 1 148.1984 62.5711 33.4979 -0.0008 -6.2355 0.0002
# 2 62.5711 104.8190 48.4101 -0.0015 1.5644 0.0011
# 3 33.4979 48.4101 63.4271 -0.0007 22.1728 0.0007
# 4 -0.0008 -0.0015 -0.0007 25.8451 -0.0003 14.8620
# 5 -6.2355 1.5644 22.1728 -0.0003 46.0033 -0.0001
# 6 0.0002 0.0011 0.0007 14.8620 -0.0001 19.5513
#
#
#
# Elastic Compliance Matrix: (Units=1/GPa)
#
#
# Indices 1 2 3 4 5 6 
#
# 1 0.009285 -0.004484 -0.002375 0.000000 0.002556 0.000000
# 2 -0.004484 0.018372 -0.013497 0.000002 0.005273 -0.000002
# 3 -0.002375 -0.013497 0.032801 0.000000 -0.015672 -0.000001
# 4 0.000000 0.000002 0.000000 0.068739 0.000000 -0.052252
# 5 0.002556 0.005273 -0.015672 0.000000 0.029458 0.000000
# 6 0.000000 -0.000002 -0.000001 -0.052252 0.000000 0.090867
#
#
# Mechanical properties :
#
#
# Convention : Reuss Voigt Hill
#
# Bulk Modulus (GPa) = 50.64445 67.26695 58.95570
# Shear Modulus (GPa) = 16.84540 29.74431 23.29486
#
# Velocity S-wave (km/s) = 2.74758 3.65099 3.23101
# Velocity P-wave (km/s) = 5.72377 6.92230 6.35137
#
# Compressibility (1/GPa) = 0.01974550
#
# Stress axis : x y z
#
# Youngs Moduli (GPa) = 107.69725 54.43070 30.48722
#
# Poissons Ratio (x) = 0.24408 0.07240
# Poissons Ratio (y) = 0.48293 0.41149
# Poissons Ratio (z) = 0.25576 0.73467
#
# Static dielectric constant tensor:
#      x y z
#    x 1.848830 0.000000 -0.004940 
#    y 0.000000 1.824120 0.000000 
#    z -0.004940 0.000000 1.846600 
# 
# From -- ./inp_files/246386.got.cif
#   From: 2010.05.17/outbox.cif.g08.bks.cpg/sg15_124_cif.got.tgz:246386.got - 2010.06.03 18:47:42.
