data_PCOD9291592
_publ_section_title
;
Structure prediction by ZEFSAII (Michael W. Deem and Ramdas Pophale) SiO2 
 PCOD9291592
Probable space group: C 2/C
;
_chemical_formula_sum "Si O2"
_cell_formula_units_Z 44
_cell_length_a 26.250470
_cell_length_b 5.283980
_cell_length_c 17.164275
_cell_angle_alpha 90.000000
_cell_angle_beta 126.269321
_cell_angle_gamma 90.000000
_cell_volume 1919.512008
_symmetry_space_group_name_H-M "C 2/C"
_symmetry_group_IT_number 15
_symmetry_cell_setting 'monoclinic'
loop_
_space_group_symop_operation_xyz
x,y,z
-x,y,1/2-z
-x,-y,-z
x,-y,1/2+z
1/2+x,1/2+y,z
1/2-x,1/2+y,1/2-z
1/2-x,1/2-y,-z
1/2+x,1/2-y,1/2+z
loop_
_atom_site_type_symbol
_atom_site_label
_atom_site_fract_x
_atom_site_fract_y
_atom_site_fract_z
Si Si1 0.274889 0.997663 0.479992
Si Si2 0.274654 0.384768 0.735358
Si Si3 0.503364 0.200340 0.094387
Si Si4 0.098646 0.042550 0.582260
Si Si5 0.407717 0.178931 0.574231
Si Si6 0.500000 0.488011 0.750000
O O1 0.250000 0.750000 0.500000
O O2 0.247728 0.019579 0.368602
O O3 0.250000 0.250000 0.500000
O O4 0.351598 0.993798 0.547491
O O5 0.255276 0.095436 0.733546
O O6 0.348674 0.411605 0.818615
O O7 0.567861 0.231579 0.105362
O O8 0.510374 0.348638 0.182029
O O9 0.469560 0.942857 0.089116
O O10 0.453305 0.341602 0.993059
O O11 0.122683 0.149356 0.521175
O O12 0.437638 0.325419 0.673859
#
# Coordination Sequence:
#
# PCOD9291592 Si02
#       6
#     8   8   8   8   8   4
#     4  12  29  47  73 108 148 195 243 301 367 432
#     4  12  25  47  74 104 143 198 241 296 357 431
#     4  10  22  42  69 101 134 179 229 297 358 416
#     4  10  23  41  70 100 133 177 242 289 352 428
#     4  11  23  45  68  98 145 180 236 295 358 425
#     4  10  24  38  68 100 142 182 222 286 368 420
#
# _framework density 22.922495000000001
#
# number of rings (size 3 to 8) (size 9 to 14) (size 15 to 20)
#    0.000    1.091    1.818    3.273    7.636    1.455 
#    0.000    0.000    0.000    0.000    0.000    0.000 
#    0.000    0.000    0.000    0.000    0.000    0.000 
#
# Total GULP energy -123018.307999 kJ/mol
# GULP energy per Si atom -5591.741273 kJ/mol
# Density = 2.287032 g / cm^3
# Si number density = 22.922495 Si / 1000 Ang^3
#
#
#
# Elastic Constant Matrix: (Units=GPa)
#
#
# Indices 1 2 3 4 5 6 
#
# 1 43.7209 -1.6090 25.7038 0.0001 0.0053 -0.0002
# 2 -1.6090 57.3784 6.3054 0.0003 -5.8241 -0.0001
# 3 25.7038 6.3054 161.2772 0.0001 -10.4518 0.0000
# 4 0.0001 0.0003 0.0001 31.4752 0.0001 -5.2582
# 5 0.0053 -5.8241 -10.4518 0.0001 20.0592 0.0000
# 6 -0.0002 -0.0001 0.0000 -5.2582 0.0000 35.7375
#
#
#
# Elastic Compliance Matrix: (Units=1/GPa)
#
#
# Indices 1 2 3 4 5 6 
#
# 1 0.025382 0.000980 -0.004208 0.000000 -0.001915 0.000000
# 2 0.000980 0.018017 -0.000540 0.000000 0.004950 0.000000
# 3 -0.004208 -0.000540 0.007123 0.000000 0.003556 0.000000
# 4 0.000000 0.000000 0.000000 0.032572 0.000000 0.004792
# 5 -0.001915 0.004950 0.003556 0.000000 0.053143 0.000000
# 6 0.000000 0.000000 0.000000 0.004792 0.000000 0.028687
#
#
# Mechanical properties :
#
#
# Convention : Reuss Voigt Hill
#
# Bulk Modulus (GPa) = 23.26284 35.90853 29.58568
# Shear Modulus (GPa) = 26.76829 32.91947 29.84388
#
# Velocity S-wave (km/s) = 3.42098 3.79373 3.61217
# Velocity P-wave (km/s) = 5.07687 5.90669 5.50743
#
# Compressibility (1/GPa) = 0.04298702
#
# Stress axis : x y z
#
# Youngs Moduli (GPa) = 39.39735 55.50197 140.39705
#
# Poissons Ratio (x) = -0.05438 0.59076
# Poissons Ratio (y) = -0.03860 0.07579
# Poissons Ratio (z) = 0.16577 0.02996
#
# Static dielectric constant tensor:
#      x y z
#    x 1.903110 0.000000 0.002350 
#    y 0.000000 1.906800 0.000000 
#    z 0.002350 0.000000 1.787740 
# 
# From -- ./inp_files/221108.got.cif
#   From: 2010.05.17/outbox.cif.g08.bks.cpg/sg15_111_cif.got.tgz:221108.got - 2010.06.03 18:47:42.
