data_PCOD9291122
_publ_section_title
;
Structure prediction by ZEFSAII (Michael W. Deem and Ramdas Pophale) SiO2 
 PCOD9291122
Probable space group: C 2/C
;
_chemical_formula_sum "Si O2"
_cell_formula_units_Z 52
_cell_length_a 20.847613
_cell_length_b 9.630683
_cell_length_c 17.753280
_cell_angle_alpha 90.000000
_cell_angle_beta 136.838805
_cell_angle_gamma 90.000000
_cell_volume 2438.270753
_symmetry_space_group_name_H-M "C 2/C"
_symmetry_group_IT_number 15
_symmetry_cell_setting 'monoclinic'
loop_
_space_group_symop_operation_xyz
x,y,z
-x,y,1/2-z
-x,-y,-z
x,-y,1/2+z
1/2+x,1/2+y,z
1/2-x,1/2+y,1/2-z
1/2-x,1/2-y,-z
1/2+x,1/2-y,1/2+z
loop_
_atom_site_type_symbol
_atom_site_label
_atom_site_fract_x
_atom_site_fract_y
_atom_site_fract_z
Si Si1 0.500000 0.146378 0.250000
Si Si2 0.398339 0.597182 0.670873
Si Si3 0.363418 0.326995 0.314674
Si Si4 0.958996 0.486343 0.083363
Si Si5 0.455569 0.224090 0.956723
Si Si6 0.259208 0.111503 0.459236
Si Si7 0.274722 0.389448 0.748802
O O1 0.580025 0.253336 0.347924
O O2 0.527627 0.053939 0.203343
O O3 0.500000 0.522787 0.750000
O O4 0.380515 0.638482 0.742193
O O5 0.313194 0.503899 0.571636
O O6 0.463297 0.323133 0.441078
O O7 0.293245 0.448640 0.281364
O O8 0.316074 0.179043 0.291152
O O9 0.002847 0.354998 0.079828
O O10 0.936281 0.602772 0.001223
O O11 0.865025 0.443733 0.046620
O O12 0.364122 0.308490 0.857208
O O13 0.250000 0.250000 0.500000
O O14 0.233295 0.132165 0.348388
#
# Coordination Sequence:
#
# PCOD9291122 Si02
#       7
#     4   8   8   8   8   8   8
#     4  10  22  42  64  96 126 180 216 266 342 400
#     4   9  21  44  68  91 131 176 219 267 330 407
#     4  11  22  45  68 100 136 170 230 273 338 403
#     4  11  24  42  68 100 131 175 226 278 340 405
#     4  11  22  43  70  97 136 173 226 283 333 408
#     4  11  25  44  63  99 138 171 224 281 338 403
#     4  11  25  42  69 100 133 182 220 285 337 400
#
# _framework density 21.326588999999998
#
# number of rings (size 3 to 8) (size 9 to 14) (size 15 to 20)
#    0.462    0.923    3.077    2.308    4.308    3.077 
#    5.538    0.000    0.000    0.000    0.000    0.000 
#    0.000    0.000    0.000    0.000    0.000    0.000 
#
# Total GULP energy -145218.700879 kJ/mol
# GULP energy per Si atom -5585.334649 kJ/mol
# Density = 2.127805 g / cm^3
# Si number density = 21.326589 Si / 1000 Ang^3
#
#
#
# Elastic Constant Matrix: (Units=GPa)
#
#
# Indices 1 2 3 4 5 6 
#
# 1 76.1556 23.6163 -2.0351 0.0000 13.3795 0.0000
# 2 23.6163 66.3019 6.7544 0.0000 -6.9626 0.0000
# 3 -2.0351 6.7544 49.3619 0.0000 5.0068 0.0000
# 4 0.0000 0.0000 0.0000 28.4567 0.0000 -0.6605
# 5 13.3795 -6.9626 5.0068 0.0000 25.8903 0.0000
# 6 0.0000 0.0000 0.0000 -0.6605 0.0000 32.8694
#
#
#
# Elastic Compliance Matrix: (Units=1/GPa)
#
#
# Indices 1 2 3 4 5 6 
#
# 1 0.017737 -0.007870 0.003012 0.000000 -0.011865 0.000000
# 2 -0.007870 0.019347 -0.003990 0.000000 0.010042 0.000000
# 3 0.003012 -0.003990 0.021620 0.000000 -0.006810 0.000000
# 4 0.000000 0.000000 0.000000 0.035158 0.000000 0.000706
# 5 -0.011865 0.010042 -0.006810 0.000000 0.048774 0.000000
# 6 0.000000 0.000000 0.000000 0.000706 0.000000 0.030438
#
#
# Mechanical properties :
#
#
# Convention : Reuss Voigt Hill
#
# Bulk Modulus (GPa) = 24.38738 27.61006 25.99872
# Shear Modulus (GPa) = 24.45722 28.34220 26.39971
#
# Velocity S-wave (km/s) = 3.39011 3.64945 3.52217
# Velocity P-wave (km/s) = 5.17531 5.54368 5.36266
#
# Compressibility (1/GPa) = 0.04100481
#
# Stress axis : x y z
#
# Youngs Moduli (GPa) = 56.38031 51.68757 46.25448
#
# Poissons Ratio (x) = 0.40681 -0.13930
# Poissons Ratio (y) = 0.44374 0.18457
# Poissons Ratio (z) = -0.16980 0.20625
#
# Static dielectric constant tensor:
#      x y z
#    x 1.776220 0.000000 0.008600 
#    y 0.000000 1.782120 0.000000 
#    z 0.008600 0.000000 1.771680 
# 
# From -- ./inp_files/255077.got.cif
#   From: 2010.05.17/outbox.cif.g08.bks.cpg/sg15_128_cif.got.tgz:255077.got - 2010.06.03 18:47:42.
