data_PCOD9291307
_publ_section_title
;
Structure prediction by ZEFSAII (Michael W. Deem and Ramdas Pophale) SiO2 
 PCOD9291307
Probable space group: C 2/C
;
_chemical_formula_sum "Si O2"
_cell_formula_units_Z 48
_cell_length_a 5.254039
_cell_length_b 30.515101
_cell_length_c 15.132257
_cell_angle_alpha 90.000000
_cell_angle_beta 59.996904
_cell_angle_gamma 90.000000
_cell_volume 2101.013749
_symmetry_space_group_name_H-M "C 2/C"
_symmetry_group_IT_number 15
_symmetry_cell_setting 'monoclinic'
loop_
_space_group_symop_operation_xyz
x,y,z
-x,y,1/2-z
-x,-y,-z
x,-y,1/2+z
1/2+x,1/2+y,z
1/2-x,1/2+y,1/2-z
1/2-x,1/2-y,-z
1/2+x,1/2-y,1/2+z
loop_
_atom_site_type_symbol
_atom_site_label
_atom_site_fract_x
_atom_site_fract_y
_atom_site_fract_z
Si Si1 0.909675 0.483615 0.863166
Si Si2 0.353207 0.706745 0.678822
Si Si3 0.645148 0.609584 0.821145
Si Si4 0.780601 0.393465 0.635396
Si Si5 0.328240 0.558580 0.512949
Si Si6 0.854975 0.300704 0.678643
O O1 0.940788 0.525816 0.920179
O O2 0.000000 0.496356 0.750000
O O3 0.060250 0.438337 0.864425
O O4 0.568394 0.470534 0.921508
O O5 0.500000 0.708140 0.750000
O O6 0.434231 0.658621 0.630357
O O7 0.432588 0.753640 0.621540
O O8 0.000000 0.706305 0.750000
O O9 0.500000 0.602951 0.750000
O O10 0.560260 0.575395 0.911651
O O11 0.000000 0.607504 0.750000
O O12 0.500000 0.392078 0.750000
O O13 0.723370 0.400687 0.541929
O O14 0.937726 0.346816 0.620184
O O15 0.500000 0.300465 0.750000
O O16 0.000000 0.301787 0.750000
#
# Coordination Sequence:
#
# PCOD9291307 Si02
#       6
#     8   8   8   8   8   8
#     4  11  23  44  62  87 125 162 213 263 318 379
#     4   8  15  32  58  89 123 164 207 252 305 368
#     4  10  22  42  66  94 130 169 214 262 314 372
#     4  11  22  39  64  91 127 166 208 264 316 378
#     4  11  25  41  63  93 120 169 209 264 318 378
#     4   9  18  32  60  92 123 166 209 250 311 372
#
# _framework density 22.846114
#
# number of rings (size 3 to 8) (size 9 to 14) (size 15 to 20)
#    0.000    2.000    1.667    1.500    4.667    0.000 
#    6.000    0.833    0.000    1.000    0.000    0.000 
#    0.000    0.000    0.000    0.000    0.000    0.000 
#
# Total GULP energy -133876.260602 kJ/mol
# GULP energy per Si atom -5578.177525 kJ/mol
# Density = 2.279411 g / cm^3
# Si number density = 22.846114 Si / 1000 Ang^3
#
#
#
# Elastic Constant Matrix: (Units=GPa)
#
#
# Indices 1 2 3 4 5 6 
#
# 1 107.7475 16.8066 28.3583 0.0000 13.4690 0.0000
# 2 16.8066 173.6781 54.0504 0.0000 11.5950 0.0000
# 3 28.3583 54.0504 100.6277 0.0000 9.3083 0.0000
# 4 0.0000 0.0000 0.0000 22.6917 0.0000 23.3722
# 5 13.4690 11.5950 9.3083 0.0000 24.7104 0.0000
# 6 0.0000 0.0000 0.0000 23.3722 0.0000 39.1394
#
#
#
# Elastic Compliance Matrix: (Units=1/GPa)
#
#
# Indices 1 2 3 4 5 6 
#
# 1 0.010548 0.000105 -0.002583 0.000000 -0.004826 0.000000
# 2 0.000105 0.007003 -0.003608 0.000000 -0.001984 0.000000
# 3 -0.002583 -0.003608 0.012761 0.000000 -0.001707 0.000000
# 4 0.000000 0.000000 0.000000 0.114482 0.000000 -0.068363
# 5 -0.004826 -0.001984 -0.001707 0.000000 0.044673 0.000000
# 6 0.000000 0.000000 0.000000 -0.068363 0.000000 0.066373
#
#
# Mechanical properties :
#
#
# Convention : Reuss Voigt Hill
#
# Bulk Modulus (GPa) = 55.12205 64.49823 59.81014
# Shear Modulus (GPa) = 18.24441 36.16415 27.20428
#
# Velocity S-wave (km/s) = 2.82898 3.98294 3.45449
# Velocity P-wave (km/s) = 5.90345 7.03169 6.49213
#
# Compressibility (1/GPa) = 0.01814156
#
# Stress axis : x y z
#
# Youngs Moduli (GPa) = 94.80913 142.80059 78.36378
#
# Poissons Ratio (x) = -0.01503 0.20238
# Poissons Ratio (y) = -0.00998 0.28270
# Poissons Ratio (z) = 0.24485 0.51516
#
# Static dielectric constant tensor:
#      x y z
#    x 1.899290 0.000000 -0.010370 
#    y 0.000000 1.922910 0.000000 
#    z -0.010370 0.000000 1.829170 
# 
# From -- ./inp_files/130595.got.cif
#   From: 2010.05.17/outbox.cif.g08.bks.cpg/sg15_66_cif.got.tgz:130595.got - 2010.06.03 18:47:42.
