data_PCOD9291995
_publ_section_title
;
Structure prediction by ZEFSAII (Michael W. Deem and Ramdas Pophale) SiO2 
 PCOD9291995
Probable space group: C 2/C
;
_chemical_formula_sum "Si O2"
_cell_formula_units_Z 48
_cell_length_a 16.389186
_cell_length_b 23.923914
_cell_length_c 9.560134
_cell_angle_alpha 90.000000
_cell_angle_beta 146.757917
_cell_angle_gamma 90.000000
_cell_volume 2054.825447
_symmetry_space_group_name_H-M "C 2/C"
_symmetry_group_IT_number 15
_symmetry_cell_setting 'monoclinic'
loop_
_space_group_symop_operation_xyz
x,y,z
-x,y,1/2-z
-x,-y,-z
x,-y,1/2+z
1/2+x,1/2+y,z
1/2-x,1/2+y,1/2-z
1/2-x,1/2-y,-z
1/2+x,1/2-y,1/2+z
loop_
_atom_site_type_symbol
_atom_site_label
_atom_site_fract_x
_atom_site_fract_y
_atom_site_fract_z
Si Si1 0.397798 0.009275 0.986043
Si Si2 0.471860 0.234709 0.557146
Si Si3 0.711250 0.881995 0.022460
Si Si4 0.865408 0.265134 0.480911
Si Si5 0.020572 0.133711 0.120370
Si Si6 0.344795 0.572638 0.439827
O O1 0.372171 0.072259 0.002874
O O2 0.235552 0.983807 0.724975
O O3 0.500000 0.980033 0.250000
O O4 0.500000 0.000000 0.000000
O O5 0.295439 0.237032 0.269899
O O6 0.574933 0.211964 0.581576
O O7 0.530825 0.299252 0.645666
O O8 0.500000 0.209686 0.750000
O O9 0.655355 0.819012 0.952104
O O10 0.870142 0.878736 0.323509
O O11 0.734011 0.900500 0.895557
O O12 0.000000 0.230616 0.750000
O O13 0.137569 0.108297 0.177794
O O14 0.000000 0.112170 0.250000
O O15 0.500000 0.565033 0.750000
#
# Coordination Sequence:
#
# PCOD9291995 Si02
#       6
#     8   8   8   8   8   8
#     4  12  25  43  63  93 134 168 210 266 322 375
#     4  10  22  43  64  96 133 166 212 270 321 383
#     4  10  23  43  62  91 129 166 211 263 317 376
#     4  11  23  40  67  94 128 171 214 265 320 387
#     4   9  21  39  67  96 125 163 215 261 309 379
#     4  10  23  43  66  91 127 172 212 261 314 382
#
# _framework density 23.359646999999999
#
# number of rings (size 3 to 8) (size 9 to 14) (size 15 to 20)
#    0.000    1.667    1.667    1.500    2.333    8.000 
#    0.000    0.833    0.000    0.000    0.000    0.000 
#    0.000    0.000    0.000    0.000    0.000    0.000 
#
# Total GULP energy -133986.115780 kJ/mol
# GULP energy per Si atom -5582.754824 kJ/mol
# Density = 2.330648 g / cm^3
# Si number density = 23.359647 Si / 1000 Ang^3
#
#
#
# Elastic Constant Matrix: (Units=GPa)
#
#
# Indices 1 2 3 4 5 6 
#
# 1 151.9117 17.8763 31.3752 0.0000 -27.1509 0.0000
# 2 17.8763 42.1656 18.8061 0.0000 -3.2602 0.0000
# 3 31.3752 18.8061 76.7890 0.0000 -11.1089 0.0000
# 4 0.0000 0.0000 0.0000 2.5272 0.0000 -0.6122
# 5 -27.1509 -3.2602 -11.1089 0.0000 47.4855 0.0000
# 6 0.0000 0.0000 0.0000 -0.6122 0.0000 24.4391
#
#
#
# Elastic Compliance Matrix: (Units=1/GPa)
#
#
# Indices 1 2 3 4 5 6 
#
# 1 0.007979 -0.002109 -0.002178 0.000000 0.003908 0.000000
# 2 -0.002109 0.027186 -0.005900 0.000000 -0.000720 0.000000
# 3 -0.002178 -0.005900 0.015649 0.000000 0.002010 0.000000
# 4 0.000000 0.000000 0.000000 0.398104 0.000000 0.009972
# 5 0.003908 -0.000720 0.002010 0.000000 0.023714 0.000000
# 6 0.000000 0.000000 0.000000 0.009972 0.000000 0.041168
#
#
# Mechanical properties :
#
#
# Convention : Reuss Voigt Hill
#
# Bulk Modulus (GPa) = 32.85342 45.22017 39.03679
# Shear Modulus (GPa) = 9.18573 28.41096 18.79835
#
# Velocity S-wave (km/s) = 1.98516 3.49125 2.83986
# Velocity P-wave (km/s) = 4.39877 5.97093 5.24410
#
# Compressibility (1/GPa) = 0.03043824
#
# Stress axis : x y z
#
# Youngs Moduli (GPa) = 125.32371 36.78347 63.90335
#
# Poissons Ratio (x) = 0.07758 0.13921
# Poissons Ratio (y) = 0.26433 0.37706
# Poissons Ratio (z) = 0.27300 0.21704
#
# Static dielectric constant tensor:
#      x y z
#    x 1.948480 0.000000 0.070460 
#    y 0.000000 1.895860 0.000000 
#    z 0.070460 0.000000 1.922270 
# 
# From -- ./inp_files/43837.got.cif
#   From: 2010.05.17/outbox.cif.g08.bks.cpg/sg15_22_cif.got.tgz:43837.got - 2010.06.03 18:47:42.
