data_PCOD9291922
_publ_section_title
;
Structure prediction by ZEFSAII (Michael W. Deem and Ramdas Pophale) SiO2 
 PCOD9291922
Probable space group: C 2/C
;
_chemical_formula_sum "Si O2"
_cell_formula_units_Z 60
_cell_length_a 11.088420
_cell_length_b 16.402635
_cell_length_c 17.562117
_cell_angle_alpha 90.000000
_cell_angle_beta 75.256817
_cell_angle_gamma 90.000000
_cell_volume 3089.021000
_symmetry_space_group_name_H-M "C 2/C"
_symmetry_group_IT_number 15
_symmetry_cell_setting 'monoclinic'
loop_
_space_group_symop_operation_xyz
x,y,z
-x,y,1/2-z
-x,-y,-z
x,-y,1/2+z
1/2+x,1/2+y,z
1/2-x,1/2+y,1/2-z
1/2-x,1/2-y,-z
1/2+x,1/2-y,1/2+z
loop_
_atom_site_type_symbol
_atom_site_label
_atom_site_fract_x
_atom_site_fract_y
_atom_site_fract_z
Si Si1 0.728463 0.582937 0.353673
Si Si2 0.772052 0.918344 0.054065
Si Si3 0.500000 0.431100 0.250000
Si Si4 0.896714 0.194328 0.657190
Si Si5 0.558900 0.430326 0.619037
Si Si6 0.767423 0.363953 0.681313
Si Si7 0.949063 0.590695 0.017929
Si Si8 0.865450 0.289779 0.938655
O O1 0.751894 0.496340 0.389293
O O2 0.579402 0.597566 0.380971
O O3 0.759899 0.585560 0.259723
O O4 0.809348 0.650399 0.383796
O O5 0.838943 0.849442 0.092788
O O6 0.862363 0.944963 0.970057
O O7 0.644203 0.889048 0.035957
O O8 0.596674 0.370910 0.275970
O O9 0.451592 0.489673 0.325521
O O10 0.815049 0.273195 0.690196
O O11 0.035491 0.226766 0.613881
O O12 0.635915 0.366713 0.658272
O O13 0.866112 0.403399 0.607604
O O14 0.057903 0.655292 0.013543
O O15 0.000000 0.500000 0.000000
O O16 0.750000 0.250000 0.000000
#
# Coordination Sequence:
#
# PCOD9291922 Si02
#       8
#     8   8   4   8   8   8   8   8
#     4  12  21  41  65  96 123 173 206 260 315 386
#     4  11  23  40  71  90 129 166 223 252 319 382
#     4  12  22  38  64  92 130 158 216 258 310 372
#     4  11  24  42  62  96 125 170 206 262 322 379
#     4  11  22  39  67  98 124 167 216 266 305 380
#     4  10  23  40  63  91 134 166 206 262 324 372
#     4  10  22  43  62  90 125 168 209 259 309 377
#     4  11  25  39  63  93 129 158 211 264 320 365
#
# _framework density 19.423629999999999
#
# number of rings (size 3 to 8) (size 9 to 14) (size 15 to 20)
#    0.000    1.067    4.000    2.000    1.867    7.467 
#    0.000    0.000    0.000    0.000    0.000    0.000 
#    0.000    0.000    0.000    0.000    0.000    0.000 
#
# Total GULP energy -167642.501948 kJ/mol
# GULP energy per Si atom -5588.083398 kJ/mol
# Density = 1.937942 g / cm^3
# Si number density = 19.423630 Si / 1000 Ang^3
#
#
#
# Elastic Constant Matrix: (Units=GPa)
#
#
# Indices 1 2 3 4 5 6 
#
# 1 139.0936 46.7263 38.5434 0.0000 24.4837 0.0000
# 2 46.7263 60.6507 36.3592 0.0000 2.7524 0.0000
# 3 38.5434 36.3592 87.2742 0.0000 23.7266 0.0000
# 4 0.0000 0.0000 0.0000 30.3529 0.0000 15.0461
# 5 24.4837 2.7524 23.7266 0.0000 23.2593 0.0000
# 6 0.0000 0.0000 0.0000 15.0461 0.0000 38.1179
#
#
#
# Elastic Compliance Matrix: (Units=1/GPa)
#
#
# Indices 1 2 3 4 5 6 
#
# 1 0.012683 -0.010932 0.003087 0.000000 -0.015206 0.000000
# 2 -0.010932 0.032964 -0.015184 0.000000 0.023095 0.000000
# 3 0.003087 -0.015184 0.023269 0.000000 -0.025189 0.000000
# 4 0.000000 0.000000 0.000000 0.040960 0.000000 -0.016168
# 5 -0.015206 0.023095 -0.025189 0.000000 0.081961 0.000000
# 6 0.000000 0.000000 0.000000 -0.016168 0.000000 0.032616
#
#
# Mechanical properties :
#
#
# Convention : Reuss Voigt Hill
#
# Bulk Modulus (GPa) = 43.74850 58.91959 51.33405
# Shear Modulus (GPa) = 17.97712 29.37199 23.67456
#
# Velocity S-wave (km/s) = 3.04555 3.89289 3.49500
# Velocity P-wave (km/s) = 5.91096 7.11379 6.54008
#
# Compressibility (1/GPa) = 0.02285793
#
# Stress axis : x y z
#
# Youngs Moduli (GPa) = 78.84640 30.33582 42.97633
#
# Poissons Ratio (x) = 0.33162 -0.13266
# Poissons Ratio (y) = 0.86192 0.65256
# Poissons Ratio (z) = -0.24339 0.46063
#
# Static dielectric constant tensor:
#      x y z
#    x 1.708110 0.000000 0.005280 
#    y 0.000000 1.662930 0.000000 
#    z 0.005280 0.000000 1.667250 
# 
# From -- ./inp_files/197855.got.cif
#   From: 2010.05.17/outbox.cif.g08.bks.cpg/sg15_99_cif.got.tgz:197855.got - 2010.06.03 18:47:42.
