data_PCOD9291361
_publ_section_title
;
Structure prediction by ZEFSAII (Michael W. Deem and Ramdas Pophale) SiO2 
 PCOD9291361
Probable space group: C 2/C
;
_chemical_formula_sum "Si O2"
_cell_formula_units_Z 56
_cell_length_a 8.789330
_cell_length_b 24.394096
_cell_length_c 13.672831
_cell_angle_alpha 90.000000
_cell_angle_beta 65.269419
_cell_angle_gamma 90.000000
_cell_volume 2662.692989
_symmetry_space_group_name_H-M "C 2/C"
_symmetry_group_IT_number 15
_symmetry_cell_setting 'monoclinic'
loop_
_space_group_symop_operation_xyz
x,y,z
-x,y,1/2-z
-x,-y,-z
x,-y,1/2+z
1/2+x,1/2+y,z
1/2-x,1/2+y,1/2-z
1/2-x,1/2-y,-z
1/2+x,1/2-y,1/2+z
loop_
_atom_site_type_symbol
_atom_site_label
_atom_site_fract_x
_atom_site_fract_y
_atom_site_fract_z
Si Si1 0.432857 0.142426 0.536733
Si Si2 0.000000 0.089999 0.250000
Si Si3 0.222778 0.011086 0.315590
Si Si4 0.617682 0.283923 0.401043
Si Si5 0.172446 0.109599 0.763665
Si Si6 0.750000 0.250000 0.000000
Si Si7 0.205806 0.819720 0.580753
Si Si8 0.532880 0.964563 0.587835
O O1 0.331272 0.112161 0.648997
O O2 0.326006 0.193951 0.530082
O O3 0.618086 0.162405 0.515154
O O4 0.459760 0.098953 0.442912
O O5 0.919350 0.051329 0.188369
O O6 0.868476 0.130896 0.336858
O O7 0.293127 0.021951 0.404703
O O8 0.379943 0.022726 0.201407
O O9 0.172814 0.947882 0.319879
O O10 0.680797 0.337306 0.329272
O O11 0.439896 0.264808 0.408576
O O12 0.747481 0.233403 0.367013
O O13 0.588416 0.300517 0.523229
O O14 0.000000 0.112028 0.750000
O O15 0.500000 0.000000 0.500000
#
# Coordination Sequence:
#
# PCOD9291361 Si02
#       8
#     8   4   8   8   8   4   8   8
#     4  11  23  44  69  99 142 180 234 286 354 427
#     4  12  24  46  66 106 144 180 240 286 358 420
#     4  11  26  42  71 104 145 185 242 291 357 431
#     4  10  24  45  67 101 136 181 236 285 358 414
#     4  12  24  43  70 107 136 180 238 294 349 430
#     4  10  22  42  66  98 134 180 230 284 346 426
#     4  10  25  44  68  98 138 184 228 295 351 427
#     4  11  24  46  69 102 138 191 232 295 358 423
#
# _framework density 21.03134
#
# number of rings (size 3 to 8) (size 9 to 14) (size 15 to 20)
#    0.000    1.143    5.000    0.000    4.000    4.000 
#    0.000    2.143    0.000    0.000    0.000    0.000 
#    0.000    0.000    0.000    0.000    0.000    0.000 
#
# Total GULP energy -156001.520634 kJ/mol
# GULP energy per Si atom -5571.482880 kJ/mol
# Density = 2.098347 g / cm^3
# Si number density = 21.031340 Si / 1000 Ang^3
#
#
#
# Elastic Constant Matrix: (Units=GPa)
#
#
# Indices 1 2 3 4 5 6 
#
# 1 73.3425 38.8421 21.0635 0.0000 13.5128 0.0000
# 2 38.8421 120.9308 21.4609 0.0000 7.0193 0.0000
# 3 21.0635 21.4609 34.5351 0.0000 4.1325 0.0000
# 4 0.0000 0.0000 0.0000 30.7668 0.0000 4.0573
# 5 13.5128 7.0193 4.1325 0.0000 26.4207 0.0000
# 6 0.0000 0.0000 0.0000 4.0573 0.0000 26.3025
#
#
#
# Elastic Compliance Matrix: (Units=1/GPa)
#
#
# Indices 1 2 3 4 5 6 
#
# 1 0.019801 -0.004423 -0.008414 0.000000 -0.007636 0.000000
# 2 -0.004423 0.010349 -0.003745 0.000000 0.000099 0.000000
# 3 -0.008414 -0.003745 0.036464 0.000000 -0.000405 0.000000
# 4 0.000000 0.000000 0.000000 0.033177 0.000000 -0.005118
# 5 -0.007636 0.000099 -0.000405 0.000000 0.041792 0.000000
# 6 0.000000 0.000000 0.000000 -0.005118 0.000000 0.038809
#
#
# Mechanical properties :
#
#
# Convention : Reuss Voigt Hill
#
# Bulk Modulus (GPa) = 29.89710 43.50461 36.70085
# Shear Modulus (GPa) = 22.25139 26.52746 24.38943
#
# Velocity S-wave (km/s) = 3.25624 3.55537 3.40909
# Velocity P-wave (km/s) = 5.32764 6.13064 5.74319
#
# Compressibility (1/GPa) = 0.03344806
#
# Stress axis : x y z
#
# Youngs Moduli (GPa) = 50.50351 96.62947 27.42457
#
# Poissons Ratio (x) = 0.42743 0.23076
# Poissons Ratio (y) = 0.22340 0.10270
# Poissons Ratio (z) = 0.42495 0.36187
#
# Static dielectric constant tensor:
#      x y z
#    x 1.780680 0.000000 0.014960 
#    y 0.000000 1.766150 0.000000 
#    z 0.014960 0.000000 1.784170 
# 
# From -- ./inp_files/137293.got.cif
#   From: 2010.05.17/outbox.cif.g08.bks.cpg/sg15_69_cif.got.tgz:137293.got - 2010.06.03 18:47:42.
