data_PCOD9291502
_publ_section_title
;
Structure prediction by ZEFSAII (Michael W. Deem and Ramdas Pophale) SiO2 
 PCOD9291502
Probable space group: C 2/C
;
_chemical_formula_sum "Si O2"
_cell_formula_units_Z 56
_cell_length_a 14.474541
_cell_length_b 21.803906
_cell_length_c 8.701776
_cell_angle_alpha 90.000000
_cell_angle_beta 56.864057
_cell_angle_gamma 90.000000
_cell_volume 2299.680458
_symmetry_space_group_name_H-M "C 2/C"
_symmetry_group_IT_number 15
_symmetry_cell_setting 'monoclinic'
loop_
_space_group_symop_operation_xyz
x,y,z
-x,y,1/2-z
-x,-y,-z
x,-y,1/2+z
1/2+x,1/2+y,z
1/2-x,1/2+y,1/2-z
1/2-x,1/2-y,-z
1/2+x,1/2-y,1/2+z
loop_
_atom_site_type_symbol
_atom_site_label
_atom_site_fract_x
_atom_site_fract_y
_atom_site_fract_z
Si Si1 0.830837 0.639144 0.907931
Si Si2 0.252289 0.365936 0.470347
Si Si3 0.500000 0.477780 0.750000
Si Si4 0.593666 0.906863 0.843980
Si Si5 0.000000 0.736850 0.750000
Si Si6 0.073029 0.083212 0.464552
Si Si7 0.375662 0.673665 0.586441
Si Si8 0.145057 0.540893 0.856320
O O1 0.904101 0.693484 0.771072
O O2 0.706945 0.654372 0.975244
O O3 0.857938 0.574907 0.803747
O O4 0.874210 0.633899 0.039814
O O5 0.134233 0.366321 0.663461
O O6 0.336901 0.375577 0.532942
O O7 0.297710 0.315859 0.307822
O O8 0.237785 0.426613 0.375361
O O9 0.563305 0.522087 0.575485
O O10 0.418280 0.437495 0.719923
O O11 0.663424 0.969871 0.805719
O O12 0.472062 0.937887 0.961575
O O13 0.049405 0.775875 0.564397
O O14 0.958312 0.120594 0.568286
#
# Coordination Sequence:
#
# PCOD9291502 Si02
#       8
#     8   8   4   8   4   8   8   8
#     4  11  24  46  75 109 134 189 252 294 362 455
#     4  11  24  39  67  99 149 188 235 287 370 435
#     4  10  23  36  66  96 146 183 236 274 350 434
#     4  11  22  39  72 108 154 186 232 294 368 441
#     4  12  25  50  82  94 136 193 262 318 350 428
#     4  11  23  43  62 102 144 187 233 296 355 446
#     4  11  26  47  69 102 142 186 247 309 368 418
#     4  10  22  42  68 110 154 193 225 293 362 449
#
# _framework density 24.351209000000001
#
# number of rings (size 3 to 8) (size 9 to 14) (size 15 to 20)
#    0.000    1.143    2.857    2.143    6.000    4.571 
#    0.000    0.714    9.429    0.000    0.000    0.000 
#    0.000    0.000    0.000    0.000    0.000    0.000 
#
# Total GULP energy -156348.735158 kJ/mol
# GULP energy per Si atom -5583.883399 kJ/mol
# Density = 2.429578 g / cm^3
# Si number density = 24.351209 Si / 1000 Ang^3
#
#
#
# Elastic Constant Matrix: (Units=GPa)
#
#
# Indices 1 2 3 4 5 6 
#
# 1 114.3524 15.8480 20.9036 0.0000 1.8090 0.0000
# 2 15.8480 48.1960 51.5018 0.0000 -5.3989 0.0000
# 3 20.9036 51.5018 121.7005 0.0000 5.1900 0.0000
# 4 0.0000 0.0000 0.0000 31.5237 0.0000 -7.7863
# 5 1.8090 -5.3989 5.1900 0.0000 36.4830 0.0000
# 6 0.0000 0.0000 0.0000 -7.7863 0.0000 -33.3365
#
#
#
# Elastic Compliance Matrix: (Units=1/GPa)
#
#
# Indices 1 2 3 4 5 6 
#
# 1 0.009204 -0.002669 -0.000418 0.000000 -0.000792 0.000000
# 2 -0.002669 0.041080 -0.017296 0.000000 0.008672 0.000000
# 3 -0.000418 -0.017296 0.015812 0.000000 -0.004788 0.000000
# 4 0.000000 0.000000 0.000000 0.029992 0.000000 -0.007005
# 5 -0.000792 0.008672 -0.004788 0.000000 0.029414 0.000000
# 6 0.000000 0.000000 0.000000 -0.007005 0.000000 -0.028361
#
#
# Mechanical properties :
#
#
# Convention : Reuss Voigt Hill
#
# Bulk Modulus (GPa) = 39.47717 51.19508 45.33613
# Shear Modulus (GPa) = 34.16510 20.00041 27.08276
#
# Velocity S-wave (km/s) = 3.74975 2.86900 3.33854
# Velocity P-wave (km/s) = 5.91559 5.66075 5.78958
#
# Compressibility (1/GPa) = 0.02533110
#
# Stress axis : x y z
#
# Youngs Moduli (GPa) = 108.65273 24.34294 63.24258
#
# Poissons Ratio (x) = 0.06496 0.02642
# Poissons Ratio (y) = 0.28997 1.09383
# Poissons Ratio (z) = 0.04538 0.42103
#
# Static dielectric constant tensor:
#      x y z
#    x 1.942470 0.000000 -0.057180 
#    y 0.000000 1.900090 0.000000 
#    z -0.057180 0.000000 2.058720 
# 
# From -- ./inp_files/42570.got.cif
#   From: 2010.05.17/outbox.cif.g08.bks.cpg/sg15_22_cif.got.tgz:42570.got - 2010.06.03 18:47:42.
