data_PCOD9291691
_publ_section_title
;
Structure prediction by ZEFSAII (Michael W. Deem and Ramdas Pophale) SiO2 
 PCOD9291691
Probable space group: C 2/C
;
_chemical_formula_sum "Si O2"
_cell_formula_units_Z 24
_cell_length_a 5.117737
_cell_length_b 12.448205
_cell_length_c 13.759624
_cell_angle_alpha 90.000000
_cell_angle_beta 99.438617
_cell_angle_gamma 90.000000
_cell_volume 864.712146
_symmetry_space_group_name_H-M "C 2/C"
_symmetry_group_IT_number 15
_symmetry_cell_setting 'monoclinic'
loop_
_space_group_symop_operation_xyz
x,y,z
-x,y,1/2-z
-x,-y,-z
x,-y,1/2+z
1/2+x,1/2+y,z
1/2-x,1/2+y,1/2-z
1/2-x,1/2-y,-z
1/2+x,1/2-y,1/2+z
loop_
_atom_site_type_symbol
_atom_site_label
_atom_site_fract_x
_atom_site_fract_y
_atom_site_fract_z
Si Si1 0.879959 0.272951 0.637079
Si Si2 0.572103 0.120910 0.971270
Si Si3 0.715624 0.496657 0.180868
O O1 0.676155 0.181604 0.592543
O O2 0.101894 0.309986 0.571483
O O3 0.708664 0.383525 0.637025
O O4 0.000000 0.252566 0.750000
O O5 0.791921 0.092576 0.903883
O O6 0.500000 0.000000 0.000000
O O7 0.500000 0.486700 0.250000
O O8 0.000000 0.486192 0.250000
#
# Coordination Sequence:
#
# PCOD9291691 Si02
#       3
#     8   8   8
#     4   9  19  40  71 110 151 195 250 311 376 448
#     4   9  19  40  72 108 147 195 249 310 376 450
#     4  10  22  42  70 106 149 199 250 305 375 450
#
# _framework density 27.754898000000001
#
# number of rings (size 3 to 8) (size 9 to 14) (size 15 to 20)
#    0.000    2.667    0.000    0.000    0.000    2.667 
#    0.000   31.667    0.000   66.000    0.000    0.000 
#    0.000    0.000    0.000    0.000    0.000    0.000 
#
# Total GULP energy -67341.288998 kJ/mol
# GULP energy per Si atom -5611.774083 kJ/mol
# Density = 2.769173 g / cm^3
# Si number density = 27.754898 Si / 1000 Ang^3
#
#
#
# Elastic Constant Matrix: (Units=GPa)
#
#
# Indices 1 2 3 4 5 6 
#
# 1 185.1569 43.8617 76.9752 0.0000 -45.6999 0.0000
# 2 43.8617 233.7117 68.8218 0.0000 3.0333 0.0000
# 3 76.9752 68.8218 201.8605 0.0000 -27.8303 0.0000
# 4 0.0000 0.0000 0.0000 43.6263 0.0000 16.6958
# 5 -45.6999 3.0333 -27.8303 0.0000 63.6457 0.0000
# 6 0.0000 0.0000 0.0000 16.6958 0.0000 34.7384
#
#
#
# Elastic Compliance Matrix: (Units=1/GPa)
#
#
# Indices 1 2 3 4 5 6 
#
# 1 0.007563 -0.000909 -0.001936 0.000000 0.004627 0.000000
# 2 -0.000909 0.004926 -0.001548 0.000000 -0.001565 0.000000
# 3 -0.001936 -0.001548 0.006426 0.000000 0.001494 0.000000
# 4 0.000000 0.000000 0.000000 0.028088 0.000000 -0.013500
# 5 0.004627 -0.001565 0.001494 0.000000 0.019762 0.000000
# 6 0.000000 0.000000 0.000000 -0.013500 0.000000 0.035275
#
#
# Mechanical properties :
#
#
# Convention : Reuss Voigt Hill
#
# Bulk Modulus (GPa) = 98.74179 111.11628 104.92903
# Shear Modulus (GPa) = 43.78147 57.14010 50.46079
#
# Velocity S-wave (km/s) = 3.97600 4.54226 4.26853
# Velocity P-wave (km/s) = 7.53204 8.22382 7.88552
#
# Compressibility (1/GPa) = 0.01012742
#
# Stress axis : x y z
#
# Youngs Moduli (GPa) = 132.21822 203.01740 155.61831
#
# Poissons Ratio (x) = 0.18462 0.30129
# Poissons Ratio (y) = 0.12024 0.24095
# Poissons Ratio (z) = 0.25598 0.31433
#
# Static dielectric constant tensor:
#      x y z
#    x 2.140450 0.000000 -0.058190 
#    y 0.000000 2.166140 0.000000 
#    z -0.058190 0.000000 2.185480 
# 
# From -- ./inp_files/127815.got.cif
#   From: 2010.05.17/outbox.cif.g08.bks.cpg/sg15_64_cif.got.tgz:127815.got - 2010.06.03 18:47:42.
