data_PCOD9291017
_publ_section_title
;
Structure prediction by ZEFSAII (Michael W. Deem and Ramdas Pophale) SiO2 
 PCOD9291017
Probable space group: C 2/C
;
_chemical_formula_sum "Si O2"
_cell_formula_units_Z 64
_cell_length_a 9.457269
_cell_length_b 27.483281
_cell_length_c 23.400877
_cell_angle_alpha 90.000000
_cell_angle_beta 30.716416
_cell_angle_gamma 90.000000
_cell_volume 3106.763599
_symmetry_space_group_name_H-M "C 2/C"
_symmetry_group_IT_number 15
_symmetry_cell_setting 'monoclinic'
loop_
_space_group_symop_operation_xyz
x,y,z
-x,y,1/2-z
-x,-y,-z
x,-y,1/2+z
1/2+x,1/2+y,z
1/2-x,1/2+y,1/2-z
1/2-x,1/2-y,-z
1/2+x,1/2-y,1/2+z
loop_
_atom_site_type_symbol
_atom_site_label
_atom_site_fract_x
_atom_site_fract_y
_atom_site_fract_z
Si Si1 0.198168 0.736510 0.735398
Si Si2 0.899184 0.539198 0.720133
Si Si3 0.946374 0.297028 0.435510
Si Si4 0.265021 0.841458 0.694428
Si Si5 0.865510 0.083563 0.859571
Si Si6 0.182996 0.411139 0.011801
Si Si7 0.183096 0.571825 0.240826
Si Si8 0.245680 0.811143 0.058202
O O1 0.184895 0.793257 0.757936
O O2 0.507440 0.720684 0.613046
O O3 0.000000 0.730979 0.750000
O O4 0.106849 0.703707 0.819944
O O5 0.573108 0.550928 0.824275
O O6 0.918524 0.481233 0.704260
O O7 0.000000 0.550023 0.750000
O O8 0.073662 0.568013 0.610849
O O9 0.750000 0.250000 0.500000
O O10 0.824054 0.351690 0.485521
O O11 0.147013 0.288829 0.419701
O O12 0.360948 0.886807 0.697180
O O13 0.495285 0.821871 0.571600
O O14 0.000000 0.856643 0.750000
O O15 0.543728 0.072116 0.957328
O O16 0.874443 0.136263 0.884475
O O17 0.000000 0.086168 0.750000
O O18 0.491686 0.428151 0.889264
O O19 0.000000 0.585059 0.250000
#
# Coordination Sequence:
#
# PCOD9291017 Si02
#       8
#     8   8   8   8   8   8   8   8
#     4  11  23  38  58  91 127 163 212 260 311 381
#     4  10  23  41  64  95 125 158 207 264 318 375
#     4  11  22  40  65  91 127 171 211 257 315 373
#     4  11  24  42  60  88 125 162 214 264 312 379
#     4   9  19  38  62  90 120 157 205 250 304 374
#     4  10  22  42  63  89 125 163 209 254 308 381
#     4  11  26  43  62  91 125 163 207 260 323 383
#     4  11  22  39  63  90 124 165 207 260 313 366
#
# _framework density 20.600214999999999
#
# number of rings (size 3 to 8) (size 9 to 14) (size 15 to 20)
#    0.000    1.500    0.000    6.750    0.000   11.000 
#    0.000    0.000    0.000    0.000    0.000    0.000 
#    0.000    0.000    0.000    0.000    0.000    0.000 
#
# Total GULP energy -178743.955959 kJ/mol
# GULP energy per Si atom -5585.748624 kJ/mol
# Density = 2.055333 g / cm^3
# Si number density = 20.600215 Si / 1000 Ang^3
#
#
#
# Elastic Constant Matrix: (Units=GPa)
#
#
# Indices 1 2 3 4 5 6 
#
# 1 106.9363 64.9023 38.2166 -0.0007 -4.5023 -0.0019
# 2 64.9023 69.9806 6.9404 0.0012 -2.8275 0.0002
# 3 38.2166 6.9404 78.2300 0.0101 -8.7452 0.0081
# 4 -0.0007 0.0012 0.0101 47.2632 0.0044 18.2188
# 5 -4.5023 -2.8275 -8.7452 0.0044 14.1987 0.0019
# 6 -0.0019 0.0002 0.0081 18.2188 0.0019 45.9284
#
#
#
# Elastic Compliance Matrix: (Units=1/GPa)
#
#
# Indices 1 2 3 4 5 6 
#
# 1 0.029827 -0.026556 -0.012617 0.000003 -0.003602 0.000002
# 2 -0.026556 0.038128 0.010200 -0.000003 0.005454 -0.000002
# 3 -0.012617 0.010200 0.019139 -0.000004 0.009819 -0.000003
# 4 0.000003 -0.000003 -0.000004 0.024977 -0.000009 -0.009908
# 5 -0.003602 0.005454 0.009819 -0.000009 0.076421 -0.000002
# 6 0.000002 -0.000002 -0.000003 -0.009908 -0.000002 0.025703
#
#
# Mechanical properties :
#
#
# Convention : Reuss Voigt Hill
#
# Bulk Modulus (GPa) = 34.30917 52.80727 43.55822
# Shear Modulus (GPa) = 17.73948 31.15055 24.44502
#
# Velocity S-wave (km/s) = 2.93769 3.89285 3.44850
# Velocity P-wave (km/s) = 5.31014 6.77464 6.08660
#
# Compressibility (1/GPa) = 0.02914673
#
# Stress axis : x y z
#
# Youngs Moduli (GPa) = 33.52719 26.22772 52.24857
#
# Poissons Ratio (x) = 0.69651 0.65924
# Poissons Ratio (y) = 0.89036 -0.53295
# Poissons Ratio (z) = 0.42303 -0.26753
#
# Static dielectric constant tensor:
#      x y z
#    x 1.669130 0.000000 -0.067330 
#    y 0.000000 1.738380 0.000000 
#    z -0.067330 0.000000 1.684440 
# 
# From -- ./inp_files/266740.got.cif
#   From: 2010.05.17/outbox.cif.g08.bks.cpg/sg15_134_cif.got.tgz:266740.got - 2010.06.03 18:47:42.
