data_PCOD9291695
_publ_section_title
;
Structure prediction by ZEFSAII (Michael W. Deem and Ramdas Pophale) SiO2 
 PCOD9291695
Probable space group: C 2/C
;
_chemical_formula_sum "Si O2"
_cell_formula_units_Z 48
_cell_length_a 7.292172
_cell_length_b 11.926685
_cell_length_c 25.066928
_cell_angle_alpha 90.000000
_cell_angle_beta 106.915547
_cell_angle_gamma 90.000000
_cell_volume 2085.783741
_symmetry_space_group_name_H-M "C 2/C"
_symmetry_group_IT_number 15
_symmetry_cell_setting 'monoclinic'
loop_
_space_group_symop_operation_xyz
x,y,z
-x,y,1/2-z
-x,-y,-z
x,-y,1/2+z
1/2+x,1/2+y,z
1/2-x,1/2+y,1/2-z
1/2-x,1/2-y,-z
1/2+x,1/2-y,1/2+z
loop_
_atom_site_type_symbol
_atom_site_label
_atom_site_fract_x
_atom_site_fract_y
_atom_site_fract_z
Si Si1 0.487509 0.819402 0.688652
Si Si2 0.277377 0.292432 0.624918
Si Si3 0.919625 0.540951 0.634700
Si Si4 0.958615 0.235540 0.992476
Si Si5 0.519413 0.541852 0.069533
Si Si6 0.749121 0.643088 0.903580
O O1 0.500000 0.778385 0.750000
O O2 0.689594 0.824312 0.674289
O O3 0.430228 0.950798 0.682791
O O4 0.346121 0.735881 0.643513
O O5 0.088907 0.281875 0.570093
O O6 0.436691 0.367561 0.607713
O O7 0.360795 0.168351 0.640504
O O8 0.743580 0.486320 0.588083
O O9 0.112874 0.557998 0.617239
O O10 0.750000 0.250000 0.000000
O O11 0.988135 0.107151 0.011582
O O12 0.121068 0.301786 0.038726
O O13 0.408748 0.432863 0.081291
#
# Coordination Sequence:
#
# PCOD9291695 Si02
#       6
#     8   8   8   8   8   8
#     4  12  28  49  73 103 136 192 252 294 355 415
#     4  11  24  46  69 108 146 182 237 290 354 422
#     4  12  23  46  74 103 144 183 235 290 354 424
#     4  10  22  42  70 109 147 185 229 282 361 437
#     4  11  23  43  72 107 145 185 230 285 356 432
#     4  12  24  46  72 104 148 185 234 290 356 432
#
# _framework density 23.012930999999998
#
# number of rings (size 3 to 8) (size 9 to 14) (size 15 to 20)
#    0.000    0.667    8.333    0.000    0.000    6.667 
#    0.000    2.500    0.000    0.000    0.000    0.000 
#    0.000    0.000    0.000    0.000    0.000    0.000 
#
# Total GULP energy -133922.399255 kJ/mol
# GULP energy per Si atom -5580.099969 kJ/mol
# Density = 2.296055 g / cm^3
# Si number density = 23.012931 Si / 1000 Ang^3
#
#
#
# Elastic Constant Matrix: (Units=GPa)
#
#
# Indices 1 2 3 4 5 6 
#
# 1 87.9722 26.9762 44.1154 0.0000 -4.1182 0.0000
# 2 26.9762 139.7992 31.0248 0.0000 3.9432 0.0000
# 3 44.1154 31.0248 119.5736 0.0000 -21.4868 0.0000
# 4 0.0000 0.0000 0.0000 21.7236 0.0000 -4.1896
# 5 -4.1182 3.9432 -21.4868 0.0000 17.7670 0.0000
# 6 0.0000 0.0000 0.0000 -4.1896 0.0000 34.0384
#
#
#
# Elastic Compliance Matrix: (Units=1/GPa)
#
#
# Indices 1 2 3 4 5 6 
#
# 1 0.014426 -0.001489 -0.005463 0.000000 -0.002933 0.000000
# 2 -0.001489 0.008139 -0.002490 0.000000 -0.005163 0.000000
# 3 -0.005463 -0.002490 0.013922 0.000000 0.016123 0.000000
# 4 0.000000 0.000000 0.000000 0.047152 0.000000 0.005804
# 5 -0.002933 -0.005163 0.016123 0.000000 0.076249 0.000000
# 6 0.000000 0.000000 0.000000 0.005804 0.000000 0.030093
#
#
# Mechanical properties :
#
#
# Convention : Reuss Voigt Hill
#
# Bulk Modulus (GPa) = 56.80907 61.28640 59.04774
# Shear Modulus (GPa) = 23.28487 31.05437 27.16962
#
# Velocity S-wave (km/s) = 3.18436 3.67745 3.43975
# Velocity P-wave (km/s) = 6.18542 6.68734 6.44128
#
# Compressibility (1/GPa) = 0.01760282
#
# Stress axis : x y z
#
# Youngs Moduli (GPa) = 69.31944 122.87090 71.82918
#
# Poissons Ratio (x) = 0.18290 0.39241
# Poissons Ratio (y) = 0.10319 0.17887
# Poissons Ratio (z) = 0.37870 0.30597
#
# Static dielectric constant tensor:
#      x y z
#    x 1.904710 0.000000 -0.003870 
#    y 0.000000 1.962410 0.000000 
#    z -0.003870 0.000000 1.894920 
# 
# From -- ./inp_files/263231.got.cif
#   From: 2010.05.17/outbox.cif.g08.bks.cpg/sg15_132_cif.got.tgz:263231.got - 2010.06.03 18:47:42.
