data_PCOD9291611
_publ_section_title
;
Structure prediction by ZEFSAII (Michael W. Deem and Ramdas Pophale) SiO2 
 PCOD9291611
Probable space group: C 2/C
;
_chemical_formula_sum "Si O2"
_cell_formula_units_Z 48
_cell_length_a 10.501245
_cell_length_b 18.284208
_cell_length_c 11.422614
_cell_angle_alpha 90.000000
_cell_angle_beta 123.824858
_cell_angle_gamma 90.000000
_cell_volume 1822.003289
_symmetry_space_group_name_H-M "C 2/C"
_symmetry_group_IT_number 15
_symmetry_cell_setting 'monoclinic'
loop_
_space_group_symop_operation_xyz
x,y,z
-x,y,1/2-z
-x,-y,-z
x,-y,1/2+z
1/2+x,1/2+y,z
1/2-x,1/2+y,1/2-z
1/2-x,1/2-y,-z
1/2+x,1/2-y,1/2+z
loop_
_atom_site_type_symbol
_atom_site_label
_atom_site_fract_x
_atom_site_fract_y
_atom_site_fract_z
Si Si1 0.670988 0.837951 0.697177
Si Si2 0.825698 0.886435 0.140988
Si Si3 0.595023 0.268880 0.513224
Si Si4 0.819304 0.365230 0.181019
Si Si5 0.857617 0.202103 0.087772
Si Si6 0.821551 0.476386 0.632926
O O1 0.499558 0.803323 0.583990
O O2 0.743019 0.849805 0.606819
O O3 0.703994 0.912147 0.785146
O O4 0.764347 0.778631 0.822500
O O5 0.146525 0.816272 0.428568
O O6 0.734154 0.866089 0.211876
O O7 0.000000 0.914185 0.250000
O O8 0.725963 0.943328 0.015580
O O9 0.461958 0.308962 0.520888
O O10 0.748540 0.443208 0.105418
O O11 0.000000 0.370136 0.250000
O O12 0.794834 0.288672 0.093892
O O13 0.000000 0.200757 0.250000
O O14 0.000000 0.487345 0.750000
#
# Coordination Sequence:
#
# PCOD9291611 Si02
#       6
#     8   8   8   8   8   8
#     4  10  23  42  73 107 149 192 250 309 373 443
#     4  11  24  47  72 105 150 191 250 303 376 441
#     4  10  22  45  70 109 146 193 243 309 373 438
#     4  11  26  46  76 106 151 200 247 307 373 449
#     4  10  22  42  69 103 144 188 243 300 369 433
#     4  10  26  46  70 110 144 200 254 303 372 444
#
# _framework density 26.344626999999999
#
# number of rings (size 3 to 8) (size 9 to 14) (size 15 to 20)
#    0.000    1.667    1.667    0.500    4.667    9.333 
#    0.000    3.333    0.000    0.000    0.000    0.000 
#    0.000    0.000    0.000    0.000    0.000    0.000 
#
# Total GULP energy -133755.265640 kJ/mol
# GULP energy per Si atom -5573.136068 kJ/mol
# Density = 2.628467 g / cm^3
# Si number density = 26.344627 Si / 1000 Ang^3
#
#
#
# Elastic Constant Matrix: (Units=GPa)
#
#
# Indices 1 2 3 4 5 6 
#
# 1 164.9684 44.8348 54.2525 0.0000 -46.8087 0.0000
# 2 44.8348 183.3989 57.7307 0.0000 -38.1840 0.0000
# 3 54.2525 57.7307 186.3691 0.0000 -15.7235 0.0000
# 4 0.0000 0.0000 0.0000 104.3311 0.0000 -20.7301
# 5 -46.8087 -38.1840 -15.7235 0.0000 69.2119 0.0000
# 6 0.0000 0.0000 0.0000 -20.7301 0.0000 26.5759
#
#
#
# Elastic Compliance Matrix: (Units=1/GPa)
#
#
# Indices 1 2 3 4 5 6 
#
# 1 0.008160 -0.000400 -0.001840 0.000000 0.004880 0.000000
# 2 -0.000400 0.006723 -0.001709 0.000000 0.003051 0.000000
# 3 -0.001840 -0.001709 0.006368 0.000000 -0.000740 0.000000
# 4 0.000000 0.000000 0.000000 0.011343 0.000000 0.008848
# 5 0.004880 0.003051 -0.000740 0.000000 0.019264 0.000000
# 6 0.000000 0.000000 0.000000 0.008848 0.000000 0.044530
#
#
# Mechanical properties :
#
#
# Convention : Reuss Voigt Hill
#
# Bulk Modulus (GPa) = 74.87922 94.26359 84.57140
# Shear Modulus (GPa) = 45.98253 65.21837 55.60045
#
# Velocity S-wave (km/s) = 4.18236 4.98092 4.59901
# Velocity P-wave (km/s) = 7.19774 8.30290 7.76999
#
# Compressibility (1/GPa) = 0.01335484
#
# Stress axis : x y z
#
# Youngs Moduli (GPa) = 122.54538 148.73387 157.02998
#
# Poissons Ratio (x) = 0.05944 0.28892
# Poissons Ratio (y) = 0.04897 0.26836
# Poissons Ratio (z) = 0.22548 0.25418
#
# Static dielectric constant tensor:
#      x y z
#    x 2.103660 0.000000 0.095500 
#    y 0.000000 2.203420 0.000000 
#    z 0.095500 0.000000 2.130950 
# 
# From -- ./inp_files/89799.got.cif
#   From: 2010.05.17/outbox.cif.g08.bks.cpg/sg15_45_cif.got.tgz:89799.got - 2010.06.03 18:47:42.
