data_PCOD9291110
_publ_section_title
;
Structure prediction by ZEFSAII (Michael W. Deem and Ramdas Pophale) SiO2 
 PCOD9291110
Probable space group: C 2/C
;
_chemical_formula_sum "Si O2"
_cell_formula_units_Z 32
_cell_length_a 12.371185
_cell_length_b 6.395937
_cell_length_c 15.562700
_cell_angle_alpha 90.000000
_cell_angle_beta 96.903899
_cell_angle_gamma 90.000000
_cell_volume 1222.474910
_symmetry_space_group_name_H-M "C 2/C"
_symmetry_group_IT_number 15
_symmetry_cell_setting 'monoclinic'
loop_
_space_group_symop_operation_xyz
x,y,z
-x,y,1/2-z
-x,-y,-z
x,-y,1/2+z
1/2+x,1/2+y,z
1/2-x,1/2+y,1/2-z
1/2-x,1/2-y,-z
1/2+x,1/2-y,1/2+z
loop_
_atom_site_type_symbol
_atom_site_label
_atom_site_fract_x
_atom_site_fract_y
_atom_site_fract_z
Si Si1 0.063819 0.813557 0.077048
Si Si2 0.184844 0.425622 0.176362
Si Si3 0.227380 0.469916 0.870127
Si Si4 0.974881 0.219017 0.116677
O O1 0.124187 0.623739 0.129328
O O2 0.171046 0.950606 0.065078
O O3 0.005565 0.748781 0.984063
O O4 0.983566 0.965361 0.122864
O O5 0.243410 0.490449 0.269181
O O6 0.077897 0.286170 0.182496
O O7 0.263664 0.282142 0.125763
O O8 0.125196 0.621388 0.878640
#
# Coordination Sequence:
#
# PCOD9291110 Si02
#       4
#     8   8   8   8
#     4  10  22  42  64  94 135 176 230 294 342 425
#     4  11  22  40  63  94 136 176 230 288 348 421
#     4  11  22  40  63  94 135 179 227 289 352 414
#     4  10  23  40  65  96 131 181 233 283 354 421
#
# _framework density 26.176407999999999
#
# number of rings (size 3 to 8) (size 9 to 14) (size 15 to 20)
#    0.000    1.500    2.500    2.250    0.000    3.000 
#    0.000    2.500    0.000    0.000    0.000    0.000 
#    0.000    0.000    0.000    0.000    0.000    0.000 
#
# Total GULP energy -89161.346147 kJ/mol
# GULP energy per Si atom -5572.584134 kJ/mol
# Density = 2.611683 g / cm^3
# Si number density = 26.176408 Si / 1000 Ang^3
#
#
#
# Elastic Constant Matrix: (Units=GPa)
#
#
# Indices 1 2 3 4 5 6 
#
# 1 157.1713 78.5918 12.5920 0.0000 28.6958 0.0000
# 2 78.5918 193.2042 25.0822 0.0000 -8.9524 0.0000
# 3 12.5920 25.0822 66.5027 0.0000 25.2426 0.0000
# 4 0.0000 0.0000 0.0000 33.6639 0.0000 17.1143
# 5 28.6958 -8.9524 25.2426 0.0000 32.1414 0.0000
# 6 0.0000 0.0000 0.0000 17.1143 0.0000 73.7246
#
#
#
# Elastic Compliance Matrix: (Units=1/GPa)
#
#
# Indices 1 2 3 4 5 6 
#
# 1 0.012875 -0.007134 0.007651 0.000000 -0.019491 0.000000
# 2 -0.007134 0.009883 -0.008319 0.000000 0.015655 0.000000
# 3 0.007651 -0.008319 0.028777 0.000000 -0.031748 0.000000
# 4 0.000000 0.000000 0.000000 0.033680 0.000000 -0.007818
# 5 -0.019491 0.015655 -0.031748 0.000000 0.077808 0.000000
# 6 0.000000 0.000000 0.000000 -0.007818 0.000000 0.015379
#
#
# Mechanical properties :
#
#
# Convention : Reuss Voigt Hill
#
# Bulk Modulus (GPa) = 27.83125 72.15670 49.99397
# Shear Modulus (GPa) = 24.27381 47.94678 36.11029
#
# Velocity S-wave (km/s) = 3.04849 4.28446 3.71819
# Velocity P-wave (km/s) = 4.80066 7.21809 6.12973
#
# Compressibility (1/GPa) = 0.03593083
#
# Stress axis : x y z
#
# Youngs Moduli (GPa) = 77.66838 101.18185 34.75048
#
# Poissons Ratio (x) = 0.72181 -0.26587
# Poissons Ratio (y) = 0.55407 0.28909
# Poissons Ratio (z) = -0.59423 0.84175
#
# Static dielectric constant tensor:
#      x y z
#    x 2.082340 0.000000 -0.087140 
#    y 0.000000 2.294070 0.000000 
#    z -0.087140 0.000000 1.934700 
# 
# From -- ./inp_files/201882.got.cif
#   From: 2010.05.17/outbox.cif.g08.bks.cpg/sg15_101_cif.got.tgz:201882.got - 2010.06.03 18:47:42.
