data_PCOD9291620
_publ_section_title
;
Structure prediction by ZEFSAII (Michael W. Deem and Ramdas Pophale) SiO2 
 PCOD9291620
Probable space group: C 2/C
;
_chemical_formula_sum "Si O2"
_cell_formula_units_Z 40
_cell_length_a 9.085312
_cell_length_b 20.196944
_cell_length_c 10.757124
_cell_angle_alpha 90.000000
_cell_angle_beta 50.809467
_cell_angle_gamma 90.000000
_cell_volume 1529.856835
_symmetry_space_group_name_H-M "C 2/C"
_symmetry_group_IT_number 15
_symmetry_cell_setting 'monoclinic'
loop_
_space_group_symop_operation_xyz
x,y,z
-x,y,1/2-z
-x,-y,-z
x,-y,1/2+z
1/2+x,1/2+y,z
1/2-x,1/2+y,1/2-z
1/2-x,1/2-y,-z
1/2+x,1/2-y,1/2+z
loop_
_atom_site_type_symbol
_atom_site_label
_atom_site_fract_x
_atom_site_fract_y
_atom_site_fract_z
Si Si1 0.000000 0.014817 0.250000
Si Si2 0.265612 0.844542 0.223943
Si Si3 0.890665 0.108290 0.958781
Si Si4 0.205952 0.786290 0.653252
Si Si5 0.590956 0.081762 0.461612
Si Si6 0.500000 0.931500 0.750000
O O1 0.199313 0.052707 0.134220
O O2 0.022329 0.963223 0.123811
O O3 0.190291 0.856426 0.123339
O O4 0.317835 0.770187 0.229570
O O5 0.077109 0.855763 0.408177
O O6 0.428192 0.900640 0.150770
O O7 0.707131 0.102114 0.140685
O O8 0.250000 0.750000 0.500000
O O9 0.366223 0.840323 0.593827
O O10 0.000000 0.818999 0.750000
O O11 0.497969 0.042286 0.393543
#
# Coordination Sequence:
#
# PCOD9291620 Si02
#       6
#     4   8   8   8   8   4
#     4  10  22  42  69  90 137 174 214 272 318 388
#     4   9  21  41  63  90 129 165 215 260 321 384
#     4   9  22  44  68  93 126 174 216 270 327 382
#     4  12  24  40  63  97 131 172 215 267 326 387
#     4  11  23  41  64  97 133 173 212 269 325 389
#     4  10  24  40  65  96 129 168 224 264 328 386
#
# _framework density 26.146239000000001
#
# number of rings (size 3 to 8) (size 9 to 14) (size 15 to 20)
#    0.000    2.000    3.000    0.000    2.800    9.600 
#    0.000   11.000    8.800    0.000    0.000    0.000 
#    0.000    0.000    0.000    0.000    0.000    0.000 
#
# Total GULP energy -111458.957606 kJ/mol
# GULP energy per Si atom -5572.947880 kJ/mol
# Density = 2.608673 g / cm^3
# Si number density = 26.146239 Si / 1000 Ang^3
#
#
#
# Elastic Constant Matrix: (Units=GPa)
#
#
# Indices 1 2 3 4 5 6 
#
# 1 78.5031 23.6200 38.0968 0.0000 -20.4375 0.0000
# 2 23.6200 84.6572 1.7265 0.0000 -18.9537 0.0000
# 3 38.0968 1.7265 138.1598 0.0000 -41.6656 0.0000
# 4 0.0000 0.0000 0.0000 8.7348 0.0000 -4.5661
# 5 -20.4375 -18.9537 -41.6656 0.0000 70.5711 0.0000
# 6 0.0000 0.0000 0.0000 -4.5661 0.0000 41.0914
#
#
#
# Elastic Compliance Matrix: (Units=1/GPa)
#
#
# Indices 1 2 3 4 5 6 
#
# 1 0.016290 -0.004198 -0.004084 0.000000 0.001179 0.000000
# 2 -0.004198 0.013776 0.002110 0.000000 0.003730 0.000000
# 3 -0.004084 0.002110 0.009918 0.000000 0.005240 0.000000
# 4 0.000000 0.000000 0.000000 0.121545 0.000000 0.013506
# 5 0.001179 0.003730 0.005240 0.000000 0.018607 0.000000
# 6 0.000000 0.000000 0.000000 0.013506 0.000000 0.025837
#
#
# Mechanical properties :
#
#
# Convention : Reuss Voigt Hill
#
# Bulk Modulus (GPa) = 36.17837 47.57852 41.87844
# Shear Modulus (GPa) = 21.97524 39.93791 30.95658
#
# Velocity S-wave (km/s) = 2.90224 3.91254 3.44463
# Velocity P-wave (km/s) = 5.00975 6.21669 5.64557
#
# Compressibility (1/GPa) = 0.02764083
#
# Stress axis : x y z
#
# Youngs Moduli (GPa) = 61.38647 72.59190 100.82791
#
# Poissons Ratio (x) = 0.30473 0.41177
# Poissons Ratio (y) = 0.25769 -0.21277
# Poissons Ratio (z) = 0.25070 -0.15319
#
# Static dielectric constant tensor:
#      x y z
#    x 2.055560 0.000000 0.052450 
#    y 0.000000 2.104320 0.000000 
#    z 0.052450 0.000000 2.172340 
# 
# From -- ./inp_files/145408.got.cif
#   From: 2010.05.17/outbox.cif.g08.bks.cpg/sg15_73_cif.got.tgz:145408.got - 2010.06.03 18:47:42.
