data_PCOD9291263
_publ_section_title
;
Structure prediction by ZEFSAII (Michael W. Deem and Ramdas Pophale) SiO2 
 PCOD9291263
Probable space group: C 2/C
;
_chemical_formula_sum "Si O2"
_cell_formula_units_Z 48
_cell_length_a 15.685997
_cell_length_b 30.497929
_cell_length_c 9.079502
_cell_angle_alpha 90.000000
_cell_angle_beta 32.423346
_cell_angle_gamma 90.000000
_cell_volume 2328.882894
_symmetry_space_group_name_H-M "C 2/C"
_symmetry_group_IT_number 15
_symmetry_cell_setting 'monoclinic'
loop_
_space_group_symop_operation_xyz
x,y,z
-x,y,1/2-z
-x,-y,-z
x,-y,1/2+z
1/2+x,1/2+y,z
1/2-x,1/2+y,1/2-z
1/2-x,1/2-y,-z
1/2+x,1/2-y,1/2+z
loop_
_atom_site_type_symbol
_atom_site_label
_atom_site_fract_x
_atom_site_fract_y
_atom_site_fract_z
Si Si1 0.663406 0.946264 0.292990
Si Si2 0.000000 0.513819 0.750000
Si Si3 0.330756 0.341288 0.801900
Si Si4 0.230413 0.694102 0.159248
Si Si5 0.628703 0.288033 0.353166
Si Si6 0.396415 0.846171 0.113349
Si Si7 0.000000 0.913865 0.750000
O O1 0.605010 0.982365 0.493039
O O2 0.598859 0.897778 0.425359
O O3 0.602257 0.958160 0.217713
O O4 0.852996 0.942050 0.019583
O O5 0.298446 0.340521 0.675865
O O6 0.449676 0.300410 0.656994
O O7 0.426197 0.382355 0.731057
O O8 0.163971 0.339876 0.130478
O O9 0.184685 0.739247 0.308696
O O10 0.064235 0.676042 0.338790
O O11 0.349852 0.706445 0.854366
O O12 0.752109 0.322819 0.239154
#
# Coordination Sequence:
#
# PCOD9291263 Si02
#       7
#     8   4   8   8   8   8   4
#     4  10  23  43  68  97 127 160 205 254 323 376
#     4  10  24  44  70  99 124 154 203 268 312 388
#     4  11  21  40  57  89 120 165 209 258 300 357
#     4  11  25  35  62  89 126 169 218 259 305 360
#     4  11  22  42  55  90 127 169 214 263 308 357
#     4  11  23  39  64  91 126 169 208 257 308 373
#     4  10  22  42  66  89 130 160 203 250 308 386
#
# _framework density 20.610741000000001
#
# number of rings (size 3 to 8) (size 9 to 14) (size 15 to 20)
#    0.000    1.333    3.333    2.500    7.000    7.333 
#    0.000    0.000    0.000    0.000    0.000    0.000 
#    0.000    0.000    0.000    0.000    0.000    0.000 
#
# Total GULP energy -134088.281157 kJ/mol
# GULP energy per Si atom -5587.011715 kJ/mol
# Density = 2.056383 g / cm^3
# Si number density = 20.610741 Si / 1000 Ang^3
#
#
#
# Elastic Constant Matrix: (Units=GPa)
#
#
# Indices 1 2 3 4 5 6 
#
# 1 71.4144 7.8572 0.5659 0.0000 1.3000 0.0000
# 2 7.8572 79.8378 9.4113 0.0000 -5.6183 0.0000
# 3 0.5659 9.4113 73.0665 0.0000 -10.4156 0.0000
# 4 0.0000 0.0000 0.0000 33.6284 0.0000 2.5224
# 5 1.3000 -5.6183 -10.4156 0.0000 24.1547 0.0000
# 6 0.0000 0.0000 0.0000 2.5224 0.0000 15.3200
#
#
#
# Elastic Compliance Matrix: (Units=1/GPa)
#
#
# Indices 1 2 3 4 5 6 
#
# 1 0.014186 -0.001466 -0.000084 0.000000 -0.001141 0.000000
# 2 -0.001466 0.013002 -0.001301 0.000000 0.002542 0.000000
# 3 -0.000084 -0.001301 0.014716 0.000000 0.006048 0.000000
# 4 0.000000 0.000000 0.000000 0.030109 0.000000 -0.004957
# 5 -0.001141 0.002542 0.006048 0.000000 0.044660 0.000000
# 6 0.000000 0.000000 0.000000 -0.004957 0.000000 0.066090
#
#
# Mechanical properties :
#
#
# Convention : Reuss Voigt Hill
#
# Bulk Modulus (GPa) = 27.62281 28.88749 28.25515
# Shear Modulus (GPa) = 24.93363 28.38626 26.65995
#
# Velocity S-wave (km/s) = 3.48190 3.71517 3.60042
# Velocity P-wave (km/s) = 5.44023 5.69644 5.56981
#
# Compressibility (1/GPa) = 0.03620197
#
# Stress axis : x y z
#
# Youngs Moduli (GPa) = 70.49427 76.91140 67.95110
#
# Poissons Ratio (x) = 0.11279 0.00568
# Poissons Ratio (y) = 0.10338 0.08840
# Poissons Ratio (z) = 0.00589 0.10006
#
# Static dielectric constant tensor:
#      x y z
#    x 1.768280 0.000000 0.038420 
#    y 0.000000 1.716640 0.000000 
#    z 0.038420 0.000000 1.753590 
# 
# From -- ./inp_files/44448.got.cif
#   From: 2010.05.17/outbox.cif.g08.bks.cpg/sg15_23_cif.got.tgz:44448.got - 2010.06.03 18:47:42.
