data_PCOD9291214
_publ_section_title
;
Structure prediction by ZEFSAII (Michael W. Deem and Ramdas Pophale) SiO2 
 PCOD9291214
Probable space group: C 2/C
;
_chemical_formula_sum "Si O2"
_cell_formula_units_Z 56
_cell_length_a 18.740564
_cell_length_b 5.482046
_cell_length_c 23.465915
_cell_angle_alpha 90.000000
_cell_angle_beta 100.155881
_cell_angle_gamma 90.000000
_cell_volume 2373.035779
_symmetry_space_group_name_H-M "C 2/C"
_symmetry_group_IT_number 15
_symmetry_cell_setting 'monoclinic'
loop_
_space_group_symop_operation_xyz
x,y,z
-x,y,1/2-z
-x,-y,-z
x,-y,1/2+z
1/2+x,1/2+y,z
1/2-x,1/2+y,1/2-z
1/2-x,1/2-y,-z
1/2+x,1/2-y,1/2+z
loop_
_atom_site_type_symbol
_atom_site_label
_atom_site_fract_x
_atom_site_fract_y
_atom_site_fract_z
Si Si1 0.046125 0.456378 0.927228
Si Si2 0.465685 0.991989 0.307417
Si Si3 0.923021 0.998464 0.272061
Si Si4 0.268196 0.635714 0.218469
Si Si5 0.812823 0.434688 0.519796
Si Si6 0.432167 0.671126 0.978003
Si Si7 0.789617 0.783751 0.412921
O O1 0.114618 0.290551 0.952249
O O2 0.031570 0.470745 0.859411
O O3 0.970207 0.378244 0.943553
O O4 0.077548 0.698960 0.961651
O O5 0.500000 0.969685 0.250000
O O6 0.415723 0.232795 0.299888
O O7 0.429787 0.730593 0.315017
O O8 0.853617 0.065650 0.224208
O O9 0.000000 0.979718 0.250000
O O10 0.237840 0.389870 0.245804
O O11 0.230813 0.694962 0.152641
O O12 0.750000 0.250000 0.500000
O O13 0.815071 0.570773 0.459360
O O14 0.780423 0.597029 0.567044
O O15 0.363992 0.560216 0.933874
O O16 0.500000 0.500000 0.000000
#
# Coordination Sequence:
#
# PCOD9291214 Si02
#       7
#     8   8   8   8   8   8   8
#     4  10  23  38  65  96 129 170 230 279 344 408
#     4  10  23  41  66 103 133 176 228 291 342 405
#     4  10  24  45  70  99 138 184 244 281 346 413
#     4  12  29  48  72 107 149 196 235 294 372 435
#     4  10  22  43  69  98 130 181 231 296 350 411
#     4  10  22  42  65  96 132 178 225 284 349 415
#     4  10  25  43  66 101 140 178 239 289 356 426
#
# _framework density 23.598462999999999
#
# number of rings (size 3 to 8) (size 9 to 14) (size 15 to 20)
#    0.000    1.714    0.000    1.714   12.000    2.286 
#    0.000    0.000    0.000    0.000    0.000    0.000 
#    0.000    0.000    0.000    0.000    0.000    0.000 
#
# Total GULP energy -156027.939786 kJ/mol
# GULP energy per Si atom -5572.426421 kJ/mol
# Density = 2.354475 g / cm^3
# Si number density = 23.598463 Si / 1000 Ang^3
#
#
#
# Elastic Constant Matrix: (Units=GPa)
#
#
# Indices 1 2 3 4 5 6 
#
# 1 128.5058 -9.1080 40.7273 0.0000 10.0260 0.0000
# 2 -9.1080 90.5468 14.9416 0.0000 -11.1571 0.0000
# 3 40.7273 14.9416 164.8898 0.0000 6.6898 0.0000
# 4 0.0000 0.0000 0.0000 20.2877 0.0000 7.5281
# 5 10.0260 -11.1571 6.6898 0.0000 29.0183 0.0000
# 6 0.0000 0.0000 0.0000 7.5281 0.0000 23.4582
#
#
#
# Elastic Compliance Matrix: (Units=1/GPa)
#
#
# Indices 1 2 3 4 5 6 
#
# 1 0.008698 0.000966 -0.002149 0.000000 -0.002138 0.000000
# 2 0.000966 0.011959 -0.001509 0.000000 0.004612 0.000000
# 3 -0.002149 -0.001509 0.006789 0.000000 -0.001403 0.000000
# 4 0.000000 0.000000 0.000000 0.055954 0.000000 -0.017956
# 5 -0.002138 0.004612 -0.001403 0.000000 0.037296 0.000000
# 6 0.000000 0.000000 0.000000 -0.017956 0.000000 0.048391
#
#
# Mechanical properties :
#
#
# Convention : Reuss Voigt Hill
#
# Bulk Modulus (GPa) = 45.32888 53.00714 49.16801
# Shear Modulus (GPa) = 27.49875 37.04496 32.27185
#
# Velocity S-wave (km/s) = 3.41732 3.96637 3.70204
# Velocity P-wave (km/s) = 5.90092 6.59447 6.25731
#
# Compressibility (1/GPa) = 0.02206099
#
# Stress axis : x y z
#
# Youngs Moduli (GPa) = 114.96622 83.62208 147.29279
#
# Poissons Ratio (x) = -0.08079 0.31656
# Poissons Ratio (y) = -0.11107 0.22232
# Poissons Ratio (z) = 0.24709 0.12622
#
# Static dielectric constant tensor:
#      x y z
#    x 3.035630 0.000000 0.103170 
#    y 0.000000 2.391730 0.000000 
#    z 0.103170 0.000000 1.853960 
# 
# From -- ./inp_files/278970.got.cif
#   From: 2010.05.17/outbox.cif.g08.bks.cpg/sg15_140_cif.got.tgz:278970.got - 2010.06.03 18:47:42.
