data_PCOD9291762
_publ_section_title
;
Structure prediction by ZEFSAII (Michael W. Deem and Ramdas Pophale) SiO2 
 PCOD9291762
Probable space group: C 2/C
;
_chemical_formula_sum "Si O2"
_cell_formula_units_Z 40
_cell_length_a 24.102515
_cell_length_b 17.459311
_cell_length_c 15.644838
_cell_angle_alpha 90.000000
_cell_angle_beta 164.273340
_cell_angle_gamma 90.000000
_cell_volume 1784.462065
_symmetry_space_group_name_H-M "C 2/C"
_symmetry_group_IT_number 15
_symmetry_cell_setting 'monoclinic'
loop_
_space_group_symop_operation_xyz
x,y,z
-x,y,1/2-z
-x,-y,-z
x,-y,1/2+z
1/2+x,1/2+y,z
1/2-x,1/2+y,1/2-z
1/2-x,1/2-y,-z
1/2+x,1/2-y,1/2+z
loop_
_atom_site_type_symbol
_atom_site_label
_atom_site_fract_x
_atom_site_fract_y
_atom_site_fract_z
Si Si1 0.376192 0.150553 0.201354
Si Si2 0.265237 0.583930 0.235535
Si Si3 0.019284 0.275418 0.178934
Si Si4 0.573331 0.287996 0.124342
Si Si5 0.000000 0.529799 0.250000
Si Si6 0.500000 0.581952 0.750000
O O1 0.504277 0.207851 0.450383
O O2 0.470341 0.078006 0.293058
O O3 0.285200 0.196494 0.985731
O O4 0.181556 0.127330 0.971216
O O5 0.422017 0.643878 0.424901
O O6 0.374139 0.548261 0.481399
O O7 0.194009 0.522791 0.060263
O O8 0.066722 0.637742 0.963152
O O9 0.250000 0.250000 0.500000
O O10 0.000000 0.261079 0.250000
O O11 0.895603 0.223520 0.929025
#
# Coordination Sequence:
#
# PCOD9291762 Si02
#       6
#     8   8   8   8   4   4
#     4  10  24  40  75  99 134 178 239 284 345 411
#     4  11  23  44  69  97 149 179 228 289 359 402
#     4  12  22  38  65  98 137 181 226 287 347 405
#     4  10  22  42  71 103 131 179 242 286 333 416
#     4  12  26  43  68 105 144 190 218 294 358 417
#     4  10  22  43  66  95 134 184 226 290 340 413
#
# _framework density 22.415718999999999
#
# number of rings (size 3 to 8) (size 9 to 14) (size 15 to 20)
#    0.000    1.200    5.000    0.000    2.800    5.600 
#    0.000    0.000   15.400    0.000    0.000    0.000 
#    0.000    0.000    0.000    0.000    0.000    0.000 
#
# Total GULP energy -111489.071822 kJ/mol
# GULP energy per Si atom -5574.453591 kJ/mol
# Density = 2.236470 g / cm^3
# Si number density = 22.415719 Si / 1000 Ang^3
#
#
#
# Elastic Constant Matrix: (Units=GPa)
#
#
# Indices 1 2 3 4 5 6 
#
# 1 115.8648 24.5511 43.2941 0.0000 -17.0671 0.0000
# 2 24.5511 68.3732 19.2040 0.0000 -2.2854 0.0000
# 3 43.2941 19.2040 67.4000 0.0000 -20.4657 0.0000
# 4 0.0000 0.0000 0.0000 16.5637 0.0000 -5.5365
# 5 -17.0671 -2.2854 -20.4657 0.0000 57.0126 0.0000
# 6 0.0000 0.0000 0.0000 -5.5365 0.0000 12.4532
#
#
#
# Elastic Compliance Matrix: (Units=1/GPa)
#
#
# Indices 1 2 3 4 5 6 
#
# 1 0.011728 -0.002338 -0.006543 0.000000 0.001068 0.000000
# 2 -0.002338 0.016427 -0.003582 0.000000 -0.001327 0.000000
# 3 -0.006543 -0.003582 0.021798 0.000000 0.005722 0.000000
# 4 0.000000 0.000000 0.000000 0.070910 0.000000 0.031525
# 5 0.001068 -0.001327 0.005722 0.000000 0.019861 0.000000
# 6 0.000000 0.000000 0.000000 0.031525 0.000000 0.094316
#
#
# Mechanical properties :
#
#
# Convention : Reuss Voigt Hill
#
# Bulk Modulus (GPa) = 39.95578 47.30406 43.62992
# Shear Modulus (GPa) = 18.63528 28.17850 23.40689
#
# Velocity S-wave (km/s) = 2.88644 3.54939 3.23494
# Velocity P-wave (km/s) = 5.38259 6.16007 5.78441
#
# Compressibility (1/GPa) = 0.02502767
#
# Stress axis : x y z
#
# Youngs Moduli (GPa) = 85.26277 60.87649 45.87609
#
# Poissons Ratio (x) = 0.14232 0.30017
# Poissons Ratio (y) = 0.19934 0.16431
# Poissons Ratio (z) = 0.55789 0.21804
#
# Static dielectric constant tensor:
#      x y z
#    x 1.851660 0.000000 0.019680 
#    y 0.000000 1.907010 0.000000 
#    z 0.019680 0.000000 1.951870 
# 
# From -- ./inp_files/174157.got.cif
#   From: 2010.05.17/outbox.cif.g08.bks.cpg/sg15_88_cif.got.tgz:174157.got - 2010.06.03 18:47:42.
