data_PCOD9291913
_publ_section_title
;
Structure prediction by ZEFSAII (Michael W. Deem and Ramdas Pophale) SiO2 
 PCOD9291913
Probable space group: C 2/C
;
_chemical_formula_sum "Si O2"
_cell_formula_units_Z 48
_cell_length_a 30.513491
_cell_length_b 8.977480
_cell_length_c 15.137272
_cell_angle_alpha 90.000000
_cell_angle_beta 151.056619
_cell_angle_gamma 90.000000
_cell_volume 2006.735118
_symmetry_space_group_name_H-M "C 2/C"
_symmetry_group_IT_number 15
_symmetry_cell_setting 'monoclinic'
loop_
_space_group_symop_operation_xyz
x,y,z
-x,y,1/2-z
-x,-y,-z
x,-y,1/2+z
1/2+x,1/2+y,z
1/2-x,1/2+y,1/2-z
1/2-x,1/2-y,-z
1/2+x,1/2-y,1/2+z
loop_
_atom_site_type_symbol
_atom_site_label
_atom_site_fract_x
_atom_site_fract_y
_atom_site_fract_z
Si Si1 0.894803 0.581960 0.535401
Si Si2 0.780613 0.065024 0.483780
Si Si3 0.449891 0.887623 0.477892
Si Si4 0.105587 0.076783 0.470572
Si Si5 0.855568 0.615251 0.122534
Si Si6 0.597409 0.565574 0.145566
O O1 0.889591 0.469981 0.444441
O O2 0.872196 0.750326 0.471282
O O3 0.844924 0.513488 0.531615
O O4 0.000000 0.587597 0.750000
O O5 0.799206 0.238797 0.499327
O O6 0.679265 0.057960 0.343661
O O7 0.823916 0.978040 0.478814
O O8 0.835280 0.007220 0.665977
O O9 0.540169 0.831133 0.690384
O O10 0.405555 0.744622 0.354569
O O11 0.500000 0.000000 0.500000
O O12 0.000000 0.065643 0.250000
O O13 0.115341 0.982639 0.576803
O O14 0.500000 0.500000 0.000000
#
# Coordination Sequence:
#
# PCOD9291913 Si02
#       6
#     8   8   8   8   8   8
#     4   9  21  38  62  88 123 168 213 263 322 386
#     4  11  24  41  66  94 134 171 214 272 331 389
#     4  11  22  39  66  92 126 165 219 269 322 393
#     4  11  21  39  64  93 126 169 219 268 320 391
#     4  10  22  43  61  91 131 169 209 267 337 379
#     4  12  22  39  66  97 124 170 226 266 319 397
#
# _framework density 23.919450000000001
#
# number of rings (size 3 to 8) (size 9 to 14) (size 15 to 20)
#    0.000    1.333    3.333    2.000    4.667    2.000 
#    3.000    0.000    0.000    0.000    0.000    0.000 
#    0.000    0.000    0.000    0.000    0.000    0.000 
#
# Total GULP energy -134345.391017 kJ/mol
# GULP energy per Si atom -5597.724626 kJ/mol
# Density = 2.386501 g / cm^3
# Si number density = 23.919450 Si / 1000 Ang^3
#
#
#
# Elastic Constant Matrix: (Units=GPa)
#
#
# Indices 1 2 3 4 5 6 
#
# 1 172.7459 50.7006 24.0507 0.0000 0.9748 0.0000
# 2 50.7006 156.3737 3.2403 0.0000 -2.1407 0.0000
# 3 24.0507 3.2403 65.8987 0.0000 2.8305 0.0000
# 4 0.0000 0.0000 0.0000 18.4157 0.0000 -9.9068
# 5 0.9748 -2.1407 2.8305 0.0000 36.2562 0.0000
# 6 0.0000 0.0000 0.0000 -9.9068 0.0000 46.9022
#
#
#
# Elastic Compliance Matrix: (Units=1/GPa)
#
#
# Indices 1 2 3 4 5 6 
#
# 1 0.006745 -0.002140 -0.002351 0.000000 -0.000124 0.000000
# 2 -0.002140 0.007086 0.000413 0.000000 0.000444 0.000000
# 3 -0.002351 0.000413 0.016063 0.000000 -0.001166 0.000000
# 4 0.000000 0.000000 0.000000 0.061263 0.000000 0.012940
# 5 -0.000124 0.000444 -0.001166 0.000000 0.027702 0.000000
# 6 0.000000 0.000000 0.000000 0.012940 0.000000 0.024054
#
#
# Mechanical properties :
#
#
# Convention : Reuss Voigt Hill
#
# Bulk Modulus (GPa) = 46.00065 61.22239 53.61152
# Shear Modulus (GPa) = 31.58283 41.44995 36.51639
#
# Velocity S-wave (km/s) = 3.63765 4.16732 3.91146
# Velocity P-wave (km/s) = 6.07590 6.98615 6.54686
#
# Compressibility (1/GPa) = 0.02173882
#
# Stress axis : x y z
#
# Youngs Moduli (GPa) = 148.25947 141.11847 62.25629
#
# Poissons Ratio (x) = 0.30198 0.14637
# Poissons Ratio (y) = 0.31726 -0.02574
# Poissons Ratio (z) = 0.34857 -0.05835
#
# Static dielectric constant tensor:
#      x y z
#    x 1.885810 0.000000 0.033200 
#    y 0.000000 1.857600 0.000000 
#    z 0.033200 0.000000 2.097050 
# 
# From -- ./inp_files/180910.got.cif
#   From: 2010.05.17/outbox.cif.g08.bks.cpg/sg15_91_cif.got.tgz:180910.got - 2010.06.03 18:47:42.
