data_PCOD9291925
_publ_section_title
;
Structure prediction by ZEFSAII (Michael W. Deem and Ramdas Pophale) SiO2 
 PCOD9291925
Probable space group: C 2/C
;
_chemical_formula_sum "Si O2"
_cell_formula_units_Z 52
_cell_length_a 20.890891
_cell_length_b 5.461508
_cell_length_c 22.817576
_cell_angle_alpha 90.000000
_cell_angle_beta 52.733390
_cell_angle_gamma 90.000000
_cell_volume 2071.845835
_symmetry_space_group_name_H-M "C 2/C"
_symmetry_group_IT_number 15
_symmetry_cell_setting 'monoclinic'
loop_
_space_group_symop_operation_xyz
x,y,z
-x,y,1/2-z
-x,-y,-z
x,-y,1/2+z
1/2+x,1/2+y,z
1/2-x,1/2+y,1/2-z
1/2-x,1/2-y,-z
1/2+x,1/2-y,1/2+z
loop_
_atom_site_type_symbol
_atom_site_label
_atom_site_fract_x
_atom_site_fract_y
_atom_site_fract_z
Si Si1 0.284407 0.193291 0.757047
Si Si2 0.846074 0.147278 0.333157
Si Si3 0.387121 0.001161 0.501320
Si Si4 0.548148 0.625222 0.817243
Si Si5 0.872849 0.013152 0.443008
Si Si6 0.500000 0.011989 0.750000
Si Si7 0.420536 0.001468 0.613777
O O1 0.249158 0.435551 0.747002
O O2 0.281156 0.216584 0.829003
O O3 0.377944 0.176422 0.684412
O O4 0.919690 0.332450 0.302084
O O5 0.884497 0.954648 0.266294
O O6 0.827436 0.027236 0.405688
O O7 0.352298 0.753807 0.492166
O O8 0.375011 0.030511 0.577664
O O9 0.363803 0.253033 0.481102
O O10 0.484369 0.964452 0.444943
O O11 0.468817 0.469367 0.874738
O O12 0.508653 0.850653 0.803102
O O13 0.585400 0.728363 0.856317
#
# Coordination Sequence:
#
# PCOD9291925 Si02
#       7
#     8   8   8   8   8   4   8
#     4  12  28  44  65  93 131 185 220 264 319 387
#     4  12  22  36  63  94 134 165 217 275 333 390
#     4  10  24  38  65  98 128 173 202 275 338 378
#     4  11  20  32  60  96 132 169 199 272 351 388
#     4  11  21  36  59  96 131 155 209 262 342 396
#     4  12  18  34  58 102 124 170 192 282 358 378
#     4  10  22  43  62  91 135 168 223 261 320 401
#
# _framework density 25.098390999999999
#
# number of rings (size 3 to 8) (size 9 to 14) (size 15 to 20)
#    0.000    0.923    4.615    3.692    0.000    9.231 
#    0.000    0.000    0.000    5.538    0.000    0.000 
#    0.000    0.000    0.000    0.000    0.000    0.000 
#
# Total GULP energy -145480.249586 kJ/mol
# GULP energy per Si atom -5595.394215 kJ/mol
# Density = 2.504127 g / cm^3
# Si number density = 25.098391 Si / 1000 Ang^3
#
#
#
# Elastic Constant Matrix: (Units=GPa)
#
#
# Indices 1 2 3 4 5 6 
#
# 1 82.0872 54.9126 38.8731 -0.0054 30.1197 0.1010
# 2 54.9126 130.5735 33.0164 -0.1139 30.9044 0.6157
# 3 38.8731 33.0164 98.8828 -0.0143 36.1937 0.0742
# 4 -0.0054 -0.1139 -0.0143 27.5676 -0.0265 22.7045
# 5 30.1197 30.9044 36.1937 -0.0265 65.8112 0.1237
# 6 0.1010 0.6157 0.0742 22.7045 0.1237 -88.0142
#
#
#
# Elastic Compliance Matrix: (Units=1/GPa)
#
#
# Indices 1 2 3 4 5 6 
#
# 1 0.019858 -0.006380 -0.004315 -0.000002 -0.003719 -0.000031
# 2 -0.006380 0.010914 -0.000412 -0.000010 -0.001979 0.000063
# 3 -0.004315 -0.000412 0.013964 0.000002 -0.005512 -0.000003
# 4 -0.000002 -0.000010 0.000002 0.029918 0.000002 0.007718
# 5 -0.003719 -0.001979 -0.005512 0.000002 0.020858 0.000007
# 6 -0.000031 0.000063 -0.000003 0.007718 0.000007 -0.009370
#
#
# Mechanical properties :
#
#
# Convention : Reuss Voigt Hill
#
# Bulk Modulus (GPa) = 44.39944 62.79419 53.59681
# Shear Modulus (GPa) = 43.15474 13.38902 28.27188
#
# Velocity S-wave (km/s) = 4.15109 2.31218 3.35989
# Velocity P-wave (km/s) = 6.37997 5.67466 6.03762
#
# Compressibility (1/GPa) = 0.02252280
#
# Stress axis : x y z
#
# Youngs Moduli (GPa) = 50.35712 91.62811 71.61166
#
# Poissons Ratio (x) = 0.58457 0.30901
# Poissons Ratio (y) = 0.32127 0.02948
# Poissons Ratio (z) = 0.21730 0.03772
#
# Static dielectric constant tensor:
#      x y z
#    x 2.134020 -0.000270 -0.003180 
#    y -0.000270 2.009710 -0.000180 
#    z -0.003180 -0.000180 2.021310 
# 
# From -- ./inp_files/278890.got.cif
#   From: 2010.05.17/outbox.cif.g08.bks.cpg/sg15_140_cif.got.tgz:278890.got - 2010.06.03 18:47:42.
