data_PCOD9291194
_publ_section_title
;
Structure prediction by ZEFSAII (Michael W. Deem and Ramdas Pophale) SiO2 
 PCOD9291194
Probable space group: C 2/C
;
_chemical_formula_sum "Si O2"
_cell_formula_units_Z 36
_cell_length_a 7.856098
_cell_length_b 25.653529
_cell_length_c 13.593833
_cell_angle_alpha 90.000000
_cell_angle_beta 142.256750
_cell_angle_gamma 90.000000
_cell_volume 1677.009163
_symmetry_space_group_name_H-M "C 2/C"
_symmetry_group_IT_number 15
_symmetry_cell_setting 'monoclinic'
loop_
_space_group_symop_operation_xyz
x,y,z
-x,y,1/2-z
-x,-y,-z
x,-y,1/2+z
1/2+x,1/2+y,z
1/2-x,1/2+y,1/2-z
1/2-x,1/2-y,-z
1/2+x,1/2-y,1/2+z
loop_
_atom_site_type_symbol
_atom_site_label
_atom_site_fract_x
_atom_site_fract_y
_atom_site_fract_z
Si Si1 0.000000 0.551490 0.750000
Si Si2 0.179580 0.638122 0.229609
Si Si3 0.815465 0.807229 0.069959
Si Si4 0.279413 0.981295 0.819276
Si Si5 0.797647 0.151893 0.921494
O O1 0.172887 0.516628 0.754592
O O2 0.207048 0.592021 0.898340
O O3 0.204093 0.578489 0.207752
O O4 0.481941 0.663996 0.390321
O O5 0.000000 0.641303 0.250000
O O6 0.985506 0.665976 0.060396
O O7 0.000000 0.802320 0.250000
O O8 0.007494 0.840613 0.084073
O O9 0.750000 0.750000 0.000000
O O10 0.000000 0.990411 0.750000
O O11 0.500000 0.000000 0.000000
O O12 0.500000 0.177000 0.750000
#
# Coordination Sequence:
#
# PCOD9291194 Si02
#       5
#     4   8   8   8   8
#     4  10  24  44  66  96 154 180 230 296 324 412
#     4  10  22  42  65  93 139 180 226 287 342 402
#     4  11  24  44  72  99 130 172 229 285 349 417
#     4  12  27  38  66 101 139 191 238 272 352 409
#     4   9  22  42  67  92 133 176 221 270 357 384
#
# _framework density 21.46679
#
# number of rings (size 3 to 8) (size 9 to 14) (size 15 to 20)
#    0.667    0.889    1.111    3.333    9.333    1.778 
#    0.000    5.556    0.000    0.000    0.000    0.000 
#    0.000    0.000    0.000    0.000    0.000    0.000 
#
# Total GULP energy -100299.853784 kJ/mol
# GULP energy per Si atom -5572.214099 kJ/mol
# Density = 2.141793 g / cm^3
# Si number density = 21.466790 Si / 1000 Ang^3
#
#
#
# Elastic Constant Matrix: (Units=GPa)
#
#
# Indices 1 2 3 4 5 6 
#
# 1 60.7549 16.9957 23.5220 0.0000 23.1416 0.0000
# 2 16.9957 40.6421 19.0727 0.0000 14.5623 0.0000
# 3 23.5220 19.0727 227.6086 0.0000 23.1682 0.0000
# 4 0.0000 0.0000 0.0000 32.8261 0.0000 -8.4167
# 5 23.1416 14.5623 23.1682 0.0000 36.5934 0.0000
# 6 0.0000 0.0000 0.0000 -8.4167 0.0000 -10.1128
#
#
#
# Elastic Compliance Matrix: (Units=1/GPa)
#
#
# Indices 1 2 3 4 5 6 
#
# 1 0.022641 -0.004856 -0.000718 0.000000 -0.011931 0.000000
# 2 -0.004856 0.030119 -0.001191 0.000000 -0.008161 0.000000
# 3 -0.000718 -0.001191 0.004781 0.000000 -0.002099 0.000000
# 4 0.000000 0.000000 0.000000 0.025106 0.000000 -0.020895
# 5 -0.011931 -0.008161 -0.002099 0.000000 0.039448 0.000000
# 6 0.000000 0.000000 0.000000 -0.020895 0.000000 -0.081494
#
#
# Mechanical properties :
#
#
# Convention : Reuss Voigt Hill
#
# Bulk Modulus (GPa) = 22.72257 49.79851 36.26054
# Shear Modulus (GPa) = 72.67266 29.82236 51.24751
#
# Velocity S-wave (km/s) = 5.82469 3.73128 4.89129
# Velocity P-wave (km/s) = 7.47288 6.46619 6.98769
#
# Compressibility (1/GPa) = 0.04400911
#
# Stress axis : x y z
#
# Youngs Moduli (GPa) = 44.16860 33.20198 209.15228
#
# Poissons Ratio (x) = 0.16122 0.15027
# Poissons Ratio (y) = 0.21448 0.24917
# Poissons Ratio (z) = 0.03173 0.03955
#
# Static dielectric constant tensor:
#      x y z
#    x 1.763810 0.000000 -0.020980 
#    y 0.000000 1.742780 0.000000 
#    z -0.020980 0.000000 1.820530 
# 
# From -- ./inp_files/139131.got.cif
#   From: 2010.05.17/outbox.cif.g08.bks.cpg/sg15_70_cif.got.tgz:139131.got - 2010.06.03 18:47:42.
