data_PCOD9291661
_publ_section_title
;
Structure prediction by ZEFSAII (Michael W. Deem and Ramdas Pophale) SiO2 
 PCOD9291661
Probable space group: C 2/C
;
_chemical_formula_sum "Si O2"
_cell_formula_units_Z 28
_cell_length_a 12.121002
_cell_length_b 8.547158
_cell_length_c 10.592282
_cell_angle_alpha 90.000000
_cell_angle_beta 108.300560
_cell_angle_gamma 90.000000
_cell_volume 1041.859767
_symmetry_space_group_name_H-M "C 2/C"
_symmetry_group_IT_number 15
_symmetry_cell_setting 'monoclinic'
loop_
_space_group_symop_operation_xyz
x,y,z
-x,y,1/2-z
-x,-y,-z
x,-y,1/2+z
1/2+x,1/2+y,z
1/2-x,1/2+y,1/2-z
1/2-x,1/2-y,-z
1/2+x,1/2-y,1/2+z
loop_
_atom_site_type_symbol
_atom_site_label
_atom_site_fract_x
_atom_site_fract_y
_atom_site_fract_z
Si Si1 0.632946 0.078592 0.444488
Si Si2 0.533055 0.378092 0.119318
Si Si3 0.000000 0.315248 0.250000
Si Si4 0.730401 0.226930 0.706181
O O1 0.542762 0.221334 0.423876
O O2 0.562066 0.928758 0.374964
O O3 0.701466 0.081701 0.600588
O O4 0.719721 0.136960 0.365623
O O5 0.500000 0.428953 0.250000
O O6 0.667023 0.325822 0.165445
O O7 0.500000 0.500000 0.000000
O O8 0.889554 0.230387 0.270191
#
# Coordination Sequence:
#
# PCOD9291661 Si02
#       4
#     8   8   4   8
#     4  10  22  46  64  94 145 181 221 293 349 398
#     4  10  22  42  69  99 137 190 227 288 354 408
#     4  12  22  42  70 100 132 186 232 276 350 414
#     4  10  23  39  69  97 130 186 228 280 342 418
#
# _framework density 26.875019999999999
#
# number of rings (size 3 to 8) (size 9 to 14) (size 15 to 20)
#    0.000    1.714    4.286    0.857   12.000    0.000 
#    2.571    1.429    0.000    0.000    0.000    0.000 
#    0.000    0.000    0.000    0.000    0.000    0.000 
#
# Total GULP energy -78606.206173 kJ/mol
# GULP energy per Si atom -5614.729012 kJ/mol
# Density = 2.681385 g / cm^3
# Si number density = 26.875020 Si / 1000 Ang^3
#
#
#
# Elastic Constant Matrix: (Units=GPa)
#
#
# Indices 1 2 3 4 5 6 
#
# 1 264.0244 61.7054 56.1902 0.0000 0.6825 0.0000
# 2 61.7054 60.6824 35.0844 0.0000 -9.4118 0.0000
# 3 56.1902 35.0844 129.4988 0.0000 6.4756 0.0000
# 4 0.0000 0.0000 0.0000 48.4911 0.0000 -8.0296
# 5 0.6825 -9.4118 6.4756 0.0000 49.2729 0.0000
# 6 0.0000 0.0000 0.0000 -8.0296 0.0000 41.3312
#
#
#
# Elastic Compliance Matrix: (Units=1/GPa)
#
#
# Indices 1 2 3 4 5 6 
#
# 1 0.005101 -0.004825 -0.000862 0.000000 -0.000879 0.000000
# 2 -0.004825 0.025127 -0.004990 0.000000 0.005522 0.000000
# 3 -0.000862 -0.004990 0.009558 0.000000 -0.002197 0.000000
# 4 0.000000 0.000000 0.000000 0.021308 0.000000 0.004140
# 5 -0.000879 0.005522 -0.002197 0.000000 0.021651 0.000000
# 6 0.000000 0.000000 0.000000 0.004140 0.000000 0.024999
#
#
# Mechanical properties :
#
#
# Convention : Reuss Voigt Hill
#
# Bulk Modulus (GPa) = 54.25450 84.46285 69.35867
# Shear Modulus (GPa) = 36.97085 47.90073 42.43579
#
# Velocity S-wave (km/s) = 3.71301 4.22637 3.97798
# Velocity P-wave (km/s) = 6.21397 7.43724 6.85296
#
# Compressibility (1/GPa) = 0.01843165
#
# Stress axis : x y z
#
# Youngs Moduli (GPa) = 196.04453 39.79797 104.62384
#
# Poissons Ratio (x) = 0.19201 0.09021
# Poissons Ratio (y) = 0.94585 0.52209
# Poissons Ratio (z) = 0.16903 0.19860
#
# Static dielectric constant tensor:
#      x y z
#    x 2.071610 0.000000 -0.035710 
#    y 0.000000 2.088610 0.000000 
#    z -0.035710 0.000000 2.154310 
# 
# From -- ./inp_files/83624.got.cif
#   From: 2010.05.17/outbox.cif.g08.bks.cpg/sg15_42_cif.got.tgz:83624.got - 2010.06.03 18:47:42.
