data_PCOD9291543
_publ_section_title
;
Structure prediction by ZEFSAII (Michael W. Deem and Ramdas Pophale) SiO2 
 PCOD9291543
Probable space group: C 2/C
;
_chemical_formula_sum "Si O2"
_cell_formula_units_Z 56
_cell_length_a 8.631182
_cell_length_b 29.862438
_cell_length_c 12.924181
_cell_angle_alpha 90.000000
_cell_angle_beta 58.148688
_cell_angle_gamma 90.000000
_cell_volume 2829.575388
_symmetry_space_group_name_H-M "C 2/C"
_symmetry_group_IT_number 15
_symmetry_cell_setting 'monoclinic'
loop_
_space_group_symop_operation_xyz
x,y,z
-x,y,1/2-z
-x,-y,-z
x,-y,1/2+z
1/2+x,1/2+y,z
1/2-x,1/2+y,1/2-z
1/2-x,1/2-y,-z
1/2+x,1/2-y,1/2+z
loop_
_atom_site_type_symbol
_atom_site_label
_atom_site_fract_x
_atom_site_fract_y
_atom_site_fract_z
Si Si1 0.876484 0.882902 0.195480
Si Si2 0.200531 0.277035 0.711913
Si Si3 0.255717 0.296271 0.933316
Si Si4 0.429288 0.645706 0.080427
Si Si5 0.217247 0.529038 0.645970
Si Si6 0.921820 0.308294 0.162565
Si Si7 0.006347 0.953810 0.870134
O O1 0.777017 0.926904 0.188249
O O2 0.730630 0.845446 0.275690
O O3 0.000000 0.894060 0.250000
O O4 0.993928 0.861957 0.060994
O O5 0.221604 0.285399 0.826794
O O6 0.249993 0.323799 0.640035
O O7 0.338488 0.236350 0.641213
O O8 0.000000 0.262590 0.750000
O O9 0.435403 0.323463 0.898703
O O10 0.250000 0.250000 0.000000
O O11 0.089072 0.325146 0.035824
O O12 0.426539 0.596797 0.131326
O O13 0.340038 0.487251 0.639543
O O14 0.309816 0.538400 0.498443
O O15 0.000000 0.522395 0.750000
O O16 0.000000 0.298379 0.250000
O O17 0.000000 0.961077 0.750000
#
# Coordination Sequence:
#
# PCOD9291543 Si02
#       7
#     8   8   8   8   8   8   8
#     4  11  24  41  65  95 126 160 206 267 319 371
#     4  12  26  39  57  90 130 167 209 262 314 369
#     4  12  22  40  64  86 120 169 214 255 309 377
#     4  11  23  43  64  89 127 169 210 257 314 383
#     4  10  23  43  68  97 130 168 213 265 327 393
#     4  12  22  39  63  89 119 164 217 257 311 374
#     4  10  22  42  68  96 129 167 214 271 322 381
#
# _framework density 19.790956000000001
#
# number of rings (size 3 to 8) (size 9 to 14) (size 15 to 20)
#    0.000    0.857    4.286    2.571    4.000    1.714 
#    0.000    0.000    0.000    0.000    0.000    0.000 
#    0.000    0.000    0.000    0.000    0.000    0.000 
#
# Total GULP energy -156344.782807 kJ/mol
# GULP energy per Si atom -5583.742243 kJ/mol
# Density = 1.974591 g / cm^3
# Si number density = 19.790956 Si / 1000 Ang^3
#
#
#
# Elastic Constant Matrix: (Units=GPa)
#
#
# Indices 1 2 3 4 5 6 
#
# 1 80.9081 16.4122 45.1512 0.0000 -14.9248 0.0000
# 2 16.4122 108.1485 22.3670 0.0000 -8.7722 0.0000
# 3 45.1512 22.3670 92.9798 0.0000 -7.7950 0.0000
# 4 0.0000 0.0000 0.0000 21.1003 0.0000 -9.6469
# 5 -14.9248 -8.7722 -7.7950 0.0000 29.8799 0.0000
# 6 0.0000 0.0000 0.0000 -9.6469 0.0000 25.6543
#
#
#
# Elastic Compliance Matrix: (Units=1/GPa)
#
#
# Indices 1 2 3 4 5 6 
#
# 1 0.018297 -0.000529 -0.008184 0.000000 0.006849 0.000000
# 2 -0.000529 0.009903 -0.001946 0.000000 0.002135 0.000000
# 3 -0.008184 -0.001946 0.015138 0.000000 -0.000710 0.000000
# 4 0.000000 0.000000 0.000000 0.057232 0.000000 0.021521
# 5 0.006849 0.002135 -0.000710 0.000000 0.037330 0.000000
# 6 0.000000 0.000000 0.000000 0.021521 0.000000 0.047072
#
#
# Mechanical properties :
#
#
# Convention : Reuss Voigt Hill
#
# Bulk Modulus (GPa) = 45.41335 49.98859 47.70097
# Shear Modulus (GPa) = 23.40491 28.53397 25.96944
#
# Velocity S-wave (km/s) = 3.44264 3.80118 3.62634
# Velocity P-wave (km/s) = 6.22886 6.67671 6.45667
#
# Compressibility (1/GPa) = 0.02201995
#
# Stress axis : x y z
#
# Youngs Moduli (GPa) = 54.65230 100.98438 66.05958
#
# Poissons Ratio (x) = 0.05338 0.54063
# Poissons Ratio (y) = 0.02889 0.12858
# Poissons Ratio (z) = 0.44727 0.19656
#
# Static dielectric constant tensor:
#      x y z
#    x 1.700560 0.000000 -0.023640 
#    y 0.000000 1.686320 0.000000 
#    z -0.023640 0.000000 1.742070 
# 
# From -- ./inp_files/82478.got.cif
#   From: 2010.05.17/outbox.cif.g08.bks.cpg/sg15_42_cif.got.tgz:82478.got - 2010.06.03 18:47:42.
