data_PCOD9291042
_publ_section_title
;
Structure prediction by ZEFSAII (Michael W. Deem and Ramdas Pophale) SiO2 
 PCOD9291042
Probable space group: C 2/C
;
_chemical_formula_sum "Si O2"
_cell_formula_units_Z 40
_cell_length_a 21.511659
_cell_length_b 6.823359
_cell_length_c 14.167412
_cell_angle_alpha 90.000000
_cell_angle_beta 73.383240
_cell_angle_gamma 90.000000
_cell_volume 1992.675021
_symmetry_space_group_name_H-M "C 2/C"
_symmetry_group_IT_number 15
_symmetry_cell_setting 'monoclinic'
loop_
_space_group_symop_operation_xyz
x,y,z
-x,y,1/2-z
-x,-y,-z
x,-y,1/2+z
1/2+x,1/2+y,z
1/2-x,1/2+y,1/2-z
1/2-x,1/2-y,-z
1/2+x,1/2-y,1/2+z
loop_
_atom_site_type_symbol
_atom_site_label
_atom_site_fract_x
_atom_site_fract_y
_atom_site_fract_z
Si Si1 0.425366 0.272556 0.810434
Si Si2 0.428089 0.985726 0.989915
Si Si3 0.855354 0.120220 0.946946
Si Si4 0.751273 0.374929 0.880140
Si Si5 0.338815 0.074012 0.687951
O O1 0.500000 0.306756 0.750000
O O2 0.390640 0.468857 0.863051
O O3 0.388190 0.189188 0.735064
O O4 0.422346 0.115334 0.897824
O O5 0.408218 0.759476 0.975437
O O6 0.380160 0.052547 0.095454
O O7 0.500000 0.000000 0.000000
O O8 0.808250 0.275836 0.915774
O O9 0.801817 0.006745 0.035018
O O10 0.704942 0.211187 0.857474
O O11 0.787910 0.475239 0.779288
#
# Coordination Sequence:
#
# PCOD9291042 Si02
#       5
#     8   8   8   8   8
#     4  12  25  43  67  98 130 175 222 263 329 388
#     4  11  24  45  65  96 137 169 219 271 320 389
#     4  10  24  43  65  96 132 166 220 273 317 389
#     4  10  22  42  63  97 130 169 219 265 328 385
#     4  11  23  41  67  96 130 174 217 268 329 388
#
# _framework density 20.073518
#
# number of rings (size 3 to 8) (size 9 to 14) (size 15 to 20)
#    0.000    1.200    4.000    1.200    2.800    4.000 
#    0.000    0.000    0.000    0.000    0.000    0.000 
#    0.000    0.000    0.000    0.000    0.000    0.000 
#
# Total GULP energy -111541.168883 kJ/mol
# GULP energy per Si atom -5577.058444 kJ/mol
# Density = 2.002783 g / cm^3
# Si number density = 20.073518 Si / 1000 Ang^3
#
#
#
# Elastic Constant Matrix: (Units=GPa)
#
#
# Indices 1 2 3 4 5 6 
#
# 1 143.9519 22.7617 44.9134 0.0000 -8.7692 0.0000
# 2 22.7617 30.1837 25.2132 0.0000 -15.7597 0.0000
# 3 44.9134 25.2132 132.5373 0.0000 -32.3991 0.0000
# 4 0.0000 0.0000 0.0000 41.1496 0.0000 -6.7501
# 5 -8.7692 -15.7597 -32.3991 0.0000 54.8537 0.0000
# 6 0.0000 0.0000 0.0000 -6.7501 0.0000 23.3821
#
#
#
# Elastic Compliance Matrix: (Units=1/GPa)
#
#
# Indices 1 2 3 4 5 6 
#
# 1 0.008372 -0.005243 -0.002198 0.000000 -0.001466 0.000000
# 2 -0.005243 0.045973 -0.004611 0.000000 0.009647 0.000000
# 3 -0.002198 -0.004611 0.010235 0.000000 0.004369 0.000000
# 4 0.000000 0.000000 0.000000 0.025510 0.000000 0.007364
# 5 -0.001466 0.009647 0.004369 0.000000 0.023348 0.000000
# 6 0.000000 0.000000 0.000000 0.007364 0.000000 0.044894
#
#
# Mechanical properties :
#
#
# Convention : Reuss Voigt Hill
#
# Bulk Modulus (GPa) = 24.70588 54.71660 39.71124
# Shear Modulus (GPa) = 25.51970 38.12940 31.82455
#
# Velocity S-wave (km/s) = 3.56941 4.36304 3.98603
# Velocity P-wave (km/s) = 5.41498 7.25939 6.40394
#
# Compressibility (1/GPa) = 0.04047619
#
# Stress axis : x y z
#
# Youngs Moduli (GPa) = 119.44145 21.75213 97.70258
#
# Poissons Ratio (x) = 0.11405 0.21477
# Poissons Ratio (y) = 0.62623 0.45048
# Poissons Ratio (z) = 0.26255 0.10029
#
# Static dielectric constant tensor:
#      x y z
#    x -4.932540 0.000000 -6.327060 
#    y 0.000000 1.707110 0.000000 
#    z -6.327060 0.000000 -4.143620 
# 
# From -- ./inp_files/116184.got.cif
#   From: 2010.05.17/outbox.cif.g08.bks.cpg/sg15_59_cif.got.tgz:116184.got - 2010.06.03 18:47:42.
