data_PCOD9291822
_publ_section_title
;
Structure prediction by ZEFSAII (Michael W. Deem and Ramdas Pophale) SiO2 
 PCOD9291822
Probable space group: C 2/C
;
_chemical_formula_sum "Si O2"
_cell_formula_units_Z 60
_cell_length_a 26.292885
_cell_length_b 22.177830
_cell_length_c 14.896133
_cell_angle_alpha 90.000000
_cell_angle_beta 158.530551
_cell_angle_gamma 90.000000
_cell_volume 3179.200548
_symmetry_space_group_name_H-M "C 2/C"
_symmetry_group_IT_number 15
_symmetry_cell_setting 'monoclinic'
loop_
_space_group_symop_operation_xyz
x,y,z
-x,y,1/2-z
-x,-y,-z
x,-y,1/2+z
1/2+x,1/2+y,z
1/2-x,1/2+y,1/2-z
1/2-x,1/2-y,-z
1/2+x,1/2-y,1/2+z
loop_
_atom_site_type_symbol
_atom_site_label
_atom_site_fract_x
_atom_site_fract_y
_atom_site_fract_z
Si Si1 0.698901 0.722326 0.196110
Si Si2 0.360873 0.325426 0.571189
Si Si3 0.445839 0.987848 0.763343
Si Si4 0.396850 0.911602 0.328997
Si Si5 0.000000 0.696174 0.250000
Si Si6 0.241931 0.377497 0.048346
Si Si7 0.500223 0.311575 0.986610
Si Si8 0.142975 0.316263 0.715494
O O1 0.792993 0.769621 0.405825
O O2 0.611467 0.680507 0.118632
O O3 0.788619 0.687575 0.269719
O O4 0.585249 0.762434 0.957635
O O5 0.500000 0.346099 0.750000
O O6 0.249282 0.378672 0.397157
O O7 0.412750 0.303193 0.752966
O O8 0.500000 0.996562 0.750000
O O9 0.308576 0.945858 0.538443
O O10 0.410084 0.047044 0.762324
O O11 0.557444 0.950834 0.008547
O O12 0.509357 0.858686 0.501817
O O13 0.884944 0.655815 0.109582
O O14 0.246856 0.345067 0.959094
O O15 0.387282 0.364608 0.334749
O O16 0.592274 0.251352 0.154133
#
# Coordination Sequence:
#
# PCOD9291822 Si02
#       8
#     8   8   8   8   4   8   8   8
#     4  12  23  35  57  92 125 168 197 241 313 381
#     4  12  24  39  60  88 127 170 197 240 308 386
#     4  10  22  42  72  88 112 158 221 274 305 361
#     4  10  24  43  62  94 120 158 215 266 310 362
#     4  12  18  32  62  86 118 156 208 250 294 368
#     4  11  21  37  62  94 117 161 214 260 304 363
#     4  12  23  36  57  92 129 164 199 244 310 388
#     4  11  21  38  61  88 128 156 204 257 302 377
#
# _framework density 18.872669999999999
#
# number of rings (size 3 to 8) (size 9 to 14) (size 15 to 20)
#    0.000    0.800    6.000    2.400    1.867    1.067 
#    0.000    0.667    8.800    0.000    0.000    0.000 
#    0.000    0.000    0.000    0.000    0.000    0.000 
#
# Total GULP energy -167623.798489 kJ/mol
# GULP energy per Si atom -5587.459950 kJ/mol
# Density = 1.882971 g / cm^3
# Si number density = 18.872670 Si / 1000 Ang^3
#
#
#
# Elastic Constant Matrix: (Units=GPa)
#
#
# Indices 1 2 3 4 5 6 
#
# 1 127.6533 16.1957 32.6447 0.0000 5.3266 0.0000
# 2 16.1957 41.6418 14.1250 0.0000 2.8666 0.0000
# 3 32.6447 14.1250 97.3174 0.0000 1.9103 0.0000
# 4 0.0000 0.0000 0.0000 13.6634 0.0000 -8.2181
# 5 5.3266 2.8666 1.9103 0.0000 35.2848 0.0000
# 6 0.0000 0.0000 0.0000 -8.2181 0.0000 23.3265
#
#
#
# Elastic Compliance Matrix: (Units=1/GPa)
#
#
# Indices 1 2 3 4 5 6 
#
# 1 0.008854 -0.002497 -0.002588 0.000000 -0.000994 0.000000
# 2 -0.002497 0.026084 -0.002917 0.000000 -0.001584 0.000000
# 3 -0.002588 -0.002917 0.011567 0.000000 0.000001 0.000000
# 4 0.000000 0.000000 0.000000 0.092867 0.000000 0.032718
# 5 -0.000994 -0.001584 0.000001 0.000000 0.028619 0.000000
# 6 0.000000 0.000000 0.000000 0.032718 0.000000 0.054396
#
#
# Mechanical properties :
#
#
# Convention : Reuss Voigt Hill
#
# Bulk Modulus (GPa) = 32.78656 43.61593 38.20125
# Shear Modulus (GPa) = 20.11588 28.03141 24.07365
#
# Velocity S-wave (km/s) = 3.26831 3.85813 3.57540
# Velocity P-wave (km/s) = 5.62608 6.55802 6.10984
#
# Compressibility (1/GPa) = 0.03050030
#
# Stress axis : x y z
#
# Youngs Moduli (GPa) = 112.94530 38.33748 86.45155
#
# Poissons Ratio (x) = 0.09574 0.22374
# Poissons Ratio (y) = 0.28205 0.25219
# Poissons Ratio (z) = 0.29231 0.11184
#
# Static dielectric constant tensor:
#      x y z
#    x 1.707600 0.000000 -0.029640 
#    y 0.000000 1.642510 0.000000 
#    z -0.029640 0.000000 1.658420 
# 
# From -- ./inp_files/179263.got.cif
#   From: 2010.05.17/outbox.cif.g08.bks.cpg/sg15_90_cif.got.tgz:179263.got - 2010.06.03 18:47:42.
