data_PCOD9291966
_publ_section_title
;
Structure prediction by ZEFSAII (Michael W. Deem and Ramdas Pophale) SiO2 
 PCOD9291966
Probable space group: C 2/C
;
_chemical_formula_sum "Si O2"
_cell_formula_units_Z 48
_cell_length_a 12.964810
_cell_length_b 12.018879
_cell_length_c 25.725353
_cell_angle_alpha 90.000000
_cell_angle_beta 28.681614
_cell_angle_gamma 90.000000
_cell_volume 1923.889919
_symmetry_space_group_name_H-M "C 2/C"
_symmetry_group_IT_number 15
_symmetry_cell_setting 'monoclinic'
loop_
_space_group_symop_operation_xyz
x,y,z
-x,y,1/2-z
-x,-y,-z
x,-y,1/2+z
1/2+x,1/2+y,z
1/2-x,1/2+y,1/2-z
1/2-x,1/2-y,-z
1/2+x,1/2-y,1/2+z
loop_
_atom_site_type_symbol
_atom_site_label
_atom_site_fract_x
_atom_site_fract_y
_atom_site_fract_z
Si Si1 0.881590 0.361161 0.506138
Si Si2 0.496457 0.935532 0.828608
Si Si3 0.483189 0.085357 0.439668
Si Si4 0.633942 0.694574 0.741328
Si Si5 0.040722 0.161424 0.564190
Si Si6 0.674091 0.162775 0.640548
O O1 0.895355 0.398857 0.560402
O O2 0.755178 0.245836 0.560201
O O3 0.820110 0.480914 0.510504
O O4 0.120047 0.335671 0.379377
O O5 0.624979 0.938677 0.826261
O O6 0.602656 0.829851 0.753714
O O7 0.455799 0.055323 0.821974
O O8 0.252667 0.902303 0.951953
O O9 0.395787 0.209164 0.472009
O O10 0.500000 0.651578 0.750000
O O11 0.558815 0.656606 0.832983
O O12 0.864570 0.135127 0.596885
O O13 0.500000 0.231816 0.750000
#
# Coordination Sequence:
#
# PCOD9291966 Si02
#       6
#     8   8   8   8   8   8
#     4  10  22  43  64  92 132 174 216 266 329 382
#     4  11  22  40  68  96 131 166 219 271 328 380
#     4   9  20  41  65  91 129 167 216 272 310 397
#     4  11  21  39  69  95 126 169 221 262 322 392
#     4  10  22  43  64  96 131 169 214 275 326 380
#     4  11  25  42  63  92 138 172 216 272 324 389
#
# _framework density 24.949451
#
# number of rings (size 3 to 8) (size 9 to 14) (size 15 to 20)
#    0.000    1.667    0.000    6.000    2.333    2.000 
#    3.000   15.833    0.000    0.000    0.000    0.000 
#    0.000    0.000    0.000    0.000    0.000    0.000 
#
# Total GULP energy -133701.661935 kJ/mol
# GULP energy per Si atom -5570.902581 kJ/mol
# Density = 2.489267 g / cm^3
# Si number density = 24.949451 Si / 1000 Ang^3
#
#
#
# Elastic Constant Matrix: (Units=GPa)
#
#
# Indices 1 2 3 4 5 6 
#
# 1 49.0402 25.8841 11.2503 -0.0008 21.3385 0.0005
# 2 25.8841 144.9202 46.1544 0.0009 2.4205 0.0003
# 3 11.2503 46.1544 102.3910 0.0004 -1.9007 0.0011
# 4 -0.0008 0.0009 0.0004 35.8878 0.0006 6.4405
# 5 21.3385 2.4205 -1.9007 0.0006 38.9837 -0.0004
# 6 0.0005 0.0003 0.0011 6.4405 -0.0004 33.9199
#
#
#
# Elastic Compliance Matrix: (Units=1/GPa)
#
#
# Indices 1 2 3 4 5 6 
#
# 1 0.030332 -0.004654 -0.001539 0.000001 -0.016389 -0.000001
# 2 -0.004654 0.008789 -0.003416 0.000000 0.001835 0.000000
# 3 -0.001539 -0.003416 0.011506 0.000000 0.001616 0.000000
# 4 0.000001 0.000000 0.000000 0.028848 -0.000001 -0.005477
# 5 -0.016389 0.001835 0.001616 -0.000001 0.034587 0.000001
# 6 -0.000001 0.000000 0.000000 -0.005477 0.000001 0.030521
#
#
# Mechanical properties :
#
#
# Convention : Reuss Voigt Hill
#
# Bulk Modulus (GPa) = 31.83907 51.43654 41.63780
# Shear Modulus (GPa) = 28.69103 35.96246 32.32674
#
# Velocity S-wave (km/s) = 3.39479 3.80071 3.60347
# Velocity P-wave (km/s) = 5.30616 6.31836 5.83425
#
# Compressibility (1/GPa) = 0.03140795
#
# Stress axis : x y z
#
# Youngs Moduli (GPa) = 32.96852 113.77961 86.91428
#
# Poissons Ratio (x) = 0.52948 0.13379
# Poissons Ratio (y) = 0.15342 0.29693
# Poissons Ratio (z) = 0.05075 0.38871
#
# Static dielectric constant tensor:
#      x y z
#    x 2.211920 0.000000 0.071860 
#    y 0.000000 2.028310 0.000000 
#    z 0.071860 0.000000 1.964710 
# 
# From -- ./inp_files/296030.got.cif
#   From: 2010.05.17/outbox.cif.g08.bks.cpg/sg15_149_cif.got.tgz:296030.got - 2010.06.03 18:47:42.
