data_PCOD9291027
_publ_section_title
;
Structure prediction by ZEFSAII (Michael W. Deem and Ramdas Pophale) SiO2 
 PCOD9291027
Probable space group: C 2/C
;
_chemical_formula_sum "Si O2"
_cell_formula_units_Z 44
_cell_length_a 26.572941
_cell_length_b 13.463787
_cell_length_c 11.496477
_cell_angle_alpha 90.000000
_cell_angle_beta 145.994813
_cell_angle_gamma 90.000000
_cell_volume 2300.337533
_symmetry_space_group_name_H-M "C 2/C"
_symmetry_group_IT_number 15
_symmetry_cell_setting 'monoclinic'
loop_
_space_group_symop_operation_xyz
x,y,z
-x,y,1/2-z
-x,-y,-z
x,-y,1/2+z
1/2+x,1/2+y,z
1/2-x,1/2+y,1/2-z
1/2-x,1/2-y,-z
1/2+x,1/2-y,1/2+z
loop_
_atom_site_type_symbol
_atom_site_label
_atom_site_fract_x
_atom_site_fract_y
_atom_site_fract_z
Si Si1 0.097262 0.650433 0.890277
Si Si2 0.423657 0.078739 0.894977
Si Si3 0.000000 0.290741 0.750000
Si Si4 0.763537 0.498269 0.727775
Si Si5 0.150259 0.167347 0.906002
Si Si6 0.185441 0.186601 0.712793
O O1 0.091127 0.653804 0.740017
O O2 0.000000 0.615751 0.750000
O O3 0.173730 0.570792 0.070657
O O4 0.122325 0.751618 0.004386
O O5 0.330355 0.025493 0.749462
O O6 0.453498 0.137910 0.066425
O O7 0.500000 0.000000 0.000000
O O8 0.931993 0.220697 0.689314
O O9 0.679438 0.436639 0.517905
O O10 0.729455 0.593473 0.732420
O O11 0.138366 0.159165 0.744435
O O12 0.235067 0.238632 0.097020
#
# Coordination Sequence:
#
# PCOD9291027 Si02
#       6
#     8   8   4   8   8   8
#     4  11  22  38  63  93 124 163 209 260 317 373
#     4  12  23  37  66  98 125 160 217 273 309 373
#     4  12  24  44  64  94 128 172 212 260 320 376
#     4  11  22  41  63  95 126 167 212 258 324 372
#     4  10  23  41  65  90 131 167 211 259 318 378
#     4  10  22  42  63  92 127 169 206 264 317 375
#
# _framework density 19.127627
#
# number of rings (size 3 to 8) (size 9 to 14) (size 15 to 20)
#    0.000    1.091    3.636    3.273    5.091    0.727 
#    4.909    0.909    0.000    0.000    0.000    0.000 
#    0.000    0.000    0.000    0.000    0.000    0.000 
#
# Total GULP energy -122914.455007 kJ/mol
# GULP energy per Si atom -5587.020682 kJ/mol
# Density = 1.908409 g / cm^3
# Si number density = 19.127627 Si / 1000 Ang^3
#
#
#
# Elastic Constant Matrix: (Units=GPa)
#
#
# Indices 1 2 3 4 5 6 
#
# 1 97.3151 35.9447 16.1838 0.0000 -11.9902 0.0000
# 2 35.9447 83.6852 32.5817 0.0000 -19.5497 0.0000
# 3 16.1838 32.5817 53.9364 0.0000 -15.3184 0.0000
# 4 0.0000 0.0000 0.0000 13.0688 0.0000 8.4971
# 5 -11.9902 -19.5497 -15.3184 0.0000 34.5357 0.0000
# 6 0.0000 0.0000 0.0000 8.4971 0.0000 23.0104
#
#
#
# Elastic Compliance Matrix: (Units=1/GPa)
#
#
# Indices 1 2 3 4 5 6 
#
# 1 0.012284 -0.004802 -0.000396 0.000000 0.001371 0.000000
# 2 -0.004802 0.018408 -0.008230 0.000000 0.005103 0.000000
# 3 -0.000396 -0.008230 0.025478 0.000000 0.006505 0.000000
# 4 0.000000 0.000000 0.000000 0.100695 0.000000 -0.037184
# 5 0.001371 0.005103 0.006505 0.000000 0.035205 0.000000
# 6 0.000000 0.000000 0.000000 -0.037184 0.000000 0.057190
#
#
# Mechanical properties :
#
#
# Convention : Reuss Voigt Hill
#
# Bulk Modulus (GPa) = 34.11192 44.92857 39.52024
# Shear Modulus (GPa) = 17.48940 24.13809 20.81374
#
# Velocity S-wave (km/s) = 3.02711 3.55625 3.30229
# Velocity P-wave (km/s) = 5.48547 6.35628 5.93687
#
# Compressibility (1/GPa) = 0.02931527
#
# Stress axis : x y z
#
# Youngs Moduli (GPa) = 81.40440 54.32290 39.24953
#
# Poissons Ratio (x) = 0.26086 0.01553
# Poissons Ratio (y) = 0.39091 0.32302
# Poissons Ratio (z) = 0.03222 0.44708
#
# Static dielectric constant tensor:
#      x y z
#    x 1.663700 0.000000 -0.007420 
#    y 0.000000 1.661630 0.000000 
#    z -0.007420 0.000000 1.659060 
# 
# From -- ./inp_files/94995.got.cif
#   From: 2010.05.17/outbox.cif.g08.bks.cpg/sg15_48_cif.got.tgz:94995.got - 2010.06.03 18:47:42.
