data_PCOD9291412
_publ_section_title
;
Structure prediction by ZEFSAII (Michael W. Deem and Ramdas Pophale) SiO2 
 PCOD9291412
Probable space group: C 2/C
;
_chemical_formula_sum "Si O2"
_cell_formula_units_Z 32
_cell_length_a 9.927527
_cell_length_b 10.718800
_cell_length_c 11.191671
_cell_angle_alpha 90.000000
_cell_angle_beta 80.025266
_cell_angle_gamma 90.000000
_cell_volume 1172.917223
_symmetry_space_group_name_H-M "C 2/C"
_symmetry_group_IT_number 15
_symmetry_cell_setting 'monoclinic'
loop_
_space_group_symop_operation_xyz
x,y,z
-x,y,1/2-z
-x,-y,-z
x,-y,1/2+z
1/2+x,1/2+y,z
1/2-x,1/2+y,1/2-z
1/2-x,1/2-y,-z
1/2+x,1/2-y,1/2+z
loop_
_atom_site_type_symbol
_atom_site_label
_atom_site_fract_x
_atom_site_fract_y
_atom_site_fract_z
Si Si1 0.858540 0.962722 0.204789
Si Si2 0.604054 0.063760 0.333922
Si Si3 0.596087 0.289672 0.493367
Si Si4 0.328529 0.810397 0.099502
O O1 0.751521 0.072420 0.246128
O O2 0.887395 0.925675 0.064879
O O3 0.774814 0.845668 0.277022
O O4 0.000000 0.978631 0.250000
O O5 0.500000 0.016161 0.250000
O O6 0.626074 0.955945 0.429384
O O7 0.554441 0.192601 0.395113
O O8 0.750000 0.250000 0.500000
O O9 0.469104 0.266536 0.601078
O O10 0.250000 0.750000 0.000000
#
# Coordination Sequence:
#
# PCOD9291412 Si02
#       4
#     8   8   8   8
#     4  10  22  43  61  97 131 167 214 272 320 374
#     4  10  23  42  67  94 130 170 219 261 323 387
#     4  12  23  42  66  94 130 171 216 267 325 387
#     4  10  22  42  67  94 129 172 216 262 326 385
#
# _framework density 27.282402999999999
#
# number of rings (size 3 to 8) (size 9 to 14) (size 15 to 20)
#    1.500    0.000    2.500    3.000    0.000    0.000 
#    4.500    2.500    0.000    0.000    0.000    0.000 
#    0.000    0.000    0.000    0.000    0.000    0.000 
#
# Total GULP energy -89449.871092 kJ/mol
# GULP energy per Si atom -5590.616943 kJ/mol
# Density = 2.722031 g / cm^3
# Si number density = 27.282403 Si / 1000 Ang^3
#
#
#
# Elastic Constant Matrix: (Units=GPa)
#
#
# Indices 1 2 3 4 5 6 
#
# 1 238.0625 13.6396 32.5480 0.0000 -10.8725 0.0000
# 2 13.6396 72.5149 22.8337 0.0000 -17.6909 0.0000
# 3 32.5480 22.8337 54.0729 0.0000 -5.9293 0.0000
# 4 0.0000 0.0000 0.0000 33.8452 0.0000 -16.1956
# 5 -10.8725 -17.6909 -5.9293 0.0000 55.2354 0.0000
# 6 0.0000 0.0000 0.0000 -16.1956 0.0000 55.6242
#
#
#
# Elastic Compliance Matrix: (Units=1/GPa)
#
#
# Indices 1 2 3 4 5 6 
#
# 1 0.004599 0.000168 -0.002767 0.000000 0.000662 0.000000
# 2 0.000168 0.017057 -0.006781 0.000000 0.004768 0.000000
# 3 -0.002767 -0.006781 0.022995 0.000000 -0.000248 0.000000
# 4 0.000000 0.000000 0.000000 0.034329 0.000000 0.009995
# 5 0.000662 0.004768 -0.000248 0.000000 0.019735 0.000000
# 6 0.000000 0.000000 0.000000 0.009995 0.000000 0.020888
#
#
# Mechanical properties :
#
#
# Convention : Reuss Voigt Hill
#
# Bulk Modulus (GPa) = 38.62230 55.85475 47.23852
# Shear Modulus (GPa) = 34.01481 48.64957 41.33219
#
# Velocity S-wave (km/s) = 3.53479 4.22736 3.89649
# Velocity P-wave (km/s) = 5.55400 6.65918 6.13154
#
# Compressibility (1/GPa) = 0.02589178
#
# Stress axis : x y z
#
# Youngs Moduli (GPa) = 217.41590 58.62632 43.48750
#
# Poissons Ratio (x) = -0.00982 0.12032
# Poissons Ratio (y) = -0.03643 0.29488
# Poissons Ratio (z) = 0.60153 0.39754
#
# Static dielectric constant tensor:
#      x y z
#    x 2.206780 0.000000 -0.174100 
#    y 0.000000 2.188980 0.000000 
#    z -0.174100 0.000000 2.193460 
# 
# From -- ./inp_files/132439.got.cif
#   From: 2010.05.17/outbox.cif.g08.bks.cpg/sg15_67_cif.got.tgz:132439.got - 2010.06.03 18:47:42.
