data_PCOD9291222
_publ_section_title
;
Structure prediction by ZEFSAII (Michael W. Deem and Ramdas Pophale) SiO2 
 PCOD9291222
Probable space group: C 2/C
;
_chemical_formula_sum "Si O2"
_cell_formula_units_Z 56
_cell_length_a 19.886579
_cell_length_b 14.865836
_cell_length_c 16.591908
_cell_angle_alpha 90.000000
_cell_angle_beta 29.464676
_cell_angle_gamma 90.000000
_cell_volume 2412.742545
_symmetry_space_group_name_H-M "C 2/C"
_symmetry_group_IT_number 15
_symmetry_cell_setting 'monoclinic'
loop_
_space_group_symop_operation_xyz
x,y,z
-x,y,1/2-z
-x,-y,-z
x,-y,1/2+z
1/2+x,1/2+y,z
1/2-x,1/2+y,1/2-z
1/2-x,1/2-y,-z
1/2+x,1/2-y,1/2+z
loop_
_atom_site_type_symbol
_atom_site_label
_atom_site_fract_x
_atom_site_fract_y
_atom_site_fract_z
Si Si1 0.383758 0.492505 0.554292
Si Si2 0.818125 0.753720 0.763243
Si Si3 0.133329 0.842004 0.055788
Si Si4 0.893727 0.587935 0.580607
Si Si5 0.357419 0.131358 0.444317
Si Si6 0.071908 0.829474 0.589765
Si Si7 0.356828 0.903691 0.637335
O O1 0.500000 0.500000 0.500000
O O2 0.382514 0.397266 0.510543
O O3 0.405590 0.571163 0.468781
O O4 0.227695 0.497365 0.756554
O O5 0.817598 0.674754 0.698349
O O6 0.743591 0.840879 0.804227
O O7 0.968574 0.778286 0.636524
O O8 0.717238 0.719569 0.938256
O O9 0.165618 0.737200 0.009624
O O10 0.000000 0.845773 0.250000
O O11 0.246011 0.890593 0.992599
O O12 0.838456 0.576001 0.545956
O O13 0.001926 0.560285 0.548143
O O14 0.052150 0.634256 0.386183
O O15 0.500000 0.120446 0.250000
O O16 0.000000 0.832501 0.750000
#
# Coordination Sequence:
#
# PCOD9291222 Si02
#       7
#     8   8   8   8   8   8   8
#     4  12  24  41  69 103 136 183 238 299 354 432
#     4  12  24  47  72 102 142 196 243 308 361 444
#     4  10  23  39  63  98 137 171 221 283 359 424
#     4  11  24  42  71 101 142 184 241 298 362 439
#     4  10  22  42  65  97 137 184 220 284 366 428
#     4  12  27  46  69 103 145 193 245 303 369 433
#     4  11  24  42  68 106 135 177 251 288 360 425
#
# _framework density 23.210101000000002
#
# number of rings (size 3 to 8) (size 9 to 14) (size 15 to 20)
#    0.000    0.857    4.286    2.571    2.000    3.429 
#    0.000    0.714    0.000    0.000    0.000    0.000 
#    0.000    0.000    0.000    0.000    0.000    0.000 
#
# Total GULP energy -155941.739328 kJ/mol
# GULP energy per Si atom -5569.347833 kJ/mol
# Density = 2.315727 g / cm^3
# Si number density = 23.210101 Si / 1000 Ang^3
#
#
#
# Elastic Constant Matrix: (Units=GPa)
#
#
# Indices 1 2 3 4 5 6 
#
# 1 93.5822 17.7024 31.0891 0.0001 7.0624 -0.0001
# 2 17.7024 84.9592 13.0773 0.0001 16.4646 -0.0001
# 3 31.0891 13.0773 98.1267 0.0003 5.2382 -0.0003
# 4 0.0001 0.0001 0.0003 -20.3868 -0.0002 -42.1092
# 5 7.0624 16.4646 5.2382 -0.0002 51.2892 0.0001
# 6 -0.0001 -0.0001 -0.0003 -42.1092 0.0001 8.1003
#
#
#
# Elastic Compliance Matrix: (Units=1/GPa)
#
#
# Indices 1 2 3 4 5 6 
#
# 1 0.012292 -0.001865 -0.003607 0.000000 -0.000725 0.000000
# 2 -0.001865 0.013047 -0.000943 0.000000 -0.003835 0.000000
# 3 -0.003607 -0.000943 0.011479 0.000000 -0.000373 0.000000
# 4 0.000000 0.000000 0.000000 -0.004179 0.000000 -0.021725
# 5 -0.000725 -0.003835 -0.000373 0.000000 0.020866 0.000000
# 6 0.000000 0.000000 0.000000 -0.021725 0.000000 0.010518
#
#
# Mechanical properties :
#
#
# Convention : Reuss Voigt Hill
#
# Bulk Modulus (GPa) = 41.68840 44.48952 43.08896
# Shear Modulus (GPa) = 58.92733 22.12051 40.52392
#
# Velocity S-wave (km/s) = 5.04418 3.09051 4.18300
# Velocity P-wave (km/s) = 7.20592 5.65197 6.47573
#
# Compressibility (1/GPa) = 0.02398749
#
# Stress axis : x y z
#
# Youngs Moduli (GPa) = 81.35589 76.64330 87.11342
#
# Poissons Ratio (x) = 0.14297 0.31422
# Poissons Ratio (y) = 0.15176 0.08216
# Poissons Ratio (z) = 0.29345 0.07228
#
# Static dielectric constant tensor:
#      x y z
#    x 1.838480 0.000000 0.057520 
#    y 0.000000 2.238020 0.000000 
#    z 0.057520 0.000000 2.058430 
# 
# From -- ./inp_files/215697.got.cif
#   From: 2010.05.17/outbox.cif.g08.bks.cpg/sg15_108_cif.got.tgz:215697.got - 2010.06.03 18:47:42.
