data_PCOD9291889
_publ_section_title
;
Structure prediction by ZEFSAII (Michael W. Deem and Ramdas Pophale) SiO2 
 PCOD9291889
Probable space group: C 2/C
;
_chemical_formula_sum "Si O2"
_cell_formula_units_Z 40
_cell_length_a 10.217771
_cell_length_b 10.688518
_cell_length_c 14.714571
_cell_angle_alpha 90.000000
_cell_angle_beta 97.098447
_cell_angle_gamma 90.000000
_cell_volume 1594.702585
_symmetry_space_group_name_H-M "C 2/C"
_symmetry_group_IT_number 15
_symmetry_cell_setting 'monoclinic'
loop_
_space_group_symop_operation_xyz
x,y,z
-x,y,1/2-z
-x,-y,-z
x,-y,1/2+z
1/2+x,1/2+y,z
1/2-x,1/2+y,1/2-z
1/2-x,1/2-y,-z
1/2+x,1/2-y,1/2+z
loop_
_atom_site_type_symbol
_atom_site_label
_atom_site_fract_x
_atom_site_fract_y
_atom_site_fract_z
Si Si1 0.255222 0.658232 0.584887
Si Si2 0.099043 0.525415 0.174708
Si Si3 0.816090 0.169737 0.272692
Si Si4 0.696805 0.733288 0.596070
Si Si5 0.488629 0.473525 0.353953
O O1 0.250000 0.750000 0.500000
O O2 0.122073 0.585950 0.605128
O O3 0.278017 0.753164 0.669772
O O4 0.372296 0.557454 0.587293
O O5 0.240764 0.544087 0.235964
O O6 0.094407 0.656017 0.118311
O O7 0.000000 0.509856 0.250000
O O8 0.814394 0.250929 0.180553
O O9 0.941686 0.117183 0.337309
O O10 0.750000 0.750000 0.500000
O O11 0.620962 0.604542 0.602816
O O12 0.500000 0.428658 0.250000
#
# Coordination Sequence:
#
# PCOD9291889 Si02
#       5
#     8   8   8   8   8
#     4  12  27  48  70 113 155 200 263 326 384 471
#     4  10  22  46  73 101 149 199 252 315 392 462
#     4  10  23  42  78 100 145 203 253 305 403 445
#     4  10  22  42  75 110 145 195 257 323 387 465
#     4  12  21  49  74 101 153 204 251 320 391 464
#
# _framework density 25.083047000000001
#
# number of rings (size 3 to 8) (size 9 to 14) (size 15 to 20)
#    1.200    0.000    4.000    1.800    2.800    1.600 
#   10.800    2.000    0.000    0.000    0.000    0.000 
#    0.000    0.000    0.000    0.000    0.000    0.000 
#
# Total GULP energy -111587.985453 kJ/mol
# GULP energy per Si atom -5579.399273 kJ/mol
# Density = 2.502596 g / cm^3
# Si number density = 25.083047 Si / 1000 Ang^3
#
#
#
# Elastic Constant Matrix: (Units=GPa)
#
#
# Indices 1 2 3 4 5 6 
#
# 1 96.3398 39.1945 44.7426 0.0000 -16.6945 0.0000
# 2 39.1945 94.4320 37.6372 0.0000 -14.1768 0.0000
# 3 44.7426 37.6372 131.8035 0.0000 -34.8881 0.0000
# 4 0.0000 0.0000 0.0000 48.1575 0.0000 -11.5417
# 5 -16.6945 -14.1768 -34.8881 0.0000 34.0660 0.0000
# 6 0.0000 0.0000 0.0000 -11.5417 0.0000 26.5507
#
#
#
# Elastic Compliance Matrix: (Units=1/GPa)
#
#
# Indices 1 2 3 4 5 6 
#
# 1 0.013830 -0.004266 -0.002953 0.000000 0.001978 0.000000
# 2 -0.004266 0.013369 -0.001989 0.000000 0.001435 0.000000
# 3 -0.002953 -0.001989 0.011737 0.000000 0.009745 0.000000
# 4 0.000000 0.000000 0.000000 0.023180 0.000000 0.010076
# 5 0.001978 0.001435 0.009745 0.000000 0.040902 0.000000
# 6 0.000000 0.000000 0.000000 0.010076 0.000000 0.042044
#
#
# Mechanical properties :
#
#
# Convention : Reuss Voigt Hill
#
# Bulk Modulus (GPa) = 48.73632 62.85822 55.79727
# Shear Modulus (GPa) = 29.35683 35.15492 32.25587
#
# Velocity S-wave (km/s) = 3.42480 3.74778 3.58992
# Velocity P-wave (km/s) = 5.92547 6.62135 6.28305
#
# Compressibility (1/GPa) = 0.02051858
#
# Stress axis : x y z
#
# Youngs Moduli (GPa) = 72.30801 74.80143 85.19990
#
# Poissons Ratio (x) = 0.31912 0.25159
# Poissons Ratio (y) = 0.30848 0.16949
# Poissons Ratio (z) = 0.21352 0.14880
#
# Static dielectric constant tensor:
#      x y z
#    x 2.171880 0.000000 0.046240 
#    y 0.000000 2.016610 0.000000 
#    z 0.046240 0.000000 2.013170 
# 
# From -- ./inp_files/141913.got.cif
#   From: 2010.05.17/outbox.cif.g08.bks.cpg/sg15_71_cif.got.tgz:141913.got - 2010.06.03 18:47:42.
