data_PCOD9291218
_publ_section_title
;
Structure prediction by ZEFSAII (Michael W. Deem and Ramdas Pophale) SiO2 
 PCOD9291218
Probable space group: C 2/C
;
_chemical_formula_sum "Si O2"
_cell_formula_units_Z 28
_cell_length_a 9.889244
_cell_length_b 10.692617
_cell_length_c 16.023805
_cell_angle_alpha 90.000000
_cell_angle_beta 39.138540
_cell_angle_gamma 90.000000
_cell_volume 1069.493485
_symmetry_space_group_name_H-M "C 2/C"
_symmetry_group_IT_number 15
_symmetry_cell_setting 'monoclinic'
loop_
_space_group_symop_operation_xyz
x,y,z
-x,y,1/2-z
-x,-y,-z
x,-y,1/2+z
1/2+x,1/2+y,z
1/2-x,1/2+y,1/2-z
1/2-x,1/2-y,-z
1/2+x,1/2-y,1/2+z
loop_
_atom_site_type_symbol
_atom_site_label
_atom_site_fract_x
_atom_site_fract_y
_atom_site_fract_z
Si Si1 0.233538 0.576011 0.980937
Si Si2 0.677265 0.628549 0.854909
Si Si3 0.488551 0.181803 0.571457
Si Si4 0.500000 0.914739 0.750000
O O1 0.474160 0.588643 0.897024
O O2 0.180352 0.633662 0.917038
O O3 0.146782 0.433777 0.014757
O O4 0.083741 0.643408 0.123543
O O5 0.850033 0.708644 0.719621
O O6 0.801660 0.503060 0.820122
O O7 0.605523 0.705008 0.970190
#
# Coordination Sequence:
#
# PCOD9291218 Si02
#       4
#     8   8   8   4
#     4  10  22  42  65  97 134 174 219 275 330 404
#     4  11  23  44  66  98 135 171 224 277 328 407
#     4  10  24  43  67 101 129 176 226 266 346 391
#     4  10  24  42  64 102 122 176 224 264 350 382
#
# _framework density 26.180616000000001
#
# number of rings (size 3 to 8) (size 9 to 14) (size 15 to 20)
#    0.000    1.714    0.000    2.571    4.000    4.571 
#   25.714    0.000    0.000    0.000    0.000    0.000 
#    0.000    0.000    0.000    0.000    0.000    0.000 
#
# Total GULP energy -78540.725703 kJ/mol
# GULP energy per Si atom -5610.051836 kJ/mol
# Density = 2.612103 g / cm^3
# Si number density = 26.180616 Si / 1000 Ang^3
#
#
#
# Elastic Constant Matrix: (Units=GPa)
#
#
# Indices 1 2 3 4 5 6 
#
# 1 114.3713 49.7727 10.4311 0.0000 -8.1931 0.0000
# 2 49.7727 71.7975 26.3841 0.0000 -23.4442 0.0000
# 3 10.4311 26.3841 149.9636 -0.0001 25.2648 0.0000
# 4 0.0000 0.0000 -0.0001 47.0499 0.0000 -0.3910
# 5 -8.1931 -23.4442 25.2648 0.0000 50.0469 0.0000
# 6 0.0000 0.0000 0.0000 -0.3910 0.0000 40.6063
#
#
#
# Elastic Compliance Matrix: (Units=1/GPa)
#
#
# Indices 1 2 3 4 5 6 
#
# 1 0.013067 -0.010907 0.001651 0.000000 -0.003804 0.000000
# 2 -0.010907 0.029037 -0.006930 0.000000 0.015315 0.000000
# 3 0.001651 -0.006930 0.009043 0.000000 -0.007541 0.000000
# 4 0.000000 0.000000 0.000000 0.021256 0.000000 0.000205
# 5 -0.003804 0.015315 -0.007541 0.000000 0.030340 0.000000
# 6 0.000000 0.000000 0.000000 0.000205 0.000000 0.024629
#
#
# Mechanical properties :
#
#
# Convention : Reuss Voigt Hill
#
# Bulk Modulus (GPa) = 53.26462 56.58980 54.92721
# Shear Modulus (GPa) = 30.11992 44.17692 37.14842
#
# Velocity S-wave (km/s) = 3.39553 4.11224 3.77095
# Velocity P-wave (km/s) = 5.98014 6.64902 6.32343
#
# Compressibility (1/GPa) = 0.01877419
#
# Stress axis : x y z
#
# Youngs Moduli (GPa) = 76.52792 34.43873 110.57981
#
# Poissons Ratio (x) = 0.37564 -0.18256
# Poissons Ratio (y) = 0.83472 0.76634
# Poissons Ratio (z) = -0.12634 0.23867
#
# Static dielectric constant tensor:
#      x y z
#    x 2.027300 0.000000 0.040380 
#    y 0.000000 2.084410 0.000000 
#    z 0.040380 0.000000 2.055940 
# 
# From -- ./inp_files/27302.got.cif
#   From: 2010.05.17/outbox.cif.g08.bks.cpg/sg15_14_cif.got.tgz:27302.got - 2010.06.03 18:47:42.
