data_PCOD9291965
_publ_section_title
;
Structure prediction by ZEFSAII (Michael W. Deem and Ramdas Pophale) SiO2 
 PCOD9291965
Probable space group: C 2/C
;
_chemical_formula_sum "Si O2"
_cell_formula_units_Z 40
_cell_length_a 14.119546
_cell_length_b 11.924228
_cell_length_c 18.174084
_cell_angle_alpha 90.000000
_cell_angle_beta 145.834835
_cell_angle_gamma 90.000000
_cell_volume 1718.365296
_symmetry_space_group_name_H-M "C 2/C"
_symmetry_group_IT_number 15
_symmetry_cell_setting 'monoclinic'
loop_
_space_group_symop_operation_xyz
x,y,z
-x,y,1/2-z
-x,-y,-z
x,-y,1/2+z
1/2+x,1/2+y,z
1/2-x,1/2+y,1/2-z
1/2-x,1/2-y,-z
1/2+x,1/2-y,1/2+z
loop_
_atom_site_type_symbol
_atom_site_label
_atom_site_fract_x
_atom_site_fract_y
_atom_site_fract_z
Si Si1 0.806608 0.902352 0.146117
Si Si2 0.066000 0.736649 0.585025
Si Si3 0.706896 0.113225 0.184065
Si Si4 0.434463 0.922206 0.633824
Si Si5 0.598214 0.170900 0.880712
O O1 0.733988 0.808234 0.154004
O O2 0.000000 0.910707 0.250000
O O3 0.744304 0.018718 0.146041
O O4 0.714989 0.874675 0.010611
O O5 0.121938 0.849895 0.663375
O O6 0.904299 0.713710 0.427383
O O7 0.020931 0.661596 0.625957
O O8 0.584807 0.072227 0.170946
O O9 0.500000 0.864629 0.750000
O O10 0.360877 0.043279 0.612684
O O11 0.500000 0.224552 0.750000
O O12 0.750000 0.250000 0.000000
#
# Coordination Sequence:
#
# PCOD9291965 Si02
#       5
#     8   8   8   8   8
#     4  11  24  45  66  95 134 178 218 267 331 394
#     4  11  23  43  67  95 132 174 218 270 329 391
#     4  11  23  44  66  94 133 173 218 276 325 389
#     4  10  22  43  64  91 133 172 210 276 328 383
#     4  11  22  36  62  97 130 163 211 268 333 380
#
# _framework density 23.277937999999999
#
# number of rings (size 3 to 8) (size 9 to 14) (size 15 to 20)
#    0.000    1.200    4.000    2.400    2.800    2.400 
#    0.000    6.000    0.000    0.000    0.000    0.000 
#    0.000    0.000    0.000    0.000    0.000    0.000 
#
# Total GULP energy -111499.076661 kJ/mol
# GULP energy per Si atom -5574.953833 kJ/mol
# Density = 2.322496 g / cm^3
# Si number density = 23.277938 Si / 1000 Ang^3
#
#
#
# Elastic Constant Matrix: (Units=GPa)
#
#
# Indices 1 2 3 4 5 6 
#
# 1 126.6697 2.0163 83.1231 -0.0002 -9.7076 0.0000
# 2 2.0163 56.9655 29.4159 -0.0008 -9.6703 -0.0001
# 3 83.1231 29.4159 129.3217 -0.0017 -33.8458 -0.0004
# 4 -0.0002 -0.0008 -0.0017 2.8749 -0.0006 -1.8106
# 5 -9.7076 -9.6703 -33.8458 -0.0006 39.6836 -0.0001
# 6 0.0000 -0.0001 -0.0004 -1.8106 -0.0001 20.7655
#
#
#
# Elastic Compliance Matrix: (Units=1/GPa)
#
#
# Indices 1 2 3 4 5 6 
#
# 1 0.015785 0.005074 -0.012830 -0.000007 -0.005845 -0.000001
# 2 0.005074 0.021572 -0.008326 0.000001 -0.000603 0.000000
# 3 -0.012830 -0.008326 0.021268 0.000013 0.012972 0.000002
# 4 -0.000007 0.000001 0.000013 0.368047 0.000016 0.032090
# 5 -0.005845 -0.000603 0.012972 0.000016 0.034686 0.000002
# 6 -0.000001 0.000000 0.000002 0.032090 0.000002 0.050955
#
#
# Mechanical properties :
#
#
# Convention : Reuss Voigt Hill
#
# Bulk Modulus (GPa) = 37.79096 60.22972 49.01034
# Shear Modulus (GPa) = 9.03673 25.89157 17.46415
#
# Velocity S-wave (km/s) = 1.97244 3.33870 2.74203
# Velocity P-wave (km/s) = 4.63220 6.38693 5.57899
#
# Compressibility (1/GPa) = 0.02646135
#
# Stress axis : x y z
#
# Youngs Moduli (GPa) = 63.35081 46.35646 47.01863
#
# Poissons Ratio (x) = -0.23522 0.60325
# Poissons Ratio (y) = -0.32146 0.39149
# Poissons Ratio (z) = 0.81279 0.38598
#
# Static dielectric constant tensor:
#      x y z
#    x 1.797260 0.000000 0.066130 
#    y 0.000000 1.991120 0.000000 
#    z 0.066130 0.000000 1.836760 
# 
# From -- ./inp_files/37953.got.cif
#   From: 2010.05.17/outbox.cif.g08.bks.cpg/sg15_19_cif.got.tgz:37953.got - 2010.06.03 18:47:42.
