data_PCOD9291915
_publ_section_title
;
Structure prediction by ZEFSAII (Michael W. Deem and Ramdas Pophale) SiO2 
 PCOD9291915
Probable space group: C 2/C
;
_chemical_formula_sum "Si O2"
_cell_formula_units_Z 36
_cell_length_a 31.422161
_cell_length_b 7.787111
_cell_length_c 11.126258
_cell_angle_alpha 90.000000
_cell_angle_beta 142.789466
_cell_angle_gamma 90.000000
_cell_volume 1646.395695
_symmetry_space_group_name_H-M "C 2/C"
_symmetry_group_IT_number 15
_symmetry_cell_setting 'monoclinic'
loop_
_space_group_symop_operation_xyz
x,y,z
-x,y,1/2-z
-x,-y,-z
x,-y,1/2+z
1/2+x,1/2+y,z
1/2-x,1/2+y,1/2-z
1/2-x,1/2-y,-z
1/2+x,1/2-y,1/2+z
loop_
_atom_site_type_symbol
_atom_site_label
_atom_site_fract_x
_atom_site_fract_y
_atom_site_fract_z
Si Si1 0.500000 0.409010 0.750000
Si Si2 0.965999 0.326647 0.374020
Si Si3 0.190572 0.619315 0.018839
Si Si4 0.215347 0.564565 0.810895
Si Si5 0.928814 0.769387 0.043397
O O1 0.487731 0.284785 0.611009
O O2 0.564457 0.544184 0.879332
O O3 0.944848 0.208989 0.439092
O O4 0.000000 0.500000 0.500000
O O5 0.892562 0.375156 0.147410
O O6 0.224658 0.565984 0.221845
O O7 0.219830 0.804986 0.048612
O O8 0.205097 0.509884 0.928051
O O9 0.144146 0.670691 0.614764
O O10 0.000000 0.673460 0.250000
#
# Coordination Sequence:
#
# PCOD9291915 Si02
#       5
#     4   8   8   8   8
#     4  10  24  36  64  90 118 170 196 256 316 362
#     4  11  23  39  63  93 125 158 213 257 312 369
#     4  10  24  40  64  89 126 167 207 259 314 366
#     4  10  22  43  61  93 127 164 211 260 306 379
#     4   9  21  40  61  89 127 158 205 255 307 375
#
# _framework density 21.865946000000001
#
# number of rings (size 3 to 8) (size 9 to 14) (size 15 to 20)
#    0.667    1.333    0.000    2.000   10.889    0.889 
#    0.000    0.000    0.000    0.000    0.000    0.000 
#    0.000    0.000    0.000    0.000    0.000    0.000 
#
# Total GULP energy -100257.543039 kJ/mol
# GULP energy per Si atom -5569.863502 kJ/mol
# Density = 2.181618 g / cm^3
# Si number density = 21.865946 Si / 1000 Ang^3
#
#
#
# Elastic Constant Matrix: (Units=GPa)
#
#
# Indices 1 2 3 4 5 6 
#
# 1 48.3417 6.2394 -6.5933 0.0000 -9.0578 0.0000
# 2 6.2394 35.2939 -10.1420 0.0000 -3.0098 0.0000
# 3 -6.5933 -10.1420 54.4044 0.0000 2.5489 0.0000
# 4 0.0000 0.0000 0.0000 30.8729 0.0000 -12.9568
# 5 -9.0578 -3.0098 2.5489 0.0000 42.7402 0.0000
# 6 0.0000 0.0000 0.0000 -12.9568 0.0000 25.6268
#
#
#
# Elastic Compliance Matrix: (Units=1/GPa)
#
#
# Indices 1 2 3 4 5 6 
#
# 1 0.022153 -0.002991 0.001922 0.000000 0.004370 0.000000
# 2 -0.002991 0.030477 0.005263 0.000000 0.001198 0.000000
# 3 0.001922 0.005263 0.019613 0.000000 -0.000392 0.000000
# 4 0.000000 0.000000 0.000000 0.041115 0.000000 0.020788
# 5 0.004370 0.001198 -0.000392 0.000000 0.024431 0.000000
# 6 0.000000 0.000000 0.000000 0.020788 0.000000 0.049532
#
#
# Mechanical properties :
#
#
# Convention : Reuss Voigt Hill
#
# Bulk Modulus (GPa) = 12.40217 13.00535 12.70376
# Shear Modulus (GPa) = 24.29424 29.75038 27.02231
#
# Velocity S-wave (km/s) = 3.33686 3.69261 3.51923
# Velocity P-wave (km/s) = 4.53105 4.91336 4.72607
#
# Compressibility (1/GPa) = 0.08063106
#
# Stress axis : x y z
#
# Youngs Moduli (GPa) = 45.14049 32.81180 50.98591
#
# Poissons Ratio (x) = 0.09815 -0.09801
# Poissons Ratio (y) = 0.13503 -0.26833
# Poissons Ratio (z) = -0.08678 -0.17268
#
# Static dielectric constant tensor:
#      x y z
#    x 1.832100 0.000000 -0.038620 
#    y 0.000000 1.838830 0.000000 
#    z -0.038620 0.000000 1.868390 
# 
# From -- ./inp_files/102469.got.cif
#   From: 2010.05.17/outbox.cif.g08.bks.cpg/sg15_52_cif.got.tgz:102469.got - 2010.06.03 18:47:42.
