data_PCOD9291681
_publ_section_title
;
Structure prediction by ZEFSAII (Michael W. Deem and Ramdas Pophale) SiO2 
 PCOD9291681
Probable space group: C 2/C
;
_chemical_formula_sum "Si O2"
_cell_formula_units_Z 36
_cell_length_a 6.997724
_cell_length_b 13.683136
_cell_length_c 17.997217
_cell_angle_alpha 90.000000
_cell_angle_beta 55.675430
_cell_angle_gamma 90.000000
_cell_volume 1423.155746
_symmetry_space_group_name_H-M "C 2/C"
_symmetry_group_IT_number 15
_symmetry_cell_setting 'monoclinic'
loop_
_space_group_symop_operation_xyz
x,y,z
-x,y,1/2-z
-x,-y,-z
x,-y,1/2+z
1/2+x,1/2+y,z
1/2-x,1/2+y,1/2-z
1/2-x,1/2-y,-z
1/2+x,1/2-y,1/2+z
loop_
_atom_site_type_symbol
_atom_site_label
_atom_site_fract_x
_atom_site_fract_y
_atom_site_fract_z
Si Si1 0.080015 0.725693 0.471559
Si Si2 0.733888 0.329615 0.294765
Si Si3 0.500000 0.164724 0.250000
Si Si4 0.965922 0.451816 0.904355
Si Si5 0.788888 0.094288 0.902407
O O1 0.250000 0.750000 0.500000
O O2 0.124746 0.805038 0.399516
O O3 0.125525 0.626260 0.415059
O O4 0.821883 0.703393 0.559079
O O5 0.683253 0.238906 0.249764
O O6 0.547435 0.412413 0.316965
O O7 0.000000 0.349455 0.250000
O O8 0.582785 0.093478 0.164965
O O9 0.108678 0.550668 0.881788
O O10 0.751354 0.456880 0.008625
#
# Coordination Sequence:
#
# PCOD9291681 Si02
#       5
#     8   8   4   8   8
#     4   9  19  37  68 101 129 177 240 283 341 423
#     4  11  24  37  69 106 143 185 233 292 352 421
#     4  10  22  42  70 102 146 182 236 298 350 412
#     4   8  19  40  74  99 137 183 231 299 347 410
#     4   9  19  42  70 100 137 180 241 284 346 427
#
# _framework density 25.295895000000002
#
# number of rings (size 3 to 8) (size 9 to 14) (size 15 to 20)
#    1.333    1.333    0.000    0.667    3.111    0.000 
#    0.000    5.556   19.556    5.333    0.000    1.556 
#    0.000    0.000    0.000    0.000    0.000    0.000 
#
# Total GULP energy -100316.634471 kJ/mol
# GULP energy per Si atom -5573.146360 kJ/mol
# Density = 2.523832 g / cm^3
# Si number density = 25.295895 Si / 1000 Ang^3
#
#
#
# Elastic Constant Matrix: (Units=GPa)
#
#
# Indices 1 2 3 4 5 6 
#
# 1 189.0304 33.4865 86.1899 0.0000 -22.8085 0.0000
# 2 33.4865 38.4695 31.4964 0.0000 -6.3617 0.0000
# 3 86.1899 31.4964 174.2985 0.0001 19.3300 -0.0001
# 4 0.0000 0.0000 0.0001 30.5476 -0.0001 12.0439
# 5 -22.8085 -6.3617 19.3300 -0.0001 59.6878 0.0001
# 6 0.0000 0.0000 -0.0001 12.0439 0.0001 10.8597
#
#
#
# Elastic Compliance Matrix: (Units=1/GPa)
#
#
# Indices 1 2 3 4 5 6 
#
# 1 0.008111 -0.003227 -0.003873 0.000000 0.004010 0.000000
# 2 -0.003227 0.033448 -0.004882 0.000000 0.003913 0.000000
# 3 -0.003873 -0.004882 0.009083 0.000000 -0.004942 0.000000
# 4 0.000000 0.000000 0.000000 0.058172 0.000000 -0.064515
# 5 0.004010 0.003913 -0.004942 0.000000 0.020304 0.000000
# 6 0.000000 0.000000 0.000000 -0.064515 0.000000 0.163633
#
#
# Mechanical properties :
#
#
# Convention : Reuss Voigt Hill
#
# Bulk Modulus (GPa) = 37.48402 78.23821 57.86112
# Shear Modulus (GPa) = 15.35593 36.92741 26.14167
#
# Velocity S-wave (km/s) = 2.46652 3.82490 3.21820
# Velocity P-wave (km/s) = 4.79187 7.10654 6.06073
#
# Compressibility (1/GPa) = 0.02667803
#
# Stress axis : x y z
#
# Youngs Moduli (GPa) = 123.28362 29.89709 110.10076
#
# Poissons Ratio (x) = 0.09648 0.42638
# Poissons Ratio (y) = 0.39783 0.53756
# Poissons Ratio (z) = 0.47743 0.14597
#
# Static dielectric constant tensor:
#      x y z
#    x 2.533700 0.000000 -0.040980 
#    y 0.000000 2.126770 0.000000 
#    z -0.040980 0.000000 2.087370 
# 
# From -- ./inp_files/132639.got.cif
#   From: 2010.05.17/outbox.cif.g08.bks.cpg/sg15_67_cif.got.tgz:132639.got - 2010.06.03 18:47:42.
