data_PCOD9291623
_publ_section_title
;
Structure prediction by ZEFSAII (Michael W. Deem and Ramdas Pophale) SiO2 
 PCOD9291623
Probable space group: C 2/C
;
_chemical_formula_sum "Si O2"
_cell_formula_units_Z 60
_cell_length_a 31.311156
_cell_length_b 11.085945
_cell_length_c 11.732433
_cell_angle_alpha 90.000000
_cell_angle_beta 130.678424
_cell_angle_gamma 90.000000
_cell_volume 3088.493464
_symmetry_space_group_name_H-M "C 2/C"
_symmetry_group_IT_number 15
_symmetry_cell_setting 'monoclinic'
loop_
_space_group_symop_operation_xyz
x,y,z
-x,y,1/2-z
-x,-y,-z
x,-y,1/2+z
1/2+x,1/2+y,z
1/2-x,1/2+y,1/2-z
1/2-x,1/2-y,-z
1/2+x,1/2-y,1/2+z
loop_
_atom_site_type_symbol
_atom_site_label
_atom_site_fract_x
_atom_site_fract_y
_atom_site_fract_z
Si Si1 0.810898 0.723191 0.552367
Si Si2 0.347883 0.645182 0.498905
Si Si3 0.142201 0.250298 0.736731
Si Si4 0.141814 0.375268 0.137521
Si Si5 0.950372 0.430070 0.975450
Si Si6 0.779029 0.582893 0.273205
Si Si7 0.000000 0.253008 0.250000
Si Si8 0.611479 0.389689 0.952876
O O1 0.750000 0.750000 0.500000
O O2 0.850630 0.670460 0.720139
O O3 0.802428 0.629402 0.434708
O O4 0.839828 0.839543 0.545962
O O5 0.343323 0.680958 0.623304
O O6 0.364895 0.762281 0.456604
O O7 0.287330 0.600134 0.348223
O O8 0.389311 0.533106 0.553223
O O9 0.090748 0.343613 0.669478
O O10 0.192459 0.332715 0.773932
O O11 0.125014 0.160946 0.603301
O O12 0.091610 0.471859 0.041643
O O13 0.199029 0.447807 0.207029
O O14 0.978786 0.340619 0.114270
O O15 0.000000 0.500000 0.000000
O O16 0.946823 0.170184 0.187806
#
# Coordination Sequence:
#
# PCOD9291623 Si02
#       8
#     8   8   8   8   8   8   4   8
#     4  11  21  42  64  94 132 172 211 252 323 389
#     4  12  24  39  65  96 131 167 212 266 307 385
#     4   9  23  42  61  95 127 167 214 256 322 377
#     4  11  25  38  65 104 122 167 223 259 314 378
#     4  10  22  42  69  92 124 163 211 273 320 370
#     4  10  23  40  63  92 136 170 203 261 318 378
#     4  10  22  48  66  86 124 172 210 260 336 378
#     4  10  24  43  65  88 127 174 212 261 325 385
#
# _framework density 19.426946999999998
#
# number of rings (size 3 to 8) (size 9 to 14) (size 15 to 20)
#    0.000    1.600    1.333    2.800    9.333    1.067 
#    2.400    1.333    0.000    0.000    0.000    0.000 
#    0.000    0.000    0.000    0.000    0.000    0.000 
#
# Total GULP energy -167635.105566 kJ/mol
# GULP energy per Si atom -5587.836852 kJ/mol
# Density = 1.938273 g / cm^3
# Si number density = 19.426947 Si / 1000 Ang^3
#
#
#
# Elastic Constant Matrix: (Units=GPa)
#
#
# Indices 1 2 3 4 5 6 
#
# 1 75.8898 40.5056 25.6111 0.0000 5.3315 0.0000
# 2 40.5056 137.2291 39.6549 0.0000 -6.1224 0.0000
# 3 25.6111 39.6549 78.0941 0.0000 -6.2282 0.0000
# 4 0.0000 0.0000 0.0000 25.3195 0.0000 4.8298
# 5 5.3315 -6.1224 -6.2282 0.0000 34.0909 0.0000
# 6 0.0000 0.0000 0.0000 4.8298 0.0000 24.7756
#
#
#
# Elastic Compliance Matrix: (Units=1/GPa)
#
#
# Indices 1 2 3 4 5 6 
#
# 1 0.016924 -0.004078 -0.003804 0.000000 -0.004074 0.000000
# 2 -0.004078 0.009542 -0.003369 0.000000 0.001736 0.000000
# 3 -0.003804 -0.003369 0.015996 0.000000 0.002912 0.000000
# 4 0.000000 0.000000 0.000000 0.041021 0.000000 -0.007997
# 5 -0.004074 0.001736 0.002912 0.000000 0.030814 0.000000
# 6 0.000000 0.000000 0.000000 -0.007997 0.000000 0.041921
#
#
# Mechanical properties :
#
#
# Convention : Reuss Voigt Hill
#
# Bulk Modulus (GPa) = 50.10488 55.86181 52.98335
# Shear Modulus (GPa) = 26.97261 29.19997 28.08629
#
# Velocity S-wave (km/s) = 3.73018 3.88114 3.80641
# Velocity P-wave (km/s) = 6.66332 6.99297 6.83013
#
# Compressibility (1/GPa) = 0.01995813
#
# Stress axis : x y z
#
# Youngs Moduli (GPa) = 59.08921 104.80211 62.51580
#
# Poissons Ratio (x) = 0.42735 0.23784
# Poissons Ratio (y) = 0.24095 0.21064
# Poissons Ratio (z) = 0.22480 0.35313
#
# Static dielectric constant tensor:
#      x y z
#    x 1.679320 0.000000 0.016900 
#    y 0.000000 1.677120 0.000000 
#    z 0.016900 0.000000 1.687580 
# 
# From -- ./inp_files/126465.got.cif
#   From: 2010.05.17/outbox.cif.g08.bks.cpg/sg15_64_cif.got.tgz:126465.got - 2010.06.03 18:47:42.
