data_PCOD9291416
_publ_section_title
;
Structure prediction by ZEFSAII (Michael W. Deem and Ramdas Pophale) SiO2 
 PCOD9291416
Probable space group: C 2/C
;
_chemical_formula_sum "Si O2"
_cell_formula_units_Z 32
_cell_length_a 15.354827
_cell_length_b 11.055381
_cell_length_c 8.965470
_cell_angle_alpha 90.000000
_cell_angle_beta 93.921138
_cell_angle_gamma 90.000000
_cell_volume 1518.356943
_symmetry_space_group_name_H-M "C 2/C"
_symmetry_group_IT_number 15
_symmetry_cell_setting 'monoclinic'
loop_
_space_group_symop_operation_xyz
x,y,z
-x,y,1/2-z
-x,-y,-z
x,-y,1/2+z
1/2+x,1/2+y,z
1/2-x,1/2+y,1/2-z
1/2-x,1/2-y,-z
1/2+x,1/2-y,1/2+z
loop_
_atom_site_type_symbol
_atom_site_label
_atom_site_fract_x
_atom_site_fract_y
_atom_site_fract_z
Si Si1 0.817285 0.355579 0.993878
Si Si2 0.223797 0.006290 0.730145
Si Si3 0.503979 0.135121 0.428936
Si Si4 0.660542 0.324806 0.478287
O O1 0.781835 0.430956 0.851316
O O2 0.913970 0.309536 0.979581
O O3 0.750000 0.250000 0.000000
O O4 0.798521 0.433223 0.137623
O O5 0.165195 0.921884 0.614813
O O6 0.167266 0.100262 0.823071
O O7 0.500000 0.123349 0.250000
O O8 0.583440 0.225751 0.476063
O O9 0.500000 0.000000 0.500000
O O10 0.750000 0.250000 0.500000
#
# Coordination Sequence:
#
# PCOD9291416 Si02
#       4
#     8   8   8   8
#     4  11  22  41  64  91 125 166 212 263 323 391
#     4  10  22  42  67  94 133 173 212 274 340 390
#     4  12  25  42  67  98 129 169 223 277 328 393
#     4  11  23  43  68  99 135 174 223 278 334 398
#
# _framework density 21.075412
#
# number of rings (size 3 to 8) (size 9 to 14) (size 15 to 20)
#    0.000    1.000    0.000    9.000    0.000    2.000 
#    0.000   13.750    0.000    0.000    0.000    0.000 
#    0.000    0.000    0.000    0.000    0.000    0.000 
#
# Total GULP energy -89414.622513 kJ/mol
# GULP energy per Si atom -5588.413907 kJ/mol
# Density = 2.102744 g / cm^3
# Si number density = 21.075412 Si / 1000 Ang^3
#
#
#
# Elastic Constant Matrix: (Units=GPa)
#
#
# Indices 1 2 3 4 5 6 
#
# 1 202.9376 93.9453 57.3129 0.0000 -19.3215 0.0000
# 2 93.9453 129.5999 79.6417 0.0000 -9.5172 0.0000
# 3 57.3129 79.6417 129.0740 0.0000 -18.6762 0.0000
# 4 0.0000 0.0000 0.0000 -25.2510 0.0000 -6.5875
# 5 -19.3215 -9.5172 -18.6762 0.0000 16.8423 0.0000
# 6 0.0000 0.0000 0.0000 -6.5875 0.0000 47.8761
#
#
#
# Elastic Compliance Matrix: (Units=1/GPa)
#
#
# Indices 1 2 3 4 5 6 
#
# 1 0.008080 -0.006061 0.001189 0.000000 0.007162 0.000000
# 2 -0.006061 0.017020 -0.008844 0.000000 -0.007143 0.000000
# 3 0.001189 -0.008844 0.014473 0.000000 0.012415 0.000000
# 4 0.000000 0.000000 0.000000 -0.038230 0.000000 -0.005260
# 5 0.007162 -0.007143 0.012415 0.000000 0.077321 0.000000
# 6 0.000000 0.000000 0.000000 -0.005260 0.000000 0.020163
#
#
# Mechanical properties :
#
#
# Convention : Reuss Voigt Hill
#
# Bulk Modulus (GPa) = 82.37523 102.60124 92.48824
# Shear Modulus (GPa) = 38.37087 23.27424 30.82256
#
# Velocity S-wave (km/s) = 4.27153 3.32675 3.82840
# Velocity P-wave (km/s) = 7.96861 7.97151 7.97006
#
# Compressibility (1/GPa) = 0.01213957
#
# Stress axis : x y z
#
# Youngs Moduli (GPa) = 123.76476 58.75393 69.09463
#
# Poissons Ratio (x) = 0.35614 -0.08213
# Poissons Ratio (y) = 0.75020 0.61106
# Poissons Ratio (z) = -0.14712 0.51961
#
# Static dielectric constant tensor:
#      x y z
#    x 1.739510 0.000000 -0.001460 
#    y 0.000000 1.781020 0.000000 
#    z -0.001460 0.000000 1.766900 
# 
# From -- ./inp_files/36575.got.cif
#   From: 2010.05.17/outbox.cif.g08.bks.cpg/sg15_19_cif.got.tgz:36575.got - 2010.06.03 18:47:42.
