data_PCOD9291567
_publ_section_title
;
Structure prediction by ZEFSAII (Michael W. Deem and Ramdas Pophale) SiO2 
 PCOD9291567
Probable space group: C 2/C
;
_chemical_formula_sum "Si O2"
_cell_formula_units_Z 36
_cell_length_a 5.074837
_cell_length_b 18.010089
_cell_length_c 15.732859
_cell_angle_alpha 90.000000
_cell_angle_beta 96.196879
_cell_angle_gamma 90.000000
_cell_volume 1429.553833
_symmetry_space_group_name_H-M "C 2/C"
_symmetry_group_IT_number 15
_symmetry_cell_setting 'monoclinic'
loop_
_space_group_symop_operation_xyz
x,y,z
-x,y,1/2-z
-x,-y,-z
x,-y,1/2+z
1/2+x,1/2+y,z
1/2-x,1/2+y,1/2-z
1/2-x,1/2-y,-z
1/2+x,1/2-y,1/2+z
loop_
_atom_site_type_symbol
_atom_site_label
_atom_site_fract_x
_atom_site_fract_y
_atom_site_fract_z
Si Si1 0.263614 0.083702 0.502217
Si Si2 0.781968 0.159457 0.583209
Si Si3 0.741995 0.296580 0.690973
Si Si4 0.000000 0.072829 0.750000
Si Si5 0.671524 0.457839 0.629404
O O1 0.535565 0.126202 0.523763
O O2 0.044203 0.137035 0.540127
O O3 0.133101 0.063642 0.407247
O O4 0.274801 0.005644 0.553496
O O5 0.717713 0.243376 0.608340
O O6 0.831123 0.118942 0.675951
O O7 0.500000 0.293295 0.750000
O O8 0.789228 0.380280 0.661553
O O9 0.000000 0.270580 0.750000
O O10 0.816034 0.017363 0.796058
#
# Coordination Sequence:
#
# PCOD9291567 Si02
#       5
#     8   8   8   4   8
#     4  10  25  44  69  96 134 177 215 268 328 399
#     4  11  24  44  68  95 133 177 219 264 333 387
#     4  12  26  42  66 102 131 169 221 280 320 386
#     4  10  22  42  68  98 128 180 212 282 312 404
#     4  10  24  43  68 101 134 169 224 270 329 382
#
# _framework density 25.182680000000001
#
# number of rings (size 3 to 8) (size 9 to 14) (size 15 to 20)
#    0.000    1.333    2.222    1.333    6.222   11.556 
#    0.000    0.000    0.000    0.000    0.000    0.000 
#    0.000    0.000    0.000    0.000    0.000    0.000 
#
# Total GULP energy -100841.543424 kJ/mol
# GULP energy per Si atom -5602.307968 kJ/mol
# Density = 2.512536 g / cm^3
# Si number density = 25.182680 Si / 1000 Ang^3
#
#
#
# Elastic Constant Matrix: (Units=GPa)
#
#
# Indices 1 2 3 4 5 6 
#
# 1 131.4607 17.3380 21.9318 0.0000 -3.0073 0.0000
# 2 17.3380 143.5815 7.0577 0.0000 -11.0830 0.0000
# 3 21.9318 7.0577 73.5924 0.0000 4.3653 0.0000
# 4 0.0000 0.0000 0.0000 58.0357 0.0000 -0.9481
# 5 -3.0073 -11.0830 4.3653 0.0000 32.8501 0.0000
# 6 0.0000 0.0000 0.0000 -0.9481 0.0000 40.3695
#
#
#
# Elastic Compliance Matrix: (Units=1/GPa)
#
#
# Indices 1 2 3 4 5 6 
#
# 1 0.008130 -0.000803 -0.002393 0.000000 0.000791 0.000000
# 2 -0.000803 0.007282 -0.000605 0.000000 0.002464 0.000000
# 3 -0.002393 -0.000605 0.014499 0.000000 -0.002350 0.000000
# 4 0.000000 0.000000 0.000000 0.017237 0.000000 0.000405
# 5 0.000791 0.002464 -0.002350 0.000000 0.031657 0.000000
# 6 0.000000 0.000000 0.000000 0.000405 0.000000 0.024781
#
#
# Mechanical properties :
#
#
# Convention : Reuss Voigt Hill
#
# Bulk Modulus (GPa) = 44.82593 49.03218 46.92905
# Shear Modulus (GPa) = 42.15001 46.40486 44.27744
#
# Velocity S-wave (km/s) = 4.09561 4.29736 4.19770
# Velocity P-wave (km/s) = 6.34069 6.64349 6.49385
#
# Compressibility (1/GPa) = 0.02230852
#
# Stress axis : x y z
#
# Youngs Moduli (GPa) = 123.00052 137.33314 68.97079
#
# Poissons Ratio (x) = 0.11028 0.16504
# Poissons Ratio (y) = 0.09877 0.04174
# Poissons Ratio (z) = 0.29432 0.08311
#
# Static dielectric constant tensor:
#      x y z
#    x 2.083570 0.000000 -0.218530 
#    y 0.000000 1.978250 0.000000 
#    z -0.218530 0.000000 2.402850 
# 
# From -- ./inp_files/184109.got.cif
#   From: 2010.05.17/outbox.cif.g08.bks.cpg/sg15_93_cif.got.tgz:184109.got - 2010.06.03 18:47:42.
