data_PCOD9291549
_publ_section_title
;
Structure prediction by ZEFSAII (Michael W. Deem and Ramdas Pophale) SiO2 
 PCOD9291549
Probable space group: C 2/C
;
_chemical_formula_sum "Si O2"
_cell_formula_units_Z 48
_cell_length_a 28.987281
_cell_length_b 5.044823
_cell_length_c 13.934573
_cell_angle_alpha 90.000000
_cell_angle_beta 100.370446
_cell_angle_gamma 90.000000
_cell_volume 2004.444598
_symmetry_space_group_name_H-M "C 2/C"
_symmetry_group_IT_number 15
_symmetry_cell_setting 'monoclinic'
loop_
_space_group_symop_operation_xyz
x,y,z
-x,y,1/2-z
-x,-y,-z
x,-y,1/2+z
1/2+x,1/2+y,z
1/2-x,1/2+y,1/2-z
1/2-x,1/2-y,-z
1/2+x,1/2-y,1/2+z
loop_
_atom_site_type_symbol
_atom_site_label
_atom_site_fract_x
_atom_site_fract_y
_atom_site_fract_z
Si Si1 0.314076 0.517747 0.493017
Si Si2 0.853712 0.842421 0.693627
Si Si3 0.773500 0.755476 0.802537
Si Si4 0.633317 0.977838 0.480296
Si Si5 0.955376 0.610770 0.428265
Si Si6 0.453699 0.390221 0.798299
O O1 0.316535 0.493430 0.609411
O O2 0.273874 0.645004 0.413181
O O3 0.325829 0.218834 0.465010
O O4 0.357217 0.719372 0.493948
O O5 0.826253 0.792837 0.780822
O O6 0.864673 0.584309 0.632276
O O7 0.904653 0.969960 0.728720
O O8 0.758341 0.462954 0.767812
O O9 0.586307 0.881382 0.511109
O O10 0.944570 0.397308 0.341039
O O11 0.000000 0.500000 0.500000
O O12 0.963055 0.894852 0.384033
O O13 0.500000 0.379798 0.750000
#
# Coordination Sequence:
#
# PCOD9291549 Si02
#       6
#     8   8   8   8   8   8
#     4  10  24  44  71  96 140 179 228 289 355 409
#     4  10  27  44  74 100 145 181 236 288 355 412
#     4  12  27  45  70 104 138 181 237 287 354 423
#     4  10  22  42  68  96 134 184 231 272 362 398
#     4  12  25  41  68  99 143 184 236 293 345 411
#     4  12  27  44  72 104 145 184 239 288 349 420
#
# _framework density 23.946781999999999
#
# number of rings (size 3 to 8) (size 9 to 14) (size 15 to 20)
#    1.000    0.000    0.000    6.000    7.000    1.333 
#    0.000    0.000    0.000    0.000    0.000    0.000 
#    0.000    0.000    0.000    0.000    0.000    0.000 
#
# Total GULP energy -134034.870398 kJ/mol
# GULP energy per Si atom -5584.786267 kJ/mol
# Density = 2.389228 g / cm^3
# Si number density = 23.946782 Si / 1000 Ang^3
#
#
#
# Elastic Constant Matrix: (Units=GPa)
#
#
# Indices 1 2 3 4 5 6 
#
# 1 64.4786 -1.3075 27.5099 0.0000 -2.8106 0.0000
# 2 -1.3075 64.5972 -6.9444 0.0000 -9.5092 0.0000
# 3 27.5099 -6.9444 114.3447 0.0000 5.6570 0.0000
# 4 0.0000 0.0000 0.0000 32.7799 0.0000 3.9764
# 5 -2.8106 -9.5092 5.6570 0.0000 40.8002 0.0000
# 6 0.0000 0.0000 0.0000 3.9764 0.0000 25.0698
#
#
#
# Elastic Compliance Matrix: (Units=1/GPa)
#
#
# Indices 1 2 3 4 5 6 
#
# 1 0.017414 0.000163 -0.004270 0.000000 0.001830 0.000000
# 2 0.000163 0.016104 0.000758 0.000000 0.003659 0.000000
# 3 -0.004270 0.000758 0.009893 0.000000 -0.001489 0.000000
# 4 0.000000 0.000000 0.000000 0.031105 0.000000 -0.004934
# 5 0.001830 0.003659 -0.001489 0.000000 0.025695 0.000000
# 6 0.000000 0.000000 0.000000 -0.004934 0.000000 0.040671
#
#
# Mechanical properties :
#
#
# Convention : Reuss Voigt Hill
#
# Bulk Modulus (GPa) = 27.23960 31.32627 29.28293
# Shear Modulus (GPa) = 31.28555 34.67413 32.97984
#
# Velocity S-wave (km/s) = 3.61842 3.80934 3.71511
# Velocity P-wave (km/s) = 5.37188 5.69721 5.53693
#
# Compressibility (1/GPa) = 0.03671126
#
# Stress axis : x y z
#
# Youngs Moduli (GPa) = 57.42520 62.09630 101.08623
#
# Poissons Ratio (x) = -0.01011 0.43166
# Poissons Ratio (y) = -0.00935 -0.07661
# Poissons Ratio (z) = 0.24522 -0.04706
#
# Static dielectric constant tensor:
#      x y z
#    x 1.826440 0.000000 0.021480 
#    y 0.000000 1.991200 0.000000 
#    z 0.021480 0.000000 1.939460 
# 
# From -- ./inp_files/179778.got.cif
#   From: 2010.05.17/outbox.cif.g08.bks.cpg/sg15_90_cif.got.tgz:179778.got - 2010.06.03 18:47:42.
