data_PCOD9291653
_publ_section_title
;
Structure prediction by ZEFSAII (Michael W. Deem and Ramdas Pophale) SiO2 
 PCOD9291653
Probable space group: C 2/C
;
_chemical_formula_sum "Si O2"
_cell_formula_units_Z 44
_cell_length_a 14.990063
_cell_length_b 11.560737
_cell_length_c 27.886399
_cell_angle_alpha 90.000000
_cell_angle_beta 27.577021
_cell_angle_gamma 90.000000
_cell_volume 2237.209556
_symmetry_space_group_name_H-M "C 2/C"
_symmetry_group_IT_number 15
_symmetry_cell_setting 'monoclinic'
loop_
_space_group_symop_operation_xyz
x,y,z
-x,y,1/2-z
-x,-y,-z
x,-y,1/2+z
1/2+x,1/2+y,z
1/2-x,1/2+y,1/2-z
1/2-x,1/2-y,-z
1/2+x,1/2-y,1/2+z
loop_
_atom_site_type_symbol
_atom_site_label
_atom_site_fract_x
_atom_site_fract_y
_atom_site_fract_z
Si Si1 0.780146 0.671294 0.297815
Si Si2 0.173310 0.516027 0.454805
Si Si3 0.369615 0.134648 0.430139
Si Si4 0.000000 0.130388 0.750000
Si Si5 0.672221 0.725362 0.984179
Si Si6 0.225871 0.002097 0.405588
O O1 0.866137 0.783746 0.283163
O O2 0.552330 0.689912 0.401962
O O3 0.814136 0.558372 0.315349
O O4 0.907908 0.659003 0.189428
O O5 0.133563 0.458390 0.525633
O O6 0.362196 0.449936 0.346751
O O7 0.196348 0.652819 0.446849
O O8 0.000000 0.500000 0.500000
O O9 0.250000 0.250000 0.500000
O O10 0.271888 0.086573 0.428070
O O11 0.750000 0.750000 0.000000
O O12 0.771033 0.624475 0.905468
O O13 0.000000 0.000000 0.500000
#
# Coordination Sequence:
#
# PCOD9291653 Si02
#       6
#     8   8   8   4   8   8
#     4  11  22  44  74  97 134 182 231 275 333 422
#     4  12  26  44  68 100 140 180 226 285 338 402
#     4  12  23  43  72 100 131 183 236 270 334 418
#     4  12  22  44  70  98 134 180 234 276 334 408
#     4  11  24  46  66 103 144 171 221 293 344 394
#     4  10  22  42  69  98 134 174 220 282 340 401
#
# _framework density 19.667358
#
# number of rings (size 3 to 8) (size 9 to 14) (size 15 to 20)
#    0.000    0.727    7.273    0.000    2.545    1.455 
#    9.818    0.000    0.000    0.000    0.000    0.000 
#    0.000    0.000    0.000    0.000    0.000    0.000 
#
# Total GULP energy -122810.197720 kJ/mol
# GULP energy per Si atom -5582.281715 kJ/mol
# Density = 1.962259 g / cm^3
# Si number density = 19.667358 Si / 1000 Ang^3
#
#
#
# Elastic Constant Matrix: (Units=GPa)
#
#
# Indices 1 2 3 4 5 6 
#
# 1 85.5004 23.3293 15.5379 0.0000 -3.7999 -0.0001
# 2 23.3293 160.9843 45.1573 -0.0001 17.3473 -0.0001
# 3 15.5379 45.1573 121.8730 -0.0009 11.3725 -0.0002
# 4 0.0000 -0.0001 -0.0009 38.9370 0.0000 4.0569
# 5 -3.7999 17.3473 11.3725 0.0000 34.1964 0.0000
# 6 -0.0001 -0.0001 -0.0002 4.0569 0.0000 34.9195
#
#
#
# Elastic Compliance Matrix: (Units=1/GPa)
#
#
# Indices 1 2 3 4 5 6 
#
# 1 0.012514 -0.001769 -0.001191 0.000000 0.002684 0.000000
# 2 -0.001769 0.007442 -0.002231 0.000000 -0.003230 0.000000
# 3 -0.001191 -0.002231 0.009381 0.000000 -0.002121 0.000000
# 4 0.000000 0.000000 0.000000 0.025997 0.000000 -0.003020
# 5 0.002684 -0.003230 -0.002121 0.000000 0.031885 0.000000
# 6 0.000000 0.000000 0.000000 -0.003020 0.000000 0.028988
#
#
# Mechanical properties :
#
#
# Convention : Reuss Voigt Hill
#
# Bulk Modulus (GPa) = 52.74877 59.60074 56.17476
# Shear Modulus (GPa) = 37.62048 40.56612 39.09330
#
# Velocity S-wave (km/s) = 4.37835 4.54653 4.46323
# Velocity P-wave (km/s) = 7.24145 7.61127 7.42866
#
# Compressibility (1/GPa) = 0.01895779
#
# Stress axis : x y z
#
# Youngs Moduli (GPa) = 79.90989 134.37565 106.59385
#
# Poissons Ratio (x) = 0.23768 0.12690
# Poissons Ratio (y) = 0.14134 0.23776
# Poissons Ratio (z) = 0.09513 0.29973
#
# Static dielectric constant tensor:
#      x y z
#    x 1.753720 0.000000 0.021700 
#    y 0.000000 1.603840 0.000000 
#    z 0.021700 0.000000 1.725490 
# 
# From -- ./inp_files/151734.got.cif
#   From: 2010.05.17/outbox.cif.g08.bks.cpg/sg15_76_cif.got.tgz:151734.got - 2010.06.03 18:47:42.
