data_PCOD9291518
_publ_section_title
;
Structure prediction by ZEFSAII (Michael W. Deem and Ramdas Pophale) SiO2 
 PCOD9291518
Probable space group: C 2/C
;
_chemical_formula_sum "Si O2"
_cell_formula_units_Z 48
_cell_length_a 19.982087
_cell_length_b 12.508473
_cell_length_c 9.274259
_cell_angle_alpha 90.000000
_cell_angle_beta 132.943612
_cell_angle_gamma 90.000000
_cell_volume 1696.875588
_symmetry_space_group_name_H-M "C 2/C"
_symmetry_group_IT_number 15
_symmetry_cell_setting 'monoclinic'
loop_
_space_group_symop_operation_xyz
x,y,z
-x,y,1/2-z
-x,-y,-z
x,-y,1/2+z
1/2+x,1/2+y,z
1/2-x,1/2+y,1/2-z
1/2-x,1/2-y,-z
1/2+x,1/2-y,1/2+z
loop_
_atom_site_type_symbol
_atom_site_label
_atom_site_fract_x
_atom_site_fract_y
_atom_site_fract_z
Si Si1 0.406200 0.097519 0.455105
Si Si2 0.500000 0.384593 0.750000
Si Si3 0.249526 0.238412 0.276480
Si Si4 0.000000 0.785024 0.250000
Si Si5 0.577463 0.209429 0.655012
Si Si6 0.190632 0.572738 0.488738
Si Si7 0.852545 0.053821 0.539083
O O1 0.354018 0.201147 0.447278
O O2 0.515312 0.112378 0.620696
O O3 0.363815 0.996601 0.474542
O O4 0.374047 0.100288 0.241433
O O5 0.539744 0.313613 0.679665
O O6 0.415732 0.459147 0.574510
O O7 0.236937 0.323498 0.129003
O O8 0.199804 0.127472 0.154461
O O9 0.186533 0.290915 0.307364
O O10 0.048703 0.719666 0.445210
O O11 0.924947 0.862569 0.211622
O O12 0.276471 0.514213 0.538241
#
# Coordination Sequence:
#
# PCOD9291518 Si02
#       7
#     8   4   8   4   8   8   8
#     4  11  24  42  68  95 127 171 216 262 317 380
#     4  11  24  38  66 101 130 155 206 282 334 367
#     4  10  22  42  68  94 128 171 215 261 315 384
#     4   9  18  34  62  85 120 167 206 250 310 379
#     4  11  23  42  63  93 130 169 210 260 319 378
#     4  11  23  41  64  94 130 170 214 258 314 384
#     4   9  19  37  62  96 127 161 207 262 324 376
#
# _framework density 28.287284
#
# number of rings (size 3 to 8) (size 9 to 14) (size 15 to 20)
#    0.000    1.667    0.000    6.000    0.000   13.333 
#    0.000    2.500    0.000    0.000    0.000    0.000 
#    0.000    0.000    0.000    0.000    0.000    0.000 
#
# Total GULP energy -134626.807528 kJ/mol
# GULP energy per Si atom -5609.450314 kJ/mol
# Density = 2.822290 g / cm^3
# Si number density = 28.287284 Si / 1000 Ang^3
#
#
#
# Elastic Constant Matrix: (Units=GPa)
#
#
# Indices 1 2 3 4 5 6 
#
# 1 177.3397 59.4108 37.1209 0.0000 16.2589 0.0000
# 2 59.4108 137.6563 35.0498 0.0000 4.9856 0.0000
# 3 37.1209 35.0498 94.0969 0.0000 7.8302 0.0000
# 4 0.0000 0.0000 0.0000 46.6556 0.0000 8.1084
# 5 16.2589 4.9856 7.8302 0.0000 58.5720 0.0000
# 6 0.0000 0.0000 0.0000 8.1084 0.0000 61.2788
#
#
#
# Elastic Compliance Matrix: (Units=1/GPa)
#
#
# Indices 1 2 3 4 5 6 
#
# 1 0.006976 -0.002527 -0.001686 0.000000 -0.001496 0.000000
# 2 -0.002527 0.008946 -0.002357 0.000000 0.000255 0.000000
# 3 -0.001686 -0.002357 0.012251 0.000000 -0.000969 0.000000
# 4 0.000000 0.000000 0.000000 0.021938 0.000000 -0.002903
# 5 -0.001496 0.000255 -0.000969 0.000000 0.017596 0.000000
# 6 0.000000 0.000000 0.000000 -0.002903 0.000000 0.016703
#
#
# Mechanical properties :
#
#
# Convention : Reuss Voigt Hill
#
# Bulk Modulus (GPa) = 66.52014 74.69509 70.60762
# Shear Modulus (GPa) = 48.75199 51.80205 50.27702
#
# Velocity S-wave (km/s) = 4.15596 4.28399 4.22046
# Velocity P-wave (km/s) = 6.82615 7.13676 6.98318
#
# Compressibility (1/GPa) = 0.01503304
#
# Stress axis : x y z
#
# Youngs Moduli (GPa) = 143.35757 111.78295 81.62658
#
# Poissons Ratio (x) = 0.28249 0.13763
# Poissons Ratio (y) = 0.36228 0.19236
# Poissons Ratio (z) = 0.24171 0.26342
#
# Static dielectric constant tensor:
#      x y z
#    x 2.217210 0.000000 0.005610 
#    y 0.000000 2.177860 0.000000 
#    z 0.005610 0.000000 2.212040 
# 
# From -- ./inp_files/111247.got.cif
#   From: 2010.05.17/outbox.cif.g08.bks.cpg/sg15_56_cif.got.tgz:111247.got - 2010.06.03 18:47:42.
