data_PCOD9291652
_publ_section_title
;
Structure prediction by ZEFSAII (Michael W. Deem and Ramdas Pophale) SiO2 
 PCOD9291652
Probable space group: C 2/C
;
_chemical_formula_sum "Si O2"
_cell_formula_units_Z 36
_cell_length_a 12.683617
_cell_length_b 15.101344
_cell_length_c 8.457667
_cell_angle_alpha 90.000000
_cell_angle_beta 81.794165
_cell_angle_gamma 90.000000
_cell_volume 1603.392864
_symmetry_space_group_name_H-M "C 2/C"
_symmetry_group_IT_number 15
_symmetry_cell_setting 'monoclinic'
loop_
_space_group_symop_operation_xyz
x,y,z
-x,y,1/2-z
-x,-y,-z
x,-y,1/2+z
1/2+x,1/2+y,z
1/2-x,1/2+y,1/2-z
1/2-x,1/2-y,-z
1/2+x,1/2-y,1/2+z
loop_
_atom_site_type_symbol
_atom_site_label
_atom_site_fract_x
_atom_site_fract_y
_atom_site_fract_z
Si Si1 0.702407 0.408899 0.315493
Si Si2 0.298668 0.056903 0.117592
Si Si3 0.000000 0.377882 0.750000
Si Si4 0.637179 0.725840 0.597876
Si Si5 0.595244 0.585422 0.352104
O O1 0.759862 0.455524 0.152072
O O2 0.784467 0.410299 0.442674
O O3 0.656166 0.316929 0.267070
O O4 0.612686 0.480973 0.385820
O O5 0.413784 0.068435 0.168067
O O6 0.208086 0.107045 0.240471
O O7 0.934199 0.312324 0.876825
O O8 0.750000 0.750000 0.500000
O O9 0.585075 0.649208 0.502469
O O10 0.500000 0.596170 0.250000
#
# Coordination Sequence:
#
# PCOD9291652 Si02
#       5
#     8   8   4   8   8
#     4  10  22  43  74  95 134 180 238 277 336 412
#     4  10  23  45  66 105 131 184 233 279 338 420
#     4  12  28  40  72 100 150 176 226 284 360 392
#     4  12  25  46  65 104 145 176 221 297 341 400
#     4  10  22  42  69  98 133 174 235 281 335 400
#
# _framework density 22.452387999999999
#
# number of rings (size 3 to 8) (size 9 to 14) (size 15 to 20)
#    1.333    0.000    4.444    0.000    4.667    5.333 
#    0.000    0.000    0.000    0.000    0.000    0.000 
#    0.000    0.000    0.000    0.000    0.000    0.000 
#
# Total GULP energy -100566.217697 kJ/mol
# GULP energy per Si atom -5587.012094 kJ/mol
# Density = 2.240129 g / cm^3
# Si number density = 22.452388 Si / 1000 Ang^3
#
#
#
# Elastic Constant Matrix: (Units=GPa)
#
#
# Indices 1 2 3 4 5 6 
#
# 1 133.8085 9.9502 15.8640 0.0000 19.7537 0.0000
# 2 9.9502 41.6718 -5.6880 0.0000 0.0099 0.0000
# 3 15.8640 -5.6880 58.8090 0.0000 18.9497 0.0000
# 4 0.0000 0.0000 0.0000 23.8694 0.0000 -4.4407
# 5 19.7537 0.0099 18.9497 0.0000 50.5709 0.0000
# 6 0.0000 0.0000 0.0000 -4.4407 0.0000 30.7162
#
#
#
# Elastic Compliance Matrix: (Units=1/GPa)
#
#
# Indices 1 2 3 4 5 6 
#
# 1 0.008209 -0.002175 -0.001583 0.000000 -0.002613 0.000000
# 2 -0.002175 0.024940 0.003101 0.000000 -0.000317 0.000000
# 3 -0.001583 0.003101 0.019940 0.000000 -0.006854 0.000000
# 4 0.000000 0.000000 0.000000 0.043053 0.000000 0.006224
# 5 -0.002613 -0.000317 -0.006854 0.000000 0.023363 0.000000
# 6 0.000000 0.000000 0.000000 0.006224 0.000000 0.033456
#
#
# Mechanical properties :
#
#
# Convention : Reuss Voigt Hill
#
# Bulk Modulus (GPa) = 19.31467 30.50465 24.90966
# Shear Modulus (GPa) = 29.14913 35.30884 32.22899
#
# Velocity S-wave (km/s) = 3.60705 3.96992 3.79283
# Velocity P-wave (km/s) = 5.09597 5.88468 5.50447
#
# Compressibility (1/GPa) = 0.05177411
#
# Stress axis : x y z
#
# Youngs Moduli (GPa) = 121.82482 40.09650 50.15129
#
# Poissons Ratio (x) = 0.08723 0.07938
# Poissons Ratio (y) = 0.26502 -0.15553
# Poissons Ratio (z) = 0.19282 -0.12435
#
# Static dielectric constant tensor:
#      x y z
#    x 1.831220 0.000000 -0.043020 
#    y 0.000000 1.819980 0.000000 
#    z -0.043020 0.000000 1.856440 
# 
# From -- ./inp_files/28724.got.cif
#   From: 2010.05.17/outbox.cif.g08.bks.cpg/sg15_15_cif.got.tgz:28724.got - 2010.06.03 18:47:42.
