data_PCOD9291242
_publ_section_title
;
Structure prediction by ZEFSAII (Michael W. Deem and Ramdas Pophale) SiO2 
 PCOD9291242
Probable space group: C 2/C
;
_chemical_formula_sum "Si O2"
_cell_formula_units_Z 60
_cell_length_a 15.375662
_cell_length_b 10.071518
_cell_length_c 20.039701
_cell_angle_alpha 90.000000
_cell_angle_beta 122.944721
_cell_angle_gamma 90.000000
_cell_volume 2604.253256
_symmetry_space_group_name_H-M "C 2/C"
_symmetry_group_IT_number 15
_symmetry_cell_setting 'monoclinic'
loop_
_space_group_symop_operation_xyz
x,y,z
-x,y,1/2-z
-x,-y,-z
x,-y,1/2+z
1/2+x,1/2+y,z
1/2-x,1/2+y,1/2-z
1/2-x,1/2-y,-z
1/2+x,1/2-y,1/2+z
loop_
_atom_site_type_symbol
_atom_site_label
_atom_site_fract_x
_atom_site_fract_y
_atom_site_fract_z
Si Si1 0.059162 0.432786 0.904520
Si Si2 0.490467 0.316952 0.034716
Si Si3 0.775140 0.891387 0.926697
Si Si4 0.500000 0.779152 0.750000
Si Si5 0.782655 0.116719 0.821233
Si Si6 0.784371 0.163259 0.112007
Si Si7 0.215065 0.127692 0.832621
Si Si8 0.922185 0.268502 0.058924
O O1 0.026494 0.335189 0.949917
O O2 0.181747 0.414453 0.939163
O O3 0.004760 0.373061 0.816361
O O4 0.034361 0.585691 0.906806
O O5 0.593696 0.364036 0.115466
O O6 0.387838 0.401899 0.007268
O O7 0.508211 0.315480 0.962564
O O8 0.775861 0.745121 0.895011
O O9 0.755954 0.994019 0.858504
O O10 0.599241 0.685825 0.787878
O O11 0.723655 0.244493 0.826254
O O12 0.757598 0.104134 0.733269
O O13 0.885201 0.197142 0.110540
O O14 0.776468 0.010737 0.126733
O O15 0.683256 0.205193 0.027284
#
# Coordination Sequence:
#
# PCOD9291242 Si02
#       8
#     8   8   8   4   8   8   8   8
#     4  11  21  44  66  95 136 173 224 273 341 396
#     4  11  23  40  68 102 133 173 222 284 323 406
#     4  11  24  41  66 101 130 175 225 275 336 398
#     4  10  24  42  62  96 132 176 218 286 328 398
#     4  11  22  44  66  96 137 174 223 278 336 393
#     4  10  22  42  68  96 137 176 219 281 330 401
#     4  11  23  43  67  94 135 180 225 268 340 407
#     4  10  22  42  66 101 135 173 223 274 340 389
#
# _framework density 23.039234
#
# number of rings (size 3 to 8) (size 9 to 14) (size 15 to 20)
#    0.000    1.333    2.667    2.800    0.000    3.200 
#    4.800    0.667    0.000    0.000    0.000    0.000 
#    0.000    0.000    0.000    0.000    0.000    0.000 
#
# Total GULP energy -168019.793741 kJ/mol
# GULP energy per Si atom -5600.659791 kJ/mol
# Density = 2.298680 g / cm^3
# Si number density = 23.039234 Si / 1000 Ang^3
#
#
#
# Elastic Constant Matrix: (Units=GPa)
#
#
# Indices 1 2 3 4 5 6 
#
# 1 50.2549 -4.4060 20.7939 0.0000 6.3993 0.0000
# 2 -4.4060 104.8619 5.5345 0.0000 -12.0975 0.0000
# 3 20.7939 5.5345 44.4990 0.0000 -14.1355 0.0000
# 4 0.0000 0.0000 0.0000 24.4653 0.0000 -7.0713
# 5 6.3993 -12.0975 -14.1355 0.0000 23.3605 0.0000
# 6 0.0000 0.0000 0.0000 -7.0713 0.0000 24.6086
#
#
#
# Elastic Compliance Matrix: (Units=1/GPa)
#
#
# Indices 1 2 3 4 5 6 
#
# 1 0.031670 -0.000043 -0.021734 0.000000 -0.021849 0.000000
# 2 -0.000043 0.010151 0.000534 0.000000 0.005592 0.000000
# 3 -0.021734 0.000534 0.042761 0.000000 0.032105 0.000000
# 4 0.000000 0.000000 0.000000 0.044577 0.000000 0.012809
# 5 -0.021849 0.005592 0.032105 0.000000 0.071115 0.000000
# 6 0.000000 0.000000 0.000000 0.012809 0.000000 0.044317
#
#
# Mechanical properties :
#
#
# Convention : Reuss Voigt Hill
#
# Bulk Modulus (GPa) = 23.75572 27.05118 25.40345
# Shear Modulus (GPa) = 16.60523 26.33309 21.46916
#
# Velocity S-wave (km/s) = 2.68757 3.38445 3.05594
# Velocity P-wave (km/s) = 4.46812 5.19995 4.84786
#
# Compressibility (1/GPa) = 0.04209513
#
# Stress axis : x y z
#
# Youngs Moduli (GPa) = 31.57554 98.50775 23.38597
#
# Poissons Ratio (x) = 0.00422 0.50828
# Poissons Ratio (y) = 0.00135 -0.01248
# Poissons Ratio (z) = 0.68628 -0.05258
#
# Static dielectric constant tensor:
#      x y z
#    x 1.892020 0.000000 0.031550 
#    y 0.000000 1.835090 0.000000 
#    z 0.031550 0.000000 1.864980 
# 
# From -- ./inp_files/247851.got.cif
#   From: 2010.05.17/outbox.cif.g08.bks.cpg/sg15_124_cif.got.tgz:247851.got - 2010.06.03 18:47:42.
