data_PCOD9291797
_publ_section_title
;
Structure prediction by ZEFSAII (Michael W. Deem and Ramdas Pophale) SiO2 
 PCOD9291797
Probable space group: C 2/C
;
_chemical_formula_sum "Si O2"
_cell_formula_units_Z 40
_cell_length_a 14.190145
_cell_length_b 19.827056
_cell_length_c 9.164424
_cell_angle_alpha 90.000000
_cell_angle_beta 142.437745
_cell_angle_gamma 90.000000
_cell_volume 1571.851990
_symmetry_space_group_name_H-M "C 2/C"
_symmetry_group_IT_number 15
_symmetry_cell_setting 'monoclinic'
loop_
_space_group_symop_operation_xyz
x,y,z
-x,y,1/2-z
-x,-y,-z
x,-y,1/2+z
1/2+x,1/2+y,z
1/2-x,1/2+y,1/2-z
1/2-x,1/2-y,-z
1/2+x,1/2-y,1/2+z
loop_
_atom_site_type_symbol
_atom_site_label
_atom_site_fract_x
_atom_site_fract_y
_atom_site_fract_z
Si Si1 0.500000 0.286304 0.250000
Si Si2 0.479259 0.821857 0.944816
Si Si3 0.134777 0.539489 0.322577
Si Si4 0.698516 0.286662 0.749070
Si Si5 0.000000 0.148660 0.250000
Si Si6 0.654424 0.541174 0.647227
O O1 0.588632 0.233635 0.252888
O O2 0.611140 0.322607 0.501864
O O3 0.500000 0.998818 0.750000
O O4 0.452048 0.895846 0.852369
O O5 0.650918 0.791697 0.169303
O O6 0.595322 0.601970 0.476768
O O7 0.261200 0.560014 0.598737
O O8 0.224518 0.499939 0.306118
O O9 0.615578 0.309379 0.792376
O O10 0.873804 0.308827 0.955331
O O11 0.500000 0.500000 0.500000
#
# Coordination Sequence:
#
# PCOD9291797 Si02
#       6
#     4   8   8   8   4   8
#     4   8  20  38  65  96 131 182 240 270 364 416
#     4  10  22  42  72 102 138 190 238 297 359 437
#     4  12  25  47  76 107 145 190 255 311 368 431
#     4  10  23  40  68 100 146 181 240 292 366 433
#     4  12  26  44  71 112 145 188 244 308 360 442
#     4  12  26  48  73 104 146 198 250 301 370 442
#
# _framework density 25.447687999999999
#
# number of rings (size 3 to 8) (size 9 to 14) (size 15 to 20)
#    1.200    0.000    3.000    2.400    2.800    2.400 
#    0.000    0.000    2.200    0.000    0.000    0.000 
#    0.000    0.000    0.000    0.000    0.000    0.000 
#
# Total GULP energy -111834.287703 kJ/mol
# GULP energy per Si atom -5591.714385 kJ/mol
# Density = 2.538977 g / cm^3
# Si number density = 25.447688 Si / 1000 Ang^3
#
#
#
# Elastic Constant Matrix: (Units=GPa)
#
#
# Indices 1 2 3 4 5 6 
#
# 1 169.5906 44.4146 10.6757 0.0000 4.5718 0.0000
# 2 44.4146 80.1053 38.0951 0.0000 1.8263 0.0000
# 3 10.6757 38.0951 126.4729 0.0000 -16.7513 0.0000
# 4 0.0000 0.0000 0.0000 36.8489 0.0000 -4.5413
# 5 4.5718 1.8263 -16.7513 0.0000 43.5820 0.0000
# 6 0.0000 0.0000 0.0000 -4.5413 0.0000 32.9804
#
#
#
# Elastic Compliance Matrix: (Units=1/GPa)
#
#
# Indices 1 2 3 4 5 6 
#
# 1 0.006951 -0.004141 0.000618 0.000000 -0.000318 0.000000
# 2 -0.004141 0.017284 -0.005158 0.000000 -0.002272 0.000000
# 3 0.000618 -0.005158 0.009934 0.000000 0.003969 0.000000
# 4 0.000000 0.000000 0.000000 0.027606 0.000000 0.003801
# 5 -0.000318 -0.002272 0.003969 0.000000 0.024600 0.000000
# 6 0.000000 0.000000 0.000000 0.003801 0.000000 0.030844
#
#
# Mechanical properties :
#
#
# Convention : Reuss Voigt Hill
#
# Bulk Modulus (GPa) = 59.49256 62.50439 60.99848
# Shear Modulus (GPa) = 35.66810 41.54781 38.60796
#
# Velocity S-wave (km/s) = 3.74789 4.04502 3.89929
# Velocity P-wave (km/s) = 6.49292 6.81407 6.65543
#
# Compressibility (1/GPa) = 0.01680882
#
# Stress axis : x y z
#
# Youngs Moduli (GPa) = 143.87257 57.85732 100.66531
#
# Poissons Ratio (x) = 0.23956 -0.06225
# Poissons Ratio (y) = 0.59572 0.51919
# Poissons Ratio (z) = -0.08897 0.29840
#
# Static dielectric constant tensor:
#      x y z
#    x 2.112440 0.000000 0.032010 
#    y 0.000000 1.990920 0.000000 
#    z 0.032010 0.000000 2.087470 
# 
# From -- ./inp_files/43306.got.cif
#   From: 2010.05.17/outbox.cif.g08.bks.cpg/sg15_22_cif.got.tgz:43306.got - 2010.06.03 18:47:42.
