data_PCOD9291011
_publ_section_title
;
Structure prediction by ZEFSAII (Michael W. Deem and Ramdas Pophale) SiO2 
 PCOD9291011
Probable space group: C 2/C
;
_chemical_formula_sum "Si O2"
_cell_formula_units_Z 56
_cell_length_a 15.589334
_cell_length_b 11.333264
_cell_length_c 14.837244
_cell_angle_alpha 90.000000
_cell_angle_beta 97.507529
_cell_angle_gamma 90.000000
_cell_volume 2598.943602
_symmetry_space_group_name_H-M "C 2/C"
_symmetry_group_IT_number 15
_symmetry_cell_setting 'monoclinic'
loop_
_space_group_symop_operation_xyz
x,y,z
-x,y,1/2-z
-x,-y,-z
x,-y,1/2+z
1/2+x,1/2+y,z
1/2-x,1/2+y,1/2-z
1/2-x,1/2-y,-z
1/2+x,1/2-y,1/2+z
loop_
_atom_site_type_symbol
_atom_site_label
_atom_site_fract_x
_atom_site_fract_y
_atom_site_fract_z
Si Si1 0.021388 0.217921 0.600376
Si Si2 0.500000 0.473550 0.250000
Si Si3 0.284639 0.921517 0.468012
Si Si4 0.372729 0.331972 0.958334
Si Si5 0.320488 0.869720 0.835392
Si Si6 0.902953 0.433560 0.653354
Si Si7 0.633674 0.661377 0.243963
Si Si8 0.000000 0.633885 0.750000
O O1 0.114817 0.278287 0.607644
O O2 0.024004 0.111152 0.670820
O O3 0.971834 0.179198 0.502976
O O4 0.958127 0.319257 0.632538
O O5 0.578476 0.560899 0.286492
O O6 0.327514 0.796759 0.447090
O O7 0.183621 0.900608 0.474811
O O8 0.330094 0.953556 0.568857
O O9 0.304806 0.018142 0.396511
O O10 0.360795 0.383870 0.857956
O O11 0.363237 0.909279 0.746328
O O12 0.227089 0.817395 0.798274
O O13 0.965757 0.546100 0.668211
O O14 0.577975 0.780669 0.234076
#
# Coordination Sequence:
#
# PCOD9291011 Si02
#       8
#     8   4   8   8   8   8   8   4
#     4  11  23  40  70  98 132 175 227 280 333 400
#     4  11  23  46  64  92 133 181 226 270 338 415
#     4  10  23  38  69 102 138 170 228 280 329 410
#     4  10  22  42  63 101 137 177 222 276 344 398
#     4  12  22  42  67 105 127 178 230 273 334 394
#     4  11  21  42  67 102 133 171 221 285 337 388
#     4  11  26  41  67  94 134 187 220 273 342 398
#     4  11  23  42  64  94 139 173 220 276 342 397
#
# _framework density 21.547215999999999
#
# number of rings (size 3 to 8) (size 9 to 14) (size 15 to 20)
#    0.000    1.143    4.286    1.714    2.000    4.000 
#    0.000    0.714    0.000    0.000    0.000    0.000 
#    0.000    0.000    0.000    0.000    0.000    0.000 
#
# Total GULP energy -156604.147086 kJ/mol
# GULP energy per Si atom -5593.005253 kJ/mol
# Density = 2.149817 g / cm^3
# Si number density = 21.547216 Si / 1000 Ang^3
#
#
#
# Elastic Constant Matrix: (Units=GPa)
#
#
# Indices 1 2 3 4 5 6 
#
# 1 141.1092 33.0091 23.5556 0.0000 26.2630 0.0000
# 2 33.0091 78.1610 3.4982 0.0000 1.3851 0.0000
# 3 23.5556 3.4982 47.4378 0.0000 12.7335 0.0000
# 4 0.0000 0.0000 0.0000 32.1222 0.0000 -3.8808
# 5 26.2630 1.3851 12.7335 0.0000 25.3913 0.0000
# 6 0.0000 0.0000 0.0000 -3.8808 0.0000 14.3115
#
#
#
# Elastic Compliance Matrix: (Units=1/GPa)
#
#
# Indices 1 2 3 4 5 6 
#
# 1 0.010092 -0.003999 -0.002280 0.000000 -0.009077 0.000000
# 2 -0.003999 0.014423 0.000027 0.000000 0.003336 0.000000
# 3 -0.002280 0.000027 0.024934 0.000000 -0.010147 0.000000
# 4 0.000000 0.000000 0.000000 0.032185 0.000000 0.008728
# 5 -0.009077 0.003336 -0.010147 0.000000 0.053679 0.000000
# 6 0.000000 0.000000 0.000000 0.008728 0.000000 0.072240
#
#
# Mechanical properties :
#
#
# Convention : Reuss Voigt Hill
#
# Bulk Modulus (GPa) = 27.06783 42.98155 35.02469
# Shear Modulus (GPa) = 21.51702 28.14135 24.82918
#
# Velocity S-wave (km/s) = 3.16349 3.61783 3.39826
# Velocity P-wave (km/s) = 5.09244 6.11903 5.62918
#
# Compressibility (1/GPa) = 0.03694422
#
# Stress axis : x y z
#
# Youngs Moduli (GPa) = 99.08572 69.33478 40.10557
#
# Poissons Ratio (x) = 0.27729 0.09144
# Poissons Ratio (y) = 0.39627 -0.00107
# Poissons Ratio (z) = 0.22591 -0.00185
#
# Static dielectric constant tensor:
#      x y z
#    x 1.804310 0.000000 -0.003600 
#    y 0.000000 1.766680 0.000000 
#    z -0.003600 0.000000 1.785290 
# 
# From -- ./inp_files/152652.got.cif
#   From: 2010.05.17/outbox.cif.g08.bks.cpg/sg15_77_cif.got.tgz:152652.got - 2010.06.03 18:47:42.
