data_PCOD9291923
_publ_section_title
;
Structure prediction by ZEFSAII (Michael W. Deem and Ramdas Pophale) SiO2 
 PCOD9291923
Probable space group: C 2/C
;
_chemical_formula_sum "Si O2"
_cell_formula_units_Z 40
_cell_length_a 13.962939
_cell_length_b 13.841928
_cell_length_c 9.064775
_cell_angle_alpha 90.000000
_cell_angle_beta 103.162185
_cell_angle_gamma 90.000000
_cell_volume 1705.959588
_symmetry_space_group_name_H-M "C 2/C"
_symmetry_group_IT_number 15
_symmetry_cell_setting 'monoclinic'
loop_
_space_group_symop_operation_xyz
x,y,z
-x,y,1/2-z
-x,-y,-z
x,-y,1/2+z
1/2+x,1/2+y,z
1/2-x,1/2+y,1/2-z
1/2-x,1/2-y,-z
1/2+x,1/2-y,1/2+z
loop_
_atom_site_type_symbol
_atom_site_label
_atom_site_fract_x
_atom_site_fract_y
_atom_site_fract_z
Si Si1 0.531532 0.796421 0.519675
Si Si2 0.000000 0.448753 0.750000
Si Si3 0.000000 0.170586 0.250000
Si Si4 0.324639 0.912659 0.136429
Si Si5 0.633393 0.628614 0.726806
Si Si6 0.131339 0.985189 0.954541
O O1 0.486550 0.882385 0.600335
O O2 0.468032 0.737682 0.377111
O O3 0.617935 0.838220 0.446101
O O4 0.580150 0.723361 0.653505
O O5 0.905184 0.516858 0.734444
O O6 0.085328 0.101827 0.343291
O O7 0.248998 0.865598 0.226827
O O8 0.248771 0.971262 0.005668
O O9 0.612378 0.589684 0.881020
O O10 0.597926 0.539784 0.608084
#
# Coordination Sequence:
#
# PCOD9291923 Si02
#       6
#     8   4   4   8   8   8
#     4  11  23  41  65  98 129 166 216 271 318 387
#     4  12  25  41  70  98 130 166 226 267 319 382
#     4  10  23  39  64  96 130 174 208 263 331 392
#     4  10  22  43  62  90 128 177 206 261 330 381
#     4   9  21  39  65  90 131 169 213 260 316 389
#     4   9  21  39  62  91 127 175 209 263 322 382
#
# _framework density 23.447213999999999
#
# number of rings (size 3 to 8) (size 9 to 14) (size 15 to 20)
#    1.200    0.800    0.000    3.000    0.000    7.200 
#    0.000    1.000    0.000    0.000    0.000    0.000 
#    0.000    0.000    0.000    0.000    0.000    0.000 
#
# Total GULP energy -111697.472759 kJ/mol
# GULP energy per Si atom -5584.873638 kJ/mol
# Density = 2.339385 g / cm^3
# Si number density = 23.447214 Si / 1000 Ang^3
#
#
#
# Elastic Constant Matrix: (Units=GPa)
#
#
# Indices 1 2 3 4 5 6 
#
# 1 90.0236 17.8330 33.8609 0.0000 -6.1667 0.0000
# 2 17.8330 72.7680 29.1967 0.0000 -3.3721 0.0000
# 3 33.8609 29.1967 59.5505 0.0000 7.2717 0.0000
# 4 0.0000 0.0000 0.0000 43.5492 0.0000 0.0688
# 5 -6.1667 -3.3721 7.2717 0.0000 41.4020 0.0000
# 6 0.0000 0.0000 0.0000 0.0688 0.0000 7.4408
#
#
#
# Elastic Compliance Matrix: (Units=1/GPa)
#
#
# Indices 1 2 3 4 5 6 
#
# 1 0.014674 0.000136 -0.008869 0.000000 0.003755 0.000000
# 2 0.000136 0.017464 -0.009009 0.000000 0.003025 0.000000
# 3 -0.008869 -0.009009 0.027085 0.000000 -0.006812 0.000000
# 4 0.000000 0.000000 0.000000 0.022963 0.000000 -0.000212
# 5 0.003755 0.003025 -0.006812 0.000000 0.026155 0.000000
# 6 0.000000 0.000000 0.000000 -0.000212 0.000000 0.134397
#
#
# Mechanical properties :
#
#
# Convention : Reuss Voigt Hill
#
# Bulk Modulus (GPa) = 42.12567 42.68038 42.40302
# Shear Modulus (GPa) = 17.47426 27.90849 22.69138
#
# Velocity S-wave (km/s) = 2.73291 3.45377 3.11427
# Velocity P-wave (km/s) = 5.28806 5.84354 5.57272
#
# Compressibility (1/GPa) = 0.02373850
#
# Stress axis : x y z
#
# Youngs Moduli (GPa) = 68.14573 57.26124 36.92137
#
# Poissons Ratio (x) = -0.00781 0.32747
# Poissons Ratio (y) = -0.00930 0.33263
# Poissons Ratio (z) = 0.60441 0.51588
#
# Static dielectric constant tensor:
#      x y z
#    x 1.898840 0.000000 0.005330 
#    y 0.000000 1.881730 0.000000 
#    z 0.005330 0.000000 1.913280 
# 
# From -- ./inp_files/46768.got.cif
#   From: 2010.05.17/outbox.cif.g08.bks.cpg/sg15_24_cif.got.tgz:46768.got - 2010.06.03 18:47:42.
