data_PCOD9291969
_publ_section_title
;
Structure prediction by ZEFSAII (Michael W. Deem and Ramdas Pophale) SiO2 
 PCOD9291969
Probable space group: C 2/C
;
_chemical_formula_sum "Si O2"
_cell_formula_units_Z 40
_cell_length_a 13.321872
_cell_length_b 9.108613
_cell_length_c 18.329136
_cell_angle_alpha 90.000000
_cell_angle_beta 70.675901
_cell_angle_gamma 90.000000
_cell_volume 2098.823408
_symmetry_space_group_name_H-M "C 2/C"
_symmetry_group_IT_number 15
_symmetry_cell_setting 'monoclinic'
loop_
_space_group_symop_operation_xyz
x,y,z
-x,y,1/2-z
-x,-y,-z
x,-y,1/2+z
1/2+x,1/2+y,z
1/2-x,1/2+y,1/2-z
1/2-x,1/2-y,-z
1/2+x,1/2-y,1/2+z
loop_
_atom_site_type_symbol
_atom_site_label
_atom_site_fract_x
_atom_site_fract_y
_atom_site_fract_z
Si Si1 0.969737 0.339702 0.981288
Si Si2 0.005160 0.049801 0.167402
Si Si3 0.580157 0.786929 0.670059
Si Si4 0.317800 0.369733 0.607055
Si Si5 0.152766 0.148990 0.000644
O O1 0.935866 0.351892 0.906060
O O2 0.878211 0.264262 0.052156
O O3 0.000000 0.500000 0.000000
O O4 0.071383 0.233295 0.966669
O O5 0.086950 0.118142 0.090094
O O6 0.000000 0.115864 0.250000
O O7 0.891433 0.069039 0.154922
O O8 0.047133 0.883617 0.167994
O O9 0.500000 0.848848 0.750000
O O10 0.702547 0.815951 0.660527
O O11 0.312455 0.499729 0.548051
O O12 0.250000 0.250000 0.000000
#
# Coordination Sequence:
#
# PCOD9291969 Si02
#       5
#     8   8   8   8   8
#     4  11  22  40  65  96 125 169 218 259 324 394
#     4  10  22  43  64  93 130 168 211 269 334 374
#     4  11  23  41  65  95 128 166 216 269 332 382
#     4  11  22  44  64  91 130 167 214 269 318 394
#     4  11  22  39  66  95 128 169 218 265 317 398
#
# _framework density 19.058298000000001
#
# number of rings (size 3 to 8) (size 9 to 14) (size 15 to 20)
#    0.000    1.200    4.000    3.000    2.800    1.600 
#    3.600    7.000    0.000    0.000    0.000    0.000 
#    0.000    0.000    0.000    0.000    0.000    0.000 
#
# Total GULP energy -111677.553153 kJ/mol
# GULP energy per Si atom -5583.877658 kJ/mol
# Density = 1.901492 g / cm^3
# Si number density = 19.058298 Si / 1000 Ang^3
#
#
#
# Elastic Constant Matrix: (Units=GPa)
#
#
# Indices 1 2 3 4 5 6 
#
# 1 167.3595 44.6784 73.4455 0.0000 -17.7574 0.0000
# 2 44.6784 91.4435 26.8967 0.0000 -9.3615 0.0000
# 3 73.4455 26.8967 101.8856 0.0000 5.2565 0.0000
# 4 0.0000 0.0000 0.0000 7.1271 0.0000 -4.6276
# 5 -17.7574 -9.3615 5.2565 0.0000 28.7362 0.0000
# 6 0.0000 0.0000 0.0000 -4.6276 0.0000 17.3132
#
#
#
# Elastic Compliance Matrix: (Units=1/GPa)
#
#
# Indices 1 2 3 4 5 6 
#
# 1 0.010589 -0.002262 -0.007405 0.000000 0.007161 0.000000
# 2 -0.002262 0.012939 -0.001949 0.000000 0.003174 0.000000
# 3 -0.007405 -0.001949 0.016088 0.000000 -0.008154 0.000000
# 4 0.000000 0.000000 0.000000 0.169774 0.000000 0.045378
# 5 0.007161 0.003174 -0.008154 0.000000 0.041750 0.000000
# 6 0.000000 0.000000 0.000000 0.045378 0.000000 0.069888
#
#
# Mechanical properties :
#
#
# Convention : Reuss Voigt Hill
#
# Bulk Modulus (GPa) = 61.03688 72.30332 66.67010
# Shear Modulus (GPa) = 14.29709 25.01317 19.65513
#
# Velocity S-wave (km/s) = 2.74191 3.62671 3.21490
# Velocity P-wave (km/s) = 6.48999 7.45371 6.98848
#
# Compressibility (1/GPa) = 0.01638354
#
# Stress axis : x y z
#
# Youngs Moduli (GPa) = 94.44083 77.28483 62.15754
#
# Poissons Ratio (x) = 0.17484 0.46029
# Poissons Ratio (y) = 0.21365 0.12113
# Poissons Ratio (z) = 0.69935 0.15061
#
# Static dielectric constant tensor:
#      x y z
#    x 1.681390 0.000000 0.005360 
#    y 0.000000 1.635910 0.000000 
#    z 0.005360 0.000000 1.666240 
# 
# From -- ./inp_files/195057.got.cif
#   From: 2010.05.17/outbox.cif.g08.bks.cpg/sg15_98_cif.got.tgz:195057.got - 2010.06.03 18:47:42.
