data_PCOD9291506
_publ_section_title
;
Structure prediction by ZEFSAII (Michael W. Deem and Ramdas Pophale) SiO2 
 PCOD9291506
Probable space group: C 2/C
;
_chemical_formula_sum "Si O2"
_cell_formula_units_Z 56
_cell_length_a 8.875746
_cell_length_b 11.493486
_cell_length_c 27.936219
_cell_angle_alpha 90.000000
_cell_angle_beta 70.597551
_cell_angle_gamma 90.000000
_cell_volume 2688.016625
_symmetry_space_group_name_H-M "C 2/C"
_symmetry_group_IT_number 15
_symmetry_cell_setting 'monoclinic'
loop_
_space_group_symop_operation_xyz
x,y,z
-x,y,1/2-z
-x,-y,-z
x,-y,1/2+z
1/2+x,1/2+y,z
1/2-x,1/2+y,1/2-z
1/2-x,1/2-y,-z
1/2+x,1/2-y,1/2+z
loop_
_atom_site_type_symbol
_atom_site_label
_atom_site_fract_x
_atom_site_fract_y
_atom_site_fract_z
Si Si1 0.780579 0.374658 0.687623
Si Si2 0.012088 0.696827 0.083676
Si Si3 0.500000 0.205901 0.750000
Si Si4 0.824664 0.517752 0.499645
Si Si5 0.715609 0.130487 0.811389
Si Si6 0.445216 0.637151 0.499896
Si Si7 0.307928 0.801215 0.083313
Si Si8 0.500000 0.799597 0.750000
O O1 0.862018 0.352666 0.627591
O O2 0.641591 0.283731 0.712994
O O3 0.710135 0.503090 0.695496
O O4 0.916052 0.366596 0.714773
O O5 0.130326 0.752354 0.109933
O O6 0.957503 0.786781 0.047450
O O7 0.134513 0.599836 0.049529
O O8 0.582686 0.136895 0.784211
O O9 0.732200 0.397161 0.500124
O O10 0.762516 0.601446 0.548222
O O11 0.000000 0.500000 0.500000
O O12 0.636212 0.152744 0.871587
O O13 0.853841 0.221702 0.784849
O O14 0.500000 0.500000 0.500000
O O15 0.561141 0.710964 0.452275
#
# Coordination Sequence:
#
# PCOD9291506 Si02
#       8
#     8   8   4   8   8   8   8   4
#     4  11  23  43  67  93 129 167 212 272 331 380
#     4  11  22  39  64  97 127 170 228 261 312 406
#     4  10  26  46  64 102 128 158 226 274 320 410
#     4  11  23  39  61  93 135 171 208 269 323 378
#     4  11  23  43  67  93 129 167 212 272 331 380
#     4  11  21  41  65  90 135 178 211 262 322 374
#     4  11  22  39  64  97 127 170 228 261 312 406
#     4  10  22  42  68  90 120 166 214 266 332 390
#
# _framework density 20.833203999999999
#
# number of rings (size 3 to 8) (size 9 to 14) (size 15 to 20)
#    0.000    1.143    4.286    2.571    0.000    6.857 
#    0.000    1.429    0.000    0.000    0.000    0.000 
#    0.000    0.000    0.000    0.000    0.000    0.000 
#
# Total GULP energy -155969.436734 kJ/mol
# GULP energy per Si atom -5570.337026 kJ/mol
# Density = 2.078579 g / cm^3
# Si number density = 20.833204 Si / 1000 Ang^3
#
#
#
# Elastic Constant Matrix: (Units=GPa)
#
#
# Indices 1 2 3 4 5 6 
#
# 1 95.4310 18.6925 17.6176 0.0000 0.0182 0.0000
# 2 18.6925 93.9818 36.8334 0.0000 4.5825 0.0000
# 3 17.6176 36.8334 113.4900 0.0000 14.4952 0.0000
# 4 0.0000 0.0000 0.0000 31.8519 0.0000 -9.1788
# 5 0.0182 4.5825 14.4952 0.0000 23.2944 0.0000
# 6 0.0000 0.0000 0.0000 -9.1788 0.0000 36.6281
#
#
#
# Elastic Compliance Matrix: (Units=1/GPa)
#
#
# Indices 1 2 3 4 5 6 
#
# 1 0.011060 -0.001748 -0.001295 0.000000 0.001141 0.000000
# 2 -0.001748 0.012467 -0.003761 0.000000 -0.000111 0.000000
# 3 -0.001295 -0.003761 0.011014 0.000000 -0.006113 0.000000
# 4 0.000000 0.000000 0.000000 0.033839 0.000000 0.008480
# 5 0.001141 -0.000111 -0.006113 0.000000 0.046753 0.000000
# 6 0.000000 0.000000 0.000000 0.008480 0.000000 0.029426
#
#
# Mechanical properties :
#
#
# Convention : Reuss Voigt Hill
#
# Bulk Modulus (GPa) = 47.77110 49.90997 48.84053
# Shear Modulus (GPa) = 30.27633 33.67218 31.97426
#
# Velocity S-wave (km/s) = 3.81632 4.02465 3.92187
# Velocity P-wave (km/s) = 6.51146 6.75323 6.63344
#
# Compressibility (1/GPa) = 0.02093316
#
# Stress axis : x y z
#
# Youngs Moduli (GPa) = 90.41550 80.20971 90.79576
#
# Poissons Ratio (x) = 0.14018 0.11762
# Poissons Ratio (y) = 0.15802 0.34146
# Poissons Ratio (z) = 0.11713 0.30165
#
# Static dielectric constant tensor:
#      x y z
#    x 1.889010 0.000000 0.008420 
#    y 0.000000 1.907600 0.000000 
#    z 0.008420 0.000000 1.645240 
# 
# From -- ./inp_files/307435.got.cif
#   From: 2010.05.17/outbox.cif.g08.bks.cpg/sg15_154_cif.got.tgz:307435.got - 2010.06.03 18:47:42.
