data_PCOD9291427
_publ_section_title
;
Structure prediction by ZEFSAII (Michael W. Deem and Ramdas Pophale) SiO2 
 PCOD9291427
Probable space group: C 2/C
;
_chemical_formula_sum "Si O2"
_cell_formula_units_Z 32
_cell_length_a 5.258631
_cell_length_b 22.177135
_cell_length_c 12.256546
_cell_angle_alpha 90.000000
_cell_angle_beta 80.075715
_cell_angle_gamma 90.000000
_cell_volume 1407.986533
_symmetry_space_group_name_H-M "C 2/C"
_symmetry_group_IT_number 15
_symmetry_cell_setting 'monoclinic'
loop_
_space_group_symop_operation_xyz
x,y,z
-x,y,1/2-z
-x,-y,-z
x,-y,1/2+z
1/2+x,1/2+y,z
1/2-x,1/2+y,1/2-z
1/2-x,1/2-y,-z
1/2+x,1/2-y,1/2+z
loop_
_atom_site_type_symbol
_atom_site_label
_atom_site_fract_x
_atom_site_fract_y
_atom_site_fract_z
Si Si1 0.500000 0.923230 0.250000
Si Si2 0.000000 0.778279 0.750000
Si Si3 0.906059 0.676071 0.926478
Si Si4 0.270539 0.458890 0.684435
Si Si5 0.663020 0.651742 0.439504
O O1 0.463689 0.878261 0.152285
O O2 0.277573 0.969202 0.307674
O O3 0.123857 0.732513 0.652844
O O4 0.833249 0.820599 0.683035
O O5 0.110842 0.683030 0.008605
O O6 0.621577 0.661754 0.990670
O O7 0.500000 0.446101 0.750000
O O8 0.307302 0.420945 0.572360
O O9 0.000000 0.435129 0.750000
#
# Coordination Sequence:
#
# PCOD9291427 Si02
#       5
#     4   4   8   8   8
#     4   9  26  44  68  98 148 165 224 272 344 375
#     4  11  26  48  70  94 146 167 228 284 334 383
#     4  11  27  44  69 104 130 181 220 281 326 407
#     4  10  22  42  67  95 136 179 209 276 329 390
#     4  12  25  44  71 100 133 176 233 261 344 396
#
# _framework density 22.727491000000001
#
# number of rings (size 3 to 8) (size 9 to 14) (size 15 to 20)
#    0.750    0.500    1.250    3.000    3.500    7.000 
#    0.000    0.000    0.000    0.000    0.000    0.000 
#    0.000    0.000    0.000    0.000    0.000    0.000 
#
# Total GULP energy -89221.720088 kJ/mol
# GULP energy per Si atom -5576.357506 kJ/mol
# Density = 2.267576 g / cm^3
# Si number density = 22.727491 Si / 1000 Ang^3
#
#
#
# Elastic Constant Matrix: (Units=GPa)
#
#
# Indices 1 2 3 4 5 6 
#
# 1 118.9256 15.5066 39.2189 0.0000 15.7543 0.0000
# 2 15.5066 125.6453 41.7136 0.0000 -2.1970 0.0000
# 3 39.2189 41.7136 94.7130 0.0000 29.1658 0.0000
# 4 0.0000 0.0000 0.0000 26.6773 0.0000 -13.0473
# 5 15.7543 -2.1970 29.1658 0.0000 24.4721 0.0000
# 6 0.0000 0.0000 0.0000 -13.0473 0.0000 27.8835
#
#
#
# Elastic Compliance Matrix: (Units=1/GPa)
#
#
# Indices 1 2 3 4 5 6 
#
# 1 0.009825 -0.000191 -0.003209 0.000000 -0.002518 0.000000
# 2 -0.000191 0.010795 -0.007917 0.000000 0.010528 0.000000
# 3 -0.003209 -0.007917 0.023628 0.000000 -0.026805 0.000000
# 4 0.000000 0.000000 0.000000 0.048609 0.000000 0.022746
# 5 -0.002518 0.010528 -0.026805 0.000000 0.075375 0.000000
# 6 0.000000 0.000000 0.000000 0.022746 0.000000 0.046507
#
#
# Mechanical properties :
#
#
# Convention : Reuss Voigt Hill
#
# Bulk Modulus (GPa) = 46.26624 59.12914 52.69769
# Shear Modulus (GPa) = 20.44330 31.99623 26.21976
#
# Velocity S-wave (km/s) = 3.00241 3.75616 3.40024
# Velocity P-wave (km/s) = 5.69390 6.69961 6.21712
#
# Compressibility (1/GPa) = 0.02161403
#
# Stress axis : x y z
#
# Youngs Moduli (GPa) = 101.77772 92.63509 42.32261
#
# Poissons Ratio (x) = 0.01772 0.13580
# Poissons Ratio (y) = 0.01947 0.33507
# Poissons Ratio (z) = 0.32658 0.73340
#
# Static dielectric constant tensor:
#      x y z
#    x 1.794250 0.000000 -0.010480 
#    y 0.000000 1.937770 0.000000 
#    z -0.010480 0.000000 1.835580 
# 
# From -- ./inp_files/72213.got.cif
#   From: 2010.05.17/outbox.cif.g08.bks.cpg/sg15_37_cif.got.tgz:72213.got - 2010.06.03 18:47:42.
