data_PCOD9291038
_publ_section_title
;
Structure prediction by ZEFSAII (Michael W. Deem and Ramdas Pophale) SiO2 
 PCOD9291038
Probable space group: C 2/C
;
_chemical_formula_sum "Si O2"
_cell_formula_units_Z 56
_cell_length_a 25.189819
_cell_length_b 5.508669
_cell_length_c 20.333102
_cell_angle_alpha 90.000000
_cell_angle_beta 127.256781
_cell_angle_gamma 90.000000
_cell_volume 2245.693255
_symmetry_space_group_name_H-M "C 2/C"
_symmetry_group_IT_number 15
_symmetry_cell_setting 'monoclinic'
loop_
_space_group_symop_operation_xyz
x,y,z
-x,y,1/2-z
-x,-y,-z
x,-y,1/2+z
1/2+x,1/2+y,z
1/2-x,1/2+y,1/2-z
1/2-x,1/2-y,-z
1/2+x,1/2-y,1/2+z
loop_
_atom_site_type_symbol
_atom_site_label
_atom_site_fract_x
_atom_site_fract_y
_atom_site_fract_z
Si Si1 0.088915 0.383479 0.010154
Si Si2 0.644682 0.963160 0.416100
Si Si3 0.779300 0.132676 0.949209
Si Si4 0.048215 0.248341 0.581326
Si Si5 0.173637 0.084638 0.152386
Si Si6 0.197861 0.035654 0.305416
Si Si7 0.114960 0.464042 0.755202
O O1 0.118906 0.396549 0.960368
O O2 0.029561 0.186088 0.968724
O O3 0.055378 0.622890 0.015455
O O4 0.145829 0.340426 0.107324
O O5 0.718812 0.003214 0.440238
O O6 0.659101 0.692982 0.456873
O O7 0.595868 0.005214 0.317921
O O8 0.749184 0.391582 0.900804
O O9 0.800208 0.017120 0.896667
O O10 0.063211 0.414060 0.657723
O O11 0.107249 0.054605 0.626573
O O12 0.223947 0.049255 0.249932
O O13 0.149998 0.275138 0.269203
O O14 0.162832 0.776468 0.289594
#
# Coordination Sequence:
#
# PCOD9291038 Si02
#       7
#     8   8   8   8   8   8   8
#     4  11  22  39  69  91 126 170 225 272 338 392
#     4  10  23  41  62  96 131 173 215 270 336 407
#     4  10  23  40  61  97 137 174 222 274 341 406
#     4  10  22  42  63  96 124 169 223 282 326 395
#     4  11  22  40  67  97 134 171 227 281 336 400
#     4  10  23  41  66  96 133 176 221 276 328 401
#     4  10  22  44  67  93 135 171 223 273 339 398
#
# _framework density 24.936622
#
# number of rings (size 3 to 8) (size 9 to 14) (size 15 to 20)
#    0.000    1.714    2.857    0.429    0.000   13.143 
#    0.000    0.000    0.000    3.429    0.000    0.000 
#    0.000    0.000    0.000    0.000    0.000    0.000 
#
# Total GULP energy -156085.320715 kJ/mol
# GULP energy per Si atom -5574.475740 kJ/mol
# Density = 2.487987 g / cm^3
# Si number density = 24.936622 Si / 1000 Ang^3
#
#
#
# Elastic Constant Matrix: (Units=GPa)
#
#
# Indices 1 2 3 4 5 6 
#
# 1 113.0010 32.3258 55.7180 0.0001 -22.1393 0.0000
# 2 32.3258 85.7565 19.6202 0.0014 0.5558 -0.0018
# 3 55.7180 19.6202 182.7598 -0.0002 -30.7747 0.0003
# 4 0.0001 0.0014 -0.0002 43.7098 0.0001 0.0557
# 5 -22.1393 0.5558 -30.7747 0.0001 49.4832 0.0000
# 6 0.0000 -0.0018 0.0003 0.0557 0.0000 32.0264
#
#
#
# Elastic Compliance Matrix: (Units=1/GPa)
#
#
# Indices 1 2 3 4 5 6 
#
# 1 0.012006 -0.003956 -0.002595 0.000000 0.003802 0.000000
# 2 -0.003956 0.013307 -0.000609 0.000000 -0.002299 0.000001
# 3 -0.002595 -0.000609 0.006851 0.000000 0.003107 0.000000
# 4 0.000000 0.000000 0.000000 0.022878 0.000000 -0.000040
# 5 0.003802 -0.002299 0.003107 0.000000 0.023868 0.000000
# 6 0.000000 0.000001 0.000000 -0.000040 0.000000 0.031224
#
#
# Mechanical properties :
#
#
# Convention : Reuss Voigt Hill
#
# Bulk Modulus (GPa) = 56.04856 66.31615 61.18236
# Shear Modulus (GPa) = 38.34242 43.30074 40.82158
#
# Velocity S-wave (km/s) = 3.92547 4.17157 4.05039
# Velocity P-wave (km/s) = 6.56285 7.06076 6.81635
#
# Compressibility (1/GPa) = 0.01784167
#
# Stress axis : x y z
#
# Youngs Moduli (GPa) = 83.29288 75.15049 145.95447
#
# Poissons Ratio (x) = 0.29733 0.37879
# Poissons Ratio (y) = 0.32954 0.08894
# Poissons Ratio (z) = 0.21617 0.04580
#
# Static dielectric constant tensor:
#      x y z
#    x 2.036580 0.000000 0.038290 
#    y 0.000000 2.103680 0.000000 
#    z 0.038290 0.000000 2.053810 
# 
# From -- ./inp_files/221294.got.cif
#   From: 2010.05.17/outbox.cif.g08.bks.cpg/sg15_111_cif.got.tgz:221294.got - 2010.06.03 18:47:42.
