data_PCOD9291244
_publ_section_title
;
Structure prediction by ZEFSAII (Michael W. Deem and Ramdas Pophale) SiO2 
 PCOD9291244
Probable space group: C 2/C
;
_chemical_formula_sum "Si O2"
_cell_formula_units_Z 44
_cell_length_a 12.340209
_cell_length_b 8.152219
_cell_length_c 23.251888
_cell_angle_alpha 90.000000
_cell_angle_beta 60.741621
_cell_angle_gamma 90.000000
_cell_volume 2040.724833
_symmetry_space_group_name_H-M "C 2/C"
_symmetry_group_IT_number 15
_symmetry_cell_setting 'monoclinic'
loop_
_space_group_symop_operation_xyz
x,y,z
-x,y,1/2-z
-x,-y,-z
x,-y,1/2+z
1/2+x,1/2+y,z
1/2-x,1/2+y,1/2-z
1/2-x,1/2-y,-z
1/2+x,1/2-y,1/2+z
loop_
_atom_site_type_symbol
_atom_site_label
_atom_site_fract_x
_atom_site_fract_y
_atom_site_fract_z
Si Si1 0.339921 0.883096 0.006896
Si Si2 0.000000 0.761834 0.750000
Si Si3 0.004247 0.683405 0.567128
Si Si4 0.929690 0.208972 0.707893
Si Si5 0.331045 0.936508 0.209903
Si Si6 0.392871 0.537007 0.385094
O O1 0.447757 0.804549 0.018085
O O2 0.249092 0.985442 0.072887
O O3 0.250000 0.750000 0.000000
O O4 0.406952 0.023082 0.951387
O O5 0.896374 0.648870 0.747424
O O6 0.933822 0.867834 0.816798
O O7 0.074521 0.844513 0.570434
O O8 0.889851 0.655817 0.640294
O O9 0.815605 0.086082 0.748642
O O10 0.871310 0.375632 0.699918
O O11 0.000000 0.238547 0.750000
O O12 0.024038 0.126647 0.638886
#
# Coordination Sequence:
#
# PCOD9291244 Si02
#       6
#     8   4   8   8   8   8
#     4  11  24  45  68  91 129 172 226 273 322 384
#     4  10  22  42  66 102 130 174 214 268 334 402
#     4  10  24  43  65  94 127 171 220 271 321 385
#     4  12  24  40  64  99 136 176 211 266 327 398
#     4  11  23  42  66  98 135 171 218 267 333 396
#     4  11  23  43  66  97 135 169 214 269 331 387
#
# _framework density 21.560967000000002
#
# number of rings (size 3 to 8) (size 9 to 14) (size 15 to 20)
#    0.000    1.091    1.818    4.909    2.545    0.727 
#    6.545    0.000    0.000    0.000    0.000    0.000 
#    0.000    0.000    0.000    0.000    0.000    0.000 
#
# Total GULP energy -123068.382183 kJ/mol
# GULP energy per Si atom -5594.017372 kJ/mol
# Density = 2.151189 g / cm^3
# Si number density = 21.560967 Si / 1000 Ang^3
#
#
#
# Elastic Constant Matrix: (Units=GPa)
#
#
# Indices 1 2 3 4 5 6 
#
# 1 82.1618 11.2071 0.5209 0.0000 4.2676 0.0000
# 2 11.2071 68.6814 -11.4215 0.0000 15.5238 0.0000
# 3 0.5209 -11.4215 42.7815 0.0000 -17.1565 0.0000
# 4 0.0000 0.0000 0.0000 14.5394 0.0000 -2.7848
# 5 4.2676 15.5238 -17.1565 0.0000 33.0794 0.0000
# 6 0.0000 0.0000 0.0000 -2.7848 0.0000 48.4700
#
#
#
# Elastic Compliance Matrix: (Units=1/GPa)
#
#
# Indices 1 2 3 4 5 6 
#
# 1 0.012513 -0.001942 -0.001203 0.000000 -0.001327 0.000000
# 2 -0.001942 0.016678 0.001816 0.000000 -0.006635 0.000000
# 3 -0.001203 0.001816 0.029791 0.000000 0.014754 0.000000
# 4 0.000000 0.000000 0.000000 0.069544 0.000000 0.003996
# 5 -0.001327 -0.006635 0.014754 0.000000 0.041167 0.000000
# 6 0.000000 0.000000 0.000000 0.003996 0.000000 0.020861
#
#
# Mechanical properties :
#
#
# Convention : Reuss Voigt Hill
#
# Bulk Modulus (GPa) = 17.75462 21.58197 19.66829
# Shear Modulus (GPa) = 23.58640 32.10564 27.84602
#
# Velocity S-wave (km/s) = 3.31106 3.86302 3.59765
# Velocity P-wave (km/s) = 4.78226 5.47072 5.13803
#
# Compressibility (1/GPa) = 0.05632337
#
# Stress axis : x y z
#
# Youngs Moduli (GPa) = 79.91993 59.95773 33.56751
#
# Poissons Ratio (x) = 0.11643 0.04038
# Poissons Ratio (y) = 0.15519 -0.06095
# Poissons Ratio (z) = 0.09613 -0.10886
#
# Static dielectric constant tensor:
#      x y z
#    x 1.762460 0.000000 0.028400 
#    y 0.000000 1.794510 0.000000 
#    z 0.028400 0.000000 1.777350 
# 
# From -- ./inp_files/236075.got.cif
#   From: 2010.05.17/outbox.cif.g08.bks.cpg/sg15_119_cif.got.tgz:236075.got - 2010.06.03 18:47:42.
