data_PCOD9291689
_publ_section_title
;
Structure prediction by ZEFSAII (Michael W. Deem and Ramdas Pophale) SiO2 
 PCOD9291689
Probable space group: C 2/C
;
_chemical_formula_sum "Si O2"
_cell_formula_units_Z 40
_cell_length_a 17.032890
_cell_length_b 14.953139
_cell_length_c 7.788866
_cell_angle_alpha 90.000000
_cell_angle_beta 50.348489
_cell_angle_gamma 90.000000
_cell_volume 1527.396357
_symmetry_space_group_name_H-M "C 2/C"
_symmetry_group_IT_number 15
_symmetry_cell_setting 'monoclinic'
loop_
_space_group_symop_operation_xyz
x,y,z
-x,y,1/2-z
-x,-y,-z
x,-y,1/2+z
1/2+x,1/2+y,z
1/2-x,1/2+y,1/2-z
1/2-x,1/2-y,-z
1/2+x,1/2-y,1/2+z
loop_
_atom_site_type_symbol
_atom_site_label
_atom_site_fract_x
_atom_site_fract_y
_atom_site_fract_z
Si Si1 0.386444 0.466286 0.190159
Si Si2 0.359137 0.887631 0.771589
Si Si3 0.338487 0.636673 0.104334
Si Si4 0.450202 0.213558 0.641725
Si Si5 0.794418 0.411986 0.251896
O O1 0.324119 0.559662 0.267964
O O2 0.325827 0.410741 0.129350
O O3 0.500000 0.500000 0.000000
O O4 0.621802 0.414170 0.121392
O O5 0.270585 0.827886 0.805840
O O6 0.466875 0.851992 0.559534
O O7 0.334463 0.989336 0.747653
O O8 0.344036 0.887472 0.996470
O O9 0.419656 0.705569 0.061508
O O10 0.500000 0.243779 0.750000
O O11 0.345031 0.158515 0.809902
#
# Coordination Sequence:
#
# PCOD9291689 Si02
#       5
#     8   8   8   8   8
#     4  10  22  43  71  99 136 178 225 286 355 426
#     4  10  22  44  71  99 141 185 230 295 360 423
#     4  10  25  45  68 101 135 183 237 289 359 430
#     4  12  26  43  69 104 143 186 240 298 351 419
#     4  10  22  42  70 104 138 182 234 286 357 428
#
# _framework density 26.188355999999999
#
# number of rings (size 3 to 8) (size 9 to 14) (size 15 to 20)
#    0.000    1.600    0.000    3.000    0.000   12.000 
#    0.000    0.000    0.000    0.000    0.000    0.000 
#    0.000    0.000    0.000    0.000    0.000    0.000 
#
# Total GULP energy -112034.265023 kJ/mol
# GULP energy per Si atom -5601.713251 kJ/mol
# Density = 2.612875 g / cm^3
# Si number density = 26.188356 Si / 1000 Ang^3
#
#
#
# Elastic Constant Matrix: (Units=GPa)
#
#
# Indices 1 2 3 4 5 6 
#
# 1 245.4830 76.3252 62.7358 0.0000 -1.6474 0.0000
# 2 76.3252 107.5289 21.4707 0.0000 3.8115 0.0000
# 3 62.7358 21.4707 78.9844 0.0000 -4.0978 0.0000
# 4 0.0000 0.0000 0.0000 7.7907 0.0000 3.4248
# 5 -1.6474 3.8115 -4.0978 0.0000 51.6448 0.0000
# 6 0.0000 0.0000 0.0000 3.4248 0.0000 60.2588
#
#
#
# Elastic Compliance Matrix: (Units=1/GPa)
#
#
# Indices 1 2 3 4 5 6 
#
# 1 0.006208 -0.003626 -0.003938 0.000000 0.000153 0.000000
# 2 -0.003626 0.011997 -0.000435 0.000000 -0.001036 0.000000
# 3 -0.003938 -0.000435 0.015967 0.000000 0.001173 0.000000
# 4 0.000000 0.000000 0.000000 0.131648 0.000000 -0.007482
# 5 0.000153 -0.001036 0.001173 0.000000 0.019537 0.000000
# 6 0.000000 0.000000 0.000000 -0.007482 0.000000 0.017020
#
#
# Mechanical properties :
#
#
# Convention : Reuss Voigt Hill
#
# Bulk Modulus (GPa) = 55.01781 83.67331 69.34556
# Shear Modulus (GPa) = 22.27828 42.03649 32.15738
#
# Velocity S-wave (km/s) = 2.91983 4.01079 3.50798
# Velocity P-wave (km/s) = 5.69397 7.31222 6.55324
#
# Compressibility (1/GPa) = 0.01817593
#
# Stress axis : x y z
#
# Youngs Moduli (GPa) = 161.07558 83.35346 62.62781
#
# Poissons Ratio (x) = 0.30223 0.24660
# Poissons Ratio (y) = 0.58405 0.02724
# Poissons Ratio (z) = 0.63424 0.03626
#
# Static dielectric constant tensor:
#      x y z
#    x 2.055430 0.000000 -0.005270 
#    y 0.000000 2.091080 0.000000 
#    z -0.005270 0.000000 2.173030 
# 
# From -- ./inp_files/48306.got.cif
#   From: 2010.05.17/outbox.cif.g08.bks.cpg/sg15_25_cif.got.tgz:48306.got - 2010.06.03 18:47:42.
