data_PCOD9291805
_publ_section_title
;
Structure prediction by ZEFSAII (Michael W. Deem and Ramdas Pophale) SiO2 
 PCOD9291805
Probable space group: C 2/C
;
_chemical_formula_sum "Si O2"
_cell_formula_units_Z 36
_cell_length_a 10.842779
_cell_length_b 9.071959
_cell_length_c 22.299314
_cell_angle_alpha 90.000000
_cell_angle_beta 139.802904
_cell_angle_gamma 90.000000
_cell_volume 1415.712011
_symmetry_space_group_name_H-M "C 2/C"
_symmetry_group_IT_number 15
_symmetry_cell_setting 'monoclinic'
loop_
_space_group_symop_operation_xyz
x,y,z
-x,y,1/2-z
-x,-y,-z
x,-y,1/2+z
1/2+x,1/2+y,z
1/2-x,1/2+y,1/2-z
1/2-x,1/2-y,-z
1/2+x,1/2-y,1/2+z
loop_
_atom_site_type_symbol
_atom_site_label
_atom_site_fract_x
_atom_site_fract_y
_atom_site_fract_z
Si Si1 0.408712 0.847770 0.640430
Si Si2 0.501124 0.329227 0.981527
Si Si3 0.500000 0.876600 0.250000
Si Si4 0.320938 0.797958 0.307051
Si Si5 0.585848 0.915690 0.587961
O O1 0.212314 0.769381 0.581706
O O2 0.391718 0.003810 0.667582
O O3 0.389194 0.774114 0.767029
O O4 0.426596 0.870253 0.576695
O O5 0.486516 0.291296 0.905318
O O6 0.500000 0.500000 0.000000
O O7 0.648952 0.233082 0.075806
O O8 0.380832 0.797612 0.259028
O O9 0.303848 0.963062 0.329586
O O10 0.500000 0.000000 0.500000
#
# Coordination Sequence:
#
# PCOD9291805 Si02
#       5
#     8   8   4   8   8
#     4  11  21  42  74 100 143 191 243 299 366 435
#     4  11  23  42  72 108 150 194 236 308 378 436
#     4  10  22  42  72 104 138 180 256 300 354 438
#     4  10  22  44  74  99 141 194 250 299 360 446
#     4   9  22  42  65 103 145 180 247 297 361 441
#
# _framework density 25.428898
#
# number of rings (size 3 to 8) (size 9 to 14) (size 15 to 20)
#    0.000    1.778    2.222    0.667    3.111    0.000 
#    4.000    3.333   19.556   17.333    0.000    0.000 
#    0.000    0.000    0.000    0.000    0.000    0.000 
#
# Total GULP energy -100250.305062 kJ/mol
# GULP energy per Si atom -5569.461392 kJ/mol
# Density = 2.537102 g / cm^3
# Si number density = 25.428898 Si / 1000 Ang^3
#
#
#
# Elastic Constant Matrix: (Units=GPa)
#
#
# Indices 1 2 3 4 5 6 
#
# 1 101.0903 26.6576 37.1181 0.0000 -10.8183 0.0000
# 2 26.6576 172.0810 61.2523 0.0000 -3.5724 0.0000
# 3 37.1181 61.2523 206.2563 0.0000 -29.3493 0.0000
# 4 0.0000 0.0000 0.0000 45.0510 0.0000 -5.1026
# 5 -10.8183 -3.5724 -29.3493 0.0000 39.3063 0.0000
# 6 0.0000 0.0000 0.0000 -5.1026 0.0000 38.5434
#
#
#
# Elastic Compliance Matrix: (Units=1/GPa)
#
#
# Indices 1 2 3 4 5 6 
#
# 1 0.010897 -0.001170 -0.001345 0.000000 0.001889 0.000000
# 2 -0.001170 0.006656 -0.001931 0.000000 -0.001159 0.000000
# 3 -0.001345 -0.001931 0.006250 0.000000 0.004121 0.000000
# 4 0.000000 0.000000 0.000000 0.022535 0.000000 0.002983
# 5 0.001889 -0.001159 0.004121 0.000000 0.028933 0.000000
# 6 0.000000 0.000000 0.000000 0.002983 0.000000 0.026340
#
#
# Mechanical properties :
#
#
# Convention : Reuss Voigt Hill
#
# Bulk Modulus (GPa) = 67.06467 81.05374 74.05920
# Shear Modulus (GPa) = 43.30052 48.20678 45.75365
#
# Velocity S-wave (km/s) = 4.13099 4.35874 4.24639
# Velocity P-wave (km/s) = 7.01313 7.56805 7.29587
#
# Compressibility (1/GPa) = 0.01491098
#
# Stress axis : x y z
#
# Youngs Moduli (GPa) = 91.77189 150.24642 159.99508
#
# Poissons Ratio (x) = 0.17581 0.21515
# Poissons Ratio (y) = 0.10739 0.30893
# Poissons Ratio (z) = 0.12341 0.29011
#
# Static dielectric constant tensor:
#      x y z
#    x 2.026050 0.000000 -0.018340 
#    y 0.000000 2.175700 0.000000 
#    z -0.018340 0.000000 2.097580 
# 
# From -- ./inp_files/194946.got.cif
#   From: 2010.05.17/outbox.cif.g08.bks.cpg/sg15_98_cif.got.tgz:194946.got - 2010.06.03 18:47:42.
