data_PCOD9291791
_publ_section_title
;
Structure prediction by ZEFSAII (Michael W. Deem and Ramdas Pophale) SiO2 
 PCOD9291791
Probable space group: C 2/C
;
_chemical_formula_sum "Si O2"
_cell_formula_units_Z 36
_cell_length_a 10.798865
_cell_length_b 26.255940
_cell_length_c 5.438300
_cell_angle_alpha 90.000000
_cell_angle_beta 70.655908
_cell_angle_gamma 90.000000
_cell_volume 1454.896409
_symmetry_space_group_name_H-M "C 2/C"
_symmetry_group_IT_number 15
_symmetry_cell_setting 'monoclinic'
loop_
_space_group_symop_operation_xyz
x,y,z
-x,y,1/2-z
-x,-y,-z
x,-y,1/2+z
1/2+x,1/2+y,z
1/2-x,1/2+y,1/2-z
1/2-x,1/2-y,-z
1/2+x,1/2-y,1/2+z
loop_
_atom_site_type_symbol
_atom_site_label
_atom_site_fract_x
_atom_site_fract_y
_atom_site_fract_z
Si Si1 0.753526 0.117209 0.625740
Si Si2 0.150977 0.519368 0.430299
Si Si3 0.500000 0.373408 0.250000
Si Si4 0.917082 0.308871 0.054255
Si Si5 0.137373 0.799118 0.796720
O O1 0.676716 0.074983 0.522039
O O2 0.662005 0.138327 0.903670
O O3 0.775116 0.166686 0.438656
O O4 0.897949 0.099792 0.628904
O O5 0.208454 0.514499 0.117833
O O6 0.000000 0.500000 0.500000
O O7 0.403087 0.335504 0.455737
O O8 0.828067 0.258202 0.151898
O O9 0.000000 0.314172 0.250000
O O10 0.000000 0.301250 0.750000
O O11 0.000000 0.791597 0.750000
#
# Coordination Sequence:
#
# PCOD9291791 Si02
#       5
#     8   8   4   8   8
#     4  11  25  43  76 105 147 209 252 308 383 456
#     4  10  25  49  75 105 146 180 246 324 388 439
#     4  10  22  42  72 100 156 200 254 292 372 446
#     4  11  25  42  68 112 157 196 255 307 370 441
#     4   9  20  42  65 104 152 203 248 305 359 448
#
# _framework density 24.744029999999999
#
# number of rings (size 3 to 8) (size 9 to 14) (size 15 to 20)
#    0.000    1.778    1.111    0.667    9.333    0.889 
#    0.000    1.111    0.000    0.000    0.000    0.000 
#    0.000    0.000    0.000    0.000    0.000    0.000 
#
# Total GULP energy -100450.667793 kJ/mol
# GULP energy per Si atom -5580.592655 kJ/mol
# Density = 2.468771 g / cm^3
# Si number density = 24.744030 Si / 1000 Ang^3
#
#
#
# Elastic Constant Matrix: (Units=GPa)
#
#
# Indices 1 2 3 4 5 6 
#
# 1 124.0374 60.3368 37.7013 0.0000 36.8979 0.0000
# 2 60.3368 134.9627 36.2051 0.0000 -2.2200 0.0000
# 3 37.7013 36.2051 114.2095 0.0000 24.4579 0.0000
# 4 0.0000 0.0000 0.0000 16.2666 0.0000 10.9332
# 5 36.8979 -2.2200 24.4579 0.0000 41.6936 0.0000
# 6 0.0000 0.0000 0.0000 10.9332 0.0000 24.2811
#
#
#
# Elastic Compliance Matrix: (Units=1/GPa)
#
#
# Indices 1 2 3 4 5 6 
#
# 1 0.015979 -0.007446 0.000227 0.000000 -0.014671 0.000000
# 2 -0.007446 0.011751 -0.003216 0.000000 0.009102 0.000000
# 3 0.000227 -0.003216 0.011185 0.000000 -0.006934 0.000000
# 4 0.000000 0.000000 0.000000 0.088155 0.000000 -0.039694
# 5 -0.014671 0.009102 -0.006934 0.000000 0.041520 0.000000
# 6 0.000000 0.000000 0.000000 -0.039694 0.000000 0.059057
#
#
# Mechanical properties :
#
#
# Convention : Reuss Voigt Hill
#
# Bulk Modulus (GPa) = 55.41543 71.29956 63.35749
# Shear Modulus (GPa) = 19.64380 32.37935 26.01157
#
# Velocity S-wave (km/s) = 2.82065 3.62134 3.24578
# Velocity P-wave (km/s) = 5.74910 6.80903 6.30139
#
# Compressibility (1/GPa) = 0.01804552
#
# Stress axis : x y z
#
# Youngs Moduli (GPa) = 62.58062 85.10019 89.40351
#
# Poissons Ratio (x) = 0.63367 -0.02033
# Poissons Ratio (y) = 0.46598 0.28755
# Poissons Ratio (z) = -0.01423 0.27371
#
# Static dielectric constant tensor:
#      x y z
#    x 2.568330 0.000000 0.207280 
#    y 0.000000 1.960090 0.000000 
#    z 0.207280 0.000000 2.213300 
# 
# From -- ./inp_files/4279.got.cif
#   From: 2010.05.17/outbox.cif.g08.bks.cpg/sg15_3_cif.got.tgz:4279.got - 2010.06.03 18:47:42.
