data_PCOD9291052
_publ_section_title
;
Structure prediction by ZEFSAII (Michael W. Deem and Ramdas Pophale) SiO2 
 PCOD9291052
Probable space group: C 2/C
;
_chemical_formula_sum "Si O2"
_cell_formula_units_Z 32
_cell_length_a 18.567039
_cell_length_b 5.904457
_cell_length_c 25.767777
_cell_angle_alpha 90.000000
_cell_angle_beta 152.989466
_cell_angle_gamma 90.000000
_cell_volume 1282.930127
_symmetry_space_group_name_H-M "C 2/C"
_symmetry_group_IT_number 15
_symmetry_cell_setting 'monoclinic'
loop_
_space_group_symop_operation_xyz
x,y,z
-x,y,1/2-z
-x,-y,-z
x,-y,1/2+z
1/2+x,1/2+y,z
1/2-x,1/2+y,1/2-z
1/2-x,1/2-y,-z
1/2+x,1/2-y,1/2+z
loop_
_atom_site_type_symbol
_atom_site_label
_atom_site_fract_x
_atom_site_fract_y
_atom_site_fract_z
Si Si1 0.538208 0.178903 0.569360
Si Si2 0.378113 0.456854 0.018952
Si Si3 0.121458 0.355489 0.714269
Si Si4 0.609132 0.378701 0.361232
O O1 0.388735 0.339894 0.485962
O O2 0.697288 0.312673 0.655821
O O3 0.500000 0.000000 0.500000
O O4 0.582797 0.068323 0.653682
O O5 0.555601 0.353728 0.136614
O O6 0.345646 0.518261 0.058568
O O7 0.260937 0.245959 0.935342
O O8 0.005935 0.320612 0.689442
O O9 0.500000 0.505176 0.250000
#
# Coordination Sequence:
#
# PCOD9291052 Si02
#       4
#     8   8   8   8
#     4  12  25  41  71 101 139 188 230 289 358 406
#     4   9  22  43  64 100 134 175 238 288 341 422
#     4  10  22  42  63  99 135 172 237 285 335 432
#     4   9  20  42  69  92 140 178 222 293 345 407
#
# _framework density 24.942902
#
# number of rings (size 3 to 8) (size 9 to 14) (size 15 to 20)
#    1.500    0.500    2.500    0.000    3.500    4.000 
#    0.000    1.250    0.000    0.000    0.000    0.000 
#    0.000    0.000    0.000    0.000    0.000    0.000 
#
# Total GULP energy -89224.257170 kJ/mol
# GULP energy per Si atom -5576.516073 kJ/mol
# Density = 2.488613 g / cm^3
# Si number density = 24.942902 Si / 1000 Ang^3
#
#
#
# Elastic Constant Matrix: (Units=GPa)
#
#
# Indices 1 2 3 4 5 6 
#
# 1 100.5141 41.6676 31.2307 -0.0002 12.8099 0.0011
# 2 41.6676 70.7586 22.1381 0.0015 9.1315 0.0079
# 3 31.2307 22.1381 95.5210 0.0014 9.1110 0.0004
# 4 -0.0002 0.0015 0.0014 27.4957 0.0003 -4.3725
# 5 12.8099 9.1315 9.1110 0.0003 40.1779 0.0007
# 6 0.0011 0.0079 0.0004 -4.3725 0.0007 45.8091
#
#
#
# Elastic Compliance Matrix: (Units=1/GPa)
#
#
# Indices 1 2 3 4 5 6 
#
# 1 0.014033 -0.007123 -0.002724 0.000001 -0.002238 0.000001
# 2 -0.007123 0.019149 -0.001953 -0.000001 -0.001638 -0.000003
# 3 -0.002724 -0.001953 0.011945 0.000000 -0.001396 0.000000
# 4 0.000001 -0.000001 0.000000 0.036930 0.000000 0.003525
# 5 -0.002238 -0.001638 -0.001396 0.000000 0.026292 0.000000
# 6 0.000001 -0.000003 0.000000 0.003525 0.000000 0.022166
#
#
# Mechanical properties :
#
#
# Convention : Reuss Voigt Hill
#
# Bulk Modulus (GPa) = 46.45010 50.76295 48.60652
# Shear Modulus (GPa) = 30.99990 34.14703 32.57347
#
# Velocity S-wave (km/s) = 3.52921 3.70402 3.61767
# Velocity P-wave (km/s) = 5.93886 6.22004 6.08108
#
# Compressibility (1/GPa) = 0.02152848
#
# Stress axis : x y z
#
# Youngs Moduli (GPa) = 71.26057 52.22117 83.71473
#
# Poissons Ratio (x) = 0.37195 0.22803
# Poissons Ratio (y) = 0.50756 0.16350
# Poissons Ratio (z) = 0.19411 0.10199
#
# Static dielectric constant tensor:
#      x y z
#    x 2.041460 0.000000 -0.048820 
#    y 0.000000 1.999650 0.000000 
#    z -0.048820 0.000000 1.980940 
# 
# From -- ./inp_files/273297.got.cif
#   From: 2010.05.17/outbox.cif.g08.bks.cpg/sg15_137_cif.got.tgz:273297.got - 2010.06.03 18:47:42.
