data_PCOD9291491
_publ_section_title
;
Structure prediction by ZEFSAII (Michael W. Deem and Ramdas Pophale) SiO2 
 PCOD9291491
Probable space group: C 2/C
;
_chemical_formula_sum "Si O2"
_cell_formula_units_Z 52
_cell_length_a 23.172816
_cell_length_b 5.169957
_cell_length_c 20.386213
_cell_angle_alpha 90.000000
_cell_angle_beta 112.111406
_cell_angle_gamma 90.000000
_cell_volume 2262.695065
_symmetry_space_group_name_H-M "C 2/C"
_symmetry_group_IT_number 15
_symmetry_cell_setting 'monoclinic'
loop_
_space_group_symop_operation_xyz
x,y,z
-x,y,1/2-z
-x,-y,-z
x,-y,1/2+z
1/2+x,1/2+y,z
1/2-x,1/2+y,1/2-z
1/2-x,1/2-y,-z
1/2+x,1/2-y,1/2+z
loop_
_atom_site_type_symbol
_atom_site_label
_atom_site_fract_x
_atom_site_fract_y
_atom_site_fract_z
Si Si1 0.486872 0.443721 0.598663
Si Si2 0.374454 0.043116 0.739061
Si Si3 0.303552 0.466157 0.165051
Si Si4 0.440147 0.053510 0.404940
Si Si5 0.160175 0.973634 0.469872
Si Si6 0.500000 0.262619 0.750000
Si Si7 0.822863 0.528607 0.443234
O O1 0.527637 0.669109 0.584449
O O2 0.414445 0.499689 0.558781
O O3 0.500779 0.425735 0.683131
O O4 0.508580 0.171694 0.577658
O O5 0.335315 0.307523 0.720411
O O6 0.436965 0.092951 0.722565
O O7 0.333153 0.807925 0.695731
O O8 0.400006 0.978708 0.821467
O O9 0.229005 0.473102 0.134013
O O10 0.320250 0.520082 0.096244
O O11 0.391412 0.020072 0.442071
O O12 0.180575 0.692841 0.503355
O O13 0.187618 0.192131 0.529217
#
# Coordination Sequence:
#
# PCOD9291491 Si02
#       7
#     8   8   8   8   8   4   8
#     4  11  24  41  70 100 134 165 225 266 345 381
#     4  11  24  40  71 100 133 163 223 271 345 379
#     4  12  25  44  69 101 126 179 220 280 319 389
#     4  11  26  43  65 103 132 181 206 276 329 406
#     4  12  25  43  70  97 127 182 218 280 317 387
#     4  10  22  42  68 104 138 162 210 296 334 400
#     4  12  27  46  65  91 145 175 227 257 322 397
#
# _framework density 22.981445000000001
#
# number of rings (size 3 to 8) (size 9 to 14) (size 15 to 20)
#    0.000    0.615    1.538    6.462    4.308    6.154 
#    0.000    0.000    0.000    0.000    0.000    0.000 
#    0.000    0.000    0.000    0.000    0.000    0.000 
#
# Total GULP energy -145818.686055 kJ/mol
# GULP energy per Si atom -5608.411002 kJ/mol
# Density = 2.292914 g / cm^3
# Si number density = 22.981445 Si / 1000 Ang^3
#
#
#
# Elastic Constant Matrix: (Units=GPa)
#
#
# Indices 1 2 3 4 5 6 
#
# 1 88.1535 17.7430 13.6581 0.0001 21.6848 -0.0001
# 2 17.7430 104.6732 8.6637 0.0012 16.2612 -0.0002
# 3 13.6581 8.6637 62.2001 -0.0003 17.5102 -0.0001
# 4 0.0001 0.0012 -0.0003 19.8448 -0.0003 8.4208
# 5 21.6848 16.2612 17.5102 -0.0003 46.4948 0.0000
# 6 -0.0001 -0.0002 -0.0001 8.4208 0.0000 20.0776
#
#
#
# Elastic Compliance Matrix: (Units=1/GPa)
#
#
# Indices 1 2 3 4 5 6 
#
# 1 0.013071 -0.001310 -0.001231 0.000000 -0.005175 0.000000
# 2 -0.001310 0.010246 -0.000339 -0.000001 -0.002845 0.000000
# 3 -0.001231 -0.000339 0.018121 0.000000 -0.006132 0.000000
# 4 0.000000 -0.000001 0.000000 0.061301 0.000001 -0.025711
# 5 -0.005175 -0.002845 -0.006132 0.000001 0.027225 0.000000
# 6 0.000000 0.000000 0.000000 -0.025711 0.000000 0.060590
#
#
# Mechanical properties :
#
#
# Convention : Reuss Voigt Hill
#
# Bulk Modulus (GPa) = 28.02811 37.23957 32.63384
# Shear Modulus (GPa) = 24.01467 31.61422 27.81445
#
# Velocity S-wave (km/s) = 3.23609 3.71299 3.48271
# Velocity P-wave (km/s) = 5.11718 5.88397 5.51392
#
# Compressibility (1/GPa) = 0.03567847
#
# Stress axis : x y z
#
# Youngs Moduli (GPa) = 76.50468 97.60319 55.18512
#
# Poissons Ratio (x) = 0.12785 0.06794
# Poissons Ratio (y) = 0.10021 0.01868
# Poissons Ratio (z) = 0.09418 0.03305
#
# Static dielectric constant tensor:
#      x y z
#    x 1.853470 0.000000 0.016450 
#    y 0.000000 1.790230 0.000000 
#    z 0.016450 0.000000 1.851250 
# 
# From -- ./inp_files/254420.got.cif
#   From: 2010.05.17/outbox.cif.g08.bks.cpg/sg15_128_cif.got.tgz:254420.got - 2010.06.03 18:47:42.
