data_PCOD9291142
_publ_section_title
;
Structure prediction by ZEFSAII (Michael W. Deem and Ramdas Pophale) SiO2 
 PCOD9291142
Probable space group: C 2/C
;
_chemical_formula_sum "Si O2"
_cell_formula_units_Z 52
_cell_length_a 23.422800
_cell_length_b 6.325813
_cell_length_c 18.380210
_cell_angle_alpha 90.000000
_cell_angle_beta 61.719193
_cell_angle_gamma 90.000000
_cell_volume 2398.292340
_symmetry_space_group_name_H-M "C 2/C"
_symmetry_group_IT_number 15
_symmetry_cell_setting 'monoclinic'
loop_
_space_group_symop_operation_xyz
x,y,z
-x,y,1/2-z
-x,-y,-z
x,-y,1/2+z
1/2+x,1/2+y,z
1/2-x,1/2+y,1/2-z
1/2-x,1/2-y,-z
1/2+x,1/2-y,1/2+z
loop_
_atom_site_type_symbol
_atom_site_label
_atom_site_fract_x
_atom_site_fract_y
_atom_site_fract_z
Si Si1 0.883812 0.571199 0.382296
Si Si2 0.777564 0.512020 0.840425
Si Si3 0.327084 0.210259 0.668651
Si Si4 0.168694 0.327218 0.946916
Si Si5 0.489941 0.615512 0.838403
Si Si6 0.000000 0.297343 0.250000
Si Si7 0.932751 0.947397 0.078229
O O1 0.824595 0.621490 0.364068
O O2 0.853409 0.429724 0.464486
O O3 0.935879 0.433565 0.304523
O O4 0.921166 0.772460 0.395853
O O5 0.730708 0.364862 0.821163
O O6 0.818620 0.641858 0.756735
O O7 0.731748 0.676610 0.911519
O O8 0.392671 0.342247 0.619653
O O9 0.322212 0.011926 0.617824
O O10 0.110735 0.187813 0.949272
O O11 0.500000 0.689045 0.750000
O O12 0.497639 0.363464 0.820984
O O13 0.545568 0.675572 0.861550
O O14 0.000000 0.000000 0.000000
#
# Coordination Sequence:
#
# PCOD9291142 Si02
#       7
#     8   8   8   8   8   4   8
#     4  12  24  43  68  98 137 176 222 284 339 409
#     4  11  25  44  67  96 133 177 233 276 340 401
#     4  11  24  44  71  96 131 184 226 283 336 407
#     4  11  26  43  69  99 131 176 229 277 344 402
#     4  10  24  39  62 100 131 171 218 263 336 404
#     4  10  22  42  64  98 136 172 224 264 344 404
#     4  11  24  44  68 100 137 170 220 283 341 411
#
# _framework density 21.682095
#
# number of rings (size 3 to 8) (size 9 to 14) (size 15 to 20)
#    0.462    0.615    2.308    3.231    2.154    6.769 
#    0.000    0.000    0.000    0.000    0.000    0.000 
#    0.000    0.000    0.000    0.000    0.000    0.000 
#
# Total GULP energy -145125.185669 kJ/mol
# GULP energy per Si atom -5581.737910 kJ/mol
# Density = 2.163275 g / cm^3
# Si number density = 21.682095 Si / 1000 Ang^3
#
#
#
# Elastic Constant Matrix: (Units=GPa)
#
#
# Indices 1 2 3 4 5 6 
#
# 1 92.7255 6.3232 8.2240 -0.0010 -2.4094 -0.0024
# 2 6.3232 47.5068 7.2771 -0.0041 -10.7221 -0.0052
# 3 8.2240 7.2771 69.9180 -0.0002 -14.4961 -0.0005
# 4 -0.0010 -0.0041 -0.0002 20.7681 0.0003 -11.6289
# 5 -2.4094 -10.7221 -14.4961 0.0003 28.3477 0.0000
# 6 -0.0024 -0.0052 -0.0005 -11.6289 0.0000 4.3189
#
#
#
# Elastic Compliance Matrix: (Units=1/GPa)
#
#
# Indices 1 2 3 4 5 6 
#
# 1 0.010975 -0.001318 -0.001190 -0.000005 -0.000174 -0.000010
# 2 -0.001318 0.023200 -0.000519 -0.000039 0.008398 -0.000077
# 3 -0.001190 -0.000519 0.016147 0.000000 0.007960 0.000000
# 4 -0.000005 -0.000039 0.000000 -0.094845 -0.000014 -0.255377
# 5 -0.000174 0.008398 0.007960 -0.000014 0.042508 -0.000026
# 6 -0.000010 -0.000077 0.000000 -0.255377 -0.000026 -0.456079
#
#
# Mechanical properties :
#
#
# Convention : Reuss Voigt Hill
#
# Bulk Modulus (GPa) = 22.58900 28.19987 25.39443
# Shear Modulus (GPa) = -11.43418 23.24202 5.90392
#
# Velocity S-wave (km/s) = -2.29891 3.27761 1.65193
# Velocity P-wave (km/s) = 1.84234 5.23048 3.92123
#
# Compressibility (1/GPa) = 0.04426934
#
# Stress axis : x y z
#
# Youngs Moduli (GPa) = 91.11292 43.10386 61.93227
#
# Poissons Ratio (x) = 0.05680 0.07369
# Poissons Ratio (y) = 0.12007 0.03211
# Poissons Ratio (z) = 0.10841 0.02235
#
# Static dielectric constant tensor:
#      x y z
#    x 1.832170 0.000010 0.020450 
#    y 0.000010 1.831410 0.000000 
#    z 0.020450 0.000000 1.820210 
# 
# From -- ./inp_files/254269.got.cif
#   From: 2010.05.17/outbox.cif.g08.bks.cpg/sg15_128_cif.got.tgz:254269.got - 2010.06.03 18:47:42.
