data_PCOD9291466
_publ_section_title
;
Structure prediction by ZEFSAII (Michael W. Deem and Ramdas Pophale) SiO2 
 PCOD9291466
Probable space group: C 2/C
;
_chemical_formula_sum "Si O2"
_cell_formula_units_Z 48
_cell_length_a 20.409621
_cell_length_b 19.253493
_cell_length_c 8.474208
_cell_angle_alpha 90.000000
_cell_angle_beta 137.738698
_cell_angle_gamma 90.000000
_cell_volume 2239.464337
_symmetry_space_group_name_H-M "C 2/C"
_symmetry_group_IT_number 15
_symmetry_cell_setting 'monoclinic'
loop_
_space_group_symop_operation_xyz
x,y,z
-x,y,1/2-z
-x,-y,-z
x,-y,1/2+z
1/2+x,1/2+y,z
1/2-x,1/2+y,1/2-z
1/2-x,1/2-y,-z
1/2+x,1/2-y,1/2+z
loop_
_atom_site_type_symbol
_atom_site_label
_atom_site_fract_x
_atom_site_fract_y
_atom_site_fract_z
Si Si1 0.525871 0.796954 0.979259
Si Si2 0.193734 0.589575 0.810057
Si Si3 0.851846 0.226379 0.753216
Si Si4 0.276018 0.502340 0.688492
Si Si5 0.337060 0.299189 0.598514
Si Si6 0.395779 0.582598 0.652572
O O1 0.500000 0.792041 0.750000
O O2 0.421004 0.794439 0.872298
O O3 0.601888 0.859015 0.145198
O O4 0.573977 0.727336 0.139424
O O5 0.223581 0.563638 0.691821
O O6 0.190401 0.526257 0.923400
O O7 0.293391 0.625870 0.049253
O O8 0.750000 0.250000 0.500000
O O9 0.883846 0.160869 0.700430
O O10 0.850308 0.206463 0.934608
O O11 0.367190 0.533274 0.751171
O O12 0.316230 0.445639 0.884628
O O13 0.250000 0.250000 0.500000
O O14 0.500000 0.575613 0.750000
#
# Coordination Sequence:
#
# PCOD9291466 Si02
#       6
#     8   8   8   8   8   8
#     4  11  25  43  70 102 138 182 238 294 353 418
#     4  10  22  45  71 100 144 181 236 287 352 423
#     4  12  25  42  70 102 141 184 234 296 360 414
#     4  10  23  44  71  98 144 191 227 289 350 424
#     4  10  22  42  67  99 136 182 231 294 351 415
#     4  11  24  42  69 106 140 184 238 284 358 429
#
# _framework density 21.433699000000001
#
# number of rings (size 3 to 8) (size 9 to 14) (size 15 to 20)
#    0.000    1.333    1.667    3.500    9.333    0.000 
#    0.000    0.833    0.000    0.000    0.000    0.000 
#    0.000    0.000    0.000    0.000    0.000    0.000 
#
# Total GULP energy -133749.748087 kJ/mol
# GULP energy per Si atom -5572.906170 kJ/mol
# Density = 2.138491 g / cm^3
# Si number density = 21.433699 Si / 1000 Ang^3
#
#
#
# Elastic Constant Matrix: (Units=GPa)
#
#
# Indices 1 2 3 4 5 6 
#
# 1 98.0161 50.8921 31.7413 0.0000 1.1129 0.0000
# 2 50.8921 88.9311 49.0012 0.0000 -2.6988 0.0000
# 3 31.7413 49.0012 105.5687 0.0000 15.7972 0.0000
# 4 0.0000 0.0000 0.0000 15.4735 0.0000 4.4142
# 5 1.1129 -2.6988 15.7972 0.0000 32.7012 0.0000
# 6 0.0000 0.0000 0.0000 4.4142 0.0000 30.6871
#
#
#
# Elastic Compliance Matrix: (Units=1/GPa)
#
#
# Indices 1 2 3 4 5 6 
#
# 1 0.014577 -0.008105 -0.000481 0.000000 -0.000932 0.000000
# 2 -0.008105 0.020412 -0.007902 0.000000 0.005778 0.000000
# 3 -0.000481 -0.007902 0.014423 0.000000 -0.007603 0.000000
# 4 0.000000 0.000000 0.000000 0.067392 0.000000 -0.009694
# 5 -0.000932 0.005778 -0.007603 0.000000 0.034761 0.000000
# 6 0.000000 0.000000 0.000000 -0.009694 0.000000 0.033981
#
#
# Mechanical properties :
#
#
# Convention : Reuss Voigt Hill
#
# Bulk Modulus (GPa) = 60.84548 61.75391 61.29969
# Shear Modulus (GPa) = 22.32108 26.49778 24.40943
#
# Velocity S-wave (km/s) = 3.23058 3.51987 3.37832
# Velocity P-wave (km/s) = 6.50883 6.73747 6.62414
#
# Compressibility (1/GPa) = 0.01643507
#
# Stress axis : x y z
#
# Youngs Moduli (GPa) = 68.60029 48.98965 69.33403
#
# Poissons Ratio (x) = 0.39707 0.03337
# Poissons Ratio (y) = 0.55601 0.54790
# Poissons Ratio (z) = 0.03302 0.38713
#
# Static dielectric constant tensor:
#      x y z
#    x 1.857960 0.000000 0.001850 
#    y 0.000000 1.806590 0.000000 
#    z 0.001850 0.000000 1.794100 
# 
# From -- ./inp_files/57978.got.cif
#   From: 2010.05.17/outbox.cif.g08.bks.cpg/sg15_29_cif.got.tgz:57978.got - 2010.06.03 18:47:42.
