data_PCOD9291641
_publ_section_title
;
Structure prediction by ZEFSAII (Michael W. Deem and Ramdas Pophale) SiO2 
 PCOD9291641
Probable space group: C 2/C
;
_chemical_formula_sum "Si O2"
_cell_formula_units_Z 48
_cell_length_a 8.572232
_cell_length_b 8.267326
_cell_length_c 26.212003
_cell_angle_alpha 90.000000
_cell_angle_beta 103.558842
_cell_angle_gamma 90.000000
_cell_volume 1805.857110
_symmetry_space_group_name_H-M "C 2/C"
_symmetry_group_IT_number 15
_symmetry_cell_setting 'monoclinic'
loop_
_space_group_symop_operation_xyz
x,y,z
-x,y,1/2-z
-x,-y,-z
x,-y,1/2+z
1/2+x,1/2+y,z
1/2-x,1/2+y,1/2-z
1/2-x,1/2-y,-z
1/2+x,1/2-y,1/2+z
loop_
_atom_site_type_symbol
_atom_site_label
_atom_site_fract_x
_atom_site_fract_y
_atom_site_fract_z
Si Si1 0.197899 0.092940 0.208743
Si Si2 0.609600 0.586839 0.389648
Si Si3 0.598313 0.737243 0.843042
Si Si4 0.268150 0.765028 0.192239
Si Si5 0.388162 0.919976 0.560081
Si Si6 0.525377 0.265516 0.526826
O O1 0.058327 0.091012 0.154989
O O2 0.291258 0.250677 0.196871
O O3 0.164124 0.128738 0.265076
O O4 0.321088 0.945031 0.210239
O O5 0.667126 0.405868 0.383674
O O6 0.710480 0.714726 0.364711
O O7 0.587424 0.619777 0.447446
O O8 0.419157 0.713548 0.811510
O O9 0.587832 0.892894 0.878447
O O10 0.484040 0.788618 0.532693
O O11 0.198348 0.863799 0.540826
O O12 0.466396 0.092358 0.549054
#
# Coordination Sequence:
#
# PCOD9291641 Si02
#       6
#     8   8   8   8   8   8
#     4  11  23  43  61  91 130 170 218 274 331 401
#     4  11  24  40  64  94 129 170 219 275 332 405
#     4  11  24  40  64  95 127 170 220 271 335 405
#     4  11  25  39  63  93 127 168 222 273 333 400
#     4  10  22  42  69  98 130 178 221 279 342 416
#     4  10  22  42  69  97 133 173 226 276 343 414
#
# _framework density 26.580172999999998
#
# number of rings (size 3 to 8) (size 9 to 14) (size 15 to 20)
#    0.000    1.333    1.667    3.000    4.667    8.667 
#    0.000    0.833    0.000    0.000    0.000    0.000 
#    0.000    0.000    0.000    0.000    0.000    0.000 
#
# Total GULP energy -133722.500437 kJ/mol
# GULP energy per Si atom -5571.770852 kJ/mol
# Density = 2.651968 g / cm^3
# Si number density = 26.580173 Si / 1000 Ang^3
#
#
#
# Elastic Constant Matrix: (Units=GPa)
#
#
# Indices 1 2 3 4 5 6 
#
# 1 71.4132 16.7792 6.6564 0.0000 0.1246 0.0000
# 2 16.7792 115.3305 28.1742 0.0000 -2.3919 0.0000
# 3 6.6564 28.1742 106.3764 0.0000 -28.1997 0.0000
# 4 0.0000 0.0000 0.0000 37.7697 0.0000 -11.0198
# 5 0.1246 -2.3919 -28.1997 0.0000 38.7566 0.0000
# 6 0.0000 0.0000 0.0000 -11.0198 0.0000 18.6229
#
#
#
# Elastic Compliance Matrix: (Units=1/GPa)
#
#
# Indices 1 2 3 4 5 6 
#
# 1 0.014522 -0.001996 -0.000527 0.000000 -0.000553 0.000000
# 2 -0.001996 0.009616 -0.002804 0.000000 -0.001440 0.000000
# 3 -0.000527 -0.002804 0.012552 0.000000 0.008961 0.000000
# 4 0.000000 0.000000 0.000000 0.032001 0.000000 0.018936
# 5 -0.000553 -0.001440 0.008961 0.000000 0.032235 0.000000
# 6 0.000000 0.000000 0.000000 0.018936 0.000000 0.064903
#
#
# Mechanical properties :
#
#
# Convention : Reuss Voigt Hill
#
# Bulk Modulus (GPa) = 38.40601 44.03773 41.22187
# Shear Modulus (GPa) = 27.00360 35.13051 31.06706
#
# Velocity S-wave (km/s) = 3.19082 3.63944 3.42249
# Velocity P-wave (km/s) = 5.29676 5.85359 5.58212
#
# Compressibility (1/GPa) = 0.02603759
#
# Stress axis : x y z
#
# Youngs Moduli (GPa) = 68.86125 103.99187 79.67014
#
# Poissons Ratio (x) = 0.20752 0.04197
# Poissons Ratio (y) = 0.13742 0.22338
# Poissons Ratio (z) = 0.03628 0.29157
#
# Static dielectric constant tensor:
#      x y z
#    x 2.181920 0.000000 0.036060 
#    y 0.000000 2.342030 0.000000 
#    z 0.036060 0.000000 1.937880 
# 
# From -- ./inp_files/306638.got.cif
#   From: 2010.05.17/outbox.cif.g08.bks.cpg/sg15_154_cif.got.tgz:306638.got - 2010.06.03 18:47:42.
