data_PCOD9291984
_publ_section_title
;
Structure prediction by ZEFSAII (Michael W. Deem and Ramdas Pophale) SiO2 
 PCOD9291984
Probable space group: C 2/C
;
_chemical_formula_sum "Si O2"
_cell_formula_units_Z 40
_cell_length_a 20.724304
_cell_length_b 10.942845
_cell_length_c 12.121109
_cell_angle_alpha 90.000000
_cell_angle_beta 141.149246
_cell_angle_gamma 90.000000
_cell_volume 1724.342920
_symmetry_space_group_name_H-M "C 2/C"
_symmetry_group_IT_number 15
_symmetry_cell_setting 'monoclinic'
loop_
_space_group_symop_operation_xyz
x,y,z
-x,y,1/2-z
-x,-y,-z
x,-y,1/2+z
1/2+x,1/2+y,z
1/2-x,1/2+y,1/2-z
1/2-x,1/2-y,-z
1/2+x,1/2-y,1/2+z
loop_
_atom_site_type_symbol
_atom_site_label
_atom_site_fract_x
_atom_site_fract_y
_atom_site_fract_z
Si Si1 0.156020 0.900619 0.179158
Si Si2 0.801541 0.867202 0.514286
Si Si3 0.531386 0.101014 0.454676
Si Si4 0.078503 0.850896 0.620308
Si Si5 0.331578 0.917130 0.563884
O O1 0.237149 0.850921 0.376378
O O2 0.156628 0.049991 0.172483
O O3 0.175364 0.852783 0.082792
O O4 0.040148 0.877188 0.062607
O O5 0.750000 0.750000 0.500000
O O6 0.903683 0.874787 0.725812
O O7 0.725451 0.980220 0.439506
O O8 0.590162 0.213635 0.590669
O O9 0.603344 0.039736 0.457371
O O10 0.423576 0.143511 0.255351
O O11 0.500000 0.000000 0.500000
#
# Coordination Sequence:
#
# PCOD9291984 Si02
#       5
#     8   8   8   8   8
#     4  10  22  43  64  95 128 166 219 266 319 388
#     4  11  22  41  69  94 128 169 218 269 319 387
#     4  11  23  43  64  95 133 169 213 268 320 393
#     4  10  23  42  65  96 127 171 215 263 326 382
#     4  10  23  41  61  99 126 167 212 261 334 376
#
# _framework density 23.197243
#
# number of rings (size 3 to 8) (size 9 to 14) (size 15 to 20)
#    0.000    1.600    0.000    4.200    2.800    0.800 
#   25.200    0.000    0.000    0.000    0.000    0.000 
#    0.000    0.000    0.000    0.000    0.000    0.000 
#
# Total GULP energy -111575.568122 kJ/mol
# GULP energy per Si atom -5578.778406 kJ/mol
# Density = 2.314444 g / cm^3
# Si number density = 23.197243 Si / 1000 Ang^3
#
#
#
# Elastic Constant Matrix: (Units=GPa)
#
#
# Indices 1 2 3 4 5 6 
#
# 1 52.8242 7.0374 16.4325 0.0000 -3.3416 0.0000
# 2 7.0374 49.4437 0.2124 0.0000 -12.2149 0.0000
# 3 16.4325 0.2124 167.7008 0.0000 11.9488 0.0000
# 4 0.0000 0.0000 0.0000 30.3398 0.0000 2.1574
# 5 -3.3416 -12.2149 11.9488 0.0000 40.8714 0.0000
# 6 0.0000 0.0000 0.0000 2.1574 0.0000 23.7151
#
#
#
# Elastic Compliance Matrix: (Units=1/GPa)
#
#
# Indices 1 2 3 4 5 6 
#
# 1 0.019996 -0.002466 -0.002063 0.000000 0.001501 0.000000
# 2 -0.002466 0.022183 -0.000250 0.000000 0.006501 0.000000
# 3 -0.002063 -0.000250 0.006314 0.000000 -0.002089 0.000000
# 4 0.000000 0.000000 0.000000 0.033175 0.000000 -0.003018
# 5 0.001501 0.006501 -0.002089 0.000000 0.027143 0.000000
# 6 0.000000 0.000000 0.000000 -0.003018 0.000000 0.042442
#
#
# Mechanical properties :
#
#
# Convention : Reuss Voigt Hill
#
# Bulk Modulus (GPa) = 25.68370 35.25925 30.47147
# Shear Modulus (GPa) = 28.77033 35.40435 32.08734
#
# Velocity S-wave (km/s) = 3.52554 3.91094 3.72323
# Velocity P-wave (km/s) = 5.26008 5.96881 5.62562
#
# Compressibility (1/GPa) = 0.03893520
#
# Stress axis : x y z
#
# Youngs Moduli (GPa) = 50.00991 45.07913 158.36960
#
# Poissons Ratio (x) = 0.11118 0.32674
# Poissons Ratio (y) = 0.12335 0.03953
# Poissons Ratio (z) = 0.10318 0.01125
#
# Static dielectric constant tensor:
#      x y z
#    x 1.825730 0.000000 0.001750 
#    y 0.000000 1.961360 0.000000 
#    z 0.001750 0.000000 1.981420 
# 
# From -- ./inp_files/111859.got.cif
#   From: 2010.05.17/outbox.cif.g08.bks.cpg/sg15_56_cif.got.tgz:111859.got - 2010.06.03 18:47:42.
