data_PCOD9291765
_publ_section_title
;
Structure prediction by ZEFSAII (Michael W. Deem and Ramdas Pophale) SiO2 
 PCOD9291765
Probable space group: C 2/C
;
_chemical_formula_sum "Si O2"
_cell_formula_units_Z 44
_cell_length_a 11.447734
_cell_length_b 20.934180
_cell_length_c 10.768133
_cell_angle_alpha 90.000000
_cell_angle_beta 128.841445
_cell_angle_gamma 90.000000
_cell_volume 2009.967149
_symmetry_space_group_name_H-M "C 2/C"
_symmetry_group_IT_number 15
_symmetry_cell_setting 'monoclinic'
loop_
_space_group_symop_operation_xyz
x,y,z
-x,y,1/2-z
-x,-y,-z
x,-y,1/2+z
1/2+x,1/2+y,z
1/2-x,1/2+y,1/2-z
1/2-x,1/2-y,-z
1/2+x,1/2-y,1/2+z
loop_
_atom_site_type_symbol
_atom_site_label
_atom_site_fract_x
_atom_site_fract_y
_atom_site_fract_z
Si Si1 0.366810 0.691162 0.880394
Si Si2 0.670454 0.617111 0.415860
Si Si3 0.879471 0.050931 0.880194
Si Si4 0.134498 0.287905 0.011854
Si Si5 0.648363 0.037369 0.137912
Si Si6 0.500000 0.103862 0.250000
O O1 0.435457 0.621816 0.884814
O O2 0.220742 0.700130 0.698415
O O3 0.487863 0.745142 0.936960
O O4 0.330479 0.681560 0.002529
O O5 0.500000 0.609119 0.250000
O O6 0.707426 0.566837 0.550123
O O7 0.792665 0.600376 0.394608
O O8 0.777223 0.015844 0.713436
O O9 0.000000 0.000000 0.000000
O O10 0.081338 0.351402 0.905555
O O11 0.250000 0.250000 0.000000
O O12 0.620039 0.060918 0.258467
O O13 0.500000 0.000000 0.000000
#
# Coordination Sequence:
#
# PCOD9291765 Si02
#       6
#     8   8   8   8   8   4
#     4  10  25  45  74 103 142 191 250 302 364 436
#     4  10  23  44  71 104 145 190 246 291 373 444
#     4  10  22  42  71 107 142 190 236 298 368 450
#     4  12  24  49  70 105 143 194 253 302 363 441
#     4  12  24  47  73 111 153 187 242 309 386 445
#     4  12  28  42  80 104 150 194 246 312 376 442
#
# _framework density 21.890905
#
# number of rings (size 3 to 8) (size 9 to 14) (size 15 to 20)
#    1.091    0.000    3.636    2.182    5.091    0.000 
#    3.273    3.636    0.000    0.000    0.000    0.000 
#    0.000    0.000    0.000    0.000    0.000    0.000 
#
# Total GULP energy -122669.950661 kJ/mol
# GULP energy per Si atom -5575.906848 kJ/mol
# Density = 2.184108 g / cm^3
# Si number density = 21.890905 Si / 1000 Ang^3
#
#
#
# Elastic Constant Matrix: (Units=GPa)
#
#
# Indices 1 2 3 4 5 6 
#
# 1 75.0410 16.8851 10.7688 0.0000 -14.4954 0.0000
# 2 16.8851 99.1098 32.7374 0.0000 4.5219 0.0000
# 3 10.7688 32.7374 117.4972 0.0000 14.7256 0.0000
# 4 0.0000 0.0000 0.0000 42.7713 0.0000 -7.0628
# 5 -14.4954 4.5219 14.7256 0.0000 33.2792 0.0000
# 6 0.0000 0.0000 0.0000 -7.0628 0.0000 29.0042
#
#
#
# Elastic Compliance Matrix: (Units=1/GPa)
#
#
# Indices 1 2 3 4 5 6 
#
# 1 0.015660 -0.002453 -0.001745 0.000000 0.007926 0.000000
# 2 -0.002453 0.011497 -0.002804 0.000000 -0.001390 0.000000
# 3 -0.001745 -0.002804 0.010057 0.000000 -0.004829 0.000000
# 4 0.000000 0.000000 0.000000 0.024360 0.000000 0.005932
# 5 0.007926 -0.001390 -0.004829 0.000000 0.035827 0.000000
# 6 0.000000 0.000000 0.000000 0.005932 0.000000 0.035922
#
#
# Mechanical properties :
#
#
# Convention : Reuss Voigt Hill
#
# Bulk Modulus (GPa) = 43.08644 45.82562 44.45603
# Shear Modulus (GPa) = 32.24449 36.42805 34.33627
#
# Velocity S-wave (km/s) = 3.84208 4.08373 3.96475
# Velocity P-wave (km/s) = 6.27752 6.57380 6.42737
#
# Compressibility (1/GPa) = 0.02320916
#
# Stress axis : x y z
#
# Youngs Moduli (GPa) = 63.85872 86.97543 99.42902
#
# Poissons Ratio (x) = 0.21336 0.17352
# Poissons Ratio (y) = 0.15665 0.27884
# Poissons Ratio (z) = 0.11144 0.24392
#
# Static dielectric constant tensor:
#      x y z
#    x 1.771710 0.000000 -0.020130 
#    y 0.000000 1.413830 0.000000 
#    z -0.020130 0.000000 1.786650 
# 
# From -- ./inp_files/89205.got.cif
#   From: 2010.05.17/outbox.cif.g08.bks.cpg/sg15_45_cif.got.tgz:89205.got - 2010.06.03 18:47:42.
