data_PCOD9291382
_publ_section_title
;
Structure prediction by ZEFSAII (Michael W. Deem and Ramdas Pophale) SiO2 
 PCOD9291382
Probable space group: C 2/C
;
_chemical_formula_sum "Si O2"
_cell_formula_units_Z 52
_cell_length_a 8.673122
_cell_length_b 30.975223
_cell_length_c 13.223234
_cell_angle_alpha 90.000000
_cell_angle_beta 37.155700
_cell_angle_gamma 90.000000
_cell_volume 2145.617721
_symmetry_space_group_name_H-M "C 2/C"
_symmetry_group_IT_number 15
_symmetry_cell_setting 'monoclinic'
loop_
_space_group_symop_operation_xyz
x,y,z
-x,y,1/2-z
-x,-y,-z
x,-y,1/2+z
1/2+x,1/2+y,z
1/2-x,1/2+y,1/2-z
1/2-x,1/2-y,-z
1/2+x,1/2-y,1/2+z
loop_
_atom_site_type_symbol
_atom_site_label
_atom_site_fract_x
_atom_site_fract_y
_atom_site_fract_z
Si Si1 0.179643 0.360004 0.496670
Si Si2 0.000000 0.655586 0.750000
Si Si3 0.486828 0.090676 0.919085
Si Si4 0.788728 0.201994 0.269349
Si Si5 0.962813 0.793526 0.081767
Si Si6 0.000000 0.956108 0.750000
Si Si7 0.500000 0.925144 0.750000
Si Si8 0.666978 0.001054 0.808162
O O1 0.367992 0.320646 0.427288
O O2 0.179542 0.392836 0.591767
O O3 0.194719 0.387565 0.385327
O O4 0.898079 0.338922 0.629918
O O5 0.124010 0.624072 0.603698
O O6 0.188378 0.684316 0.716199
O O7 0.618109 0.049288 0.797280
O O8 0.242297 0.073576 0.107251
O O9 0.600601 0.243592 0.367282
O O10 0.000000 0.203890 0.250000
O O11 0.920453 0.202359 0.091220
O O12 0.959623 0.989968 0.680268
O O13 0.600698 0.959658 0.777536
O O14 0.500000 0.000000 0.000000
#
# Coordination Sequence:
#
# PCOD9291382 Si02
#       8
#     8   4   8   8   8   4   4   8
#     4  12  26  44  80 109 147 189 256 309 366 443
#     4  12  29  48  73 110 150 190 252 307 369 444
#     4  11  26  49  69 112 145 193 252 303 371 438
#     4  12  26  48  76 106 149 196 245 303 375 450
#     4  12  28  49  72 111 148 194 243 307 381 438
#     4  10  22  42  77  92 143 197 240 295 362 438
#     4  12  21  44  70 108 145 187 240 308 355 436
#     4  10  22  42  67 102 144 185 240 296 366 427
#
# _framework density 24.235444999999999
#
# number of rings (size 3 to 8) (size 9 to 14) (size 15 to 20)
#    0.000    0.615    5.385    2.308    7.538    1.846 
#    0.000    3.846    0.000    0.000    0.000    0.000 
#    0.000    0.000    0.000    0.000    0.000    0.000 
#
# Total GULP energy -145207.097525 kJ/mol
# GULP energy per Si atom -5584.888366 kJ/mol
# Density = 2.418028 g / cm^3
# Si number density = 24.235445 Si / 1000 Ang^3
#
#
#
# Elastic Constant Matrix: (Units=GPa)
#
#
# Indices 1 2 3 4 5 6 
#
# 1 105.0647 43.2773 21.5912 0.0000 -8.2954 0.0000
# 2 43.2773 148.3982 24.5861 0.0000 -5.0001 0.0000
# 3 21.5912 24.5861 27.5176 0.0000 -0.3582 0.0000
# 4 0.0000 0.0000 0.0000 24.2838 0.0000 16.9423
# 5 -8.2954 -5.0001 -0.3582 0.0000 36.4407 0.0000
# 6 0.0000 0.0000 0.0000 16.9423 0.0000 57.3558
#
#
#
# Elastic Compliance Matrix: (Units=1/GPa)
#
#
# Indices 1 2 3 4 5 6 
#
# 1 0.012170 -0.002220 -0.007534 0.000000 0.002392 0.000000
# 2 -0.002220 0.008352 -0.005713 0.000000 0.000584 0.000000
# 3 -0.007534 -0.005713 0.047329 0.000000 -0.002034 0.000000
# 4 0.000000 0.000000 0.000000 0.051869 0.000000 -0.015322
# 5 0.002392 0.000584 -0.002034 0.000000 0.028046 0.000000
# 6 0.000000 0.000000 0.000000 -0.015322 0.000000 0.021961
#
#
# Mechanical properties :
#
#
# Convention : Reuss Voigt Hill
#
# Bulk Modulus (GPa) = 27.08742 51.09885 39.09314
# Shear Modulus (GPa) = 23.47780 36.38447 29.93113
#
# Velocity S-wave (km/s) = 3.11583 3.87885 3.51809
# Velocity P-wave (km/s) = 4.91382 6.41801 5.71561
#
# Compressibility (1/GPa) = 0.03691750
#
# Stress axis : x y z
#
# Youngs Moduli (GPa) = 82.17249 119.72770 21.12858
#
# Poissons Ratio (x) = 0.26583 0.15918
# Poissons Ratio (y) = 0.18244 0.12070
# Poissons Ratio (z) = 0.61907 0.68398
#
# Static dielectric constant tensor:
#      x y z
#    x 2.177560 0.000000 0.016150 
#    y 0.000000 1.969740 0.000000 
#    z 0.016150 0.000000 2.001610 
# 
# From -- ./inp_files/139750.got.cif
#   From: 2010.05.17/outbox.cif.g08.bks.cpg/sg15_70_cif.got.tgz:139750.got - 2010.06.03 18:47:42.
