data_PCOD9291310
_publ_section_title
;
Structure prediction by ZEFSAII (Michael W. Deem and Ramdas Pophale) SiO2 
 PCOD9291310
Probable space group: C 2/C
;
_chemical_formula_sum "Si O2"
_cell_formula_units_Z 36
_cell_length_a 5.908015
_cell_length_b 23.887472
_cell_length_c 10.264981
_cell_angle_alpha 90.000000
_cell_angle_beta 95.285240
_cell_angle_gamma 90.000000
_cell_volume 1442.512462
_symmetry_space_group_name_H-M "C 2/C"
_symmetry_group_IT_number 15
_symmetry_cell_setting 'monoclinic'
loop_
_space_group_symop_operation_xyz
x,y,z
-x,y,1/2-z
-x,-y,-z
x,-y,1/2+z
1/2+x,1/2+y,z
1/2-x,1/2+y,1/2-z
1/2-x,1/2-y,-z
1/2+x,1/2-y,1/2+z
loop_
_atom_site_type_symbol
_atom_site_label
_atom_site_fract_x
_atom_site_fract_y
_atom_site_fract_z
Si Si1 0.149547 0.886621 0.628963
Si Si2 0.552564 0.208841 0.437937
Si Si3 0.257571 0.872251 0.100828
Si Si4 0.500000 0.300801 0.250000
Si Si5 0.835647 0.992412 0.367467
O O1 0.317323 0.835342 0.643640
O O2 0.000000 0.887048 0.750000
O O3 0.980086 0.876123 0.496392
O O4 0.277347 0.946344 0.638204
O O5 0.750000 0.250000 0.500000
O O6 0.419312 0.169030 0.529594
O O7 0.415527 0.255788 0.353160
O O8 0.318038 0.937589 0.121083
O O9 0.203396 0.845357 0.239034
O O10 0.000000 0.984967 0.250000
O O11 0.000000 0.000000 0.500000
#
# Coordination Sequence:
#
# PCOD9291310 Si02
#       5
#     8   8   8   4   8
#     4  10  22  42  66  94 132 169 214 270 331 389
#     4  12  26  39  62  96 129 175 219 262 325 395
#     4  11  23  43  65  93 128 170 217 272 324 390
#     4  12  24  42  66  88 134 166 218 268 326 390
#     4   9  19  39  68  95 126 169 217 273 333 392
#
# _framework density 24.956454000000001
#
# number of rings (size 3 to 8) (size 9 to 14) (size 15 to 20)
#    0.000    1.333    3.333    2.000    3.111    0.889 
#    0.000    0.000    0.000    8.000    0.000    0.000 
#    0.000    0.000    0.000    0.000    0.000    0.000 
#
# Total GULP energy -100313.389668 kJ/mol
# GULP energy per Si atom -5572.966093 kJ/mol
# Density = 2.489965 g / cm^3
# Si number density = 24.956454 Si / 1000 Ang^3
#
#
#
# Elastic Constant Matrix: (Units=GPa)
#
#
# Indices 1 2 3 4 5 6 
#
# 1 39.6057 53.1744 15.3651 0.0000 6.5063 0.0000
# 2 53.1744 286.5643 36.5019 0.0000 -25.6169 0.0000
# 3 15.3651 36.5019 97.3199 0.0000 -3.2058 0.0000
# 4 0.0000 0.0000 0.0000 37.2017 0.0000 -13.8178
# 5 6.5063 -25.6169 -3.2058 0.0000 37.6744 0.0000
# 6 0.0000 0.0000 0.0000 -13.8178 0.0000 3.5566
#
#
#
# Elastic Compliance Matrix: (Units=1/GPa)
#
#
# Indices 1 2 3 4 5 6 
#
# 1 0.039428 -0.007973 -0.003648 0.000000 -0.012541 0.000000
# 2 -0.007973 0.005503 -0.000638 0.000000 0.005064 0.000000
# 3 -0.003648 -0.000638 0.011128 0.000000 0.001143 0.000000
# 4 0.000000 0.000000 0.000000 -0.060672 0.000000 -0.235719
# 5 -0.012541 0.005064 0.001143 0.000000 0.032250 0.000000
# 6 0.000000 0.000000 0.000000 -0.235719 0.000000 -0.634629
#
#
# Mechanical properties :
#
#
# Convention : Reuss Voigt Hill
#
# Bulk Modulus (GPa) = 31.70392 70.39696 51.05044
# Shear Modulus (GPa) = -8.74187 36.91644 14.08729
#
# Velocity S-wave (km/s) = -1.87362 3.85025 2.37845
# Velocity P-wave (km/s) = 2.83737 6.93074 5.29555
#
# Compressibility (1/GPa) = 0.03154184
#
# Stress axis : x y z
#
# Youngs Moduli (GPa) = 25.36257 181.71744 89.85988
#
# Poissons Ratio (x) = 1.44876 0.32779
# Poissons Ratio (y) = 0.20221 0.05737
# Poissons Ratio (z) = 0.09252 0.11602
#
# Static dielectric constant tensor:
#      x y z
#    x 2.271120 0.000000 0.168890 
#    y 0.000000 1.918990 0.000000 
#    z 0.168890 0.000000 2.132740 
# 
# From -- ./inp_files/72452.got.cif
#   From: 2010.05.17/outbox.cif.g08.bks.cpg/sg15_37_cif.got.tgz:72452.got - 2010.06.03 18:47:42.
