data_PCOD9291287
_publ_section_title
;
Structure prediction by ZEFSAII (Michael W. Deem and Ramdas Pophale) SiO2 
 PCOD9291287
Probable space group: C 2/C
;
_chemical_formula_sum "Si O2"
_cell_formula_units_Z 56
_cell_length_a 26.892456
_cell_length_b 5.248373
_cell_length_c 19.554623
_cell_angle_alpha 90.000000
_cell_angle_beta 58.701283
_cell_angle_gamma 90.000000
_cell_volume 2358.314177
_symmetry_space_group_name_H-M "C 2/C"
_symmetry_group_IT_number 15
_symmetry_cell_setting 'monoclinic'
loop_
_space_group_symop_operation_xyz
x,y,z
-x,y,1/2-z
-x,-y,-z
x,-y,1/2+z
1/2+x,1/2+y,z
1/2-x,1/2+y,1/2-z
1/2-x,1/2-y,-z
1/2+x,1/2-y,1/2+z
loop_
_atom_site_type_symbol
_atom_site_label
_atom_site_fract_x
_atom_site_fract_y
_atom_site_fract_z
Si Si1 0.371028 0.491961 0.096260
Si Si2 0.308190 0.496470 0.410671
Si Si3 0.067821 0.367492 0.520517
Si Si4 0.063354 0.386255 0.869946
Si Si5 0.740391 0.712002 0.292155
Si Si6 0.680700 0.845345 0.970339
Si Si7 0.156273 0.493403 0.689611
O O1 0.415591 0.574055 0.005529
O O2 0.407601 0.388389 0.133269
O O3 0.326671 0.723728 0.137954
O O4 0.328160 0.276193 0.098131
O O5 0.312124 0.600978 0.485025
O O6 0.238996 0.490622 0.441173
O O7 0.340822 0.236566 0.367889
O O8 0.335523 0.732070 0.349352
O O9 0.065121 0.478113 0.443907
O O10 0.120152 0.504312 0.522876
O O11 0.004676 0.384745 0.598665
O O12 0.102614 0.491416 0.780636
O O13 0.736180 0.493896 0.236892
O O14 0.786181 0.574476 0.308332
#
# Coordination Sequence:
#
# PCOD9291287 Si02
#       7
#     8   8   8   8   8   8   8
#     4  11  21  36  65  93 127 167 216 271 325 395
#     4  11  26  43  68  96 133 175 224 273 330 384
#     4  10  22  42  66  92 131 171 224 266 331 394
#     4  10  23  40  64  98 131 170 215 271 336 400
#     4  12  23  36  60  98 138 165 206 266 346 408
#     4  10  24  42  65  95 125 177 225 273 321 390
#     4  12  24  42  65  98 136 171 213 274 335 395
#
# _framework density 23.745774000000001
#
# number of rings (size 3 to 8) (size 9 to 14) (size 15 to 20)
#    0.000    1.143    2.857    3.000    6.000    1.143 
#    0.000    0.714    0.000    0.000    0.000    0.000 
#    0.000    0.000    0.000    0.000    0.000    0.000 
#
# Total GULP energy -156510.479068 kJ/mol
# GULP energy per Si atom -5589.659967 kJ/mol
# Density = 2.369173 g / cm^3
# Si number density = 23.745774 Si / 1000 Ang^3
#
#
#
# Elastic Constant Matrix: (Units=GPa)
#
#
# Indices 1 2 3 4 5 6 
#
# 1 113.0776 39.2761 54.3164 0.0015 -37.7303 -0.0065
# 2 39.2761 97.0723 36.2386 -0.0239 -7.4044 -0.1522
# 3 54.3164 36.2386 108.3026 -0.0245 -42.2186 0.0049
# 4 0.0015 -0.0239 -0.0245 40.0904 -0.0021 5.0304
# 5 -37.7303 -7.4044 -42.2186 -0.0021 43.8966 0.0098
# 6 -0.0065 -0.1522 0.0049 5.0304 0.0098 27.8271
#
#
#
# Elastic Compliance Matrix: (Units=1/GPa)
#
#
# Indices 1 2 3 4 5 6 
#
# 1 0.014652 -0.004425 -0.001999 -0.000001 0.009925 -0.000024
# 2 -0.004425 0.013341 -0.004560 -0.000004 -0.005939 0.000076
# 3 -0.001999 -0.004560 0.017265 0.000013 0.014118 -0.000036
# 4 -0.000001 -0.000004 0.000013 0.025523 0.000013 -0.004614
# 5 0.009925 -0.005939 0.014118 0.000013 0.043889 -0.000051
# 6 -0.000024 0.000076 -0.000036 -0.004614 -0.000051 0.036771
#
#
# Mechanical properties :
#
#
# Convention : Reuss Voigt Hill
#
# Bulk Modulus (GPa) = 42.93435 64.23496 53.58466
# Shear Modulus (GPa) = 27.59810 34.93759 31.26785
#
# Velocity S-wave (km/s) = 3.41285 3.83994 3.63268
# Velocity P-wave (km/s) = 5.80088 6.83886 6.34114
#
# Compressibility (1/GPa) = 0.02329137
#
# Stress axis : x y z
#
# Youngs Moduli (GPa) = 68.24824 74.95431 57.92066
#
# Poissons Ratio (x) = 0.33169 0.11576
# Poissons Ratio (y) = 0.30202 0.26411
# Poissons Ratio (z) = 0.13641 0.34178
#
# Static dielectric constant tensor:
#      x y z
#    x 1.880410 -0.000020 0.060070 
#    y -0.000020 2.033950 0.000010 
#    z 0.060070 0.000010 2.001770 
# 
# From -- ./inp_files/256487.got.cif
#   From: 2010.05.17/outbox.cif.g08.bks.cpg/sg15_129_cif.got.tgz:256487.got - 2010.06.03 18:47:42.
