data_PCOD9291070
_publ_section_title
;
Structure prediction by ZEFSAII (Michael W. Deem and Ramdas Pophale) SiO2 
 PCOD9291070
Probable space group: C 2/C
;
_chemical_formula_sum "Si O2"
_cell_formula_units_Z 52
_cell_length_a 11.121269
_cell_length_b 9.297367
_cell_length_c 23.444015
_cell_angle_alpha 90.000000
_cell_angle_beta 118.927688
_cell_angle_gamma 90.000000
_cell_volume 2121.626556
_symmetry_space_group_name_H-M "C 2/C"
_symmetry_group_IT_number 15
_symmetry_cell_setting 'monoclinic'
loop_
_space_group_symop_operation_xyz
x,y,z
-x,y,1/2-z
-x,-y,-z
x,-y,1/2+z
1/2+x,1/2+y,z
1/2-x,1/2+y,1/2-z
1/2-x,1/2-y,-z
1/2+x,1/2-y,1/2+z
loop_
_atom_site_type_symbol
_atom_site_label
_atom_site_fract_x
_atom_site_fract_y
_atom_site_fract_z
Si Si1 0.552918 0.026046 0.157402
Si Si2 0.669578 0.745298 0.892765
Si Si3 0.450375 0.458568 0.677640
Si Si4 0.552146 0.137483 0.546958
Si Si5 0.236834 0.916200 0.696811
Si Si6 0.750000 0.750000 0.500000
Si Si7 0.814191 0.667375 0.641364
O O1 0.446761 0.147668 0.110151
O O2 0.610822 0.935076 0.118266
O O3 0.665040 0.086315 0.226148
O O4 0.458279 0.916949 0.171705
O O5 0.607670 0.586396 0.873701
O O6 0.823274 0.725765 0.953123
O O7 0.701626 0.814637 0.837869
O O8 0.500000 0.516994 0.750000
O O9 0.581785 0.384586 0.678676
O O10 0.340429 0.332816 0.661293
O O11 0.417559 0.227065 0.531976
O O12 0.500000 0.000000 0.500000
O O13 0.231137 0.077074 0.668576
O O14 0.754203 0.667448 0.563836
#
# Coordination Sequence:
#
# PCOD9291070 Si02
#       7
#     8   8   8   8   8   4   8
#     4  10  22  42  66  94 129 168 212 264 325 391
#     4  11  24  41  64  95 127 164 215 269 321 384
#     4  12  24  37  63  99 127 163 216 263 321 395
#     4  11  24  43  64  90 130 172 213 270 327 382
#     4  11  23  43  67  93 132 171 208 268 334 389
#     4  10  22  42  64  88 122 168 218 262 316 388
#     4  10  22  42  64  91 128 169 213 265 325 387
#
# _framework density 24.509497
#
# number of rings (size 3 to 8) (size 9 to 14) (size 15 to 20)
#    0.000    1.231    0.000    7.385    0.000    6.769 
#    0.000   13.846    0.000    0.000    0.000    0.000 
#    0.000    0.000    0.000    0.000    0.000    0.000 
#
# Total GULP energy -145002.563570 kJ/mol
# GULP energy per Si atom -5577.021676 kJ/mol
# Density = 2.445371 g / cm^3
# Si number density = 24.509497 Si / 1000 Ang^3
#
#
#
# Elastic Constant Matrix: (Units=GPa)
#
#
# Indices 1 2 3 4 5 6 
#
# 1 79.1045 31.0922 23.2497 0.0000 18.3360 0.0000
# 2 31.0922 106.2809 16.8250 0.0000 26.1315 0.0000
# 3 23.2497 16.8250 70.3979 0.0000 13.6257 0.0000
# 4 0.0000 0.0000 0.0000 25.2573 0.0000 2.9783
# 5 18.3360 26.1315 13.6257 0.0000 34.0562 0.0000
# 6 0.0000 0.0000 0.0000 2.9783 0.0000 38.6645
#
#
#
# Elastic Compliance Matrix: (Units=1/GPa)
#
#
# Indices 1 2 3 4 5 6 
#
# 1 0.015990 -0.002888 -0.003635 0.000000 -0.004939 0.000000
# 2 -0.002888 0.012203 -0.000489 0.000000 -0.007613 0.000000
# 3 -0.003635 -0.000489 0.016336 0.000000 -0.004204 0.000000
# 4 0.000000 0.000000 0.000000 0.039955 0.000000 -0.003078
# 5 -0.004939 -0.007613 -0.004204 0.000000 0.039545 0.000000
# 6 0.000000 0.000000 0.000000 -0.003078 0.000000 0.026101
#
#
# Mechanical properties :
#
#
# Convention : Reuss Voigt Hill
#
# Bulk Modulus (GPa) = 32.78165 44.23525 38.50845
# Shear Modulus (GPa) = 28.68248 31.90336 30.29292
#
# Velocity S-wave (km/s) = 3.42462 3.61179 3.51945
# Velocity P-wave (km/s) = 5.38901 5.95657 5.67988
#
# Compressibility (1/GPa) = 0.03050487
#
# Stress axis : x y z
#
# Youngs Moduli (GPa) = 62.54031 81.94589 61.21492
#
# Poissons Ratio (x) = 0.23667 0.22249
# Poissons Ratio (y) = 0.18062 0.02995
# Poissons Ratio (z) = 0.22731 0.04009
#
# Static dielectric constant tensor:
#      x y z
#    x 1.754110 0.000000 -0.101090 
#    y 0.000000 1.928600 0.000000 
#    z -0.101090 0.000000 1.892390 
# 
# From -- ./inp_files/291683.got.cif
#   From: 2010.05.17/outbox.cif.g08.bks.cpg/sg15_146_cif.got.tgz:291683.got - 2010.06.03 18:47:42.
