data_PCOD9291475
_publ_section_title
;
Structure prediction by ZEFSAII (Michael W. Deem and Ramdas Pophale) SiO2 
 PCOD9291475
Probable space group: C 2/C
;
_chemical_formula_sum "Si O2"
_cell_formula_units_Z 56
_cell_length_a 9.382419
_cell_length_b 18.103042
_cell_length_c 30.372417
_cell_angle_alpha 90.000000
_cell_angle_beta 149.395095
_cell_angle_gamma 90.000000
_cell_volume 2626.405114
_symmetry_space_group_name_H-M "C 2/C"
_symmetry_group_IT_number 15
_symmetry_cell_setting 'monoclinic'
loop_
_space_group_symop_operation_xyz
x,y,z
-x,y,1/2-z
-x,-y,-z
x,-y,1/2+z
1/2+x,1/2+y,z
1/2-x,1/2+y,1/2-z
1/2-x,1/2-y,-z
1/2+x,1/2-y,1/2+z
loop_
_atom_site_type_symbol
_atom_site_label
_atom_site_fract_x
_atom_site_fract_y
_atom_site_fract_z
Si Si1 0.250475 0.608625 0.215877
Si Si2 0.380221 0.447784 0.267567
Si Si3 0.842187 0.067861 0.484031
Si Si4 0.322589 0.924873 0.459000
Si Si5 0.373057 0.140972 0.604989
Si Si6 0.720798 0.286948 0.697705
Si Si7 0.736841 0.832314 0.518558
O O1 0.500000 0.632825 0.250000
O O2 0.368328 0.535419 0.270652
O O3 0.195295 0.671506 0.236225
O O4 0.966250 0.583134 0.116713
O O5 0.500000 0.434277 0.250000
O O6 0.577666 0.416670 0.357822
O O7 0.068700 0.415067 0.183602
O O8 0.805139 0.064500 0.526570
O O9 0.050863 0.136148 0.531642
O O10 0.000000 0.000000 0.500000
O O11 0.532135 0.855933 0.504012
O O12 0.500000 0.000000 0.500000
O O13 0.508987 0.220261 0.649512
O O14 0.371238 0.121646 0.552259
O O15 0.551496 0.342066 0.620118
O O16 0.000000 0.256342 0.750000
O O17 0.750000 0.750000 0.500000
#
# Coordination Sequence:
#
# PCOD9291475 Si02
#       7
#     8   8   8   8   8   8   8
#     4  11  24  46  69  99 141 184 233 294 360 426
#     4  11  21  41  73 101 138 181 234 298 355 424
#     4  12  25  46  70 107 147 185 236 309 366 432
#     4  12  24  42  73 103 140 185 241 295 369 437
#     4  11  23  44  68 102 141 180 236 294 356 427
#     4  11  24  43  69  99 138 189 235 285 353 437
#     4  10  22  42  68 101 138 185 237 289 360 437
#
# _framework density 21.321919000000001
#
# number of rings (size 3 to 8) (size 9 to 14) (size 15 to 20)
#    0.000    0.857    2.857    5.571    2.000    1.714 
#    2.571    3.571    0.000    0.000    0.000    0.000 
#    0.000    0.000    0.000    0.000    0.000    0.000 
#
# Total GULP energy -156274.970253 kJ/mol
# GULP energy per Si atom -5581.248938 kJ/mol
# Density = 2.127339 g / cm^3
# Si number density = 21.321919 Si / 1000 Ang^3
#
#
#
# Elastic Constant Matrix: (Units=GPa)
#
#
# Indices 1 2 3 4 5 6 
#
# 1 123.9440 44.1235 41.2823 0.0005 5.2700 0.0000
# 2 44.1235 54.5131 16.1033 -0.0005 -3.3188 -0.0005
# 3 41.2823 16.1033 118.9178 0.0000 6.8389 -0.0018
# 4 0.0005 -0.0005 0.0000 32.7099 -0.0003 10.9352
# 5 5.2700 -3.3188 6.8389 -0.0003 34.7051 -0.0001
# 6 0.0000 -0.0005 -0.0018 10.9352 -0.0001 28.3958
#
#
#
# Elastic Compliance Matrix: (Units=1/GPa)
#
#
# Indices 1 2 3 4 5 6 
#
# 1 0.012473 -0.009363 -0.002935 0.000000 -0.002211 0.000000
# 2 -0.009363 0.026331 -0.000548 0.000001 0.004048 0.000000
# 3 -0.002935 -0.000548 0.009588 0.000000 -0.001496 0.000001
# 4 0.000000 0.000001 0.000000 0.035089 0.000000 -0.013513
# 5 -0.002211 0.004048 -0.001496 0.000000 0.029832 0.000000
# 6 0.000000 0.000000 0.000001 -0.013513 0.000000 0.040420
#
#
# Mechanical properties :
#
#
# Convention : Reuss Voigt Hill
#
# Bulk Modulus (GPa) = 44.05268 55.59925 49.82596
# Shear Modulus (GPa) = 26.73895 32.21990 29.47943
#
# Velocity S-wave (km/s) = 3.54511 3.89153 3.72235
# Velocity P-wave (km/s) = 6.12068 6.80622 6.47253
#
# Compressibility (1/GPa) = 0.02270010
#
# Stress axis : x y z
#
# Youngs Moduli (GPa) = 80.17283 37.97752 104.29417
#
# Poissons Ratio (x) = 0.35560 0.30609
# Poissons Ratio (y) = 0.75069 0.05715
# Poissons Ratio (z) = 0.23530 0.02081
#
# Static dielectric constant tensor:
#      x y z
#    x 1.808800 0.000000 -0.001160 
#    y 0.000000 1.864530 0.000000 
#    z -0.001160 0.000000 1.804470 
# 
# From -- ./inp_files/191019.got.cif
#   From: 2010.05.17/outbox.cif.g08.bks.cpg/sg15_96_cif.got.tgz:191019.got - 2010.06.03 18:47:42.
