data_PCOD9291597
_publ_section_title
;
Structure prediction by ZEFSAII (Michael W. Deem and Ramdas Pophale) SiO2 
 PCOD9291597
Probable space group: C 2/C
;
_chemical_formula_sum "Si O2"
_cell_formula_units_Z 40
_cell_length_a 4.990033
_cell_length_b 24.699933
_cell_length_c 13.345926
_cell_angle_alpha 90.000000
_cell_angle_beta 89.410439
_cell_angle_gamma 90.000000
_cell_volume 1644.844752
_symmetry_space_group_name_H-M "C 2/C"
_symmetry_group_IT_number 15
_symmetry_cell_setting 'monoclinic'
loop_
_space_group_symop_operation_xyz
x,y,z
-x,y,1/2-z
-x,-y,-z
x,-y,1/2+z
1/2+x,1/2+y,z
1/2-x,1/2+y,1/2-z
1/2-x,1/2-y,-z
1/2+x,1/2-y,1/2+z
loop_
_atom_site_type_symbol
_atom_site_label
_atom_site_fract_x
_atom_site_fract_y
_atom_site_fract_z
Si Si1 0.147589 0.189779 0.532678
Si Si2 0.500000 0.089897 0.250000
Si Si3 0.159046 0.028523 0.108193
Si Si4 0.165232 0.427943 0.492581
Si Si5 0.301301 0.675547 0.337941
Si Si6 0.500000 0.725492 0.750000
O O1 0.250000 0.250000 0.500000
O O2 0.323835 0.135483 0.528307
O O3 0.077874 0.193899 0.650167
O O4 0.923835 0.179254 0.447377
O O5 0.274226 0.049326 0.211706
O O6 0.544128 0.136048 0.336109
O O7 0.204391 0.964422 0.096698
O O8 0.369647 0.051670 0.023243
O O9 0.871911 0.053678 0.080742
O O10 0.500000 0.653273 0.250000
O O11 0.220686 0.733532 0.294807
#
# Coordination Sequence:
#
# PCOD9291597 Si02
#       6
#     8   4   8   8   8   4
#     4  12  24  44  69 101 147 189 241 302 366 447
#     4  11  22  36  70 104 128 178 243 292 350 420
#     4  10  22  42  69 101 139 175 242 294 359 421
#     4  10  23  44  67  99 137 189 224 299 362 426
#     4  11  22  41  65 100 136 183 246 293 353 431
#     4  11  26  40  64 100 136 196 231 292 376 434
#
# _framework density 24.318403
#
# number of rings (size 3 to 8) (size 9 to 14) (size 15 to 20)
#    0.000    1.200    4.000    1.800    2.800    1.600 
#    0.000    8.000    0.000    0.000    0.000    0.000 
#    0.000    0.000    0.000    0.000    0.000    0.000 
#
# Total GULP energy -111486.529910 kJ/mol
# GULP energy per Si atom -5574.326496 kJ/mol
# Density = 2.426305 g / cm^3
# Si number density = 24.318403 Si / 1000 Ang^3
#
#
#
# Elastic Constant Matrix: (Units=GPa)
#
#
# Indices 1 2 3 4 5 6 
#
# 1 78.9962 20.2409 31.9896 0.0000 5.4560 0.0000
# 2 20.2409 158.6295 48.1591 0.0000 -9.9280 0.0000
# 3 31.9896 48.1591 188.9067 0.0000 -6.9373 0.0000
# 4 0.0000 0.0000 0.0000 30.8315 0.0000 8.9970
# 5 5.4560 -9.9280 -6.9373 0.0000 43.5986 0.0000
# 6 0.0000 0.0000 0.0000 8.9970 0.0000 16.8554
#
#
#
# Elastic Compliance Matrix: (Units=1/GPa)
#
#
# Indices 1 2 3 4 5 6 
#
# 1 0.014018 -0.001291 -0.002132 0.000000 -0.002387 0.000000
# 2 -0.001291 0.007024 -0.001516 0.000000 0.001520 0.000000
# 3 -0.002132 -0.001516 0.006074 0.000000 0.000888 0.000000
# 4 0.000000 0.000000 0.000000 0.038418 0.000000 -0.020507
# 5 -0.002387 0.001520 0.000888 0.000000 0.023723 0.000000
# 6 0.000000 0.000000 0.000000 -0.020507 0.000000 0.070274
#
#
# Mechanical properties :
#
#
# Convention : Reuss Voigt Hill
#
# Bulk Modulus (GPa) = 58.01440 69.70127 63.85784
# Shear Modulus (GPa) = 28.54595 39.99996 34.27295
#
# Velocity S-wave (km/s) = 3.42985 4.06007 3.75819
# Velocity P-wave (km/s) = 6.29231 7.12061 6.71923
#
# Compressibility (1/GPa) = 0.01723710
#
# Stress axis : x y z
#
# Youngs Moduli (GPa) = 71.33694 142.36591 164.63870
#
# Poissons Ratio (x) = 0.18375 0.35108
# Poissons Ratio (y) = 0.09207 0.24965
# Poissons Ratio (z) = 0.15212 0.21587
#
# Static dielectric constant tensor:
#      x y z
#    x 1.127270 0.000000 0.469920 
#    y 0.000000 1.990420 0.000000 
#    z 0.469920 0.000000 1.669250 
# 
# From -- ./inp_files/129190.got.cif
#   From: 2010.05.17/outbox.cif.g08.bks.cpg/sg15_65_cif.got.tgz:129190.got - 2010.06.03 18:47:42.
