data_PCOD9291870
_publ_section_title
;
Structure prediction by ZEFSAII (Michael W. Deem and Ramdas Pophale) SiO2 
 PCOD9291870
Probable space group: C 2/C
;
_chemical_formula_sum "Si O2"
_cell_formula_units_Z 44
_cell_length_a 12.036443
_cell_length_b 25.653010
_cell_length_c 10.460415
_cell_angle_alpha 90.000000
_cell_angle_beta 146.305368
_cell_angle_gamma 90.000000
_cell_volume 1791.825121
_symmetry_space_group_name_H-M "C 2/C"
_symmetry_group_IT_number 15
_symmetry_cell_setting 'monoclinic'
loop_
_space_group_symop_operation_xyz
x,y,z
-x,y,1/2-z
-x,-y,-z
x,-y,1/2+z
1/2+x,1/2+y,z
1/2-x,1/2+y,1/2-z
1/2-x,1/2-y,-z
1/2+x,1/2-y,1/2+z
loop_
_atom_site_type_symbol
_atom_site_label
_atom_site_fract_x
_atom_site_fract_y
_atom_site_fract_z
Si Si1 0.000000 0.342031 0.250000
Si Si2 0.877525 0.767198 0.029986
Si Si3 0.364948 0.696159 0.243761
Si Si4 0.661757 0.080056 0.698218
Si Si5 0.662962 0.030761 0.292742
Si Si6 0.043353 0.880242 0.457964
O O1 0.144855 0.308646 0.476660
O O2 0.121525 0.379719 0.272027
O O3 0.630227 0.747368 0.809976
O O4 0.888611 0.763404 0.884122
O O5 0.868013 0.830307 0.029873
O O6 0.500000 0.704173 0.250000
O O7 0.412412 0.639666 0.354703
O O8 0.459950 0.059737 0.437944
O O9 0.808070 0.107887 0.737854
O O10 0.746322 0.025727 0.833850
O O11 0.500000 0.024828 0.250000
O O12 0.844882 0.069643 0.486708
#
# Coordination Sequence:
#
# PCOD9291870 Si02
#       6
#     4   8   8   8   8   8
#     4  12  18  42  68 100 142 192 244 302 354 438
#     4  10  24  49  73 104 140 179 238 313 388 450
#     4  10  22  42  74 103 138 191 247 299 374 452
#     4  11  22  38  62  96 148 192 241 303 344 431
#     4  11  24  37  59 102 145 198 248 291 360 428
#     4  10  23  42  68  98 138 195 242 298 370 434
#
# _framework density 24.555966999999999
#
# number of rings (size 3 to 8) (size 9 to 14) (size 15 to 20)
#    1.091    0.364    4.545    0.545    2.545    0.727 
#    6.545    0.909    0.000    0.000    0.000    0.000 
#    0.000    0.000    0.000    0.000    0.000    0.000 
#
# Total GULP energy -122720.617617 kJ/mol
# GULP energy per Si atom -5578.209892 kJ/mol
# Density = 2.450008 g / cm^3
# Si number density = 24.555967 Si / 1000 Ang^3
#
#
#
# Elastic Constant Matrix: (Units=GPa)
#
#
# Indices 1 2 3 4 5 6 
#
# 1 198.8364 63.4999 59.8153 0.0000 0.5313 0.0000
# 2 63.4999 122.2964 51.8641 0.0000 19.4407 0.0000
# 3 59.8153 51.8641 129.1966 0.0000 -17.5498 0.0000
# 4 0.0000 0.0000 0.0000 28.2250 0.0000 6.1160
# 5 0.5313 19.4407 -17.5498 0.0000 53.0173 0.0000
# 6 0.0000 0.0000 0.0000 6.1160 0.0000 50.4932
#
#
#
# Elastic Compliance Matrix: (Units=1/GPa)
#
#
# Indices 1 2 3 4 5 6 
#
# 1 0.006422 -0.002562 -0.001912 0.000000 0.000242 0.000000
# 2 -0.002562 0.012435 -0.004630 0.000000 -0.006067 0.000000
# 3 -0.001912 -0.004630 0.011222 0.000000 0.005431 0.000000
# 4 0.000000 0.000000 0.000000 0.036385 0.000000 -0.004407
# 5 0.000242 -0.006067 0.005431 0.000000 0.022882 0.000000
# 6 0.000000 0.000000 0.000000 -0.004407 0.000000 0.020338
#
#
# Mechanical properties :
#
#
# Convention : Reuss Voigt Hill
#
# Bulk Modulus (GPa) = 84.23744 88.96531 86.60137
# Shear Modulus (GPa) = 37.92254 44.69042 41.30648
#
# Velocity S-wave (km/s) = 3.93406 4.27071 4.10583
# Velocity P-wave (km/s) = 7.41718 7.78632 7.60399
#
# Compressibility (1/GPa) = 0.01187121
#
# Stress axis : x y z
#
# Youngs Moduli (GPa) = 155.71481 80.41830 89.11448
#
# Poissons Ratio (x) = 0.20605 0.17036
# Poissons Ratio (y) = 0.39898 0.41257
# Poissons Ratio (z) = 0.29769 0.37231
#
# Static dielectric constant tensor:
#      x y z
#    x 1.990640 0.000000 -0.069120 
#    y 0.000000 1.902690 0.000000 
#    z -0.069120 0.000000 2.049670 
# 
# From -- ./inp_files/157556.got.cif
#   From: 2010.05.17/outbox.cif.g08.bks.cpg/sg15_79_cif.got.tgz:157556.got - 2010.06.03 18:47:42.
