data_PCOD9291496
_publ_section_title
;
Structure prediction by ZEFSAII (Michael W. Deem and Ramdas Pophale) SiO2 
 PCOD9291496
Probable space group: C 2/C
;
_chemical_formula_sum "Si O2"
_cell_formula_units_Z 48
_cell_length_a 7.477139
_cell_length_b 12.236337
_cell_length_c 25.125847
_cell_angle_alpha 90.000000
_cell_angle_beta 120.321463
_cell_angle_gamma 90.000000
_cell_volume 1984.368358
_symmetry_space_group_name_H-M "C 2/C"
_symmetry_group_IT_number 15
_symmetry_cell_setting 'monoclinic'
loop_
_space_group_symop_operation_xyz
x,y,z
-x,y,1/2-z
-x,-y,-z
x,-y,1/2+z
1/2+x,1/2+y,z
1/2-x,1/2+y,1/2-z
1/2-x,1/2-y,-z
1/2+x,1/2-y,1/2+z
loop_
_atom_site_type_symbol
_atom_site_label
_atom_site_fract_x
_atom_site_fract_y
_atom_site_fract_z
Si Si1 0.622527 0.284286 0.141847
Si Si2 0.246616 0.140001 0.770894
Si Si3 0.950691 0.553594 0.936085
Si Si4 0.166211 0.773431 0.616133
Si Si5 0.195393 0.942589 0.818322
Si Si6 0.653299 0.490940 0.072290
O O1 0.750657 0.333087 0.210439
O O2 0.397801 0.247255 0.129029
O O3 0.729842 0.169917 0.145814
O O4 0.617560 0.376683 0.096727
O O5 0.343868 0.228836 0.824924
O O6 0.000000 0.137587 0.750000
O O7 0.324394 0.018172 0.795545
O O8 0.965557 0.685505 0.937827
O O9 0.727695 0.522211 0.875218
O O10 0.121729 0.509033 0.921097
O O11 0.000000 0.500000 0.000000
O O12 0.121035 0.900678 0.602983
O O13 0.000000 0.918308 0.750000
O O14 0.500000 0.500000 0.000000
#
# Coordination Sequence:
#
# PCOD9291496 Si02
#       6
#     8   8   8   8   8   8
#     4  11  23  44  72 101 146 185 241 304 363 437
#     4   8  19  40  66  98 132 194 225 283 373 423
#     4  11  25  49  76 103 147 201 243 301 377 438
#     4  10  23  48  70  99 149 186 236 301 365 432
#     4  10  22  42  68 105 143 185 243 299 366 436
#     4  12  28  45  72 113 141 194 254 301 364 438
#
# _framework density 24.189057999999999
#
# number of rings (size 3 to 8) (size 9 to 14) (size 15 to 20)
#    0.000    1.667    1.667    2.000    4.667    4.667 
#    9.000    0.000    0.000    0.000    0.000    0.000 
#    0.000    0.000    0.000    0.000    0.000    0.000 
#
# Total GULP energy -133954.848652 kJ/mol
# GULP energy per Si atom -5581.452027 kJ/mol
# Density = 2.413400 g / cm^3
# Si number density = 24.189058 Si / 1000 Ang^3
#
#
#
# Elastic Constant Matrix: (Units=GPa)
#
#
# Indices 1 2 3 4 5 6 
#
# 1 52.5511 12.0760 14.4074 0.0000 7.7795 0.0000
# 2 12.0760 185.7884 34.6817 0.0000 1.1517 0.0000
# 3 14.4074 34.6817 98.6197 0.0000 14.8148 0.0000
# 4 0.0000 0.0000 0.0000 29.7933 0.0000 10.0616
# 5 7.7795 1.1517 14.8148 0.0000 30.3134 0.0000
# 6 0.0000 0.0000 0.0000 10.0616 0.0000 17.2205
#
#
#
# Elastic Compliance Matrix: (Units=1/GPa)
#
#
# Indices 1 2 3 4 5 6 
#
# 1 0.020421 -0.000923 -0.002025 0.000000 -0.004216 0.000000
# 2 -0.000923 0.005822 -0.002067 0.000000 0.001026 0.000000
# 3 -0.002025 -0.002067 0.011950 0.000000 -0.005242 0.000000
# 4 0.000000 0.000000 0.000000 0.041816 0.000000 -0.024432
# 5 -0.004216 0.001026 -0.005242 0.000000 0.036594 0.000000
# 6 0.000000 0.000000 0.000000 -0.024432 0.000000 0.072346
#
#
# Mechanical properties :
#
#
# Convention : Reuss Voigt Hill
#
# Bulk Modulus (GPa) = 35.50827 51.03213 43.27020
# Shear Modulus (GPa) = 23.99638 33.85170 28.92404
#
# Velocity S-wave (km/s) = 3.15308 3.74500 3.46171
# Velocity P-wave (km/s) = 5.28840 6.31213 5.82281
#
# Compressibility (1/GPa) = 0.02816246
#
# Stress axis : x y z
#
# Youngs Moduli (GPa) = 48.97018 171.76547 83.68155
#
# Poissons Ratio (x) = 0.15856 0.16948
# Poissons Ratio (y) = 0.04520 0.17294
# Poissons Ratio (z) = 0.09918 0.35497
#
# Static dielectric constant tensor:
#      x y z
#    x 2.092870 0.000000 0.097560 
#    y 0.000000 1.569670 0.000000 
#    z 0.097560 0.000000 1.953900 
# 
# From -- ./inp_files/263557.got.cif
#   From: 2010.05.17/outbox.cif.g08.bks.cpg/sg15_132_cif.got.tgz:263557.got - 2010.06.03 18:47:42.
