data_PCOD9291063
_publ_section_title
;
Structure prediction by ZEFSAII (Michael W. Deem and Ramdas Pophale) SiO2 
 PCOD9291063
Probable space group: C 2/C
;
_chemical_formula_sum "Si O2"
_cell_formula_units_Z 44
_cell_length_a 21.766211
_cell_length_b 8.960996
_cell_length_c 13.479715
_cell_angle_alpha 90.000000
_cell_angle_beta 46.817724
_cell_angle_gamma 90.000000
_cell_volume 1917.144227
_symmetry_space_group_name_H-M "C 2/C"
_symmetry_group_IT_number 15
_symmetry_cell_setting 'monoclinic'
loop_
_space_group_symop_operation_xyz
x,y,z
-x,y,1/2-z
-x,-y,-z
x,-y,1/2+z
1/2+x,1/2+y,z
1/2-x,1/2+y,1/2-z
1/2-x,1/2-y,-z
1/2+x,1/2-y,1/2+z
loop_
_atom_site_type_symbol
_atom_site_label
_atom_site_fract_x
_atom_site_fract_y
_atom_site_fract_z
Si Si1 0.874080 0.878841 0.787318
Si Si2 0.505742 0.355253 0.362976
Si Si3 0.500000 0.839774 0.250000
Si Si4 0.851545 0.691179 0.628308
Si Si5 0.422029 0.042561 0.198261
Si Si6 0.273771 0.090273 0.515177
O O1 0.922258 0.768553 0.809261
O O2 0.826805 0.787641 0.752581
O O3 0.948044 0.989142 0.663918
O O4 0.804180 0.980582 0.914358
O O5 0.500000 0.349849 0.250000
O O6 0.414685 0.306585 0.503517
O O7 0.561604 0.215702 0.337861
O O8 0.501809 0.953249 0.155456
O O9 0.894529 0.549851 0.633967
O O10 0.791412 0.622135 0.611715
O O11 0.353092 0.036054 0.362942
O O12 0.250000 0.250000 0.500000
#
# Coordination Sequence:
#
# PCOD9291063 Si02
#       6
#     8   8   4   8   8   8
#     4  11  25  42  72 106 140 186 233 298 345 425
#     4  12  20  44  71  98 141 187 235 282 353 420
#     4  10  22  42  64 108 138 176 236 282 350 398
#     4  11  26  42  68 105 138 181 245 287 352 421
#     4  11  23  44  73 101 140 189 230 294 349 427
#     4  12  25  47  72 101 144 190 230 291 364 420
#
# _framework density 22.950803000000001
#
# number of rings (size 3 to 8) (size 9 to 14) (size 15 to 20)
#    0.000    0.727    5.455    1.091    2.545    4.364 
#    0.000    1.818    0.000    0.000    0.000    0.000 
#    0.000    0.000    0.000    0.000    0.000    0.000 
#
# Total GULP energy -122878.883086 kJ/mol
# GULP energy per Si atom -5585.403777 kJ/mol
# Density = 2.289857 g / cm^3
# Si number density = 22.950803 Si / 1000 Ang^3
#
#
#
# Elastic Constant Matrix: (Units=GPa)
#
#
# Indices 1 2 3 4 5 6 
#
# 1 110.1585 35.4344 11.5817 0.0000 30.5425 0.0000
# 2 35.4344 121.1728 11.1723 -0.0002 8.1931 0.0001
# 3 11.5817 11.1723 54.2640 0.0000 -3.2832 0.0000
# 4 0.0000 -0.0002 0.0000 26.5985 0.0000 -1.7046
# 5 30.5425 8.1931 -3.2832 0.0000 36.1598 0.0000
# 6 0.0000 0.0001 0.0000 -1.7046 0.0000 29.1543
#
#
#
# Elastic Compliance Matrix: (Units=1/GPa)
#
#
# Indices 1 2 3 4 5 6 
#
# 1 0.013327 -0.002895 -0.002906 0.000000 -0.010864 0.000000
# 2 -0.002895 0.009199 -0.001261 0.000000 0.000246 0.000000
# 3 -0.002906 -0.001261 0.019582 0.000000 0.004518 0.000000
# 4 0.000000 0.000000 0.000000 0.037738 0.000000 0.002206
# 5 -0.010864 0.000246 0.004518 0.000000 0.037186 0.000000
# 6 0.000000 0.000000 0.000000 0.002206 0.000000 0.034429
#
#
# Mechanical properties :
#
#
# Convention : Reuss Voigt Hill
#
# Bulk Modulus (GPa) = 35.73468 44.66356 40.19912
# Shear Modulus (GPa) = 28.58594 33.54297 31.06445
#
# Velocity S-wave (km/s) = 3.53304 3.82713 3.68302
# Velocity P-wave (km/s) = 5.67865 6.24756 5.96989
#
# Compressibility (1/GPa) = 0.02798402
#
# Stress axis : x y z
#
# Youngs Moduli (GPa) = 75.03739 108.71003 51.06827
#
# Poissons Ratio (x) = 0.31467 0.14839
# Poissons Ratio (y) = 0.21720 0.06441
# Poissons Ratio (z) = 0.21804 0.13711
#
# Static dielectric constant tensor:
#      x y z
#    x 1.875110 0.000000 -0.028650 
#    y 0.000000 1.851040 0.000000 
#    z -0.028650 0.000000 1.939040 
# 
# From -- ./inp_files/116665.got.cif
#   From: 2010.05.17/outbox.cif.g08.bks.cpg/sg15_59_cif.got.tgz:116665.got - 2010.06.03 18:47:42.
