data_PCOD9291699
_publ_section_title
;
Structure prediction by ZEFSAII (Michael W. Deem and Ramdas Pophale) SiO2 
 PCOD9291699
Probable space group: C 2/C
;
_chemical_formula_sum "Si O2"
_cell_formula_units_Z 36
_cell_length_a 23.271253
_cell_length_b 4.545543
_cell_length_c 11.795637
_cell_angle_alpha 90.000000
_cell_angle_beta 99.523502
_cell_angle_gamma 90.000000
_cell_volume 1230.551466
_symmetry_space_group_name_H-M "C 2/C"
_symmetry_group_IT_number 15
_symmetry_cell_setting 'monoclinic'
loop_
_space_group_symop_operation_xyz
x,y,z
-x,y,1/2-z
-x,-y,-z
x,-y,1/2+z
1/2+x,1/2+y,z
1/2-x,1/2+y,1/2-z
1/2-x,1/2-y,-z
1/2+x,1/2-y,1/2+z
loop_
_atom_site_type_symbol
_atom_site_label
_atom_site_fract_x
_atom_site_fract_y
_atom_site_fract_z
Si Si1 0.952722 0.730883 0.431950
Si Si2 0.500000 0.356847 0.750000
Si Si3 0.198796 0.613468 0.558316
Si Si4 0.114955 0.204298 0.382976
Si Si5 0.665249 0.663739 0.697025
O O1 0.923047 0.919536 0.524016
O O2 0.891227 0.636018 0.355201
O O3 0.000000 0.500000 0.500000
O O4 0.979408 0.935652 0.345104
O O5 0.442239 0.174027 0.701703
O O6 0.250000 0.750000 0.500000
O O7 0.158912 0.435219 0.454009
O O8 0.215227 0.386817 0.667049
O O9 0.172941 0.889490 0.616256
O O10 0.149099 0.978420 0.313214
#
# Coordination Sequence:
#
# PCOD9291699 Si02
#       5
#     8   4   8   8   8
#     4  10  23  42  71 111 160 212 265 328 399 487
#     4  10  22  42  70 114 162 216 268 322 404 488
#     4  11  25  51  84 119 157 209 277 352 420 492
#     4  10  24  45  74 114 161 211 266 335 408 491
#     4  10  25  48  77 115 158 209 271 338 420 496
#
# _framework density 29.255175999999999
#
# number of rings (size 3 to 8) (size 9 to 14) (size 15 to 20)
#    0.000    1.778    0.000    1.333    0.000   24.000 
#    0.000    6.667    0.000    6.667    0.000    7.778 
#    0.000    0.000    0.000    0.000    0.000    0.000 
#
# Total GULP energy -100430.158024 kJ/mol
# GULP energy per Si atom -5579.453224 kJ/mol
# Density = 2.918859 g / cm^3
# Si number density = 29.255176 Si / 1000 Ang^3
#
#
#
# Elastic Constant Matrix: (Units=GPa)
#
#
# Indices 1 2 3 4 5 6 
#
# 1 159.6285 68.4063 119.3294 0.0000 -33.6278 0.0000
# 2 68.4063 148.1403 89.8704 0.0000 -30.3854 0.0000
# 3 119.3294 89.8704 184.4524 0.0000 -62.3646 0.0000
# 4 0.0000 0.0000 0.0000 89.4522 0.0000 0.7906
# 5 -33.6278 -30.3854 -62.3646 0.0000 95.9603 0.0000
# 6 0.0000 0.0000 0.0000 0.7906 0.0000 30.4759
#
#
#
# Elastic Compliance Matrix: (Units=1/GPa)
#
#
# Indices 1 2 3 4 5 6 
#
# 1 0.012374 -0.001217 -0.007787 0.000000 -0.001110 0.000000
# 2 -0.001217 0.009703 -0.003903 0.000000 0.000109 0.000000
# 3 -0.007787 -0.003903 0.014124 0.000000 0.005214 0.000000
# 4 0.000000 0.000000 0.000000 0.011182 0.000000 -0.000290
# 5 -0.001110 0.000109 0.005214 0.000000 0.013455 0.000000
# 6 0.000000 0.000000 0.000000 -0.000290 0.000000 0.032820
#
#
# Mechanical properties :
#
#
# Convention : Reuss Voigt Hill
#
# Bulk Modulus (GPa) = 96.29066 116.38147 106.33607
# Shear Modulus (GPa) = 40.67211 57.48537 49.07874
#
# Velocity S-wave (km/s) = 3.73266 4.43760 4.10031
# Velocity P-wave (km/s) = 7.18070 8.13168 7.67094
#
# Compressibility (1/GPa) = 0.01038522
#
# Stress axis : x y z
#
# Youngs Moduli (GPa) = 80.81705 103.06498 70.80135
#
# Poissons Ratio (x) = 0.12545 0.55135
# Poissons Ratio (y) = 0.09837 0.27634
# Poissons Ratio (z) = 0.62935 0.40226
#
# Static dielectric constant tensor:
#      x y z
#    x 2.406400 0.000000 0.171810 
#    y 0.000000 2.205360 0.000000 
#    z 0.171810 0.000000 2.555150 
# 
# From -- ./inp_files/115684.got.cif
#   From: 2010.05.17/outbox.cif.g08.bks.cpg/sg15_58_cif.got.tgz:115684.got - 2010.06.03 18:47:42.
