data_PCOD9291625
_publ_section_title
;
Structure prediction by ZEFSAII (Michael W. Deem and Ramdas Pophale) SiO2 
 PCOD9291625
Probable space group: C 2/C
;
_chemical_formula_sum "Si O2"
_cell_formula_units_Z 56
_cell_length_a 8.869011
_cell_length_b 16.423287
_cell_length_c 21.309908
_cell_angle_alpha 90.000000
_cell_angle_beta 123.088635
_cell_angle_gamma 90.000000
_cell_volume 2600.585966
_symmetry_space_group_name_H-M "C 2/C"
_symmetry_group_IT_number 15
_symmetry_cell_setting 'monoclinic'
loop_
_space_group_symop_operation_xyz
x,y,z
-x,y,1/2-z
-x,-y,-z
x,-y,1/2+z
1/2+x,1/2+y,z
1/2-x,1/2+y,1/2-z
1/2-x,1/2-y,-z
1/2+x,1/2-y,1/2+z
loop_
_atom_site_type_symbol
_atom_site_label
_atom_site_fract_x
_atom_site_fract_y
_atom_site_fract_z
Si Si1 0.074772 0.891560 0.573857
Si Si2 0.218221 0.259342 0.303743
Si Si3 0.829933 0.909426 0.759213
Si Si4 0.738666 0.008996 0.485690
Si Si5 0.603905 0.756361 0.521561
Si Si6 0.601397 0.907921 0.064980
Si Si7 0.700104 0.595008 0.768243
O O1 0.112115 0.890787 0.656150
O O2 0.221301 0.941442 0.567780
O O3 0.051664 0.805768 0.534289
O O4 0.883454 0.936928 0.520514
O O5 0.275726 0.171454 0.287642
O O6 0.295735 0.262403 0.391292
O O7 0.285997 0.339242 0.283248
O O8 0.000000 0.261603 0.250000
O O9 0.000000 0.912944 0.750000
O O10 0.749955 0.001266 0.738370
O O11 0.757556 0.059419 0.554853
O O12 0.535899 0.977700 0.443990
O O13 0.750000 0.750000 0.500000
O O14 0.516369 0.844926 0.501110
O O15 0.677726 0.873193 0.146641
O O16 0.500000 0.592183 0.750000
#
# Coordination Sequence:
#
# PCOD9291625 Si02
#       7
#     8   8   8   8   8   8   8
#     4  11  23  42  69 100 132 178 229 282 334 408
#     4  11  26  44  66 100 134 177 234 280 337 411
#     4  10  22  42  69  93 135 180 222 269 349 409
#     4  10  24  39  70  99 133 165 237 277 334 403
#     4  12  24  42  70  98 139 181 225 283 341 410
#     4  11  24  44  69  97 136 181 226 279 348 411
#     4  11  25  44  71  96 137 178 223 281 355 404
#
# _framework density 21.533608000000001
#
# number of rings (size 3 to 8) (size 9 to 14) (size 15 to 20)
#    0.000    1.143    1.429    5.143   10.000    0.571 
#    2.571    0.714    0.000    0.000    0.000    0.000 
#    0.000    0.000    0.000    0.000    0.000    0.000 
#
# Total GULP energy -156425.996966 kJ/mol
# GULP energy per Si atom -5586.642749 kJ/mol
# Density = 2.148460 g / cm^3
# Si number density = 21.533608 Si / 1000 Ang^3
#
#
#
# Elastic Constant Matrix: (Units=GPa)
#
#
# Indices 1 2 3 4 5 6 
#
# 1 56.8858 36.3417 25.9045 0.0000 -17.1777 0.0000
# 2 36.3417 131.5518 36.2959 0.0000 -23.7274 0.0000
# 3 25.9045 36.2959 165.1865 0.0000 -38.5777 0.0000
# 4 0.0000 0.0000 0.0000 34.6024 0.0000 -3.0685
# 5 -17.1777 -23.7274 -38.5777 0.0000 27.7694 0.0000
# 6 0.0000 0.0000 0.0000 -3.0685 0.0000 16.6620
#
#
#
# Elastic Compliance Matrix: (Units=1/GPa)
#
#
# Indices 1 2 3 4 5 6 
#
# 1 0.023795 -0.004624 -0.000297 0.000000 0.010356 0.000000
# 2 -0.004624 0.009893 -0.000211 0.000000 0.005300 0.000000
# 3 -0.000297 -0.000211 0.008973 0.000000 0.012101 0.000000
# 4 0.000000 0.000000 0.000000 0.029380 0.000000 0.005411
# 5 0.010356 0.005300 0.012101 0.000000 0.063757 0.000000
# 6 0.000000 0.000000 0.000000 0.005411 0.000000 0.061013
#
#
# Mechanical properties :
#
#
# Convention : Reuss Voigt Hill
#
# Bulk Modulus (GPa) = 30.86634 61.18981 46.02808
# Shear Modulus (GPa) = 22.94912 32.81223 27.88068
#
# Velocity S-wave (km/s) = 3.26810 3.90778 3.60217
# Velocity P-wave (km/s) = 5.34844 6.98847 6.22272
#
# Compressibility (1/GPa) = 0.03239775
#
# Stress axis : x y z
#
# Youngs Moduli (GPa) = 42.02479 101.08166 111.44773
#
# Poissons Ratio (x) = 0.46738 0.03311
# Poissons Ratio (y) = 0.19431 0.02351
# Poissons Ratio (z) = 0.01248 0.02132
#
# Static dielectric constant tensor:
#      x y z
#    x 1.756910 0.000000 0.013790 
#    y 0.000000 1.846950 0.000000 
#    z 0.013790 0.000000 1.810030 
# 
# From -- ./inp_files/232794.got.cif
#   From: 2010.05.17/outbox.cif.g08.bks.cpg/sg15_117_cif.got.tgz:232794.got - 2010.06.03 18:47:42.
