data_PCOD9291793
_publ_section_title
;
Structure prediction by ZEFSAII (Michael W. Deem and Ramdas Pophale) SiO2 
 PCOD9291793
Probable space group: C 2/C
;
_chemical_formula_sum "Si O2"
_cell_formula_units_Z 48
_cell_length_a 23.012109
_cell_length_b 12.287075
_cell_length_c 18.108438
_cell_angle_alpha 90.000000
_cell_angle_beta 157.128178
_cell_angle_gamma 90.000000
_cell_volume 1990.067967
_symmetry_space_group_name_H-M "C 2/C"
_symmetry_group_IT_number 15
_symmetry_cell_setting 'monoclinic'
loop_
_space_group_symop_operation_xyz
x,y,z
-x,y,1/2-z
-x,-y,-z
x,-y,1/2+z
1/2+x,1/2+y,z
1/2-x,1/2+y,1/2-z
1/2-x,1/2-y,-z
1/2+x,1/2-y,1/2+z
loop_
_atom_site_type_symbol
_atom_site_label
_atom_site_fract_x
_atom_site_fract_y
_atom_site_fract_z
Si Si1 0.999313 0.256469 0.437779
Si Si2 0.805742 0.307079 0.343686
Si Si3 0.276216 0.939524 0.553061
Si Si4 0.935670 0.773294 0.258703
Si Si5 0.321474 0.638396 0.113286
Si Si6 0.096600 0.531038 0.968747
O O1 0.129880 0.210036 0.641981
O O2 0.057736 0.370743 0.476648
O O3 0.853451 0.282523 0.315315
O O4 0.962181 0.177305 0.325967
O O5 0.843374 0.427950 0.415661
O O6 0.915831 0.228425 0.518752
O O7 0.171733 0.877949 0.369460
O O8 0.328697 0.827967 0.655618
O O9 0.174616 0.047165 0.446834
O O10 0.441311 0.992934 0.750187
O O11 0.000000 0.756021 0.250000
O O12 0.250000 0.750000 0.000000
O O13 0.212298 0.578214 0.044407
#
# Coordination Sequence:
#
# PCOD9291793 Si02
#       6
#     8   8   8   8   8   8
#     4  12  26  48  70 108 148 201 245 310 374 458
#     4  11  27  45  76 104 154 190 251 307 381 449
#     4  10  22  42  72 101 138 188 240 307 365 425
#     4  10  23  44  72 106 139 187 253 303 368 442
#     4  12  25  45  74 107 144 193 253 300 370 451
#     4  11  24  47  73 101 149 196 240 311 383 435
#
# _framework density 24.119778
#
# number of rings (size 3 to 8) (size 9 to 14) (size 15 to 20)
#    0.000    1.000    3.333    3.000    9.333    2.000 
#    6.000    0.000    0.000    0.000    0.000    0.000 
#    0.000    0.000    0.000    0.000    0.000    0.000 
#
# Total GULP energy -133761.160286 kJ/mol
# GULP energy per Si atom -5573.381679 kJ/mol
# Density = 2.406488 g / cm^3
# Si number density = 24.119778 Si / 1000 Ang^3
#
#
#
# Elastic Constant Matrix: (Units=GPa)
#
#
# Indices 1 2 3 4 5 6 
#
# 1 62.2658 8.2490 7.5521 0.0026 12.6445 -0.0006
# 2 8.2490 166.2427 77.1711 0.0046 -4.7183 -0.0010
# 3 7.5521 77.1711 163.6220 0.0028 -10.7818 -0.0006
# 4 0.0026 0.0046 0.0028********** 0.0046 3491.6725
# 5 12.6445 -4.7183 -10.7818 0.0046 35.4293 -0.0010
# 6 -0.0006 -0.0010 -0.0006 3491.6725 -0.0010 -738.8235
#
#
#
# Elastic Compliance Matrix: (Units=1/GPa)
#
#
# Indices 1 2 3 4 5 6 
#
# 1 0.017611 -0.000617 -0.000961 0.000000 -0.006660 0.000000
# 2 -0.000617 0.007723 -0.003604 0.000000 0.000152 0.000000
# 3 -0.000961 -0.003604 0.008007 0.000000 0.002300 0.000000
# 4 0.000000 0.000000 0.000000 0.002110 0.000000 0.009970
# 5 -0.006660 0.000152 0.002300 0.000000 0.031322 0.000000
# 6 0.000000 0.000000 0.000000 0.009970 0.000000 0.045764
#
#
# Mechanical properties :
#
#
# Convention : Reuss Voigt Hill
#
# Bulk Modulus (GPa) = 43.51988 64.23053 53.87521
# Shear Modulus (GPa) = 38.29660 -3326.25103 -1643.97722
#
# Velocity S-wave (km/s) = 3.98900 -37.17592 -26.13558
# Velocity P-wave (km/s) = 6.26886 42.61508 29.80559
#
# Compressibility (1/GPa) = 0.02297800
#
# Stress axis : x y z
#
# Youngs Moduli (GPa) = 56.78316 129.47839 124.88449
#
# Poissons Ratio (x) = 0.07987 0.11998
# Poissons Ratio (y) = 0.03503 0.45010
# Poissons Ratio (z) = 0.05455 0.46666
#
# Static dielectric constant tensor:
#      x y z
#    x 2.133130 0.000000 -0.033780 
#    y 0.000000 1.916000 0.000000 
#    z -0.033780 0.000000 1.889930 
# 
# From -- ./inp_files/249017.got.cif
#   From: 2010.05.17/outbox.cif.g08.bks.cpg/sg15_125_cif.got.tgz:249017.got - 2010.06.03 18:47:42.
