data_PCOD9291337
_publ_section_title
;
Structure prediction by ZEFSAII (Michael W. Deem and Ramdas Pophale) SiO2 
 PCOD9291337
Probable space group: C 2/C
;
_chemical_formula_sum "Si O2"
_cell_formula_units_Z 60
_cell_length_a 19.226590
_cell_length_b 20.656150
_cell_length_c 9.326707
_cell_angle_alpha 90.000000
_cell_angle_beta 126.659993
_cell_angle_gamma 90.000000
_cell_volume 2971.383492
_symmetry_space_group_name_H-M "C 2/C"
_symmetry_group_IT_number 15
_symmetry_cell_setting 'monoclinic'
loop_
_space_group_symop_operation_xyz
x,y,z
-x,y,1/2-z
-x,-y,-z
x,-y,1/2+z
1/2+x,1/2+y,z
1/2-x,1/2+y,1/2-z
1/2-x,1/2-y,-z
1/2+x,1/2-y,1/2+z
loop_
_atom_site_type_symbol
_atom_site_label
_atom_site_fract_x
_atom_site_fract_y
_atom_site_fract_z
Si Si1 0.284426 0.496667 0.250311
Si Si2 0.165657 0.496186 0.362820
Si Si3 0.864128 0.354973 0.581577
Si Si4 0.509470 0.316879 0.929159
Si Si5 0.496190 0.175949 0.479348
Si Si6 0.828107 0.147456 0.707693
Si Si7 0.421003 0.406446 0.056180
Si Si8 0.000000 0.414672 0.250000
O O1 0.199070 0.488808 0.243252
O O2 0.321881 0.426905 0.255697
O O3 0.353977 0.540344 0.417477
O O4 0.246652 0.527649 0.059031
O O5 0.150689 0.571801 0.380299
O O6 0.079515 0.458083 0.294695
O O7 0.915965 0.318230 0.770451
O O8 0.769631 0.327796 0.427891
O O9 0.926123 0.353832 0.519754
O O10 0.500000 0.331055 0.750000
O O11 0.476121 0.245230 0.925374
O O12 0.609318 0.317563 0.104110
O O13 0.461134 0.368438 0.971163
O O14 0.472997 0.129807 0.582835
O O15 0.872288 0.142421 0.605329
O O16 0.500000 0.434205 0.250000
#
# Coordination Sequence:
#
# PCOD9291337 Si02
#       8
#     8   8   8   8   8   8   8   4
#     4  11  21  41  63  99 132 155 206 264 316 386
#     4  11  23  38  65  97 133 163 206 259 315 384
#     4  10  22  42  66  96 124 171 210 252 313 388
#     4  11  26  46  63  93 126 165 219 271 313 368
#     4  11  24  42  64  90 133 167 219 260 308 369
#     4  10  23  42  67  97 127 166 214 252 319 383
#     4  10  23  42  68  92 127 168 208 255 323 381
#     4  12  22  38  64  94 130 172 202 262 328 360
#
# _framework density 20.192613999999999
#
# number of rings (size 3 to 8) (size 9 to 14) (size 15 to 20)
#    0.000    1.333    3.333    3.200    7.467    4.800 
#    0.000    0.667    0.000    0.000    0.000    0.000 
#    0.000    0.000    0.000    0.000    0.000    0.000 
#
# Total GULP energy -167657.217265 kJ/mol
# GULP energy per Si atom -5588.573909 kJ/mol
# Density = 2.014665 g / cm^3
# Si number density = 20.192614 Si / 1000 Ang^3
#
#
#
# Elastic Constant Matrix: (Units=GPa)
#
#
# Indices 1 2 3 4 5 6 
#
# 1 98.2278 17.2909 37.6723 0.0000 -6.8952 0.0000
# 2 17.2909 42.5893 13.7096 0.0000 -7.2338 0.0000
# 3 37.6723 13.7096 91.7752 0.0000 -8.8574 0.0000
# 4 0.0000 0.0000 0.0000 26.3465 0.0000 -5.7981
# 5 -6.8952 -7.2338 -8.8574 0.0000 43.0725 0.0000
# 6 0.0000 0.0000 0.0000 -5.7981 0.0000 -0.6662
#
#
#
# Elastic Compliance Matrix: (Units=1/GPa)
#
#
# Indices 1 2 3 4 5 6 
#
# 1 0.012602 -0.003556 -0.004596 0.000000 0.000475 0.000000
# 2 -0.003556 0.026184 -0.002124 0.000000 0.003391 0.000000
# 3 -0.004596 -0.002124 0.013258 0.000000 0.001634 0.000000
# 4 0.000000 0.000000 0.000000 0.013019 0.000000 -0.113311
# 5 0.000475 0.003391 0.001634 0.000000 0.024198 0.000000
# 6 0.000000 0.000000 0.000000 -0.113311 0.000000 -0.514884
#
#
# Mechanical properties :
#
#
# Convention : Reuss Voigt Hill
#
# Bulk Modulus (GPa) = 31.75538 41.10423 36.42980
# Shear Modulus (GPa) = -12.67195 24.67852 6.00329
#
# Velocity S-wave (km/s) = -2.50782 3.49973 1.72611
# Velocity P-wave (km/s) = 2.71566 6.06061 4.69606
#
# Compressibility (1/GPa) = 0.03149073
#
# Stress axis : x y z
#
# Youngs Moduli (GPa) = 79.34964 38.19168 75.42731
#
# Poissons Ratio (x) = 0.13582 0.34667
# Poissons Ratio (y) = 0.28219 0.16023
# Poissons Ratio (z) = 0.36469 0.08113
#
# Static dielectric constant tensor:
#      x y z
#    x 1.697350 0.000000 0.019380 
#    y 0.000000 1.695330 0.000000 
#    z 0.019380 0.000000 1.720040 
# 
# From -- ./inp_files/50669.got.cif
#   From: 2010.05.17/outbox.cif.g08.bks.cpg/sg15_26_cif.got.tgz:50669.got - 2010.06.03 18:47:42.
