data_PCOD9291409
_publ_section_title
;
Structure prediction by ZEFSAII (Michael W. Deem and Ramdas Pophale) SiO2 
 PCOD9291409
Probable space group: C 2/C
;
_chemical_formula_sum "Si O2"
_cell_formula_units_Z 32
_cell_length_a 7.817818
_cell_length_b 18.731557
_cell_length_c 12.643209
_cell_angle_alpha 90.000000
_cell_angle_beta 125.786364
_cell_angle_gamma 90.000000
_cell_volume 1501.918288
_symmetry_space_group_name_H-M "C 2/C"
_symmetry_group_IT_number 15
_symmetry_cell_setting 'monoclinic'
loop_
_space_group_symop_operation_xyz
x,y,z
-x,y,1/2-z
-x,-y,-z
x,-y,1/2+z
1/2+x,1/2+y,z
1/2-x,1/2+y,1/2-z
1/2-x,1/2-y,-z
1/2+x,1/2-y,1/2+z
loop_
_atom_site_type_symbol
_atom_site_label
_atom_site_fract_x
_atom_site_fract_y
_atom_site_fract_z
Si Si1 0.641998 0.942742 0.106559
Si Si2 0.951049 0.058764 0.893934
Si Si3 0.389266 0.717319 0.824180
Si Si4 0.474947 0.786711 0.059488
O O1 0.757458 0.970053 0.253605
O O2 0.507869 0.871697 0.081326
O O3 0.836984 0.930161 0.097755
O O4 0.500000 0.000000 0.000000
O O5 0.883433 0.141618 0.885162
O O6 0.000000 0.000000 0.000000
O O7 0.500000 0.707976 0.750000
O O8 0.155748 0.742144 0.703974
O O9 0.506934 0.769862 0.946465
O O10 0.250000 0.750000 0.000000
#
# Coordination Sequence:
#
# PCOD9291409 Si02
#       4
#     8   8   8   8
#     4  10  23  44  61  98 136 168 230 282 333 415
#     4  10  22  42  67  93 131 182 222 276 340 409
#     4  11  22  44  68  94 137 178 229 284 345 415
#     4  11  24  42  67  99 135 178 227 287 351 413
#
# _framework density 21.306084999999999
#
# number of rings (size 3 to 8) (size 9 to 14) (size 15 to 20)
#    0.000    1.500    5.000    1.500    3.500    3.000 
#    4.500    0.000    0.000    0.000    0.000    0.000 
#    0.000    0.000    0.000    0.000    0.000    0.000 
#
# Total GULP energy -89194.163367 kJ/mol
# GULP energy per Si atom -5574.635210 kJ/mol
# Density = 2.125759 g / cm^3
# Si number density = 21.306085 Si / 1000 Ang^3
#
#
#
# Elastic Constant Matrix: (Units=GPa)
#
#
# Indices 1 2 3 4 5 6 
#
# 1 96.2713 35.1115 44.7332 0.0000 13.6682 0.0000
# 2 35.1115 76.9087 90.5139 0.0000 10.6023 0.0000
# 3 44.7332 90.5139 181.5181 0.0000 19.6540 0.0000
# 4 0.0000 0.0000 0.0000 55.0851 0.0000 1.9867
# 5 13.6682 10.6023 19.6540 0.0000 44.1098 0.0000
# 6 0.0000 0.0000 0.0000 1.9867 0.0000 31.0774
#
#
#
# Elastic Compliance Matrix: (Units=1/GPa)
#
#
# Indices 1 2 3 4 5 6 
#
# 1 0.012761 -0.005078 -0.000333 0.000000 -0.002585 0.000000
# 2 -0.005078 0.033508 -0.015504 0.000000 0.000427 0.000000
# 3 -0.000333 -0.015504 0.013562 0.000000 -0.002213 0.000000
# 4 0.000000 0.000000 0.000000 0.018196 0.000000 -0.001163
# 5 -0.002585 0.000427 -0.002213 0.000000 0.024355 0.000000
# 6 0.000000 0.000000 0.000000 -0.001163 0.000000 0.032252
#
#
# Mechanical properties :
#
#
# Convention : Reuss Voigt Hill
#
# Bulk Modulus (GPa) = 55.54894 77.26837 66.40865
# Shear Modulus (GPa) = 27.40295 38.34377 32.87336
#
# Velocity S-wave (km/s) = 3.59019 4.24685 3.93225
# Velocity P-wave (km/s) = 6.58137 7.77124 7.20092
#
# Compressibility (1/GPa) = 0.01800215
#
# Stress axis : x y z
#
# Youngs Moduli (GPa) = 78.36406 29.84381 73.73764
#
# Poissons Ratio (x) = 0.15153 0.02455
# Poissons Ratio (y) = 0.39790 1.14320
# Poissons Ratio (z) = 0.02609 0.46269
#
# Static dielectric constant tensor:
#      x y z
#    x 1.896830 0.000000 -0.035310 
#    y 0.000000 1.760030 0.000000 
#    z -0.035310 0.000000 1.778660 
# 
# From -- ./inp_files/78032.got.cif
#   From: 2010.05.17/outbox.cif.g08.bks.cpg/sg15_40_cif.got.tgz:78032.got - 2010.06.03 18:47:42.
