data_PCOD9291537
_publ_section_title
;
Structure prediction by ZEFSAII (Michael W. Deem and Ramdas Pophale) SiO2 
 PCOD9291537
Probable space group: C 2/C
;
_chemical_formula_sum "Si O2"
_cell_formula_units_Z 48
_cell_length_a 24.936021
_cell_length_b 9.207092
_cell_length_c 9.642471
_cell_angle_alpha 90.000000
_cell_angle_beta 82.292726
_cell_angle_gamma 90.000000
_cell_volume 2193.798892
_symmetry_space_group_name_H-M "C 2/C"
_symmetry_group_IT_number 15
_symmetry_cell_setting 'monoclinic'
loop_
_space_group_symop_operation_xyz
x,y,z
-x,y,1/2-z
-x,-y,-z
x,-y,1/2+z
1/2+x,1/2+y,z
1/2-x,1/2+y,1/2-z
1/2-x,1/2-y,-z
1/2+x,1/2-y,1/2+z
loop_
_atom_site_type_symbol
_atom_site_label
_atom_site_fract_x
_atom_site_fract_y
_atom_site_fract_z
Si Si1 0.000000 0.174198 0.750000
Si Si2 0.458180 0.130704 0.016893
Si Si3 0.000000 0.218846 0.250000
Si Si4 0.646677 0.260320 0.390244
Si Si5 0.697336 0.655120 0.151106
Si Si6 0.912886 0.020099 0.201118
Si Si7 0.263833 0.327165 0.350444
O O1 0.016088 0.267232 0.875387
O O2 0.054011 0.080470 0.701306
O O3 0.394692 0.126660 0.079974
O O4 0.460140 0.192061 0.860803
O O5 0.500000 0.000000 0.000000
O O6 0.038007 0.129899 0.343638
O O7 0.688016 0.276233 0.502956
O O8 0.609973 0.407830 0.404180
O O9 0.679296 0.270702 0.235187
O O10 0.638315 0.604817 0.224348
O O11 0.731068 0.502412 0.137177
O O12 0.721155 0.770016 0.251604
O O13 0.250000 0.250000 0.500000
#
# Coordination Sequence:
#
# PCOD9291537 Si02
#       7
#     4   8   4   8   8   8   8
#     4   9  21  38  62  94 131 171 214 270 326 387
#     4  11  23  42  61  95 138 176 214 265 330 403
#     4  11  21  38  68  92 125 173 218 258 324 391
#     4  10  22  42  68  95 132 175 220 278 334 397
#     4  11  22  45  69  97 133 173 226 283 344 402
#     4   9  20  36  66  96 122 160 222 269 319 383
#     4  11  24  44  69 101 133 176 227 290 345 407
#
# _framework density 21.879854000000002
#
# number of rings (size 3 to 8) (size 9 to 14) (size 15 to 20)
#    0.000    1.667    1.667    3.000    2.333    2.000 
#    6.000    5.000    0.000    0.000    0.000    0.000 
#    0.000    0.000    0.000    0.000    0.000    0.000 
#
# Total GULP energy -133773.868038 kJ/mol
# GULP energy per Si atom -5573.911168 kJ/mol
# Density = 2.183005 g / cm^3
# Si number density = 21.879854 Si / 1000 Ang^3
#
#
#
# Elastic Constant Matrix: (Units=GPa)
#
#
# Indices 1 2 3 4 5 6 
#
# 1 127.7417 50.3998 41.7509 0.0000 7.5177 0.0000
# 2 50.3998 62.6811 26.9605 0.0000 -3.3693 0.0000
# 3 41.7509 26.9605 105.8438 0.0000 5.0462 0.0000
# 4 0.0000 0.0000 0.0000 19.3077 0.0000 1.4827
# 5 7.5177 -3.3693 5.0462 0.0000 39.1912 0.0000
# 6 0.0000 0.0000 0.0000 1.4827 0.0000 20.4496
#
#
#
# Elastic Compliance Matrix: (Units=1/GPa)
#
#
# Indices 1 2 3 4 5 6 
#
# 1 0.012359 -0.009042 -0.002437 0.000000 -0.002834 0.000000
# 2 -0.009042 0.024712 -0.002930 0.000000 0.004236 0.000000
# 3 -0.002437 -0.002930 0.011214 0.000000 -0.001228 0.000000
# 4 0.000000 0.000000 0.000000 0.052083 0.000000 -0.003776
# 5 -0.002834 0.004236 -0.001228 0.000000 0.026582 0.000000
# 6 0.000000 0.000000 0.000000 -0.003776 0.000000 0.049175
#
#
# Mechanical properties :
#
#
# Convention : Reuss Voigt Hill
#
# Bulk Modulus (GPa) = 51.36695 59.38765 55.37730
# Shear Modulus (GPa) = 23.64848 27.60005 25.62426
#
# Velocity S-wave (km/s) = 3.29117 3.55552 3.42590
# Velocity P-wave (km/s) = 6.16200 6.63756 6.40419
#
# Compressibility (1/GPa) = 0.01946777
#
# Stress axis : x y z
#
# Youngs Moduli (GPa) = 80.91374 40.46657 89.17406
#
# Poissons Ratio (x) = 0.36588 0.21730
# Poissons Ratio (y) = 0.73158 0.26128
# Poissons Ratio (z) = 0.19718 0.11857
#
# Static dielectric constant tensor:
#      x y z
#    x 1.888830 0.000000 -0.024670 
#    y 0.000000 1.904800 0.000000 
#    z -0.024670 0.000000 1.786220 
# 
# From -- ./inp_files/116311.got.cif
#   From: 2010.05.17/outbox.cif.g08.bks.cpg/sg15_59_cif.got.tgz:116311.got - 2010.06.03 18:47:42.
