data_PCOD9291887
_publ_section_title
;
Structure prediction by ZEFSAII (Michael W. Deem and Ramdas Pophale) SiO2 
 PCOD9291887
Probable space group: C 2/C
;
_chemical_formula_sum "Si O2"
_cell_formula_units_Z 48
_cell_length_a 14.109241
_cell_length_b 27.881421
_cell_length_c 8.636471
_cell_angle_alpha 90.000000
_cell_angle_beta 40.486568
_cell_angle_gamma 90.000000
_cell_volume 2205.870716
_symmetry_space_group_name_H-M "C 2/C"
_symmetry_group_IT_number 15
_symmetry_cell_setting 'monoclinic'
loop_
_space_group_symop_operation_xyz
x,y,z
-x,y,1/2-z
-x,-y,-z
x,-y,1/2+z
1/2+x,1/2+y,z
1/2-x,1/2+y,1/2-z
1/2-x,1/2-y,-z
1/2+x,1/2-y,1/2+z
loop_
_atom_site_type_symbol
_atom_site_label
_atom_site_fract_x
_atom_site_fract_y
_atom_site_fract_z
Si Si1 0.692081 0.894897 0.415737
Si Si2 0.872411 0.201057 0.707635
Si Si3 0.104864 0.026898 0.989632
Si Si4 0.304850 0.286445 0.646370
Si Si5 0.063737 0.632712 0.505025
Si Si6 0.870713 0.539280 0.205186
O O1 0.799683 0.850834 0.312300
O O2 0.791810 0.932613 0.204013
O O3 0.565338 0.873227 0.462193
O O4 0.635359 0.925915 0.634332
O O5 0.778476 0.236641 0.715993
O O6 0.043960 0.202776 0.452964
O O7 0.855071 0.218745 0.905903
O O8 0.220054 0.988340 0.908513
O O9 0.000000 0.047284 0.250000
O O10 0.000000 0.000000 0.000000
O O11 0.187438 0.329259 0.805261
O O12 0.128025 0.578555 0.433008
O O13 0.000000 0.646364 0.750000
O O14 0.000000 0.500000 0.000000
#
# Coordination Sequence:
#
# PCOD9291887 Si02
#       6
#     8   8   8   8   8   8
#     4  12  26  47  72 103 143 190 245 298 358 435
#     4  10  22  42  75 107 138 184 233 298 353 432
#     4  12  28  44  67  99 141 185 237 296 363 423
#     4  10  22  43  72 108 145 179 236 291 363 427
#     4  12  28  43  71 103 145 189 243 296 363 427
#     4  12  27  46  71 101 140 194 244 301 356 425
#
# _framework density 21.760114999999999
#
# number of rings (size 3 to 8) (size 9 to 14) (size 15 to 20)
#    0.000    0.667    5.000    1.500    7.000    1.333 
#    0.000    4.167    0.000    0.000    0.000    0.000 
#    0.000    0.000    0.000    0.000    0.000    0.000 
#
# Total GULP energy -133786.348580 kJ/mol
# GULP energy per Si atom -5574.431191 kJ/mol
# Density = 2.171059 g / cm^3
# Si number density = 21.760115 Si / 1000 Ang^3
#
#
#
# Elastic Constant Matrix: (Units=GPa)
#
#
# Indices 1 2 3 4 5 6 
#
# 1 103.0935 51.1660 61.3749 0.0000 -34.3355 0.0000
# 2 51.1660 127.4224 37.7729 0.0000 -29.9350 0.0000
# 3 61.3749 37.7729 133.8592 0.0000 -26.7196 0.0000
# 4 0.0000 0.0000 0.0000 59.4963 0.0000 -58.2880
# 5 -34.3355 -29.9350 -26.7196 0.0000 35.4047 0.0000
# 6 0.0000 0.0000 0.0000 -58.2880 0.0000 107.4142
#
#
#
# Elastic Compliance Matrix: (Units=1/GPa)
#
#
# Indices 1 2 3 4 5 6 
#
# 1 0.017950 -0.003121 -0.005182 0.000000 0.010859 0.000000
# 2 -0.003121 0.010534 -0.000433 0.000000 0.005553 0.000000
# 3 -0.005182 -0.000433 0.010470 0.000000 0.002509 0.000000
# 4 0.000000 0.000000 0.000000 0.035885 0.000000 0.019473
# 5 0.010859 0.005553 0.002509 0.000000 0.045365 0.000000
# 6 0.000000 0.000000 0.000000 0.019473 0.000000 0.019877
#
#
# Mechanical properties :
#
#
# Convention : Reuss Voigt Hill
#
# Bulk Modulus (GPa) = 46.55064 73.88918 60.21991
# Shear Modulus (GPa) = 30.35563 54.73380 42.54471
#
# Velocity S-wave (km/s) = 3.73904 5.02074 4.42653
# Velocity P-wave (km/s) = 6.33085 8.22438 7.33894
#
# Compressibility (1/GPa) = 0.02148198
#
# Stress axis : x y z
#
# Youngs Moduli (GPa) = 55.70898 94.93033 95.51328
#
# Poissons Ratio (x) = 0.29625 0.49497
# Poissons Ratio (y) = 0.17385 0.04138
# Poissons Ratio (z) = 0.28870 0.04112
#
# Static dielectric constant tensor:
#      x y z
#    x 1.892770 0.000000 -0.076400 
#    y 0.000000 1.731740 0.000000 
#    z -0.076400 0.000000 2.332430 
# 
# From -- ./inp_files/43782.got.cif
#   From: 2010.05.17/outbox.cif.g08.bks.cpg/sg15_22_cif.got.tgz:43782.got - 2010.06.03 18:47:42.
