data_PCOD9291880
_publ_section_title
;
Structure prediction by ZEFSAII (Michael W. Deem and Ramdas Pophale) SiO2 
 PCOD9291880
Probable space group: C 2/C
;
_chemical_formula_sum "Si O2"
_cell_formula_units_Z 48
_cell_length_a 26.244006
_cell_length_b 11.246253
_cell_length_c 19.310193
_cell_angle_alpha 90.000000
_cell_angle_beta 22.884581
_cell_angle_gamma 90.000000
_cell_volume 2216.336867
_symmetry_space_group_name_H-M "C 2/C"
_symmetry_group_IT_number 15
_symmetry_cell_setting 'monoclinic'
loop_
_space_group_symop_operation_xyz
x,y,z
-x,y,1/2-z
-x,-y,-z
x,-y,1/2+z
1/2+x,1/2+y,z
1/2-x,1/2+y,1/2-z
1/2-x,1/2-y,-z
1/2+x,1/2-y,1/2+z
loop_
_atom_site_type_symbol
_atom_site_label
_atom_site_fract_x
_atom_site_fract_y
_atom_site_fract_z
Si Si1 0.010606 0.186623 0.029894
Si Si2 0.662353 0.077267 0.309341
Si Si3 0.595887 0.216858 0.693410
Si Si4 0.908397 0.229896 0.796457
Si Si5 0.437062 0.577846 0.992944
Si Si6 0.988520 0.518217 0.134613
O O1 0.951975 0.226023 0.175349
O O2 0.064210 0.055342 0.976799
O O3 0.107586 0.289799 0.884693
O O4 0.914309 0.166524 0.085947
O O5 0.596776 0.006417 0.328722
O O6 0.629956 0.015263 0.424232
O O7 0.812155 0.086673 0.101580
O O8 0.500000 0.255722 0.750000
O O9 0.750000 0.250000 0.500000
O O10 0.565809 0.076719 0.742692
O O11 0.937103 0.121750 0.706905
O O12 0.969613 0.350078 0.686502
O O13 0.000000 0.209601 0.750000
O O14 0.750000 0.250000 0.000000
#
# Coordination Sequence:
#
# PCOD9291880 Si02
#       6
#     8   8   8   8   8   8
#     4  10  25  43  67 100 132 178 235 286 345 411
#     4  10  22  42  74  98 131 180 236 292 346 404
#     4  11  27  45  70 101 141 182 230 285 352 416
#     4  12  27  44  68  99 144 185 229 281 355 415
#     4  11  25  42  70  99 137 179 235 293 339 418
#     4  10  23  44  68 100 133 184 229 287 347 423
#
# _framework density 21.657357999999999
#
# number of rings (size 3 to 8) (size 9 to 14) (size 15 to 20)
#    0.000    1.333    1.667    1.500   11.667    2.000 
#    0.000    0.000    0.000    0.000    0.000    0.000 
#    0.000    0.000    0.000    0.000    0.000    0.000 
#
# Total GULP energy -133763.723045 kJ/mol
# GULP energy per Si atom -5573.488460 kJ/mol
# Density = 2.160807 g / cm^3
# Si number density = 21.657358 Si / 1000 Ang^3
#
#
#
# Elastic Constant Matrix: (Units=GPa)
#
#
# Indices 1 2 3 4 5 6 
#
# 1 97.4543 -0.1874 27.7916 0.0000 -4.6745 0.0000
# 2 -0.1874 77.7003 11.1771 0.0000 5.2006 0.0000
# 3 27.7916 11.1771 101.0850 0.0000 -15.6105 0.0000
# 4 0.0000 0.0000 0.0000 -3.0029 0.0000 -7.8778
# 5 -4.6745 5.2006 -15.6105 0.0000 20.2911 0.0000
# 6 0.0000 0.0000 0.0000 -7.8778 0.0000 24.2303
#
#
#
# Elastic Compliance Matrix: (Units=1/GPa)
#
#
# Indices 1 2 3 4 5 6 
#
# 1 0.011152 0.000470 -0.003109 0.000000 0.000056 0.000000
# 2 0.000470 0.013573 -0.002441 0.000000 -0.005248 0.000000
# 3 -0.003109 -0.002441 0.012487 0.000000 0.009516 0.000000
# 4 0.000000 0.000000 0.000000 -0.179722 0.000000 -0.058432
# 5 0.000056 -0.005248 0.009516 0.000000 0.057962 0.000000
# 6 0.000000 0.000000 0.000000 -0.058432 0.000000 0.022273
#
#
# Mechanical properties :
#
#
# Convention : Reuss Voigt Hill
#
# Bulk Modulus (GPa) = 36.96464 39.31137 38.13800
# Shear Modulus (GPa) = -116.01311 24.13425 -45.93943
#
# Velocity S-wave (km/s) = -7.32692 3.34184 -4.61064
# Velocity P-wave (km/s) = 7.38061 5.75164 3.27048
#
# Compressibility (1/GPa) = 0.02705288
#
# Stress axis : x y z
#
# Youngs Moduli (GPa) = 89.67401 73.67322 80.08410
#
# Poissons Ratio (x) = -0.03465 0.24900
# Poissons Ratio (y) = -0.04218 0.19546
# Poissons Ratio (z) = 0.27882 0.17981
#
# Static dielectric constant tensor:
#      x y z
#    x 1.905590 0.000000 -0.045950 
#    y 0.000000 1.835900 0.000000 
#    z -0.045950 0.000000 1.851760 
# 
# From -- ./inp_files/257598.got.cif
#   From: 2010.05.17/outbox.cif.g08.bks.cpg/sg15_129_cif.got.tgz:257598.got - 2010.06.03 18:47:42.
