data_PCOD9291697
_publ_section_title
;
Structure prediction by ZEFSAII (Michael W. Deem and Ramdas Pophale) SiO2 
 PCOD9291697
Probable space group: C 2/C
;
_chemical_formula_sum "Si O2"
_cell_formula_units_Z 44
_cell_length_a 7.988045
_cell_length_b 22.588814
_cell_length_c 12.449722
_cell_angle_alpha 90.000000
_cell_angle_beta 135.951096
_cell_angle_gamma 90.000000
_cell_volume 1561.882605
_symmetry_space_group_name_H-M "C 2/C"
_symmetry_group_IT_number 15
_symmetry_cell_setting 'monoclinic'
loop_
_space_group_symop_operation_xyz
x,y,z
-x,y,1/2-z
-x,-y,-z
x,-y,1/2+z
1/2+x,1/2+y,z
1/2-x,1/2+y,1/2-z
1/2-x,1/2-y,-z
1/2+x,1/2-y,1/2+z
loop_
_atom_site_type_symbol
_atom_site_label
_atom_site_fract_x
_atom_site_fract_y
_atom_site_fract_z
Si Si1 0.582045 0.467917 0.427531
Si Si2 0.036605 0.449322 0.138311
Si Si3 0.775014 0.781545 0.360401
Si Si4 0.280310 0.859829 0.868135
Si Si5 0.000000 0.757828 0.250000
Si Si6 0.306990 0.649287 0.406858
O O1 0.500000 0.500000 0.500000
O O2 0.319281 0.465119 0.248042
O O3 0.833135 0.501322 0.518472
O O4 0.650327 0.400954 0.488425
O O5 0.046665 0.605400 0.973110
O O6 0.000000 0.437485 0.250000
O O7 0.500000 0.794527 0.250000
O O8 0.806301 0.711182 0.392828
O O9 0.862939 0.792362 0.279002
O O10 0.933099 0.824099 0.507203
O O11 0.323024 0.873390 0.760678
O O12 0.000000 0.878483 0.750000
O O13 0.815177 0.710332 0.113566
#
# Coordination Sequence:
#
# PCOD9291697 Si02
#       6
#     8   8   8   8   4   8
#     4  10  23  43  74 104 150 211 263 334 406 479
#     4  10  22  44  72 106 152 207 268 337 400 491
#     4  10  24  46  78 121 163 215 269 338 414 494
#     4  10  22  42  70 110 149 201 263 333 396 489
#     4  10  24  44  78 114 166 208 264 342 400 504
#     4  11  24  45  76 109 158 213 262 336 410 491
#
# _framework density 28.171130999999999
#
# number of rings (size 3 to 8) (size 9 to 14) (size 15 to 20)
#    0.000    1.818    0.000    2.727    3.818   13.091 
#    0.000   10.909    6.000    0.000    0.000    0.000 
#    0.000    0.000    0.000    0.000    0.000    0.000 
#
# Total GULP energy -123391.239962 kJ/mol
# GULP energy per Si atom -5608.692726 kJ/mol
# Density = 2.810701 g / cm^3
# Si number density = 28.171131 Si / 1000 Ang^3
#
#
#
# Elastic Constant Matrix: (Units=GPa)
#
#
# Indices 1 2 3 4 5 6 
#
# 1 159.9704 32.4738 80.7301 0.0000 16.0503 0.0000
# 2 32.4738 133.8317 104.8254 0.0000 -0.0717 0.0000
# 3 80.7301 104.8254 264.2091 0.0000 17.5163 0.0000
# 4 0.0000 0.0000 0.0000 75.6796 0.0000 3.2666
# 5 16.0503 -0.0717 17.5163 0.0000 61.8635 0.0000
# 6 0.0000 0.0000 0.0000 3.2666 0.0000 22.7667
#
#
#
# Elastic Compliance Matrix: (Units=1/GPa)
#
#
# Indices 1 2 3 4 5 6 
#
# 1 0.007497 -0.000138 -0.002147 0.000000 -0.001337 0.000000
# 2 -0.000138 0.010940 -0.004384 0.000000 0.001290 0.000000
# 3 -0.002147 -0.004384 0.006261 0.000000 -0.001221 0.000000
# 4 0.000000 0.000000 0.000000 0.013296 0.000000 -0.001908
# 5 -0.001337 0.001290 -0.001221 0.000000 0.016859 0.000000
# 6 0.000000 0.000000 0.000000 -0.001908 0.000000 0.044198
#
#
# Mechanical properties :
#
#
# Convention : Reuss Voigt Hill
#
# Bulk Modulus (GPa) = 88.02801 110.45219 99.24010
# Shear Modulus (GPa) = 43.03849 54.72743 48.88296
#
# Velocity S-wave (km/s) = 3.91289 4.41236 4.17011
# Velocity P-wave (km/s) = 7.19233 8.07783 7.64791
#
# Compressibility (1/GPa) = 0.01136002
#
# Stress axis : x y z
#
# Youngs Moduli (GPa) = 133.38664 91.40872 159.71296
#
# Poissons Ratio (x) = 0.01260 0.34296
# Poissons Ratio (y) = 0.01839 0.70015
# Poissons Ratio (z) = 0.28643 0.40072
#
# Static dielectric constant tensor:
#      x y z
#    x 2.335710 0.000000 0.029310 
#    y 0.000000 2.093640 0.000000 
#    z 0.029310 0.000000 2.261640 
# 
# From -- ./inp_files/193631.got.cif
#   From: 2010.05.17/outbox.cif.g08.bks.cpg/sg15_97_cif.got.tgz:193631.got - 2010.06.03 18:47:42.
