data_PCOD9291909
_publ_section_title
;
Structure prediction by ZEFSAII (Michael W. Deem and Ramdas Pophale) SiO2 
 PCOD9291909
Probable space group: C 2/C
;
_chemical_formula_sum "Si O2"
_cell_formula_units_Z 44
_cell_length_a 14.629251
_cell_length_b 15.572218
_cell_length_c 14.687676
_cell_angle_alpha 90.000000
_cell_angle_beta 148.201302
_cell_angle_gamma 90.000000
_cell_volume 1763.128306
_symmetry_space_group_name_H-M "C 2/C"
_symmetry_group_IT_number 15
_symmetry_cell_setting 'monoclinic'
loop_
_space_group_symop_operation_xyz
x,y,z
-x,y,1/2-z
-x,-y,-z
x,-y,1/2+z
1/2+x,1/2+y,z
1/2-x,1/2+y,1/2-z
1/2-x,1/2-y,-z
1/2+x,1/2-y,1/2+z
loop_
_atom_site_type_symbol
_atom_site_label
_atom_site_fract_x
_atom_site_fract_y
_atom_site_fract_z
Si Si1 0.617469 0.877604 0.066531
Si Si2 0.500000 0.441548 0.750000
Si Si3 0.762970 0.309424 0.684910
Si Si4 0.897002 0.628890 0.749626
Si Si5 0.998885 0.180022 0.107799
Si Si6 0.820522 0.899657 0.066218
O O1 0.741760 0.792904 0.176150
O O2 0.609545 0.920834 0.159019
O O3 0.700048 0.923324 0.049479
O O4 0.429693 0.843075 0.878681
O O5 0.401321 0.377438 0.733089
O O6 0.607136 0.507838 0.903387
O O7 0.589147 0.340350 0.588750
O O8 0.765701 0.343723 0.584577
O O9 0.700733 0.653994 0.558845
O O10 0.000000 0.592599 0.750000
O O11 0.983788 0.720552 0.850655
O O12 0.000000 0.854202 0.250000
#
# Coordination Sequence:
#
# PCOD9291909 Si02
#       6
#     8   4   8   8   8   8
#     4  11  22  39  65 104 125 162 216 275 323 370
#     4  10  26  40  68  84 138 178 214 244 330 392
#     4  11  22  38  70  96 130 163 216 274 321 367
#     4  11  22  37  69  99 129 158 215 273 321 366
#     4  11  22  41  66  99 127 168 212 268 323 377
#     4  10  22  43  61  88 130 176 214 251 315 390
#
# _framework density 24.955643999999999
#
# number of rings (size 3 to 8) (size 9 to 14) (size 15 to 20)
#    0.545    0.727    0.909    8.182    2.545    0.727 
#    0.000    2.727    0.000    0.000    0.000    0.000 
#    0.000    0.000    0.000    0.000    0.000    0.000 
#
# Total GULP energy -122954.164120 kJ/mol
# GULP energy per Si atom -5588.825642 kJ/mol
# Density = 2.489884 g / cm^3
# Si number density = 24.955644 Si / 1000 Ang^3
#
#
#
# Elastic Constant Matrix: (Units=GPa)
#
#
# Indices 1 2 3 4 5 6 
#
# 1 170.5603 5.5863 29.5140 0.0015 -9.6050 0.0005
# 2 5.5863 26.0211 -8.4518 0.0030 -7.2835 0.0016
# 3 29.5140 -8.4518 120.8279 0.0043 4.6889 0.0027
# 4 0.0015 0.0030 0.0043 12.3545 0.0028 -6.9908
# 5 -9.6050 -7.2835 4.6889 0.0028 50.0135 0.0012
# 6 0.0005 0.0016 0.0027 -6.9908 0.0012 17.0664
#
#
#
# Elastic Compliance Matrix: (Units=1/GPa)
#
#
# Indices 1 2 3 4 5 6 
#
# 1 0.006270 -0.001577 -0.001686 0.000000 0.001133 0.000000
# 2 -0.001577 0.041281 0.003062 -0.000019 0.005422 -0.000013
# 3 -0.001686 0.003062 0.008930 -0.000006 -0.000715 -0.000004
# 4 0.000000 -0.000019 -0.000006 0.105363 -0.000009 0.043159
# 5 0.001133 0.005422 -0.000715 -0.000009 0.021069 -0.000006
# 6 0.000000 -0.000013 -0.000004 0.043159 -0.000006 0.076274
#
#
# Mechanical properties :
#
#
# Convention : Reuss Voigt Hill
#
# Bulk Modulus (GPa) = 17.83135 41.18959 29.51047
# Shear Modulus (GPa) = 17.96743 35.27093 26.61918
#
# Velocity S-wave (km/s) = 2.68615 3.76353 3.26952
# Velocity P-wave (km/s) = 4.09649 5.95201 5.10919
#
# Compressibility (1/GPa) = 0.05608099
#
# Stress axis : x y z
#
# Youngs Moduli (GPa) = 159.48533 24.22412 111.98238
#
# Poissons Ratio (x) = 0.03819 0.18878
# Poissons Ratio (y) = 0.25145 -0.34292
# Poissons Ratio (z) = 0.26886 -0.07418
#
# Static dielectric constant tensor:
#      x y z
#    x 2.026960 0.000000 -0.032540 
#    y 0.000000 1.954390 0.000000 
#    z -0.032540 0.000000 2.022000 
# 
# From -- ./inp_files/156282.got.cif
#   From: 2010.05.17/outbox.cif.g08.bks.cpg/sg15_79_cif.got.tgz:156282.got - 2010.06.03 18:47:42.
