data_PCOD9291444
_publ_section_title
;
Structure prediction by ZEFSAII (Michael W. Deem and Ramdas Pophale) SiO2 
 PCOD9291444
Probable space group: C 2/C
;
_chemical_formula_sum "Si O2"
_cell_formula_units_Z 28
_cell_length_a 14.917954
_cell_length_b 9.100638
_cell_length_c 15.617928
_cell_angle_alpha 90.000000
_cell_angle_beta 39.197271
_cell_angle_gamma 90.000000
_cell_volume 1340.035702
_symmetry_space_group_name_H-M "C 2/C"
_symmetry_group_IT_number 15
_symmetry_cell_setting 'monoclinic'
loop_
_space_group_symop_operation_xyz
x,y,z
-x,y,1/2-z
-x,-y,-z
x,-y,1/2+z
1/2+x,1/2+y,z
1/2-x,1/2+y,1/2-z
1/2-x,1/2-y,-z
1/2+x,1/2-y,1/2+z
loop_
_atom_site_type_symbol
_atom_site_label
_atom_site_fract_x
_atom_site_fract_y
_atom_site_fract_z
Si Si1 0.000000 0.093251 0.750000
Si Si2 0.224299 0.308853 0.649919
Si Si3 0.588836 0.437927 0.515641
Si Si4 0.970588 0.330951 0.538637
O O1 0.132578 0.204489 0.656758
O O2 0.010296 0.991046 0.659145
O O3 0.261196 0.476011 0.595741
O O4 0.138471 0.312369 0.802447
O O5 0.376661 0.234459 0.549441
O O6 0.500000 0.500000 0.500000
O O7 0.589809 0.264703 0.496170
O O8 0.000000 0.500000 0.500000
#
# Coordination Sequence:
#
# PCOD9291444 Si02
#       4
#     4   8   8   8
#     4  12  22  42  72 102 140 180 230 286 344 410
#     4  11  22  42  69 101 136 177 232 274 352 401
#     4  10  22  42  67  97 134 182 225 280 338 408
#     4  11  24  42  71  97 140 184 230 282 344 405
#
# _framework density 20.894964999999999
#
# number of rings (size 3 to 8) (size 9 to 14) (size 15 to 20)
#    0.000    1.143    5.714    2.571    4.000    0.000 
#    0.000    2.857    0.000    0.000    0.000    0.000 
#    0.000    0.000    0.000    0.000    0.000    0.000 
#
# Total GULP energy -78168.751945 kJ/mol
# GULP energy per Si atom -5583.482282 kJ/mol
# Density = 2.084741 g / cm^3
# Si number density = 20.894965 Si / 1000 Ang^3
#
#
#
# Elastic Constant Matrix: (Units=GPa)
#
#
# Indices 1 2 3 4 5 6 
#
# 1 61.4111 39.9848 35.5630 0.0000 13.9174 0.0000
# 2 39.9848 172.3311 37.1077 0.0000 8.2264 0.0000
# 3 35.5630 37.1077 128.9325 0.0000 7.2986 0.0000
# 4 0.0000 0.0000 0.0000 16.5387 0.0000 6.9451
# 5 13.9174 8.2264 7.2986 0.0000 42.7098 0.0000
# 6 0.0000 0.0000 0.0000 6.9451 0.0000 28.9742
#
#
#
# Elastic Compliance Matrix: (Units=1/GPa)
#
#
# Indices 1 2 3 4 5 6 
#
# 1 0.023060 -0.004020 -0.004869 0.000000 -0.005908 0.000000
# 2 -0.004020 0.006921 -0.000890 0.000000 0.000129 0.000000
# 3 -0.004869 -0.000890 0.009346 0.000000 0.000161 0.000000
# 4 0.000000 0.000000 0.000000 0.067231 0.000000 -0.016115
# 5 -0.005908 0.000129 0.000161 0.000000 0.025287 0.000000
# 6 0.000000 0.000000 0.000000 -0.016115 0.000000 0.038376
#
#
# Mechanical properties :
#
#
# Convention : Reuss Voigt Hill
#
# Bulk Modulus (GPa) = 50.58671 65.33174 57.95922
# Shear Modulus (GPa) = 25.46221 34.31248 29.88735
#
# Velocity S-wave (km/s) = 3.49461 4.05673 3.78611
# Velocity P-wave (km/s) = 6.36754 7.29913 6.84919
#
# Compressibility (1/GPa) = 0.01976804
#
# Stress axis : x y z
#
# Youngs Moduli (GPa) = 43.36583 144.48622 106.99560
#
# Poissons Ratio (x) = 0.58082 0.52097
# Poissons Ratio (y) = 0.17433 0.09527
# Poissons Ratio (z) = 0.21115 0.12866
#
# Static dielectric constant tensor:
#      x y z
#    x 1.833320 0.000000 0.003850 
#    y 0.000000 1.930130 0.000000 
#    z 0.003850 0.000000 1.756980 
# 
# From -- ./inp_files/45398.got.cif
#   From: 2010.05.17/outbox.cif.g08.bks.cpg/sg15_23_cif.got.tgz:45398.got - 2010.06.03 18:47:42.
