data_PCOD9291796
_publ_section_title
;
Structure prediction by ZEFSAII (Michael W. Deem and Ramdas Pophale) SiO2 
 PCOD9291796
Probable space group: C 2/C
;
_chemical_formula_sum "Si O2"
_cell_formula_units_Z 56
_cell_length_a 24.283141
_cell_length_b 5.448666
_cell_length_c 16.684944
_cell_angle_alpha 90.000000
_cell_angle_beta 68.391770
_cell_angle_gamma 90.000000
_cell_volume 2052.455058
_symmetry_space_group_name_H-M "C 2/C"
_symmetry_group_IT_number 15
_symmetry_cell_setting 'monoclinic'
loop_
_space_group_symop_operation_xyz
x,y,z
-x,y,1/2-z
-x,-y,-z
x,-y,1/2+z
1/2+x,1/2+y,z
1/2-x,1/2+y,1/2-z
1/2-x,1/2-y,-z
1/2+x,1/2-y,1/2+z
loop_
_atom_site_type_symbol
_atom_site_label
_atom_site_fract_x
_atom_site_fract_y
_atom_site_fract_z
Si Si1 0.750000 0.750000 0.500000
Si Si2 0.823917 0.911169 0.202232
Si Si3 0.559646 0.413284 0.864119
Si Si4 0.749805 0.352690 0.629181
Si Si5 0.680417 0.080108 0.152522
Si Si6 0.500000 0.635115 0.750000
Si Si7 0.557437 0.758819 0.007570
Si Si8 0.593581 0.754535 0.571679
O O1 0.756790 0.481225 0.541080
O O2 0.748723 0.866982 0.593878
O O3 0.871031 0.127646 0.165062
O O4 0.809697 0.774232 0.128119
O O5 0.846613 0.715946 0.257652
O O6 0.765403 0.001237 0.279256
O O7 0.540187 0.464368 0.784506
O O8 0.511359 0.233799 0.926993
O O9 0.554200 0.668370 0.917897
O O10 0.685940 0.207616 0.655469
O O11 0.656613 0.215271 0.083755
O O12 0.544155 0.782862 0.668334
O O13 0.583501 0.514362 0.039546
O O14 0.586850 0.012790 0.017382
#
# Coordination Sequence:
#
# PCOD9291796 Si02
#       8
#     4   8   8   8   8   4   8   8
#     4  10  26  42  70  98 144 184 246 300 360 436
#     4  11  23  44  68 102 144 190 241 304 374 433
#     4  10  23  46  71  99 142 189 240 299 375 434
#     4  11  24  44  69 105 144 188 248 302 362 449
#     4  11  24  44  68 103 140 190 238 304 367 442
#     4  10  22  42  72 102 136 182 238 302 356 438
#     4  10  26  47  69 107 146 186 246 300 368 451
#     4  11  25  45  72 104 145 187 240 302 368 440
#
# _framework density 27.284399000000001
#
# number of rings (size 3 to 8) (size 9 to 14) (size 15 to 20)
#    0.000    1.429    2.857    0.429    6.000    9.714 
#    2.571    0.000    0.000    0.000    0.000    0.000 
#    0.000    0.000    0.000    0.000    0.000    0.000 
#
# Total GULP energy -155930.561892 kJ/mol
# GULP energy per Si atom -5568.948639 kJ/mol
# Density = 2.722230 g / cm^3
# Si number density = 27.284399 Si / 1000 Ang^3
#
#
#
# Elastic Constant Matrix: (Units=GPa)
#
#
# Indices 1 2 3 4 5 6 
#
# 1 99.5689 41.6190 10.5026 0.0001 24.5851 0.0000
# 2 41.6190 79.9444 27.0240 0.0004 23.2443 0.0003
# 3 10.5026 27.0240 115.2477 0.0000 0.1042 0.0000
# 4 0.0001 0.0004 0.0000 45.2554 0.0000 9.2823
# 5 24.5851 23.2443 0.1042 0.0000 46.1875 0.0000
# 6 0.0000 0.0003 0.0000 9.2823 0.0000 29.8096
#
#
#
# Elastic Compliance Matrix: (Units=1/GPa)
#
#
# Indices 1 2 3 4 5 6 
#
# 1 0.013525 -0.005853 0.000144 0.000000 -0.004254 0.000000
# 2 -0.005853 0.018679 -0.003841 0.000000 -0.006276 0.000000
# 3 0.000144 -0.003841 0.009563 0.000000 0.001835 0.000000
# 4 0.000000 0.000000 0.000000 0.023604 0.000000 -0.007350
# 5 -0.004254 -0.006276 0.001835 0.000000 0.027070 0.000000
# 6 0.000000 0.000000 0.000000 -0.007350 0.000000 0.035835
#
#
# Mechanical properties :
#
#
# Convention : Reuss Voigt Hill
#
# Bulk Modulus (GPa) = 44.11750 50.33913 47.22831
# Shear Modulus (GPa) = 32.27239 38.62485 35.44862
#
# Velocity S-wave (km/s) = 3.44294 3.76658 3.60839
# Velocity P-wave (km/s) = 5.65771 6.11604 5.89134
#
# Compressibility (1/GPa) = 0.02266674
#
# Stress axis : x y z
#
# Youngs Moduli (GPa) = 73.93752 53.53649 104.57137
#
# Poissons Ratio (x) = 0.31334 -0.01503
# Poissons Ratio (y) = 0.43274 0.40165
# Poissons Ratio (z) = -0.01062 0.20563
#
# Static dielectric constant tensor:
#      x y z
#    x 1.762350 0.000000 0.249730 
#    y 0.000000 2.611880 0.000000 
#    z 0.249730 0.000000 1.982940 
# 
# From -- ./inp_files/221243.got.cif
#   From: 2010.05.17/outbox.cif.g08.bks.cpg/sg15_111_cif.got.tgz:221243.got - 2010.06.03 18:47:42.
