data_PCOD9291753
_publ_section_title
;
Structure prediction by ZEFSAII (Michael W. Deem and Ramdas Pophale) SiO2 
 PCOD9291753
Probable space group: C 2/C
;
_chemical_formula_sum "Si O2"
_cell_formula_units_Z 40
_cell_length_a 10.557781
_cell_length_b 29.950862
_cell_length_c 5.148415
_cell_angle_alpha 90.000000
_cell_angle_beta 67.502801
_cell_angle_gamma 90.000000
_cell_volume 1504.110219
_symmetry_space_group_name_H-M "C 2/C"
_symmetry_group_IT_number 15
_symmetry_cell_setting 'monoclinic'
loop_
_space_group_symop_operation_xyz
x,y,z
-x,y,1/2-z
-x,-y,-z
x,-y,1/2+z
1/2+x,1/2+y,z
1/2-x,1/2+y,1/2-z
1/2-x,1/2-y,-z
1/2+x,1/2-y,1/2+z
loop_
_atom_site_type_symbol
_atom_site_label
_atom_site_fract_x
_atom_site_fract_y
_atom_site_fract_z
Si Si1 0.500000 0.410494 0.250000
Si Si2 0.000000 0.531967 0.250000
Si Si3 0.786763 0.970191 0.671139
Si Si4 0.406627 0.154657 0.082951
Si Si5 0.351261 0.347782 0.999575
Si Si6 0.909707 0.756065 0.080475
O O1 0.421862 0.441895 0.513130
O O2 0.616054 0.379857 0.288988
O O3 0.146956 0.554465 0.183211
O O4 0.000000 0.500000 0.500000
O O5 0.786598 0.011895 0.465694
O O6 0.500000 0.139409 0.250000
O O7 0.263482 0.133909 0.101955
O O8 0.365818 0.206193 0.186244
O O9 0.500000 0.152665 0.750000
O O10 0.500000 0.343498 0.750000
O O11 0.307412 0.297328 0.115954
O O12 0.000000 0.772445 0.250000
O O13 0.000000 0.751404 0.750000
#
# Coordination Sequence:
#
# PCOD9291753 Si02
#       6
#     4   4   8   8   8   8
#     4  12  26  40  66 100 142 181 214 278 345 402
#     4   8  16  36  66  96 124 161 210 266 307 378
#     4  10  22  42  70  99 133 172 225 266 324 405
#     4  10  23  42  69  92 126 177 237 285 335 396
#     4  11  25  42  63  95 141 176 225 278 350 405
#     4   9  18  37  62  93 123 171 227 286 334 396
#
# _framework density 26.593796000000001
#
# number of rings (size 3 to 8) (size 9 to 14) (size 15 to 20)
#    0.000    2.000    1.000    1.200    5.600    0.000 
#    0.000   10.000    2.200    0.000    0.000    0.000 
#    0.000    0.200    0.000    0.000    0.000    0.000 
#
# Total GULP energy -111907.177064 kJ/mol
# GULP energy per Si atom -5595.358853 kJ/mol
# Density = 2.653327 g / cm^3
# Si number density = 26.593796 Si / 1000 Ang^3
#
#
#
# Elastic Constant Matrix: (Units=GPa)
#
#
# Indices 1 2 3 4 5 6 
#
# 1 207.4457 42.8013 39.0428 0.0000 30.5090 0.0000
# 2 42.8013 63.6321 4.4417 0.0000 3.7189 0.0000
# 3 39.0428 4.4417 121.7943 0.0000 19.9110 0.0000
# 4 0.0000 0.0000 0.0000 -8.3926 0.0000 -6.3786
# 5 30.5090 3.7189 19.9110 0.0000 53.6887 0.0000
# 6 0.0000 0.0000 0.0000 -6.3786 0.0000 6.6631
#
#
#
# Elastic Compliance Matrix: (Units=1/GPa)
#
#
# Indices 1 2 3 4 5 6 
#
# 1 0.006322 -0.003990 -0.001425 0.000000 -0.002788 0.000000
# 2 -0.003990 0.018318 0.000477 0.000000 0.000822 0.000000
# 3 -0.001425 0.000477 0.009073 0.000000 -0.002588 0.000000
# 4 0.000000 0.000000 0.000000 -0.068971 0.000000 -0.066026
# 5 -0.002788 0.000822 -0.002588 0.000000 0.021113 0.000000
# 6 0.000000 0.000000 0.000000 -0.066026 0.000000 0.086873
#
#
# Mechanical properties :
#
#
# Convention : Reuss Voigt Hill
#
# Bulk Modulus (GPa) = 41.95399 62.82707 52.39053
# Shear Modulus (GPa) = 55.21760 30.83093 43.02426
#
# Velocity S-wave (km/s) = 4.56162 3.40858 4.02659
# Velocity P-wave (km/s) = 6.59960 6.25838 6.43125
#
# Compressibility (1/GPa) = 0.02383564
#
# Stress axis : x y z
#
# Youngs Moduli (GPa) = 158.17753 54.59151 110.21488
#
# Poissons Ratio (x) = 0.21782 0.15710
# Poissons Ratio (y) = 0.63113 -0.05254
# Poissons Ratio (z) = 0.22546 -0.02602
#
# Static dielectric constant tensor:
#      x y z
#    x 1.729160 0.000000 0.210900 
#    y 0.000000 2.142800 0.000000 
#    z 0.210900 0.000000 1.853180 
# 
# From -- ./inp_files/5726.got.cif
#   From: 2010.05.17/outbox.cif.g08.bks.cpg/sg15_3_cif.got.tgz:5726.got - 2010.06.03 18:47:42.
