data_PCOD9291277
_publ_section_title
;
Structure prediction by ZEFSAII (Michael W. Deem and Ramdas Pophale) SiO2 
 PCOD9291277
Probable space group: C 2/C
;
_chemical_formula_sum "Si O2"
_cell_formula_units_Z 36
_cell_length_a 17.325608
_cell_length_b 21.294092
_cell_length_c 7.739415
_cell_angle_alpha 90.000000
_cell_angle_beta 140.214561
_cell_angle_gamma 90.000000
_cell_volume 1827.164497
_symmetry_space_group_name_H-M "C 2/C"
_symmetry_group_IT_number 15
_symmetry_cell_setting 'monoclinic'
loop_
_space_group_symop_operation_xyz
x,y,z
-x,y,1/2-z
-x,-y,-z
x,-y,1/2+z
1/2+x,1/2+y,z
1/2-x,1/2+y,1/2-z
1/2-x,1/2-y,-z
1/2+x,1/2-y,1/2+z
loop_
_atom_site_type_symbol
_atom_site_label
_atom_site_fract_x
_atom_site_fract_y
_atom_site_fract_z
Si Si1 0.161375 0.845183 0.863654
Si Si2 0.068567 0.291067 0.196252
Si Si3 0.236186 0.076504 0.813297
Si Si4 0.000000 0.633917 0.250000
Si Si5 0.362844 0.445595 0.981276
O O1 0.077522 0.784268 0.704790
O O2 0.135225 0.895055 0.668911
O O3 0.835739 0.878479 0.443962
O O4 0.296834 0.818927 0.069545
O O5 0.000000 0.310167 0.250000
O O6 0.003017 0.321131 0.920732
O O7 0.213192 0.005610 0.710550
O O8 0.377278 0.093859 0.043010
O O9 0.189945 0.081249 0.930308
O O10 0.500000 0.466891 0.250000
#
# Coordination Sequence:
#
# PCOD9291277 Si02
#       5
#     8   8   8   4   8
#     4  10  24  41  62  98 125 171 215 261 322 374
#     4  10  22  42  66  91 130 166 217 266 316 377
#     4  11  24  43  64  96 133 164 216 261 320 382
#     4  10  24  44  68  98 124 170 216 266 322 380
#     4  12  25  40  64  95 132 173 211 258 320 386
#
# _framework density 19.702660999999999
#
# number of rings (size 3 to 8) (size 9 to 14) (size 15 to 20)
#    0.000    1.333    2.222    2.000    4.667    0.889 
#    2.000    6.667    0.000    0.000    0.000    0.000 
#    0.000    0.000    0.000    0.000    0.000    0.000 
#
# Total GULP energy -100658.057559 kJ/mol
# GULP energy per Si atom -5592.114309 kJ/mol
# Density = 1.965782 g / cm^3
# Si number density = 19.702661 Si / 1000 Ang^3
#
#
#
# Elastic Constant Matrix: (Units=GPa)
#
#
# Indices 1 2 3 4 5 6 
#
# 1 102.1829 7.4051 52.0014 0.0000 -21.5530 0.0000
# 2 7.4051 74.9108 61.6681 0.0000 -5.6123 0.0000
# 3 52.0014 61.6681 106.9394 0.0000 -21.0505 0.0000
# 4 0.0000 0.0000 0.0000 4.7723 0.0000 -1.4728
# 5 -21.5530 -5.6123 -21.0505 0.0000 27.0782 0.0000
# 6 0.0000 0.0000 0.0000 -1.4728 0.0000 31.6428
#
#
#
# Elastic Compliance Matrix: (Units=1/GPa)
#
#
# Indices 1 2 3 4 5 6 
#
# 1 0.016310 0.008423 -0.011676 0.000000 0.005651 0.000000
# 2 0.008423 0.031023 -0.022905 0.000000 -0.004672 0.000000
# 3 -0.011676 -0.022905 0.030076 0.000000 0.009340 0.000000
# 4 0.000000 0.000000 0.000000 0.212598 0.000000 0.009895
# 5 0.005651 -0.004672 0.009340 0.000000 0.047720 0.000000
# 6 0.000000 0.000000 0.000000 0.009895 0.000000 0.032063
#
#
# Mechanical properties :
#
#
# Convention : Reuss Voigt Hill
#
# Bulk Modulus (GPa) = 39.85330 58.46469 49.15900
# Shear Modulus (GPa) = 11.61522 23.56255 17.58888
#
# Velocity S-wave (km/s) = 2.43065 3.46194 2.99108
# Velocity P-wave (km/s) = 5.30553 6.76151 6.07728
#
# Compressibility (1/GPa) = 0.02509202
#
# Stress axis : x y z
#
# Youngs Moduli (GPa) = 61.31305 32.23466 33.24939
#
# Poissons Ratio (x) = -0.27151 0.38821
# Poissons Ratio (y) = -0.51643 0.76158
# Poissons Ratio (z) = 0.71587 0.73834
#
# Static dielectric constant tensor:
#      x y z
#    x 1.669200 0.000000 0.009710 
#    y 0.000000 1.667400 0.000000 
#    z 0.009710 0.000000 1.650470 
# 
# From -- ./inp_files/50767.got.cif
#   From: 2010.05.17/outbox.cif.g08.bks.cpg/sg15_26_cif.got.tgz:50767.got - 2010.06.03 18:47:42.
