data_PCOD9291570
_publ_section_title
;
Structure prediction by ZEFSAII (Michael W. Deem and Ramdas Pophale) SiO2 
 PCOD9291570
Probable space group: C 2/C
;
_chemical_formula_sum "Si O2"
_cell_formula_units_Z 20
_cell_length_a 11.421629
_cell_length_b 15.878161
_cell_length_c 4.490676
_cell_angle_alpha 90.000000
_cell_angle_beta 83.000871
_cell_angle_gamma 90.000000
_cell_volume 808.335203
_symmetry_space_group_name_H-M "C 2/C"
_symmetry_group_IT_number 15
_symmetry_cell_setting 'monoclinic'
loop_
_space_group_symop_operation_xyz
x,y,z
-x,y,1/2-z
-x,-y,-z
x,-y,1/2+z
1/2+x,1/2+y,z
1/2-x,1/2+y,1/2-z
1/2-x,1/2-y,-z
1/2+x,1/2-y,1/2+z
loop_
_atom_site_type_symbol
_atom_site_label
_atom_site_fract_x
_atom_site_fract_y
_atom_site_fract_z
Si Si1 0.627796 0.940771 0.788418
Si Si2 0.500000 0.319060 0.250000
Si Si3 0.828963 0.181915 0.305257
O O1 0.500000 0.902811 0.750000
O O2 0.739979 0.884594 0.690948
O O3 0.631778 0.032118 0.630492
O O4 0.588321 0.360458 0.464790
O O5 0.409723 0.278372 0.518526
O O6 0.750000 0.250000 0.500000
#
# Coordination Sequence:
#
# PCOD9291570 Si02
#       3
#     8   4   8
#     4  10  22  42  68  98 130 174 225 275 334 391
#     4  10  24  42  60 104 126 174 232 256 346 396
#     4  11  23  43  69  93 139 175 225 276 329 398
#
# _framework density 24.74221
#
# number of rings (size 3 to 8) (size 9 to 14) (size 15 to 20)
#    0.000    1.600    0.000    3.600    2.800    0.000 
#   14.400   20.000    0.000    0.000    0.000    0.000 
#    0.000    0.000    0.000    0.000    0.000    0.000 
#
# Total GULP energy -55730.914763 kJ/mol
# GULP energy per Si atom -5573.091476 kJ/mol
# Density = 2.468590 g / cm^3
# Si number density = 24.742210 Si / 1000 Ang^3
#
#
#
# Elastic Constant Matrix: (Units=GPa)
#
#
# Indices 1 2 3 4 5 6 
#
# 1 188.7001 57.5882 74.8916 0.0000 5.6789 0.0000
# 2 57.5882 45.7380 20.5798 0.0000 -0.1472 0.0000
# 3 74.8916 20.5798 138.4762 0.0000 -14.7690 0.0000
# 4 0.0000 0.0000 0.0000 25.1919 0.0000 -1.0864
# 5 5.6789 -0.1472 -14.7690 0.0000 86.6942 0.0000
# 6 0.0000 0.0000 0.0000 -1.0864 0.0000 15.7235
#
#
#
# Elastic Compliance Matrix: (Units=1/GPa)
#
#
# Indices 1 2 3 4 5 6 
#
# 1 0.010407 -0.011261 -0.004104 0.000000 -0.001400 0.000000
# 2 -0.011261 0.035643 0.000895 0.000000 0.000951 0.000000
# 3 -0.004104 0.000895 0.009510 0.000000 0.001890 0.000000
# 4 0.000000 0.000000 0.000000 0.039814 0.000000 0.002751
# 5 -0.001400 0.000951 0.001890 0.000000 0.011950 0.000000
# 6 0.000000 0.000000 0.000000 0.002751 0.000000 0.063789
#
#
# Mechanical properties :
#
#
# Convention : Reuss Voigt Hill
#
# Bulk Modulus (GPa) = 37.56794 75.44818 56.50806
# Shear Modulus (GPa) = 23.93164 40.17888 32.05526
#
# Velocity S-wave (km/s) = 3.11342 4.03414 3.60331
# Velocity P-wave (km/s) = 5.30483 7.22903 6.34035
#
# Compressibility (1/GPa) = 0.02661844
#
# Stress axis : x y z
#
# Youngs Moduli (GPa) = 96.08689 28.05574 105.15502
#
# Poissons Ratio (x) = 0.31595 0.43158
# Poissons Ratio (y) = 1.08208 -0.09408
# Poissons Ratio (z) = 0.39436 -0.02510
#
# Static dielectric constant tensor:
#      x y z
#    x 2.011960 0.000000 0.015320 
#    y 0.000000 1.922910 0.000000 
#    z 0.015320 0.000000 1.946010 
# 
# From -- ./inp_files/2981.got.cif
#   From: 2010.05.17/outbox.cif.g08.bks.cpg/sg15_2_cif.got.tgz:2981.got - 2010.06.03 18:47:42.
