data_PCOD9291158
_publ_section_title
;
Structure prediction by ZEFSAII (Michael W. Deem and Ramdas Pophale) SiO2 
 PCOD9291158
Probable space group: C 2/C
;
_chemical_formula_sum "Si O2"
_cell_formula_units_Z 52
_cell_length_a 26.728399
_cell_length_b 6.536684
_cell_length_c 23.313213
_cell_angle_alpha 90.000000
_cell_angle_beta 142.005767
_cell_angle_gamma 90.000000
_cell_volume 2507.370954
_symmetry_space_group_name_H-M "C 2/C"
_symmetry_group_IT_number 15
_symmetry_cell_setting 'monoclinic'
loop_
_space_group_symop_operation_xyz
x,y,z
-x,y,1/2-z
-x,-y,-z
x,-y,1/2+z
1/2+x,1/2+y,z
1/2-x,1/2+y,1/2-z
1/2-x,1/2-y,-z
1/2+x,1/2-y,1/2+z
loop_
_atom_site_type_symbol
_atom_site_label
_atom_site_fract_x
_atom_site_fract_y
_atom_site_fract_z
Si Si1 0.645682 0.531769 0.888700
Si Si2 0.613236 0.279075 0.470868
Si Si3 0.735974 0.934429 0.603069
Si Si4 0.676980 0.443253 0.121258
Si Si5 0.500000 0.777425 0.250000
Si Si6 0.676041 0.243067 0.235473
Si Si7 0.058754 0.642854 0.226842
O O1 0.669513 0.620473 0.972054
O O2 0.716520 0.434252 0.914286
O O3 0.575140 0.365430 0.835205
O O4 0.607162 0.719513 0.816979
O O5 0.652691 0.060709 0.520215
O O6 0.615876 0.419672 0.529205
O O7 0.524164 0.257160 0.364766
O O8 0.790779 0.068094 0.696372
O O9 0.717128 0.718367 0.614018
O O10 0.642764 0.325110 0.145291
O O11 0.747935 0.594619 0.207118
O O12 0.533374 0.927461 0.230889
O O13 0.612317 0.127667 0.218219
#
# Coordination Sequence:
#
# PCOD9291158 Si02
#       7
#     8   8   8   8   4   8   8
#     4  11  22  41  62  93 123 167 205 241 307 374
#     4  11  23  39  59  96 131 153 199 259 306 362
#     4  10  23  39  66  87 123 163 203 258 304 359
#     4  11  22  41  65  90 118 161 213 254 302 363
#     4  12  20  38  66  86 124 170 202 242 300 372
#     4  10  22  42  65  87 118 166 212 252 303 366
#     4  11  23  41  62  90 130 164 199 252 311 362
#
# _framework density 20.738852000000001
#
# number of rings (size 3 to 8) (size 9 to 14) (size 15 to 20)
#    0.000    1.231    4.615    1.385    2.154    1.231 
#    0.000    0.769    0.000    0.000    0.000    0.000 
#    0.000    0.000    0.000    0.000    0.000    0.000 
#
# Total GULP energy -145375.755243 kJ/mol
# GULP energy per Si atom -5591.375202 kJ/mol
# Density = 2.069165 g / cm^3
# Si number density = 20.738852 Si / 1000 Ang^3
#
#
#
# Elastic Constant Matrix: (Units=GPa)
#
#
# Indices 1 2 3 4 5 6 
#
# 1 46.1811 -4.4402 4.6150 -0.0005 -17.5398 -0.0006
# 2 -4.4402 70.4258 7.6156 -0.0005 -6.1352 0.0000
# 3 4.6150 7.6156 53.2818 -0.0003 -21.5236 -0.0003
# 4 -0.0005 -0.0005 -0.0003 10.9148 -0.0001 -9.2189
# 5 -17.5398 -6.1352 -21.5236 -0.0001 25.6879 0.0000
# 6 -0.0006 0.0000 -0.0003 -9.2189 0.0000 22.4062
#
#
#
# Elastic Compliance Matrix: (Units=1/GPa)
#
#
# Indices 1 2 3 4 5 6 
#
# 1 0.032885 0.003787 0.009140 0.000005 0.031017 0.000003
# 2 0.003787 0.014974 0.000032 0.000002 0.006189 0.000001
# 3 0.009140 0.000032 0.030983 0.000003 0.032209 0.000002
# 4 0.000005 0.000002 0.000003 0.140416 0.000007 0.057774
# 5 0.031017 0.006189 0.032209 0.000007 0.088572 0.000004
# 6 0.000003 0.000001 0.000002 0.057774 0.000004 0.068401
#
#
# Mechanical properties :
#
#
# Convention : Reuss Voigt Hill
#
# Bulk Modulus (GPa) = 9.54575 20.60770 15.07673
# Shear Modulus (GPa) = 12.97914 22.60833 17.79373
#
# Velocity S-wave (km/s) = 2.50439 3.30531 2.93232
# Velocity P-wave (km/s) = 3.60214 4.95229 4.33016
#
# Compressibility (1/GPa) = 0.10475865
#
# Stress axis : x y z
#
# Youngs Moduli (GPa) = 30.40911 66.78333 32.27588
#
# Poissons Ratio (x) = -0.25291 -0.29499
# Poissons Ratio (y) = -0.11516 -0.00102
# Poissons Ratio (z) = -0.27793 -0.00212
#
# Static dielectric constant tensor:
#      x y z
#    x 1.759110 0.000000 -0.010490 
#    y 0.000000 1.737720 0.000000 
#    z -0.010490 0.000000 1.727550 
# 
# From -- ./inp_files/220970.got.cif
#   From: 2010.05.17/outbox.cif.g08.bks.cpg/sg15_111_cif.got.tgz:220970.got - 2010.06.03 18:47:42.
