data_PCOD9291930
_publ_section_title
;
Structure prediction by ZEFSAII (Michael W. Deem and Ramdas Pophale) SiO2 
 PCOD9291930
Probable space group: C 2/C
;
_chemical_formula_sum "Si O2"
_cell_formula_units_Z 40
_cell_length_a 13.095419
_cell_length_b 17.929483
_cell_length_c 9.020683
_cell_angle_alpha 90.000000
_cell_angle_beta 119.803049
_cell_angle_gamma 90.000000
_cell_volume 1837.873884
_symmetry_space_group_name_H-M "C 2/C"
_symmetry_group_IT_number 15
_symmetry_cell_setting 'monoclinic'
loop_
_space_group_symop_operation_xyz
x,y,z
-x,y,1/2-z
-x,-y,-z
x,-y,1/2+z
1/2+x,1/2+y,z
1/2-x,1/2+y,1/2-z
1/2-x,1/2-y,-z
1/2+x,1/2-y,1/2+z
loop_
_atom_site_type_symbol
_atom_site_label
_atom_site_fract_x
_atom_site_fract_y
_atom_site_fract_z
Si Si1 0.481215 0.837763 0.986077
Si Si2 0.867710 0.072340 0.132781
Si Si3 0.807747 0.328607 0.584704
Si Si4 0.500000 0.716189 0.250000
Si Si5 0.755478 0.525534 0.166064
Si Si6 0.500000 0.040636 0.750000
O O1 0.498776 0.766595 0.104132
O O2 0.462328 0.905744 0.086782
O O3 0.378904 0.823960 0.792054
O O4 0.599266 0.849326 0.976176
O O5 0.888301 0.160554 0.164339
O O6 0.780641 0.041683 0.193475
O O7 0.000000 0.041511 0.250000
O O8 0.816743 0.045603 0.941538
O O9 0.750000 0.250000 0.500000
O O10 0.723333 0.399672 0.549933
O O11 0.891617 0.508223 0.230739
#
# Coordination Sequence:
#
# PCOD9291930 Si02
#       6
#     8   8   8   4   8   4
#     4  10  22  43  62  95 132 166 215 259 318 389
#     4  10  24  42  66  95 128 169 213 265 320 379
#     4  11  24  40  64  93 130 172 210 263 321 380
#     4   9  22  42  66  91 128 172 216 261 318 380
#     4  12  23  43  65  99 128 166 216 265 326 380
#     4  11  24  40  72  97 130 168 212 273 322 382
#
# _framework density 21.764279999999999
#
# number of rings (size 3 to 8) (size 9 to 14) (size 15 to 20)
#    0.600    0.800    0.000    5.400    0.000    5.600 
#    3.600    5.000    0.000    0.000    0.000    0.000 
#    0.000    0.000    0.000    0.000    0.000    0.000 
#
# Total GULP energy -111799.981820 kJ/mol
# GULP energy per Si atom -5589.999091 kJ/mol
# Density = 2.171474 g / cm^3
# Si number density = 21.764280 Si / 1000 Ang^3
#
#
#
# Elastic Constant Matrix: (Units=GPa)
#
#
# Indices 1 2 3 4 5 6 
#
# 1 65.9084 8.3833 19.1057 0.0000 -8.3210 0.0000
# 2 8.3833 114.2030 43.0039 0.0000 -8.5136 0.0000
# 3 19.1057 43.0039 96.1607 0.0000 -22.2242 0.0000
# 4 0.0000 0.0000 0.0000 38.0406 0.0000 -1.9220
# 5 -8.3210 -8.5136 -22.2242 0.0000 36.4211 0.0000
# 6 0.0000 0.0000 0.0000 -1.9220 0.0000 45.8136
#
#
#
# Elastic Compliance Matrix: (Units=1/GPa)
#
#
# Indices 1 2 3 4 5 6 
#
# 1 0.016227 -0.000003 -0.002755 0.000000 0.002026 0.000000
# 2 -0.000003 0.010537 -0.004823 0.000000 -0.000480 0.000000
# 3 -0.002755 -0.004823 0.014782 0.000000 0.007263 0.000000
# 4 0.000000 0.000000 0.000000 0.026344 0.000000 0.001105
# 5 0.002026 -0.000480 0.007263 0.000000 0.032239 0.000000
# 6 0.000000 0.000000 0.000000 0.001105 0.000000 0.021874
#
#
# Mechanical properties :
#
#
# Convention : Reuss Voigt Hill
#
# Bulk Modulus (GPa) = 37.89935 46.36200 42.13067
# Shear Modulus (GPa) = 34.25645 37.77367 36.01506
#
# Velocity S-wave (km/s) = 3.97164 4.17055 4.07231
# Velocity P-wave (km/s) = 6.20349 6.67379 6.44293
#
# Compressibility (1/GPa) = 0.02638568
#
# Stress axis : x y z
#
# Youngs Moduli (GPa) = 61.62490 94.90632 67.65029
#
# Poissons Ratio (x) = 0.00028 0.18635
# Poissons Ratio (y) = 0.00018 0.32625
# Poissons Ratio (z) = 0.16975 0.45769
#
# Static dielectric constant tensor:
#      x y z
#    x 1.783070 0.000000 0.031830 
#    y 0.000000 1.805320 0.000000 
#    z 0.031830 0.000000 1.798740 
# 
# From -- ./inp_files/39441.got.cif
#   From: 2010.05.17/outbox.cif.g08.bks.cpg/sg15_20_cif.got.tgz:39441.got - 2010.06.03 18:47:42.
