data_PCOD9291278
_publ_section_title
;
Structure prediction by ZEFSAII (Michael W. Deem and Ramdas Pophale) SiO2 
 PCOD9291278
Probable space group: C 2/C
;
_chemical_formula_sum "Si O2"
_cell_formula_units_Z 56
_cell_length_a 17.136808
_cell_length_b 8.028651
_cell_length_c 26.414695
_cell_angle_alpha 90.000000
_cell_angle_beta 134.557020
_cell_angle_gamma 90.000000
_cell_volume 2589.613892
_symmetry_space_group_name_H-M "C 2/C"
_symmetry_group_IT_number 15
_symmetry_cell_setting 'monoclinic'
loop_
_space_group_symop_operation_xyz
x,y,z
-x,y,1/2-z
-x,-y,-z
x,-y,1/2+z
1/2+x,1/2+y,z
1/2-x,1/2+y,1/2-z
1/2-x,1/2-y,-z
1/2+x,1/2-y,1/2+z
loop_
_atom_site_type_symbol
_atom_site_label
_atom_site_fract_x
_atom_site_fract_y
_atom_site_fract_z
Si Si1 0.539628 0.032862 0.574949
Si Si2 0.349001 0.578691 0.764204
Si Si3 0.203198 0.734599 0.165023
Si Si4 0.375470 0.537745 0.960662
Si Si5 0.249510 0.778789 0.369424
Si Si6 0.430188 0.488671 0.666716
Si Si7 0.621398 0.263380 0.939796
O O1 0.642458 0.151845 0.609850
O O2 0.448743 0.113391 0.569017
O O3 0.500000 0.000000 0.500000
O O4 0.591811 0.869386 0.622898
O O5 0.298428 0.404781 0.717833
O O6 0.290149 0.622542 0.789786
O O7 0.329528 0.728638 0.715286
O O8 0.478845 0.566630 0.829117
O O9 0.181561 0.817832 0.100214
O O10 0.293258 0.382529 0.917467
O O11 0.500000 0.500000 0.000000
O O12 0.394980 0.591180 0.026773
O O13 0.180923 0.906104 0.374193
O O14 0.500000 0.476532 0.750000
O O15 0.407605 0.312961 0.630369
O O16 0.750000 0.250000 0.000000
#
# Coordination Sequence:
#
# PCOD9291278 Si02
#       7
#     8   8   8   8   8   8   8
#     4  11  21  41  65  95 134 178 227 283 347 420
#     4  10  23  40  67  97 137 183 233 286 354 419
#     4  11  23  38  69  99 137 181 238 289 350 429
#     4  12  23  41  70 100 135 179 237 294 347 431
#     4  10  22  42  66  91 131 183 230 281 348 417
#     4  10  24  44  67  91 143 184 227 296 354 415
#     4  12  26  40  67 106 138 178 233 288 361 413
#
# _framework density 21.624844
#
# number of rings (size 3 to 8) (size 9 to 14) (size 15 to 20)
#    0.000    1.143    2.857    2.571    8.000    1.714 
#    0.000    0.000    0.000    0.000    0.000    0.000 
#    0.000    0.000    0.000    0.000    0.000    0.000 
#
# Total GULP energy -155988.118129 kJ/mol
# GULP energy per Si atom -5571.004219 kJ/mol
# Density = 2.157562 g / cm^3
# Si number density = 21.624844 Si / 1000 Ang^3
#
#
#
# Elastic Constant Matrix: (Units=GPa)
#
#
# Indices 1 2 3 4 5 6 
#
# 1 109.0825 36.9834 22.4275 0.0000 24.5252 0.0000
# 2 36.9834 70.5122 30.7521 0.0000 0.6451 0.0000
# 3 22.4275 30.7521 68.3622 0.0000 -0.8843 0.0000
# 4 0.0000 0.0000 0.0000 49.3808 0.0000 0.0099
# 5 24.5252 0.6451 -0.8843 0.0000 36.1926 0.0000
# 6 0.0000 0.0000 0.0000 0.0099 0.0000 41.2660
#
#
#
# Elastic Compliance Matrix: (Units=1/GPa)
#
#
# Indices 1 2 3 4 5 6 
#
# 1 0.013773 -0.006365 -0.001775 0.000000 -0.009263 0.000000
# 2 -0.006365 0.020594 -0.007127 0.000000 0.003772 0.000000
# 3 -0.001775 -0.007127 0.018439 0.000000 0.001780 0.000000
# 4 0.000000 0.000000 0.000000 0.020251 0.000000 -0.000005
# 5 -0.009263 0.003772 0.001780 0.000000 0.033883 0.000000
# 6 0.000000 0.000000 0.000000 -0.000005 0.000000 0.024233
#
#
# Mechanical properties :
#
#
# Convention : Reuss Voigt Hill
#
# Bulk Modulus (GPa) = 44.89913 47.58700 46.24306
# Shear Modulus (GPa) = 29.56278 35.88747 32.72512
#
# Velocity S-wave (km/s) = 3.70141 4.07817 3.89435
# Velocity P-wave (km/s) = 6.25100 6.65048 6.45383
#
# Compressibility (1/GPa) = 0.02227215
#
# Stress axis : x y z
#
# Youngs Moduli (GPa) = 72.60643 48.55752 54.23166
#
# Poissons Ratio (x) = 0.30907 0.09627
# Poissons Ratio (y) = 0.46214 0.38652
# Poissons Ratio (z) = 0.12888 0.34608
#
# Static dielectric constant tensor:
#      x y z
#    x 1.895830 0.000000 0.304180 
#    y 0.000000 1.887500 0.000000 
#    z 0.304180 0.000000 2.458470 
# 
# From -- ./inp_files/298582.got.cif
#   From: 2010.05.17/outbox.cif.g08.bks.cpg/sg15_150_cif.got.tgz:298582.got - 2010.06.03 18:47:42.
