data_PCOD9291436
_publ_section_title
;
Structure prediction by ZEFSAII (Michael W. Deem and Ramdas Pophale) SiO2 
 PCOD9291436
Probable space group: C 2/C
;
_chemical_formula_sum "Si O2"
_cell_formula_units_Z 36
_cell_length_a 13.342907
_cell_length_b 21.486421
_cell_length_c 9.219726
_cell_angle_alpha 90.000000
_cell_angle_beta 45.019781
_cell_angle_gamma 90.000000
_cell_volume 1869.680688
_symmetry_space_group_name_H-M "C 2/C"
_symmetry_group_IT_number 15
_symmetry_cell_setting 'monoclinic'
loop_
_space_group_symop_operation_xyz
x,y,z
-x,y,1/2-z
-x,-y,-z
x,-y,1/2+z
1/2+x,1/2+y,z
1/2-x,1/2+y,1/2-z
1/2-x,1/2-y,-z
1/2+x,1/2-y,1/2+z
loop_
_atom_site_type_symbol
_atom_site_label
_atom_site_fract_x
_atom_site_fract_y
_atom_site_fract_z
Si Si1 0.885904 0.748987 0.261974
Si Si2 0.850636 0.797361 0.976903
Si Si3 0.830869 0.942124 0.955915
Si Si4 0.000000 0.626459 0.250000
Si Si5 0.151291 0.521148 0.915662
O O1 0.750000 0.750000 0.500000
O O2 0.934929 0.676391 0.201725
O O3 0.000000 0.781554 0.250000
O O4 0.861778 0.781462 0.134949
O O5 0.810645 0.868227 0.987448
O O6 0.000000 0.787605 0.750000
O O7 0.750000 0.750000 0.000000
O O8 0.000000 0.954467 0.750000
O O9 0.726458 0.971085 0.942586
O O10 0.767736 0.966877 0.172255
O O11 0.888925 0.581832 0.445769
O O12 0.000000 0.500000 0.000000
#
# Coordination Sequence:
#
# PCOD9291436 Si02
#       5
#     8   8   8   4   8
#     4  10  22  42  67  96 134 175 227 274 336 412
#     4  11  25  41  65 101 138 178 221 285 342 397
#     4  11  26  44  66 100 139 177 229 282 351 398
#     4  10  24  40  72  98 132 174 242 270 338 406
#     4  12  23  45  69  99 134 182 229 281 335 417
#
# _framework density 19.254625999999998
#
# number of rings (size 3 to 8) (size 9 to 14) (size 15 to 20)
#    0.667    0.444    2.222    3.333    6.222    0.000 
#    0.000    2.222    0.000    0.000    0.000    0.000 
#    0.000    0.000    0.000    0.000    0.000    0.000 
#
# Total GULP energy -100358.500811 kJ/mol
# GULP energy per Si atom -5575.472267 kJ/mol
# Density = 1.921080 g / cm^3
# Si number density = 19.254626 Si / 1000 Ang^3
#
#
#
# Elastic Constant Matrix: (Units=GPa)
#
#
# Indices 1 2 3 4 5 6 
#
# 1 133.8742 84.7625 56.0677 0.0000 8.0177 0.0000
# 2 84.7625 132.2427 65.5980 0.0000 -3.0759 0.0000
# 3 56.0677 65.5980 151.8698 0.0000 17.1069 0.0000
# 4 0.0000 0.0000 0.0000 34.4136 0.0000 -3.5869
# 5 8.0177 -3.0759 17.1069 0.0000 24.3714 0.0000
# 6 0.0000 0.0000 0.0000 -3.5869 0.0000 42.7111
#
#
#
# Elastic Compliance Matrix: (Units=1/GPa)
#
#
# Indices 1 2 3 4 5 6 
#
# 1 0.013324 -0.008253 -0.000807 0.000000 -0.004858 0.000000
# 2 -0.008253 0.015210 -0.004392 0.000000 0.007718 0.000000
# 3 -0.000807 -0.004392 0.009569 0.000000 -0.007005 0.000000
# 4 0.000000 0.000000 0.000000 0.029315 0.000000 0.002462
# 5 -0.004858 0.007718 -0.007005 0.000000 0.048521 0.000000
# 6 0.000000 0.000000 0.000000 0.002462 0.000000 0.023620
#
#
# Mechanical properties :
#
#
# Convention : Reuss Voigt Hill
#
# Bulk Modulus (GPa) = 89.29797 92.31591 90.80694
# Shear Modulus (GPa) = 29.37797 34.40310 31.89054
#
# Velocity S-wave (km/s) = 3.91034 4.23158 4.07412
# Velocity P-wave (km/s) = 8.17715 8.48079 8.33035
#
# Compressibility (1/GPa) = 0.01119846
#
# Stress axis : x y z
#
# Youngs Moduli (GPa) = 75.05292 65.74696 104.50659
#
# Poissons Ratio (x) = 0.54260 0.08434
# Poissons Ratio (y) = 0.61940 0.45901
# Poissons Ratio (z) = 0.06057 0.28877
#
# Static dielectric constant tensor:
#      x y z
#    x 1.652610 0.000000 0.001900 
#    y 0.000000 1.634690 0.000000 
#    z 0.001900 0.000000 1.658170 
# 
# From -- ./inp_files/31687.got.cif
#   From: 2010.05.17/outbox.cif.g08.bks.cpg/sg15_16_cif.got.tgz:31687.got - 2010.06.03 18:47:42.
