data_PCOD9291219
_publ_section_title
;
Structure prediction by ZEFSAII (Michael W. Deem and Ramdas Pophale) SiO2 
 PCOD9291219
Probable space group: C 2/C
;
_chemical_formula_sum "Si O2"
_cell_formula_units_Z 40
_cell_length_a 6.075313
_cell_length_b 25.702903
_cell_length_c 13.242229
_cell_angle_alpha 90.000000
_cell_angle_beta 116.835180
_cell_angle_gamma 90.000000
_cell_volume 1845.130590
_symmetry_space_group_name_H-M "C 2/C"
_symmetry_group_IT_number 15
_symmetry_cell_setting 'monoclinic'
loop_
_space_group_symop_operation_xyz
x,y,z
-x,y,1/2-z
-x,-y,-z
x,-y,1/2+z
1/2+x,1/2+y,z
1/2-x,1/2+y,1/2-z
1/2-x,1/2-y,-z
1/2+x,1/2-y,1/2+z
loop_
_atom_site_type_symbol
_atom_site_label
_atom_site_fract_x
_atom_site_fract_y
_atom_site_fract_z
Si Si1 0.018532 0.943266 0.552894
Si Si2 0.000000 0.700528 0.750000
Si Si3 0.759977 0.141868 0.130869
Si Si4 0.102340 0.715035 0.551717
Si Si5 0.000000 0.410445 0.750000
Si Si6 0.983869 0.128702 0.853995
O O1 0.259713 0.943128 0.673537
O O2 0.818798 0.910490 0.577991
O O3 0.034118 0.907063 0.458462
O O4 0.000000 0.000000 0.500000
O O5 0.054283 0.732532 0.658030
O O6 0.234332 0.662350 0.816910
O O7 0.549224 0.126327 0.165626
O O8 0.000000 0.153021 0.250000
O O9 0.649111 0.189470 0.043628
O O10 0.250000 0.750000 0.500000
O O11 0.292568 0.668480 0.607179
O O12 0.000000 0.099283 0.750000
#
# Coordination Sequence:
#
# PCOD9291219 Si02
#       6
#     8   4   8   8   4   8
#     4  11  23  41  68 100 137 184 230 284 347 418
#     4  10  22  45  68  98 138 176 232 287 356 412
#     4  10  22  44  69  98 140 182 227 290 351 413
#     4  11  23  45  71  99 134 181 234 290 355 421
#     4  10  22  43  62  98 140 178 238 277 344 424
#     4  10  22  42  65  97 134 175 227 289 345 411
#
# _framework density 21.678681999999998
#
# number of rings (size 3 to 8) (size 9 to 14) (size 15 to 20)
#    0.000    1.600    4.000    0.000    0.000    4.800 
#    7.200    0.000    0.000    0.000    0.000    0.000 
#    0.000    0.000    0.000    0.000    0.000    0.000 
#
# Total GULP energy -111502.113507 kJ/mol
# GULP energy per Si atom -5575.105675 kJ/mol
# Density = 2.162934 g / cm^3
# Si number density = 21.678682 Si / 1000 Ang^3
#
#
#
# Elastic Constant Matrix: (Units=GPa)
#
#
# Indices 1 2 3 4 5 6 
#
# 1 83.4588 31.3330 42.4761 0.0000 -12.7705 0.0000
# 2 31.3330 73.5137 40.2171 0.0000 -11.4055 0.0000
# 3 42.4761 40.2171 130.8489 0.0000 -28.3583 0.0000
# 4 0.0000 0.0000 0.0000 26.6790 0.0000 -0.4175
# 5 -12.7705 -11.4055 -28.3583 0.0000 64.4404 0.0000
# 6 0.0000 0.0000 0.0000 -0.4175 0.0000 8.6543
#
#
#
# Elastic Compliance Matrix: (Units=1/GPa)
#
#
# Indices 1 2 3 4 5 6 
#
# 1 0.015606 -0.004632 -0.003482 0.000000 0.000741 0.000000
# 2 -0.004632 0.017761 -0.003839 0.000000 0.000536 0.000000
# 3 -0.003482 -0.003839 0.010674 0.000000 0.003328 0.000000
# 4 0.000000 0.000000 0.000000 0.037511 0.000000 0.001809
# 5 0.000741 0.000536 0.003328 0.000000 0.017224 0.000000
# 6 0.000000 0.000000 0.000000 0.001809 0.000000 0.115636
#
#
# Mechanical properties :
#
#
# Convention : Reuss Voigt Hill
#
# Bulk Modulus (GPa) = 49.66483 57.31931 53.49207
# Shear Modulus (GPa) = 20.40568 31.54108 25.97338
#
# Velocity S-wave (km/s) = 3.07135 3.81850 3.46512
# Velocity P-wave (km/s) = 5.96128 6.77784 6.38263
#
# Compressibility (1/GPa) = 0.02013497
#
# Stress axis : x y z
#
# Youngs Moduli (GPa) = 64.07624 56.30465 93.68696
#
# Poissons Ratio (x) = 0.26080 0.32621
# Poissons Ratio (y) = 0.29680 0.35966
# Poissons Ratio (z) = 0.22311 0.21615
#
# Static dielectric constant tensor:
#      x y z
#    x 2.813890 0.000000 -0.861240 
#    y 0.000000 1.805990 0.000000 
#    z -0.861240 0.000000 2.618370 
# 
# From -- ./inp_files/73126.got.cif
#   From: 2010.05.17/outbox.cif.g08.bks.cpg/sg15_37_cif.got.tgz:73126.got - 2010.06.03 18:47:42.
