data_PCOD9291532
_publ_section_title
;
Structure prediction by ZEFSAII (Michael W. Deem and Ramdas Pophale) SiO2 
 PCOD9291532
Probable space group: C 2/C
;
_chemical_formula_sum "Si O2"
_cell_formula_units_Z 44
_cell_length_a 9.823942
_cell_length_b 19.995190
_cell_length_c 10.955573
_cell_angle_alpha 90.000000
_cell_angle_beta 98.847203
_cell_angle_gamma 90.000000
_cell_volume 2126.415868
_symmetry_space_group_name_H-M "C 2/C"
_symmetry_group_IT_number 15
_symmetry_cell_setting 'monoclinic'
loop_
_space_group_symop_operation_xyz
x,y,z
-x,y,1/2-z
-x,-y,-z
x,-y,1/2+z
1/2+x,1/2+y,z
1/2-x,1/2+y,1/2-z
1/2-x,1/2-y,-z
1/2+x,1/2-y,1/2+z
loop_
_atom_site_type_symbol
_atom_site_label
_atom_site_fract_x
_atom_site_fract_y
_atom_site_fract_z
Si Si1 0.674712 0.872859 0.165537
Si Si2 0.435552 0.073283 0.486840
Si Si3 0.677154 0.448772 0.096883
Si Si4 0.000000 0.347887 0.750000
Si Si5 0.274306 0.726438 0.363884
Si Si6 0.383896 0.598039 0.471704
O O1 0.739645 0.919997 0.277209
O O2 0.686350 0.794487 0.199029
O O3 0.519008 0.887231 0.103118
O O4 0.767737 0.889304 0.058514
O O5 0.275193 0.066873 0.495254
O O6 0.467011 0.107048 0.362563
O O7 0.500000 0.000000 0.500000
O O8 0.652575 0.528543 0.100760
O O9 0.530271 0.413595 0.056938
O O10 0.868228 0.302499 0.705205
O O11 0.250000 0.750000 0.500000
O O12 0.378443 0.663721 0.385987
#
# Coordination Sequence:
#
# PCOD9291532 Si02
#       6
#     8   8   8   4   8   8
#     4  11  23  42  70  95 133 175 219 270 329 400
#     4  12  25  41  66 100 131 175 224 268 331 393
#     4  11  24  40  68 103 134 164 219 289 323 383
#     4  12  24  44  72  92 134 184 220 272 326 400
#     4  10  22  42  68  95 126 179 225 253 322 412
#     4  10  22  43  65  98 133 174 221 262 337 394
#
# _framework density 20.692094999999998
#
# number of rings (size 3 to 8) (size 9 to 14) (size 15 to 20)
#    0.000    1.091    5.455    1.091   10.182    0.000 
#    0.000    6.364    0.000    0.000    0.000    0.000 
#    0.000    0.000    0.000    0.000    0.000    0.000 
#
# Total GULP energy -122959.392220 kJ/mol
# GULP energy per Si atom -5589.063283 kJ/mol
# Density = 2.064500 g / cm^3
# Si number density = 20.692095 Si / 1000 Ang^3
#
#
#
# Elastic Constant Matrix: (Units=GPa)
#
#
# Indices 1 2 3 4 5 6 
#
# 1 60.4068 17.1189 -3.7692 0.0000 17.9006 0.0000
# 2 17.1189 147.9095 47.3794 0.0000 18.9640 0.0000
# 3 -3.7692 47.3794 89.5081 0.0000 19.1777 0.0000
# 4 0.0000 0.0000 0.0000 38.0630 0.0000 8.5457
# 5 17.9006 18.9640 19.1777 0.0000 22.7170 0.0000
# 6 0.0000 0.0000 0.0000 8.5457 0.0000 23.5275
#
#
#
# Elastic Compliance Matrix: (Units=1/GPa)
#
#
# Indices 1 2 3 4 5 6 
#
# 1 0.024659 -0.002131 0.007262 0.000000 -0.023782 0.000000
# 2 -0.002131 0.008612 -0.004233 0.000000 -0.001936 0.000000
# 3 0.007262 -0.004233 0.017321 0.000000 -0.016810 0.000000
# 4 0.000000 0.000000 0.000000 0.028605 0.000000 -0.010390
# 5 -0.023782 -0.001936 -0.016810 0.000000 0.078568 0.000000
# 6 0.000000 0.000000 0.000000 -0.010390 0.000000 0.046277
#
#
# Mechanical properties :
#
#
# Convention : Reuss Voigt Hill
#
# Bulk Modulus (GPa) = 19.08890 46.58695 32.83792
# Shear Modulus (GPa) = 22.75744 32.66784 27.71264
#
# Velocity S-wave (km/s) = 3.31994 3.97767 3.66360
# Velocity P-wave (km/s) = 4.89298 6.60750 5.81379
#
# Compressibility (1/GPa) = 0.05238647
#
# Stress axis : x y z
#
# Youngs Moduli (GPa) = 40.55320 116.11910 57.73477
#
# Poissons Ratio (x) = 0.24744 -0.41927
# Poissons Ratio (y) = 0.08642 0.24442
# Poissons Ratio (z) = -0.29449 0.49158
#
# Static dielectric constant tensor:
#      x y z
#    x 1.729870 0.000000 -0.022770 
#    y 0.000000 1.738690 0.000000 
#    z -0.022770 0.000000 1.744990 
# 
# From -- ./inp_files/78380.got.cif
#   From: 2010.05.17/outbox.cif.g08.bks.cpg/sg15_40_cif.got.tgz:78380.got - 2010.06.03 18:47:42.
