data_PCOD9291298
_publ_section_title
;
Structure prediction by ZEFSAII (Michael W. Deem and Ramdas Pophale) SiO2 
 PCOD9291298
Probable space group: C 2/C
;
_chemical_formula_sum "Si O2"
_cell_formula_units_Z 48
_cell_length_a 11.477117
_cell_length_b 8.727210
_cell_length_c 25.731384
_cell_angle_alpha 90.000000
_cell_angle_beta 112.353967
_cell_angle_gamma 90.000000
_cell_volume 2383.655964
_symmetry_space_group_name_H-M "C 2/C"
_symmetry_group_IT_number 15
_symmetry_cell_setting 'monoclinic'
loop_
_space_group_symop_operation_xyz
x,y,z
-x,y,1/2-z
-x,-y,-z
x,-y,1/2+z
1/2+x,1/2+y,z
1/2-x,1/2+y,1/2-z
1/2-x,1/2-y,-z
1/2+x,1/2-y,1/2+z
loop_
_atom_site_type_symbol
_atom_site_label
_atom_site_fract_x
_atom_site_fract_y
_atom_site_fract_z
Si Si1 0.883403 0.694030 0.045283
Si Si2 0.000000 0.925665 0.750000
Si Si3 0.851464 0.349119 0.080178
Si Si4 0.000000 0.420045 0.750000
Si Si5 0.187135 0.327358 0.305464
Si Si6 0.438385 0.665068 0.003059
Si Si7 0.983281 0.171997 0.835842
O O1 0.883459 0.521294 0.066891
O O2 0.928937 0.806259 0.099269
O O3 0.750000 0.750000 0.000000
O O4 0.981986 0.712042 0.015544
O O5 0.990509 0.028190 0.696805
O O6 0.123388 0.819577 0.768245
O O7 0.861418 0.330631 0.143361
O O8 0.929822 0.222178 0.061144
O O9 0.704203 0.332054 0.041245
O O10 0.123112 0.526038 0.768065
O O11 0.993909 0.315582 0.698232
O O12 0.337216 0.329435 0.328182
O O13 0.500000 0.500000 0.000000
#
# Coordination Sequence:
#
# PCOD9291298 Si02
#       7
#     8   4   8   4   8   8   8
#     4  12  24  43  67 100 134 176 221 266 332 398
#     4  10  26  42  66 100 126 172 222 268 324 396
#     4  11  24  41  66  96 129 174 219 271 328 391
#     4  10  22  42  66  94 124 170 218 266 332 386
#     4  11  22  42  67  95 127 168 221 269 332 383
#     4  11  24  43  65  92 135 174 214 271 327 390
#     4  11  23  43  66  94 135 169 213 274 323 384
#
# _framework density 20.137134
#
# number of rings (size 3 to 8) (size 9 to 14) (size 15 to 20)
#    0.000    1.000    5.000    1.500    2.333    0.000 
#    3.000    1.667    0.000    0.000    0.000    0.000 
#    0.000    0.000    0.000    0.000    0.000    0.000 
#
# Total GULP energy -134130.627270 kJ/mol
# GULP energy per Si atom -5588.776136 kJ/mol
# Density = 2.009130 g / cm^3
# Si number density = 20.137134 Si / 1000 Ang^3
#
#
#
# Elastic Constant Matrix: (Units=GPa)
#
#
# Indices 1 2 3 4 5 6 
#
# 1 94.2401 38.7547 23.6591 0.0000 -1.6997 0.0000
# 2 38.7547 100.1177 18.8922 0.0000 3.8082 0.0000
# 3 23.6591 18.8922 83.8198 0.0000 9.5927 0.0000
# 4 0.0000 0.0000 0.0000 24.6149 0.0000 -7.1090
# 5 -1.6997 3.8082 9.5927 0.0000 31.2267 0.0000
# 6 0.0000 0.0000 0.0000 -7.1090 0.0000 29.7843
#
#
#
# Elastic Compliance Matrix: (Units=1/GPa)
#
#
# Indices 1 2 3 4 5 6 
#
# 1 0.013318 -0.004681 -0.002956 0.000000 0.002204 0.000000
# 2 -0.004681 0.012087 -0.001249 0.000000 -0.001345 0.000000
# 3 -0.002956 -0.001249 0.013523 0.000000 -0.004163 0.000000
# 4 0.000000 0.000000 0.000000 0.043634 0.000000 0.010415
# 5 0.002204 -0.001345 -0.004163 0.000000 0.033587 0.000000
# 6 0.000000 0.000000 0.000000 0.010415 0.000000 0.036061
#
#
# Mechanical properties :
#
#
# Convention : Reuss Voigt Hill
#
# Bulk Modulus (GPa) = 47.27066 48.97663 48.12364
# Shear Modulus (GPa) = 28.24314 30.24995 29.24655
#
# Velocity S-wave (km/s) = 3.74911 3.88002 3.81513
# Velocity P-wave (km/s) = 6.50127 6.66687 6.58459
#
# Compressibility (1/GPa) = 0.02115477
#
# Stress axis : x y z
#
# Youngs Moduli (GPa) = 75.08482 82.73197 73.94953
#
# Poissons Ratio (x) = 0.38730 0.21862
# Poissons Ratio (y) = 0.35150 0.09237
# Poissons Ratio (z) = 0.22198 0.10333
#
# Static dielectric constant tensor:
#      x y z
#    x 1.673890 0.000000 -0.009880 
#    y 0.000000 1.732410 0.000000 
#    z -0.009880 0.000000 1.703420 
# 
# From -- ./inp_files/267676.got.cif
#   From: 2010.05.17/outbox.cif.g08.bks.cpg/sg15_134_cif.got.tgz:267676.got - 2010.06.03 18:47:42.
