data_PCOD9291357
_publ_section_title
;
Structure prediction by ZEFSAII (Michael W. Deem and Ramdas Pophale) SiO2 
 PCOD9291357
Probable space group: C 2/C
;
_chemical_formula_sum "Si O2"
_cell_formula_units_Z 32
_cell_length_a 29.796769
_cell_length_b 11.115952
_cell_length_c 9.602874
_cell_angle_alpha 90.000000
_cell_angle_beta 27.003666
_cell_angle_gamma 90.000000
_cell_volume 1444.170151
_symmetry_space_group_name_H-M "C 2/C"
_symmetry_group_IT_number 15
_symmetry_cell_setting 'monoclinic'
loop_
_space_group_symop_operation_xyz
x,y,z
-x,y,1/2-z
-x,-y,-z
x,-y,1/2+z
1/2+x,1/2+y,z
1/2-x,1/2+y,1/2-z
1/2-x,1/2-y,-z
1/2+x,1/2-y,1/2+z
loop_
_atom_site_type_symbol
_atom_site_label
_atom_site_fract_x
_atom_site_fract_y
_atom_site_fract_z
Si Si1 0.236539 0.952217 0.259349
Si Si2 0.542928 0.890442 0.787177
Si Si3 0.719272 0.123576 0.151634
Si Si4 0.942280 0.773113 0.778303
O O1 0.144545 0.862894 0.527762
O O2 0.219343 0.075881 0.388008
O O3 0.338116 0.899700 0.043091
O O4 0.264426 0.967542 0.020167
O O5 0.500000 0.890906 0.750000
O O6 0.508884 0.772509 0.967998
O O7 0.500000 0.000000 0.000000
O O8 0.610891 0.154969 0.507042
O O9 0.750000 0.250000 0.000000
O O10 0.000000 0.828847 0.750000
#
# Coordination Sequence:
#
# PCOD9291357 Si02
#       4
#     8   8   8   8
#     4  11  23  42  70 100 138 182 236 291 348 414
#     4  12  23  39  69 104 135 186 244 286 344 424
#     4  10  22  42  66  97 140 181 227 285 350 414
#     4  11  23  43  68 102 142 184 229 295 356 413
#
# _framework density 22.158054
#
# number of rings (size 3 to 8) (size 9 to 14) (size 15 to 20)
#    0.000    1.000    5.000    2.250    0.000    1.000 
#    4.500    5.000    0.000    0.000    0.000    0.000 
#    0.000    0.000    0.000    0.000    0.000    0.000 
#
# Total GULP energy -89356.948445 kJ/mol
# GULP energy per Si atom -5584.809278 kJ/mol
# Density = 2.210762 g / cm^3
# Si number density = 22.158054 Si / 1000 Ang^3
#
#
#
# Elastic Constant Matrix: (Units=GPa)
#
#
# Indices 1 2 3 4 5 6 
#
# 1 141.7367 50.3053 53.0487 0.0000 3.2131 0.0000
# 2 50.3053 72.5610 51.0478 0.0000 -0.7726 0.0000
# 3 53.0487 51.0478 93.6651 0.0000 -1.3715 0.0000
# 4 0.0000 0.0000 0.0000 30.4541 0.0000 -3.0015
# 5 3.2131 -0.7726 -1.3715 0.0000 53.6156 0.0000
# 6 0.0000 0.0000 0.0000 -3.0015 0.0000 43.8201
#
#
#
# Elastic Compliance Matrix: (Units=1/GPa)
#
#
# Indices 1 2 3 4 5 6 
#
# 1 0.009885 -0.004727 -0.003033 0.000000 -0.000738 0.000000
# 2 -0.004727 0.024612 -0.010731 0.000000 0.000363 0.000000
# 3 -0.003033 -0.010731 0.018250 0.000000 0.000494 0.000000
# 4 0.000000 0.000000 0.000000 0.033059 0.000000 0.002264
# 5 -0.000738 0.000363 0.000494 0.000000 0.018713 0.000000
# 6 0.000000 0.000000 0.000000 0.002264 0.000000 0.022976
#
#
# Mechanical properties :
#
#
# Convention : Reuss Voigt Hill
#
# Bulk Modulus (GPa) = 63.43385 68.52960 65.98173
# Shear Modulus (GPa) = 29.45806 35.81536 32.63671
#
# Velocity S-wave (km/s) = 3.65012 4.02476 3.84201
# Velocity P-wave (km/s) = 6.81576 7.25210 7.03731
#
# Compressibility (1/GPa) = 0.01576445
#
# Stress axis : x y z
#
# Youngs Moduli (GPa) = 101.16301 40.63040 54.79513
#
# Poissons Ratio (x) = 0.19207 0.16619
# Poissons Ratio (y) = 0.47822 0.58801
# Poissons Ratio (z) = 0.30683 0.43601
#
# Static dielectric constant tensor:
#      x y z
#    x 1.842790 0.000000 0.003040 
#    y 0.000000 1.915130 0.000000 
#    z 0.003040 0.000000 1.856050 
# 
# From -- ./inp_files/36743.got.cif
#   From: 2010.05.17/outbox.cif.g08.bks.cpg/sg15_19_cif.got.tgz:36743.got - 2010.06.03 18:47:42.
