data_PCOD9291544
_publ_section_title
;
Structure prediction by ZEFSAII (Michael W. Deem and Ramdas Pophale) SiO2 
 PCOD9291544
Probable space group: C 2/C
;
_chemical_formula_sum "Si O2"
_cell_formula_units_Z 40
_cell_length_a 5.008305
_cell_length_b 16.702173
_cell_length_c 22.770138
_cell_angle_alpha 90.000000
_cell_angle_beta 74.402041
_cell_angle_gamma 90.000000
_cell_volume 1834.565931
_symmetry_space_group_name_H-M "C 2/C"
_symmetry_group_IT_number 15
_symmetry_cell_setting 'monoclinic'
loop_
_space_group_symop_operation_xyz
x,y,z
-x,y,1/2-z
-x,-y,-z
x,-y,1/2+z
1/2+x,1/2+y,z
1/2-x,1/2+y,1/2-z
1/2-x,1/2-y,-z
1/2+x,1/2-y,1/2+z
loop_
_atom_site_type_symbol
_atom_site_label
_atom_site_fract_x
_atom_site_fract_y
_atom_site_fract_z
Si Si1 0.377025 0.532393 0.822191
Si Si2 0.304855 0.893316 0.386047
Si Si3 0.022915 0.262896 0.601054
Si Si4 0.198542 0.632922 0.289792
Si Si5 0.044288 0.325486 0.013947
O O1 0.500000 0.546854 0.750000
O O2 0.584920 0.555072 0.862408
O O3 0.287433 0.439721 0.826882
O O4 0.103437 0.584666 0.844578
O O5 0.323907 0.897248 0.456299
O O6 0.229912 0.800039 0.382016
O O7 0.018453 0.332287 0.551316
O O8 0.274949 0.206666 0.564744
O O9 0.998754 0.304959 0.664837
O O10 0.500000 0.664885 0.250000
O O11 0.000000 0.599654 0.250000
O O12 0.250000 0.250000 0.000000
#
# Coordination Sequence:
#
# PCOD9291544 Si02
#       5
#     8   8   8   8   8
#     4  11  23  42  61  88 133 175 207 265 324 380
#     4  11  21  40  66  94 122 165 220 258 318 384
#     4  10  22  42  68  96 130 165 214 271 318 386
#     4  11  26  44  63  94 133 174 214 262 330 388
#     4   9  20  40  68  94 129 164 210 270 334 363
#
# _framework density 21.803521
#
# number of rings (size 3 to 8) (size 9 to 14) (size 15 to 20)
#    0.000    1.600    2.000    3.000    5.600    2.400 
#    0.000    2.000    0.000    0.000    0.000    0.000 
#    0.000    0.000    0.000    0.000    0.000    0.000 
#
# Total GULP energy -111424.347487 kJ/mol
# GULP energy per Si atom -5571.217374 kJ/mol
# Density = 2.175389 g / cm^3
# Si number density = 21.803521 Si / 1000 Ang^3
#
#
#
# Elastic Constant Matrix: (Units=GPa)
#
#
# Indices 1 2 3 4 5 6 
#
# 1 107.6040 0.9138 27.1140 0.0000 -5.1050 0.0000
# 2 0.9138 19.4161 27.1316 0.0000 -3.6046 0.0000
# 3 27.1140 27.1316 59.8320 0.0000 -10.7732 0.0000
# 4 0.0000 0.0000 0.0000 148.3815 0.0000 7.7315
# 5 -5.1050 -3.6046 -10.7732 0.0000 46.3697 0.0000
# 6 0.0000 0.0000 0.0000 7.7315 0.0000 19.7427
#
#
#
# Elastic Compliance Matrix: (Units=1/GPa)
#
#
# Indices 1 2 3 4 5 6 
#
# 1 0.012982 0.020869 -0.015443 0.000000 -0.000536 0.000000
# 2 0.020869 0.174870 -0.089643 0.000000 -0.004936 0.000000
# 3 -0.015443 -0.089643 0.065542 0.000000 0.006559 0.000000
# 4 0.000000 0.000000 0.000000 0.006880 0.000000 -0.002694
# 5 -0.000536 -0.004936 0.006559 0.000000 0.022647 0.000000
# 6 0.000000 0.000000 0.000000 -0.002694 0.000000 0.051707
#
#
# Mechanical properties :
#
#
# Convention : Reuss Voigt Hill
#
# Bulk Modulus (GPa) = 11.77014 33.01898 22.39456
# Shear Modulus (GPa) = 9.40945 51.67829 30.54387
#
# Velocity S-wave (km/s) = 2.07965 4.87373 3.74688
# Velocity P-wave (km/s) = 3.34314 6.84454 5.38629
#
# Compressibility (1/GPa) = 0.08496075
#
# Stress axis : x y z
#
# Youngs Moduli (GPa) = 77.03022 5.71854 15.25736
#
# Poissons Ratio (x) = -0.11934 0.23562
# Poissons Ratio (y) = -1.60753 1.36771
# Poissons Ratio (z) = 1.18956 0.51262
#
# Static dielectric constant tensor:
#      x y z
#    x 1.918350 0.000000 0.085960 
#    y 0.000000 1.789910 0.000000 
#    z 0.085960 0.000000 1.905130 
# 
# From -- ./inp_files/227123.got.cif
#   From: 2010.05.17/outbox.cif.g08.bks.cpg/sg15_114_cif.got.tgz:227123.got - 2010.06.03 18:47:42.
