data_PCOD9291007
_publ_section_title
;
Structure prediction by ZEFSAII (Michael W. Deem and Ramdas Pophale) SiO2 
 PCOD9291007
Probable space group: C 2/C
;
_chemical_formula_sum "Si O2"
_cell_formula_units_Z 40
_cell_length_a 22.572305
_cell_length_b 7.895865
_cell_length_c 9.542455
_cell_angle_alpha 90.000000
_cell_angle_beta 111.913257
_cell_angle_gamma 90.000000
_cell_volume 1577.853487
_symmetry_space_group_name_H-M "C 2/C"
_symmetry_group_IT_number 15
_symmetry_cell_setting 'monoclinic'
loop_
_space_group_symop_operation_xyz
x,y,z
-x,y,1/2-z
-x,-y,-z
x,-y,1/2+z
1/2+x,1/2+y,z
1/2-x,1/2+y,1/2-z
1/2-x,1/2-y,-z
1/2+x,1/2-y,1/2+z
loop_
_atom_site_type_symbol
_atom_site_label
_atom_site_fract_x
_atom_site_fract_y
_atom_site_fract_z
Si Si1 0.497981 0.180165 0.418971
Si Si2 0.133249 0.684531 0.518827
Si Si3 0.758671 0.874872 0.303129
Si Si4 0.376669 0.200907 0.488701
Si Si5 0.823650 0.995920 0.607432
O O1 0.500000 0.177054 0.250000
O O2 0.566638 0.257906 0.520101
O O3 0.432818 0.250486 0.429258
O O4 0.500000 0.000000 0.500000
O O5 0.190674 0.658161 0.678086
O O6 0.116688 0.492345 0.452854
O O7 0.154999 0.818980 0.422938
O O8 0.807063 0.715368 0.354699
O O9 0.760316 0.952093 0.459305
O O10 0.802980 0.995320 0.247500
O O11 0.371287 0.346791 0.602284
#
# Coordination Sequence:
#
# PCOD9291007 Si02
#       5
#     8   8   8   8   8
#     4  10  22  42  63  93 127 170 215 265 317 384
#     4  11  21  41  70  88 127 173 207 266 325 374
#     4  10  22  42  62  99 129 160 217 264 319 384
#     4   9  23  42  62  93 129 161 221 257 311 388
#     4  10  23  41  63  94 130 165 210 264 325 374
#
# _framework density 25.350898000000001
#
# number of rings (size 3 to 8) (size 9 to 14) (size 15 to 20)
#    1.200    0.800    0.000    3.000    0.000    4.800 
#   18.000    0.000    0.000    0.000    0.000    0.000 
#    0.000    0.000    0.000    0.000    0.000    0.000 
#
# Total GULP energy -111618.994410 kJ/mol
# GULP energy per Si atom -5580.949720 kJ/mol
# Density = 2.529320 g / cm^3
# Si number density = 25.350898 Si / 1000 Ang^3
#
#
#
# Elastic Constant Matrix: (Units=GPa)
#
#
# Indices 1 2 3 4 5 6 
#
# 1 181.4362 45.7413 54.7298 0.0000 2.2206 0.0000
# 2 45.7413 138.5722 17.8952 0.0000 -16.1454 0.0000
# 3 54.7298 17.8952 68.8125 0.0000 1.5100 0.0000
# 4 0.0000 0.0000 0.0000 20.3951 0.0000 -13.2745
# 5 2.2206 -16.1454 1.5100 0.0000 53.3140 0.0000
# 6 0.0000 0.0000 0.0000 -13.2745 0.0000 41.4195
#
#
#
# Elastic Compliance Matrix: (Units=1/GPa)
#
#
# Indices 1 2 3 4 5 6 
#
# 1 0.007691 -0.001901 -0.005607 0.000000 -0.000737 0.000000
# 2 -0.001901 0.008235 -0.000687 0.000000 0.002592 0.000000
# 3 -0.005607 -0.000687 0.019181 0.000000 -0.000518 0.000000
# 4 0.000000 0.000000 0.000000 0.061955 0.000000 0.019856
# 5 -0.000737 0.002592 -0.000518 0.000000 0.019587 0.000000
# 6 0.000000 0.000000 0.000000 0.019856 0.000000 0.030507
#
#
# Mechanical properties :
#
#
# Convention : Reuss Voigt Hill
#
# Bulk Modulus (GPa) = 53.42125 69.50596 61.46361
# Shear Modulus (GPa) = 29.44931 41.05601 35.25266
#
# Velocity S-wave (km/s) = 3.41202 4.02868 3.73310
# Velocity P-wave (km/s) = 6.05318 7.00838 6.54822
#
# Compressibility (1/GPa) = 0.01871914
#
# Stress axis : x y z
#
# Youngs Moduli (GPa) = 130.02310 121.43978 52.13407
#
# Poissons Ratio (x) = 0.23080 0.29229
# Poissons Ratio (y) = 0.24712 0.03580
# Poissons Ratio (z) = 0.72898 0.08340
#
# Static dielectric constant tensor:
#      x y z
#    x 2.049410 0.000000 0.031990 
#    y 0.000000 2.163870 0.000000 
#    z 0.031990 0.000000 2.003490 
# 
# From -- ./inp_files/121685.got.cif
#   From: 2010.05.17/outbox.cif.g08.bks.cpg/sg15_61_cif.got.tgz:121685.got - 2010.06.03 18:47:42.
