data_PCOD9291885
_publ_section_title
;
Structure prediction by ZEFSAII (Michael W. Deem and Ramdas Pophale) SiO2 
 PCOD9291885
Probable space group: C 2/C
;
_chemical_formula_sum "Si O2"
_cell_formula_units_Z 48
_cell_length_a 22.883788
_cell_length_b 13.805577
_cell_length_c 9.296768
_cell_angle_alpha 90.000000
_cell_angle_beta 40.853007
_cell_angle_gamma 90.000000
_cell_volume 1921.198925
_symmetry_space_group_name_H-M "C 2/C"
_symmetry_group_IT_number 15
_symmetry_cell_setting 'monoclinic'
loop_
_space_group_symop_operation_xyz
x,y,z
-x,y,1/2-z
-x,-y,-z
x,-y,1/2+z
1/2+x,1/2+y,z
1/2-x,1/2+y,1/2-z
1/2-x,1/2-y,-z
1/2+x,1/2-y,1/2+z
loop_
_atom_site_type_symbol
_atom_site_label
_atom_site_fract_x
_atom_site_fract_y
_atom_site_fract_z
Si Si1 0.391310 0.500431 0.182606
Si Si2 0.398065 0.359154 0.908332
Si Si3 0.378577 0.145194 0.573851
Si Si4 0.549727 0.901802 0.864169
Si Si5 0.772373 0.453375 0.820528
Si Si6 0.253856 0.792205 0.653941
O O1 0.379505 0.606114 0.279122
O O2 0.316191 0.442014 0.416707
O O3 0.500000 0.500000 0.000000
O O4 0.379856 0.452674 0.046043
O O5 0.500000 0.333680 0.750000
O O6 0.337220 0.268727 0.059640
O O7 0.359392 0.895643 0.717050
O O8 0.333078 0.244511 0.613053
O O9 0.462252 0.167410 0.523662
O O10 0.306776 0.065063 0.760413
O O11 0.584381 0.904588 0.637492
O O12 0.500000 0.000000 0.000000
O O13 0.759237 0.404056 0.688009
O O14 0.250000 0.750000 0.500000
#
# Coordination Sequence:
#
# PCOD9291885 Si02
#       6
#     8   8   8   8   8   8
#     4  10  22  42  75 102 140 191 238 290 360 429
#     4  10  23  44  68 103 145 186 245 296 363 439
#     4  10  22  44  69 103 142 178 241 296 357 439
#     4   9  21  41  72 100 135 184 235 294 366 423
#     4  11  24  41  76  99 144 194 239 292 369 425
#     4  12  28  42  69 107 145 192 243 305 362 424
#
# _framework density 24.984400999999998
#
# number of rings (size 3 to 8) (size 9 to 14) (size 15 to 20)
#    0.000    1.667    1.667    1.000    7.000    4.000 
#    3.000    5.000    0.000    0.000    0.000    0.000 
#    0.000    0.000    0.000    0.000    0.000    0.000 
#
# Total GULP energy -133642.692434 kJ/mol
# GULP energy per Si atom -5568.445518 kJ/mol
# Density = 2.492754 g / cm^3
# Si number density = 24.984401 Si / 1000 Ang^3
#
#
#
# Elastic Constant Matrix: (Units=GPa)
#
#
# Indices 1 2 3 4 5 6 
#
# 1 122.6008 33.5950 45.9243 0.0000 -16.8566 0.0000
# 2 33.5950 86.4446 28.3568 0.0000 -16.4775 0.0000
# 3 45.9243 28.3568 108.9009 0.0000 -21.5362 0.0000
# 4 0.0000 0.0000 0.0000 10.2055 0.0000 16.1355
# 5 -16.8566 -16.4775 -21.5362 0.0000 49.3450 0.0000
# 6 0.0000 0.0000 0.0000 16.1355 0.0000 18.6285
#
#
#
# Elastic Compliance Matrix: (Units=1/GPa)
#
#
# Indices 1 2 3 4 5 6 
#
# 1 0.010332 -0.002671 -0.003437 0.000000 0.001138 0.000000
# 2 -0.002671 0.013773 -0.001894 0.000000 0.002860 0.000000
# 3 -0.003437 -0.001894 0.011785 0.000000 0.003337 0.000000
# 4 0.000000 0.000000 0.000000 -0.265210 0.000000 0.229717
# 5 0.001138 0.002860 0.003337 0.000000 0.023066 0.000000
# 6 0.000000 0.000000 0.000000 0.229717 0.000000 -0.145293
#
#
# Mechanical properties :
#
#
# Convention : Reuss Voigt Hill
#
# Bulk Modulus (GPa) = 50.28708 59.29982 54.79345
# Shear Modulus (GPa) = -15.20150 29.64047 7.21949
#
# Velocity S-wave (km/s) = -2.46933 3.44809 1.70173
# Velocity P-wave (km/s) = 3.47001 6.29593 5.08329
#
# Compressibility (1/GPa) = 0.01988582
#
# Stress axis : x y z
#
# Youngs Moduli (GPa) = 96.78430 72.60721 84.85306
#
# Poissons Ratio (x) = 0.19395 0.29161
# Poissons Ratio (y) = 0.25853 0.16073
# Poissons Ratio (z) = 0.33261 0.13754
#
# Static dielectric constant tensor:
#      x y z
#    x 2.557900 0.000000 -0.065460 
#    y 0.000000 2.012660 0.000000 
#    z -0.065460 0.000000 2.049660 
# 
# From -- ./inp_files/66379.got.cif
#   From: 2010.05.17/outbox.cif.g08.bks.cpg/sg15_34_cif.got.tgz:66379.got - 2010.06.03 18:47:42.
