data_PCOD9291285
_publ_section_title
;
Structure prediction by ZEFSAII (Michael W. Deem and Ramdas Pophale) SiO2 
 PCOD9291285
Probable space group: C 2/C
;
_chemical_formula_sum "Si O2"
_cell_formula_units_Z 56
_cell_length_a 18.715481
_cell_length_b 9.120523
_cell_length_c 14.713695
_cell_angle_alpha 90.000000
_cell_angle_beta 90.477467
_cell_angle_gamma 90.000000
_cell_volume 2511.466592
_symmetry_space_group_name_H-M "C 2/C"
_symmetry_group_IT_number 15
_symmetry_cell_setting 'monoclinic'
loop_
_space_group_symop_operation_xyz
x,y,z
-x,y,1/2-z
-x,-y,-z
x,-y,1/2+z
1/2+x,1/2+y,z
1/2-x,1/2+y,1/2-z
1/2-x,1/2-y,-z
1/2+x,1/2-y,1/2+z
loop_
_atom_site_type_symbol
_atom_site_label
_atom_site_fract_x
_atom_site_fract_y
_atom_site_fract_z
Si Si1 0.411726 0.250426 0.970109
Si Si2 0.281130 0.308370 0.834501
Si Si3 0.860197 0.530265 0.100580
Si Si4 0.818557 0.308284 0.944993
Si Si5 0.276607 0.508673 0.172538
Si Si6 0.534895 0.204061 0.845166
Si Si7 0.393193 0.557828 0.026864
O O1 0.337648 0.267277 0.913270
O O2 0.469357 0.163435 0.911266
O O3 0.401511 0.172140 0.066023
O O4 0.433421 0.417328 0.990016
O O5 0.216750 0.413760 0.867405
O O6 0.315343 0.401634 0.752906
O O7 0.248887 0.153038 0.801855
O O8 0.907225 0.426135 0.165329
O O9 0.851506 0.432070 0.009893
O O10 0.790529 0.386842 0.854811
O O11 0.750000 0.250000 0.000000
O O12 0.869509 0.167104 0.945145
O O13 0.323840 0.497320 0.081684
O O14 0.500000 0.245294 0.750000
O O15 0.570998 0.338596 0.897995
#
# Coordination Sequence:
#
# PCOD9291285 Si02
#       7
#     8   8   8   8   8   8   8
#     4  12  23  44  68  98 132 180 226 274 327 411
#     4  12  25  37  68 100 140 168 224 283 346 389
#     4  11  23  43  67  95 131 179 222 272 332 410
#     4   9  19  36  61  88 127 169 215 262 326 394
#     4  11  23  38  60 101 136 172 218 283 343 396
#     4  11  26  45  69  95 135 176 223 279 342 401
#     4  10  22  42  66  92 129 178 226 269 331 410
#
# _framework density 22.297726999999998
#
# number of rings (size 3 to 8) (size 9 to 14) (size 15 to 20)
#    0.000    1.143    2.857    3.857   10.000    0.000 
#    0.000    0.714    0.000    0.000    0.000    0.000 
#    0.000    0.000    0.000    0.000    0.000    0.000 
#
# Total GULP energy -156418.033697 kJ/mol
# GULP energy per Si atom -5586.358346 kJ/mol
# Density = 2.224698 g / cm^3
# Si number density = 22.297727 Si / 1000 Ang^3
#
#
#
# Elastic Constant Matrix: (Units=GPa)
#
#
# Indices 1 2 3 4 5 6 
#
# 1 61.2115 16.6372 -0.3269 0.0000 0.6699 0.0000
# 2 16.6372 120.5899 5.6240 0.0000 13.0891 0.0000
# 3 -0.3269 5.6240 34.6376 0.0000 7.0932 0.0000
# 4 0.0000 0.0000 0.0000 23.6034 0.0000 -6.0527
# 5 0.6699 13.0891 7.0932 0.0000 41.0509 0.0000
# 6 0.0000 0.0000 0.0000 -6.0527 0.0000 7.0699
#
#
#
# Elastic Compliance Matrix: (Units=1/GPa)
#
#
# Indices 1 2 3 4 5 6 
#
# 1 0.016990 -0.002410 0.000468 0.000000 0.000410 0.000000
# 2 -0.002410 0.008957 -0.000933 0.000000 -0.002655 0.000000
# 3 0.000468 -0.000933 0.030029 0.000000 -0.004899 0.000000
# 4 0.000000 0.000000 0.000000 0.054284 0.000000 0.046474
# 5 0.000410 -0.002655 -0.004899 0.000000 0.026046 0.000000
# 6 0.000000 0.000000 0.000000 0.046474 0.000000 0.181233
#
#
# Mechanical properties :
#
#
# Convention : Reuss Voigt Hill
#
# Bulk Modulus (GPa) = 19.91073 28.92308 24.41690
# Shear Modulus (GPa) = 14.70442 27.31183 21.00812
#
# Velocity S-wave (km/s) = 2.57078 3.50361 3.07280
# Velocity P-wave (km/s) = 4.21435 5.41909 4.85424
#
# Compressibility (1/GPa) = 0.05022419
#
# Stress axis : x y z
#
# Youngs Moduli (GPa) = 58.85835 111.64639 33.30063
#
# Poissons Ratio (x) = 0.26911 -0.01557
# Poissons Ratio (y) = 0.14187 0.03108
# Poissons Ratio (z) = -0.02752 0.10420
#
# Static dielectric constant tensor:
#      x y z
#    x 1.962690 0.000000 -0.046060 
#    y 0.000000 1.951300 0.000000 
#    z -0.046060 0.000000 1.822430 
# 
# From -- ./inp_files/166664.got.cif
#   From: 2010.05.17/outbox.cif.g08.bks.cpg/sg15_84_cif.got.tgz:166664.got - 2010.06.03 18:47:42.
