data_PCOD9291634
_publ_section_title
;
Structure prediction by ZEFSAII (Michael W. Deem and Ramdas Pophale) SiO2 
 PCOD9291634
Probable space group: C 2/C
;
_chemical_formula_sum "Si O2"
_cell_formula_units_Z 40
_cell_length_a 14.543000
_cell_length_b 10.188409
_cell_length_c 24.935505
_cell_angle_alpha 90.000000
_cell_angle_beta 28.434655
_cell_angle_gamma 90.000000
_cell_volume 1759.251626
_symmetry_space_group_name_H-M "C 2/C"
_symmetry_group_IT_number 15
_symmetry_cell_setting 'monoclinic'
loop_
_space_group_symop_operation_xyz
x,y,z
-x,y,1/2-z
-x,-y,-z
x,-y,1/2+z
1/2+x,1/2+y,z
1/2-x,1/2+y,1/2-z
1/2-x,1/2-y,-z
1/2+x,1/2-y,1/2+z
loop_
_atom_site_type_symbol
_atom_site_label
_atom_site_fract_x
_atom_site_fract_y
_atom_site_fract_z
Si Si1 0.497589 0.486705 0.826283
Si Si2 0.359762 0.850589 0.985601
Si Si3 0.254514 0.737982 0.659604
Si Si4 0.371712 0.097331 0.672183
Si Si5 0.366209 0.677130 0.487203
O O1 0.604490 0.360283 0.744890
O O2 0.674598 0.581180 0.742026
O O3 0.438129 0.449357 0.918506
O O4 0.311717 0.562504 0.898410
O O5 0.524679 0.778390 0.936785
O O6 0.493820 0.968861 0.893471
O O7 0.250000 0.750000 0.000000
O O8 0.179023 0.636650 0.741787
O O9 0.258060 0.675541 0.598729
O O10 0.466204 0.217648 0.592417
O O11 0.250000 0.750000 0.500000
#
# Coordination Sequence:
#
# PCOD9291634 Si02
#       5
#     8   8   8   8   8
#     4  10  22  42  69  96 135 168 221 280 325 391
#     4  11  21  43  69 100 135 170 219 277 332 397
#     4  10  24  42  72  95 132 178 220 272 342 387
#     4  10  22  43  66  96 131 169 222 272 322 399
#     4  11  23  45  64  96 131 173 224 272 325 398
#
# _framework density 22.736940000000001
#
# number of rings (size 3 to 8) (size 9 to 14) (size 15 to 20)
#    0.000    1.600    4.000    0.000    0.000    7.200 
#    3.600    0.000    0.000    0.000    0.000    0.000 
#    0.000    0.000    0.000    0.000    0.000    0.000 
#
# Total GULP energy -111443.903022 kJ/mol
# GULP energy per Si atom -5572.195151 kJ/mol
# Density = 2.268519 g / cm^3
# Si number density = 22.736940 Si / 1000 Ang^3
#
#
#
# Elastic Constant Matrix: (Units=GPa)
#
#
# Indices 1 2 3 4 5 6 
#
# 1 103.0983 16.9679 59.0687 0.0000 -7.0387 0.0000
# 2 16.9679 43.5342 16.2518 -0.0003 -15.0605 0.0001
# 3 59.0687 16.2518 109.3335 -0.0009 -11.6143 0.0000
# 4 0.0000 -0.0003 -0.0009 43.6251 -0.0001 -17.5560
# 5 -7.0387 -15.0605 -11.6143 -0.0001 58.3911 0.0001
# 6 0.0000 0.0001 0.0000 -17.5560 0.0001 12.2589
#
#
#
# Elastic Compliance Matrix: (Units=1/GPa)
#
#
# Indices 1 2 3 4 5 6 
#
# 1 0.014391 -0.003033 -0.007379 0.000000 -0.000515 0.000000
# 2 -0.003033 0.026949 -0.001704 0.000000 0.006246 0.000000
# 3 -0.007379 -0.001704 0.013531 0.000001 0.001362 0.000001
# 4 0.000000 0.000000 0.000001 0.054104 0.000000 0.077482
# 5 -0.000515 0.006246 0.001362 0.000000 0.018946 0.000000
# 6 0.000000 0.000000 0.000001 0.077482 0.000000 0.192535
#
#
# Mechanical properties :
#
#
# Convention : Reuss Voigt Hill
#
# Bulk Modulus (GPa) = 32.63651 48.94919 40.79285
# Shear Modulus (GPa) = 14.08847 33.76686 23.92767
#
# Velocity S-wave (km/s) = 2.49194 3.85789 3.24754
# Velocity P-wave (km/s) = 4.76075 6.43581 5.66059
#
# Compressibility (1/GPa) = 0.03064054
#
# Stress axis : x y z
#
# Youngs Moduli (GPa) = 69.48768 37.10645 73.90516
#
# Poissons Ratio (x) = 0.11253 0.54534
# Poissons Ratio (y) = 0.21073 0.12593
# Poissons Ratio (z) = 0.51274 0.06323
#
# Static dielectric constant tensor:
#      x y z
#    x 1.714730 0.000000 0.048650 
#    y 0.000000 1.867850 0.000000 
#    z 0.048650 0.000000 1.935110 
# 
# From -- ./inp_files/273744.got.cif
#   From: 2010.05.17/outbox.cif.g08.bks.cpg/sg15_137_cif.got.tgz:273744.got - 2010.06.03 18:47:42.
