data_PCOD9291651
_publ_section_title
;
Structure prediction by ZEFSAII (Michael W. Deem and Ramdas Pophale) SiO2 
 PCOD9291651
Probable space group: C 2/C
;
_chemical_formula_sum "Si O2"
_cell_formula_units_Z 48
_cell_length_a 24.014038
_cell_length_b 5.354813
_cell_length_c 19.417835
_cell_angle_alpha 90.000000
_cell_angle_beta 128.139084
_cell_angle_gamma 90.000000
_cell_volume 1963.888055
_symmetry_space_group_name_H-M "C 2/C"
_symmetry_group_IT_number 15
_symmetry_cell_setting 'monoclinic'
loop_
_space_group_symop_operation_xyz
x,y,z
-x,y,1/2-z
-x,-y,-z
x,-y,1/2+z
1/2+x,1/2+y,z
1/2-x,1/2+y,1/2-z
1/2-x,1/2-y,-z
1/2+x,1/2-y,1/2+z
loop_
_atom_site_type_symbol
_atom_site_label
_atom_site_fract_x
_atom_site_fract_y
_atom_site_fract_z
Si Si1 0.661102 0.940101 0.976571
Si Si2 0.427827 0.683277 0.179591
Si Si3 0.290895 0.078953 0.260079
Si Si4 0.546906 0.581822 0.934510
Si Si5 0.435385 0.186847 0.438560
Si Si6 0.689930 0.378114 0.362326
O O1 0.603117 0.807131 0.980346
O O2 0.677647 0.742950 0.928053
O O3 0.626296 0.163478 0.908560
O O4 0.732899 0.004789 0.071593
O O5 0.500000 0.835835 0.250000
O O6 0.459699 0.481131 0.150774
O O7 0.377099 0.561845 0.198238
O O8 0.248885 0.315893 0.261199
O O9 0.365907 0.063799 0.355355
O O10 0.304037 0.167927 0.191511
O O11 0.470240 0.635394 0.907080
O O12 0.577244 0.357051 0.004184
O O13 0.500000 0.000000 0.500000
#
# Coordination Sequence:
#
# PCOD9291651 Si02
#       6
#     8   8   8   8   8   8
#     4  10  22  42  69  98 132 185 233 299 364 435
#     4  11  23  39  68 100 137 181 238 297 360 434
#     4  12  30  48  75 107 150 194 248 306 368 442
#     4  10  23  41  67 100 138 181 246 290 372 427
#     4  11  25  44  73 100 144 192 244 301 370 442
#     4  10  24  44  67  97 141 178 241 293 368 428
#
# _framework density 24.441310999999999
#
# number of rings (size 3 to 8) (size 9 to 14) (size 15 to 20)
#    0.000    1.333    0.000    3.500   11.667    5.333 
#    0.000    0.000    0.000    0.000    0.000    0.000 
#    0.000    0.000    0.000    0.000    0.000    0.000 
#
# Total GULP energy -134219.793795 kJ/mol
# GULP energy per Si atom -5592.491408 kJ/mol
# Density = 2.438568 g / cm^3
# Si number density = 24.441311 Si / 1000 Ang^3
#
#
#
# Elastic Constant Matrix: (Units=GPa)
#
#
# Indices 1 2 3 4 5 6 
#
# 1 100.6391 11.2098 28.7740 0.0004 8.3287 -0.0006
# 2 11.2098 63.3037 13.5545 0.0021 11.0152 -0.0045
# 3 28.7740 13.5545 112.7474 0.0004 28.9090 -0.0003
# 4 0.0004 0.0021 0.0004 35.1403 0.0002 2.2249
# 5 8.3287 11.0152 28.9090 0.0002 41.2207 0.0004
# 6 -0.0006 -0.0045 -0.0003 2.2249 0.0004 20.9398
#
#
#
# Elastic Compliance Matrix: (Units=1/GPa)
#
#
# Indices 1 2 3 4 5 6 
#
# 1 0.010832 -0.001361 -0.002600 0.000000 -0.000001 0.000000
# 2 -0.001361 0.016840 -0.000724 -0.000001 -0.003717 0.000004
# 3 -0.002600 -0.000724 0.011505 0.000000 -0.007349 0.000000
# 4 0.000000 -0.000001 0.000000 0.028650 0.000000 -0.003044
# 5 -0.000001 -0.003717 -0.007349 0.000000 0.030408 -0.000002
# 6 0.000000 0.000004 0.000000 -0.003044 -0.000002 0.048079
#
#
# Mechanical properties :
#
#
# Convention : Reuss Voigt Hill
#
# Bulk Modulus (GPa) = 33.55147 42.64074 38.09611
# Shear Modulus (GPa) = 30.18976 34.33694 32.26335
#
# Velocity S-wave (km/s) = 3.51835 3.75223 3.63717
# Velocity P-wave (km/s) = 5.50111 6.02133 5.76708
#
# Compressibility (1/GPa) = 0.02980495
#
# Stress axis : x y z
#
# Youngs Moduli (GPa) = 92.32175 59.38344 86.92239
#
# Poissons Ratio (x) = 0.08083 0.22603
# Poissons Ratio (y) = 0.12566 0.06293
# Poissons Ratio (z) = 0.24007 0.04299
#
# Static dielectric constant tensor:
#      x y z
#    x 1.993270 0.000000 0.002090 
#    y 0.000000 1.999950 0.000000 
#    z 0.002090 0.000000 1.994150 
# 
# From -- ./inp_files/254446.got.cif
#   From: 2010.05.17/outbox.cif.g08.bks.cpg/sg15_128_cif.got.tgz:254446.got - 2010.06.03 18:47:42.
