data_PCOD9291622
_publ_section_title
;
Structure prediction by ZEFSAII (Michael W. Deem and Ramdas Pophale) SiO2 
 PCOD9291622
Probable space group: C 2/C
;
_chemical_formula_sum "Si O2"
_cell_formula_units_Z 64
_cell_length_a 24.633734
_cell_length_b 17.484529
_cell_length_c 21.512277
_cell_angle_alpha 90.000000
_cell_angle_beta 21.019715
_cell_angle_gamma 90.000000
_cell_volume 3323.447521
_symmetry_space_group_name_H-M "C 2/C"
_symmetry_group_IT_number 15
_symmetry_cell_setting 'monoclinic'
loop_
_space_group_symop_operation_xyz
x,y,z
-x,y,1/2-z
-x,-y,-z
x,-y,1/2+z
1/2+x,1/2+y,z
1/2-x,1/2+y,1/2-z
1/2-x,1/2-y,-z
1/2+x,1/2-y,1/2+z
loop_
_atom_site_type_symbol
_atom_site_label
_atom_site_fract_x
_atom_site_fract_y
_atom_site_fract_z
Si Si1 0.657500 0.039837 0.762031
Si Si2 0.600541 0.769893 0.696984
Si Si3 0.963716 0.053942 0.359630
Si Si4 0.836373 0.364004 0.745624
Si Si5 0.587425 0.326503 0.824167
Si Si6 0.988180 0.885691 0.142475
Si Si7 0.925621 0.672726 0.014459
Si Si8 0.113079 0.073211 0.875333
O O1 0.789698 0.057858 0.570101
O O2 0.740704 0.054537 0.739624
O O3 0.610270 0.951719 0.808991
O O4 0.516012 0.094861 0.906011
O O5 0.500000 0.806691 0.750000
O O6 0.750000 0.750000 0.500000
O O7 0.625356 0.820993 0.731389
O O8 0.539157 0.688300 0.786790
O O9 0.000000 0.071203 0.250000
O O10 0.057804 0.113884 0.300445
O O11 0.006995 0.965567 0.326165
O O12 0.902111 0.322741 0.614438
O O13 0.654129 0.372409 0.935090
O O14 0.760156 0.326658 0.661135
O O15 0.526998 0.241116 0.878917
O O16 0.477210 0.359085 0.995106
O O17 0.868085 0.900348 0.215577
O O18 0.000000 0.000000 0.000000
#
# Coordination Sequence:
#
# PCOD9291622 Si02
#       8
#     8   8   8   8   8   8   8   8
#     4  10  23  41  65  97 130 165 212 271 324 383
#     4  12  26  43  61  93 136 180 221 255 302 382
#     4  10  22  42  69  92 122 170 218 258 318 387
#     4  11  23  40  65  93 132 169 211 267 322 377
#     4  11  22  39  63  96 127 167 207 266 320 387
#     4  11  21  40  69  93 126 173 218 259 315 375
#     4  12  24  42  65  96 132 160 212 273 337 376
#     4  11  17  37  65  98 125 159 216 263 322 386
#
# _framework density 19.257111999999999
#
# number of rings (size 3 to 8) (size 9 to 14) (size 15 to 20)
#    0.000    1.000    6.250    3.000    1.750    1.000 
#    2.250    3.125    0.000    0.000    0.000    0.000 
#    0.000    0.000    0.000    0.000    0.000    0.000 
#
# Total GULP energy -178710.515342 kJ/mol
# GULP energy per Si atom -5584.703604 kJ/mol
# Density = 1.921328 g / cm^3
# Si number density = 19.257112 Si / 1000 Ang^3
#
#
#
# Elastic Constant Matrix: (Units=GPa)
#
#
# Indices 1 2 3 4 5 6 
#
# 1 129.3460 43.8928 38.2860 0.0005 5.3969 -0.0012
# 2 43.8928 124.3901 35.1818 -0.0034 -10.6113 0.0051
# 3 38.2860 35.1818 61.0293 -0.0010 -7.8127 0.0012
# 4 0.0005 -0.0034 -0.0010 30.4608 0.0000 -1.3738
# 5 5.3969 -10.6113 -7.8127 0.0000 23.9625 -0.0005
# 6 -0.0012 0.0051 0.0012 -1.3738 -0.0005 21.0455
#
#
#
# Elastic Compliance Matrix: (Units=1/GPa)
#
#
# Indices 1 2 3 4 5 6 
#
# 1 0.010546 -0.002527 -0.005850 -0.000001 -0.005402 0.000001
# 2 -0.002527 0.010363 -0.003891 0.000001 0.003890 -0.000002
# 3 -0.005850 -0.003891 0.023216 0.000000 0.007164 -0.000001
# 4 -0.000001 0.000001 0.000000 0.032926 0.000001 0.002149
# 5 -0.005402 0.003890 0.007164 0.000001 0.047007 -0.000001
# 6 0.000001 -0.000002 -0.000001 0.002149 -0.000001 0.047657
#
#
# Mechanical properties :
#
#
# Convention : Reuss Voigt Hill
#
# Bulk Modulus (GPa) = 51.05164 61.05407 56.05285
# Shear Modulus (GPa) = 24.65720 28.25408 26.45564
#
# Velocity S-wave (km/s) = 3.58218 3.83456 3.71052
# Velocity P-wave (km/s) = 6.60889 7.16789 6.89406
#
# Compressibility (1/GPa) = 0.01958801
#
# Stress axis : x y z
#
# Youngs Moduli (GPa) = 94.82303 96.49437 43.07417
#
# Poissons Ratio (x) = 0.24388 0.25200
# Poissons Ratio (y) = 0.23966 0.16759
# Poissons Ratio (z) = 0.55476 0.37543
#
# Static dielectric constant tensor:
#      x y z
#    x 1.672700 0.000010 -0.008390 
#    y 0.000010 1.748140 -0.000010 
#    z -0.008390 -0.000010 1.685520 
# 
# From -- ./inp_files/255974.got.cif
#   From: 2010.05.17/outbox.cif.g08.bks.cpg/sg15_128_cif.got.tgz:255974.got - 2010.06.03 18:47:42.
