data_PCOD9291771
_publ_section_title
;
Structure prediction by ZEFSAII (Michael W. Deem and Ramdas Pophale) SiO2 
 PCOD9291771
Probable space group: C 2/C
;
_chemical_formula_sum "Si O2"
_cell_formula_units_Z 48
_cell_length_a 11.244001
_cell_length_b 10.020403
_cell_length_c 20.321814
_cell_angle_alpha 90.000000
_cell_angle_beta 54.061671
_cell_angle_gamma 90.000000
_cell_volume 1853.810871
_symmetry_space_group_name_H-M "C 2/C"
_symmetry_group_IT_number 15
_symmetry_cell_setting 'monoclinic'
loop_
_space_group_symop_operation_xyz
x,y,z
-x,y,1/2-z
-x,-y,-z
x,-y,1/2+z
1/2+x,1/2+y,z
1/2-x,1/2+y,1/2-z
1/2-x,1/2-y,-z
1/2+x,1/2-y,1/2+z
loop_
_atom_site_type_symbol
_atom_site_label
_atom_site_fract_x
_atom_site_fract_y
_atom_site_fract_z
Si Si1 0.030873 0.112086 0.395596
Si Si2 0.135175 0.774428 0.666458
Si Si3 0.273776 0.044180 0.618387
Si Si4 0.837183 0.342099 0.831464
Si Si5 0.459446 0.326893 0.069452
Si Si6 0.423114 0.037647 0.432774
O O1 0.204348 0.125068 0.324972
O O2 0.925346 0.203383 0.387111
O O3 0.011109 0.150025 0.478208
O O4 0.997279 0.955104 0.402248
O O5 0.285483 0.696682 0.625557
O O6 0.000000 0.714468 0.750000
O O7 0.170175 0.926527 0.678084
O O8 0.200939 0.188516 0.638578
O O9 0.329639 0.999154 0.527340
O O10 0.424040 0.043345 0.612942
O O11 0.836355 0.446910 0.892836
O O12 0.000000 0.348370 0.750000
O O13 0.530628 0.191443 0.070886
#
# Coordination Sequence:
#
# PCOD9291771 Si02
#       6
#     8   8   8   8   8   8
#     4  11  25  42  66 100 130 178 224 267 341 396
#     4  11  25  44  68  99 134 175 219 277 342 396
#     4  10  22  42  71  92 128 176 224 275 322 406
#     4  12  26  41  65  99 139 171 218 286 336 396
#     4  10  23  44  70  93 133 175 224 278 316 413
#     4  10  22  43  67 100 126 174 231 270 332 395
#
# _framework density 25.892610000000001
#
# number of rings (size 3 to 8) (size 9 to 14) (size 15 to 20)
#    0.000    1.333    1.667    2.500    9.333    2.000 
#    0.000    0.000    0.000    0.000    0.000    0.000 
#    0.000    0.000    0.000    0.000    0.000    0.000 
#
# Total GULP energy -134554.601055 kJ/mol
# GULP energy per Si atom -5606.441711 kJ/mol
# Density = 2.583368 g / cm^3
# Si number density = 25.892610 Si / 1000 Ang^3
#
#
#
# Elastic Constant Matrix: (Units=GPa)
#
#
# Indices 1 2 3 4 5 6 
#
# 1 84.6832 1.4132 12.2485 0.0000 -7.4493 0.0000
# 2 1.4132 62.2951 -1.7464 0.0000 3.2397 0.0000
# 3 12.2485 -1.7464 71.3279 0.0000 -27.2073 0.0000
# 4 0.0000 0.0000 0.0000 -5.5309 0.0000 -18.9005
# 5 -7.4493 3.2397 -27.2073 0.0000 44.6778 0.0000
# 6 0.0000 0.0000 0.0000 -18.9005 0.0000 36.1420
#
#
#
# Elastic Compliance Matrix: (Units=1/GPa)
#
#
# Indices 1 2 3 4 5 6 
#
# 1 0.012151 -0.000376 -0.001710 0.000000 0.001012 0.000000
# 2 -0.000376 0.016125 -0.000014 0.000000 -0.001240 0.000000
# 3 -0.001710 -0.000014 0.018502 0.000000 0.010983 0.000000
# 4 0.000000 0.000000 0.000000 -0.064872 0.000000 -0.033925
# 5 0.001012 -0.001240 0.010983 0.000000 0.029330 0.000000
# 6 0.000000 0.000000 0.000000 -0.033925 0.000000 0.009928
#
#
# Mechanical properties :
#
#
# Convention : Reuss Voigt Hill
#
# Bulk Modulus (GPa) = 23.48537 26.90408 25.19472
# Shear Modulus (GPa) = 126.40070 28.81717 77.60894
#
# Velocity S-wave (km/s) = 6.99452 3.33971 5.48074
# Velocity P-wave (km/s) = 8.62096 5.02839 7.05712
#
# Compressibility (1/GPa) = 0.04257970
#
# Stress axis : x y z
#
# Youngs Moduli (GPa) = 82.29553 62.01447 54.04679
#
# Poissons Ratio (x) = 0.02333 0.09241
# Poissons Ratio (y) = 0.03096 0.00074
# Poissons Ratio (z) = 0.14071 0.00085
#
# Static dielectric constant tensor:
#      x y z
#    x 2.089820 0.000000 0.006340 
#    y 0.000000 1.995500 0.000000 
#    z 0.006340 0.000000 2.023270 
# 
# From -- ./inp_files/268689.got.cif
#   From: 2010.05.17/outbox.cif.g08.bks.cpg/sg15_135_cif.got.tgz:268689.got - 2010.06.03 18:47:42.
