data_PCOD9291812
_publ_section_title
;
Structure prediction by ZEFSAII (Michael W. Deem and Ramdas Pophale) SiO2 
 PCOD9291812
Probable space group: C 2/C
;
_chemical_formula_sum "Si O2"
_cell_formula_units_Z 60
_cell_length_a 8.925960
_cell_length_b 11.802585
_cell_length_c 23.011779
_cell_angle_alpha 90.000000
_cell_angle_beta 118.605794
_cell_angle_gamma 90.000000
_cell_volume 2128.356699
_symmetry_space_group_name_H-M "C 2/C"
_symmetry_group_IT_number 15
_symmetry_cell_setting 'monoclinic'
loop_
_space_group_symop_operation_xyz
x,y,z
-x,y,1/2-z
-x,-y,-z
x,-y,1/2+z
1/2+x,1/2+y,z
1/2-x,1/2+y,1/2-z
1/2-x,1/2-y,-z
1/2+x,1/2-y,1/2+z
loop_
_atom_site_type_symbol
_atom_site_label
_atom_site_fract_x
_atom_site_fract_y
_atom_site_fract_z
Si Si1 0.881823 0.150600 0.133689
Si Si2 0.693668 0.802232 0.179317
Si Si3 0.500000 0.521058 0.250000
Si Si4 0.123235 0.238343 0.667731
Si Si5 0.100331 0.467566 0.708035
Si Si6 0.834267 0.656735 0.948992
Si Si7 0.187670 0.560309 0.988711
Si Si8 0.030517 0.876551 0.035935
O O1 0.804100 0.229326 0.170095
O O2 0.062567 0.199760 0.149398
O O3 0.905524 0.031284 0.170737
O O4 0.762233 0.126899 0.057971
O O5 0.833737 0.792166 0.257119
O O6 0.769640 0.812396 0.128760
O O7 0.580563 0.908001 0.179094
O O8 0.692384 0.538338 0.252607
O O9 0.038362 0.363634 0.655929
O O10 0.045461 0.150419 0.607386
O O11 0.000000 0.457860 0.750000
O O12 0.576794 0.729413 0.010065
O O13 0.987586 0.580270 0.951904
O O14 0.769385 0.572272 0.988173
O O15 0.272098 0.623473 0.950254
O O16 0.000000 0.000000 0.000000
#
# Coordination Sequence:
#
# PCOD9291812 Si02
#       8
#     8   8   4   8   8   8   8   8
#     4  11  18  40  73 106 143 205 267 341 418 501
#     4  12  23  42  75 113 154 208 279 353 432 512
#     4  10  22  42  72 106 158 204 268 340 422 500
#     4  11  24  46  70 109 155 206 272 347 421 514
#     4  11  25  46  74 119 162 219 276 355 431 523
#     4  11  24  45  76 111 144 212 282 336 418 523
#     4  11  24  44  76 106 147 203 277 341 404 515
#     4  12  27  48  73 108 159 213 271 350 429 516
#
# _framework density 28.190764999999999
#
# number of rings (size 3 to 8) (size 9 to 14) (size 15 to 20)
#    0.000    0.800    5.333    3.600    1.867    2.667 
#    3.600    0.000    0.000    0.000    0.000    0.000 
#    0.000    0.000    0.000    0.000    0.000    0.000 
#
# Total GULP energy -167167.132635 kJ/mol
# GULP energy per Si atom -5572.237754 kJ/mol
# Density = 2.812660 g / cm^3
# Si number density = 28.190765 Si / 1000 Ang^3
#
#
#
# Elastic Constant Matrix: (Units=GPa)
#
#
# Indices 1 2 3 4 5 6 
#
# 1 121.9780 39.5467 51.1584 0.0000 -47.8392 0.0000
# 2 39.5467 161.2239 30.3274 0.0000 -7.3437 0.0000
# 3 51.1584 30.3274 173.5534 0.0000 -16.7920 0.0000
# 4 0.0000 0.0000 0.0000 15.0483 0.0000 27.3508
# 5 -47.8392 -7.3437 -16.7920 0.0000 49.7676 0.0000
# 6 0.0000 0.0000 0.0000 27.3508 0.0000 -23.4065
#
#
#
# Elastic Compliance Matrix: (Units=1/GPa)
#
#
# Indices 1 2 3 4 5 6 
#
# 1 0.015598 -0.002676 -0.002809 0.000000 0.013651 0.000000
# 2 -0.002676 0.006889 -0.000585 0.000000 -0.001753 0.000000
# 3 -0.002809 -0.000585 0.006639 0.000000 -0.000547 0.000000
# 4 0.000000 0.000000 0.000000 0.021273 0.000000 0.024858
# 5 0.013651 -0.001753 -0.000547 0.000000 0.032772 0.000000
# 6 0.000000 0.000000 0.000000 0.024858 0.000000 -0.013677
#
#
# Mechanical properties :
#
#
# Convention : Reuss Voigt Hill
#
# Bulk Modulus (GPa) = 58.87067 77.64669 68.25868
# Shear Modulus (GPa) = 57.27639 30.66340 43.96990
#
# Velocity S-wave (km/s) = 4.51238 3.30162 3.95362
# Velocity P-wave (km/s) = 6.93376 6.49133 6.71619
#
# Compressibility (1/GPa) = 0.01698639
#
# Stress axis : x y z
#
# Youngs Moduli (GPa) = 64.11223 145.15842 150.61774
#
# Poissons Ratio (x) = 0.38840 0.42315
# Poissons Ratio (y) = 0.17155 0.08806
# Poissons Ratio (z) = 0.18012 0.08487
#
# Static dielectric constant tensor:
#      x y z
#    x 2.325370 0.000000 0.018290 
#    y 0.000000 2.374690 0.000000 
#    z 0.018290 0.000000 2.170280 
# 
# From -- ./inp_files/264738.got.cif
#   From: 2010.05.17/outbox.cif.g08.bks.cpg/sg15_133_cif.got.tgz:264738.got - 2010.06.03 18:47:42.
