data_PCOD9291311
_publ_section_title
;
Structure prediction by ZEFSAII (Michael W. Deem and Ramdas Pophale) SiO2 
 PCOD9291311
Probable space group: C 2/C
;
_chemical_formula_sum "Si O2"
_cell_formula_units_Z 40
_cell_length_a 7.120315
_cell_length_b 11.778153
_cell_length_c 23.179233
_cell_angle_alpha 90.000000
_cell_angle_beta 126.118912
_cell_angle_gamma 90.000000
_cell_volume 1570.278968
_symmetry_space_group_name_H-M "C 2/C"
_symmetry_group_IT_number 15
_symmetry_cell_setting 'monoclinic'
loop_
_space_group_symop_operation_xyz
x,y,z
-x,y,1/2-z
-x,-y,-z
x,-y,1/2+z
1/2+x,1/2+y,z
1/2-x,1/2+y,1/2-z
1/2-x,1/2-y,-z
1/2+x,1/2-y,1/2+z
loop_
_atom_site_type_symbol
_atom_site_label
_atom_site_fract_x
_atom_site_fract_y
_atom_site_fract_z
Si Si1 0.912144 0.209276 0.388613
Si Si2 0.233481 0.835721 0.253510
Si Si3 0.908321 0.370362 0.486151
Si Si4 0.567498 0.146513 0.142619
Si Si5 0.428995 0.497563 0.145441
O O1 0.913394 0.298111 0.335095
O O2 0.002983 0.274919 0.460633
O O3 0.661042 0.149956 0.357587
O O4 0.059551 0.104798 0.393646
O O5 0.000000 0.827240 0.250000
O O6 0.228231 0.740557 0.202701
O O7 0.181582 0.956551 0.213757
O O8 0.946576 0.332844 0.558319
O O9 0.661387 0.392566 0.409144
O O10 0.000000 0.500000 0.500000
O O11 0.738961 0.039049 0.158949
#
# Coordination Sequence:
#
# PCOD9291311 Si02
#       5
#     8   8   8   8   8
#     4  11  24  43  68  99 132 174 230 263 329 407
#     4  10  22  42  66  94 132 172 218 274 327 386
#     4  10  22  42  68  97 135 176 214 277 332 385
#     4  10  23  43  66  96 132 171 218 273 328 392
#     4  11  24  43  69  93 137 174 217 282 327 388
#
# _framework density 25.473182000000001
#
# number of rings (size 3 to 8) (size 9 to 14) (size 15 to 20)
#    0.000    1.600    4.000    0.600    2.800    4.000 
#    7.200    4.000    0.000    0.000    0.000    0.000 
#    0.000    0.000    0.000    0.000    0.000    0.000 
#
# Total GULP energy -111412.172868 kJ/mol
# GULP energy per Si atom -5570.608643 kJ/mol
# Density = 2.541520 g / cm^3
# Si number density = 25.473182 Si / 1000 Ang^3
#
#
#
# Elastic Constant Matrix: (Units=GPa)
#
#
# Indices 1 2 3 4 5 6 
#
# 1 87.4449 35.0950 5.3190 0.0000 -3.7346 0.0000
# 2 35.0950 139.0290 45.2184 0.0000 -21.0455 0.0000
# 3 5.3190 45.2184 149.9535 0.0000 -21.4015 0.0000
# 4 0.0000 0.0000 0.0000 58.6077 0.0000 -14.8650
# 5 -3.7346 -21.0455 -21.4015 0.0000 24.1487 0.0000
# 6 0.0000 0.0000 0.0000 -14.8650 0.0000 34.6740
#
#
#
# Elastic Compliance Matrix: (Units=1/GPa)
#
#
# Indices 1 2 3 4 5 6 
#
# 1 0.012777 -0.003483 0.000510 0.000000 -0.000607 0.000000
# 2 -0.003483 0.009623 -0.001898 0.000000 0.006165 0.000000
# 3 0.000510 -0.001898 0.008012 0.000000 0.005525 0.000000
# 4 0.000000 0.000000 0.000000 0.019144 0.000000 0.008207
# 5 -0.000607 0.006165 0.005525 0.000000 0.051585 0.000000
# 6 0.000000 0.000000 0.000000 0.008207 0.000000 0.032359
#
#
# Mechanical properties :
#
#
# Convention : Reuss Voigt Hill
#
# Bulk Modulus (GPa) = 48.38165 60.85469 54.61817
# Shear Modulus (GPa) = 33.30435 42.87242 38.08839
#
# Velocity S-wave (km/s) = 3.61976 4.10694 3.87102
# Velocity P-wave (km/s) = 6.04191 6.81402 6.43954
#
# Compressibility (1/GPa) = 0.02066900
#
# Stress axis : x y z
#
# Youngs Moduli (GPa) = 78.26741 103.92169 124.81983
#
# Poissons Ratio (x) = 0.36198 -0.06372
# Poissons Ratio (y) = 0.27262 0.23694
# Poissons Ratio (z) = -0.03995 0.19727
#
# Static dielectric constant tensor:
#      x y z
#    x 2.098110 0.000000 0.090420 
#    y 0.000000 2.060110 0.000000 
#    z 0.090420 0.000000 2.076940 
# 
# From -- ./inp_files/229782.got.cif
#   From: 2010.05.17/outbox.cif.g08.bks.cpg/sg15_115_cif.got.tgz:229782.got - 2010.06.03 18:47:42.
