data_PCOD9291328
_publ_section_title
;
Structure prediction by ZEFSAII (Michael W. Deem and Ramdas Pophale) SiO2 
 PCOD9291328
Probable space group: C 2/C
;
_chemical_formula_sum "Si O2"
_cell_formula_units_Z 48
_cell_length_a 10.971582
_cell_length_b 16.120361
_cell_length_c 13.951760
_cell_angle_alpha 90.000000
_cell_angle_beta 66.742773
_cell_angle_gamma 90.000000
_cell_volume 2267.077182
_symmetry_space_group_name_H-M "C 2/C"
_symmetry_group_IT_number 15
_symmetry_cell_setting 'monoclinic'
loop_
_space_group_symop_operation_xyz
x,y,z
-x,y,1/2-z
-x,-y,-z
x,-y,1/2+z
1/2+x,1/2+y,z
1/2-x,1/2+y,1/2-z
1/2-x,1/2-y,-z
1/2+x,1/2-y,1/2+z
loop_
_atom_site_type_symbol
_atom_site_label
_atom_site_fract_x
_atom_site_fract_y
_atom_site_fract_z
Si Si1 0.875505 0.201364 0.580085
Si Si2 0.804455 0.474114 0.585223
Si Si3 0.878360 0.819373 0.858746
Si Si4 0.868070 0.728927 0.391942
Si Si5 0.646095 0.614146 0.733310
Si Si6 0.059264 0.456958 0.633210
O O1 0.917830 0.185476 0.458042
O O2 0.740642 0.254132 0.620047
O O3 0.847077 0.120980 0.654565
O O4 0.996642 0.247458 0.595114
O O5 0.688250 0.408695 0.635587
O O6 0.757362 0.559863 0.647779
O O7 0.841531 0.488622 0.462353
O O8 0.935062 0.443495 0.600170
O O9 0.000000 0.804872 0.750000
O O10 0.750000 0.750000 0.500000
O O11 0.848058 0.792124 0.310299
O O12 0.875542 0.632223 0.363104
O O13 0.500000 0.582107 0.750000
O O14 0.000000 0.493233 0.750000
#
# Coordination Sequence:
#
# PCOD9291328 Si02
#       6
#     8   8   8   8   8   8
#     4  10  24  44  65 100 126 175 222 265 332 409
#     4  11  24  43  62  99 134 165 226 271 335 399
#     4  11  25  44  66  93 137 173 217 274 336 400
#     4  11  21  41  70  96 130 172 226 270 326 391
#     4  10  22  42  66  95 130 168 221 278 324 395
#     4  11  24  41  66  94 133 178 214 279 331 396
#
# _framework density 21.172635
#
# number of rings (size 3 to 8) (size 9 to 14) (size 15 to 20)
#    0.000    1.333    3.333    2.000    4.667    0.000 
#    3.000    4.167    0.000    0.000    0.000    0.000 
#    0.000    0.000    0.000    0.000    0.000    0.000 
#
# Total GULP energy -134122.317812 kJ/mol
# GULP energy per Si atom -5588.429909 kJ/mol
# Density = 2.112445 g / cm^3
# Si number density = 21.172635 Si / 1000 Ang^3
#
#
#
# Elastic Constant Matrix: (Units=GPa)
#
#
# Indices 1 2 3 4 5 6 
#
# 1 44.1499 12.5133 42.3053 0.0000 -13.7996 0.0000
# 2 12.5133 49.4967 22.7907 0.0000 0.1245 0.0000
# 3 42.3053 22.7907 186.4619 0.0000 -20.5283 0.0000
# 4 0.0000 0.0000 0.0000 17.8784 0.0000 -5.9873
# 5 -13.7996 0.1245 -20.5283 0.0000 38.3578 0.0000
# 6 0.0000 0.0000 0.0000 -5.9873 0.0000 18.0737
#
#
#
# Elastic Compliance Matrix: (Units=1/GPa)
#
#
# Indices 1 2 3 4 5 6 
#
# 1 0.032407 -0.005580 -0.005722 0.000000 0.008614 0.000000
# 2 -0.005580 0.022457 -0.001815 0.000000 -0.003052 0.000000
# 3 -0.005722 -0.001815 0.007074 0.000000 0.001733 0.000000
# 4 0.000000 0.000000 0.000000 0.062913 0.000000 0.020841
# 5 0.008614 -0.003052 0.001733 0.000000 0.030107 0.000000
# 6 0.000000 0.000000 0.000000 0.020841 0.000000 0.062233
#
#
# Mechanical properties :
#
#
# Convention : Reuss Voigt Hill
#
# Bulk Modulus (GPa) = 28.00751 48.36967 38.18859
# Shear Modulus (GPa) = 19.58272 28.36193 23.97233
#
# Velocity S-wave (km/s) = 3.04453 3.66397 3.36852
# Velocity P-wave (km/s) = 5.06120 6.38706 5.76239
#
# Compressibility (1/GPa) = 0.03570470
#
# Stress axis : x y z
#
# Youngs Moduli (GPa) = 30.85719 44.52893 141.36349
#
# Poissons Ratio (x) = 0.24846 0.80893
# Poissons Ratio (y) = 0.17218 0.25656
# Poissons Ratio (z) = 0.17657 0.08082
#
# Static dielectric constant tensor:
#      x y z
#    x 1.735450 0.000000 0.002120 
#    y 0.000000 1.780300 0.000000 
#    z 0.002120 0.000000 1.788580 
# 
# From -- ./inp_files/87782.got.cif
#   From: 2010.05.17/outbox.cif.g08.bks.cpg/sg15_44_cif.got.tgz:87782.got - 2010.06.03 18:47:42.
