data_PCOD9291305
_publ_section_title
;
Structure prediction by ZEFSAII (Michael W. Deem and Ramdas Pophale) SiO2 
 PCOD9291305
Probable space group: C 2/C
;
_chemical_formula_sum "Si O2"
_cell_formula_units_Z 40
_cell_length_a 11.918037
_cell_length_b 13.609971
_cell_length_c 16.191831
_cell_angle_alpha 90.000000
_cell_angle_beta 37.225216
_cell_angle_gamma 90.000000
_cell_volume 1588.828762
_symmetry_space_group_name_H-M "C 2/C"
_symmetry_group_IT_number 15
_symmetry_cell_setting 'monoclinic'
loop_
_space_group_symop_operation_xyz
x,y,z
-x,y,1/2-z
-x,-y,-z
x,-y,1/2+z
1/2+x,1/2+y,z
1/2-x,1/2+y,1/2-z
1/2-x,1/2-y,-z
1/2+x,1/2-y,1/2+z
loop_
_atom_site_type_symbol
_atom_site_label
_atom_site_fract_x
_atom_site_fract_y
_atom_site_fract_z
Si Si1 0.885105 0.439215 0.499742
Si Si2 0.954576 0.232240 0.513139
Si Si3 0.579459 0.467364 0.563227
Si Si4 0.615552 0.249202 0.262751
Si Si5 0.809894 0.475229 0.771501
O O1 0.694470 0.483106 0.578219
O O2 0.000000 0.500000 0.500000
O O3 0.844495 0.330329 0.555379
O O4 0.032077 0.444200 0.336689
O O5 0.168152 0.262607 0.379615
O O6 0.908946 0.145197 0.477001
O O7 0.930428 0.202486 0.622646
O O8 0.360184 0.486514 0.693183
O O9 0.694970 0.523380 0.424105
O O10 0.500000 0.278713 0.250000
O O11 0.592827 0.131146 0.290097
#
# Coordination Sequence:
#
# PCOD9291305 Si02
#       5
#     8   8   8   8   8
#     4  12  23  41  65  98 131 172 228 274 331 399
#     4  11  24  42  64  99 132 175 227 274 343 397
#     4  10  23  43  68  92 134 177 218 277 335 404
#     4  11  22  41  65  95 134 173 224 280 335 403
#     4  10  22  42  66  94 128 175 224 270 343 398
#
# _framework density 25.175778999999999
#
# number of rings (size 3 to 8) (size 9 to 14) (size 15 to 20)
#    0.000    1.200    2.000    4.200    0.000    0.800 
#    7.200    2.000    0.000    0.000    0.000    0.000 
#    0.000    0.000    0.000    0.000    0.000    0.000 
#
# Total GULP energy -111984.319940 kJ/mol
# GULP energy per Si atom -5599.215997 kJ/mol
# Density = 2.511848 g / cm^3
# Si number density = 25.175779 Si / 1000 Ang^3
#
#
#
# Elastic Constant Matrix: (Units=GPa)
#
#
# Indices 1 2 3 4 5 6 
#
# 1 167.9868 -2.0209 30.0792 -0.0003 -12.3690 0.0001
# 2 -2.0209 80.3105 -17.4819 -0.0006 -0.9553 0.0002
# 3 30.0792 -17.4819 91.4881 -0.0018 1.9035 0.0006
# 4 -0.0003 -0.0006 -0.0018 24.1601 0.0006 -2.9252
# 5 -12.3690 -0.9553 1.9035 0.0006 33.1670 -0.0002
# 6 0.0001 0.0002 0.0006 -2.9252 -0.0002 20.9137
#
#
#
# Elastic Compliance Matrix: (Units=1/GPa)
#
#
# Indices 1 2 3 4 5 6 
#
# 1 0.006543 -0.000297 -0.002261 0.000000 0.002561 0.000000
# 2 -0.000297 0.013007 0.002581 0.000000 0.000116 0.000000
# 3 -0.002261 0.002581 0.012198 0.000001 -0.001469 0.000000
# 4 0.000000 0.000000 0.000001 0.042104 -0.000001 0.005889
# 5 0.002561 0.000116 -0.001469 -0.000001 0.031193 0.000000
# 6 0.000000 0.000000 0.000000 0.005889 0.000000 0.048639
#
#
# Mechanical properties :
#
#
# Convention : Reuss Voigt Hill
#
# Bulk Modulus (GPa) = 31.45388 40.10425 35.77907
# Shear Modulus (GPa) = 30.44400 37.59545 34.01972
#
# Velocity S-wave (km/s) = 3.48121 3.86854 3.67997
# Velocity P-wave (km/s) = 5.35530 5.99320 5.68321
#
# Compressibility (1/GPa) = 0.03179258
#
# Stress axis : x y z
#
# Youngs Moduli (GPa) = 152.84133 76.87965 81.98400
#
# Poissons Ratio (x) = 0.02284 0.18538
# Poissons Ratio (y) = 0.04541 -0.21158
# Poissons Ratio (z) = 0.34560 -0.19841
#
# Static dielectric constant tensor:
#      x y z
#    x 2.014090 0.000000 0.076950 
#    y 0.000000 2.052930 0.000000 
#    z 0.076950 0.000000 1.972310 
# 
# From -- ./inp_files/85730.got.cif
#   From: 2010.05.17/outbox.cif.g08.bks.cpg/sg15_43_cif.got.tgz:85730.got - 2010.06.03 18:47:42.
