data_PCOD9291176
_publ_section_title
;
Structure prediction by ZEFSAII (Michael W. Deem and Ramdas Pophale) SiO2 
 PCOD9291176
Probable space group: C 2/C
;
_chemical_formula_sum "Si O2"
_cell_formula_units_Z 40
_cell_length_a 11.767119
_cell_length_b 23.787861
_cell_length_c 10.474214
_cell_angle_alpha 90.000000
_cell_angle_beta 37.982773
_cell_angle_gamma 90.000000
_cell_volume 1804.354116
_symmetry_space_group_name_H-M "C 2/C"
_symmetry_group_IT_number 15
_symmetry_cell_setting 'monoclinic'
loop_
_space_group_symop_operation_xyz
x,y,z
-x,y,1/2-z
-x,-y,-z
x,-y,1/2+z
1/2+x,1/2+y,z
1/2-x,1/2+y,1/2-z
1/2-x,1/2-y,-z
1/2+x,1/2-y,1/2+z
loop_
_atom_site_type_symbol
_atom_site_label
_atom_site_fract_x
_atom_site_fract_y
_atom_site_fract_z
Si Si1 0.500000 0.446569 0.750000
Si Si2 0.341924 0.553764 0.804666
Si Si3 0.728668 0.121856 0.656347
Si Si4 0.401897 0.166297 0.086769
Si Si5 0.490741 0.719892 0.110814
Si Si6 0.500000 0.905193 0.750000
O O1 0.416323 0.490543 0.721202
O O2 0.670172 0.410654 0.547830
O O3 0.500000 0.583051 0.750000
O O4 0.299227 0.586753 0.715840
O O5 0.160701 0.555801 0.052210
O O6 0.828742 0.182022 0.568258
O O7 0.512487 0.131662 0.878921
O O8 0.188756 0.180902 0.249057
O O9 0.430690 0.133888 0.194223
O O10 0.497732 0.227766 0.995038
O O11 0.500000 0.739940 0.250000
#
# Coordination Sequence:
#
# PCOD9291176 Si02
#       6
#     4   8   8   8   8   4
#     4  10  22  42  65  92 123 172 216 266 320 376
#     4   9  21  41  65  88 131 161 216 266 315 378
#     4  11  22  43  62  95 127 170 212 263 323 373
#     4  11  25  41  68  94 135 169 213 260 318 388
#     4  12  24  42  64  95 133 173 211 260 318 384
#     4  10  22  46  63 100 129 168 210 266 324 376
#
# _framework density 22.168597999999999
#
# number of rings (size 3 to 8) (size 9 to 14) (size 15 to 20)
#    0.600    0.800    3.000    2.400    0.000    0.800 
#    5.400    2.000    0.000    0.000    0.000    0.000 
#    0.000    0.000    0.000    0.000    0.000    0.000 
#
# Total GULP energy -111655.591636 kJ/mol
# GULP energy per Si atom -5582.779582 kJ/mol
# Density = 2.211814 g / cm^3
# Si number density = 22.168598 Si / 1000 Ang^3
#
#
#
# Elastic Constant Matrix: (Units=GPa)
#
#
# Indices 1 2 3 4 5 6 
#
# 1 53.2126 0.6685 29.3179 0.0000 -14.8416 0.0000
# 2 0.6685 71.6038 14.7431 0.0000 4.1649 0.0000
# 3 29.3179 14.7431 118.9069 0.0000 -13.7505 0.0000
# 4 0.0000 0.0000 0.0000 11.9457 0.0000 -29.6315
# 5 -14.8416 4.1649 -13.7505 0.0000 40.0488 0.0000
# 6 0.0000 0.0000 0.0000 -29.6315 0.0000 -5.3221
#
#
#
# Elastic Compliance Matrix: (Units=1/GPa)
#
#
# Indices 1 2 3 4 5 6 
#
# 1 0.023500 0.000416 -0.005044 0.000000 0.006934 0.000000
# 2 0.000416 0.014525 -0.002146 0.000000 -0.002093 0.000000
# 3 -0.005044 -0.002146 0.010132 0.000000 0.001832 0.000000
# 4 0.000000 0.000000 0.000000 0.005652 0.000000 -0.031469
# 5 0.006934 -0.002093 0.001832 0.000000 0.028386 0.000000
# 6 0.000000 0.000000 0.000000 -0.031469 0.000000 -0.012687
#
#
# Mechanical properties :
#
#
# Convention : Reuss Voigt Hill
#
# Bulk Modulus (GPa) = 28.89360 37.02027 32.95694
# Shear Modulus (GPa) = 52.85815 22.60074 37.72944
#
# Velocity S-wave (km/s) = 4.88830 3.19641 4.12992
# Velocity P-wave (km/s) = 6.70242 5.50985 6.13518
#
# Compressibility (1/GPa) = 0.03460974
#
# Stress axis : x y z
#
# Youngs Moduli (GPa) = 42.55268 68.84504 98.70170
#
# Poissons Ratio (x) = -0.02863 0.49785
# Poissons Ratio (y) = -0.01770 0.21177
# Poissons Ratio (z) = 0.21464 0.14771
#
# Static dielectric constant tensor:
#      x y z
#    x 1.820780 0.000000 -0.026760 
#    y 0.000000 1.797460 0.000000 
#    z -0.026760 0.000000 1.853920 
# 
# From -- ./inp_files/100604.got.cif
#   From: 2010.05.17/outbox.cif.g08.bks.cpg/sg15_51_cif.got.tgz:100604.got - 2010.06.03 18:47:42.
