data_PCOD9291980
_publ_section_title
;
Structure prediction by ZEFSAII (Michael W. Deem and Ramdas Pophale) SiO2 
 PCOD9291980
Probable space group: C 2/C
;
_chemical_formula_sum "Si O2"
_cell_formula_units_Z 44
_cell_length_a 13.892832
_cell_length_b 23.607109
_cell_length_c 5.440619
_cell_angle_alpha 90.000000
_cell_angle_beta 83.428740
_cell_angle_gamma 90.000000
_cell_volume 1772.634929
_symmetry_space_group_name_H-M "C 2/C"
_symmetry_group_IT_number 15
_symmetry_cell_setting 'monoclinic'
loop_
_space_group_symop_operation_xyz
x,y,z
-x,y,1/2-z
-x,-y,-z
x,-y,1/2+z
1/2+x,1/2+y,z
1/2-x,1/2+y,1/2-z
1/2-x,1/2-y,-z
1/2+x,1/2-y,1/2+z
loop_
_atom_site_type_symbol
_atom_site_label
_atom_site_fract_x
_atom_site_fract_y
_atom_site_fract_z
Si Si1 0.110675 0.360556 0.620278
Si Si2 0.850107 0.253972 0.615223
Si Si3 0.851050 0.479050 0.675879
Si Si4 0.059285 0.864980 0.474952
Si Si5 0.865676 0.980368 0.884179
Si Si6 0.000000 0.676046 0.750000
O O1 0.158316 0.413955 0.734634
O O2 0.085919 0.361721 0.340593
O O3 0.000000 0.362335 0.750000
O O4 0.159388 0.299943 0.662776
O O5 0.750000 0.250000 0.500000
O O6 0.885039 0.190230 0.642588
O O7 0.939488 0.282185 0.441646
O O8 0.897868 0.489464 0.395821
O O9 0.742937 0.501339 0.645825
O O10 0.130093 0.915987 0.527428
O O11 0.000000 0.853067 0.750000
O O12 0.000000 0.883649 0.250000
O O13 0.908953 0.983748 0.597476
#
# Coordination Sequence:
#
# PCOD9291980 Si02
#       6
#     8   8   8   8   8   4
#     4  10  23  41  64  94 132 176 218 283 341 405
#     4  11  24  44  68  97 135 181 227 284 349 405
#     4  10  23  41  65  95 132 172 231 279 328 410
#     4  12  25  43  68 100 137 173 229 287 331 412
#     4  10  22  43  64  94 132 177 223 278 338 402
#     4  10  22  44  64  94 138 168 230 278 346 414
#
# _framework density 24.821804
#
# number of rings (size 3 to 8) (size 9 to 14) (size 15 to 20)
#    0.000    1.455    0.909    3.818    5.091    3.636 
#    6.545    0.000    0.000    0.000    0.000    0.000 
#    0.000    0.000    0.000    0.000    0.000    0.000 
#
# Total GULP energy -122707.866129 kJ/mol
# GULP energy per Si atom -5577.630279 kJ/mol
# Density = 2.476531 g / cm^3
# Si number density = 24.821804 Si / 1000 Ang^3
#
#
#
# Elastic Constant Matrix: (Units=GPa)
#
#
# Indices 1 2 3 4 5 6 
#
# 1 66.7403 5.4255 28.1395 0.0000 11.5116 0.0000
# 2 5.4255 154.0641 75.2065 0.0000 17.3943 0.0000
# 3 28.1395 75.2065 178.5475 0.0000 44.8352 0.0000
# 4 0.0000 0.0000 0.0000 80.7795 0.0000 31.8330
# 5 11.5116 17.3943 44.8352 0.0000 30.7848 0.0000
# 6 0.0000 0.0000 0.0000 31.8330 0.0000 42.6260
#
#
#
# Elastic Compliance Matrix: (Units=1/GPa)
#
#
# Indices 1 2 3 4 5 6 
#
# 1 0.016396 0.000816 -0.002006 0.000000 -0.003671 0.000000
# 2 0.000816 0.008219 -0.003702 0.000000 0.000442 0.000000
# 3 -0.002006 -0.003702 0.010662 0.000000 -0.012686 0.000000
# 4 0.000000 0.000000 0.000000 0.017542 0.000000 -0.013100
# 5 -0.003671 0.000442 -0.012686 0.000000 0.052083 0.000000
# 6 0.000000 0.000000 0.000000 -0.013100 0.000000 0.033243
#
#
# Mechanical properties :
#
#
# Convention : Reuss Voigt Hill
#
# Bulk Modulus (GPa) = 39.22489 68.54387 53.88438
# Shear Modulus (GPa) = 31.96414 50.21007 41.08711
#
# Velocity S-wave (km/s) = 3.59241 4.50246 4.07293
# Velocity P-wave (km/s) = 5.74840 7.39620 6.62374
#
# Compressibility (1/GPa) = 0.02549402
#
# Stress axis : x y z
#
# Youngs Moduli (GPa) = 60.99025 121.66770 93.79380
#
# Poissons Ratio (x) = -0.09932 0.18817
# Poissons Ratio (y) = -0.04979 0.34718
# Poissons Ratio (z) = 0.12236 0.45036
#
# Static dielectric constant tensor:
#      x y z
#    x 1.974900 0.000000 -0.045410 
#    y 0.000000 1.985170 0.000000 
#    z -0.045410 0.000000 2.395230 
# 
# From -- ./inp_files/7616.got.cif
#   From: 2010.05.17/outbox.cif.g08.bks.cpg/sg15_4_cif.got.tgz:7616.got - 2010.06.03 18:47:42.
