data_PCOD9291926
_publ_section_title
;
Structure prediction by ZEFSAII (Michael W. Deem and Ramdas Pophale) SiO2 
 PCOD9291926
Probable space group: C 2/C
;
_chemical_formula_sum "Si O2"
_cell_formula_units_Z 44
_cell_length_a 20.724031
_cell_length_b 18.808870
_cell_length_c 5.464133
_cell_angle_alpha 90.000000
_cell_angle_beta 104.462766
_cell_angle_gamma 90.000000
_cell_volume 2062.398968
_symmetry_space_group_name_H-M "C 2/C"
_symmetry_group_IT_number 15
_symmetry_cell_setting 'monoclinic'
loop_
_space_group_symop_operation_xyz
x,y,z
-x,y,1/2-z
-x,-y,-z
x,-y,1/2+z
1/2+x,1/2+y,z
1/2-x,1/2+y,1/2-z
1/2-x,1/2-y,-z
1/2+x,1/2-y,1/2+z
loop_
_atom_site_type_symbol
_atom_site_label
_atom_site_fract_x
_atom_site_fract_y
_atom_site_fract_z
Si Si1 0.402133 0.187288 0.493356
Si Si2 0.109585 0.175776 0.202405
Si Si3 0.500000 0.719204 0.750000
Si Si4 0.574794 0.973073 0.515168
Si Si5 0.579286 0.534648 0.365077
Si Si6 0.246672 0.705140 0.250292
O O1 0.395468 0.242551 0.711462
O O2 0.452104 0.229287 0.362122
O O3 0.428114 0.108866 0.566086
O O4 0.327558 0.174097 0.322113
O O5 0.094806 0.118441 0.397252
O O6 0.184515 0.161500 0.184206
O O7 0.050163 0.170385 0.952392
O O8 0.500000 0.000000 0.500000
O O9 0.606347 0.015372 0.315559
O O10 0.500000 0.525949 0.250000
O O11 0.605638 0.495158 0.630306
O O12 0.250000 0.750000 0.500000
O O13 0.250000 0.750000 0.000000
#
# Coordination Sequence:
#
# PCOD9291926 Si02
#       6
#     8   8   4   8   8   8
#     4  11  24  40  67  95 131 180 221 278 335 395
#     4  11  25  40  65 100 129 169 233 274 331 411
#     4  12  22  34  68  96 130 152 232 272 332 378
#     4  10  23  39  59  89 135 169 210 266 333 385
#     4  10  23  40  62  90 133 169 206 272 345 396
#     4  10  22  43  62  93 134 172 216 279 333 387
#
# _framework density 21.334378999999998
#
# number of rings (size 3 to 8) (size 9 to 14) (size 15 to 20)
#    0.000    1.455    1.818    2.727   14.000    0.000 
#    0.000    1.818    0.000    0.000    0.000    0.000 
#    0.000    0.000    0.000    0.000    0.000    0.000 
#
# Total GULP energy -122684.313573 kJ/mol
# GULP energy per Si atom -5576.559708 kJ/mol
# Density = 2.128582 g / cm^3
# Si number density = 21.334379 Si / 1000 Ang^3
#
#
#
# Elastic Constant Matrix: (Units=GPa)
#
#
# Indices 1 2 3 4 5 6 
#
# 1 121.9885 3.4386 30.0063 0.0000 23.5316 0.0000
# 2 3.4386 93.7341 22.5623 0.0000 6.9972 0.0000
# 3 30.0063 22.5623 106.9556 0.0000 -6.9410 0.0000
# 4 0.0000 0.0000 0.0000 29.8067 0.0000 -4.8452
# 5 23.5316 6.9972 -6.9410 0.0000 27.7159 0.0000
# 6 0.0000 0.0000 0.0000 -4.8452 0.0000 16.7804
#
#
#
# Elastic Compliance Matrix: (Units=1/GPa)
#
#
# Indices 1 2 3 4 5 6 
#
# 1 0.011311 0.001414 -0.004186 0.000000 -0.011009 0.000000
# 2 0.001414 0.011758 -0.003200 0.000000 -0.004971 0.000000
# 3 -0.004186 -0.003200 0.011672 0.000000 0.007285 0.000000
# 4 0.000000 0.000000 0.000000 0.035202 0.000000 0.010164
# 5 -0.011009 -0.004971 0.007285 0.000000 0.048506 0.000000
# 6 0.000000 0.000000 0.000000 0.010164 0.000000 0.062528
#
#
# Mechanical properties :
#
#
# Convention : Reuss Voigt Hill
#
# Bulk Modulus (GPa) = 43.86373 48.29921 46.08147
# Shear Modulus (GPa) = 24.93533 32.63866 28.78700
#
# Velocity S-wave (km/s) = 3.42246 3.91559 3.67730
# Velocity P-wave (km/s) = 6.01851 6.56740 6.29893
#
# Compressibility (1/GPa) = 0.02279788
#
# Stress axis : x y z
#
# Youngs Moduli (GPa) = 88.41045 85.04974 85.67651
#
# Poissons Ratio (x) = -0.12030 0.35865
# Poissons Ratio (y) = -0.12505 0.27414
# Poissons Ratio (z) = 0.37009 0.27213
#
# Static dielectric constant tensor:
#      x y z
#    x 1.714690 0.000000 -0.064500 
#    y 0.000000 1.770060 0.000000 
#    z -0.064500 0.000000 1.846930 
# 
# From -- ./inp_files/12889.got.cif
#   From: 2010.05.17/outbox.cif.g08.bks.cpg/sg15_7_cif.got.tgz:12889.got - 2010.06.03 18:47:42.
