data_PCOD9291703
_publ_section_title
;
Structure prediction by ZEFSAII (Michael W. Deem and Ramdas Pophale) SiO2 
 PCOD9291703
Probable space group: C 2/C
;
_chemical_formula_sum "Si O2"
_cell_formula_units_Z 36
_cell_length_a 7.438178
_cell_length_b 21.764385
_cell_length_c 9.694731
_cell_angle_alpha 90.000000
_cell_angle_beta 59.285080
_cell_angle_gamma 90.000000
_cell_volume 1349.290318
_symmetry_space_group_name_H-M "C 2/C"
_symmetry_group_IT_number 15
_symmetry_cell_setting 'monoclinic'
loop_
_space_group_symop_operation_xyz
x,y,z
-x,y,1/2-z
-x,-y,-z
x,-y,1/2+z
1/2+x,1/2+y,z
1/2-x,1/2+y,1/2-z
1/2-x,1/2-y,-z
1/2+x,1/2-y,1/2+z
loop_
_atom_site_type_symbol
_atom_site_label
_atom_site_fract_x
_atom_site_fract_y
_atom_site_fract_z
Si Si1 0.728279 0.364988 0.739574
Si Si2 0.928687 0.152429 0.921859
Si Si3 0.323404 0.182144 0.930811
Si Si4 0.149537 0.013374 0.567740
Si Si5 0.000000 0.474028 0.750000
O O1 0.500000 0.363256 0.750000
O O2 0.879959 0.343906 0.557859
O O3 0.829177 0.429149 0.747753
O O4 0.708917 0.326001 0.890555
O O5 0.831440 0.086876 0.917086
O O6 0.000000 0.184281 0.750000
O O7 0.145132 0.143736 0.921067
O O8 0.500000 0.187769 0.750000
O O9 0.250000 0.250000 0.000000
O O10 0.373801 0.990425 0.419761
O O11 0.000000 0.991892 0.750000
O O12 0.000000 0.000000 0.500000
#
# Coordination Sequence:
#
# PCOD9291703 Si02
#       5
#     8   8   8   8   4
#     4   9  20  39  64  90 128 165 216 272 321 382
#     4   9  20  41  64  88 126 162 214 271 317 380
#     4  11  23  39  61  92 129 168 214 265 334 389
#     4  10  23  41  64  96 132 166 224 275 322 401
#     4  10  22  42  70  92 130 178 220 262 350 380
#
# _framework density 26.680693999999999
#
# number of rings (size 3 to 8) (size 9 to 14) (size 15 to 20)
#    0.000    2.222    0.000    2.000    9.333    8.000 
#    4.000    2.222    0.000    0.000    0.000    0.000 
#    0.000    0.000    0.000    0.000    0.000    0.000 
#
# Total GULP energy -100252.982250 kJ/mol
# GULP energy per Si atom -5569.610125 kJ/mol
# Density = 2.661997 g / cm^3
# Si number density = 26.680694 Si / 1000 Ang^3
#
#
#
# Elastic Constant Matrix: (Units=GPa)
#
#
# Indices 1 2 3 4 5 6 
#
# 1 82.9601 3.0534 52.4546 0.0000 7.5383 0.0000
# 2 3.0534 44.6702 12.5616 0.0000 0.2278 0.0000
# 3 52.4546 12.5616 377.0458 0.0000 1.1562 0.0000
# 4 0.0000 0.0000 0.0000 -143.3893 0.0000 115.3820
# 5 7.5383 0.2278 1.1562 0.0000 61.8473 0.0000
# 6 0.0000 0.0000 0.0000 115.3820 0.0000 -75.1733
#
#
#
# Elastic Compliance Matrix: (Units=1/GPa)
#
#
# Indices 1 2 3 4 5 6 
#
# 1 0.013379 -0.000388 -0.001843 0.000000 -0.001595 0.000000
# 2 -0.000388 0.022610 -0.000699 0.000000 -0.000023 0.000000
# 3 -0.001843 -0.000699 0.002931 0.000000 0.000172 0.000000
# 4 0.000000 0.000000 0.000000 0.029666 0.000000 0.045534
# 5 -0.001595 -0.000023 0.000172 0.000000 0.016360 0.000000
# 6 0.000000 0.000000 0.000000 0.045534 0.000000 0.056587
#
#
# Mechanical properties :
#
#
# Convention : Reuss Voigt Hill
#
# Bulk Modulus (GPa) = 30.24941 71.20171 50.72556
# Shear Modulus (GPa) = 31.56290 -2.23595 14.66347
#
# Velocity S-wave (km/s) = 3.44319 -0.91644 2.34688
# Velocity P-wave (km/s) = 5.21244 5.06209 5.13782
#
# Compressibility (1/GPa) = 0.03305850
#
# Stress axis : x y z
#
# Youngs Moduli (GPa) = 74.74536 44.22908 341.13130
#
# Poissons Ratio (x) = 0.01716 0.62885
# Poissons Ratio (y) = 0.02900 0.23852
# Poissons Ratio (z) = 0.13779 0.03093
#
# Static dielectric constant tensor:
#      x y z
#    x 2.130550 0.000000 -0.081840 
#    y 0.000000 2.153920 0.000000 
#    z -0.081840 0.000000 2.755950 
# 
# From -- ./inp_files/24304.got.cif
#   From: 2010.05.17/outbox.cif.g08.bks.cpg/sg15_13_cif.got.tgz:24304.got - 2010.06.03 18:47:42.
