data_PCOD9291833
_publ_section_title
;
Structure prediction by ZEFSAII (Michael W. Deem and Ramdas Pophale) SiO2 
 PCOD9291833
Probable space group: C 2/C
;
_chemical_formula_sum "Si O2"
_cell_formula_units_Z 60
_cell_length_a 12.613297
_cell_length_b 7.742075
_cell_length_c 26.867753
_cell_angle_alpha 90.000000
_cell_angle_beta 77.715444
_cell_angle_gamma 90.000000
_cell_volume 2563.643739
_symmetry_space_group_name_H-M "C 2/C"
_symmetry_group_IT_number 15
_symmetry_cell_setting 'monoclinic'
loop_
_space_group_symop_operation_xyz
x,y,z
-x,y,1/2-z
-x,-y,-z
x,-y,1/2+z
1/2+x,1/2+y,z
1/2-x,1/2+y,1/2-z
1/2-x,1/2-y,-z
1/2+x,1/2-y,1/2+z
loop_
_atom_site_type_symbol
_atom_site_label
_atom_site_fract_x
_atom_site_fract_y
_atom_site_fract_z
Si Si1 0.607939 0.478548 0.308337
Si Si2 0.836782 0.705001 0.115588
Si Si3 0.000000 0.712243 0.250000
Si Si4 0.879048 0.038014 0.360118
Si Si5 0.260108 0.041451 0.938719
Si Si6 0.309899 0.155771 0.331460
Si Si7 0.020661 0.539244 0.054427
Si Si8 0.090615 0.069168 0.530678
O O1 0.609026 0.345913 0.354915
O O2 0.588899 0.342245 0.265724
O O3 0.494844 0.579722 0.324511
O O4 0.713862 0.598770 0.302717
O O5 0.716870 0.664698 0.146281
O O6 0.913550 0.541910 0.098892
O O7 0.813832 0.792846 0.064642
O O8 0.927409 0.604766 0.296277
O O9 0.834635 0.852229 0.345559
O O10 0.895179 0.028853 0.418236
O O11 0.271179 0.935496 0.886309
O O12 0.383622 0.083562 0.938137
O O13 0.202161 0.940281 0.988665
O O14 0.062913 0.736505 0.050353
O O15 0.000000 0.500000 0.000000
O O16 0.000000 0.000000 0.500000
#
# Coordination Sequence:
#
# PCOD9291833 Si02
#       8
#     8   8   4   8   8   8   8   8
#     4  10  22  46  67  96 128 160 206 263 325 388
#     4  11  24  42  61  93 131 169 213 264 306 372
#     4  10  22  42  72  96 126 154 202 268 332 384
#     4  11  23  41  66  91 130 174 215 259 310 366
#     4  11  23  41  61  88 130 171 215 257 316 369
#     4  10  22  43  69  92 122 170 205 260 325 384
#     4  12  24  36  56  91 129 174 224 258 302 362
#     4  12  22  40  62  88 135 180 215 264 309 360
#
# _framework density 23.404188999999999
#
# number of rings (size 3 to 8) (size 9 to 14) (size 15 to 20)
#    0.000    1.067    4.000    2.800    3.733    4.267 
#    0.000    2.667    0.000    1.600    0.000    0.000 
#    0.000    0.000    0.000    0.000    0.000    0.000 
#
# Total GULP energy -167456.480743 kJ/mol
# GULP energy per Si atom -5581.882691 kJ/mol
# Density = 2.335092 g / cm^3
# Si number density = 23.404189 Si / 1000 Ang^3
#
#
#
# Elastic Constant Matrix: (Units=GPa)
#
#
# Indices 1 2 3 4 5 6 
#
# 1 126.8412 16.5182 18.3632 0.0000 -9.5207 0.0000
# 2 16.5182 42.9592 -0.6997 0.0000 -4.7280 0.0000
# 3 18.3632 -0.6997 68.3892 0.0000 -19.1008 0.0000
# 4 0.0000 0.0000 0.0000 12.2701 0.0000 -3.1610
# 5 -9.5207 -4.7280 -19.1008 0.0000 46.3163 0.0000
# 6 0.0000 0.0000 0.0000 -3.1610 0.0000 39.8334
#
#
#
# Elastic Compliance Matrix: (Units=1/GPa)
#
#
# Indices 1 2 3 4 5 6 
#
# 1 0.008676 -0.003314 -0.002215 0.000000 0.000532 0.000000
# 2 -0.003314 0.024872 0.001880 0.000000 0.002633 0.000000
# 3 -0.002215 0.001880 0.017136 0.000000 0.006804 0.000000
# 4 0.000000 0.000000 0.000000 0.083200 0.000000 0.006602
# 5 0.000532 0.002633 0.006804 0.000000 0.024775 0.000000
# 6 0.000000 0.000000 0.000000 0.006602 0.000000 0.025629
#
#
# Mechanical properties :
#
#
# Convention : Reuss Voigt Hill
#
# Bulk Modulus (GPa) = 23.04847 34.06144 28.55496
# Shear Modulus (GPa) = 24.26620 33.28448 28.77534
#
# Velocity S-wave (km/s) = 3.22348 3.77524 3.51022
# Velocity P-wave (km/s) = 4.87071 5.79555 5.35314
#
# Compressibility (1/GPa) = 0.04338683
#
# Stress axis : x y z
#
# Youngs Moduli (GPa) = 115.26087 40.20524 58.35538
#
# Poissons Ratio (x) = 0.13322 0.12926
# Poissons Ratio (y) = 0.38192 -0.10968
# Poissons Ratio (z) = 0.25530 -0.07557
#
# Static dielectric constant tensor:
#      x y z
#    x 1.957910 0.000000 -0.001560 
#    y 0.000000 1.907340 0.000000 
#    z -0.001560 0.000000 1.970940 
# 
# From -- ./inp_files/309969.got.cif
#   From: 2010.05.17/outbox.cif.g08.bks.cpg/sg15_155_cif.got.tgz:309969.got - 2010.06.03 18:47:42.
