data_PCOD9291569
_publ_section_title
;
Structure prediction by ZEFSAII (Michael W. Deem and Ramdas Pophale) SiO2 
 PCOD9291569
Probable space group: C 2/C
;
_chemical_formula_sum "Si O2"
_cell_formula_units_Z 56
_cell_length_a 10.256247
_cell_length_b 23.598826
_cell_length_c 11.523265
_cell_angle_alpha 90.000000
_cell_angle_beta 55.193071
_cell_angle_gamma 90.000000
_cell_volume 2290.023770
_symmetry_space_group_name_H-M "C 2/C"
_symmetry_group_IT_number 15
_symmetry_cell_setting 'monoclinic'
loop_
_space_group_symop_operation_xyz
x,y,z
-x,y,1/2-z
-x,-y,-z
x,-y,1/2+z
1/2+x,1/2+y,z
1/2-x,1/2+y,1/2-z
1/2-x,1/2-y,-z
1/2+x,1/2-y,1/2+z
loop_
_atom_site_type_symbol
_atom_site_label
_atom_site_fract_x
_atom_site_fract_y
_atom_site_fract_z
Si Si1 0.773888 0.038993 0.144253
Si Si2 0.796874 0.329337 0.167325
Si Si3 0.318717 0.621159 0.321104
Si Si4 0.883052 0.624978 0.407555
Si Si5 0.854924 0.203193 0.092362
Si Si6 0.424468 0.434711 0.167223
Si Si7 0.224825 0.193083 0.942892
O O1 0.737920 0.075351 0.278557
O O2 0.653141 0.059990 0.106257
O O3 0.790929 0.975507 0.179546
O O4 0.940869 0.060343 0.001549
O O5 0.780593 0.265644 0.125188
O O6 0.654503 0.375211 0.254870
O O7 0.544910 0.298631 0.485223
O O8 0.921253 0.360337 0.019256
O O9 0.500000 0.601534 0.250000
O O10 0.323442 0.676404 0.235481
O O11 0.263420 0.640640 0.474929
O O12 0.724296 0.661343 0.460690
O O13 0.000000 0.647333 0.250000
O O14 0.839765 0.316137 0.277126
O O15 0.500000 0.457514 0.250000
O O16 0.250000 0.250000 0.000000
#
# Coordination Sequence:
#
# PCOD9291569 Si02
#       7
#     8   8   8   8   8   8   8
#     4  10  22  42  68  98 130 171 222 283 344 389
#     4  12  24  39  65 101 136 176 230 275 340 406
#     4   9  17  36  59  92 128 170 210 262 331 396
#     4  11  25  45  66  95 138 184 227 277 339 416
#     4  10  23  38  64  96 136 179 219 271 340 400
#     4  11  22  40  70 103 130 164 229 291 335 404
#     4  11  23  40  66  98 140 174 222 280 335 408
#
# _framework density 24.453893999999998
#
# number of rings (size 3 to 8) (size 9 to 14) (size 15 to 20)
#    0.000    1.429    2.857    3.429    2.000    1.714 
#    0.000    0.714    3.143    0.000    0.000    0.000 
#    0.000    0.000    0.000    0.000    0.000    0.000 
#
# Total GULP energy -156271.042430 kJ/mol
# GULP energy per Si atom -5581.108658 kJ/mol
# Density = 2.439824 g / cm^3
# Si number density = 24.453894 Si / 1000 Ang^3
#
#
#
# Elastic Constant Matrix: (Units=GPa)
#
#
# Indices 1 2 3 4 5 6 
#
# 1 63.7747 17.9468 8.7387 0.0000 1.1866 0.0000
# 2 17.9468 110.7452 31.4601 0.0000 2.5635 0.0000
# 3 8.7387 31.4601 142.2439 0.0000 22.4510 0.0000
# 4 0.0000 0.0000 0.0000 24.2702 0.0000 -0.9101
# 5 1.1866 2.5635 22.4510 0.0000 29.8204 0.0000
# 6 0.0000 0.0000 0.0000 -0.9101 0.0000 27.9887
#
#
#
# Elastic Compliance Matrix: (Units=1/GPa)
#
#
# Indices 1 2 3 4 5 6 
#
# 1 0.016457 -0.002542 -0.000431 0.000000 -0.000112 0.000000
# 2 -0.002542 0.010048 -0.002208 0.000000 0.000900 0.000000
# 3 -0.000431 -0.002208 0.008525 0.000000 -0.006212 0.000000
# 4 0.000000 0.000000 0.000000 0.041253 0.000000 0.001341
# 5 -0.000112 0.000900 -0.006212 0.000000 0.038138 0.000000
# 6 0.000000 0.000000 0.000000 0.001341 0.000000 0.035772
#
#
# Mechanical properties :
#
#
# Convention : Reuss Voigt Hill
#
# Bulk Modulus (GPa) = 40.53871 48.11722 44.32796
# Shear Modulus (GPa) = 29.62463 33.65707 31.64085
#
# Velocity S-wave (km/s) = 3.48436 3.71394 3.60098
# Velocity P-wave (km/s) = 5.72724 6.17338 5.95449
#
# Compressibility (1/GPa) = 0.02466778
#
# Stress axis : x y z
#
# Youngs Moduli (GPa) = 60.76574 99.52111 117.29565
#
# Poissons Ratio (x) = 0.25296 0.05058
# Poissons Ratio (y) = 0.15445 0.25901
# Poissons Ratio (z) = 0.02620 0.21976
#
# Static dielectric constant tensor:
#      x y z
#    x 2.053960 0.000000 -0.009770 
#    y 0.000000 1.958290 0.000000 
#    z -0.009770 0.000000 1.989710 
# 
# From -- ./inp_files/90705.got.cif
#   From: 2010.05.17/outbox.cif.g08.bks.cpg/sg15_46_cif.got.tgz:90705.got - 2010.06.03 18:47:42.
