data_PCOD9291601
_publ_section_title
;
Structure prediction by ZEFSAII (Michael W. Deem and Ramdas Pophale) SiO2 
 PCOD9291601
Probable space group: C 2/C
;
_chemical_formula_sum "Si O2"
_cell_formula_units_Z 48
_cell_length_a 25.022859
_cell_length_b 5.106472
_cell_length_c 17.078033
_cell_angle_alpha 90.000000
_cell_angle_beta 126.266125
_cell_angle_gamma 90.000000
_cell_volume 1759.464978
_symmetry_space_group_name_H-M "C 2/C"
_symmetry_group_IT_number 15
_symmetry_cell_setting 'monoclinic'
loop_
_space_group_symop_operation_xyz
x,y,z
-x,y,1/2-z
-x,-y,-z
x,-y,1/2+z
1/2+x,1/2+y,z
1/2-x,1/2+y,1/2-z
1/2-x,1/2-y,-z
1/2+x,1/2-y,1/2+z
loop_
_atom_site_type_symbol
_atom_site_label
_atom_site_fract_x
_atom_site_fract_y
_atom_site_fract_z
Si Si1 0.823085 0.608900 0.766735
Si Si2 0.750000 0.750000 0.500000
Si Si3 0.500000 0.181878 0.750000
Si Si4 0.228789 0.889491 0.337768
Si Si5 0.613807 0.511093 0.443400
Si Si6 0.572163 0.258230 0.060930
Si Si7 0.488485 0.865399 0.609685
O O1 0.828630 0.899523 0.736351
O O2 0.773660 0.623400 0.798349
O O3 0.884167 0.456518 0.856122
O O4 0.795355 0.411158 0.674667
O O5 0.735661 0.967782 0.559858
O O6 0.682606 0.583595 0.464853
O O7 0.444135 0.345859 0.657469
O O8 0.532371 0.984771 0.715655
O O9 0.615715 0.571275 0.539344
O O10 0.582312 0.222698 0.418086
O O11 0.524474 0.357221 0.089567
O O12 0.527766 0.099119 0.961955
#
# Coordination Sequence:
#
# PCOD9291601 Si02
#       7
#     8   4   4   8   8   8   8
#     4  10  22  43  68  99 143 189 243 302 367 465
#     4  12  26  46  68 110 144 200 238 324 384 464
#     4  10  24  44  64 106 138 188 244 298 382 450
#     4  10  24  42  66 101 143 191 238 299 380 455
#     4  11  24  45  69 101 147 187 249 312 384 459
#     4  10  22  42  69 102 131 186 252 305 370 446
#     4  10  23  42  71  98 137 190 241 314 366 455
#
# _framework density 27.281019000000001
#
# number of rings (size 3 to 8) (size 9 to 14) (size 15 to 20)
#    0.000    1.667    1.667    1.000    4.667    4.667 
#    3.000    0.000    0.000    0.000    0.000    0.000 
#    0.000    0.000    0.000    0.000    0.000    0.000 
#
# Total GULP energy -133658.728383 kJ/mol
# GULP energy per Si atom -5569.113683 kJ/mol
# Density = 2.721893 g / cm^3
# Si number density = 27.281019 Si / 1000 Ang^3
#
#
#
# Elastic Constant Matrix: (Units=GPa)
#
#
# Indices 1 2 3 4 5 6 
#
# 1 93.4614 36.3560 21.9452 0.0000 6.0517 0.0001
# 2 36.3560 108.0495 13.7564 0.0007 3.0358 -0.0004
# 3 21.9452 13.7564 98.3401 0.0001 -0.8701 0.0000
# 4 0.0000 0.0007 0.0001 33.7205 0.0000 9.3984
# 5 6.0517 3.0358 -0.8701 0.0000 29.0740 0.0000
# 6 0.0001 -0.0004 0.0000 9.3984 0.0000 23.0846
#
#
#
# Elastic Compliance Matrix: (Units=1/GPa)
#
#
# Indices 1 2 3 4 5 6 
#
# 1 0.012958 -0.003994 -0.002354 0.000000 -0.002351 0.000000
# 2 -0.003994 0.010685 -0.000606 0.000000 -0.000302 0.000000
# 3 -0.002354 -0.000606 0.010787 0.000000 0.000876 0.000000
# 4 0.000000 0.000000 0.000000 0.033451 0.000000 -0.013619
# 5 -0.002351 -0.000302 0.000876 0.000000 0.034942 0.000000
# 6 0.000000 0.000000 0.000000 -0.013619 0.000000 0.048864
#
#
# Mechanical properties :
#
#
# Convention : Reuss Voigt Hill
#
# Bulk Modulus (GPa) = 48.72986 49.32958 49.02972
# Shear Modulus (GPa) = 28.99639 32.36204 30.67921
#
# Velocity S-wave (km/s) = 3.26372 3.44793 3.35709
# Velocity P-wave (km/s) = 5.66599 5.82857 5.74785
#
# Compressibility (1/GPa) = 0.02052130
#
# Stress axis : x y z
#
# Youngs Moduli (GPa) = 77.17066 93.59193 92.70791
#
# Poissons Ratio (x) = 0.37385 0.21821
# Poissons Ratio (y) = 0.30825 0.05617
# Poissons Ratio (z) = 0.18164 0.05671
#
# Static dielectric constant tensor:
#      x y z
#    x 2.264500 0.000000 -0.130920 
#    y 0.000000 2.196970 0.000000 
#    z -0.130920 0.000000 1.616150 
# 
# From -- ./inp_files/221030.got.cif
#   From: 2010.05.17/outbox.cif.g08.bks.cpg/sg15_111_cif.got.tgz:221030.got - 2010.06.03 18:47:42.
