data_PCOD9291494
_publ_section_title
;
Structure prediction by ZEFSAII (Michael W. Deem and Ramdas Pophale) SiO2 
 PCOD9291494
Probable space group: C 2/C
;
_chemical_formula_sum "Si O2"
_cell_formula_units_Z 44
_cell_length_a 8.205494
_cell_length_b 12.505874
_cell_length_c 21.585041
_cell_angle_alpha 90.000000
_cell_angle_beta 119.797299
_cell_angle_gamma 90.000000
_cell_volume 1922.143201
_symmetry_space_group_name_H-M "C 2/C"
_symmetry_group_IT_number 15
_symmetry_cell_setting 'monoclinic'
loop_
_space_group_symop_operation_xyz
x,y,z
-x,y,1/2-z
-x,-y,-z
x,-y,1/2+z
1/2+x,1/2+y,z
1/2-x,1/2+y,1/2-z
1/2-x,1/2-y,-z
1/2+x,1/2-y,1/2+z
loop_
_atom_site_type_symbol
_atom_site_label
_atom_site_fract_x
_atom_site_fract_y
_atom_site_fract_z
Si Si1 0.459544 0.250341 0.065110
Si Si2 0.500000 0.771067 0.250000
Si Si3 0.911057 0.077455 0.146706
Si Si4 0.386409 0.620259 0.790422
Si Si5 0.142466 0.903302 0.009125
Si Si6 0.477461 0.993089 0.921345
O O1 0.505984 0.327470 0.130555
O O2 0.491144 0.129386 0.090961
O O3 0.250000 0.250000 0.000000
O O4 0.581140 0.295200 0.030990
O O5 0.416663 0.688594 0.183663
O O6 0.327892 0.839067 0.245502
O O7 0.878196 0.101488 0.068581
O O8 0.741660 0.996485 0.134869
O O9 0.095187 0.007621 0.195711
O O10 0.500000 0.651903 0.750000
O O11 0.353396 0.934070 0.070309
O O12 0.000000 0.000000 0.000000
O O13 0.500000 0.000000 0.000000
#
# Coordination Sequence:
#
# PCOD9291494 Si02
#       6
#     8   4   8   8   8   8
#     4  12  23  43  72 110 144 186 248 299 367 443
#     4  12  28  52  72 104 150 200 250 300 376 442
#     4  11  24  50  70 104 148 192 248 303 366 452
#     4  12  28  50  75 107 149 199 249 304 371 453
#     4  11  22  40  74 109 141 186 240 304 378 430
#     4  10  22  42  68 104 148 179 231 309 362 432
#
# _framework density 22.891114000000002
#
# number of rings (size 3 to 8) (size 9 to 14) (size 15 to 20)
#    0.000    0.727    6.364    1.091    2.545    4.364 
#    1.636    0.000    0.000    0.000    0.000    0.000 
#    0.000    0.000    0.000    0.000    0.000    0.000 
#
# Total GULP energy -123034.192906 kJ/mol
# GULP energy per Si atom -5592.463314 kJ/mol
# Density = 2.283901 g / cm^3
# Si number density = 22.891114 Si / 1000 Ang^3
#
#
#
# Elastic Constant Matrix: (Units=GPa)
#
#
# Indices 1 2 3 4 5 6 
#
# 1 163.9588 53.6657 56.0092 0.0000 16.3571 0.0000
# 2 53.6657 74.6345 7.7597 0.0000 7.2843 0.0000
# 3 56.0092 7.7597 99.0241 0.0000 3.4921 0.0000
# 4 0.0000 0.0000 0.0000 25.8450 0.0000 7.7422
# 5 16.3571 7.2843 3.4921 0.0000 40.1190 0.0000
# 6 0.0000 0.0000 0.0000 7.7422 0.0000 57.4321
#
#
#
# Elastic Compliance Matrix: (Units=1/GPa)
#
#
# Indices 1 2 3 4 5 6 
#
# 1 0.010301 -0.006616 -0.005218 0.000000 -0.002544 0.000000
# 2 -0.006616 0.017986 0.002360 0.000000 -0.000774 0.000000
# 3 -0.005218 0.002360 0.012845 0.000000 0.000581 0.000000
# 4 0.000000 0.000000 0.000000 0.040320 0.000000 -0.005435
# 5 -0.002544 -0.000774 0.000581 0.000000 0.026053 0.000000
# 6 0.000000 0.000000 0.000000 -0.005435 0.000000 0.018145
#
#
# Mechanical properties :
#
#
# Convention : Reuss Voigt Hill
#
# Bulk Modulus (GPa) = 45.07933 63.60961 54.34447
# Shear Modulus (GPa) = 32.89632 39.35808 36.12720
#
# Velocity S-wave (km/s) = 3.79499 4.15102 3.97699
# Velocity P-wave (km/s) = 6.24006 7.12901 6.69930
#
# Compressibility (1/GPa) = 0.02218311
#
# Stress axis : x y z
#
# Youngs Moduli (GPa) = 97.07792 55.59880 77.85366
#
# Poissons Ratio (x) = 0.36784 0.40626
# Poissons Ratio (y) = 0.64227 -0.18373
# Poissons Ratio (z) = 0.50657 -0.13121
#
# Static dielectric constant tensor:
#      x y z
#    x 1.813600 0.000000 0.045640 
#    y 0.000000 -5.082540 0.000000 
#    z 0.045640 0.000000 1.918570 
# 
# From -- ./inp_files/263616.got.cif
#   From: 2010.05.17/outbox.cif.g08.bks.cpg/sg15_132_cif.got.tgz:263616.got - 2010.06.03 18:47:42.
