data_PCOD9291600
_publ_section_title
;
Structure prediction by ZEFSAII (Michael W. Deem and Ramdas Pophale) SiO2 
 PCOD9291600
Probable space group: C 2/C
;
_chemical_formula_sum "Si O2"
_cell_formula_units_Z 56
_cell_length_a 21.190748
_cell_length_b 9.550363
_cell_length_c 13.962349
_cell_angle_alpha 90.000000
_cell_angle_beta 121.299307
_cell_angle_gamma 90.000000
_cell_volume 2414.454309
_symmetry_space_group_name_H-M "C 2/C"
_symmetry_group_IT_number 15
_symmetry_cell_setting 'monoclinic'
loop_
_space_group_symop_operation_xyz
x,y,z
-x,y,1/2-z
-x,-y,-z
x,-y,1/2+z
1/2+x,1/2+y,z
1/2-x,1/2+y,1/2-z
1/2-x,1/2-y,-z
1/2+x,1/2-y,1/2+z
loop_
_atom_site_type_symbol
_atom_site_label
_atom_site_fract_x
_atom_site_fract_y
_atom_site_fract_z
Si Si1 0.467423 0.559881 0.573597
Si Si2 0.334499 0.730613 0.790437
Si Si3 0.586231 0.842334 0.053466
Si Si4 0.830733 0.726901 0.608757
Si Si5 0.717076 0.960062 0.268815
Si Si6 0.115501 0.015971 0.811692
Si Si7 0.556744 0.151261 0.968490
O O1 0.500000 0.500000 0.500000
O O2 0.341738 0.653219 0.693469
O O3 0.432521 0.710990 0.525655
O O4 0.402537 0.499269 0.590158
O O5 0.460704 0.541759 0.803908
O O6 0.407825 0.780593 0.906361
O O7 0.288509 0.874531 0.749092
O O8 0.668594 0.877628 0.150797
O O9 0.562412 0.984579 0.982319
O O10 0.530455 0.818868 0.099852
O O11 0.750000 0.750000 0.500000
O O12 0.796799 0.890013 0.324624
O O13 0.821880 0.587684 0.664691
O O14 0.847327 0.867307 0.683551
O O15 0.105438 0.700717 0.918507
#
# Coordination Sequence:
#
# PCOD9291600 Si02
#       7
#     8   8   8   8   8   8   8
#     4  11  23  44  70 101 147 178 232 304 357 430
#     4  11  23  46  67 101 140 189 237 298 360 436
#     4  10  22  42  69 102 131 186 235 293 359 423
#     4  12  25  44  67 102 138 188 237 293 361 440
#     4  11  25  42  72  99 142 188 239 299 363 430
#     4  11  26  41  72 104 136 191 242 281 376 431
#     4  10  22  43  70  94 141 181 233 297 360 419
#
# _framework density 23.193646999999999
#
# number of rings (size 3 to 8) (size 9 to 14) (size 15 to 20)
#    0.000    1.143    2.857    2.571    4.000    2.857 
#    0.000    1.429    0.000    0.000    0.000    0.000 
#    0.000    0.000    0.000    0.000    0.000    0.000 
#
# Total GULP energy -156224.405117 kJ/mol
# GULP energy per Si atom -5579.443040 kJ/mol
# Density = 2.314086 g / cm^3
# Si number density = 23.193647 Si / 1000 Ang^3
#
#
#
# Elastic Constant Matrix: (Units=GPa)
#
#
# Indices 1 2 3 4 5 6 
#
# 1 81.2794 39.5677 10.0749 0.0000 -22.5967 0.0000
# 2 39.5677 155.0526 33.2353 0.0000 -12.5822 0.0000
# 3 10.0749 33.2353 52.0772 0.0000 -10.3713 0.0000
# 4 0.0000 0.0000 0.0000 36.0476 0.0000 1.6192
# 5 -22.5967 -12.5822 -10.3713 0.0000 36.1886 0.0000
# 6 0.0000 0.0000 0.0000 1.6192 0.0000 32.7719
#
#
#
# Elastic Compliance Matrix: (Units=1/GPa)
#
#
# Indices 1 2 3 4 5 6 
#
# 1 0.016574 -0.003687 0.001010 0.000000 0.009357 0.000000
# 2 -0.003687 0.008350 -0.004768 0.000000 -0.000765 0.000000
# 3 0.001010 -0.004768 0.023168 0.000000 0.005612 0.000000
# 4 0.000000 0.000000 0.000000 0.027803 0.000000 -0.001374
# 5 0.009357 -0.000765 0.005612 0.000000 0.034818 0.000000
# 6 0.000000 0.000000 0.000000 -0.001374 0.000000 0.030582
#
#
# Mechanical properties :
#
#
# Convention : Reuss Voigt Hill
#
# Bulk Modulus (GPa) = 30.11893 50.46278 40.29086
# Shear Modulus (GPa) = 29.89504 34.70371 32.29937
#
# Velocity S-wave (km/s) = 3.59406 3.87235 3.73580
# Velocity P-wave (km/s) = 5.49883 6.46512 6.00146
#
# Compressibility (1/GPa) = 0.03320171
#
# Stress axis : x y z
#
# Youngs Moduli (GPa) = 60.33519 119.75786 43.16362
#
# Poissons Ratio (x) = 0.44151 -0.04359
# Poissons Ratio (y) = 0.22244 0.20581
# Poissons Ratio (z) = -0.06093 0.57103
#
# Static dielectric constant tensor:
#      x y z
#    x 1.933190 0.000000 -0.031240 
#    y 0.000000 1.862930 0.000000 
#    z -0.031240 0.000000 1.890960 
# 
# From -- ./inp_files/180561.got.cif
#   From: 2010.05.17/outbox.cif.g08.bks.cpg/sg15_91_cif.got.tgz:180561.got - 2010.06.03 18:47:42.
