data_PCOD9291954
_publ_section_title
;
Structure prediction by ZEFSAII (Michael W. Deem and Ramdas Pophale) SiO2 
 PCOD9291954
Probable space group: C 2/C
;
_chemical_formula_sum "Si O2"
_cell_formula_units_Z 56
_cell_length_a 5.734586
_cell_length_b 26.794643
_cell_length_c 15.827995
_cell_angle_alpha 90.000000
_cell_angle_beta 96.234898
_cell_angle_gamma 90.000000
_cell_volume 2417.683629
_symmetry_space_group_name_H-M "C 2/C"
_symmetry_group_IT_number 15
_symmetry_cell_setting 'monoclinic'
loop_
_space_group_symop_operation_xyz
x,y,z
-x,y,1/2-z
-x,-y,-z
x,-y,1/2+z
1/2+x,1/2+y,z
1/2-x,1/2+y,1/2-z
1/2-x,1/2-y,-z
1/2+x,1/2-y,1/2+z
loop_
_atom_site_type_symbol
_atom_site_label
_atom_site_fract_x
_atom_site_fract_y
_atom_site_fract_z
Si Si1 0.690149 0.759473 0.595965
Si Si2 0.487073 0.141202 0.470722
Si Si3 0.000000 0.644659 0.750000
Si Si4 0.724184 0.500252 0.203921
Si Si5 0.796606 0.909882 0.403076
Si Si6 0.222780 0.387353 0.820437
Si Si7 0.669705 0.672575 0.874890
Si Si8 0.000000 0.203729 0.250000
O O1 0.750000 0.750000 0.500000
O O2 0.616879 0.817152 0.594735
O O3 0.494552 0.719695 0.614140
O O4 0.887764 0.760107 0.675055
O O5 0.294785 0.107284 0.509052
O O6 0.659369 0.112038 0.416688
O O7 0.623653 0.171654 0.548114
O O8 0.892408 0.611329 0.671550
O O9 0.783321 0.671672 0.787124
O O10 0.500000 0.479871 0.250000
O O11 0.703094 0.468137 0.117160
O O12 0.666883 0.558441 0.189594
O O13 0.000000 0.496359 0.250000
O O14 0.027646 0.878451 0.388474
O O15 0.351826 0.336206 0.800070
O O16 0.000000 0.387815 0.750000
#
# Coordination Sequence:
#
# PCOD9291954 Si02
#       8
#     8   8   4   8   8   8   8   4
#     4  12  25  50  73 109 150 198 254 314 378 463
#     4  11  25  46  69 104 151 195 245 314 385 446
#     4  10  22  43  64 100 148 184 246 299 380 444
#     4  11  24  45  79 110 150 201 257 322 397 465
#     4  11  23  44  71 106 148 191 245 313 385 457
#     4  11  24  48  74 103 144 192 256 311 376 473
#     4  11  24  44  72 102 152 193 243 320 374 460
#     4  12  26  49  78 106 142 208 256 315 390 458
#
# _framework density 23.162666999999999
#
# number of rings (size 3 to 8) (size 9 to 14) (size 15 to 20)
#    0.000    0.857    4.286    2.571    2.000    1.143 
#    7.714    0.714    0.000    0.000    0.000    0.000 
#    0.000    0.000    0.000    0.000    0.000    0.000 
#
# Total GULP energy -156388.880008 kJ/mol
# GULP energy per Si atom -5585.317143 kJ/mol
# Density = 2.310995 g / cm^3
# Si number density = 23.162667 Si / 1000 Ang^3
#
#
#
# Elastic Constant Matrix: (Units=GPa)
#
#
# Indices 1 2 3 4 5 6 
#
# 1 79.2928 32.2366 35.9893 0.0000 -25.5776 0.0000
# 2 32.2366 89.0124 45.1317 0.0000 -22.5117 0.0000
# 3 35.9893 45.1317 108.7739 0.0000 -28.7341 0.0000
# 4 0.0000 0.0000 0.0000 -39.1153 0.0000 -32.2429
# 5 -25.5776 -22.5117 -28.7341 0.0000 50.8545 0.0000
# 6 0.0000 0.0000 0.0000 -32.2429 0.0000 -109.4571
#
#
#
# Elastic Compliance Matrix: (Units=1/GPa)
#
#
# Indices 1 2 3 4 5 6 
#
# 1 0.017014 -0.003361 -0.002783 0.000000 0.005497 0.000000
# 2 -0.003361 0.015436 -0.004624 0.000000 0.002530 0.000000
# 3 -0.002783 -0.004624 0.013074 0.000000 0.003940 0.000000
# 4 0.000000 0.000000 0.000000 -0.033764 0.000000 0.009946
# 5 0.005497 0.002530 0.003940 0.000000 0.025775 0.000000
# 6 0.000000 0.000000 0.000000 0.009946 0.000000 -0.012066
#
#
# Mechanical properties :
#
#
# Convention : Reuss Voigt Hill
#
# Bulk Modulus (GPa) = 41.68697 55.97713 48.83205
# Shear Modulus (GPa) = 90.90787 -8.62881 41.13953
#
# Velocity S-wave (km/s) = 6.27159 -1.93220 4.21897
# Velocity P-wave (km/s) = 8.39525 4.38652 6.69783
#
# Compressibility (1/GPa) = 0.02398831
#
# Stress axis : x y z
#
# Youngs Moduli (GPa) = 58.77494 64.78387 76.48939
#
# Poissons Ratio (x) = 0.21771 0.21286
# Poissons Ratio (y) = 0.19751 0.35372
# Poissons Ratio (z) = 0.16356 0.29959
#
# Static dielectric constant tensor:
#      x y z
#    x 2.034430 0.000000 0.071420 
#    y 0.000000 1.868480 0.000000 
#    z 0.071420 0.000000 1.967830 
# 
# From -- ./inp_files/130806.got.cif
#   From: 2010.05.17/outbox.cif.g08.bks.cpg/sg15_66_cif.got.tgz:130806.got - 2010.06.03 18:47:42.
