data_PCOD9291712
_publ_section_title
;
Structure prediction by ZEFSAII (Michael W. Deem and Ramdas Pophale) SiO2 
 PCOD9291712
Probable space group: C 2/C
;
_chemical_formula_sum "Si O2"
_cell_formula_units_Z 52
_cell_length_a 22.751945
_cell_length_b 18.120413
_cell_length_c 11.413406
_cell_angle_alpha 90.000000
_cell_angle_beta 28.227275
_cell_angle_gamma 90.000000
_cell_volume 2225.541555
_symmetry_space_group_name_H-M "C 2/C"
_symmetry_group_IT_number 15
_symmetry_cell_setting 'monoclinic'
loop_
_space_group_symop_operation_xyz
x,y,z
-x,y,1/2-z
-x,-y,-z
x,-y,1/2+z
1/2+x,1/2+y,z
1/2-x,1/2+y,1/2-z
1/2-x,1/2-y,-z
1/2+x,1/2-y,1/2+z
loop_
_atom_site_type_symbol
_atom_site_label
_atom_site_fract_x
_atom_site_fract_y
_atom_site_fract_z
Si Si1 0.666723 0.985054 0.162039
Si Si2 0.206302 0.662187 0.721641
Si Si3 0.245933 0.400688 0.699428
Si Si4 0.000000 0.449936 0.250000
Si Si5 0.274540 0.739838 0.819298
Si Si6 0.441488 0.289305 0.654344
Si Si7 0.588235 0.558173 0.406975
O O1 0.661604 0.919950 0.268100
O O2 0.551064 0.990177 0.276828
O O3 0.705658 0.062412 0.149178
O O4 0.781735 0.955519 0.885443
O O5 0.213969 0.675488 0.847511
O O6 0.342103 0.682857 0.426792
O O7 0.116983 0.720564 0.812985
O O8 0.278034 0.315595 0.640809
O O9 0.363692 0.445444 0.543893
O O10 0.119568 0.404976 0.997460
O O11 0.422783 0.733467 0.540536
O O12 0.250000 0.750000 0.000000
O O13 0.458805 0.360043 0.539476
O O14 0.500000 0.500000 0.500000
#
# Coordination Sequence:
#
# PCOD9291712 Si02
#       7
#     8   8   8   4   8   8   8
#     4  10  23  41  70 102 130 174 230 283 348 399
#     4  10  22  45  69 102 130 177 235 281 336 411
#     4  11  24  43  65 101 136 178 228 278 346 411
#     4  10  22  42  70  94 130 176 224 288 336 404
#     4  12  27  41  65 100 144 184 222 281 348 403
#     4  10  22  43  72  96 130 179 231 283 332 408
#     4  10  23  42  67  97 134 179 222 283 337 406
#
# _framework density 23.365099000000001
#
# number of rings (size 3 to 8) (size 9 to 14) (size 15 to 20)
#    0.000    1.538    1.538    1.846    8.615    2.462 
#    0.000    0.000    0.000    0.000    0.000    0.000 
#    0.000    0.000    0.000    0.000    0.000    0.000 
#
# Total GULP energy -145195.975901 kJ/mol
# GULP energy per Si atom -5584.460612 kJ/mol
# Density = 2.331192 g / cm^3
# Si number density = 23.365099 Si / 1000 Ang^3
#
#
#
# Elastic Constant Matrix: (Units=GPa)
#
#
# Indices 1 2 3 4 5 6 
#
# 1 152.7318 24.6741 30.3728 0.0000 -22.9934 0.0000
# 2 24.6741 51.0095 10.5760 -0.0001 -26.8599 0.0000
# 3 30.3728 10.5760 51.8621 -0.0001 -23.8904 0.0001
# 4 0.0000 -0.0001 -0.0001 21.7688 0.0000 -0.1015
# 5 -22.9934 -26.8599 -23.8904 0.0000 27.4203 0.0000
# 6 0.0000 0.0000 0.0001 -0.1015 0.0000 13.9121
#
#
#
# Elastic Compliance Matrix: (Units=1/GPa)
#
#
# Indices 1 2 3 4 5 6 
#
# 1 0.007820 -0.002589 -0.003674 0.000000 0.000821 0.000000
# 2 -0.002589 0.052404 0.022511 0.000000 0.068776 0.000000
# 3 -0.003674 0.022511 0.042732 0.000000 0.056202 0.000000
# 4 0.000000 0.000000 0.000000 0.045939 0.000000 0.000335
# 5 0.000821 0.068776 0.056202 0.000000 0.153496 0.000000
# 6 0.000000 0.000000 0.000000 0.000335 0.000000 0.071882
#
#
# Mechanical properties :
#
#
# Convention : Reuss Voigt Hill
#
# Bulk Modulus (GPa) = 7.38255 42.98324 25.18290
# Shear Modulus (GPa) = 12.92235 25.28559 19.10397
#
# Velocity S-wave (km/s) = 2.35428 3.29324 2.86252
# Velocity P-wave (km/s) = 3.24910 5.73558 4.66120
#
# Compressibility (1/GPa) = 0.13545462
#
# Stress axis : x y z
#
# Youngs Moduli (GPa) = 127.88142 19.08246 23.40142
#
# Poissons Ratio (x) = 0.04940 0.08597
# Poissons Ratio (y) = 0.33104 -0.52680
# Poissons Ratio (z) = 0.46978 -0.42957
#
# Static dielectric constant tensor:
#      x y z
#    x 1.980580 0.000000 0.071470 
#    y 0.000000 1.838180 0.000000 
#    z 0.071470 0.000000 1.905890 
# 
# From -- ./inp_files/114370.got.cif
#   From: 2010.05.17/outbox.cif.g08.bks.cpg/sg15_58_cif.got.tgz:114370.got - 2010.06.03 18:47:42.
