data_PCOD9291450
_publ_section_title
;
Structure prediction by ZEFSAII (Michael W. Deem and Ramdas Pophale) SiO2 
 PCOD9291450
Probable space group: C 2/C
;
_chemical_formula_sum "Si O2"
_cell_formula_units_Z 56
_cell_length_a 29.282243
_cell_length_b 9.845064
_cell_length_c 15.805741
_cell_angle_alpha 90.000000
_cell_angle_beta 140.973282
_cell_angle_gamma 90.000000
_cell_volume 2869.191396
_symmetry_space_group_name_H-M "C 2/C"
_symmetry_group_IT_number 15
_symmetry_cell_setting 'monoclinic'
loop_
_space_group_symop_operation_xyz
x,y,z
-x,y,1/2-z
-x,-y,-z
x,-y,1/2+z
1/2+x,1/2+y,z
1/2-x,1/2+y,1/2-z
1/2-x,1/2-y,-z
1/2+x,1/2-y,1/2+z
loop_
_atom_site_type_symbol
_atom_site_label
_atom_site_fract_x
_atom_site_fract_y
_atom_site_fract_z
Si Si1 0.901661 0.594791 0.778171
Si Si2 0.672872 0.292213 0.700706
Si Si3 0.424410 0.558026 0.922932
Si Si4 0.359513 0.786945 0.713032
Si Si5 0.318754 0.104379 0.483506
Si Si6 0.702381 0.214691 0.551349
Si Si7 0.458509 0.218617 0.602350
O O1 0.872787 0.677303 0.816719
O O2 0.894867 0.433349 0.778926
O O3 0.849740 0.629772 0.622487
O O4 0.982770 0.641301 0.871166
O O5 0.632054 0.435557 0.651548
O O6 0.751851 0.303515 0.858044
O O7 0.681236 0.260950 0.613904
O O8 0.399208 0.668370 0.818780
O O9 0.500000 0.500000 0.000000
O O10 0.434601 0.642126 0.023875
O O11 0.354406 0.757120 0.605622
O O12 0.277379 0.784826 0.630984
O O13 0.387228 0.130533 0.520585
O O14 0.291855 0.948987 0.440402
O O15 0.500000 0.244822 0.750000
#
# Coordination Sequence:
#
# PCOD9291450 Si02
#       7
#     8   8   8   8   8   8   8
#     4  10  23  43  69  96 129 174 215 273 325 394
#     4  12  24  40  66 100 128 170 225 267 323 385
#     4  12  25  42  63  95 135 172 211 267 327 389
#     4  10  23  44  66  92 134 172 209 267 331 379
#     4  10  22  42  67  98 131 169 223 268 325 387
#     4  10  23  41  65  99 129 166 219 270 320 386
#     4  10  23  43  67  97 132 171 217 271 330 387
#
# _framework density 19.517693999999999
#
# number of rings (size 3 to 8) (size 9 to 14) (size 15 to 20)
#    0.000    1.429    2.857    1.286    4.000    2.857 
#    0.000    1.429    0.000    0.000    0.000    0.000 
#    0.000    0.000    0.000    0.000    0.000    0.000 
#
# Total GULP energy -156502.860943 kJ/mol
# GULP energy per Si atom -5589.387891 kJ/mol
# Density = 1.947327 g / cm^3
# Si number density = 19.517694 Si / 1000 Ang^3
#
#
#
# Elastic Constant Matrix: (Units=GPa)
#
#
# Indices 1 2 3 4 5 6 
#
# 1 103.4817 18.3627 26.9951 0.0000 -13.9417 0.0000
# 2 18.3627 60.1219 23.4647 0.0000 -12.8154 0.0000
# 3 26.9951 23.4647 54.4410 0.0000 -0.6297 0.0000
# 4 0.0000 0.0000 0.0000 20.5617 0.0000 -5.8595
# 5 -13.9417 -12.8154 -0.6297 0.0000 26.4829 0.0000
# 6 0.0000 0.0000 0.0000 -5.8595 0.0000 35.3629
#
#
#
# Elastic Compliance Matrix: (Units=1/GPa)
#
#
# Indices 1 2 3 4 5 6 
#
# 1 0.012037 -0.000074 -0.005866 0.000000 0.006162 0.000000
# 2 -0.000074 0.022694 -0.009621 0.000000 0.010714 0.000000
# 3 -0.005866 -0.009621 0.025341 0.000000 -0.007141 0.000000
# 4 0.000000 0.000000 0.000000 0.051044 0.000000 0.008458
# 5 0.006162 0.010714 -0.007141 0.000000 0.046019 0.000000
# 6 0.000000 0.000000 0.000000 0.008458 0.000000 0.029680
#
#
# Mechanical properties :
#
#
# Convention : Reuss Voigt Hill
#
# Bulk Modulus (GPa) = 34.54026 39.52105 37.03065
# Shear Modulus (GPa) = 21.96971 26.42965 24.19968
#
# Velocity S-wave (km/s) = 3.35868 3.68385 3.52502
# Velocity P-wave (km/s) = 5.72506 6.19574 5.96504
#
# Compressibility (1/GPa) = 0.02895173
#
# Stress axis : x y z
#
# Youngs Moduli (GPa) = 83.07790 44.06423 39.46156
#
# Poissons Ratio (x) = 0.00325 0.23146
# Poissons Ratio (y) = 0.00613 0.37966
# Poissons Ratio (z) = 0.48730 0.42394
#
# Static dielectric constant tensor:
#      x y z
#    x 1.659870 0.000000 -0.012560 
#    y 0.000000 1.647270 0.000000 
#    z -0.012560 0.000000 1.686590 
# 
# From -- ./inp_files/224432.got.cif
#   From: 2010.05.17/outbox.cif.g08.bks.cpg/sg15_113_cif.got.tgz:224432.got - 2010.06.03 18:47:42.
