data_PCOD9291525
_publ_section_title
;
Structure prediction by ZEFSAII (Michael W. Deem and Ramdas Pophale) SiO2 
 PCOD9291525
Probable space group: C 2/C
;
_chemical_formula_sum "Si O2"
_cell_formula_units_Z 60
_cell_length_a 14.093309
_cell_length_b 8.648205
_cell_length_c 23.534423
_cell_angle_alpha 90.000000
_cell_angle_beta 70.991128
_cell_angle_gamma 90.000000
_cell_volume 2711.998274
_symmetry_space_group_name_H-M "C 2/C"
_symmetry_group_IT_number 15
_symmetry_cell_setting 'monoclinic'
loop_
_space_group_symop_operation_xyz
x,y,z
-x,y,1/2-z
-x,-y,-z
x,-y,1/2+z
1/2+x,1/2+y,z
1/2-x,1/2+y,1/2-z
1/2-x,1/2-y,-z
1/2+x,1/2-y,1/2+z
loop_
_atom_site_type_symbol
_atom_site_label
_atom_site_fract_x
_atom_site_fract_y
_atom_site_fract_z
Si Si1 0.817310 0.711095 0.574628
Si Si2 0.038493 0.779964 0.368452
Si Si3 0.713629 0.342102 0.213785
Si Si4 0.673629 0.255506 0.569058
Si Si5 0.500000 0.721735 0.750000
Si Si6 0.487775 0.430096 0.563890
Si Si7 0.254848 0.322006 0.816710
Si Si8 0.352724 0.913989 0.950672
O O1 0.772613 0.669519 0.643722
O O2 0.745285 0.841769 0.560743
O O3 0.829173 0.585079 0.522674
O O4 0.925570 0.776610 0.567623
O O5 0.002194 0.838560 0.313951
O O6 0.132989 0.665568 0.345489
O O7 0.945986 0.699534 0.418792
O O8 0.072381 0.937324 0.391618
O O9 0.617533 0.226802 0.227098
O O10 0.688786 0.524782 0.217097
O O11 0.766786 0.301522 0.262911
O O12 0.750000 0.250000 0.500000
O O13 0.593035 0.389176 0.571858
O O14 0.712829 0.280402 0.625545
O O15 0.626132 0.084037 0.576245
O O16 0.500000 0.500000 0.500000
#
# Coordination Sequence:
#
# PCOD9291525 Si02
#       8
#     8   8   8   8   4   8   8   8
#     4  11  24  42  71 101 141 188 233 285 355 421
#     4  11  23  43  70 100 137 186 227 284 350 425
#     4  11  25  45  70 100 142 187 233 285 348 423
#     4  12  27  44  69 105 143 181 236 298 343 416
#     4  10  22  42  68  94 134 184 230 274 344 414
#     4  12  25  45  70 100 141 187 233 285 362 419
#     4  11  27  46  71 103 142 183 234 286 351 418
#     4  11  24  42  74 104 139 178 233 294 343 413
#
# _framework density 22.123906999999999
#
# number of rings (size 3 to 8) (size 9 to 14) (size 15 to 20)
#    0.000    0.800    2.667    4.000    9.333    0.533 
#    0.000    0.000    0.000    0.000    0.000    0.000 
#    0.000    0.000    0.000    0.000    0.000    0.000 
#
# Total GULP energy -167161.721153 kJ/mol
# GULP energy per Si atom -5572.057372 kJ/mol
# Density = 2.207355 g / cm^3
# Si number density = 22.123907 Si / 1000 Ang^3
#
#
#
# Elastic Constant Matrix: (Units=GPa)
#
#
# Indices 1 2 3 4 5 6 
#
# 1 89.7044 12.0269 40.1309 0.0000 16.8050 0.0000
# 2 12.0269 59.1311 30.7488 0.0000 13.9687 0.0000
# 3 40.1309 30.7488 171.1404 0.0000 33.4934 0.0000
# 4 0.0000 0.0000 0.0000 29.6472 0.0000 5.7265
# 5 16.8050 13.9687 33.4934 0.0000 39.9178 0.0000
# 6 0.0000 0.0000 0.0000 5.7265 0.0000 20.6576
#
#
#
# Elastic Compliance Matrix: (Units=1/GPa)
#
#
# Indices 1 2 3 4 5 6 
#
# 1 0.012861 -0.000667 -0.002252 0.000000 -0.003292 0.000000
# 2 -0.000667 0.019373 -0.002456 0.000000 -0.004438 0.000000
# 3 -0.002252 -0.002456 0.007728 0.000000 -0.004677 0.000000
# 4 0.000000 0.000000 0.000000 0.035638 0.000000 -0.009879
# 5 -0.003292 -0.004438 -0.004677 0.000000 0.031914 0.000000
# 6 0.000000 0.000000 0.000000 -0.009879 0.000000 0.051147
#
#
# Mechanical properties :
#
#
# Convention : Reuss Voigt Hill
#
# Bulk Modulus (GPa) = 34.23269 53.97655 44.10462
# Shear Modulus (GPa) = 27.90993 33.84914 30.87954
#
# Velocity S-wave (km/s) = 3.55565 3.91574 3.74003
# Velocity P-wave (km/s) = 5.68891 6.70033 6.21522
#
# Compressibility (1/GPa) = 0.02921184
#
# Stress axis : x y z
#
# Youngs Moduli (GPa) = 77.75336 51.61919 129.40570
#
# Poissons Ratio (x) = 0.03445 0.29139
# Poissons Ratio (y) = 0.05189 0.31778
# Poissons Ratio (z) = 0.17508 0.12676
#
# Static dielectric constant tensor:
#      x y z
#    x 1.821490 0.000000 -0.009920 
#    y 0.000000 1.795480 0.000000 
#    z -0.009920 0.000000 1.803020 
# 
# From -- ./inp_files/273108.got.cif
#   From: 2010.05.17/outbox.cif.g08.bks.cpg/sg15_137_cif.got.tgz:273108.got - 2010.06.03 18:47:42.
