data_PCOD9291198
_publ_section_title
;
Structure prediction by ZEFSAII (Michael W. Deem and Ramdas Pophale) SiO2 
 PCOD9291198
Probable space group: C 2/C
;
_chemical_formula_sum "Si O2"
_cell_formula_units_Z 40
_cell_length_a 25.038926
_cell_length_b 13.844458
_cell_length_c 11.510442
_cell_angle_alpha 90.000000
_cell_angle_beta 150.680174
_cell_angle_gamma 90.000000
_cell_volume 1953.888301
_symmetry_space_group_name_H-M "C 2/C"
_symmetry_group_IT_number 15
_symmetry_cell_setting 'monoclinic'
loop_
_space_group_symop_operation_xyz
x,y,z
-x,y,1/2-z
-x,-y,-z
x,-y,1/2+z
1/2+x,1/2+y,z
1/2-x,1/2+y,1/2-z
1/2-x,1/2-y,-z
1/2+x,1/2-y,1/2+z
loop_
_atom_site_type_symbol
_atom_site_label
_atom_site_fract_x
_atom_site_fract_y
_atom_site_fract_z
Si Si1 0.268163 0.585900 0.155070
Si Si2 0.044007 0.392507 0.102784
Si Si3 0.836885 0.672024 0.317840
Si Si4 0.186263 0.130709 0.817136
Si Si5 0.981517 0.794886 0.078797
O O1 0.219141 0.611212 0.188147
O O2 0.309997 0.476216 0.225584
O O3 0.369543 0.655994 0.326648
O O4 0.168944 0.602455 0.878239
O O5 0.027352 0.319057 0.964637
O O6 0.000000 0.500000 0.000000
O O7 0.965430 0.346511 0.052233
O O8 0.808822 0.785761 0.271094
O O9 0.786150 0.641892 0.096788
O O10 0.079673 0.157686 0.691129
O O11 0.000000 0.812214 0.250000
#
# Coordination Sequence:
#
# PCOD9291198 Si02
#       5
#     8   8   8   8   8
#     4  12  23  42  71  99 126 175 223 267 329 390
#     4  11  24  42  63  97 136 167 220 276 318 390
#     4  10  22  42  65  94 133 174 209 267 334 384
#     4  10  22  44  65  95 136 167 216 272 324 390
#     4  11  24  44  67  97 133 176 217 268 332 391
#
# _framework density 20.471999
#
# number of rings (size 3 to 8) (size 9 to 14) (size 15 to 20)
#    0.000    1.200    4.000    1.800    0.000    3.200 
#    3.600    2.000    0.000    0.000    0.000    0.000 
#    0.000    0.000    0.000    0.000    0.000    0.000 
#
# Total GULP energy -111770.416406 kJ/mol
# GULP energy per Si atom -5588.520820 kJ/mol
# Density = 2.042540 g / cm^3
# Si number density = 20.471999 Si / 1000 Ang^3
#
#
#
# Elastic Constant Matrix: (Units=GPa)
#
#
# Indices 1 2 3 4 5 6 
#
# 1 67.1631 48.3814 26.3599 0.0000 3.2024 0.0000
# 2 48.3814 127.6730 30.7993 0.0000 9.9490 0.0000
# 3 26.3599 30.7993 115.7916 0.0000 24.3065 0.0000
# 4 0.0000 0.0000 0.0000 27.8068 0.0000 6.6907
# 5 3.2024 9.9490 24.3065 0.0000 25.5308 0.0000
# 6 0.0000 0.0000 0.0000 6.6907 0.0000 26.1284
#
#
#
# Elastic Compliance Matrix: (Units=1/GPa)
#
#
# Indices 1 2 3 4 5 6 
#
# 1 0.021634 -0.007601 -0.003694 0.000000 0.003765 0.000000
# 2 -0.007601 0.011082 -0.000639 0.000000 -0.002757 0.000000
# 3 -0.003694 -0.000639 0.011870 0.000000 -0.010588 0.000000
# 4 0.000000 0.000000 0.000000 0.038324 0.000000 -0.009814
# 5 0.003765 -0.002757 -0.010588 0.000000 0.049851 0.000000
# 6 0.000000 0.000000 0.000000 -0.009814 0.000000 0.040786
#
#
# Mechanical properties :
#
#
# Convention : Reuss Voigt Hill
#
# Bulk Modulus (GPa) = 48.26272 57.96762 53.11517
# Shear Modulus (GPa) = 24.47161 29.56568 27.01864
#
# Velocity S-wave (km/s) = 3.46116 3.80439 3.63683
# Velocity P-wave (km/s) = 6.29278 6.90470 6.60583
#
# Compressibility (1/GPa) = 0.02071992
#
# Stress axis : x y z
#
# Youngs Moduli (GPa) = 46.22250 90.23926 84.24907
#
# Poissons Ratio (x) = 0.68588 0.31119
# Poissons Ratio (y) = 0.35132 0.05380
# Poissons Ratio (z) = 0.17073 0.05762
#
# Static dielectric constant tensor:
#      x y z
#    x 1.728670 0.000000 0.011410 
#    y 0.000000 1.734420 0.000000 
#    z 0.011410 0.000000 1.732380 
# 
# From -- ./inp_files/85481.got.cif
#   From: 2010.05.17/outbox.cif.g08.bks.cpg/sg15_43_cif.got.tgz:85481.got - 2010.06.03 18:47:42.
