data_PCOD9291404
_publ_section_title
;
Structure prediction by ZEFSAII (Michael W. Deem and Ramdas Pophale) SiO2 
 PCOD9291404
Probable space group: C 2/C
;
_chemical_formula_sum "Si O2"
_cell_formula_units_Z 60
_cell_length_a 12.236864
_cell_length_b 14.473931
_cell_length_c 16.614340
_cell_angle_alpha 90.000000
_cell_angle_beta 74.677786
_cell_angle_gamma 90.000000
_cell_volume 2838.060911
_symmetry_space_group_name_H-M "C 2/C"
_symmetry_group_IT_number 15
_symmetry_cell_setting 'monoclinic'
loop_
_space_group_symop_operation_xyz
x,y,z
-x,y,1/2-z
-x,-y,-z
x,-y,1/2+z
1/2+x,1/2+y,z
1/2-x,1/2+y,1/2-z
1/2-x,1/2-y,-z
1/2+x,1/2-y,1/2+z
loop_
_atom_site_type_symbol
_atom_site_label
_atom_site_fract_x
_atom_site_fract_y
_atom_site_fract_z
Si Si1 0.724698 0.146281 0.479101
Si Si2 0.159606 0.947365 0.800482
Si Si3 0.500000 0.093102 0.250000
Si Si4 0.638858 0.639002 0.733650
Si Si5 0.841019 0.483574 0.908605
Si Si6 0.264856 0.654564 0.949606
Si Si7 0.064574 0.009274 0.070331
Si Si8 0.807513 0.693688 0.191566
O O1 0.750000 0.250000 0.500000
O O2 0.655858 0.086559 0.557027
O O3 0.838654 0.085797 0.450491
O O4 0.671872 0.154602 0.400955
O O5 0.194327 0.853284 0.749339
O O6 0.029153 0.958848 0.848490
O O7 0.178585 0.033564 0.737071
O O8 0.235904 0.963671 0.866653
O O9 0.402098 0.156351 0.233836
O O10 0.550319 0.035975 0.166561
O O11 0.500000 0.644528 0.750000
O O12 0.720471 0.679431 0.647336
O O13 0.675907 0.696628 0.805619
O O14 0.824007 0.414520 0.988524
O O15 0.378694 0.591284 0.930728
O O16 0.250000 0.750000 0.000000
O O17 0.000000 0.000000 0.000000
#
# Coordination Sequence:
#
# PCOD9291404 Si02
#       8
#     8   8   4   8   8   8   8   8
#     4  11  24  43  63  96 136 176 219 274 341 406
#     4  11  21  41  67  98 130 170 220 282 334 398
#     4  10  22  44  66  90 132 184 222 276 348 396
#     4  12  24  39  68  98 128 176 227 276 334 397
#     4  10  22  42  67  92 135 174 222 278 341 400
#     4  11  22  37  63 103 131 160 224 284 325 388
#     4  11  22  41  71  98 130 172 215 275 336 392
#     4  11  25  41  64  97 138 175 221 280 337 395
#
# _framework density 21.141195
#
# number of rings (size 3 to 8) (size 9 to 14) (size 15 to 20)
#    0.000    1.067    4.667    4.000    0.000    0.533 
#    0.000    4.000    0.000    0.000    0.000    0.000 
#    0.000    0.000    0.000    0.000    0.000    0.000 
#
# Total GULP energy -167279.316670 kJ/mol
# GULP energy per Si atom -5575.977222 kJ/mol
# Density = 2.109308 g / cm^3
# Si number density = 21.141195 Si / 1000 Ang^3
#
#
#
# Elastic Constant Matrix: (Units=GPa)
#
#
# Indices 1 2 3 4 5 6 
#
# 1 36.7166 13.2339 7.9794 0.0000 -8.9041 0.0000
# 2 13.2339 109.4342 5.7275 0.0000 -4.2635 0.0000
# 3 7.9794 5.7275 90.2272 0.0000 -14.2796 0.0000
# 4 0.0000 0.0000 0.0000 34.0432 0.0000 15.1142
# 5 -8.9041 -4.2635 -14.2796 0.0000 41.3939 0.0000
# 6 0.0000 0.0000 0.0000 15.1142 0.0000 6.1819
#
#
#
# Elastic Compliance Matrix: (Units=1/GPa)
#
#
# Indices 1 2 3 4 5 6 
#
# 1 0.030139 -0.003345 -0.001567 0.000000 0.005598 0.000000
# 2 -0.003345 0.009564 -0.000285 0.000000 0.000167 0.000000
# 3 -0.001567 -0.000285 0.011828 0.000000 0.003714 0.000000
# 4 0.000000 0.000000 0.000000 -0.343707 0.000000 0.840331
# 5 0.005598 0.000167 0.003714 0.000000 0.026661 0.000000
# 6 0.000000 0.000000 0.000000 0.840331 0.000000 -1.892764
#
#
# Mechanical properties :
#
#
# Convention : Reuss Voigt Hill
#
# Bulk Modulus (GPa) = 24.30874 32.25106 28.27990
# Shear Modulus (GPa) = -2.34283 30.28629 13.97173
#
# Velocity S-wave (km/s) = -1.05384 3.78904 2.57354
# Velocity P-wave (km/s) = 3.16898 5.86776 4.71556
#
# Compressibility (1/GPa) = 0.04113746
#
# Stress axis : x y z
#
# Youngs Moduli (GPa) = 33.17926 104.56090 84.54839
#
# Poissons Ratio (x) = 0.34972 0.13250
# Poissons Ratio (y) = 0.11097 0.02408
# Poissons Ratio (z) = 0.05200 0.02978
#
# Static dielectric constant tensor:
#      x y z
#    x 1.781020 0.000000 0.022560 
#    y 0.000000 1.809050 0.000000 
#    z 0.022560 0.000000 1.856600 
# 
# From -- ./inp_files/153919.got.cif
#   From: 2010.05.17/outbox.cif.g08.bks.cpg/sg15_77_cif.got.tgz:153919.got - 2010.06.03 18:47:42.
