data_PCOD9291636
_publ_section_title
;
Structure prediction by ZEFSAII (Michael W. Deem and Ramdas Pophale) SiO2 
 PCOD9291636
Probable space group: C 2/C
;
_chemical_formula_sum "Si O2"
_cell_formula_units_Z 52
_cell_length_a 21.814986
_cell_length_b 16.288607
_cell_length_c 15.856055
_cell_angle_alpha 90.000000
_cell_angle_beta 24.140578
_cell_angle_gamma 90.000000
_cell_volume 2304.266721
_symmetry_space_group_name_H-M "C 2/C"
_symmetry_group_IT_number 15
_symmetry_cell_setting 'monoclinic'
loop_
_space_group_symop_operation_xyz
x,y,z
-x,y,1/2-z
-x,-y,-z
x,-y,1/2+z
1/2+x,1/2+y,z
1/2-x,1/2+y,1/2-z
1/2-x,1/2-y,-z
1/2+x,1/2-y,1/2+z
loop_
_atom_site_type_symbol
_atom_site_label
_atom_site_fract_x
_atom_site_fract_y
_atom_site_fract_z
Si Si1 0.811939 0.336349 0.843206
Si Si2 0.434939 0.555030 0.920267
Si Si3 0.324790 0.848778 0.335603
Si Si4 0.300745 0.937753 0.197351
Si Si5 0.000000 0.761385 0.750000
Si Si6 0.316088 0.659931 0.811068
Si Si7 0.037673 0.505214 0.296565
O O1 0.876264 0.252560 0.725911
O O2 0.904503 0.419262 0.721382
O O3 0.659428 0.363620 0.988603
O O4 0.785301 0.330072 0.977696
O O5 0.500000 0.522762 0.750000
O O6 0.564450 0.590588 0.816014
O O7 0.340011 0.484874 0.084600
O O8 0.367412 0.883442 0.190125
O O9 0.156632 0.811426 0.539407
O O10 0.444131 0.792086 0.237856
O O11 0.339192 0.934715 0.367891
O O12 0.265097 0.872545 0.169147
O O13 0.389366 0.011232 0.037280
O O14 0.000000 0.530804 0.250000
#
# Coordination Sequence:
#
# PCOD9291636 Si02
#       7
#     8   8   8   8   4   8   8
#     4  10  22  42  69  96 138 195 228 296 364 431
#     4  10  23  43  68  98 144 188 243 303 364 429
#     4  11  25  49  75 108 141 191 243 303 362 436
#     4  12  25  42  73 108 139 189 244 297 358 434
#     4  10  26  52  78 104 144 192 244 298 376 430
#     4  10  23  41  66 105 142 182 244 296 363 424
#     4  12  24  45  72 100 145 190 240 292 366 434
#
# _framework density 22.566832000000002
#
# number of rings (size 3 to 8) (size 9 to 14) (size 15 to 20)
#    0.000    1.231    3.846    0.923    3.231    1.846 
#    2.769    0.000    0.000    0.000    0.000    0.000 
#    0.000    0.000    0.000    0.000    0.000    0.000 
#
# Total GULP energy -144874.796072 kJ/mol
# GULP energy per Si atom -5572.107541 kJ/mol
# Density = 2.251547 g / cm^3
# Si number density = 22.566832 Si / 1000 Ang^3
#
#
#
# Elastic Constant Matrix: (Units=GPa)
#
#
# Indices 1 2 3 4 5 6 
#
# 1 118.6859 34.1007 21.6516 0.0001 -12.5542 -0.0014
# 2 34.1007 115.8992 36.0869 0.0000 -8.3964 -0.0013
# 3 21.6516 36.0869 79.7417 -0.0003 -1.0709 -0.0017
# 4 0.0001 0.0000 -0.0003 22.2160 0.0004 18.4476
# 5 -12.5542 -8.3964 -1.0709 0.0004 28.3810 0.0005
# 6 -0.0014 -0.0013 -0.0017 18.4476 0.0005 -73.0101
#
#
#
# Elastic Compliance Matrix: (Units=1/GPa)
#
#
# Indices 1 2 3 4 5 6 
#
# 1 0.009706 -0.002082 -0.001645 0.000000 0.003616 0.000000
# 2 -0.002082 0.010718 -0.004257 0.000000 0.002089 0.000000
# 3 -0.001645 -0.004257 0.014894 0.000000 -0.001425 0.000000
# 4 0.000000 0.000000 0.000000 0.037206 -0.000001 0.009401
# 5 0.003616 0.002089 -0.001425 -0.000001 0.037399 0.000000
# 6 0.000000 0.000000 0.000000 0.009401 0.000000 -0.011321
#
#
# Mechanical properties :
#
#
# Convention : Reuss Voigt Hill
#
# Bulk Modulus (GPa) = 51.67627 55.33390 53.50509
# Shear Modulus (GPa) = 41.31588 10.34989 25.83288
#
# Velocity S-wave (km/s) = 4.28345 2.14389 3.38705
# Velocity P-wave (km/s) = 6.88570 5.54090 6.24958
#
# Compressibility (1/GPa) = 0.01935124
#
# Stress axis : x y z
#
# Youngs Moduli (GPa) = 103.02656 93.30529 67.13936
#
# Poissons Ratio (x) = 0.19424 0.11043
# Poissons Ratio (y) = 0.21448 0.28580
# Poissons Ratio (z) = 0.16946 0.39719
#
# Static dielectric constant tensor:
#      x y z
#    x 1.847130 0.000000 -0.085820 
#    y 0.000000 1.904320 0.000000 
#    z -0.085820 0.000000 2.022800 
# 
# From -- ./inp_files/168985.got.cif
#   From: 2010.05.17/outbox.cif.g08.bks.cpg/sg15_85_cif.got.tgz:168985.got - 2010.06.03 18:47:42.
