data_PCOD9291152
_publ_section_title
;
Structure prediction by ZEFSAII (Michael W. Deem and Ramdas Pophale) SiO2 
 PCOD9291152
Probable space group: C 2/C
;
_chemical_formula_sum "Si O2"
_cell_formula_units_Z 56
_cell_length_a 18.358946
_cell_length_b 15.289831
_cell_length_c 19.179065
_cell_angle_alpha 90.000000
_cell_angle_beta 28.756107
_cell_angle_gamma 90.000000
_cell_volume 2589.984480
_symmetry_space_group_name_H-M "C 2/C"
_symmetry_group_IT_number 15
_symmetry_cell_setting 'monoclinic'
loop_
_space_group_symop_operation_xyz
x,y,z
-x,y,1/2-z
-x,-y,-z
x,-y,1/2+z
1/2+x,1/2+y,z
1/2-x,1/2+y,1/2-z
1/2-x,1/2-y,-z
1/2+x,1/2-y,1/2+z
loop_
_atom_site_type_symbol
_atom_site_label
_atom_site_fract_x
_atom_site_fract_y
_atom_site_fract_z
Si Si1 0.748113 0.713064 0.923009
Si Si2 0.105711 0.845858 0.070771
Si Si3 0.680263 0.594810 0.318682
Si Si4 0.028691 0.403280 0.502902
Si Si5 0.591720 0.525015 0.026361
Si Si6 0.279658 0.306207 0.370673
Si Si7 0.048692 0.727947 0.874901
O O1 0.681060 0.614062 0.971039
O O2 0.896218 0.723304 0.751198
O O3 0.750000 0.750000 0.000000
O O4 0.630917 0.773003 0.979116
O O5 0.159802 0.819376 0.101863
O O6 0.932824 0.818943 0.198497
O O7 0.210512 0.791438 0.929581
O O8 0.114896 0.949908 0.062982
O O9 0.587359 0.544534 0.334522
O O10 0.650259 0.528001 0.408239
O O11 0.594693 0.687400 0.380974
O O12 0.856241 0.619699 0.167476
O O13 0.147607 0.375134 0.462540
O O14 0.099353 0.353844 0.376964
O O15 0.000000 0.500000 0.500000
#
# Coordination Sequence:
#
# PCOD9291152 Si02
#       7
#     8   8   8   8   8   8   8
#     4  11  24  44  67  97 135 184 227 280 345 425
#     4  10  22  45  62  95 129 180 229 279 351 423
#     4  10  22  42  65 101 131 179 228 283 347 418
#     4  12  24  38  65 101 135 166 228 291 343 409
#     4  10  22  42  71  94 139 181 228 284 354 420
#     4  10  24  40  67  92 134 173 226 285 353 417
#     4  11  23  43  65  94 138 176 227 280 347 412
#
# _framework density 21.621751
#
# number of rings (size 3 to 8) (size 9 to 14) (size 15 to 20)
#    0.000    1.429    1.429    3.000    4.000    3.429 
#   10.286    1.429    0.000    0.000    0.000    0.000 
#    0.000    0.000    0.000    0.000    0.000    0.000 
#
# Total GULP energy -155913.155986 kJ/mol
# GULP energy per Si atom -5568.327000 kJ/mol
# Density = 2.157254 g / cm^3
# Si number density = 21.621751 Si / 1000 Ang^3
#
#
#
# Elastic Constant Matrix: (Units=GPa)
#
#
# Indices 1 2 3 4 5 6 
#
# 1 84.0147 40.0305 31.6340 0.0001 -12.2041 -0.0001
# 2 40.0305 108.5543 11.7456 -0.0007 -4.0726 0.0000
# 3 31.6340 11.7456 69.9486 -0.0001 -12.7071 0.0004
# 4 0.0001 -0.0007 -0.0001 22.9596 0.0002 -2.8576
# 5 -12.2041 -4.0726 -12.7071 0.0002 36.2743 0.0000
# 6 -0.0001 0.0000 0.0004 -2.8576 0.0000 38.9632
#
#
#
# Elastic Compliance Matrix: (Units=1/GPa)
#
#
# Indices 1 2 3 4 5 6 
#
# 1 0.017422 -0.005621 -0.006392 0.000000 0.002991 0.000000
# 2 -0.005621 0.011206 0.000582 0.000000 -0.000429 0.000000
# 3 -0.006392 0.000582 0.017846 0.000000 0.004166 0.000000
# 4 0.000000 0.000000 0.000000 0.043956 0.000000 0.003224
# 5 0.002991 -0.000429 0.004166 0.000000 0.029986 0.000000
# 6 0.000000 0.000000 0.000000 0.003224 0.000000 0.025902
#
#
# Mechanical properties :
#
#
# Convention : Reuss Voigt Hill
#
# Bulk Modulus (GPa) = 42.34897 47.70420 45.02658
# Shear Modulus (GPa) = 28.24090 31.57991 29.91041
#
# Velocity S-wave (km/s) = 3.61797 3.82588 3.72337
# Velocity P-wave (km/s) = 6.08948 6.45193 6.27332
#
# Compressibility (1/GPa) = 0.02361333
#
# Stress axis : x y z
#
# Youngs Moduli (GPa) = 57.39858 89.24133 56.03506
#
# Poissons Ratio (x) = 0.50160 0.35817
# Poissons Ratio (y) = 0.32262 -0.03264
# Poissons Ratio (z) = 0.36688 -0.05198
#
# Static dielectric constant tensor:
#      x y z
#    x 1.809420 0.000000 0.050530 
#    y 0.000000 1.860730 0.000000 
#    z 0.050530 0.000000 1.792650 
# 
# From -- ./inp_files/249224.got.cif
#   From: 2010.05.17/outbox.cif.g08.bks.cpg/sg15_125_cif.got.tgz:249224.got - 2010.06.03 18:47:42.
