data_PCOD9291413
_publ_section_title
;
Structure prediction by ZEFSAII (Michael W. Deem and Ramdas Pophale) SiO2 
 PCOD9291413
Probable space group: C 2/C
;
_chemical_formula_sum "Si O2"
_cell_formula_units_Z 44
_cell_length_a 32.151980
_cell_length_b 7.770582
_cell_length_c 9.921306
_cell_angle_alpha 90.000000
_cell_angle_beta 129.695373
_cell_angle_gamma 90.000000
_cell_volume 1907.265536
_symmetry_space_group_name_H-M "C 2/C"
_symmetry_group_IT_number 15
_symmetry_cell_setting 'monoclinic'
loop_
_space_group_symop_operation_xyz
x,y,z
-x,y,1/2-z
-x,-y,-z
x,-y,1/2+z
1/2+x,1/2+y,z
1/2-x,1/2+y,1/2-z
1/2-x,1/2-y,-z
1/2+x,1/2-y,1/2+z
loop_
_atom_site_type_symbol
_atom_site_label
_atom_site_fract_x
_atom_site_fract_y
_atom_site_fract_z
Si Si1 0.000000 0.602975 0.250000
Si Si2 0.794179 0.986012 0.531532
Si Si3 0.387651 0.969124 0.092140
Si Si4 0.646142 0.390375 0.112318
Si Si5 0.533674 0.558889 0.943787
Si Si6 0.173454 0.619764 0.768492
O O1 0.048391 0.499959 0.282331
O O2 0.027981 0.735971 0.412967
O O3 0.825046 0.986011 0.453226
O O4 0.811016 0.808832 0.644180
O O5 0.730552 0.977895 0.374569
O O6 0.813440 0.127694 0.678070
O O7 0.364269 0.962232 0.193883
O O8 0.373213 0.790159 0.988654
O O9 0.356760 0.110297 0.936768
O O10 0.594089 0.491731 0.060519
O O11 0.500000 0.482628 0.750000
O O12 0.500000 0.500000 0.000000
#
# Coordination Sequence:
#
# PCOD9291413 Si02
#       6
#     4   8   8   8   8   8
#     4  10  26  44  66  90 136 172 206 278 324 378
#     4  10  22  42  67  94 130 171 213 269 322 388
#     4  11  25  41  65  98 131 171 214 267 329 384
#     4  11  23  40  67  97 126 169 221 265 324 391
#     4  10  23  41  66  91 125 171 214 262 316 384
#     4  10  23  43  65  95 132 169 214 267 329 385
#
# _framework density 23.069676999999999
#
# number of rings (size 3 to 8) (size 9 to 14) (size 15 to 20)
#    0.545    1.091    0.000    3.273    3.818    4.364 
#    0.000    0.000    0.000    0.000    0.000    0.000 
#    0.000    0.000    0.000    0.000    0.000    0.000 
#
# Total GULP energy -123098.890714 kJ/mol
# GULP energy per Si atom -5595.404123 kJ/mol
# Density = 2.301717 g / cm^3
# Si number density = 23.069677 Si / 1000 Ang^3
#
#
#
# Elastic Constant Matrix: (Units=GPa)
#
#
# Indices 1 2 3 4 5 6 
#
# 1 147.9602 42.8499 17.0239 0.0000 -3.5703 0.0000
# 2 42.8499 60.4289 -3.7678 0.0000 -2.3290 0.0000
# 3 17.0239 -3.7678 45.7513 0.0000 -1.8047 0.0000
# 4 0.0000 0.0000 0.0000 26.6010 0.0000 -5.4984
# 5 -3.5703 -2.3290 -1.8047 0.0000 47.8969 0.0000
# 6 0.0000 0.0000 0.0000 -5.4984 0.0000 14.9029
#
#
#
# Elastic Compliance Matrix: (Units=1/GPa)
#
#
# Indices 1 2 3 4 5 6 
#
# 1 0.009172 -0.006743 -0.003960 0.000000 0.000207 0.000000
# 2 -0.006743 0.021626 0.004318 0.000000 0.000712 0.000000
# 3 -0.003960 0.004318 0.023718 0.000000 0.000808 0.000000
# 4 0.000000 0.000000 0.000000 0.040696 0.000000 0.015015
# 5 0.000207 0.000712 0.000808 0.000000 0.020959 0.000000
# 6 0.000000 0.000000 0.000000 0.015015 0.000000 0.072640
#
#
# Mechanical properties :
#
#
# Convention : Reuss Voigt Hill
#
# Bulk Modulus (GPa) = 23.95372 40.70582 32.32977
# Shear Modulus (GPa) = 23.20223 31.08247 27.14235
#
# Velocity S-wave (km/s) = 3.17479 3.67458 3.43379
# Velocity P-wave (km/s) = 4.88311 5.97381 5.45579
#
# Compressibility (1/GPa) = 0.04174717
#
# Stress axis : x y z
#
# Youngs Moduli (GPa) = 109.02872 46.24010 42.16151
#
# Poissons Ratio (x) = 0.31178 0.16696
# Poissons Ratio (y) = 0.73515 -0.18205
# Poissons Ratio (z) = 0.43175 -0.19967
#
# Static dielectric constant tensor:
#      x y z
#    x 1.790340 0.000000 0.024720 
#    y 0.000000 1.937380 0.000000 
#    z 0.024720 0.000000 1.853490 
# 
# From -- ./inp_files/68670.got.cif
#   From: 2010.05.17/outbox.cif.g08.bks.cpg/sg15_35_cif.got.tgz:68670.got - 2010.06.03 18:47:42.
