data_PCOD9291963
_publ_section_title
;
Structure prediction by ZEFSAII (Michael W. Deem and Ramdas Pophale) SiO2 
 PCOD9291963
Probable space group: C 2/C
;
_chemical_formula_sum "Si O2"
_cell_formula_units_Z 44
_cell_length_a 14.115176
_cell_length_b 6.621152
_cell_length_c 24.318417
_cell_angle_alpha 90.000000
_cell_angle_beta 106.871321
_cell_angle_gamma 90.000000
_cell_volume 2174.945986
_symmetry_space_group_name_H-M "C 2/C"
_symmetry_group_IT_number 15
_symmetry_cell_setting 'monoclinic'
loop_
_space_group_symop_operation_xyz
x,y,z
-x,y,1/2-z
-x,-y,-z
x,-y,1/2+z
1/2+x,1/2+y,z
1/2-x,1/2+y,1/2-z
1/2-x,1/2-y,-z
1/2+x,1/2-y,1/2+z
loop_
_atom_site_type_symbol
_atom_site_label
_atom_site_fract_x
_atom_site_fract_y
_atom_site_fract_z
Si Si1 0.198182 0.488718 0.831190
Si Si2 0.200228 0.808018 0.434138
Si Si3 0.382996 0.738706 0.331184
Si Si4 0.516078 0.557992 0.565863
Si Si5 0.000000 0.374967 0.250000
Si Si6 0.184748 0.375002 0.619521
O O1 0.202749 0.375089 0.890701
O O2 0.278411 0.374998 0.806839
O O3 0.235382 0.717869 0.843634
O O4 0.088103 0.491008 0.789692
O O5 0.250000 0.750000 0.500000
O O6 0.262717 0.989093 0.417638
O O7 0.087977 0.875045 0.425933
O O8 0.437941 0.625100 0.390700
O O9 0.451572 0.740945 0.289684
O O10 0.358256 0.967873 0.343622
O O11 0.500000 0.500000 0.500000
O O12 0.595044 0.739109 0.582366
#
# Coordination Sequence:
#
# PCOD9291963 Si02
#       6
#     8   8   8   8   4   8
#     4  10  24  43  64  98 130 174 226 273 343 405
#     4  11  23  41  66  97 131 174 224 278 340 403
#     4  10  24  43  64  98 130 174 226 273 343 405
#     4  11  23  41  66  97 131 174 224 278 340 403
#     4  12  24  42  70  94 136 178 220 284 342 414
#     4  10  22  43  64  90 134 167 220 278 326 410
#
# _framework density 20.230388000000001
#
# number of rings (size 3 to 8) (size 9 to 14) (size 15 to 20)
#    0.000    1.455    0.000    5.455    2.545    7.273 
#    0.000    7.273    0.000    0.000    0.000    0.000 
#    0.000    0.000    0.000    0.000    0.000    0.000 
#
# Total GULP energy -123062.539394 kJ/mol
# GULP energy per Si atom -5593.751791 kJ/mol
# Density = 2.018434 g / cm^3
# Si number density = 20.230388 Si / 1000 Ang^3
#
#
#
# Elastic Constant Matrix: (Units=GPa)
#
#
# Indices 1 2 3 4 5 6 
#
# 1 166.1269 53.2197 79.4759 0.0000 -0.2865 0.0000
# 2 53.2197 127.1104 64.8475 0.0000 0.7749 0.0000
# 3 79.4759 64.8475 123.9255 0.0000 -2.7097 0.0000
# 4 0.0000 0.0000 0.0000 10.1083 0.0000 -1.1733
# 5 -0.2865 0.7749 -2.7097 0.0000 41.3675 0.0000
# 6 0.0000 0.0000 0.0000 -1.1733 0.0000 27.0525
#
#
#
# Elastic Compliance Matrix: (Units=1/GPa)
#
#
# Indices 1 2 3 4 5 6 
#
# 1 0.008797 -0.001092 -0.005076 0.000000 -0.000251 0.000000
# 2 -0.001092 0.010881 -0.005005 0.000000 -0.000539 0.000000
# 3 -0.005076 -0.005005 0.013965 0.000000 0.000973 0.000000
# 4 0.000000 0.000000 0.000000 0.099429 0.000000 0.004312
# 5 -0.000251 -0.000539 0.000973 0.000000 0.024246 0.000000
# 6 0.000000 0.000000 0.000000 0.004312 0.000000 0.037152
#
#
# Mechanical properties :
#
#
# Convention : Reuss Voigt Hill
#
# Bulk Modulus (GPa) = 88.51959 90.24990 89.38474
# Shear Modulus (GPa) = 22.66720 30.34696 26.50708
#
# Velocity S-wave (km/s) = 3.35095 3.87727 3.62368
# Velocity P-wave (km/s) = 7.66959 8.04688 7.86050
#
# Compressibility (1/GPa) = 0.01129693
#
# Stress axis : x y z
#
# Youngs Moduli (GPa) = 113.67177 91.90078 71.60770
#
# Poissons Ratio (x) = 0.10038 0.36346
# Poissons Ratio (y) = 0.12416 0.35841
# Poissons Ratio (z) = 0.57697 0.45998
#
# Static dielectric constant tensor:
#      x y z
#    x 1.711660 0.000000 -0.000300 
#    y 0.000000 1.695770 0.000000 
#    z -0.000300 0.000000 1.707430 
# 
# From -- ./inp_files/260403.got.cif
#   From: 2010.05.17/outbox.cif.g08.bks.cpg/sg15_131_cif.got.tgz:260403.got - 2010.06.03 18:47:42.
