data_PCOD9291102
_publ_section_title
;
Structure prediction by ZEFSAII (Michael W. Deem and Ramdas Pophale) SiO2 
 PCOD9291102
Probable space group: C 2/C
;
_chemical_formula_sum "Si O2"
_cell_formula_units_Z 60
_cell_length_a 10.597788
_cell_length_b 15.908314
_cell_length_c 20.160610
_cell_angle_alpha 90.000000
_cell_angle_beta 53.741599
_cell_angle_gamma 90.000000
_cell_volume 2740.759277
_symmetry_space_group_name_H-M "C 2/C"
_symmetry_group_IT_number 15
_symmetry_cell_setting 'monoclinic'
loop_
_space_group_symop_operation_xyz
x,y,z
-x,y,1/2-z
-x,-y,-z
x,-y,1/2+z
1/2+x,1/2+y,z
1/2-x,1/2+y,1/2-z
1/2-x,1/2-y,-z
1/2+x,1/2-y,1/2+z
loop_
_atom_site_type_symbol
_atom_site_label
_atom_site_fract_x
_atom_site_fract_y
_atom_site_fract_z
Si Si1 0.742856 0.996128 0.039680
Si Si2 0.595260 0.725303 0.584581
Si Si3 0.032197 0.394517 0.835673
Si Si4 0.000000 0.858504 0.750000
Si Si5 0.308611 0.694693 0.186946
Si Si6 0.322225 0.627782 0.820277
Si Si7 0.494501 0.632780 0.501199
Si Si8 0.714172 0.960609 0.894155
O O1 0.693990 0.980043 0.978014
O O2 0.879633 0.065876 0.008212
O O3 0.595395 0.031415 0.127614
O O4 0.831865 0.912085 0.035127
O O5 0.750000 0.750000 0.500000
O O6 0.548625 0.803700 0.643849
O O7 0.654256 0.650267 0.610877
O O8 0.471709 0.698907 0.567735
O O9 0.820277 0.379972 0.759154
O O10 0.093067 0.401650 0.892979
O O11 0.905552 0.805638 0.725116
O O12 0.881420 0.917020 0.828831
O O13 0.234825 0.787422 0.198096
O O14 0.420327 0.671743 0.090049
O O15 0.500000 0.603843 0.750000
O O16 0.212716 0.547114 0.851872
#
# Coordination Sequence:
#
# PCOD9291102 Si02
#       8
#     8   8   8   4   8   8   8   8
#     4  11  22  40  62  99 134 167 213 270 330 390
#     4  12  21  39  63  97 125 167 218 269 312 392
#     4  11  24  41  66  97 134 169 223 270 326 385
#     4  10  22  42  64  92 134 174 218 260 346 396
#     4  11  23  41  67  95 128 179 217 276 327 394
#     4  12  22  38  68  95 126 163 227 269 322 378
#     4  11  23  38  67  96 135 174 215 267 334 388
#     4  11  22  41  66  94 130 173 213 271 325 393
#
# _framework density 21.891743999999999
#
# number of rings (size 3 to 8) (size 9 to 14) (size 15 to 20)
#    0.000    0.800    7.333    0.400    0.000    0.000 
#    0.000    3.333    0.000    0.000    0.000    0.000 
#    0.000    0.000    0.000    0.000    0.000    0.000 
#
# Total GULP energy -167335.935705 kJ/mol
# GULP energy per Si atom -5577.864524 kJ/mol
# Density = 2.184192 g / cm^3
# Si number density = 21.891744 Si / 1000 Ang^3
#
#
#
# Elastic Constant Matrix: (Units=GPa)
#
#
# Indices 1 2 3 4 5 6 
#
# 1 85.1448 34.3188 17.8996 0.0000 7.7329 0.0000
# 2 34.3188 70.3586 -0.4354 0.0000 6.1216 0.0000
# 3 17.8996 -0.4354 32.4962 0.0000 10.1753 0.0000
# 4 0.0000 0.0000 0.0000 12.3603 0.0000 9.8784
# 5 7.7329 6.1216 10.1753 0.0000 34.6060 0.0000
# 6 0.0000 0.0000 0.0000 9.8784 0.0000 34.4217
#
#
#
# Elastic Compliance Matrix: (Units=1/GPa)
#
#
# Indices 1 2 3 4 5 6 
#
# 1 0.017158 -0.008475 -0.009729 0.000000 0.000526 0.000000
# 2 -0.008475 0.018657 0.005902 0.000000 -0.003142 0.000000
# 3 -0.009729 0.005902 0.039493 0.000000 -0.010482 0.000000
# 4 0.000000 0.000000 0.000000 0.104983 0.000000 -0.030128
# 5 0.000526 -0.003142 -0.010482 0.000000 0.032417 0.000000
# 6 0.000000 0.000000 0.000000 -0.030128 0.000000 0.037698
#
#
# Mechanical properties :
#
#
# Convention : Reuss Voigt Hill
#
# Bulk Modulus (GPa) = 19.72256 32.39618 26.05937
# Shear Modulus (GPa) = 17.12842 25.35872 21.24357
#
# Velocity S-wave (km/s) = 2.80020 3.40717 3.11849
# Velocity P-wave (km/s) = 4.41402 5.50535 4.98961
#
# Compressibility (1/GPa) = 0.05070336
#
# Stress axis : x y z
#
# Youngs Moduli (GPa) = 58.28045 53.59982 25.32069
#
# Poissons Ratio (x) = 0.45428 0.24636
# Poissons Ratio (y) = 0.49395 -0.14945
# Poissons Ratio (z) = 0.56704 -0.31636
#
# Static dielectric constant tensor:
#      x y z
#    x 1.838670 0.000000 0.001080 
#    y 0.000000 1.801300 0.000000 
#    z 0.001080 0.000000 1.810090 
# 
# From -- ./inp_files/233070.got.cif
#   From: 2010.05.17/outbox.cif.g08.bks.cpg/sg15_117_cif.got.tgz:233070.got - 2010.06.03 18:47:42.
