data_PCOD9291538
_publ_section_title
;
Structure prediction by ZEFSAII (Michael W. Deem and Ramdas Pophale) SiO2 
 PCOD9291538
Probable space group: C 2/C
;
_chemical_formula_sum "Si O2"
_cell_formula_units_Z 48
_cell_length_a 13.887590
_cell_length_b 15.287233
_cell_length_c 8.326474
_cell_angle_alpha 90.000000
_cell_angle_beta 81.747136
_cell_angle_gamma 90.000000
_cell_volume 1749.427669
_symmetry_space_group_name_H-M "C 2/C"
_symmetry_group_IT_number 15
_symmetry_cell_setting 'monoclinic'
loop_
_space_group_symop_operation_xyz
x,y,z
-x,y,1/2-z
-x,-y,-z
x,-y,1/2+z
1/2+x,1/2+y,z
1/2-x,1/2+y,1/2-z
1/2-x,1/2-y,-z
1/2+x,1/2-y,1/2+z
loop_
_atom_site_type_symbol
_atom_site_label
_atom_site_fract_x
_atom_site_fract_y
_atom_site_fract_z
Si Si1 0.407938 0.017803 0.390166
Si Si2 0.861695 0.940646 0.091531
Si Si3 0.215841 0.422414 0.838282
Si Si4 0.526623 0.190821 0.933093
Si Si5 0.823588 0.758047 0.133816
Si Si6 0.056787 0.123431 0.404912
O O1 0.500000 0.009433 0.250000
O O2 0.377213 0.940879 0.518443
O O3 0.573978 0.892861 0.511617
O O4 0.315072 0.013772 0.295316
O O5 0.820500 0.856746 0.200563
O O6 0.806293 0.932274 0.934834
O O7 0.975145 0.911070 0.048650
O O8 0.868820 0.043409 0.124934
O O9 0.206985 0.326990 0.761818
O O10 0.500000 0.175098 0.750000
O O11 0.593717 0.278472 0.926006
O O12 0.430944 0.231867 0.043881
O O13 0.750000 0.750000 0.000000
O O14 0.000000 0.129563 0.250000
#
# Coordination Sequence:
#
# PCOD9291538 Si02
#       6
#     8   8   8   8   8   8
#     4  12  26  43  65  95 130 177 225 272 326 394
#     4   9  20  41  64  98 130 173 211 273 329 391
#     4  11  25  41  65  97 132 173 226 273 324 392
#     4  10  22  42  68  95 133 174 219 269 332 392
#     4   9  19  40  65  91 127 176 216 265 325 386
#     4   9  19  40  69  97 132 170 215 270 333 395
#
# _framework density 27.437543999999999
#
# number of rings (size 3 to 8) (size 9 to 14) (size 15 to 20)
#    0.000    2.000    1.667    0.500    4.667    0.000 
#    9.000    2.500    0.000    0.000    0.000    0.000 
#    0.000    0.000    0.000    0.000    0.000    0.000 
#
# Total GULP energy -133872.321291 kJ/mol
# GULP energy per Si atom -5578.013387 kJ/mol
# Density = 2.737509 g / cm^3
# Si number density = 27.437544 Si / 1000 Ang^3
#
#
#
# Elastic Constant Matrix: (Units=GPa)
#
#
# Indices 1 2 3 4 5 6 
#
# 1 105.2405 16.0792 15.2645 0.0000 -1.2128 0.0000
# 2 16.0792 264.9782 25.1794 0.0000 8.8576 0.0000
# 3 15.2645 25.1794 48.4067 0.0000 6.7123 0.0000
# 4 0.0000 0.0000 0.0000 31.9806 0.0000 15.2665
# 5 -1.2128 8.8576 6.7123 0.0000 28.1229 0.0000
# 6 0.0000 0.0000 0.0000 15.2665 0.0000 29.2876
#
#
#
# Elastic Compliance Matrix: (Units=1/GPa)
#
#
# Indices 1 2 3 4 5 6 
#
# 1 0.010029 -0.000352 -0.003159 0.000000 0.001297 0.000000
# 2 -0.000352 0.003999 -0.001854 0.000000 -0.000832 0.000000
# 3 -0.003159 -0.001854 0.023329 0.000000 -0.005120 0.000000
# 4 0.000000 0.000000 0.000000 0.041627 0.000000 -0.021699
# 5 0.001297 -0.000832 -0.005120 0.000000 0.037098 0.000000
# 6 0.000000 0.000000 0.000000 -0.021699 0.000000 0.045455
#
#
# Mechanical properties :
#
#
# Convention : Reuss Voigt Hill
#
# Bulk Modulus (GPa) = 37.55597 59.07463 48.31530
# Shear Modulus (GPa) = 27.60241 42.01837 34.81039
#
# Velocity S-wave (km/s) = 3.17520 3.91758 3.56576
# Velocity P-wave (km/s) = 5.21153 6.48387 5.88220
#
# Compressibility (1/GPa) = 0.02662693
#
# Stress axis : x y z
#
# Youngs Moduli (GPa) = 99.71091 250.04825 42.86517
#
# Poissons Ratio (x) = 0.08795 0.13543
# Poissons Ratio (y) = 0.03507 0.07947
# Poissons Ratio (z) = 0.31503 0.46357
#
# Static dielectric constant tensor:
#      x y z
#    x 2.277460 0.000000 -0.108940 
#    y 0.000000 2.266470 0.000000 
#    z -0.108940 0.000000 2.142400 
# 
# From -- ./inp_files/96477.got.cif
#   From: 2010.05.17/outbox.cif.g08.bks.cpg/sg15_49_cif.got.tgz:96477.got - 2010.06.03 18:47:42.
