data_PCOD9291083
_publ_section_title
;
Structure prediction by ZEFSAII (Michael W. Deem and Ramdas Pophale) SiO2 
 PCOD9291083
Probable space group: C 2/C
;
_chemical_formula_sum "Si O2"
_cell_formula_units_Z 36
_cell_length_a 5.282282
_cell_length_b 25.941418
_cell_length_c 10.102878
_cell_angle_alpha 90.000000
_cell_angle_beta 97.424105
_cell_angle_gamma 90.000000
_cell_volume 1372.790667
_symmetry_space_group_name_H-M "C 2/C"
_symmetry_group_IT_number 15
_symmetry_cell_setting 'monoclinic'
loop_
_space_group_symop_operation_xyz
x,y,z
-x,y,1/2-z
-x,-y,-z
x,-y,1/2+z
1/2+x,1/2+y,z
1/2-x,1/2+y,1/2-z
1/2-x,1/2-y,-z
1/2+x,1/2-y,1/2+z
loop_
_atom_site_type_symbol
_atom_site_label
_atom_site_fract_x
_atom_site_fract_y
_atom_site_fract_z
Si Si1 0.683963 0.150566 0.890971
Si Si2 0.651931 0.179898 0.391755
Si Si3 0.000000 0.226036 0.750000
Si Si4 0.274633 0.426959 0.841063
Si Si5 0.228719 0.962270 0.156519
O O1 0.500000 0.148999 0.750000
O O2 0.905247 0.188671 0.858401
O O3 0.752880 0.090939 0.923930
O O4 0.542935 0.178345 0.001372
O O5 0.500000 0.164674 0.250000
O O6 0.710525 0.237414 0.339841
O O7 0.810959 0.127450 0.419243
O O8 0.500000 0.428140 0.750000
O O9 0.288292 0.482005 0.916815
O O10 0.000000 0.430627 0.750000
O O11 0.500000 0.963242 0.250000
O O12 0.000000 0.957014 0.250000
#
# Coordination Sequence:
#
# PCOD9291083 Si02
#       5
#     8   8   4   8   8
#     4  11  22  40  63  93 129 167 220 267 323 385
#     4   9  22  41  61  93 127 173 210 271 320 388
#     4  10  22  42  64  90 128 174 214 266 320 390
#     4   9  18  38  62  94 130 169 215 266 325 388
#     4   9  18  35  63  93 128 169 213 267 324 385
#
# _framework density 26.223953999999999
#
# number of rings (size 3 to 8) (size 9 to 14) (size 15 to 20)
#    0.667    1.778    1.111    0.667    0.000    2.667 
#    8.000    0.000    0.000   18.667    0.000    0.000 
#    0.000    0.000    0.000    0.000    0.000    0.000 
#
# Total GULP energy -100305.751114 kJ/mol
# GULP energy per Si atom -5572.541729 kJ/mol
# Density = 2.616427 g / cm^3
# Si number density = 26.223954 Si / 1000 Ang^3
#
#
#
# Elastic Constant Matrix: (Units=GPa)
#
#
# Indices 1 2 3 4 5 6 
#
# 1 111.0207 36.6037 17.5029 0.0000 -8.0667 0.0000
# 2 36.6037 266.6663 33.4672 0.0000 3.9497 0.0000
# 3 17.5029 33.4672 104.4530 0.0000 -12.4312 0.0000
# 4 0.0000 0.0000 0.0000 -97.9338 0.0000 58.9826
# 5 -8.0667 3.9497 -12.4312 0.0000 27.9813 0.0000
# 6 0.0000 0.0000 0.0000 58.9826 0.0000 16.3359
#
#
#
# Elastic Compliance Matrix: (Units=1/GPa)
#
#
# Indices 1 2 3 4 5 6 
#
# 1 0.009756 -0.001262 -0.000924 0.000000 0.002580 0.000000
# 2 -0.001262 0.004107 -0.001285 0.000000 -0.001514 0.000000
# 3 -0.000924 -0.001285 0.010695 0.000000 0.004667 0.000000
# 4 0.000000 0.000000 0.000000 -0.003216 0.000000 0.011614
# 5 0.002580 -0.001514 0.004667 0.000000 0.038769 0.000000
# 6 0.000000 0.000000 0.000000 0.011614 0.000000 0.019283
#
#
# Mechanical properties :
#
#
# Convention : Reuss Voigt Hill
#
# Bulk Modulus (GPa) = 56.75627 73.03194 64.89410
# Shear Modulus (GPa) = 54.22605 15.58108 34.90356
#
# Velocity S-wave (km/s) = 4.55225 2.44017 3.65222
# Velocity P-wave (km/s) = 7.02286 5.98741 6.52570
#
# Compressibility (1/GPa) = 0.01761920
#
# Stress axis : x y z
#
# Youngs Moduli (GPa) = 102.49736 243.49756 93.49772
#
# Poissons Ratio (x) = 0.30717 0.08635
# Poissons Ratio (y) = 0.12930 0.12011
# Poissons Ratio (z) = 0.09466 0.31281
#
# Static dielectric constant tensor:
#      x y z
#    x 2.103830 0.000000 0.067350 
#    y 0.000000 2.278500 0.000000 
#    z 0.067350 0.000000 1.988800 
# 
# From -- ./inp_files/72903.got.cif
#   From: 2010.05.17/outbox.cif.g08.bks.cpg/sg15_37_cif.got.tgz:72903.got - 2010.06.03 18:47:42.
