data_PCOD9291863
_publ_section_title
;
Structure prediction by ZEFSAII (Michael W. Deem and Ramdas Pophale) SiO2 
 PCOD9291863
Probable space group: C 2/C
;
_chemical_formula_sum "Si O2"
_cell_formula_units_Z 40
_cell_length_a 27.315856
_cell_length_b 5.089872
_cell_length_c 11.923665
_cell_angle_alpha 90.000000
_cell_angle_beta 81.250330
_cell_angle_gamma 90.000000
_cell_volume 1638.504546
_symmetry_space_group_name_H-M "C 2/C"
_symmetry_group_IT_number 15
_symmetry_cell_setting 'monoclinic'
loop_
_space_group_symop_operation_xyz
x,y,z
-x,y,1/2-z
-x,-y,-z
x,-y,1/2+z
1/2+x,1/2+y,z
1/2-x,1/2+y,1/2-z
1/2-x,1/2-y,-z
1/2+x,1/2-y,1/2+z
loop_
_atom_site_type_symbol
_atom_site_label
_atom_site_fract_x
_atom_site_fract_y
_atom_site_fract_z
Si Si1 0.093745 0.936225 0.881224
Si Si2 0.379304 0.228829 0.937819
Si Si3 0.281207 0.541572 0.413963
Si Si4 0.943576 0.444063 0.733726
Si Si5 0.313428 0.845767 0.094670
O O1 0.077400 0.171837 0.806574
O O2 0.063439 0.677404 0.855949
O O3 0.151916 0.859801 0.855113
O O4 0.089598 0.043570 0.010651
O O5 0.333962 0.325520 0.876281
O O6 0.412733 0.042697 0.851738
O O7 0.350664 0.078170 0.048099
O O8 0.250000 0.750000 0.500000
O O9 0.298438 0.295619 0.483641
O O10 0.239457 0.444626 0.340418
O O11 0.000000 0.414375 0.750000
#
# Coordination Sequence:
#
# PCOD9291863 Si02
#       5
#     8   8   8   8   8
#     4  11  24  45  69  99 135 176 230 286 343 413
#     4  10  22  42  73  94 138 182 219 283 354 398
#     4   8  16  32  67  96 127 176 217 266 346 404
#     4  12  28  45  68 102 137 180 240 292 338 403
#     4   9  17  38  67  94 132 175 217 275 340 409
#
# _framework density 24.412504999999999
#
# number of rings (size 3 to 8) (size 9 to 14) (size 15 to 20)
#    0.000    2.000    2.000    0.600    5.600    1.600 
#    0.000    0.000   26.400    0.000    0.000    0.000 
#    0.000    0.000    0.000    0.000    0.000    0.000 
#
# Total GULP energy -111660.191744 kJ/mol
# GULP energy per Si atom -5583.009587 kJ/mol
# Density = 2.435694 g / cm^3
# Si number density = 24.412505 Si / 1000 Ang^3
#
#
#
# Elastic Constant Matrix: (Units=GPa)
#
#
# Indices 1 2 3 4 5 6 
#
# 1 240.2264 72.5730 36.6833 0.0000 23.2901 0.0000
# 2 72.5730 145.2706 28.6406 0.0000 25.6297 0.0000
# 3 36.6833 28.6406 70.2203 0.0000 26.0751 0.0000
# 4 0.0000 0.0000 0.0000 23.7904 0.0000 22.8797
# 5 23.2901 25.6297 26.0751 0.0000 32.9605 0.0000
# 6 0.0000 0.0000 0.0000 22.8797 0.0000 52.1046
#
#
#
# Elastic Compliance Matrix: (Units=1/GPa)
#
#
# Indices 1 2 3 4 5 6 
#
# 1 0.005109 -0.002118 -0.001524 0.000000 -0.000757 0.000000
# 2 -0.002118 0.008947 -0.000729 0.000000 -0.004884 0.000000
# 3 -0.001524 -0.000729 0.020848 0.000000 -0.014849 0.000000
# 4 0.000000 0.000000 0.000000 0.072761 0.000000 -0.031950
# 5 -0.000757 -0.004884 -0.014849 0.000000 0.046419 0.000000
# 6 0.000000 0.000000 0.000000 -0.031950 0.000000 0.033222
#
#
# Mechanical properties :
#
#
# Convention : Reuss Voigt Hill
#
# Bulk Modulus (GPa) = 38.22309 81.27901 59.75105
# Shear Modulus (GPa) = 24.41773 42.95914 33.68843
#
# Velocity S-wave (km/s) = 3.16605 4.19945 3.71882
# Velocity P-wave (km/s) = 5.39039 7.54189 6.55502
#
# Compressibility (1/GPa) = 0.02616220
#
# Stress axis : x y z
#
# Youngs Moduli (GPa) = 195.74303 111.76597 47.96537
#
# Poissons Ratio (x) = 0.23674 0.07308
# Poissons Ratio (y) = 0.41461 0.03498
# Poissons Ratio (z) = 0.29824 0.08151
#
# Static dielectric constant tensor:
#      x y z
#    x 1.945570 0.000000 0.021280 
#    y 0.000000 2.067970 0.000000 
#    z 0.021280 0.000000 2.029870 
# 
# From -- ./inp_files/170494.got.cif
#   From: 2010.05.17/outbox.cif.g08.bks.cpg/sg15_86_cif.got.tgz:170494.got - 2010.06.03 18:47:42.
