data_PCOD9291117
_publ_section_title
;
Structure prediction by ZEFSAII (Michael W. Deem and Ramdas Pophale) SiO2 
 PCOD9291117
Probable space group: C 2/C
;
_chemical_formula_sum "Si O2"
_cell_formula_units_Z 40
_cell_length_a 18.886779
_cell_length_b 22.589935
_cell_length_c 7.906327
_cell_angle_alpha 90.000000
_cell_angle_beta 145.638197
_cell_angle_gamma 90.000000
_cell_volume 1903.915144
_symmetry_space_group_name_H-M "C 2/C"
_symmetry_group_IT_number 15
_symmetry_cell_setting 'monoclinic'
loop_
_space_group_symop_operation_xyz
x,y,z
-x,y,1/2-z
-x,-y,-z
x,-y,1/2+z
1/2+x,1/2+y,z
1/2-x,1/2+y,1/2-z
1/2-x,1/2-y,-z
1/2+x,1/2-y,1/2+z
loop_
_atom_site_type_symbol
_atom_site_label
_atom_site_fract_x
_atom_site_fract_y
_atom_site_fract_z
Si Si1 0.500000 0.509804 0.750000
Si Si2 0.862126 0.795253 0.760877
Si Si3 0.128240 0.755284 0.367227
Si Si4 0.556965 0.061727 0.676151
Si Si5 0.154866 0.928251 0.836532
Si Si6 0.000000 0.353383 0.750000
O O1 0.615032 0.467345 0.919541
O O2 0.450813 0.551696 0.504842
O O3 0.750000 0.750000 0.500000
O O4 0.850692 0.857939 0.647520
O O5 0.856744 0.803506 0.954639
O O6 0.001434 0.768061 0.012340
O O7 0.250000 0.750000 0.500000
O O8 0.110351 0.692649 0.426478
O O9 0.500000 0.075463 0.750000
O O10 0.522669 0.108781 0.462274
O O11 0.500000 0.000000 0.500000
O O12 0.707936 0.057777 0.967658
#
# Coordination Sequence:
#
# PCOD9291117 Si02
#       6
#     4   8   8   8   8   4
#     4  10  24  41  68  94 133 182 224 292 336 420
#     4  10  22  42  64  95 134 170 226 280 337 419
#     4  10  23  43  65  99 132 177 221 281 350 399
#     4  12  25  43  68 101 137 183 230 288 349 413
#     4  11  23  44  64  99 133 176 237 275 356 416
#     4  10  24  45  64 102 139 174 234 282 346 424
#
# _framework density 21.009340999999999
#
# number of rings (size 3 to 8) (size 9 to 14) (size 15 to 20)
#    0.000    1.600    1.000    4.800    2.800    4.000 
#    3.600    0.000    0.000    0.000    0.000    0.000 
#    0.000    0.000    0.000    0.000    0.000    0.000 
#
# Total GULP energy -111639.751092 kJ/mol
# GULP energy per Si atom -5581.987555 kJ/mol
# Density = 2.096152 g / cm^3
# Si number density = 21.009341 Si / 1000 Ang^3
#
#
#
# Elastic Constant Matrix: (Units=GPa)
#
#
# Indices 1 2 3 4 5 6 
#
# 1 137.2807 24.9660 29.0145 0.0000 28.4754 0.0000
# 2 24.9660 119.2065 30.2314 0.0000 3.2894 0.0000
# 3 29.0145 30.2314 97.4646 0.0000 21.0212 0.0000
# 4 0.0000 0.0000 0.0000 28.8102 0.0000 -6.1518
# 5 28.4754 3.2894 21.0212 0.0000 45.6180 0.0000
# 6 0.0000 0.0000 0.0000 -6.1518 0.0000 29.5927
#
#
#
# Elastic Compliance Matrix: (Units=1/GPa)
#
#
# Indices 1 2 3 4 5 6 
#
# 1 0.008790 -0.001421 -0.001127 0.000000 -0.004865 0.000000
# 2 -0.001421 0.009356 -0.002803 0.000000 0.001504 0.000000
# 3 -0.001127 -0.002803 0.012513 0.000000 -0.004861 0.000000
# 4 0.000000 0.000000 0.000000 0.036322 0.000000 0.007551
# 5 -0.004865 0.001504 -0.004861 0.000000 0.027090 0.000000
# 6 0.000000 0.000000 0.000000 0.007551 0.000000 0.035362
#
#
# Mechanical properties :
#
#
# Convention : Reuss Voigt Hill
#
# Bulk Modulus (GPa) = 50.10680 58.04174 54.07427
# Shear Modulus (GPa) = 34.06283 38.78683 36.42483
#
# Velocity S-wave (km/s) = 4.03093 4.30137 4.16834
# Velocity P-wave (km/s) = 6.75026 7.23572 6.99720
#
# Compressibility (1/GPa) = 0.01995737
#
# Stress axis : x y z
#
# Youngs Moduli (GPa) = 113.76491 106.88487 79.91379
#
# Poissons Ratio (x) = 0.15188 0.09003
# Poissons Ratio (y) = 0.16166 0.22403
# Poissons Ratio (z) = 0.12817 0.29964
#
# Static dielectric constant tensor:
#      x y z
#    x 1.815460 0.000000 -0.048290 
#    y 0.000000 1.756450 0.000000 
#    z -0.048290 0.000000 1.803760 
# 
# From -- ./inp_files/58713.got.cif
#   From: 2010.05.17/outbox.cif.g08.bks.cpg/sg15_30_cif.got.tgz:58713.got - 2010.06.03 18:47:42.
