data_PCOD9291693
_publ_section_title
;
Structure prediction by ZEFSAII (Michael W. Deem and Ramdas Pophale) SiO2 
 PCOD9291693
Probable space group: C 2/C
;
_chemical_formula_sum "Si O2"
_cell_formula_units_Z 48
_cell_length_a 17.861224
_cell_length_b 8.588923
_cell_length_c 23.981996
_cell_angle_alpha 90.000000
_cell_angle_beta 145.984336
_cell_angle_gamma 90.000000
_cell_volume 2058.130355
_symmetry_space_group_name_H-M "C 2/C"
_symmetry_group_IT_number 15
_symmetry_cell_setting 'monoclinic'
loop_
_space_group_symop_operation_xyz
x,y,z
-x,y,1/2-z
-x,-y,-z
x,-y,1/2+z
1/2+x,1/2+y,z
1/2-x,1/2+y,1/2-z
1/2-x,1/2-y,-z
1/2+x,1/2-y,1/2+z
loop_
_atom_site_type_symbol
_atom_site_label
_atom_site_fract_x
_atom_site_fract_y
_atom_site_fract_z
Si Si1 0.352531 0.257012 0.683831
Si Si2 0.805509 0.413156 0.698479
Si Si3 0.000000 0.813678 0.250000
Si Si4 0.252570 0.086772 0.969369
Si Si5 0.417596 0.803061 0.469018
Si Si6 0.813648 0.581306 0.335720
Si Si7 0.750000 0.750000 0.500000
O O1 0.500000 0.269117 0.750000
O O2 0.319639 0.380839 0.712036
O O3 0.255800 0.277852 0.571253
O O4 0.339027 0.087428 0.702280
O O5 0.915453 0.296241 0.739814
O O6 0.663342 0.355517 0.586551
O O7 0.800544 0.402250 0.762100
O O8 0.108243 0.914967 0.350008
O O9 0.365402 0.107441 0.991909
O O10 0.250000 0.250000 0.000000
O O11 0.274121 0.939947 0.022287
O O12 0.575928 0.796778 0.572828
O O13 0.371059 0.913304 0.389244
#
# Coordination Sequence:
#
# PCOD9291693 Si02
#       7
#     8   8   4   8   8   8   4
#     4  12  28  45  72 112 145 193 250 313 378 444
#     4  11  23  44  74 104 142 195 243 302 375 454
#     4  10  22  42  70 108 142 186 250 302 370 448
#     4  11  23  43  70 104 144 195 246 310 372 445
#     4  10  23  43  67  99 139 190 242 292 379 443
#     4  11  24  45  69 102 147 189 241 310 377 442
#     4  12  26  44  72 108 150 192 248 316 368 452
#
# _framework density 23.322139
#
# number of rings (size 3 to 8) (size 9 to 14) (size 15 to 20)
#    0.000    1.000    2.500    4.000    3.500    2.000 
#    0.000    1.667    0.000    0.000    0.000    0.000 
#    0.000    0.000    0.000    0.000    0.000    0.000 
#
# Total GULP energy -133931.235021 kJ/mol
# GULP energy per Si atom -5580.468126 kJ/mol
# Density = 2.326906 g / cm^3
# Si number density = 23.322139 Si / 1000 Ang^3
#
#
#
# Elastic Constant Matrix: (Units=GPa)
#
#
# Indices 1 2 3 4 5 6 
#
# 1 138.2020 23.2056 40.2072 0.0000 -16.7013 0.0000
# 2 23.2056 103.1630 13.9196 0.0000 -6.6094 0.0000
# 3 40.2072 13.9196 41.6952 0.0000 2.9680 0.0000
# 4 0.0000 0.0000 0.0000 20.1513 0.0000 -11.1136
# 5 -16.7013 -6.6094 2.9680 0.0000 44.4282 0.0000
# 6 0.0000 0.0000 0.0000 -11.1136 0.0000 38.1410
#
#
#
# Elastic Compliance Matrix: (Units=1/GPa)
#
#
# Indices 1 2 3 4 5 6 
#
# 1 0.011068 -0.000731 -0.010769 0.000000 0.004771 0.000000
# 2 -0.000731 0.010335 -0.002849 0.000000 0.001453 0.000000
# 3 -0.010769 -0.002849 0.035808 0.000000 -0.006864 0.000000
# 4 0.000000 0.000000 0.000000 0.059126 0.000000 0.017228
# 5 0.004771 0.001453 -0.006864 0.000000 0.024977 0.000000
# 6 0.000000 0.000000 0.000000 0.017228 0.000000 0.031238
#
#
# Mechanical properties :
#
#
# Convention : Reuss Voigt Hill
#
# Bulk Modulus (GPa) = 35.07065 48.63611 41.85338
# Shear Modulus (GPa) = 23.72436 34.25927 28.99181
#
# Velocity S-wave (km/s) = 3.19289 3.83686 3.52959
# Velocity P-wave (km/s) = 5.35377 6.36616 5.88179
#
# Compressibility (1/GPa) = 0.02851387
#
# Stress axis : x y z
#
# Youngs Moduli (GPa) = 90.35017 96.75556 27.92705
#
# Poissons Ratio (x) = 0.07073 0.30074
# Poissons Ratio (y) = 0.06604 0.07956
# Poissons Ratio (z) = 0.97295 0.27565
#
# Static dielectric constant tensor:
#      x y z
#    x 1.756340 0.000000 -0.042880 
#    y 0.000000 1.945520 0.000000 
#    z -0.042880 0.000000 1.872420 
# 
# From -- ./inp_files/300572.got.cif
#   From: 2010.05.17/outbox.cif.g08.bks.cpg/sg15_151_cif.got.tgz:300572.got - 2010.06.03 18:47:42.
