data_PCOD9291473
_publ_section_title
;
Structure prediction by ZEFSAII (Michael W. Deem and Ramdas Pophale) SiO2 
 PCOD9291473
Probable space group: C 2/C
;
_chemical_formula_sum "Si O2"
_cell_formula_units_Z 48
_cell_length_a 7.948164
_cell_length_b 28.687227
_cell_length_c 15.233562
_cell_angle_alpha 90.000000
_cell_angle_beta 143.398957
_cell_angle_gamma 90.000000
_cell_volume 2070.988037
_symmetry_space_group_name_H-M "C 2/C"
_symmetry_group_IT_number 15
_symmetry_cell_setting 'monoclinic'
loop_
_space_group_symop_operation_xyz
x,y,z
-x,y,1/2-z
-x,-y,-z
x,-y,1/2+z
1/2+x,1/2+y,z
1/2-x,1/2+y,1/2-z
1/2-x,1/2-y,-z
1/2+x,1/2-y,1/2+z
loop_
_atom_site_type_symbol
_atom_site_label
_atom_site_fract_x
_atom_site_fract_y
_atom_site_fract_z
Si Si1 0.573397 0.800033 0.677993
Si Si2 0.042040 0.800458 0.163510
Si Si3 0.804738 0.434301 0.081419
Si Si4 0.671100 0.399821 0.733410
Si Si5 0.341962 0.398496 0.269499
Si Si6 0.843618 0.470351 0.515774
O O1 0.500000 0.802843 0.750000
O O2 0.272841 0.803160 0.505139
O O3 0.688477 0.748728 0.700087
O O4 0.754037 0.845461 0.731838
O O5 0.179416 0.849162 0.189144
O O6 0.000000 0.794697 0.250000
O O7 0.000000 0.425546 0.250000
O O8 0.035311 0.414355 0.110103
O O9 0.779180 0.488809 0.057279
O O10 0.512826 0.410985 0.931044
O O11 0.500000 0.412423 0.750000
O O12 0.943251 0.432819 0.854333
O O13 0.500000 0.382118 0.250000
O O14 0.543398 0.442421 0.379374
O O15 0.000000 0.500000 0.500000
#
# Coordination Sequence:
#
# PCOD9291473 Si02
#       6
#     8   8   8   8   8   8
#     4  10  22  42  68 101 129 167 226 283 327 391
#     4   9  20  40  70  96 125 170 230 267 327 404
#     4  12  29  42  61 101 142 170 220 284 339 388
#     4  12  25  44  69  98 135 175 227 271 340 404
#     4  11  21  41  70  94 129 182 225 265 335 404
#     4  12  23  43  68  97 127 184 230 273 319 408
#
# _framework density 23.177343
#
# number of rings (size 3 to 8) (size 9 to 14) (size 15 to 20)
#    0.000    1.000    5.000    1.000    4.667    3.333 
#    0.000    1.667    0.000    0.000    0.000    0.000 
#    0.000    0.000    0.000    0.000    0.000    0.000 
#
# Total GULP energy -133674.377233 kJ/mol
# GULP energy per Si atom -5569.765718 kJ/mol
# Density = 2.312459 g / cm^3
# Si number density = 23.177343 Si / 1000 Ang^3
#
#
#
# Elastic Constant Matrix: (Units=GPa)
#
#
# Indices 1 2 3 4 5 6 
#
# 1 23.5486 -4.1097 12.8198 0.0000 -5.0849 0.0000
# 2 -4.1097 209.4420 58.9912 0.0000 13.5363 0.0000
# 3 12.8198 58.9912 145.6112 0.0000 -12.3137 0.0000
# 4 0.0000 0.0000 0.0000 45.6405 0.0000 -6.3111
# 5 -5.0849 13.5363 -12.3137 0.0000 37.0358 0.0000
# 6 0.0000 0.0000 0.0000 -6.3111 0.0000 2.3971
#
#
#
# Elastic Compliance Matrix: (Units=1/GPa)
#
#
# Indices 1 2 3 4 5 6 
#
# 1 0.046132 0.001899 -0.004480 0.000000 0.004150 0.000000
# 2 0.001899 0.005760 -0.002733 0.000000 -0.002753 0.000000
# 3 -0.004480 -0.002733 0.008645 0.000000 0.003258 0.000000
# 4 0.000000 0.000000 0.000000 0.034454 0.000000 0.090710
# 5 0.004150 -0.002753 0.003258 0.000000 0.029660 0.000000
# 6 0.000000 0.000000 0.000000 0.090710 0.000000 0.655992
#
#
# Mechanical properties :
#
#
# Convention : Reuss Voigt Hill
#
# Bulk Modulus (GPa) = 20.03711 57.11161 38.57436
# Shear Modulus (GPa) = 6.18884 37.74137 21.96510
#
# Velocity S-wave (km/s) = 1.63585 4.03969 3.08181
# Velocity P-wave (km/s) = 3.49741 6.81567 5.41689
#
# Compressibility (1/GPa) = 0.04990739
#
# Stress axis : x y z
#
# Youngs Moduli (GPa) = 21.67709 173.62083 115.67487
#
# Poissons Ratio (x) = -0.32966 0.51819
# Poissons Ratio (y) = -0.04116 0.31619
# Poissons Ratio (z) = 0.09711 0.47458
#
# Static dielectric constant tensor:
#      x y z
#    x 2.030540 0.000000 -0.170700 
#    y 0.000000 1.971590 0.000000 
#    z -0.170700 0.000000 1.814200 
# 
# From -- ./inp_files/194331.got.cif
#   From: 2010.05.17/outbox.cif.g08.bks.cpg/sg15_98_cif.got.tgz:194331.got - 2010.06.03 18:47:42.
