data_PCOD9291983
_publ_section_title
;
Structure prediction by ZEFSAII (Michael W. Deem and Ramdas Pophale) SiO2 
 PCOD9291983
Probable space group: C 2/C
;
_chemical_formula_sum "Si O2"
_cell_formula_units_Z 60
_cell_length_a 14.830103
_cell_length_b 14.599986
_cell_length_c 14.588067
_cell_angle_alpha 90.000000
_cell_angle_beta 59.883682
_cell_angle_gamma 90.000000
_cell_volume 2732.214288
_symmetry_space_group_name_H-M "C 2/C"
_symmetry_group_IT_number 15
_symmetry_cell_setting 'monoclinic'
loop_
_space_group_symop_operation_xyz
x,y,z
-x,y,1/2-z
-x,-y,-z
x,-y,1/2+z
1/2+x,1/2+y,z
1/2-x,1/2+y,1/2-z
1/2-x,1/2-y,-z
1/2+x,1/2-y,1/2+z
loop_
_atom_site_type_symbol
_atom_site_label
_atom_site_fract_x
_atom_site_fract_y
_atom_site_fract_z
Si Si1 0.332052 0.315265 0.402708
Si Si2 0.174422 0.810956 0.656298
Si Si3 0.169557 0.145003 0.961433
Si Si4 0.183412 0.601884 0.277357
Si Si5 0.280224 0.955006 0.931160
Si Si6 0.500000 0.823502 0.250000
Si Si7 0.495423 0.983417 0.393239
Si Si8 0.929624 0.787660 0.160303
O O1 0.250000 0.250000 0.500000
O O2 0.292390 0.415152 0.452448
O O3 0.348783 0.311503 0.284191
O O4 0.449695 0.294679 0.375495
O O5 0.127835 0.850148 0.586064
O O6 0.265768 0.738685 0.585762
O O7 0.226690 0.887200 0.693569
O O8 0.089253 0.743770 0.741263
O O9 0.090668 0.149019 0.917417
O O10 0.242109 0.055979 0.923323
O O11 0.230222 0.609259 0.152417
O O12 0.100268 0.681776 0.341696
O O13 0.112156 0.512126 0.306404
O O14 0.399999 0.956010 0.903182
O O15 0.473292 0.887586 0.351616
O O16 0.500000 0.000000 0.500000
#
# Coordination Sequence:
#
# PCOD9291983 Si02
#       8
#     8   8   8   8   8   4   8   8
#     4  11  23  42  66  99 135 181 230 284 364 431
#     4  10  23  42  67  93 140 184 230 281 364 432
#     4  10  22  43  64  94 135 184 225 291 351 426
#     4  11  22  41  67  98 137 180 231 298 354 418
#     4  12  23  42  70 102 138 179 240 296 354 429
#     4  12  24  46  68 106 140 182 244 298 356 450
#     4  12  25  41  71 106 141 181 238 309 362 416
#     4  10  24  42  65  95 139 183 228 290 359 434
#
# _framework density 21.96021
#
# number of rings (size 3 to 8) (size 9 to 14) (size 15 to 20)
#    0.000    1.067    4.000    1.600    5.600    5.867 
#    0.000    1.333    0.000    0.000    0.000    0.000 
#    0.000    0.000    0.000    0.000    0.000    0.000 
#
# Total GULP energy -167258.843149 kJ/mol
# GULP energy per Si atom -5575.294772 kJ/mol
# Density = 2.191023 g / cm^3
# Si number density = 21.960210 Si / 1000 Ang^3
#
#
#
# Elastic Constant Matrix: (Units=GPa)
#
#
# Indices 1 2 3 4 5 6 
#
# 1 97.5501 30.2182 46.0782 0.0000 22.4993 0.0000
# 2 30.2182 59.0937 25.2200 0.0000 8.8280 0.0000
# 3 46.0782 25.2200 93.3615 0.0000 5.8307 0.0000
# 4 0.0000 0.0000 0.0000 36.4479 0.0000 -1.8342
# 5 22.4993 8.8280 5.8307 0.0000 32.1438 0.0000
# 6 0.0000 0.0000 0.0000 -1.8342 0.0000 19.2196
#
#
#
# Elastic Compliance Matrix: (Units=1/GPa)
#
#
# Indices 1 2 3 4 5 6 
#
# 1 0.016891 -0.004435 -0.006550 0.000000 -0.009417 0.000000
# 2 -0.004435 0.020917 -0.003334 0.000000 -0.002036 0.000000
# 3 -0.006550 -0.003334 0.014667 0.000000 0.002840 0.000000
# 4 0.000000 0.000000 0.000000 0.027569 0.000000 0.002631
# 5 -0.009417 -0.002036 0.002840 0.000000 0.037745 0.000000
# 6 0.000000 0.000000 0.000000 0.002631 0.000000 0.052281
#
#
# Mechanical properties :
#
#
# Convention : Reuss Voigt Hill
#
# Bulk Modulus (GPa) = 41.95333 50.33757 46.14545
# Shear Modulus (GPa) = 24.19478 27.46153 25.82816
#
# Velocity S-wave (km/s) = 3.32287 3.54010 3.43320
# Velocity P-wave (km/s) = 5.81960 6.29934 6.06421
#
# Compressibility (1/GPa) = 0.02383601
#
# Stress axis : x y z
#
# Youngs Moduli (GPa) = 59.20317 47.80718 68.17888
#
# Poissons Ratio (x) = 0.21203 0.44659
# Poissons Ratio (y) = 0.26257 0.22734
# Poissons Ratio (z) = 0.38780 0.15941
#
# Static dielectric constant tensor:
#      x y z
#    x 1.808580 0.000000 0.037890 
#    y 0.000000 1.892660 0.000000 
#    z 0.037890 0.000000 1.889580 
# 
# From -- ./inp_files/154246.got.cif
#   From: 2010.05.17/outbox.cif.g08.bks.cpg/sg15_78_cif.got.tgz:154246.got - 2010.06.03 18:47:42.
