data_PCOD9291212
_publ_section_title
;
Structure prediction by ZEFSAII (Michael W. Deem and Ramdas Pophale) SiO2 
 PCOD9291212
Probable space group: C 2/C
;
_chemical_formula_sum "Si O2"
_cell_formula_units_Z 60
_cell_length_a 21.113458
_cell_length_b 16.262050
_cell_length_c 8.046284
_cell_angle_alpha 90.000000
_cell_angle_beta 89.214274
_cell_angle_gamma 90.000000
_cell_volume 2762.416631
_symmetry_space_group_name_H-M "C 2/C"
_symmetry_group_IT_number 15
_symmetry_cell_setting 'monoclinic'
loop_
_space_group_symop_operation_xyz
x,y,z
-x,y,1/2-z
-x,-y,-z
x,-y,1/2+z
1/2+x,1/2+y,z
1/2-x,1/2+y,1/2-z
1/2-x,1/2-y,-z
1/2+x,1/2-y,1/2+z
loop_
_atom_site_type_symbol
_atom_site_label
_atom_site_fract_x
_atom_site_fract_y
_atom_site_fract_z
Si Si1 0.916519 0.599738 0.994720
Si Si2 0.736875 0.584813 0.765894
Si Si3 0.500000 0.004249 0.750000
Si Si4 0.228812 0.587189 0.385466
Si Si5 0.063276 0.768663 0.355965
Si Si6 0.217690 0.240656 0.320970
Si Si7 0.500811 0.405904 0.551013
Si Si8 0.869738 0.833185 0.438215
O O1 0.962833 0.554561 0.124672
O O2 0.842964 0.585499 0.041198
O O3 0.927371 0.696399 0.014023
O O4 0.944206 0.561531 0.825703
O O5 0.764851 0.495948 0.721312
O O6 0.780406 0.667508 0.750983
O O7 0.680826 0.603331 0.637146
O O8 0.722524 0.582199 0.961593
O O9 0.247051 0.670457 0.286436
O O10 0.119005 0.771268 0.217035
O O11 0.000000 0.752928 0.250000
O O12 0.055285 0.853696 0.455928
O O13 0.250000 0.250000 0.500000
O O14 0.150977 0.206453 0.386691
O O15 0.500000 0.396113 0.750000
O O16 0.500000 0.500000 0.500000
O O17 0.436579 0.372403 0.472575
#
# Coordination Sequence:
#
# PCOD9291212 Si02
#       8
#     8   8   4   8   8   8   8   8
#     4  11  22  43  61  94 130 170 213 269 319 373
#     4  11  24  42  63  98 127 175 219 264 330 393
#     4  10  24  38  64  90 128 170 220 260 316 392
#     4  12  25  41  66  96 135 172 222 274 327 394
#     4  10  22  42  66  93 128 172 211 267 330 386
#     4  10  22  42  65  96 128 170 221 264 330 392
#     4  11  25  43  66  97 127 164 219 267 330 390
#     4  10  23  43  67  91 130 173 211 274 322 389
#
# _framework density 21.720113999999999
#
# number of rings (size 3 to 8) (size 9 to 14) (size 15 to 20)
#    0.000    1.333    0.667    5.600    0.933    7.467 
#    4.800    0.000    0.000    0.000    0.000    0.000 
#    0.000    0.000    0.000    0.000    0.000    0.000 
#
# Total GULP energy -167404.416604 kJ/mol
# GULP energy per Si atom -5580.147220 kJ/mol
# Density = 2.167068 g / cm^3
# Si number density = 21.720114 Si / 1000 Ang^3
#
#
#
# Elastic Constant Matrix: (Units=GPa)
#
#
# Indices 1 2 3 4 5 6 
#
# 1 49.2945 12.7431 9.2518 0.0000 -10.5832 0.0000
# 2 12.7431 142.9861 41.5339 0.0000 -11.3741 0.0000
# 3 9.2518 41.5339 93.4283 0.0000 -5.8730 0.0000
# 4 0.0000 0.0000 0.0000 40.2157 0.0000 -0.8000
# 5 -10.5832 -11.3741 -5.8730 0.0000 35.2925 0.0000
# 6 0.0000 0.0000 0.0000 -0.8000 0.0000 18.6031
#
#
#
# Elastic Compliance Matrix: (Units=1/GPa)
#
#
# Indices 1 2 3 4 5 6 
#
# 1 0.022120 -0.001107 -0.001318 0.000000 0.006057 0.000000
# 2 -0.001107 0.008230 -0.003439 0.000000 0.001748 0.000000
# 3 -0.001318 -0.003439 0.012398 0.000000 0.000560 0.000000
# 4 0.000000 0.000000 0.000000 0.024887 0.000000 0.001070
# 5 0.006057 0.001748 0.000560 0.000000 0.030808 0.000000
# 6 0.000000 0.000000 0.000000 0.001070 0.000000 0.053801
#
#
# Mechanical properties :
#
#
# Convention : Reuss Voigt Hill
#
# Bulk Modulus (GPa) = 32.23632 45.86294 39.04963
# Shear Modulus (GPa) = 28.68423 33.63428 31.15925
#
# Velocity S-wave (km/s) = 3.63799 3.93941 3.79169
# Velocity P-wave (km/s) = 5.70268 6.46940 6.09810
#
# Compressibility (1/GPa) = 0.03102091
#
# Stress axis : x y z
#
# Youngs Moduli (GPa) = 45.20779 121.50006 80.65788
#
# Poissons Ratio (x) = 0.13448 0.10628
# Poissons Ratio (y) = 0.05004 0.27741
# Poissons Ratio (z) = 0.05957 0.41788
#
# Static dielectric constant tensor:
#      x y z
#    x 1.897940 0.000000 -0.070010 
#    y 0.000000 1.963620 0.000000 
#    z -0.070010 0.000000 1.856770 
# 
# From -- ./inp_files/61524.got.cif
#   From: 2010.05.17/outbox.cif.g08.bks.cpg/sg15_31_cif.got.tgz:61524.got - 2010.06.03 18:47:42.
