data_PCOD9291747
_publ_section_title
;
Structure prediction by ZEFSAII (Michael W. Deem and Ramdas Pophale) SiO2 
 PCOD9291747
Probable space group: C 2/C
;
_chemical_formula_sum "Si O2"
_cell_formula_units_Z 44
_cell_length_a 25.631442
_cell_length_b 5.522848
_cell_length_c 13.587538
_cell_angle_alpha 90.000000
_cell_angle_beta 106.627032
_cell_angle_gamma 90.000000
_cell_volume 1843.009124
_symmetry_space_group_name_H-M "C 2/C"
_symmetry_group_IT_number 15
_symmetry_cell_setting 'monoclinic'
loop_
_space_group_symop_operation_xyz
x,y,z
-x,y,1/2-z
-x,-y,-z
x,-y,1/2+z
1/2+x,1/2+y,z
1/2-x,1/2+y,1/2-z
1/2-x,1/2-y,-z
1/2+x,1/2-y,1/2+z
loop_
_atom_site_type_symbol
_atom_site_label
_atom_site_fract_x
_atom_site_fract_y
_atom_site_fract_z
Si Si1 0.758378 0.534934 0.809841
Si Si2 0.912334 0.639161 0.577619
Si Si3 0.000000 0.067501 0.250000
Si Si4 0.138115 0.265691 0.057308
Si Si5 0.053402 0.926642 0.090153
Si Si6 0.696518 0.408568 0.953323
O O1 0.745541 0.269845 0.760923
O O2 0.820697 0.533130 0.881152
O O3 0.714207 0.574495 0.872072
O O4 0.960707 0.753087 0.666671
O O5 0.899918 0.356658 0.553621
O O6 0.856864 0.748180 0.592130
O O7 0.922396 0.720315 0.468307
O O8 0.033486 0.901618 0.190977
O O9 0.098198 0.139818 0.112327
O O10 0.179900 0.069851 0.036686
O O11 0.000000 0.000000 0.000000
O O12 0.750000 0.250000 0.000000
#
# Coordination Sequence:
#
# PCOD9291747 Si02
#       6
#     8   8   4   8   8   8
#     4  12  28  42  69 110 150 190 248 307 362 452
#     4  10  23  42  71 100 144 188 242 303 367 440
#     4  10  22  42  70  98 138 186 252 296 372 442
#     4  11  24  43  71  99 142 192 239 306 379 437
#     4   9  22  44  66  98 137 184 236 309 365 434
#     4  11  23  45  71  99 144 196 238 291 383 446
#
# _framework density 23.873999999999999
#
# number of rings (size 3 to 8) (size 9 to 14) (size 15 to 20)
#    0.000    1.455    1.818    1.636    7.636    2.909 
#    0.000   12.727    0.000    0.000    0.000    0.000 
#    0.000    0.000    0.000    0.000    0.000    0.000 
#
# Total GULP energy -122884.670632 kJ/mol
# GULP energy per Si atom -5585.666847 kJ/mol
# Density = 2.381966 g / cm^3
# Si number density = 23.874000 Si / 1000 Ang^3
#
#
#
# Elastic Constant Matrix: (Units=GPa)
#
#
# Indices 1 2 3 4 5 6 
#
# 1 160.9252 28.7559 51.3951 0.0000 -19.2652 0.0000
# 2 28.7559 48.8902 15.0455 0.0000 10.8717 0.0000
# 3 51.3951 15.0455 92.3803 0.0000 -11.1733 0.0000
# 4 0.0000 0.0000 0.0000 19.5274 0.0000 14.7362
# 5 -19.2652 10.8717 -11.1733 0.0000 39.9128 0.0000
# 6 0.0000 0.0000 0.0000 14.7362 0.0000 25.3923
#
#
#
# Elastic Compliance Matrix: (Units=1/GPa)
#
#
# Indices 1 2 3 4 5 6 
#
# 1 0.008810 -0.005145 -0.003498 0.000000 0.004675 0.000000
# 2 -0.005145 0.026666 -0.002753 0.000000 -0.010517 0.000000
# 3 -0.003498 -0.002753 0.013565 0.000000 0.002859 0.000000
# 4 0.000000 0.000000 0.000000 0.091114 0.000000 -0.052877
# 5 0.004675 -0.010517 0.002859 0.000000 0.030976 0.000000
# 6 0.000000 0.000000 0.000000 -0.052877 0.000000 0.070069
#
#
# Mechanical properties :
#
#
# Convention : Reuss Voigt Hill
#
# Bulk Modulus (GPa) = 38.09563 54.73208 46.41386
# Shear Modulus (GPa) = 18.33238 30.76643 24.54940
#
# Velocity S-wave (km/s) = 2.77407 3.59374 3.21018
# Velocity P-wave (km/s) = 5.12369 6.33996 5.76400
#
# Compressibility (1/GPa) = 0.02624973
#
# Stress axis : x y z
#
# Youngs Moduli (GPa) = 113.50364 37.50094 73.71869
#
# Poissons Ratio (x) = 0.19294 0.25788
# Poissons Ratio (y) = 0.58397 0.20292
# Poissons Ratio (z) = 0.39706 0.10323
#
# Static dielectric constant tensor:
#      x y z
#    x 1.914330 0.000000 0.040390 
#    y 0.000000 2.026870 0.000000 
#    z 0.040390 0.000000 2.005420 
# 
# From -- ./inp_files/175483.got.cif
#   From: 2010.05.17/outbox.cif.g08.bks.cpg/sg15_88_cif.got.tgz:175483.got - 2010.06.03 18:47:42.
