data_PCOD9291683
_publ_section_title
;
Structure prediction by ZEFSAII (Michael W. Deem and Ramdas Pophale) SiO2 
 PCOD9291683
Probable space group: C 2/C
;
_chemical_formula_sum "Si O2"
_cell_formula_units_Z 40
_cell_length_a 13.219857
_cell_length_b 29.698119
_cell_length_c 12.705677
_cell_angle_alpha 90.000000
_cell_angle_beta 22.554582
_cell_angle_gamma 90.000000
_cell_volume 1913.333375
_symmetry_space_group_name_H-M "C 2/C"
_symmetry_group_IT_number 15
_symmetry_cell_setting 'monoclinic'
loop_
_space_group_symop_operation_xyz
x,y,z
-x,y,1/2-z
-x,-y,-z
x,-y,1/2+z
1/2+x,1/2+y,z
1/2-x,1/2+y,1/2-z
1/2-x,1/2-y,-z
1/2+x,1/2-y,1/2+z
loop_
_atom_site_type_symbol
_atom_site_label
_atom_site_fract_x
_atom_site_fract_y
_atom_site_fract_z
Si Si1 0.149051 0.384207 0.217157
Si Si2 0.759688 0.922849 0.556867
Si Si3 0.968784 0.778388 0.156250
Si Si4 0.171401 0.859080 0.815520
Si Si5 0.231070 0.511447 0.697462
O O1 0.187831 0.437286 0.204567
O O2 0.000000 0.379347 0.250000
O O3 0.956925 0.359946 0.486452
O O4 0.443913 0.365285 0.946738
O O5 0.500000 0.904118 0.750000
O O6 0.814953 0.900785 0.616331
O O7 0.726465 0.976083 0.606788
O O8 0.000000 0.913756 0.250000
O O9 0.000000 0.790174 0.250000
O O10 0.665005 0.763218 0.440308
O O11 0.074511 0.817786 0.980378
O O12 0.500000 0.500000 0.500000
O O13 0.000000 0.500000 0.000000
#
# Coordination Sequence:
#
# PCOD9291683 Si02
#       5
#     8   8   8   8   8
#     4  12  25  43  66  91 129 182 228 272 318 371
#     4  12  24  38  62  93 127 167 209 265 329 381
#     4  10  22  42  70 103 134 165 200 253 338 418
#     4  12  24  43  67  96 133 165 219 272 320 394
#     4  12  22  42  61  86 129 173 220 271 320 371
#
# _framework density 20.905923999999999
#
# number of rings (size 3 to 8) (size 9 to 14) (size 15 to 20)
#    0.000    0.400    4.000    5.400    0.000    4.000 
#    0.000    0.000    0.000   12.000    0.000    0.000 
#    0.000    0.000    0.000    0.000    0.000    0.000 
#
# Total GULP energy -111805.720949 kJ/mol
# GULP energy per Si atom -5590.286047 kJ/mol
# Density = 2.085834 g / cm^3
# Si number density = 20.905924 Si / 1000 Ang^3
#
#
#
# Elastic Constant Matrix: (Units=GPa)
#
#
# Indices 1 2 3 4 5 6 
#
# 1 87.9205 18.5383 26.9320 0.0000 -19.2032 0.0000
# 2 18.5383 67.5636 -3.8104 -0.0001 2.6519 -0.0001
# 3 26.9320 -3.8104 134.5592 0.0002 -14.6042 0.0005
# 4 0.0000 -0.0001 0.0002 33.2955 -0.0001 11.1286
# 5 -19.2032 2.6519 -14.6042 -0.0001 38.3077 -0.0001
# 6 0.0000 -0.0001 0.0005 11.1286 -0.0001 24.4547
#
#
#
# Elastic Compliance Matrix: (Units=1/GPa)
#
#
# Indices 1 2 3 4 5 6 
#
# 1 0.014452 -0.004356 -0.002292 0.000000 0.006672 0.000000
# 2 -0.004356 0.016168 0.001013 0.000000 -0.002917 0.000000
# 3 -0.002292 0.001013 0.008123 0.000000 0.001878 0.000000
# 4 0.000000 0.000000 0.000000 0.035422 0.000000 -0.016119
# 5 0.006672 -0.002917 0.001878 0.000000 0.030367 0.000000
# 6 0.000000 0.000000 0.000000 -0.016119 0.000000 0.048227
#
#
# Mechanical properties :
#
#
# Convention : Reuss Voigt Hill
#
# Bulk Modulus (GPa) = 36.39993 41.48478 38.94236
# Shear Modulus (GPa) = 28.87067 35.77048 32.32057
#
# Velocity S-wave (km/s) = 3.72019 4.14094 3.93619
# Velocity P-wave (km/s) = 5.99184 6.53833 6.27104
#
# Compressibility (1/GPa) = 0.02747258
#
# Stress axis : x y z
#
# Youngs Moduli (GPa) = 69.19531 61.85118 123.10949
#
# Poissons Ratio (x) = 0.26945 0.28213
# Poissons Ratio (y) = 0.30145 -0.12474
# Poissons Ratio (z) = 0.15858 -0.06267
#
# Static dielectric constant tensor:
#      x y z
#    x 1.754300 0.000000 -0.035500 
#    y 0.000000 1.904140 0.000000 
#    z -0.035500 0.000000 1.739250 
# 
# From -- ./inp_files/157146.got.cif
#   From: 2010.05.17/outbox.cif.g08.bks.cpg/sg15_79_cif.got.tgz:157146.got - 2010.06.03 18:47:42.
