data_PCOD9291852
_publ_section_title
;
Structure prediction by ZEFSAII (Michael W. Deem and Ramdas Pophale) SiO2 
 PCOD9291852
Probable space group: C 2/C
;
_chemical_formula_sum "Si O2"
_cell_formula_units_Z 64
_cell_length_a 12.358399
_cell_length_b 25.801330
_cell_length_c 14.818277
_cell_angle_alpha 90.000000
_cell_angle_beta 143.447367
_cell_angle_gamma 90.000000
_cell_volume 2814.026911
_symmetry_space_group_name_H-M "C 2/C"
_symmetry_group_IT_number 15
_symmetry_cell_setting 'monoclinic'
loop_
_space_group_symop_operation_xyz
x,y,z
-x,y,1/2-z
-x,-y,-z
x,-y,1/2+z
1/2+x,1/2+y,z
1/2-x,1/2+y,1/2-z
1/2-x,1/2-y,-z
1/2+x,1/2-y,1/2+z
loop_
_atom_site_type_symbol
_atom_site_label
_atom_site_fract_x
_atom_site_fract_y
_atom_site_fract_z
Si Si1 0.562198 0.287543 0.545318
Si Si2 0.009376 0.413190 0.862914
Si Si3 0.734986 0.629490 0.691655
Si Si4 0.793549 0.116171 0.026591
Si Si5 0.018599 0.705216 0.157243
Si Si6 0.828382 0.049578 0.692332
Si Si7 0.186442 0.931682 0.780254
Si Si8 0.050506 0.290821 0.387320
O O1 0.452192 0.338385 0.443457
O O2 0.764872 0.297657 0.715722
O O3 0.566866 0.248239 0.464012
O O4 0.450310 0.257632 0.547556
O O5 0.000000 0.422932 0.750000
O O6 0.060831 0.352374 0.909647
O O7 0.819484 0.421481 0.786918
O O8 0.156132 0.448626 0.010795
O O9 0.781887 0.606825 0.624211
O O10 0.714807 0.586397 0.753040
O O11 0.890396 0.671461 0.816441
O O12 0.723372 0.081275 0.062214
O O13 0.007463 0.104201 0.159700
O O14 0.730212 0.173941 0.009821
O O15 0.000000 0.718545 0.250000
O O16 0.000000 0.068717 0.750000
O O17 0.868596 0.991655 0.753345
O O18 0.000000 0.278487 0.250000
#
# Coordination Sequence:
#
# PCOD9291852 Si02
#       8
#     8   8   8   8   8   8   8   8
#     4  12  23  45  69 102 147 197 246 301 368 444
#     4  11  27  48  75 107 147 194 247 306 371 446
#     4  11  25  42  68 107 146 194 248 306 367 442
#     4  10  22  42  73 102 151 185 240 306 366 445
#     4  11  25  42  68 102 142 193 251 299 365 434
#     4  12  27  46  75 106 149 192 251 309 375 447
#     4  11  23  48  71 110 144 195 246 305 381 438
#     4  10  23  45  67 107 146 194 243 296 373 440
#
# _framework density 22.743209
#
# number of rings (size 3 to 8) (size 9 to 14) (size 15 to 20)
#    0.000    1.000    2.500    3.750    5.250    5.000 
#    4.500    1.250    0.000    0.000    0.000    0.000 
#    0.000    0.000    0.000    0.000    0.000    0.000 
#
# Total GULP energy -179165.299786 kJ/mol
# GULP energy per Si atom -5598.915618 kJ/mol
# Density = 2.269144 g / cm^3
# Si number density = 22.743209 Si / 1000 Ang^3
#
#
#
# Elastic Constant Matrix: (Units=GPa)
#
#
# Indices 1 2 3 4 5 6 
#
# 1 134.9700 13.8047 9.6388 0.0000 -13.5912 0.0000
# 2 13.8047 33.0848 13.1443 0.0000 -11.0959 0.0000
# 3 9.6388 13.1443 51.9705 0.0000 10.3014 0.0000
# 4 0.0000 0.0000 0.0000 -48.8293 0.0000 -48.1199
# 5 -13.5912 -11.0959 10.3014 0.0000 45.0615 0.0000
# 6 0.0000 0.0000 0.0000 -48.1199 0.0000 -16.6509
#
#
#
# Elastic Compliance Matrix: (Units=1/GPa)
#
#
# Indices 1 2 3 4 5 6 
#
# 1 0.007938 -0.002010 -0.001404 0.000000 0.002220 0.000000
# 2 -0.002010 0.039884 -0.012089 0.000000 0.011978 0.000000
# 3 -0.001404 -0.012089 0.024336 0.000000 -0.008964 0.000000
# 4 0.000000 0.000000 0.000000 0.011082 0.000000 -0.032027
# 5 0.002220 0.011978 -0.008964 0.000000 0.027860 0.000000
# 6 0.000000 0.000000 0.000000 -0.032027 0.000000 0.032499
#
#
# Mechanical properties :
#
#
# Convention : Reuss Voigt Hill
#
# Bulk Modulus (GPa) = 24.29951 32.57789 28.43870
# Shear Modulus (GPa) = 26.54995 8.14543 17.34769
#
# Velocity S-wave (km/s) = 3.42040 1.89453 2.76481
# Velocity P-wave (km/s) = 5.12897 4.37504 4.76693
#
# Compressibility (1/GPa) = 0.04115309
#
# Stress axis : x y z
#
# Youngs Moduli (GPa) = 125.96853 25.07270 41.09078
#
# Poissons Ratio (x) = 0.05039 0.05770
# Poissons Ratio (y) = 0.25317 0.49674
# Poissons Ratio (z) = 0.17688 0.30310
#
# Static dielectric constant tensor:
#      x y z
#    x 1.854550 0.000000 0.020720 
#    y 0.000000 1.804420 0.000000 
#    z 0.020720 0.000000 1.869120 
# 
# From -- ./inp_files/148814.got.cif
#   From: 2010.05.17/outbox.cif.g08.bks.cpg/sg15_75_cif.got.tgz:148814.got - 2010.06.03 18:47:42.
