data_PCOD9291252
_publ_section_title
;
Structure prediction by ZEFSAII (Michael W. Deem and Ramdas Pophale) SiO2 
 PCOD9291252
Probable space group: C 2/C
;
_chemical_formula_sum "Si O2"
_cell_formula_units_Z 52
_cell_length_a 12.056226
_cell_length_b 24.583425
_cell_length_c 9.721946
_cell_angle_alpha 90.000000
_cell_angle_beta 117.329974
_cell_angle_gamma 90.000000
_cell_volume 2559.790152
_symmetry_space_group_name_H-M "C 2/C"
_symmetry_group_IT_number 15
_symmetry_cell_setting 'monoclinic'
loop_
_space_group_symop_operation_xyz
x,y,z
-x,y,1/2-z
-x,-y,-z
x,-y,1/2+z
1/2+x,1/2+y,z
1/2-x,1/2+y,1/2-z
1/2-x,1/2-y,-z
1/2+x,1/2-y,1/2+z
loop_
_atom_site_type_symbol
_atom_site_label
_atom_site_fract_x
_atom_site_fract_y
_atom_site_fract_z
Si Si1 0.377569 0.687893 0.840388
Si Si2 0.504254 0.420831 0.413683
Si Si3 0.632463 0.015967 0.513869
Si Si4 0.791262 0.001827 0.356437
Si Si5 0.750000 0.750000 0.500000
Si Si6 0.868130 0.643941 0.941011
Si Si7 0.000000 0.310293 0.250000
Si Si8 0.500000 0.785508 0.750000
O O1 0.487549 0.643800 0.913602
O O2 0.322535 0.701650 0.956630
O O3 0.269702 0.662526 0.683268
O O4 0.417798 0.744949 0.796353
O O5 0.500000 0.435556 0.250000
O O6 0.385286 0.450626 0.415403
O O7 0.627726 0.446516 0.549361
O O8 0.670983 0.995913 0.385277
O O9 0.636596 0.081125 0.522017
O O10 0.500000 0.000000 0.500000
O O11 0.740287 0.993101 0.674428
O O12 0.615739 0.773367 0.362951
O O13 0.955780 0.654772 0.857618
O O14 0.919494 0.678207 0.099436
#
# Coordination Sequence:
#
# PCOD9291252 Si02
#       8
#     8   8   8   8   4   8   4   4
#     4  11  22  44  71 100 142 183 228 293 362 412
#     4  11  21  43  76 101 136 178 233 295 363 414
#     4  12  27  45  68 100 143 186 235 289 357 433
#     4  11  24  45  70 101 134 179 234 296 350 423
#     4  10  22  42  66 104 138 184 230 286 352 428
#     4  11  25  44  67  99 138 185 234 288 353 427
#     4  10  22  44  69  92 141 182 228 286 354 420
#     4  12  24  42  71 102 131 188 236 296 334 428
#
# _framework density 20.314166
#
# number of rings (size 3 to 8) (size 9 to 14) (size 15 to 20)
#    0.000    0.923    5.385    0.923    4.308    0.000 
#    0.000    3.077    0.000    0.000    0.000    0.000 
#    0.000    0.000    0.000    0.000    0.000    0.000 
#
# Total GULP energy -144777.230687 kJ/mol
# GULP energy per Si atom -5568.355026 kJ/mol
# Density = 2.026793 g / cm^3
# Si number density = 20.314166 Si / 1000 Ang^3
#
#
#
# Elastic Constant Matrix: (Units=GPa)
#
#
# Indices 1 2 3 4 5 6 
#
# 1 83.1194 27.2059 3.4626 0.0000 2.8949 0.0000
# 2 27.2059 100.3341 42.7626 0.0000 -3.6568 0.0000
# 3 3.4626 42.7626 37.5355 0.0000 -3.9071 0.0000
# 4 0.0000 0.0000 0.0000 360.2944 0.0000 196.7337
# 5 2.8949 -3.6568 -3.9071 0.0000 21.8180 0.0000
# 6 0.0000 0.0000 0.0000 196.7337 0.0000 136.4091
#
#
#
# Elastic Compliance Matrix: (Units=1/GPa)
#
#
# Indices 1 2 3 4 5 6 
#
# 1 0.013903 -0.006237 0.005627 0.000000 -0.001882 0.000000
# 2 -0.006237 0.022182 -0.024683 0.000000 0.000125 0.000000
# 3 0.005627 -0.024683 0.054755 0.000000 0.004922 0.000000
# 4 0.000000 0.000000 0.000000 0.013062 0.000000 -0.018838
# 5 -0.001882 0.000125 0.004922 0.000000 0.046986 0.000000
# 6 0.000000 0.000000 0.000000 -0.018838 0.000000 0.034500
#
#
# Mechanical properties :
#
#
# Convention : Reuss Voigt Hill
#
# Bulk Modulus (GPa) = 24.84188 40.87236 32.85712
# Shear Modulus (GPa) = 20.04872 113.54149 66.79511
#
# Velocity S-wave (km/s) = 3.14496 7.48426 5.74042
# Velocity P-wave (km/s) = 5.04411 9.73906 7.75540
#
# Compressibility (1/GPa) = 0.04025461
#
# Stress axis : x y z
#
# Youngs Moduli (GPa) = 71.92498 45.08103 18.26322
#
# Poissons Ratio (x) = 0.28115 -0.10276
# Poissons Ratio (y) = 0.44857 0.45079
# Poissons Ratio (z) = -0.40470 1.11273
#
# Static dielectric constant tensor:
#      x y z
#    x 1.767190 0.000000 -0.013820 
#    y 0.000000 1.683950 0.000000 
#    z -0.013820 0.000000 1.694090 
# 
# From -- ./inp_files/34462.got.cif
#   From: 2010.05.17/outbox.cif.g08.bks.cpg/sg15_18_cif.got.tgz:34462.got - 2010.06.03 18:47:42.
