data_PCOD9291191
_publ_section_title
;
Structure prediction by ZEFSAII (Michael W. Deem and Ramdas Pophale) SiO2 
 PCOD9291191
Probable space group: C 2/C
;
_chemical_formula_sum "Si O2"
_cell_formula_units_Z 64
_cell_length_a 18.549239
_cell_length_b 27.407132
_cell_length_c 9.275036
_cell_angle_alpha 90.000000
_cell_angle_beta 41.178772
_cell_angle_gamma 90.000000
_cell_volume 3104.574865
_symmetry_space_group_name_H-M "C 2/C"
_symmetry_group_IT_number 15
_symmetry_cell_setting 'monoclinic'
loop_
_space_group_symop_operation_xyz
x,y,z
-x,y,1/2-z
-x,-y,-z
x,-y,1/2+z
1/2+x,1/2+y,z
1/2-x,1/2+y,1/2-z
1/2-x,1/2-y,-z
1/2+x,1/2-y,1/2+z
loop_
_atom_site_type_symbol
_atom_site_label
_atom_site_fract_x
_atom_site_fract_y
_atom_site_fract_z
Si Si1 0.208843 0.639319 0.595173
Si Si2 0.260131 0.013260 0.297911
Si Si3 0.353780 0.213329 0.330841
Si Si4 0.613914 0.583798 0.991948
Si Si5 0.389966 0.040559 0.826895
Si Si6 0.897897 0.275852 0.078292
Si Si7 0.206432 0.828575 0.831686
Si Si8 0.606343 0.409091 0.163944
O O1 0.301336 0.623098 0.569853
O O2 0.121396 0.595760 0.713147
O O3 0.151589 0.690058 0.723970
O O4 0.267327 0.643405 0.353240
O O5 0.207796 0.057442 0.465438
O O6 0.174701 0.968377 0.417516
O O7 0.364540 0.994000 0.230174
O O8 0.293690 0.029979 0.088070
O O9 0.250000 0.250000 0.500000
O O10 0.374022 0.195582 0.463381
O O11 0.314785 0.176705 0.266590
O O12 0.472136 0.233728 0.106402
O O13 0.594748 0.593979 0.852148
O O14 0.500000 0.584396 0.250000
O O15 0.500000 0.032958 0.750000
O O16 0.839094 0.224020 0.147798
O O17 0.123976 0.857304 0.059207
O O18 0.500000 0.432230 0.250000
#
# Coordination Sequence:
#
# PCOD9291191 Si02
#       8
#     8   8   8   8   8   8   8   8
#     4  11  24  42  64 100 137 173 227 285 339 410
#     4  11  23  44  68  97 136 177 224 281 346 414
#     4   9  21  40  64  91 125 177 232 275 333 403
#     4  11  25  45  66 100 141 176 223 287 349 410
#     4  11  24  43  68  97 135 178 227 282 339 410
#     4  10  22  42  65  93 134 180 223 287 342 398
#     4  11  23  41  66  97 135 175 235 277 341 407
#     4  12  25  39  71 100 132 180 229 278 344 417
#
# _framework density 20.614739
#
# number of rings (size 3 to 8) (size 9 to 14) (size 15 to 20)
#    0.000    1.250    2.500    2.625    7.000    1.000 
#    4.500    0.000    0.000    0.000    0.000    0.000 
#    0.000    0.000    0.000    0.000    0.000    0.000 
#
# Total GULP energy -178700.461458 kJ/mol
# GULP energy per Si atom -5584.389421 kJ/mol
# Density = 2.056782 g / cm^3
# Si number density = 20.614739 Si / 1000 Ang^3
#
#
#
# Elastic Constant Matrix: (Units=GPa)
#
#
# Indices 1 2 3 4 5 6 
#
# 1 112.1242 19.9448 30.0803 0.0000 3.8326 0.0000
# 2 19.9448 85.0655 20.9477 0.0000 -0.3553 0.0000
# 3 30.0803 20.9477 80.6223 0.0000 8.6782 0.0000
# 4 0.0000 0.0000 0.0000 15.6137 0.0000 3.3107
# 5 3.8326 -0.3553 8.6782 0.0000 43.8649 0.0000
# 6 0.0000 0.0000 0.0000 3.3107 0.0000 17.0707
#
#
#
# Elastic Compliance Matrix: (Units=1/GPa)
#
#
# Indices 1 2 3 4 5 6 
#
# 1 0.010098 -0.001546 -0.003341 0.000000 -0.000234 0.000000
# 2 -0.001546 0.012821 -0.002841 0.000000 0.000801 0.000000
# 3 -0.003341 -0.002841 0.014672 0.000000 -0.002634 0.000000
# 4 0.000000 0.000000 0.000000 0.066793 0.000000 -0.012954
# 5 -0.000234 0.000801 -0.002634 0.000000 0.023345 0.000000
# 6 0.000000 0.000000 0.000000 -0.012954 0.000000 0.061092
#
#
# Mechanical properties :
#
#
# Convention : Reuss Voigt Hill
#
# Bulk Modulus (GPa) = 45.17553 46.63972 45.90763
# Shear Modulus (GPa) = 23.62346 29.09915 26.36131
#
# Velocity S-wave (km/s) = 3.38886 3.76116 3.57985
# Velocity P-wave (km/s) = 6.10527 6.44479 6.27733
#
# Compressibility (1/GPa) = 0.02213588
#
# Stress axis : x y z
#
# Youngs Moduli (GPa) = 99.03057 77.99728 68.15935
#
# Poissons Ratio (x) = 0.12058 0.22770
# Poissons Ratio (y) = 0.15309 0.19362
# Poissons Ratio (z) = 0.33083 0.22156
#
# Static dielectric constant tensor:
#      x y z
#    x 1.746370 0.000000 -0.027130 
#    y 0.000000 1.758760 0.000000 
#    z -0.027130 0.000000 1.766760 
# 
# From -- ./inp_files/52833.got.cif
#   From: 2010.05.17/outbox.cif.g08.bks.cpg/sg15_27_cif.got.tgz:52833.got - 2010.06.03 18:47:42.
