data_PCOD9291731
_publ_section_title
;
Structure prediction by ZEFSAII (Michael W. Deem and Ramdas Pophale) SiO2 
 PCOD9291731
Probable space group: C 2/C
;
_chemical_formula_sum "Si O2"
_cell_formula_units_Z 36
_cell_length_a 13.341827
_cell_length_b 9.555372
_cell_length_c 16.158058
_cell_angle_alpha 90.000000
_cell_angle_beta 41.629293
_cell_angle_gamma 90.000000
_cell_volume 1368.427648
_symmetry_space_group_name_H-M "C 2/C"
_symmetry_group_IT_number 15
_symmetry_cell_setting 'monoclinic'
loop_
_space_group_symop_operation_xyz
x,y,z
-x,y,1/2-z
-x,-y,-z
x,-y,1/2+z
1/2+x,1/2+y,z
1/2-x,1/2+y,1/2-z
1/2-x,1/2-y,-z
1/2+x,1/2-y,1/2+z
loop_
_atom_site_type_symbol
_atom_site_label
_atom_site_fract_x
_atom_site_fract_y
_atom_site_fract_z
Si Si1 0.000000 0.715924 0.250000
Si Si2 0.044346 0.351890 0.011985
Si Si3 0.746097 0.145582 0.715539
Si Si4 0.203107 0.524435 0.570500
Si Si5 0.039943 0.987279 0.313977
O O1 0.886814 0.621355 0.371894
O O2 0.919290 0.827945 0.241007
O O3 0.318862 0.505396 0.712128
O O4 0.126163 0.249637 0.898036
O O5 0.154787 0.386986 0.020585
O O6 0.889236 0.293751 0.145858
O O7 0.666097 0.095843 0.680074
O O8 0.500000 0.000000 0.000000
O O9 0.382174 0.497337 0.457875
O O10 0.000000 0.059905 0.250000
#
# Coordination Sequence:
#
# PCOD9291731 Si02
#       5
#     4   8   8   8   8
#     4  10  22  42  70  96 146 184 252 290 374 406
#     4  12  28  49  75 110 152 196 245 306 376 442
#     4  12  27  46  76 107 146 197 247 306 374 443
#     4  12  23  47  71 104 148 194 245 308 364 446
#     4  10  25  41  70 105 140 191 249 302 365 432
#
# _framework density 26.307565
#
# number of rings (size 3 to 8) (size 9 to 14) (size 15 to 20)
#    0.667    0.000    2.222    4.667    3.111    3.556 
#    0.000    0.000    0.000    0.000    0.000    0.000 
#    0.000    0.000    0.000    0.000    0.000    0.000 
#
# Total GULP energy -100685.833334 kJ/mol
# GULP energy per Si atom -5593.657407 kJ/mol
# Density = 2.624769 g / cm^3
# Si number density = 26.307565 Si / 1000 Ang^3
#
#
#
# Elastic Constant Matrix: (Units=GPa)
#
#
# Indices 1 2 3 4 5 6 
#
# 1 133.3522 17.1697 37.2111 0.0000 -0.6892 0.0000
# 2 17.1697 78.2999 25.0025 0.0000 4.7607 0.0000
# 3 37.2111 25.0025 141.7936 0.0000 -13.8462 0.0000
# 4 0.0000 0.0000 0.0000 30.8204 0.0000 -20.9486
# 5 -0.6892 4.7607 -13.8462 0.0000 52.0667 0.0000
# 6 0.0000 0.0000 0.0000 -20.9486 0.0000 -2.5606
#
#
#
# Elastic Compliance Matrix: (Units=1/GPa)
#
#
# Indices 1 2 3 4 5 6 
#
# 1 0.008197 -0.001146 -0.001980 0.000000 -0.000313 0.000000
# 2 -0.001146 0.013884 -0.002333 0.000000 -0.001905 0.000000
# 3 -0.001980 -0.002333 0.008215 0.000000 0.002372 0.000000
# 4 0.000000 0.000000 0.000000 0.004945 0.000000 -0.040460
# 5 -0.000313 -0.001905 0.002372 0.000000 0.020007 0.000000
# 6 0.000000 0.000000 0.000000 -0.040460 0.000000 -0.059526
#
#
# Mechanical properties :
#
#
# Convention : Reuss Voigt Hill
#
# Bulk Modulus (GPa) = 51.60645 56.91248 54.25946
# Shear Modulus (GPa) = 381.67699 34.33613 208.00656
#
# Velocity S-wave (km/s) = 12.05809 3.61665 8.90162
# Velocity P-wave (km/s) = 14.61241 6.25465 11.23929
#
# Compressibility (1/GPa) = 0.01937742
#
# Stress axis : x y z
#
# Youngs Moduli (GPa) = 121.99086 72.02695 121.72738
#
# Poissons Ratio (x) = 0.08257 0.24098
# Poissons Ratio (y) = 0.13984 0.28403
# Poissons Ratio (z) = 0.24150 0.16806
#
# Static dielectric constant tensor:
#      x y z
#    x 2.303070 0.000000 0.040020 
#    y 0.000000 2.152080 0.000000 
#    z 0.040020 0.000000 2.017840 
# 
# From -- ./inp_files/49346.got.cif
#   From: 2010.05.17/outbox.cif.g08.bks.cpg/sg15_25_cif.got.tgz:49346.got - 2010.06.03 18:47:42.
