data_PCOD9291568
_publ_section_title
;
Structure prediction by ZEFSAII (Michael W. Deem and Ramdas Pophale) SiO2 
 PCOD9291568
Probable space group: C 2/C
;
_chemical_formula_sum "Si O2"
_cell_formula_units_Z 36
_cell_length_a 16.893072
_cell_length_b 4.948639
_cell_length_c 20.887146
_cell_angle_alpha 90.000000
_cell_angle_beta 127.527550
_cell_angle_gamma 90.000000
_cell_volume 1384.777015
_symmetry_space_group_name_H-M "C 2/C"
_symmetry_group_IT_number 15
_symmetry_cell_setting 'monoclinic'
loop_
_space_group_symop_operation_xyz
x,y,z
-x,y,1/2-z
-x,-y,-z
x,-y,1/2+z
1/2+x,1/2+y,z
1/2-x,1/2+y,1/2-z
1/2-x,1/2-y,-z
1/2+x,1/2-y,1/2+z
loop_
_atom_site_type_symbol
_atom_site_label
_atom_site_fract_x
_atom_site_fract_y
_atom_site_fract_z
Si Si1 0.995162 0.876709 0.891512
Si Si2 0.000000 0.992234 0.750000
Si Si3 0.124141 0.600263 0.479451
Si Si4 0.193097 0.346412 0.874610
Si Si5 0.279832 0.626265 0.802696
O O1 0.890037 0.000381 0.860646
O O2 0.036956 0.614495 0.947600
O O3 0.991415 0.831333 0.812549
O O4 0.075217 0.108777 0.944669
O O5 0.903460 0.184864 0.696622
O O6 0.173242 0.531447 0.434866
O O7 0.213413 0.642360 0.572585
O O8 0.223200 0.577903 0.840574
O O9 0.277076 0.929226 0.775721
#
# Coordination Sequence:
#
# PCOD9291568 Si02
#       5
#     8   4   8   8   8
#     4  11  24  43  67 100 131 173 220 264 335 382
#     4  10  22  42  68  98 128 180 214 278 304 412
#     4  10  25  44  69  97 131 177 215 272 323 393
#     4  10  24  45  68  98 135 171 223 267 328 386
#     4  12  26  42  66 102 132 171 216 279 325 385
#
# _framework density 25.996963999999998
#
# number of rings (size 3 to 8) (size 9 to 14) (size 15 to 20)
#    0.000    1.333    2.222    1.333    6.222   12.444 
#    0.000    0.000    0.000    0.000    0.000    0.000 
#    0.000    0.000    0.000    0.000    0.000    0.000 
#
# Total GULP energy -101055.038102 kJ/mol
# GULP energy per Si atom -5614.168783 kJ/mol
# Density = 2.593779 g / cm^3
# Si number density = 25.996964 Si / 1000 Ang^3
#
#
#
# Elastic Constant Matrix: (Units=GPa)
#
#
# Indices 1 2 3 4 5 6 
#
# 1 56.9509 -8.7367 39.3000 -0.0001 2.2926 0.0008
# 2 -8.7367 75.5176 48.3945 -0.0001 -7.2369 0.0039
# 3 39.3000 48.3945 133.6439 0.0004 31.4587 0.0001
# 4 -0.0001 -0.0001 0.0004 42.5278 -0.0003 6.5232
# 5 2.2926 -7.2369 31.4587 -0.0003 54.3001 -0.0004
# 6 0.0008 0.0039 0.0001 6.5232 -0.0004 -28.7449
#
#
#
# Elastic Compliance Matrix: (Units=1/GPa)
#
#
# Indices 1 2 3 4 5 6 
#
# 1 0.031975 0.016263 -0.017929 0.000000 0.011205 0.000003
# 2 0.016263 0.028037 -0.018124 0.000000 0.013550 0.000004
# 3 -0.017929 -0.018124 0.022821 0.000000 -0.014880 -0.000003
# 4 0.000000 0.000000 0.000000 0.022723 0.000000 0.005157
# 5 0.011205 0.013550 -0.014880 0.000000 0.028370 0.000002
# 6 0.000003 0.000004 -0.000003 0.005157 0.000002 -0.033619
#
#
# Mechanical properties :
#
#
# Convention : Reuss Voigt Hill
#
# Bulk Modulus (GPa) = 23.12112 47.11422 35.11767
# Shear Modulus (GPa) = 32.40325 26.09357 29.24841
#
# Velocity S-wave (km/s) = 3.53430 3.17158 3.35785
# Velocity P-wave (km/s) = 5.05650 5.61910 5.34520
#
# Compressibility (1/GPa) = 0.04325050
#
# Stress axis : x y z
#
# Youngs Moduli (GPa) = 31.27434 35.66742 43.81998
#
# Poissons Ratio (x) = -0.58005 0.78566
# Poissons Ratio (y) = -0.50860 0.79422
# Poissons Ratio (z) = 0.56072 0.64645
#
# Static dielectric constant tensor:
#      x y z
#    x 2.054520 0.000000 -0.014410 
#    y 0.000000 1.961740 0.000000 
#    z -0.014410 0.000000 2.034330 
# 
# From -- ./inp_files/207842.got.cif
#   From: 2010.05.17/outbox.cif.g08.bks.cpg/sg15_104_cif.got.tgz:207842.got - 2010.06.03 18:47:42.
