data_PCOD9291133
_publ_section_title
;
Structure prediction by ZEFSAII (Michael W. Deem and Ramdas Pophale) SiO2 
 PCOD9291133
Probable space group: C 2/C
;
_chemical_formula_sum "Si O2"
_cell_formula_units_Z 56
_cell_length_a 20.946163
_cell_length_b 15.618635
_cell_length_c 22.023956
_cell_angle_alpha 90.000000
_cell_angle_beta 20.008415
_cell_angle_gamma 90.000000
_cell_volume 2465.300006
_symmetry_space_group_name_H-M "C 2/C"
_symmetry_group_IT_number 15
_symmetry_cell_setting 'monoclinic'
loop_
_space_group_symop_operation_xyz
x,y,z
-x,y,1/2-z
-x,-y,-z
x,-y,1/2+z
1/2+x,1/2+y,z
1/2-x,1/2+y,1/2-z
1/2-x,1/2-y,-z
1/2+x,1/2-y,1/2+z
loop_
_atom_site_type_symbol
_atom_site_label
_atom_site_fract_x
_atom_site_fract_y
_atom_site_fract_z
Si Si1 0.189713 0.720133 0.844115
Si Si2 0.109830 0.667619 0.053076
Si Si3 0.422704 0.162723 0.974425
Si Si4 0.074122 0.513191 0.615719
Si Si5 0.500000 0.296361 0.250000
Si Si6 0.997864 0.892956 0.001748
Si Si7 0.013216 0.157759 0.120804
Si Si8 0.000000 0.946012 0.750000
O O1 0.363114 0.657981 0.669688
O O2 0.037925 0.688685 0.930536
O O3 0.138944 0.694517 0.958010
O O4 0.178961 0.825874 0.847257
O O5 0.004773 0.578879 0.155374
O O6 0.007499 0.740082 0.182653
O O7 0.304421 0.657738 0.916481
O O8 0.490194 0.082844 0.875447
O O9 0.430437 0.244277 0.923545
O O10 0.209975 0.149792 0.183103
O O11 0.301727 0.513225 0.408319
O O12 0.000000 0.528544 0.750000
O O13 0.918619 0.874429 0.005174
O O14 0.000000 0.000000 0.000000
O O15 0.067864 0.107021 0.131149
#
# Coordination Sequence:
#
# PCOD9291133 Si02
#       8
#     8   8   8   8   4   8   8   4
#     4  11  24  46  71 102 142 183 239 304 355 440
#     4  11  23  46  67  98 132 180 232 290 366 420
#     4  10  23  41  67  98 141 175 234 296 352 432
#     4  11  25  42  66 103 137 183 242 290 358 442
#     4  10  23  44  69  92 130 180 222 301 348 433
#     4  11  25  46  71 102 141 190 238 292 368 435
#     4  10  22  42  64  97 137 182 233 288 358 424
#     4  10  25  40  65  96 138 186 228 297 354 431
#
# _framework density 22.715288000000001
#
# number of rings (size 3 to 8) (size 9 to 14) (size 15 to 20)
#    0.000    1.429    0.714    4.714    9.000    1.714 
#   10.286    0.000    0.000    0.000    0.000    0.000 
#    0.000    0.000    0.000    0.000    0.000    0.000 
#
# Total GULP energy -155998.847636 kJ/mol
# GULP energy per Si atom -5571.387416 kJ/mol
# Density = 2.266359 g / cm^3
# Si number density = 22.715288 Si / 1000 Ang^3
#
#
#
# Elastic Constant Matrix: (Units=GPa)
#
#
# Indices 1 2 3 4 5 6 
#
# 1 77.9883 51.9170 12.3023 -0.0024 33.9356 0.0050
# 2 51.9170 155.8155 27.3736 0.0167 18.7417 -0.0090
# 3 12.3023 27.3736 77.4288 0.0026 19.2558 -0.0030
# 4 -0.0024 0.0167 0.0026 -84.0521 -0.0009 18.8516
# 5 33.9356 18.7417 19.2558 -0.0009 55.2679 0.0004
# 6 0.0050 -0.0090 -0.0030 18.8516 0.0004 8.9927
#
#
#
# Elastic Compliance Matrix: (Units=1/GPa)
#
#
# Indices 1 2 3 4 5 6 
#
# 1 0.021818 -0.006130 0.001659 -0.000004 -0.011896 -0.000009
# 2 -0.006130 0.008700 -0.002523 0.000003 0.001693 0.000005
# 3 0.001659 -0.002523 0.014873 0.000000 -0.005345 0.000001
# 4 -0.000004 0.000003 0.000000 -0.008092 0.000001 0.016965
# 5 -0.011896 0.001693 -0.005345 0.000001 0.026686 0.000003
# 6 -0.000009 0.000005 0.000001 0.016965 0.000003 0.075638
#
#
# Mechanical properties :
#
#
# Convention : Reuss Voigt Hill
#
# Bulk Modulus (GPa) = 31.84427 54.93539 43.38983
# Shear Modulus (GPa) = 30.47326 10.68433 20.57879
#
# Velocity S-wave (km/s) = 3.66666 2.17113 3.01316
# Velocity P-wave (km/s) = 5.65466 5.52466 5.59004
#
# Compressibility (1/GPa) = 0.03140283
#
# Stress axis : x y z
#
# Youngs Moduli (GPa) = 45.83358 114.94244 67.23781
#
# Poissons Ratio (x) = 0.70463 -0.11155
# Poissons Ratio (y) = 0.28097 0.16962
# Poissons Ratio (z) = -0.07604 0.28997
#
# Static dielectric constant tensor:
#      x y z
#    x 1.766460 0.000000 0.031680 
#    y 0.000000 1.876410 0.000000 
#    z 0.031680 0.000000 1.751490 
# 
# From -- ./inp_files/282101.got.cif
#   From: 2010.05.17/outbox.cif.g08.bks.cpg/sg15_142_cif.got.tgz:282101.got - 2010.06.03 18:47:42.
