data_PCOD9291234
_publ_section_title
;
Structure prediction by ZEFSAII (Michael W. Deem and Ramdas Pophale) SiO2 
 PCOD9291234
Probable space group: C 2/C
;
_chemical_formula_sum "Si O2"
_cell_formula_units_Z 40
_cell_length_a 22.223577
_cell_length_b 8.800662
_cell_length_c 10.654145
_cell_angle_alpha 90.000000
_cell_angle_beta 76.035596
_cell_angle_gamma 90.000000
_cell_volume 2022.177195
_symmetry_space_group_name_H-M "C 2/C"
_symmetry_group_IT_number 15
_symmetry_cell_setting 'monoclinic'
loop_
_space_group_symop_operation_xyz
x,y,z
-x,y,1/2-z
-x,-y,-z
x,-y,1/2+z
1/2+x,1/2+y,z
1/2-x,1/2+y,1/2-z
1/2-x,1/2-y,-z
1/2+x,1/2-y,1/2+z
loop_
_atom_site_type_symbol
_atom_site_label
_atom_site_fract_x
_atom_site_fract_y
_atom_site_fract_z
Si Si1 0.914281 0.746895 0.404303
Si Si2 0.909779 0.750623 0.691142
Si Si3 0.500000 0.001318 0.750000
Si Si4 0.215364 0.315281 0.640572
Si Si5 0.221311 0.682398 0.641534
Si Si6 0.000000 0.000483 0.750000
O O1 0.889200 0.750160 0.557646
O O2 0.959581 0.604688 0.360573
O O3 0.856722 0.730018 0.339382
O O4 0.956576 0.892717 0.356066
O O5 0.849425 0.739808 0.808067
O O6 0.953053 0.606544 0.697240
O O7 0.953155 0.894448 0.696621
O O8 0.250000 0.250000 0.500000
O O9 0.221504 0.498584 0.639921
O O10 0.242321 0.243858 0.754549
O O11 0.250000 0.750000 0.500000
#
# Coordination Sequence:
#
# PCOD9291234 Si02
#       6
#     8   8   4   8   8   4
#     4  11  23  44  71  97 134 174 228 278 346 404
#     4  11  23  45  69  96 139 171 229 277 344 406
#     4  10  22  42  66 100 126 176 222 278 338 406
#     4  12  26  47  72  99 142 184 238 289 348 411
#     4  12  28  45  72 103 140 188 232 290 349 410
#     4  10  26  42  66 108 132 178 216 288 340 418
#
# _framework density 19.780660000000001
#
# number of rings (size 3 to 8) (size 9 to 14) (size 15 to 20)
#    0.000    0.800    4.000    2.400    5.600    0.000 
#   14.400    0.000    0.000    0.000    0.000    0.000 
#    0.000    0.000    0.000    0.000    0.000    0.000 
#
# Total GULP energy -111839.475695 kJ/mol
# GULP energy per Si atom -5591.973785 kJ/mol
# Density = 1.973564 g / cm^3
# Si number density = 19.780660 Si / 1000 Ang^3
#
#
#
# Elastic Constant Matrix: (Units=GPa)
#
#
# Indices 1 2 3 4 5 6 
#
# 1 158.5320 63.7270 58.1892 0.0000 -2.3070 0.0000
# 2 63.7270 147.4441 51.9148 0.0000 -1.0646 0.0000
# 3 58.1892 51.9148 124.5308 0.0000 -3.5035 0.0000
# 4 0.0000 0.0000 0.0000 -1.7617 0.0000 17.5003
# 5 -2.3070 -1.0646 -3.5035 0.0000 40.6847 0.0000
# 6 0.0000 0.0000 0.0000 17.5003 0.0000 -15.2565
#
#
#
# Elastic Compliance Matrix: (Units=1/GPa)
#
#
# Indices 1 2 3 4 5 6 
#
# 1 0.008407 -0.002638 -0.002824 0.000000 0.000165 0.000000
# 2 -0.002638 0.008777 -0.002430 0.000000 -0.000129 0.000000
# 3 -0.002824 -0.002430 0.010382 0.000000 0.000670 0.000000
# 4 0.000000 0.000000 0.000000 0.054608 0.000000 0.062639
# 5 0.000165 -0.000129 0.000670 0.000000 0.024643 0.000000
# 6 0.000000 0.000000 0.000000 0.062639 0.000000 0.006306
#
#
# Mechanical properties :
#
#
# Convention : Reuss Voigt Hill
#
# Bulk Modulus (GPa) = 84.87726 86.46321 85.67024
# Shear Modulus (GPa) = 37.64097 21.84503 29.74300
#
# Velocity S-wave (km/s) = 4.36698 3.32680 3.88189
# Velocity P-wave (km/s) = 8.27222 7.65263 7.96845
#
# Compressibility (1/GPa) = 0.01178172
#
# Stress axis : x y z
#
# Youngs Moduli (GPa) = 118.94361 113.93235 96.32457
#
# Poissons Ratio (x) = 0.30058 0.27202
# Poissons Ratio (y) = 0.31380 0.23406
# Poissons Ratio (z) = 0.33590 0.27685
#
# Static dielectric constant tensor:
#      x y z
#    x 1.688410 0.000000 -0.001630 
#    y 0.000000 1.682360 0.000000 
#    z -0.001630 0.000000 1.665880 
# 
# From -- ./inp_files/59969.got.cif
#   From: 2010.05.17/outbox.cif.g08.bks.cpg/sg15_30_cif.got.tgz:59969.got - 2010.06.03 18:47:42.
