data_PCOD9291599
_publ_section_title
;
Structure prediction by ZEFSAII (Michael W. Deem and Ramdas Pophale) SiO2 
 PCOD9291599
Probable space group: C 2/C
;
_chemical_formula_sum "Si O2"
_cell_formula_units_Z 40
_cell_length_a 13.882590
_cell_length_b 13.829890
_cell_length_c 9.646978
_cell_angle_alpha 90.000000
_cell_angle_beta 109.916752
_cell_angle_gamma 90.000000
_cell_volume 1741.387720
_symmetry_space_group_name_H-M "C 2/C"
_symmetry_group_IT_number 15
_symmetry_cell_setting 'monoclinic'
loop_
_space_group_symop_operation_xyz
x,y,z
-x,y,1/2-z
-x,-y,-z
x,-y,1/2+z
1/2+x,1/2+y,z
1/2-x,1/2+y,1/2-z
1/2-x,1/2-y,-z
1/2+x,1/2-y,1/2+z
loop_
_atom_site_type_symbol
_atom_site_label
_atom_site_fract_x
_atom_site_fract_y
_atom_site_fract_z
Si Si1 0.260393 0.149422 0.585171
Si Si2 0.118728 0.384466 0.795130
Si Si3 0.382009 0.016592 0.476163
Si Si4 0.424588 0.507659 0.093099
Si Si5 0.693337 0.316698 0.357112
O O1 0.250000 0.250000 0.500000
O O2 0.363842 0.099688 0.580611
O O3 0.167785 0.079721 0.489882
O O4 0.255870 0.157652 0.748407
O O5 0.167270 0.443739 0.690642
O O6 0.121481 0.271564 0.764525
O O7 0.000000 0.410587 0.750000
O O8 0.161524 0.423075 0.963964
O O9 0.500000 0.000000 0.500000
O O10 0.500000 0.544839 0.250000
O O11 0.375101 0.405058 0.118074
O O12 0.500000 0.500000 0.000000
O O13 0.750000 0.250000 0.500000
#
# Coordination Sequence:
#
# PCOD9291599 Si02
#       5
#     8   8   8   8   8
#     4  12  27  47  76 111 155 200 265 321 383 470
#     4  10  22  42  69 101 144 192 246 307 373 448
#     4  10  23  43  72 107 151 195 246 318 387 452
#     4  12  28  51  78 110 161 212 259 325 395 471
#     4  12  27  46  76 110 150 205 261 314 391 461
#
# _framework density 22.970186999999999
#
# number of rings (size 3 to 8) (size 9 to 14) (size 15 to 20)
#    0.000    0.800    4.000    1.800    8.400    0.000 
#    0.000    3.000    0.000    0.000    0.000    0.000 
#    0.000    0.000    0.000    0.000    0.000    0.000 
#
# Total GULP energy -111636.131115 kJ/mol
# GULP energy per Si atom -5581.806556 kJ/mol
# Density = 2.291791 g / cm^3
# Si number density = 22.970187 Si / 1000 Ang^3
#
#
#
# Elastic Constant Matrix: (Units=GPa)
#
#
# Indices 1 2 3 4 5 6 
#
# 1 104.2331 40.5435 46.0638 0.0000 -27.8735 0.0000
# 2 40.5435 174.5051 52.5008 0.0000 -33.0148 0.0000
# 3 46.0638 52.5008 194.6178 0.0000 -36.2979 0.0000
# 4 0.0000 0.0000 0.0000 42.3487 0.0000 -11.1357
# 5 -27.8735 -33.0148 -36.2979 0.0000 51.3325 0.0000
# 6 0.0000 0.0000 0.0000 -11.1357 0.0000 41.2509
#
#
#
# Elastic Compliance Matrix: (Units=1/GPa)
#
#
# Indices 1 2 3 4 5 6 
#
# 1 0.012080 -0.001472 -0.001630 0.000000 0.004460 0.000000
# 2 -0.001472 0.006925 -0.000965 0.000000 0.002972 0.000000
# 3 -0.001630 -0.000965 0.006340 0.000000 0.002977 0.000000
# 4 0.000000 0.000000 0.000000 0.025418 0.000000 0.006862
# 5 0.004460 0.002972 0.002977 0.000000 0.025919 0.000000
# 6 0.000000 0.000000 0.000000 0.006862 0.000000 0.026094
#
#
# Mechanical properties :
#
#
# Convention : Reuss Voigt Hill
#
# Bulk Modulus (GPa) = 58.11010 83.50803 70.80906
# Shear Modulus (GPa) = 42.86427 49.26961 46.06694
#
# Velocity S-wave (km/s) = 4.32450 4.63637 4.48315
# Velocity P-wave (km/s) = 7.09141 8.06816 7.59550
#
# Compressibility (1/GPa) = 0.01720871
#
# Stress axis : x y z
#
# Youngs Moduli (GPa) = 82.78463 144.39869 157.73471
#
# Poissons Ratio (x) = 0.21260 0.25713
# Poissons Ratio (y) = 0.12189 0.15228
# Poissons Ratio (z) = 0.13495 0.13940
#
# Static dielectric constant tensor:
#      x y z
#    x 1.928690 0.000000 0.114360 
#    y 0.000000 1.942270 0.000000 
#    z 0.114360 0.000000 1.816050 
# 
# From -- ./inp_files/37974.got.cif
#   From: 2010.05.17/outbox.cif.g08.bks.cpg/sg15_19_cif.got.tgz:37974.got - 2010.06.03 18:47:42.
