data_PCOD9291249
_publ_section_title
;
Structure prediction by ZEFSAII (Michael W. Deem and Ramdas Pophale) SiO2 
 PCOD9291249
Probable space group: C 2/C
;
_chemical_formula_sum "Si O2"
_cell_formula_units_Z 28
_cell_length_a 12.564569
_cell_length_b 11.748222
_cell_length_c 10.579230
_cell_angle_alpha 90.000000
_cell_angle_beta 45.441879
_cell_angle_gamma 90.000000
_cell_volume 1112.711270
_symmetry_space_group_name_H-M "C 2/C"
_symmetry_group_IT_number 15
_symmetry_cell_setting 'monoclinic'
loop_
_space_group_symop_operation_xyz
x,y,z
-x,y,1/2-z
-x,-y,-z
x,-y,1/2+z
1/2+x,1/2+y,z
1/2-x,1/2+y,1/2-z
1/2-x,1/2-y,-z
1/2+x,1/2-y,1/2+z
loop_
_atom_site_type_symbol
_atom_site_label
_atom_site_fract_x
_atom_site_fract_y
_atom_site_fract_z
Si Si1 0.276747 0.847045 0.869932
Si Si2 0.757850 0.401191 0.376444
Si Si3 0.000000 0.224509 0.250000
Si Si4 0.541838 0.655268 0.858501
O O1 0.407298 0.787359 0.683211
O O2 0.310809 0.975480 0.879238
O O3 0.250000 0.750000 0.000000
O O4 0.114713 0.857211 0.940351
O O5 0.619238 0.351737 0.573879
O O6 0.681191 0.409091 0.302064
O O7 0.891640 0.311859 0.265645
O O8 0.500000 0.618924 0.750000
#
# Coordination Sequence:
#
# PCOD9291249 Si02
#       4
#     8   8   4   8
#     4  10  23  40  69 100 138 179 228 280 342 407
#     4  11  23  46  68 102 143 178 234 282 341 420
#     4  10  26  42  70 100 142 190 222 286 352 396
#     4  10  22  42  66 104 132 179 229 275 347 401
#
# _framework density 25.16376
#
# number of rings (size 3 to 8) (size 9 to 14) (size 15 to 20)
#    0.000    1.714    0.000    2.571   12.000    0.000 
#   10.286    2.857    0.000    0.000    0.000    0.000 
#    0.000    0.000    0.000    0.000    0.000    0.000 
#
# Total GULP energy -78160.917059 kJ/mol
# GULP energy per Si atom -5582.922647 kJ/mol
# Density = 2.510649 g / cm^3
# Si number density = 25.163760 Si / 1000 Ang^3
#
#
#
# Elastic Constant Matrix: (Units=GPa)
#
#
# Indices 1 2 3 4 5 6 
#
# 1 126.4731 30.1658 14.8121 0.0000 -12.3215 0.0000
# 2 30.1658 204.8930 46.5375 0.0000 7.1922 0.0000
# 3 14.8121 46.5375 87.1656 0.0000 -17.1855 0.0000
# 4 0.0000 0.0000 0.0000 34.1380 0.0000 2.4720
# 5 -12.3215 7.1922 -17.1855 0.0000 33.3110 0.0000
# 6 0.0000 0.0000 0.0000 2.4720 0.0000 10.4407
#
#
#
# Elastic Compliance Matrix: (Units=1/GPa)
#
#
# Indices 1 2 3 4 5 6 
#
# 1 0.008575 -0.001373 -0.000045 0.000000 0.003445 0.000000
# 2 -0.001373 0.006065 -0.003744 0.000000 -0.003749 0.000000
# 3 -0.000045 -0.003744 0.015179 0.000000 0.008623 0.000000
# 4 0.000000 0.000000 0.000000 0.029804 0.000000 -0.007056
# 5 0.003445 -0.003749 0.008623 0.000000 0.036552 0.000000
# 6 0.000000 0.000000 0.000000 -0.007056 0.000000 0.097449
#
#
# Mechanical properties :
#
#
# Convention : Reuss Voigt Hill
#
# Bulk Modulus (GPa) = 51.29414 66.84026 59.06720
# Shear Modulus (GPa) = 23.75904 37.37904 30.56904
#
# Velocity S-wave (km/s) = 3.07608 3.85831 3.48919
# Velocity P-wave (km/s) = 5.74846 6.81678 6.30529
#
# Compressibility (1/GPa) = 0.01949541
#
# Stress axis : x y z
#
# Youngs Moduli (GPa) = 116.61441 164.88926 65.88137
#
# Poissons Ratio (x) = 0.22644 0.00295
# Poissons Ratio (y) = 0.16015 0.24664
# Poissons Ratio (z) = 0.00521 0.61729
#
# Static dielectric constant tensor:
#      x y z
#    x 2.110930 0.000000 0.110440 
#    y 0.000000 1.990400 0.000000 
#    z 0.110440 0.000000 2.133190 
# 
# From -- ./inp_files/150515.got.cif
#   From: 2010.05.17/outbox.cif.g08.bks.cpg/sg15_76_cif.got.tgz:150515.got - 2010.06.03 18:47:42.
