data_PCOD9291114
_publ_section_title
;
Structure prediction by ZEFSAII (Michael W. Deem and Ramdas Pophale) SiO2 
 PCOD9291114
Probable space group: C 2/C
;
_chemical_formula_sum "Si O2"
_cell_formula_units_Z 24
_cell_length_a 9.048905
_cell_length_b 21.333175
_cell_length_c 10.828542
_cell_angle_alpha 90.000000
_cell_angle_beta 28.443770
_cell_angle_gamma 90.000000
_cell_volume 995.631205
_symmetry_space_group_name_H-M "C 2/C"
_symmetry_group_IT_number 15
_symmetry_cell_setting 'monoclinic'
loop_
_space_group_symop_operation_xyz
x,y,z
-x,y,1/2-z
-x,-y,-z
x,-y,1/2+z
1/2+x,1/2+y,z
1/2-x,1/2+y,1/2-z
1/2-x,1/2-y,-z
1/2+x,1/2-y,1/2+z
loop_
_atom_site_type_symbol
_atom_site_label
_atom_site_fract_x
_atom_site_fract_y
_atom_site_fract_z
Si Si1 0.124515 0.837831 0.031291
Si Si2 0.829314 0.180572 0.490062
Si Si3 0.848498 0.976600 0.236410
O O1 0.500000 0.847397 0.750000
O O2 0.000000 0.804597 0.250000
O O3 0.020970 0.810926 0.974861
O O4 0.925979 0.902506 0.179924
O O5 0.500000 0.147399 0.750000
O O6 0.750000 0.250000 0.500000
O O7 0.000000 0.148970 0.250000
O O8 0.000000 0.001331 0.250000
O O9 0.500000 0.000000 0.500000
O O10 0.000000 0.000000 0.000000
#
# Coordination Sequence:
#
# PCOD9291114 Si02
#       3
#     8   8   8
#     4  11  23  42  65  93 130 175 219 268 326 392
#     4  10  22  42  64  95 130 165 217 274 325 389
#     4  11  23  40  61  92 128 168 214 264 320 385
#
# _framework density 24.105311
#
# number of rings (size 3 to 8) (size 9 to 14) (size 15 to 20)
#    0.000    1.333    0.000    7.000    0.000    4.000 
#    0.000   20.000    0.000    0.000    0.000    0.000 
#    0.000    0.000    0.000    0.000    0.000    0.000 
#
# Total GULP energy -67046.966359 kJ/mol
# GULP energy per Si atom -5587.247197 kJ/mol
# Density = 2.405045 g / cm^3
# Si number density = 24.105311 Si / 1000 Ang^3
#
#
#
# Elastic Constant Matrix: (Units=GPa)
#
#
# Indices 1 2 3 4 5 6 
#
# 1 276.6524 33.7439 121.4952 -0.0003 9.1373 0.0001
# 2 33.7439 72.3197 8.1588 0.0000 0.7417 0.0000
# 3 121.4952 8.1588 276.0838 -0.0004 -1.8375 0.0002
# 4 -0.0003 0.0000 -0.0004 8.2788 0.0003 9.2902
# 5 9.1373 0.7417 -1.8375 0.0003 69.9205 -0.0002
# 6 0.0001 0.0000 0.0002 9.2902 -0.0002 29.1769
#
#
#
# Elastic Compliance Matrix: (Units=1/GPa)
#
#
# Indices 1 2 3 4 5 6 
#
# 1 0.004779 -0.001992 -0.002049 0.000000 -0.000657 0.000000
# 2 -0.001992 0.014706 0.000443 0.000000 0.000116 0.000000
# 3 -0.002049 0.000443 0.004513 0.000000 0.000382 0.000000
# 4 0.000000 0.000000 0.000000 0.187946 -0.000001 -0.059844
# 5 -0.000657 0.000116 0.000382 -0.000001 0.014397 0.000000
# 6 0.000000 0.000000 0.000000 -0.059844 0.000000 0.053329
#
#
# Mechanical properties :
#
#
# Convention : Reuss Voigt Hill
#
# Bulk Modulus (GPa) = 59.51568 105.76131 82.63850
# Shear Modulus (GPa) = 17.09605 52.25244 34.67425
#
# Velocity S-wave (km/s) = 2.66601 4.66088 3.79680
# Velocity P-wave (km/s) = 5.84981 8.54020 7.31968
#
# Compressibility (1/GPa) = 0.01680229
#
# Stress axis : x y z
#
# Youngs Moduli (GPa) = 209.24995 68.00037 221.57957
#
# Poissons Ratio (x) = 0.13546 0.45392
# Poissons Ratio (y) = 0.41682 -0.09811
# Poissons Ratio (z) = 0.42866 -0.03011
#
# Static dielectric constant tensor:
#      x y z
#    x 1.916000 0.000000 0.048920 
#    y 0.000000 0.343410 0.000100 
#    z 0.048920 0.000100 1.447260 
# 
# From -- ./inp_files/25228.got.cif
#   From: 2010.05.17/outbox.cif.g08.bks.cpg/sg15_13_cif.got.tgz:25228.got - 2010.06.03 18:47:42.
