data_PCOD9291253
_publ_section_title
;
Structure prediction by ZEFSAII (Michael W. Deem and Ramdas Pophale) SiO2 
 PCOD9291253
Probable space group: C 2/C
;
_chemical_formula_sum "Si O2"
_cell_formula_units_Z 60
_cell_length_a 22.854441
_cell_length_b 5.471631
_cell_length_c 29.451581
_cell_angle_alpha 90.000000
_cell_angle_beta 129.918154
_cell_angle_gamma 90.000000
_cell_volume 2824.683495
_symmetry_space_group_name_H-M "C 2/C"
_symmetry_group_IT_number 15
_symmetry_cell_setting 'monoclinic'
loop_
_space_group_symop_operation_xyz
x,y,z
-x,y,1/2-z
-x,-y,-z
x,-y,1/2+z
1/2+x,1/2+y,z
1/2-x,1/2+y,1/2-z
1/2-x,1/2-y,-z
1/2+x,1/2-y,1/2+z
loop_
_atom_site_type_symbol
_atom_site_label
_atom_site_fract_x
_atom_site_fract_y
_atom_site_fract_z
Si Si1 0.744158 0.507509 0.633348
Si Si2 0.430196 0.532581 0.429887
Si Si3 0.500000 0.327107 0.750000
Si Si4 0.783126 0.354275 0.248657
Si Si5 0.065518 0.530178 0.125852
Si Si6 0.048284 0.464947 0.354311
Si Si7 0.703734 0.719264 0.431702
Si Si8 0.857823 0.842221 0.158335
O O1 0.654900 0.444721 0.591040
O O2 0.767696 0.678073 0.687284
O O3 0.765125 0.620267 0.594847
O O4 0.803142 0.282056 0.667564
O O5 0.500000 0.500000 0.500000
O O6 0.425325 0.282251 0.397530
O O7 0.444504 0.786183 0.409836
O O8 0.507187 0.173897 0.707601
O O9 0.580079 0.468979 0.792286
O O10 0.728371 0.585682 0.234949
O O11 0.863082 0.462549 0.306308
O O12 0.993560 0.564413 0.122988
O O13 0.116974 0.285638 0.401025
O O14 0.088171 0.660067 0.342032
O O15 0.750000 0.750000 0.500000
O O16 0.699109 0.453671 0.407400
#
# Coordination Sequence:
#
# PCOD9291253 Si02
#       8
#     8   8   4   8   8   8   8   8
#     4  11  26  45  72 106 142 193 242 302 371 433
#     4  12  29  50  75 109 145 198 245 301 370 440
#     4  10  22  42  66 106 140 182 234 296 374 436
#     4  12  25  46  71 105 150 185 247 293 365 441
#     4  12  27  47  74 108 145 192 241 305 367 438
#     4  10  25  42  65 106 136 183 238 289 369 421
#     4  10  25  45  71 101 138 190 244 298 358 431
#     4  10  24  42  70  98 143 183 239 297 370 427
#
# _framework density 21.241316999999999
#
# number of rings (size 3 to 8) (size 9 to 14) (size 15 to 20)
#    0.000    1.067    2.667    0.800   16.800    3.200 
#    0.000    0.000    0.000    0.000    0.000    0.000 
#    0.000    0.000    0.000    0.000    0.000    0.000 
#
# Total GULP energy -167446.399618 kJ/mol
# GULP energy per Si atom -5581.546654 kJ/mol
# Density = 2.119297 g / cm^3
# Si number density = 21.241317 Si / 1000 Ang^3
#
#
#
# Elastic Constant Matrix: (Units=GPa)
#
#
# Indices 1 2 3 4 5 6 
#
# 1 124.4555 31.3980 29.9323 -0.0015 2.9518 -0.0035
# 2 31.3980 95.6008 24.1806 -0.0062 -3.6248 -0.0062
# 3 29.9323 24.1806 128.7592 -0.0017 -1.3715 -0.0006
# 4 -0.0015 -0.0062 -0.0017 24.0289 0.0025 -5.0488
# 5 2.9518 -3.6248 -1.3715 0.0025 21.1165 -0.0009
# 6 -0.0035 -0.0062 -0.0006 -5.0488 -0.0009 10.3406
#
#
#
# Elastic Compliance Matrix: (Units=1/GPa)
#
#
# Indices 1 2 3 4 5 6 
#
# 1 0.009145 -0.002657 -0.001647 0.000000 -0.001841 0.000001
# 2 -0.002657 0.011819 -0.001577 0.000004 0.002298 0.000008
# 3 -0.001647 -0.001577 0.008451 0.000000 0.000508 -0.000001
# 4 0.000000 0.000004 0.000000 0.046374 -0.000004 0.022642
# 5 -0.001841 0.002298 0.000508 -0.000004 0.048041 0.000003
# 6 0.000001 0.000008 -0.000001 0.022642 0.000003 0.107761
#
#
# Mechanical properties :
#
#
# Convention : Reuss Voigt Hill
#
# Bulk Modulus (GPa) = 56.64759 57.75971 57.20365
# Shear Modulus (GPa) = 20.06121 28.65084 24.35603
#
# Velocity S-wave (km/s) = 3.07651 3.67662 3.38987
# Velocity P-wave (km/s) = 6.27267 6.72864 6.50465
#
# Compressibility (1/GPa) = 0.01765300
#
# Stress axis : x y z
#
# Youngs Moduli (GPa) = 109.34996 84.61064 118.33113
#
# Poissons Ratio (x) = 0.22479 0.19484
# Poissons Ratio (y) = 0.29052 0.18666
# Poissons Ratio (z) = 0.18005 0.13347
#
# Static dielectric constant tensor:
#      x y z
#    x 1.789640 0.000000 -0.009100 
#    y 0.000000 1.867080 0.000000 
#    z -0.009100 0.000000 1.764890 
# 
# From -- ./inp_files/300136.got.cif
#   From: 2010.05.17/outbox.cif.g08.bks.cpg/sg15_151_cif.got.tgz:300136.got - 2010.06.03 18:47:42.
