data_PCOD9291940
_publ_section_title
;
Structure prediction by ZEFSAII (Michael W. Deem and Ramdas Pophale) SiO2 
 PCOD9291940
Probable space group: C 2/C
;
_chemical_formula_sum "Si O2"
_cell_formula_units_Z 56
_cell_length_a 23.450698
_cell_length_b 12.907264
_cell_length_c 26.989676
_cell_angle_alpha 90.000000
_cell_angle_beta 161.593468
_cell_angle_gamma 90.000000
_cell_volume 2579.531977
_symmetry_space_group_name_H-M "C 2/C"
_symmetry_group_IT_number 15
_symmetry_cell_setting 'monoclinic'
loop_
_space_group_symop_operation_xyz
x,y,z
-x,y,1/2-z
-x,-y,-z
x,-y,1/2+z
1/2+x,1/2+y,z
1/2-x,1/2+y,1/2-z
1/2-x,1/2-y,-z
1/2+x,1/2-y,1/2+z
loop_
_atom_site_type_symbol
_atom_site_label
_atom_site_fract_x
_atom_site_fract_y
_atom_site_fract_z
Si Si1 0.754958 0.859324 0.109944
Si Si2 0.346302 0.138091 0.583877
Si Si3 0.564274 0.813838 0.854466
Si Si4 0.566701 0.918942 0.596016
Si Si5 0.431053 0.896296 0.331221
Si Si6 0.986545 0.066829 0.297688
Si Si7 0.277539 0.794420 0.857938
O O1 0.897564 0.765308 0.226765
O O2 0.874348 0.962647 0.213249
O O3 0.630050 0.871054 0.957916
O O4 0.607817 0.852722 0.031748
O O5 0.500000 0.150863 0.750000
O O6 0.250000 0.250000 0.500000
O O7 0.435147 0.101147 0.605744
O O8 0.197090 0.060262 0.483304
O O9 0.500000 0.867162 0.750000
O O10 0.750000 0.750000 0.000000
O O11 0.708412 0.846360 0.684809
O O12 0.500000 0.000000 0.500000
O O13 0.618186 0.994057 0.684342
O O14 0.545642 0.829378 0.465972
O O15 0.258975 0.827131 0.175242
O O16 0.887560 0.155170 0.247282
O O17 0.000000 0.088809 0.250000
#
# Coordination Sequence:
#
# PCOD9291940 Si02
#       7
#     8   8   8   8   8   8   8
#     4  11  21  41  69  93 136 178 218 276 330 398
#     4  12  23  37  65 100 134 170 216 268 343 407
#     4   9  20  38  66 101 130 167 219 274 333 394
#     4  10  22  43  63  90 127 178 229 262 332 391
#     4  11  22  41  64  95 129 170 219 275 331 391
#     4  12  21  39  66  97 130 173 213 268 346 398
#     4  11  23  40  69  90 130 174 219 272 326 396
#
# _framework density 21.709364000000001
#
# number of rings (size 3 to 8) (size 9 to 14) (size 15 to 20)
#    0.000    1.143    5.714    2.571    0.000    2.286 
#    0.000   11.429    0.000    0.000    0.000    0.000 
#    0.000    0.000    0.000    0.000    0.000    0.000 
#
# Total GULP energy -156286.584754 kJ/mol
# GULP energy per Si atom -5581.663741 kJ/mol
# Density = 2.165995 g / cm^3
# Si number density = 21.709364 Si / 1000 Ang^3
#
#
#
# Elastic Constant Matrix: (Units=GPa)
#
#
# Indices 1 2 3 4 5 6 
#
# 1 112.4330 20.8692 18.0846 -0.0085 23.7042 -0.0043
# 2 20.8692 59.4537 12.6430 -0.0055 7.9920 -0.0031
# 3 18.0846 12.6430 105.4098 0.0016 -5.1417 0.0005
# 4 -0.0085 -0.0055 0.0016 36.9134 0.0126 -0.2074
# 5 23.7042 7.9920 -5.1417 0.0126 30.5507 0.0031
# 6 -0.0043 -0.0031 0.0005 -0.2074 0.0031 30.5357
#
#
#
# Elastic Compliance Matrix: (Units=1/GPa)
#
#
# Indices 1 2 3 4 5 6 
#
# 1 0.011507 -0.002429 -0.002105 0.000005 -0.008647 0.000002
# 2 -0.002429 0.018534 -0.001967 0.000003 -0.003295 0.000002
# 3 -0.002105 -0.001967 0.010273 -0.000003 0.003876 -0.000001
# 4 0.000005 0.000003 -0.000003 0.027091 -0.000017 0.000184
# 5 -0.008647 -0.003295 0.003876 -0.000017 0.040956 -0.000006
# 6 0.000002 0.000002 -0.000001 0.000184 -0.000006 0.032750
#
#
# Mechanical properties :
#
#
# Convention : Reuss Voigt Hill
#
# Bulk Modulus (GPa) = 36.61411 42.27667 39.44539
# Shear Modulus (GPa) = 30.63446 34.64663 32.64054
#
# Velocity S-wave (km/s) = 3.76056 3.99924 3.88174
# Velocity P-wave (km/s) = 5.97979 6.39073 6.18868
#
# Compressibility (1/GPa) = 0.02731187
#
# Stress axis : x y z
#
# Youngs Moduli (GPa) = 86.90708 53.95603 97.34401
#
# Poissons Ratio (x) = 0.13107 0.20486
# Poissons Ratio (y) = 0.21111 0.19147
# Poissons Ratio (z) = 0.18290 0.10613
#
# Static dielectric constant tensor:
#      x y z
#    x 1.885100 -0.000010 -0.030810 
#    y -0.000010 1.821240 -0.000010 
#    z -0.030810 -0.000010 1.834610 
# 
# From -- ./inp_files/302307.got.cif
#   From: 2010.05.17/outbox.cif.g08.bks.cpg/sg15_152_cif.got.tgz:302307.got - 2010.06.03 18:47:42.
