data_PCOD9291383
_publ_section_title
;
Structure prediction by ZEFSAII (Michael W. Deem and Ramdas Pophale) SiO2 
 PCOD9291383
Probable space group: C 2/C
;
_chemical_formula_sum "Si O2"
_cell_formula_units_Z 40
_cell_length_a 14.526493
_cell_length_b 13.040410
_cell_length_c 10.801711
_cell_angle_alpha 90.000000
_cell_angle_beta 48.491136
_cell_angle_gamma 90.000000
_cell_volume 1532.291065
_symmetry_space_group_name_H-M "C 2/C"
_symmetry_group_IT_number 15
_symmetry_cell_setting 'monoclinic'
loop_
_space_group_symop_operation_xyz
x,y,z
-x,y,1/2-z
-x,-y,-z
x,-y,1/2+z
1/2+x,1/2+y,z
1/2-x,1/2+y,1/2-z
1/2-x,1/2-y,-z
1/2+x,1/2-y,1/2+z
loop_
_atom_site_type_symbol
_atom_site_label
_atom_site_fract_x
_atom_site_fract_y
_atom_site_fract_z
Si Si1 0.084426 0.060121 0.518250
Si Si2 0.919302 0.603078 0.946202
Si Si3 0.500000 0.388151 0.750000
Si Si4 0.796968 0.203266 0.262182
Si Si5 0.127477 0.378100 0.465524
Si Si6 0.000000 0.761105 0.250000
O O1 0.198180 0.113673 0.348160
O O2 0.003023 0.156868 0.636940
O O3 0.099488 0.971150 0.607131
O O4 0.000000 0.000000 0.500000
O O5 0.000000 0.600176 0.750000
O O6 0.002648 0.617830 0.994433
O O7 0.815589 0.688548 0.046141
O O8 0.849620 0.494368 0.021270
O O9 0.574796 0.318228 0.780140
O O10 0.787570 0.311093 0.199733
O O11 0.106815 0.314662 0.610197
#
# Coordination Sequence:
#
# PCOD9291383 Si02
#       6
#     8   8   4   8   8   4
#     4   8  16  34  61  97 138 173 217 284 348 400
#     4  11  25  46  69  99 144 187 230 292 352 419
#     4   9  18  36  65 100 142 170 221 296 343 410
#     4  10  22  42  67 104 130 185 232 283 350 420
#     4  10  23  45  67  98 140 185 236 284 351 428
#     4   9  16  38  67  90 134 180 233 276 337 420
#
# _framework density 26.104702
#
# number of rings (size 3 to 8) (size 9 to 14) (size 15 to 20)
#    0.000    2.400    1.000    0.000    1.400    4.000 
#   21.600    2.000    0.000    0.000    0.000    0.000 
#    0.000    0.000    0.000    0.000    0.000    0.000 
#
# Total GULP energy -111706.276049 kJ/mol
# GULP energy per Si atom -5585.313802 kJ/mol
# Density = 2.604529 g / cm^3
# Si number density = 26.104702 Si / 1000 Ang^3
#
#
#
# Elastic Constant Matrix: (Units=GPa)
#
#
# Indices 1 2 3 4 5 6 
#
# 1 80.4144 0.2616 35.7023 0.0000 -2.1077 0.0000
# 2 0.2616 133.8715 83.9942 0.0000 4.2179 0.0000
# 3 35.7023 83.9942 156.7191 0.0000 5.8184 0.0000
# 4 0.0000 0.0000 0.0000 -19.1395 0.0000 42.3172
# 5 -2.1077 4.2179 5.8184 0.0000 23.0516 0.0000
# 6 0.0000 0.0000 0.0000 42.3172 0.0000 4.3235
#
#
#
# Elastic Compliance Matrix: (Units=1/GPa)
#
#
# Indices 1 2 3 4 5 6 
#
# 1 0.014744 0.003106 -0.005100 0.000000 0.002067 0.000000
# 2 0.003106 0.011915 -0.007090 0.000000 -0.000107 0.000000
# 3 -0.005100 -0.007090 0.011419 0.000000 -0.002051 0.000000
# 4 0.000000 0.000000 0.000000 -0.002308 0.000000 0.022587
# 5 0.002067 -0.000107 -0.002051 0.000000 0.044107 0.000000
# 6 0.000000 0.000000 0.000000 0.022587 0.000000 0.010216
#
#
# Mechanical properties :
#
#
# Convention : Reuss Voigt Hill
#
# Bulk Modulus (GPa) = 50.22536 67.88014 59.05275
# Shear Modulus (GPa) = 43.51673 18.38359 30.95016
#
# Velocity S-wave (km/s) = 4.08733 2.65660 3.44701
# Velocity P-wave (km/s) = 6.44645 5.95563 6.20590
#
# Compressibility (1/GPa) = 0.01991026
#
# Stress axis : x y z
#
# Youngs Moduli (GPa) = 67.82376 83.92484 87.57567
#
# Poissons Ratio (x) = -0.26068 0.44667
# Poissons Ratio (y) = -0.21067 0.62089
# Poissons Ratio (z) = 0.34592 0.59501
#
# Static dielectric constant tensor:
#      x y z
#    x 2.046050 0.000000 0.067740 
#    y 0.000000 2.059350 0.000000 
#    z 0.067740 0.000000 2.131090 
# 
# From -- ./inp_files/105170.got.cif
#   From: 2010.05.17/outbox.cif.g08.bks.cpg/sg15_53_cif.got.tgz:105170.got - 2010.06.03 18:47:42.
