data_PCOD9291555
_publ_section_title
;
Structure prediction by ZEFSAII (Michael W. Deem and Ramdas Pophale) SiO2 
 PCOD9291555
Probable space group: C 2/C
;
_chemical_formula_sum "Si O2"
_cell_formula_units_Z 48
_cell_length_a 11.736066
_cell_length_b 9.662880
_cell_length_c 18.780961
_cell_angle_alpha 90.000000
_cell_angle_beta 105.047105
_cell_angle_gamma 90.000000
_cell_volume 2056.813385
_symmetry_space_group_name_H-M "C 2/C"
_symmetry_group_IT_number 15
_symmetry_cell_setting 'monoclinic'
loop_
_space_group_symop_operation_xyz
x,y,z
-x,y,1/2-z
-x,-y,-z
x,-y,1/2+z
1/2+x,1/2+y,z
1/2-x,1/2+y,1/2-z
1/2-x,1/2-y,-z
1/2+x,1/2-y,1/2+z
loop_
_atom_site_type_symbol
_atom_site_label
_atom_site_fract_x
_atom_site_fract_y
_atom_site_fract_z
Si Si1 0.000000 0.527064 0.250000
Si Si2 0.293646 0.167627 0.881395
Si Si3 0.980003 0.797839 0.515785
Si Si4 0.401963 0.865828 0.878033
Si Si5 0.800632 0.710514 0.725734
Si Si6 0.415548 0.466462 0.089464
Si Si7 0.500000 0.440879 0.750000
O O1 0.985284 0.614763 0.321116
O O2 0.884426 0.423841 0.225072
O O3 0.246283 0.208868 0.796235
O O4 0.345160 0.016275 0.874712
O O5 0.193945 0.137068 0.922788
O O6 0.398454 0.267495 0.923004
O O7 0.948071 0.662935 0.465382
O O8 0.894285 0.876504 0.557465
O O9 0.997482 0.900530 0.452648
O O10 0.303234 0.750128 0.844568
O O11 0.888812 0.840495 0.740743
O O12 0.475513 0.474303 0.175508
#
# Coordination Sequence:
#
# PCOD9291555 Si02
#       7
#     4   8   8   8   8   8   4
#     4   9  24  41  64 104 136 173 229 294 332 384
#     4  11  23  44  65  94 134 174 222 282 339 392
#     4  11  26  43  61  99 140 168 226 280 334 412
#     4  11  24  41  69  99 129 181 226 274 345 404
#     4  10  22  42  68  97 133 172 230 281 333 403
#     4  11  25  42  67  95 129 184 217 273 348 391
#     4  11  20  45  70  88 132 173 227 278 326 410
#
# _framework density 23.337071000000002
#
# number of rings (size 3 to 8) (size 9 to 14) (size 15 to 20)
#    0.000    1.333    3.333    1.000    4.667    2.000 
#    0.000    0.000    0.000    0.000    0.000    0.000 
#    0.000    0.000    0.000    0.000    0.000    0.000 
#
# Total GULP energy -133935.673751 kJ/mol
# GULP energy per Si atom -5580.653073 kJ/mol
# Density = 2.328395 g / cm^3
# Si number density = 23.337071 Si / 1000 Ang^3
#
#
#
# Elastic Constant Matrix: (Units=GPa)
#
#
# Indices 1 2 3 4 5 6 
#
# 1 58.2254 19.7733 22.1966 0.0000 -7.1155 0.0000
# 2 19.7733 54.3892 13.6943 0.0000 1.9826 0.0000
# 3 22.1966 13.6943 98.3395 0.0000 -2.2260 0.0000
# 4 0.0000 0.0000 0.0000 16.8700 0.0000 -5.5181
# 5 -7.1155 1.9826 -2.2260 0.0000 21.8765 0.0000
# 6 0.0000 0.0000 0.0000 -5.5181 0.0000 30.1388
#
#
#
# Elastic Compliance Matrix: (Units=1/GPa)
#
#
# Indices 1 2 3 4 5 6 
#
# 1 0.022011 -0.007322 -0.003780 0.000000 0.007438 0.000000
# 2 -0.007322 0.021577 -0.001454 0.000000 -0.004485 0.000000
# 3 -0.003780 -0.001454 0.011226 0.000000 0.000044 0.000000
# 4 0.000000 0.000000 0.000000 0.063053 0.000000 0.011544
# 5 0.007438 -0.004485 0.000044 0.000000 0.048541 0.000000
# 6 0.000000 0.000000 0.000000 0.011544 0.000000 0.035293
#
#
# Mechanical properties :
#
#
# Convention : Reuss Voigt Hill
#
# Bulk Modulus (GPa) = 33.66674 35.80918 34.73796
# Shear Modulus (GPa) = 21.12256 24.12971 22.62614
#
# Velocity S-wave (km/s) = 3.01176 3.21902 3.11712
# Velocity P-wave (km/s) = 5.15285 5.40313 5.27947
#
# Compressibility (1/GPa) = 0.02970291
#
# Stress axis : x y z
#
# Youngs Moduli (GPa) = 45.43159 46.34511 89.08238
#
# Poissons Ratio (x) = 0.33932 0.33676
# Poissons Ratio (y) = 0.33263 0.12950
# Poissons Ratio (z) = 0.17174 0.06737
#
# Static dielectric constant tensor:
#      x y z
#    x 2.087440 0.000000 -0.039320 
#    y 0.000000 2.029320 0.000000 
#    z -0.039320 0.000000 1.936640 
# 
# From -- ./inp_files/196641.got.cif
#   From: 2010.05.17/outbox.cif.g08.bks.cpg/sg15_99_cif.got.tgz:196641.got - 2010.06.03 18:47:42.
