data_PCOD9291138
_publ_section_title
;
Structure prediction by ZEFSAII (Michael W. Deem and Ramdas Pophale) SiO2 
 PCOD9291138
Probable space group: C 2/C
;
_chemical_formula_sum "Si O2"
_cell_formula_units_Z 56
_cell_length_a 19.382039
_cell_length_b 20.191143
_cell_length_c 16.631515
_cell_angle_alpha 90.000000
_cell_angle_beta 156.671371
_cell_angle_gamma 90.000000
_cell_volume 2577.461352
_symmetry_space_group_name_H-M "C 2/C"
_symmetry_group_IT_number 15
_symmetry_cell_setting 'monoclinic'
loop_
_space_group_symop_operation_xyz
x,y,z
-x,y,1/2-z
-x,-y,-z
x,-y,1/2+z
1/2+x,1/2+y,z
1/2-x,1/2+y,1/2-z
1/2-x,1/2-y,-z
1/2+x,1/2-y,1/2+z
loop_
_atom_site_type_symbol
_atom_site_label
_atom_site_fract_x
_atom_site_fract_y
_atom_site_fract_z
Si Si1 0.825790 0.424859 0.159662
Si Si2 0.265569 0.439742 0.892219
Si Si3 0.015819 0.124435 0.446801
Si Si4 0.823321 0.180754 0.108211
Si Si5 0.179716 0.536491 0.119827
Si Si6 0.854917 0.908764 0.249883
Si Si7 0.300485 0.826638 0.559754
O O1 0.782901 0.502035 0.097319
O O2 0.016663 0.427173 0.403845
O O3 0.678408 0.399767 0.065964
O O4 0.801881 0.378076 0.056565
O O5 0.167559 0.456040 0.703534
O O6 0.230976 0.367316 0.891484
O O7 0.468307 0.445167 0.087707
O O8 0.093414 0.135666 0.617732
O O9 0.898176 0.181089 0.278716
O O10 0.865367 0.069429 0.296026
O O11 0.000000 0.166878 0.250000
O O12 0.750000 0.250000 0.000000
O O13 0.208438 0.461149 0.121048
O O14 0.802843 0.865293 0.119269
O O15 0.500000 0.832530 0.750000
O O16 0.250000 0.750000 0.500000
#
# Coordination Sequence:
#
# PCOD9291138 Si02
#       7
#     8   8   8   8   8   8   8
#     4  11  22  39  68  99 134 176 225 285 350 411
#     4  11  22  43  69 102 137 175 225 289 347 413
#     4  10  22  42  64  98 133 173 222 283 342 407
#     4  10  25  44  63  93 136 179 227 283 342 417
#     4  11  22  39  72 104 135 172 225 287 344 410
#     4  11  22  44  71 101 141 174 227 291 349 415
#     4  12  28  47  67 100 138 190 237 288 356 426
#
# _framework density 21.726804999999999
#
# number of rings (size 3 to 8) (size 9 to 14) (size 15 to 20)
#    0.000    1.143    2.857    3.429    6.000    1.143 
#    2.571    1.429    0.000    0.000    0.000    0.000 
#    0.000    0.000    0.000    0.000    0.000    0.000 
#
# Total GULP energy -156340.793464 kJ/mol
# GULP energy per Si atom -5583.599767 kJ/mol
# Density = 2.167735 g / cm^3
# Si number density = 21.726805 Si / 1000 Ang^3
#
#
#
# Elastic Constant Matrix: (Units=GPa)
#
#
# Indices 1 2 3 4 5 6 
#
# 1 74.5343 29.1208 35.1233 0.0000 -2.4534 0.0000
# 2 29.1208 97.4799 39.0256 0.0000 -17.2089 0.0000
# 3 35.1233 39.0256 140.8035 0.0000 -3.4315 0.0000
# 4 0.0000 0.0000 0.0000 28.3573 0.0000 1.9466
# 5 -2.4534 -17.2089 -3.4315 0.0000 43.1512 0.0000
# 6 0.0000 0.0000 0.0000 1.9466 0.0000 23.0381
#
#
#
# Elastic Compliance Matrix: (Units=1/GPa)
#
#
# Indices 1 2 3 4 5 6 
#
# 1 0.016305 -0.003803 -0.003033 0.000000 -0.000831 0.000000
# 2 -0.003803 0.013305 -0.002620 0.000000 0.004882 0.000000
# 3 -0.003033 -0.002620 0.008572 0.000000 -0.000536 0.000000
# 4 0.000000 0.000000 0.000000 0.035470 0.000000 -0.002997
# 5 -0.000831 0.004882 -0.000536 0.000000 0.025031 0.000000
# 6 0.000000 0.000000 0.000000 -0.002997 0.000000 0.043660
#
#
# Mechanical properties :
#
#
# Convention : Reuss Voigt Hill
#
# Bulk Modulus (GPa) = 51.89734 57.70635 54.80184
# Shear Modulus (GPa) = 29.81889 32.87917 31.34903
#
# Velocity S-wave (km/s) = 3.70867 3.89434 3.80264
# Velocity P-wave (km/s) = 6.50209 6.84389 6.67518
#
# Compressibility (1/GPa) = 0.01926881
#
# Stress axis : x y z
#
# Youngs Moduli (GPa) = 61.33240 75.15742 116.66016
#
# Poissons Ratio (x) = 0.28583 0.35387
# Poissons Ratio (y) = 0.23325 0.30567
# Poissons Ratio (z) = 0.18604 0.19692
#
# Static dielectric constant tensor:
#      x y z
#    x 1.872700 0.000000 -0.032540 
#    y 0.000000 1.671970 0.000000 
#    z -0.032540 0.000000 1.851250 
# 
# From -- ./inp_files/216674.got.cif
#   From: 2010.05.17/outbox.cif.g08.bks.cpg/sg15_109_cif.got.tgz:216674.got - 2010.06.03 18:47:42.
