data_PCOD9291618
_publ_section_title
;
Structure prediction by ZEFSAII (Michael W. Deem and Ramdas Pophale) SiO2 
 PCOD9291618
Probable space group: C 2/C
;
_chemical_formula_sum "Si O2"
_cell_formula_units_Z 48
_cell_length_a 15.521313
_cell_length_b 12.087827
_cell_length_c 20.752743
_cell_angle_alpha 90.000000
_cell_angle_beta 142.930748
_cell_angle_gamma 90.000000
_cell_volume 2346.988406
_symmetry_space_group_name_H-M "C 2/C"
_symmetry_group_IT_number 15
_symmetry_cell_setting 'monoclinic'
loop_
_space_group_symop_operation_xyz
x,y,z
-x,y,1/2-z
-x,-y,-z
x,-y,1/2+z
1/2+x,1/2+y,z
1/2-x,1/2+y,1/2-z
1/2-x,1/2-y,-z
1/2+x,1/2-y,1/2+z
loop_
_atom_site_type_symbol
_atom_site_label
_atom_site_fract_x
_atom_site_fract_y
_atom_site_fract_z
Si Si1 0.563406 0.083599 0.715238
Si Si2 0.901773 0.095775 0.913496
Si Si3 0.629517 0.603061 0.375205
Si Si4 0.406296 0.866707 0.631699
Si Si5 0.588867 0.757414 0.471587
Si Si6 0.401704 0.380080 0.079207
O O1 0.500000 0.106113 0.750000
O O2 0.733613 0.076570 0.821333
O O3 0.523917 0.174423 0.638243
O O4 0.483987 0.971059 0.645291
O O5 0.950520 0.098742 0.868671
O O6 0.944788 0.205797 0.979255
O O7 0.000000 0.000000 0.000000
O O8 0.500000 0.633547 0.250000
O O9 0.618522 0.653383 0.441248
O O10 0.773862 0.662738 0.437990
O O11 0.625162 0.470104 0.380698
O O12 0.500000 0.849602 0.750000
O O13 0.404474 0.749217 0.596472
O O14 0.242203 0.896641 0.548831
#
# Coordination Sequence:
#
# PCOD9291618 Si02
#       6
#     8   8   8   8   8   8
#     4  11  22  41  66  95 128 172 214 265 327 396
#     4  12  24  40  64  97 134 169 214 272 333 389
#     4  11  21  39  66  95 126 163 216 267 323 382
#     4  10  22  42  69  87 127 175 220 257 330 401
#     4  11  22  39  63  97 128 167 211 267 326 392
#     4  11  23  43  64  95 128 169 220 270 323 399
#
# _framework density 20.451740999999998
#
# number of rings (size 3 to 8) (size 9 to 14) (size 15 to 20)
#    0.000    1.000    3.333    6.000    0.000    2.667 
#    3.000    0.833    0.000    0.000    0.000    0.000 
#    0.000    0.000    0.000    0.000    0.000    0.000 
#
# Total GULP energy -133803.220225 kJ/mol
# GULP energy per Si atom -5575.134176 kJ/mol
# Density = 2.040519 g / cm^3
# Si number density = 20.451741 Si / 1000 Ang^3
#
#
#
# Elastic Constant Matrix: (Units=GPa)
#
#
# Indices 1 2 3 4 5 6 
#
# 1 53.2067 22.9586 25.1932 0.0000 25.7611 0.0000
# 2 22.9586 124.3092 26.7803 0.0000 8.7603 0.0000
# 3 25.1932 26.7803 129.9561 0.0000 24.4108 0.0000
# 4 0.0000 0.0000 0.0000 31.3729 0.0000 -2.8465
# 5 25.7611 8.7603 24.4108 0.0000 29.3700 0.0000
# 6 0.0000 0.0000 0.0000 -2.8465 0.0000 30.0392
#
#
#
# Elastic Compliance Matrix: (Units=1/GPa)
#
#
# Indices 1 2 3 4 5 6 
#
# 1 0.034871 -0.004307 -0.000437 0.000000 -0.028939 0.000000
# 2 -0.004307 0.008990 -0.001450 0.000000 0.002301 0.000000
# 3 -0.000437 -0.001450 0.009391 0.000000 -0.006990 0.000000
# 4 0.000000 0.000000 0.000000 0.032151 0.000000 0.003047
# 5 -0.028939 0.002301 -0.006990 0.000000 0.064554 0.000000
# 6 0.000000 0.000000 0.000000 0.003047 0.000000 0.033578
#
#
# Mechanical properties :
#
#
# Convention : Reuss Voigt Hill
#
# Bulk Modulus (GPa) = 24.47063 50.81513 37.64288
# Shear Modulus (GPa) = 23.86118 33.65907 28.76013
#
# Velocity S-wave (km/s) = 3.41941 4.06122 3.75406
# Velocity P-wave (km/s) = 5.25175 6.84775 6.10215
#
# Compressibility (1/GPa) = 0.04086532
#
# Stress axis : x y z
#
# Youngs Moduli (GPa) = 28.67711 111.23366 106.48071
#
# Poissons Ratio (x) = 0.47907 0.04651
# Poissons Ratio (y) = 0.12351 0.15439
# Poissons Ratio (z) = 0.01253 0.16128
#
# Static dielectric constant tensor:
#      x y z
#    x 1.756240 0.000000 0.000320 
#    y 0.000000 1.821240 0.000000 
#    z 0.000320 0.000000 1.721200 
# 
# From -- ./inp_files/277287.got.cif
#   From: 2010.05.17/outbox.cif.g08.bks.cpg/sg15_139_cif.got.tgz:277287.got - 2010.06.03 18:47:42.
