data_PCOD9291550
_publ_section_title
;
Structure prediction by ZEFSAII (Michael W. Deem and Ramdas Pophale) SiO2 
 PCOD9291550
Probable space group: C 2/C
;
_chemical_formula_sum "Si O2"
_cell_formula_units_Z 52
_cell_length_a 11.381672
_cell_length_b 8.738432
_cell_length_c 23.896652
_cell_angle_alpha 90.000000
_cell_angle_beta 66.382587
_cell_angle_gamma 90.000000
_cell_volume 2177.641403
_symmetry_space_group_name_H-M "C 2/C"
_symmetry_group_IT_number 15
_symmetry_cell_setting 'monoclinic'
loop_
_space_group_symop_operation_xyz
x,y,z
-x,y,1/2-z
-x,-y,-z
x,-y,1/2+z
1/2+x,1/2+y,z
1/2-x,1/2+y,1/2-z
1/2-x,1/2-y,-z
1/2+x,1/2-y,1/2+z
loop_
_atom_site_type_symbol
_atom_site_label
_atom_site_fract_x
_atom_site_fract_y
_atom_site_fract_z
Si Si1 0.751196 0.091222 0.073291
Si Si2 0.500000 0.297234 0.250000
Si Si3 0.266408 0.517136 0.848416
Si Si4 0.881239 0.878061 0.431756
Si Si5 0.587179 0.388284 0.850703
Si Si6 0.665307 0.023289 0.258355
Si Si7 0.643105 0.808931 0.155793
O O1 0.631125 0.198639 0.079595
O O2 0.822252 0.160038 0.114592
O O3 0.703780 0.923976 0.099331
O O4 0.845851 0.093876 0.002703
O O5 0.600742 0.400732 0.197001
O O6 0.582860 0.178049 0.271163
O O7 0.267096 0.553310 0.914121
O O8 0.165928 0.555315 0.818773
O O9 0.268894 0.333571 0.844907
O O10 0.009781 0.965607 0.390400
O O11 0.686832 0.435640 0.783796
O O12 0.479469 0.277385 0.846547
O O13 0.627632 0.912823 0.214054
#
# Coordination Sequence:
#
# PCOD9291550 Si02
#       7
#     8   4   8   8   8   8   8
#     4  10  22  44  67  97 135 175 219 272 324 385
#     4  12  26  42  62  90 128 168 212 264 328 398
#     4  11  22  40  63  93 130 169 211 267 325 383
#     4  10  22  42  68  96 135 175 219 270 328 389
#     4  10  22  43  67  96 132 172 216 274 330 384
#     4  11  25  43  65  94 130 171 214 269 332 394
#     4  10  23  41  67  98 128 167 222 266 319 391
#
# _framework density 23.879045999999999
#
# number of rings (size 3 to 8) (size 9 to 14) (size 15 to 20)
#    0.000    1.538    0.000    5.077    0.000    9.231 
#    0.000   13.846    0.000    0.000    0.000    0.000 
#    0.000    0.000    0.000    0.000    0.000    0.000 
#
# Total GULP energy -145400.601338 kJ/mol
# GULP energy per Si atom -5592.330821 kJ/mol
# Density = 2.382470 g / cm^3
# Si number density = 23.879046 Si / 1000 Ang^3
#
#
#
# Elastic Constant Matrix: (Units=GPa)
#
#
# Indices 1 2 3 4 5 6 
#
# 1 75.5772 15.6092 21.5561 0.0000 -0.8671 0.0000
# 2 15.6092 98.4733 19.4760 0.0000 -3.3333 0.0000
# 3 21.5561 19.4760 94.3582 0.0000 28.9668 0.0000
# 4 0.0000 0.0000 0.0000 30.2964 0.0000 -0.7516
# 5 -0.8671 -3.3333 28.9668 0.0000 32.3206 0.0000
# 6 0.0000 0.0000 0.0000 -0.7516 0.0000 48.7358
#
#
#
# Elastic Compliance Matrix: (Units=1/GPa)
#
#
# Indices 1 2 3 4 5 6 
#
# 1 0.014810 -0.001336 -0.004397 0.000000 0.004200 0.000000
# 2 -0.001336 0.011140 -0.003222 0.000000 0.004001 0.000000
# 3 -0.004397 -0.003222 0.017115 0.000000 -0.015789 0.000000
# 4 0.000000 0.000000 0.000000 0.033020 0.000000 0.000509
# 5 0.004200 0.004001 -0.015789 0.000000 0.045616 0.000000
# 6 0.000000 0.000000 0.000000 0.000509 0.000000 0.020527
#
#
# Mechanical properties :
#
#
# Convention : Reuss Voigt Hill
#
# Bulk Modulus (GPa) = 39.75582 42.41013 41.08298
# Shear Modulus (GPa) = 29.66993 36.38839 33.02916
#
# Velocity S-wave (km/s) = 3.52875 3.90790 3.72316
# Velocity P-wave (km/s) = 5.76955 6.17748 5.97700
#
# Compressibility (1/GPa) = 0.02515355
#
# Stress axis : x y z
#
# Youngs Moduli (GPa) = 67.52344 89.77051 58.42989
#
# Poissons Ratio (x) = 0.11991 0.25692
# Poissons Ratio (y) = 0.09019 0.18828
# Poissons Ratio (z) = 0.29690 0.28927
#
# Static dielectric constant tensor:
#      x y z
#    x 1.948230 0.000000 0.022790 
#    y 0.000000 1.981750 0.000000 
#    z 0.022790 0.000000 1.874600 
# 
# From -- ./inp_files/291119.got.cif
#   From: 2010.05.17/outbox.cif.g08.bks.cpg/sg15_146_cif.got.tgz:291119.got - 2010.06.03 18:47:42.
