data_PCOD9291666
_publ_section_title
;
Structure prediction by ZEFSAII (Michael W. Deem and Ramdas Pophale) SiO2 
 PCOD9291666
Probable space group: C 2/C
;
_chemical_formula_sum "Si O2"
_cell_formula_units_Z 52
_cell_length_a 23.398215
_cell_length_b 7.923919
_cell_length_c 16.164420
_cell_angle_alpha 90.000000
_cell_angle_beta 135.198908
_cell_angle_gamma 90.000000
_cell_volume 2111.810478
_symmetry_space_group_name_H-M "C 2/C"
_symmetry_group_IT_number 15
_symmetry_cell_setting 'monoclinic'
loop_
_space_group_symop_operation_xyz
x,y,z
-x,y,1/2-z
-x,-y,-z
x,-y,1/2+z
1/2+x,1/2+y,z
1/2-x,1/2+y,1/2-z
1/2-x,1/2-y,-z
1/2+x,1/2-y,1/2+z
loop_
_atom_site_type_symbol
_atom_site_label
_atom_site_fract_x
_atom_site_fract_y
_atom_site_fract_z
Si Si1 0.392268 0.641368 0.464223
Si Si2 0.835049 0.155795 0.595920
Si Si3 0.538251 0.824705 0.650458
Si Si4 0.907033 0.834879 0.657537
Si Si5 0.336423 0.974753 0.317395
Si Si6 0.000000 0.470043 0.250000
Si Si7 0.185406 0.814457 0.107013
O O1 0.369156 0.632148 0.537909
O O2 0.363658 0.464325 0.395987
O O3 0.487644 0.677232 0.556319
O O4 0.350201 0.807636 0.384971
O O5 0.750000 0.250000 0.500000
O O6 0.892538 0.258322 0.716606
O O7 0.844502 0.961088 0.636804
O O8 0.475295 0.919388 0.646887
O O9 0.579939 0.954829 0.632260
O O10 0.867549 0.786917 0.529097
O O11 0.000000 0.913454 0.750000
O O12 0.931064 0.652157 0.716494
O O13 0.271115 0.910309 0.182876
O O14 0.305181 0.138497 0.335781
#
# Coordination Sequence:
#
# PCOD9291666 Si02
#       7
#     8   8   8   8   8   4   8
#     4  11  23  45  69  95 140 181 232 291 342 427
#     4  11  22  41  70  98 133 180 233 292 353 412
#     4  12  23  44  68 101 132 184 234 288 357 406
#     4   9  21  42  67  97 130 178 228 285 346 404
#     4  12  26  44  67 101 143 183 231 283 360 425
#     4  10  22  42  70 100 138 172 232 302 334 406
#     4  11  23  45  69  97 140 184 223 290 349 424
#
# _framework density 24.623421
#
# number of rings (size 3 to 8) (size 9 to 14) (size 15 to 20)
#    0.462    0.615    3.077    5.077    0.000    0.615 
#    5.538    1.538    0.000    0.000    0.000    0.000 
#    0.000    0.000    0.000    0.000    0.000    0.000 
#
# Total GULP energy -145044.341754 kJ/mol
# GULP energy per Si atom -5578.628529 kJ/mol
# Density = 2.456738 g / cm^3
# Si number density = 24.623421 Si / 1000 Ang^3
#
#
#
# Elastic Constant Matrix: (Units=GPa)
#
#
# Indices 1 2 3 4 5 6 
#
# 1 29.0184 -9.1578 -4.6817 0.0000 11.2603 0.0000
# 2 -9.1578 77.7055 18.2113 0.0000 -3.7573 0.0000
# 3 -4.6817 18.2113 123.6404 0.0000 27.2008 0.0000
# 4 0.0000 0.0000 0.0000 34.6093 0.0000 9.6370
# 5 11.2603 -3.7573 27.2008 0.0000 27.9901 0.0000
# 6 0.0000 0.0000 0.0000 9.6370 0.0000 23.6916
#
#
#
# Elastic Compliance Matrix: (Units=1/GPa)
#
#
# Indices 1 2 3 4 5 6 
#
# 1 0.045996 0.002629 0.006802 0.000000 -0.024761 0.000000
# 2 0.002629 0.013985 -0.002723 0.000000 0.003465 0.000000
# 3 0.006802 -0.002723 0.011993 0.000000 -0.014757 0.000000
# 4 0.000000 0.000000 0.000000 0.032585 0.000000 -0.013254
# 5 -0.024761 0.003465 -0.014757 0.000000 0.060494 0.000000
# 6 0.000000 0.000000 0.000000 -0.013254 0.000000 0.047601
#
#
# Mechanical properties :
#
#
# Convention : Reuss Voigt Hill
#
# Bulk Modulus (GPa) = 11.71081 26.56755 19.13918
# Shear Modulus (GPa) = 21.95875 32.32437 27.14156
#
# Velocity S-wave (km/s) = 2.98951 3.62712 3.32364
# Velocity P-wave (km/s) = 4.08443 5.32487 4.74536
#
# Compressibility (1/GPa) = 0.08539120
#
# Stress axis : x y z
#
# Youngs Moduli (GPa) = 21.74084 71.50709 83.38213
#
# Poissons Ratio (x) = -0.18802 -0.56715
# Poissons Ratio (y) = -0.05717 0.22702
# Poissons Ratio (z) = -0.14788 0.19469
#
# Static dielectric constant tensor:
#      x y z
#    x 1.967990 0.000000 0.048610 
#    y 0.000000 2.024480 0.000000 
#    z 0.048610 0.000000 1.958480 
# 
# From -- ./inp_files/221932.got.cif
#   From: 2010.05.17/outbox.cif.g08.bks.cpg/sg15_111_cif.got.tgz:221932.got - 2010.06.03 18:47:42.
