data_PCOD9291419
_publ_section_title
;
Structure prediction by ZEFSAII (Michael W. Deem and Ramdas Pophale) SiO2 
 PCOD9291419
Probable space group: C 2/C
;
_chemical_formula_sum "Si O2"
_cell_formula_units_Z 56
_cell_length_a 17.715812
_cell_length_b 20.177003
_cell_length_c 14.894058
_cell_angle_alpha 90.000000
_cell_angle_beta 148.162459
_cell_angle_gamma 90.000000
_cell_volume 2808.429677
_symmetry_space_group_name_H-M "C 2/C"
_symmetry_group_IT_number 15
_symmetry_cell_setting 'monoclinic'
loop_
_space_group_symop_operation_xyz
x,y,z
-x,y,1/2-z
-x,-y,-z
x,-y,1/2+z
1/2+x,1/2+y,z
1/2-x,1/2+y,1/2-z
1/2-x,1/2-y,-z
1/2+x,1/2-y,1/2+z
loop_
_atom_site_type_symbol
_atom_site_label
_atom_site_fract_x
_atom_site_fract_y
_atom_site_fract_z
Si Si1 0.151157 0.805894 0.855371
Si Si2 0.946342 0.787764 0.944861
Si Si3 0.639550 0.113865 0.840292
Si Si4 0.183226 0.028791 0.766117
Si Si5 0.139898 0.927578 0.564536
Si Si6 0.769791 0.667456 0.761159
Si Si7 0.152239 0.535217 0.381329
O O1 0.126433 0.795880 0.726129
O O2 0.000000 0.804880 0.750000
O O3 0.250000 0.750000 0.000000
O O4 0.229436 0.873814 0.959952
O O5 0.895019 0.851715 0.947704
O O6 0.887946 0.717390 0.921091
O O7 0.117316 0.794225 0.106094
O O8 0.500000 0.141207 0.750000
O O9 0.677132 0.148386 0.784934
O O10 0.616961 0.036395 0.802271
O O11 0.239681 0.097672 0.779433
O O12 0.012694 0.037282 0.610616
O O13 0.199908 0.968787 0.711349
O O14 0.265479 0.022218 0.942589
O O15 0.246506 0.930243 0.588555
O O16 0.000000 0.568407 0.250000
#
# Coordination Sequence:
#
# PCOD9291419 Si02
#       7
#     8   8   8   8   8   8   8
#     4  12  21  33  54  83 122 164 202 245 307 374
#     4  11  23  38  60  90 127 164 210 259 309 377
#     4  11  23  37  56  87 127 165 205 247 315 381
#     4  10  22  43  68  91 126 167 217 270 310 375
#     4  10  22  42  67  95 120 170 222 259 315 376
#     4  11  23  41  60  90 127 167 209 257 315 374
#     4  11  24  42  63  95 128 161 210 269 323 373
#
# _framework density 19.939968
#
# number of rings (size 3 to 8) (size 9 to 14) (size 15 to 20)
#    0.000    1.143    4.286    1.714    2.000    2.857 
#    0.000    0.714    0.000    0.000    0.000    0.000 
#    0.000    0.000    0.000    0.000    0.000    0.000 
#
# Total GULP energy -156390.751348 kJ/mol
# GULP energy per Si atom -5585.383977 kJ/mol
# Density = 1.989458 g / cm^3
# Si number density = 19.939968 Si / 1000 Ang^3
#
#
#
# Elastic Constant Matrix: (Units=GPa)
#
#
# Indices 1 2 3 4 5 6 
#
# 1 145.4324 35.2597 58.7147 0.0000 28.6273 0.0000
# 2 35.2597 60.2619 6.2135 0.0000 18.5271 0.0000
# 3 58.7147 6.2135 73.5808 0.0000 11.9189 0.0000
# 4 0.0000 0.0000 0.0000 25.5466 0.0000 4.6445
# 5 28.6273 18.5271 11.9189 0.0000 33.4220 0.0000
# 6 0.0000 0.0000 0.0000 4.6445 0.0000 16.9829
#
#
#
# Elastic Compliance Matrix: (Units=1/GPa)
#
#
# Indices 1 2 3 4 5 6 
#
# 1 0.012620 -0.004965 -0.008858 0.000000 -0.004899 0.000000
# 2 -0.004965 0.021957 0.003598 0.000000 -0.009202 0.000000
# 3 -0.008858 0.003598 0.020641 0.000000 -0.001769 0.000000
# 4 0.000000 0.000000 0.000000 0.041192 0.000000 -0.011265
# 5 -0.004899 -0.009202 -0.001769 0.000000 0.039848 0.000000
# 6 0.000000 0.000000 0.000000 -0.011265 0.000000 0.061964
#
#
# Mechanical properties :
#
#
# Convention : Reuss Voigt Hill
#
# Bulk Modulus (GPa) = 28.76024 53.29455 41.02740
# Shear Modulus (GPa) = 21.71448 27.12944 24.42196
#
# Velocity S-wave (km/s) = 3.30357 3.69257 3.50347
# Velocity P-wave (km/s) = 5.38574 6.70564 6.08160
#
# Compressibility (1/GPa) = 0.03477022
#
# Stress axis : x y z
#
# Youngs Moduli (GPa) = 79.23930 45.54284 48.44693
#
# Poissons Ratio (x) = 0.22611 0.42912
# Poissons Ratio (y) = 0.39340 -0.17432
# Poissons Ratio (z) = 0.70187 -0.16387
#
# Static dielectric constant tensor:
#      x y z
#    x 1.692780 0.000000 0.019360 
#    y 0.000000 1.771070 0.000000 
#    z 0.019360 0.000000 1.704730 
# 
# From -- ./inp_files/50332.got.cif
#   From: 2010.05.17/outbox.cif.g08.bks.cpg/sg15_26_cif.got.tgz:50332.got - 2010.06.03 18:47:42.
