data_PCOD9291999
_publ_section_title
;
Structure prediction by ZEFSAII (Michael W. Deem and Ramdas Pophale) SiO2 
 PCOD9291999
Probable space group: C 2/C
;
_chemical_formula_sum "Si O2"
_cell_formula_units_Z 56
_cell_length_a 24.866469
_cell_length_b 22.884296
_cell_length_c 14.661575
_cell_angle_alpha 90.000000
_cell_angle_beta 162.810446
_cell_angle_gamma 90.000000
_cell_volume 2465.696287
_symmetry_space_group_name_H-M "C 2/C"
_symmetry_group_IT_number 15
_symmetry_cell_setting 'monoclinic'
loop_
_space_group_symop_operation_xyz
x,y,z
-x,y,1/2-z
-x,-y,-z
x,-y,1/2+z
1/2+x,1/2+y,z
1/2-x,1/2+y,1/2-z
1/2-x,1/2-y,-z
1/2+x,1/2-y,1/2+z
loop_
_atom_site_type_symbol
_atom_site_label
_atom_site_fract_x
_atom_site_fract_y
_atom_site_fract_z
Si Si1 0.500000 0.012660 0.750000
Si Si2 0.695659 0.144855 0.612544
Si Si3 0.859578 0.052752 0.776191
Si Si4 0.337158 0.770471 0.807742
Si Si5 0.149659 0.124101 0.920538
Si Si6 0.500000 0.743387 0.250000
Si Si7 0.505060 0.058851 0.947602
Si Si8 0.806724 0.665415 0.679613
O O1 0.571606 0.048754 0.952045
O O2 0.339527 0.977609 0.541377
O O3 0.842021 0.093512 0.835990
O O4 0.775033 0.203980 0.698532
O O5 0.662523 0.151745 0.664811
O O6 0.500000 0.132965 0.250000
O O7 0.891780 0.098524 0.746157
O O8 0.000000 0.000000 0.000000
O O9 0.190926 0.808552 0.513628
O O10 0.364021 0.778709 0.962292
O O11 0.534414 0.790378 0.092709
O O12 0.341366 0.095988 0.254849
O O13 0.000000 0.103218 0.750000
O O14 0.617759 0.700835 0.375123
O O15 0.331166 0.103077 0.667603
O O16 0.500000 0.000000 0.000000
#
# Coordination Sequence:
#
# PCOD9291999 Si02
#       8
#     4   8   8   8   8   4   8   8
#     4  12  24  43  70  98 136 189 244 292 368 420
#     4  11  22  42  70 100 139 185 233 291 365 438
#     4  12  26  44  68 101 140 186 248 298 357 441
#     4  10  23  40  69 101 139 181 230 295 361 433
#     4  11  24  44  66 103 141 179 237 298 362 431
#     4  10  22  43  64  98 138 183 236 286 364 440
#     4  11  22  43  67  97 139 188 237 300 360 426
#     4  10  23  40  65  98 138 184 232 295 357 426
#
# _framework density 22.711638000000001
#
# number of rings (size 3 to 8) (size 9 to 14) (size 15 to 20)
#    0.000    1.143    2.143    4.286    0.000    9.143 
#    1.286    0.000    0.000    0.000    0.000    0.000 
#    0.000    0.000    0.000    0.000    0.000    0.000 
#
# Total GULP energy -156113.309795 kJ/mol
# GULP energy per Si atom -5575.475350 kJ/mol
# Density = 2.265995 g / cm^3
# Si number density = 22.711638 Si / 1000 Ang^3
#
#
#
# Elastic Constant Matrix: (Units=GPa)
#
#
# Indices 1 2 3 4 5 6 
#
# 1 113.7161 43.2145 16.0430 0.0000 3.3383 0.0000
# 2 43.2145 122.8868 32.7039 0.0000 14.7468 0.0000
# 3 16.0430 32.7039 61.2789 0.0000 19.3915 0.0000
# 4 0.0000 0.0000 0.0000 17.5572 0.0000 -8.9019
# 5 3.3383 14.7468 19.3915 0.0000 42.5813 0.0000
# 6 0.0000 0.0000 0.0000 -8.9019 0.0000 -42.9469
#
#
#
# Elastic Compliance Matrix: (Units=1/GPa)
#
#
# Indices 1 2 3 4 5 6 
#
# 1 0.010220 -0.003396 -0.001147 0.000000 0.000897 0.000000
# 2 -0.003396 0.010661 -0.004342 0.000000 -0.001449 0.000000
# 3 -0.001147 -0.004342 0.021536 0.000000 -0.008214 0.000000
# 4 0.000000 0.000000 0.000000 0.051540 0.000000 -0.010683
# 5 0.000897 -0.001449 -0.008214 0.000000 0.027656 0.000000
# 6 0.000000 0.000000 0.000000 -0.010683 0.000000 -0.021070
#
#
# Mechanical properties :
#
#
# Convention : Reuss Voigt Hill
#
# Bulk Modulus (GPa) = 40.57497 53.53387 47.05442
# Shear Modulus (GPa) = 39.51635 17.16634 28.34135
#
# Velocity S-wave (km/s) = 4.17576 2.75224 3.53636
# Velocity P-wave (km/s) = 6.41508 5.80707 6.11863
#
# Compressibility (1/GPa) = 0.02464574
#
# Stress axis : x y z
#
# Youngs Moduli (GPa) = 97.84720 93.79626 46.43448
#
# Poissons Ratio (x) = 0.31857 0.05326
# Poissons Ratio (y) = 0.33233 0.20163
# Poissons Ratio (z) = 0.11223 0.40729
#
# Static dielectric constant tensor:
#      x y z
#    x 1.826890 0.000000 -0.108580 
#    y 0.000000 2.000890 0.000000 
#    z -0.108580 0.000000 1.797390 
# 
# From -- ./inp_files/174804.got.cif
#   From: 2010.05.17/outbox.cif.g08.bks.cpg/sg15_88_cif.got.tgz:174804.got - 2010.06.03 18:47:42.
