data_PCOD9291989
_publ_section_title
;
Structure prediction by ZEFSAII (Michael W. Deem and Ramdas Pophale) SiO2 
 PCOD9291989
Probable space group: C 2/C
;
_chemical_formula_sum "Si O2"
_cell_formula_units_Z 48
_cell_length_a 9.928569
_cell_length_b 11.181915
_cell_length_c 18.753387
_cell_angle_alpha 90.000000
_cell_angle_beta 113.238868
_cell_angle_gamma 90.000000
_cell_volume 1913.091028
_symmetry_space_group_name_H-M "C 2/C"
_symmetry_group_IT_number 15
_symmetry_cell_setting 'monoclinic'
loop_
_space_group_symop_operation_xyz
x,y,z
-x,y,1/2-z
-x,-y,-z
x,-y,1/2+z
1/2+x,1/2+y,z
1/2-x,1/2+y,1/2-z
1/2-x,1/2-y,-z
1/2+x,1/2-y,1/2+z
loop_
_atom_site_type_symbol
_atom_site_label
_atom_site_fract_x
_atom_site_fract_y
_atom_site_fract_z
Si Si1 0.843687 0.133837 0.504477
Si Si2 0.673391 0.578490 0.157975
Si Si3 0.923283 0.055069 0.668661
Si Si4 0.137047 0.336457 0.332728
Si Si5 0.428123 0.986223 0.061034
Si Si6 0.681801 0.882461 0.674632
O O1 0.750000 0.250000 0.500000
O O2 0.881282 0.131743 0.428671
O O3 0.936657 0.121291 0.595693
O O4 0.739844 0.018221 0.486774
O O5 0.529946 0.556691 0.175611
O O6 0.765531 0.455299 0.164555
O O7 0.779470 0.646321 0.235138
O O8 0.000000 0.122855 0.750000
O O9 0.768476 0.002706 0.664052
O O10 0.067611 0.363196 0.395665
O O11 0.247781 0.225965 0.354189
O O12 0.000000 0.325986 0.250000
O O13 0.512893 0.084830 0.126839
O O14 0.500000 0.000000 0.000000
#
# Coordination Sequence:
#
# PCOD9291989 Si02
#       6
#     8   8   8   8   8   8
#     4  11  25  42  64  97 134 182 221 289 359 402
#     4  10  23  42  66  96 140 168 234 292 329 431
#     4  10  22  43  64  95 132 175 231 281 340 424
#     4  11  23  42  71 102 135 189 231 286 359 412
#     4  11  24  45  66 100 146 174 235 294 338 429
#     4  11  23  43  71 100 133 187 230 282 358 416
#
# _framework density 25.090284
#
# number of rings (size 3 to 8) (size 9 to 14) (size 15 to 20)
#    0.000    1.333    3.333    2.000    2.333    6.000 
#    0.000    0.000    0.000    0.000    0.000    0.000 
#    0.000    0.000    0.000    0.000    0.000    0.000 
#
# Total GULP energy -133965.969371 kJ/mol
# GULP energy per Si atom -5581.915390 kJ/mol
# Density = 2.503318 g / cm^3
# Si number density = 25.090284 Si / 1000 Ang^3
#
#
#
# Elastic Constant Matrix: (Units=GPa)
#
#
# Indices 1 2 3 4 5 6 
#
# 1 58.0959 2.3642 18.2200 0.0000 -5.6844 0.0000
# 2 2.3642 68.4802 17.6598 0.0000 1.1541 0.0000
# 3 18.2200 17.6598 205.4237 0.0000 -12.8464 0.0000
# 4 0.0000 0.0000 0.0000 9.0089 0.0000 -5.8225
# 5 -5.6844 1.1541 -12.8464 0.0000 42.2432 0.0000
# 6 0.0000 0.0000 0.0000 -5.8225 0.0000 44.9135
#
#
#
# Elastic Compliance Matrix: (Units=1/GPa)
#
#
# Indices 1 2 3 4 5 6 
#
# 1 0.017868 -0.000280 -0.001437 0.000000 0.001975 0.000000
# 2 -0.000280 0.014966 -0.001315 0.000000 -0.000846 0.000000
# 3 -0.001437 -0.001315 0.005197 0.000000 0.001423 0.000000
# 4 0.000000 0.000000 0.000000 0.121152 0.000000 0.015706
# 5 0.001975 -0.000846 0.001423 0.000000 0.024394 0.000000
# 6 0.000000 0.000000 0.000000 0.015706 0.000000 0.024301
#
#
# Mechanical properties :
#
#
# Convention : Reuss Voigt Hill
#
# Bulk Modulus (GPa) = 31.28081 45.38754 38.33417
# Shear Modulus (GPa) = 22.26206 38.81685 30.53945
#
# Velocity S-wave (km/s) = 2.98195 3.93757 3.49260
# Velocity P-wave (km/s) = 4.93461 6.22909 5.61925
#
# Compressibility (1/GPa) = 0.03196848
#
# Stress axis : x y z
#
# Youngs Moduli (GPa) = 55.96505 66.81939 192.40076
#
# Poissons Ratio (x) = 0.01868 0.27654
# Poissons Ratio (y) = 0.01564 0.25295
# Poissons Ratio (z) = 0.08044 0.08785
#
# Static dielectric constant tensor:
#      x y z
#    x 1.436600 0.000000 0.332100 
#    y 0.000000 2.900000 0.000000 
#    z 0.332100 0.000000 2.029980 
# 
# From -- ./inp_files/196588.got.cif
#   From: 2010.05.17/outbox.cif.g08.bks.cpg/sg15_99_cif.got.tgz:196588.got - 2010.06.03 18:47:42.
