data_PCOD9291900
_publ_section_title
;
Structure prediction by ZEFSAII (Michael W. Deem and Ramdas Pophale) SiO2 
 PCOD9291900
Probable space group: C 2/C
;
_chemical_formula_sum "Si O2"
_cell_formula_units_Z 52
_cell_length_a 20.352541
_cell_length_b 21.982000
_cell_length_c 5.183774
_cell_angle_alpha 90.000000
_cell_angle_beta 70.882537
_cell_angle_gamma 90.000000
_cell_volume 2191.262323
_symmetry_space_group_name_H-M "C 2/C"
_symmetry_group_IT_number 15
_symmetry_cell_setting 'monoclinic'
loop_
_space_group_symop_operation_xyz
x,y,z
-x,y,1/2-z
-x,-y,-z
x,-y,1/2+z
1/2+x,1/2+y,z
1/2-x,1/2+y,1/2-z
1/2-x,1/2-y,-z
1/2+x,1/2-y,1/2+z
loop_
_atom_site_type_symbol
_atom_site_label
_atom_site_fract_x
_atom_site_fract_y
_atom_site_fract_z
Si Si1 0.000000 0.708545 0.750000
Si Si2 0.425910 0.571329 0.904985
Si Si3 0.789279 0.016736 0.588201
Si Si4 0.339635 0.638180 0.386840
Si Si5 0.090533 0.204168 0.785896
Si Si6 0.864048 0.694124 0.664710
Si Si7 0.224789 0.688774 0.189631
O O1 0.937398 0.672798 0.691651
O O2 0.033901 0.753214 0.493186
O O3 0.500000 0.540869 0.750000
O O4 0.361012 0.524055 0.953171
O O5 0.429309 0.634278 0.737888
O O6 0.408481 0.602547 0.201599
O O7 0.802428 0.087214 0.603958
O O8 0.749893 0.989272 0.874173
O O9 0.354140 0.693752 0.554929
O O10 0.292426 0.651174 0.195527
O O11 0.114048 0.240913 0.500772
O O12 0.827525 0.662579 0.462340
O O13 0.812352 0.694610 0.979177
O O14 0.250000 0.750000 0.000000
#
# Coordination Sequence:
#
# PCOD9291900 Si02
#       7
#     4   8   8   8   8   8   8
#     4  12  24  44  64  92 132 160 224 276 330 390
#     4  11  23  38  62  88 126 171 227 276 328 364
#     4  10  22  43  60  83 117 166 215 269 328 360
#     4  11  26  41  63  89 128 165 227 280 315 385
#     4  12  22  40  62  96 121 174 215 275 327 379
#     4  12  27  41  68  90 126 167 216 268 335 395
#     4  12  27  43  62  94 125 171 218 273 331 394
#
# _framework density 23.730615
#
# number of rings (size 3 to 8) (size 9 to 14) (size 15 to 20)
#    0.000    0.615    3.077    5.538    4.308    2.462 
#    1.385    0.000    0.000    0.000    0.000    0.000 
#    0.000    0.000    0.000   55.385    0.000    3.077 
#
# Total GULP energy -144853.786419 kJ/mol
# GULP energy per Si atom -5571.299478 kJ/mol
# Density = 2.367660 g / cm^3
# Si number density = 23.730615 Si / 1000 Ang^3
#
#
#
# Elastic Constant Matrix: (Units=GPa)
#
#
# Indices 1 2 3 4 5 6 
#
# 1 114.3514 10.0949 47.0191 0.0000 17.3979 0.0000
# 2 10.0949 31.5327 18.7087 0.0000 -3.5767 0.0000
# 3 47.0191 18.7087 194.3538 0.0000 16.8870 0.0000
# 4 0.0000 0.0000 0.0000 41.4740 0.0000 10.4735
# 5 17.3979 -3.5767 16.8870 0.0000 36.9733 0.0000
# 6 0.0000 0.0000 0.0000 10.4735 0.0000 16.1746
#
#
#
# Elastic Compliance Matrix: (Units=1/GPa)
#
#
# Indices 1 2 3 4 5 6 
#
# 1 0.010413 -0.002703 -0.001885 0.000000 -0.004300 0.000000
# 2 -0.002703 0.035221 -0.003273 0.000000 0.006174 0.000000
# 3 -0.001885 -0.003273 0.006109 0.000000 -0.002220 0.000000
# 4 0.000000 0.000000 0.000000 0.028825 0.000000 -0.018665
# 5 -0.004300 0.006174 -0.002220 0.000000 0.030681 0.000000
# 6 0.000000 0.000000 0.000000 -0.018665 0.000000 0.073911
#
#
# Mechanical properties :
#
#
# Convention : Reuss Voigt Hill
#
# Bulk Modulus (GPa) = 27.76179 54.65370 41.20775
# Shear Modulus (GPa) = 23.48637 36.55206 30.01921
#
# Velocity S-wave (km/s) = 3.14937 3.92891 3.56054
# Velocity P-wave (km/s) = 4.99488 6.60777 5.85711
#
# Compressibility (1/GPa) = 0.03602073
#
# Stress axis : x y z
#
# Youngs Moduli (GPa) = 96.03319 28.39251 163.68482
#
# Poissons Ratio (x) = 0.07674 0.30861
# Poissons Ratio (y) = 0.25956 0.53573
# Poissons Ratio (z) = 0.18106 0.09293
#
# Static dielectric constant tensor:
#      x y z
#    x 2.112750 0.000000 0.051340 
#    y 0.000000 1.901010 0.000000 
#    z 0.051340 0.000000 2.071980 
# 
# From -- ./inp_files/11817.got.cif
#   From: 2010.05.17/outbox.cif.g08.bks.cpg/sg15_6_cif.got.tgz:11817.got - 2010.06.03 18:47:42.
