data_PCOD9291786
_publ_section_title
;
Structure prediction by ZEFSAII (Michael W. Deem and Ramdas Pophale) SiO2 
 PCOD9291786
Probable space group: C 2/C
;
_chemical_formula_sum "Si O2"
_cell_formula_units_Z 44
_cell_length_a 9.450243
_cell_length_b 10.925122
_cell_length_c 25.573866
_cell_angle_alpha 90.000000
_cell_angle_beta 48.217662
_cell_angle_gamma 90.000000
_cell_volume 1968.878807
_symmetry_space_group_name_H-M "C 2/C"
_symmetry_group_IT_number 15
_symmetry_cell_setting 'monoclinic'
loop_
_space_group_symop_operation_xyz
x,y,z
-x,y,1/2-z
-x,-y,-z
x,-y,1/2+z
1/2+x,1/2+y,z
1/2-x,1/2+y,1/2-z
1/2-x,1/2-y,-z
1/2+x,1/2-y,1/2+z
loop_
_atom_site_type_symbol
_atom_site_label
_atom_site_fract_x
_atom_site_fract_y
_atom_site_fract_z
Si Si1 0.034246 0.935255 0.152675
Si Si2 0.005149 0.839472 0.049338
Si Si3 0.154713 0.395451 0.970090
Si Si4 0.000000 0.224439 0.750000
Si Si5 0.695902 0.992479 0.070197
Si Si6 0.120314 0.537780 0.269784
O O1 0.019244 0.842132 0.107955
O O2 0.826536 0.980511 0.220220
O O3 0.115155 0.860471 0.181790
O O4 0.156195 0.050693 0.103295
O O5 0.927301 0.721717 0.038952
O O6 0.850262 0.944090 0.073530
O O7 0.207425 0.886541 0.977997
O O8 0.181621 0.394885 0.026235
O O9 0.000000 0.500000 0.000000
O O10 0.873412 0.317953 0.746976
O O11 0.501751 0.017486 0.148042
O O12 0.000000 0.484562 0.250000
#
# Coordination Sequence:
#
# PCOD9291786 Si02
#       6
#     8   8   8   4   8   8
#     4  11  25  45  63 102 133 179 233 276 343 406
#     4  10  22  44  69  95 135 175 228 282 331 403
#     4  11  27  40  67 103 135 178 228 280 337 400
#     4  10  26  40  70  94 138 180 222 284 336 406
#     4  10  22  42  71  99 130 178 229 277 342 400
#     4  10  23  44  68  97 134 178 223 278 344 401
#
# _framework density 22.347743999999999
#
# number of rings (size 3 to 8) (size 9 to 14) (size 15 to 20)
#    0.545    1.091    1.818    0.545    7.636    2.909 
#    0.000    0.000    0.000    0.000    0.000    0.000 
#    0.000    0.000    0.000    0.000    0.000    0.000 
#
# Total GULP energy -122943.452553 kJ/mol
# GULP energy per Si atom -5588.338752 kJ/mol
# Density = 2.229688 g / cm^3
# Si number density = 22.347744 Si / 1000 Ang^3
#
#
#
# Elastic Constant Matrix: (Units=GPa)
#
#
# Indices 1 2 3 4 5 6 
#
# 1 72.0909 30.6127 59.3710 0.0000 4.3318 0.0000
# 2 30.6127 92.0172 72.6766 0.0000 9.8096 0.0000
# 3 59.3710 72.6766 206.2988 0.0000 -3.9208 0.0000
# 4 0.0000 0.0000 0.0000 15.5618 0.0000 2.3124
# 5 4.3318 9.8096 -3.9208 0.0000 51.1752 0.0000
# 6 0.0000 0.0000 0.0000 2.3124 0.0000 46.0420
#
#
#
# Elastic Compliance Matrix: (Units=1/GPa)
#
#
# Indices 1 2 3 4 5 6 
#
# 1 0.018765 -0.002494 -0.004549 0.000000 -0.001459 0.000000
# 2 -0.002494 0.015965 -0.004968 0.000000 -0.003230 0.000000
# 3 -0.004549 -0.004968 0.007944 0.000000 0.001946 0.000000
# 4 0.000000 0.000000 0.000000 0.064743 0.000000 -0.003252
# 5 -0.001459 -0.003230 0.001946 0.000000 0.020432 0.000000
# 6 0.000000 0.000000 0.000000 -0.003252 0.000000 0.021883
#
#
# Mechanical properties :
#
#
# Convention : Reuss Voigt Hill
#
# Bulk Modulus (GPa) = 53.61646 77.30308 65.45977
# Shear Modulus (GPa) = 27.78204 36.40556 32.09380
#
# Velocity S-wave (km/s) = 3.52969 4.04053 3.79371
# Velocity P-wave (km/s) = 6.37617 7.51225 6.96740
#
# Compressibility (1/GPa) = 0.01865099
#
# Stress axis : x y z
#
# Youngs Moduli (GPa) = 53.29115 62.63529 125.88416
#
# Poissons Ratio (x) = 0.15621 0.57271
# Poissons Ratio (y) = 0.13291 0.62540
# Poissons Ratio (z) = 0.24245 0.31118
#
# Static dielectric constant tensor:
#      x y z
#    x 1.872860 0.000000 0.076170 
#    y 0.000000 1.863170 0.000000 
#    z 0.076170 0.000000 1.851340 
# 
# From -- ./inp_files/292174.got.cif
#   From: 2010.05.17/outbox.cif.g08.bks.cpg/sg15_147_cif.got.tgz:292174.got - 2010.06.03 18:47:42.
