data_PCOD9291246
_publ_section_title
;
Structure prediction by ZEFSAII (Michael W. Deem and Ramdas Pophale) SiO2 
 PCOD9291246
Probable space group: C 2/C
;
_chemical_formula_sum "Si O2"
_cell_formula_units_Z 52
_cell_length_a 18.666916
_cell_length_b 15.530020
_cell_length_c 8.306739
_cell_angle_alpha 90.000000
_cell_angle_beta 112.407239
_cell_angle_gamma 90.000000
_cell_volume 2226.286603
_symmetry_space_group_name_H-M "C 2/C"
_symmetry_group_IT_number 15
_symmetry_cell_setting 'monoclinic'
loop_
_space_group_symop_operation_xyz
x,y,z
-x,y,1/2-z
-x,-y,-z
x,-y,1/2+z
1/2+x,1/2+y,z
1/2-x,1/2+y,1/2-z
1/2-x,1/2-y,-z
1/2+x,1/2-y,1/2+z
loop_
_atom_site_type_symbol
_atom_site_label
_atom_site_fract_x
_atom_site_fract_y
_atom_site_fract_z
Si Si1 0.860002 0.262580 0.133727
Si Si2 0.500000 0.028804 0.250000
Si Si3 0.583557 0.108052 0.615662
Si Si4 0.226203 0.347810 0.011886
Si Si5 0.256779 0.871414 0.821310
Si Si6 0.140813 0.971730 0.286633
Si Si7 0.434879 0.603144 0.055157
O O1 0.927306 0.302316 0.300421
O O2 0.833955 0.377690 0.402879
O O3 0.803413 0.208075 0.202577
O O4 0.888042 0.192780 0.027902
O O5 0.433633 0.966499 0.268349
O O6 0.527406 0.086522 0.421114
O O7 0.683147 0.155823 0.986099
O O8 0.199169 0.375695 0.810174
O O9 0.250000 0.250000 0.000000
O O10 0.193618 0.892366 0.375909
O O11 0.203048 0.956292 0.775969
O O12 0.113127 0.023227 0.416781
O O13 0.065893 0.931954 0.127975
O O14 0.500000 0.612612 0.250000
#
# Coordination Sequence:
#
# PCOD9291246 Si02
#       7
#     8   4   8   8   8   8   8
#     4  10  23  43  68 101 142 182 236 299 365 418
#     4  10  28  50  70 106 144 194 256 280 374 458
#     4  11  26  47  72 101 146 191 237 308 359 445
#     4  12  24  42  71 108 137 176 237 310 368 418
#     4  10  22  42  66 102 141 176 231 303 368 420
#     4  11  24  42  68 101 139 181 239 298 355 431
#     4  11  24  44  66  97 140 196 235 282 357 443
#
# _framework density 23.357278999999998
#
# number of rings (size 3 to 8) (size 9 to 14) (size 15 to 20)
#    0.000    1.231    3.077    1.385    9.692    1.231 
#    2.769    0.000    3.385    0.000    0.000    0.000 
#    0.000    0.000    0.000    0.000    0.000    0.000 
#
# Total GULP energy -144743.441508 kJ/mol
# GULP energy per Si atom -5567.055443 kJ/mol
# Density = 2.330412 g / cm^3
# Si number density = 23.357279 Si / 1000 Ang^3
#
#
#
# Elastic Constant Matrix: (Units=GPa)
#
#
# Indices 1 2 3 4 5 6 
#
# 1 60.6530 28.3335 14.4648 0.0000 -4.1912 0.0000
# 2 28.3335 95.9659 66.6627 0.0000 28.2959 0.0000
# 3 14.4648 66.6627 93.5954 0.0000 -0.2461 0.0000
# 4 0.0000 0.0000 0.0000 17.4106 0.0000 40.5796
# 5 -4.1912 28.2959 -0.2461 0.0000 37.3223 0.0000
# 6 0.0000 0.0000 0.0000 40.5796 0.0000 -57.4213
#
#
#
# Elastic Compliance Matrix: (Units=1/GPa)
#
#
# Indices 1 2 3 4 5 6 
#
# 1 0.024292 -0.019240 0.009995 0.000000 0.017381 0.000000
# 2 -0.019240 0.052599 -0.034601 0.000000 -0.042266 0.000000
# 3 0.009995 -0.034601 0.033856 0.000000 0.027578 0.000000
# 4 0.000000 0.000000 0.000000 0.021698 0.000000 0.015334
# 5 0.017381 -0.042266 0.027578 0.000000 0.060972 0.000000
# 6 0.000000 0.000000 0.000000 0.015334 0.000000 -0.006579
#
#
# Mechanical properties :
#
#
# Convention : Reuss Voigt Hill
#
# Bulk Modulus (GPa) = 43.37297 52.12625 47.74961
# Shear Modulus (GPa) = 17.71702 8.84586 13.28144
#
# Velocity S-wave (km/s) = 2.75712 1.94818 2.38716
# Velocity P-wave (km/s) = 5.36146 5.23698 5.29958
#
# Compressibility (1/GPa) = 0.02305583
#
# Stress axis : x y z
#
# Youngs Moduli (GPa) = 41.16521 19.01188 29.53660
#
# Poissons Ratio (x) = 0.36579 -0.29522
# Poissons Ratio (y) = 0.79201 1.02199
# Poissons Ratio (z) = -0.41144 0.65783
#
# Static dielectric constant tensor:
#      x y z
#    x 1.907660 0.000000 0.056480 
#    y 0.000000 1.916590 0.000000 
#    z 0.056480 0.000000 1.860840 
# 
# From -- ./inp_files/62282.got.cif
#   From: 2010.05.17/outbox.cif.g08.bks.cpg/sg15_32_cif.got.tgz:62282.got - 2010.06.03 18:47:42.
