data_PCOD9291612
_publ_section_title
;
Structure prediction by ZEFSAII (Michael W. Deem and Ramdas Pophale) SiO2 
 PCOD9291612
Probable space group: C 2/C
;
_chemical_formula_sum "Si O2"
_cell_formula_units_Z 32
_cell_length_a 10.236895
_cell_length_b 15.103237
_cell_length_c 19.305683
_cell_angle_alpha 90.000000
_cell_angle_beta 152.369235
_cell_angle_gamma 90.000000
_cell_volume 1384.292319
_symmetry_space_group_name_H-M "C 2/C"
_symmetry_group_IT_number 15
_symmetry_cell_setting 'monoclinic'
loop_
_space_group_symop_operation_xyz
x,y,z
-x,y,1/2-z
-x,-y,-z
x,-y,1/2+z
1/2+x,1/2+y,z
1/2-x,1/2+y,1/2-z
1/2-x,1/2-y,-z
1/2+x,1/2-y,1/2+z
loop_
_atom_site_type_symbol
_atom_site_label
_atom_site_fract_x
_atom_site_fract_y
_atom_site_fract_z
Si Si1 0.047593 0.911621 0.614666
Si Si2 0.686911 0.085285 0.069826
Si Si3 0.214972 0.094788 0.653688
Si Si4 0.056265 0.279620 0.619588
O O1 0.290411 0.848714 0.757801
O O2 0.762198 0.898202 0.524999
O O3 0.005162 0.896809 0.513334
O O4 0.121852 0.015217 0.658919
O O5 0.551360 0.169928 0.043644
O O6 0.000000 0.074680 0.250000
O O7 0.500000 0.000000 0.000000
O O8 0.500000 0.067095 0.750000
O O9 0.236173 0.190318 0.697588
O O10 0.750000 0.250000 0.500000
#
# Coordination Sequence:
#
# PCOD9291612 Si02
#       4
#     8   8   8   8
#     4  10  25  45  70 103 144 182 242 293 356 436
#     4  10  22  42  69 103 145 185 232 297 362 427
#     4  11  25  43  73  99 140 190 233 297 360 427
#     4  11  25  45  69 103 144 186 240 293 360 432
#
# _framework density 23.116506000000001
#
# number of rings (size 3 to 8) (size 9 to 14) (size 15 to 20)
#    0.000    1.500    0.000    3.750   14.000    4.000 
#    4.500    0.000    0.000    0.000    0.000    0.000 
#    0.000    0.000    0.000    0.000    0.000    0.000 
#
# Total GULP energy -89554.918030 kJ/mol
# GULP energy per Si atom -5597.182377 kJ/mol
# Density = 2.306389 g / cm^3
# Si number density = 23.116506 Si / 1000 Ang^3
#
#
#
# Elastic Constant Matrix: (Units=GPa)
#
#
# Indices 1 2 3 4 5 6 
#
# 1 119.6315 67.0081 39.5966 0.0025 24.0324 0.0003
# 2 67.0081 180.8212 40.0470 -0.0019 0.7494 -0.0005
# 3 39.5966 40.0470 46.8958 -0.0113 12.3521 0.0027
# 4 0.0025 -0.0019 -0.0113 45.4396 0.0012 8.0796
# 5 24.0324 0.7494 12.3521 0.0012 40.1854 0.0005
# 6 0.0003 -0.0005 0.0027 8.0796 0.0005 54.0055
#
#
#
# Elastic Compliance Matrix: (Units=1/GPa)
#
#
# Indices 1 2 3 4 5 6 
#
# 1 0.013931 -0.003560 -0.007122 -0.000003 -0.006076 0.000001
# 2 -0.003560 0.007853 -0.004595 -0.000001 0.003395 0.000000
# 3 -0.007122 -0.004595 0.032770 0.000009 -0.005728 -0.000003
# 4 -0.000003 -0.000001 0.000009 0.022609 -0.000002 -0.003382
# 5 -0.006076 0.003395 -0.005728 -0.000002 0.030215 0.000000
# 6 0.000001 0.000000 -0.000003 -0.003382 0.000000 0.019023
#
#
# Mechanical properties :
#
#
# Convention : Reuss Voigt Hill
#
# Bulk Modulus (GPa) = 41.66629 71.18356 56.42492
# Shear Modulus (GPa) = 30.31154 41.30589 35.80871
#
# Velocity S-wave (km/s) = 3.62505 4.23171 3.94007
# Velocity P-wave (km/s) = 5.96531 7.39843 6.72018
#
# Compressibility (1/GPa) = 0.02400022
#
# Stress axis : x y z
#
# Youngs Moduli (GPa) = 71.78310 127.33959 30.51595
#
# Poissons Ratio (x) = 0.45331 0.21734
# Poissons Ratio (y) = 0.25554 0.14021
# Poissons Ratio (z) = 0.51126 0.58506
#
# Static dielectric constant tensor:
#      x y z
#    x 1.912530 0.000000 -0.059560 
#    y 0.000000 1.828030 0.000000 
#    z -0.059560 0.000000 1.923410 
# 
# From -- ./inp_files/47359.got.cif
#   From: 2010.05.17/outbox.cif.g08.bks.cpg/sg15_24_cif.got.tgz:47359.got - 2010.06.03 18:47:42.
