data_PCOD9291047
_publ_section_title
;
Structure prediction by ZEFSAII (Michael W. Deem and Ramdas Pophale) SiO2 
 PCOD9291047
Probable space group: C 2/C
;
_chemical_formula_sum "Si O2"
_cell_formula_units_Z 56
_cell_length_a 14.962871
_cell_length_b 5.208291
_cell_length_c 28.854977
_cell_angle_alpha 90.000000
_cell_angle_beta 86.132839
_cell_angle_gamma 90.000000
_cell_volume 2243.576756
_symmetry_space_group_name_H-M "C 2/C"
_symmetry_group_IT_number 15
_symmetry_cell_setting 'monoclinic'
loop_
_space_group_symop_operation_xyz
x,y,z
-x,y,1/2-z
-x,-y,-z
x,-y,1/2+z
1/2+x,1/2+y,z
1/2-x,1/2+y,1/2-z
1/2-x,1/2-y,-z
1/2+x,1/2-y,1/2+z
loop_
_atom_site_type_symbol
_atom_site_label
_atom_site_fract_x
_atom_site_fract_y
_atom_site_fract_z
Si Si1 0.651117 0.222293 0.187779
Si Si2 0.097095 0.850832 0.089399
Si Si3 0.083684 0.896790 0.925815
Si Si4 0.843610 0.600325 0.498004
Si Si5 0.232165 0.721629 0.418587
Si Si6 0.341356 0.860715 0.157411
Si Si7 0.602071 0.720943 0.243467
O O1 0.596449 0.297626 0.143864
O O2 0.752779 0.188337 0.167736
O O3 0.651870 0.461245 0.224335
O O4 0.616377 0.952825 0.207473
O O5 0.998631 0.915179 0.075064
O O6 0.170173 0.083820 0.080114
O O7 0.127517 0.609408 0.056446
O O8 0.186435 0.998676 0.918493
O O9 0.082416 0.747348 0.974028
O O10 0.079586 0.732406 0.878970
O O11 0.750000 0.750000 0.500000
O O12 0.819702 0.364983 0.532110
O O13 0.195984 0.598999 0.371464
O O14 0.375708 0.858135 0.208478
O O15 0.500000 0.635229 0.250000
#
# Coordination Sequence:
#
# PCOD9291047 Si02
#       7
#     8   8   8   8   8   8   8
#     4  11  26  45  67 102 134 186 224 286 351 416
#     4  10  22  42  63  97 140 172 239 289 347 422
#     4  11  22  40  69  95 132 183 230 289 352 419
#     4   9  20  42  59  98 136 176 234 289 347 425
#     4   9  22  40  64  95 130 182 226 284 359 414
#     4  10  24  42  64  93 135 170 229 283 344 422
#     4  12  26  44  71 101 136 176 233 284 348 419
#
# _framework density 24.960145000000001
#
# number of rings (size 3 to 8) (size 9 to 14) (size 15 to 20)
#    0.000    1.714    0.000    3.429    8.000    2.857 
#    2.571    0.000    0.000    0.000    0.000    0.000 
#    0.000    0.000    0.000    0.000    0.000    0.000 
#
# Total GULP energy -156118.317633 kJ/mol
# GULP energy per Si atom -5575.654201 kJ/mol
# Density = 2.490334 g / cm^3
# Si number density = 24.960145 Si / 1000 Ang^3
#
#
#
# Elastic Constant Matrix: (Units=GPa)
#
#
# Indices 1 2 3 4 5 6 
#
# 1 65.0460 -7.3129 10.5119 0.0000 6.9676 0.0000
# 2 -7.3129 56.2556 15.6998 0.0000 -12.2341 0.0000
# 3 10.5119 15.6998 115.3600 0.0000 9.9894 0.0000
# 4 0.0000 0.0000 0.0000 31.5155 0.0000 -13.7450
# 5 6.9676 -12.2341 9.9894 0.0000 29.2958 0.0000
# 6 0.0000 0.0000 0.0000 -13.7450 0.0000 10.5857
#
#
#
# Elastic Compliance Matrix: (Units=1/GPa)
#
#
# Indices 1 2 3 4 5 6 
#
# 1 0.016108 0.001978 -0.001522 0.000000 -0.002486 0.000000
# 2 0.001978 0.021243 -0.003914 0.000000 0.009735 0.000000
# 3 -0.001522 -0.003914 0.009738 0.000000 -0.004593 0.000000
# 4 0.000000 0.000000 0.000000 0.073162 0.000000 0.094997
# 5 -0.002486 0.009735 -0.004593 0.000000 0.040358 0.000000
# 6 0.000000 0.000000 0.000000 0.094997 0.000000 0.217816
#
#
# Mechanical properties :
#
#
# Convention : Reuss Voigt Hill
#
# Bulk Modulus (GPa) = 24.89253 30.49545 27.69399
# Shear Modulus (GPa) = 12.53978 28.79692 20.66835
#
# Velocity S-wave (km/s) = 2.24384 3.40032 2.88071
# Velocity P-wave (km/s) = 4.08750 5.25932 4.71000
#
# Compressibility (1/GPa) = 0.04017270
#
# Stress axis : x y z
#
# Youngs Moduli (GPa) = 62.07958 47.07490 102.69450
#
# Poissons Ratio (x) = -0.09311 0.15627
# Poissons Ratio (y) = -0.12279 0.40197
# Poissons Ratio (z) = 0.09447 0.18426
#
# Static dielectric constant tensor:
#      x y z
#    x 1.948530 0.000000 0.033880 
#    y 0.000000 2.054310 0.000000 
#    z 0.033880 0.000000 2.150050 
# 
# From -- ./inp_files/312332.got.cif
#   From: 2010.05.17/outbox.cif.g08.bks.cpg/sg15_157_cif.got.tgz:312332.got - 2010.06.03 18:47:42.
