data_PCOD9291486
_publ_section_title
;
Structure prediction by ZEFSAII (Michael W. Deem and Ramdas Pophale) SiO2 
 PCOD9291486
Probable space group: C 2/C
;
_chemical_formula_sum "Si O2"
_cell_formula_units_Z 56
_cell_length_a 9.595770
_cell_length_b 27.600377
_cell_length_c 11.236430
_cell_angle_alpha 90.000000
_cell_angle_beta 62.301904
_cell_angle_gamma 90.000000
_cell_volume 2634.918353
_symmetry_space_group_name_H-M "C 2/C"
_symmetry_group_IT_number 15
_symmetry_cell_setting 'monoclinic'
loop_
_space_group_symop_operation_xyz
x,y,z
-x,y,1/2-z
-x,-y,-z
x,-y,1/2+z
1/2+x,1/2+y,z
1/2-x,1/2+y,1/2-z
1/2-x,1/2-y,-z
1/2+x,1/2-y,1/2+z
loop_
_atom_site_type_symbol
_atom_site_label
_atom_site_fract_x
_atom_site_fract_y
_atom_site_fract_z
Si Si1 0.000000 0.857790 0.750000
Si Si2 0.237345 0.278325 0.377144
Si Si3 0.000000 0.609029 0.250000
Si Si4 0.486949 0.942477 0.003628
Si Si5 0.323162 0.389871 0.285745
Si Si6 0.208019 0.685603 0.253255
Si Si7 0.117150 0.291535 0.039978
Si Si8 0.752196 0.387138 0.454084
O O1 0.111587 0.825373 0.789257
O O2 0.116641 0.884583 0.610745
O O3 0.250000 0.250000 0.500000
O O4 0.292297 0.333620 0.340462
O O5 0.332689 0.240660 0.258871
O O6 0.061111 0.274681 0.392058
O O7 0.024825 0.577425 0.356662
O O8 0.854897 0.646966 0.315660
O O9 0.314123 0.922167 0.102386
O O10 0.609989 0.920788 0.050072
O O11 0.500000 0.000000 0.000000
O O12 0.500000 0.402420 0.250000
O O13 0.313581 0.399722 0.148290
O O14 0.124922 0.678859 0.412315
O O15 0.250000 0.250000 0.000000
O O16 0.171074 0.334223 0.104279
#
# Coordination Sequence:
#
# PCOD9291486 Si02
#       8
#     4   8   4   8   8   8   8   8
#     4  10  22  42  68 103 141 196 240 304 358 442
#     4  12  25  37  64 100 154 200 244 295 368 442
#     4  12  24  48  74 105 147 184 258 296 372 466
#     4  12  28  53  81 107 141 201 245 322 392 446
#     4  12  29  47  74 113 155 193 253 325 377 450
#     4  11  22  38  62  98 139 191 241 290 352 437
#     4  11  22  39  61  98 142 203 244 285 358 439
#     4  11  24  48  73 104 152 192 253 311 378 450
#
# _framework density 21.253032000000001
#
# number of rings (size 3 to 8) (size 9 to 14) (size 15 to 20)
#    0.000    0.571    4.286    4.714   11.000    1.143 
#    1.286    0.714    0.000    0.000    0.000    0.000 
#    0.000    0.000    0.000    0.000    0.000    0.000 
#
# Total GULP energy -156267.327792 kJ/mol
# GULP energy per Si atom -5580.975993 kJ/mol
# Density = 2.120466 g / cm^3
# Si number density = 21.253032 Si / 1000 Ang^3
#
#
#
# Elastic Constant Matrix: (Units=GPa)
#
#
# Indices 1 2 3 4 5 6 
#
# 1 175.7058 64.1420 38.9330 0.0000 -4.2340 0.0000
# 2 64.1420 156.4713 30.4995 0.0000 -4.1163 0.0000
# 3 38.9330 30.4995 79.1319 0.0000 -0.8520 0.0000
# 4 0.0000 0.0000 0.0000 18.1738 0.0000 -1.2366
# 5 -4.2340 -4.1163 -0.8520 0.0000 40.8404 0.0000
# 6 0.0000 0.0000 0.0000 -1.2366 0.0000 16.4017
#
#
#
# Elastic Compliance Matrix: (Units=1/GPa)
#
#
# Indices 1 2 3 4 5 6 
#
# 1 0.007158 -0.002419 -0.002585 0.000000 0.000444 0.000000
# 2 -0.002419 0.007744 -0.001790 0.000000 0.000492 0.000000
# 3 -0.002585 -0.001790 0.014597 0.000000 -0.000144 0.000000
# 4 0.000000 0.000000 0.000000 0.055308 0.000000 0.004170
# 5 0.000444 0.000492 -0.000144 0.000000 0.024578 0.000000
# 6 0.000000 0.000000 0.000000 0.004170 0.000000 0.061284
#
#
# Mechanical properties :
#
#
# Convention : Reuss Voigt Hill
#
# Bulk Modulus (GPa) = 62.84071 75.38423 69.11247
# Shear Modulus (GPa) = 26.37703 33.59881 29.98792
#
# Velocity S-wave (km/s) = 3.52674 3.98036 3.76040
# Velocity P-wave (km/s) = 6.79823 7.52803 7.17242
#
# Compressibility (1/GPa) = 0.01591325
#
# Stress axis : x y z
#
# Youngs Moduli (GPa) = 139.71019 129.12895 68.50753
#
# Poissons Ratio (x) = 0.31232 0.17706
# Poissons Ratio (y) = 0.33791 0.12260
# Poissons Ratio (z) = 0.36109 0.23108
#
# Static dielectric constant tensor:
#      x y z
#    x 1.770020 0.000000 0.093550 
#    y 0.000000 1.826860 0.000000 
#    z 0.093550 0.000000 1.813020 
# 
# From -- ./inp_files/82509.got.cif
#   From: 2010.05.17/outbox.cif.g08.bks.cpg/sg15_42_cif.got.tgz:82509.got - 2010.06.03 18:47:42.
