data_PCOD9291838
_publ_section_title
;
Structure prediction by ZEFSAII (Michael W. Deem and Ramdas Pophale) SiO2 
 PCOD9291838
Probable space group: C 2/C
;
_chemical_formula_sum "Si O2"
_cell_formula_units_Z 56
_cell_length_a 8.648744
_cell_length_b 14.635279
_cell_length_c 24.812098
_cell_angle_alpha 90.000000
_cell_angle_beta 127.645963
_cell_angle_gamma 90.000000
_cell_volume 2486.754963
_symmetry_space_group_name_H-M "C 2/C"
_symmetry_group_IT_number 15
_symmetry_cell_setting 'monoclinic'
loop_
_space_group_symop_operation_xyz
x,y,z
-x,y,1/2-z
-x,-y,-z
x,-y,1/2+z
1/2+x,1/2+y,z
1/2-x,1/2+y,1/2-z
1/2-x,1/2-y,-z
1/2+x,1/2-y,1/2+z
loop_
_atom_site_type_symbol
_atom_site_label
_atom_site_fract_x
_atom_site_fract_y
_atom_site_fract_z
Si Si1 0.597605 0.476681 0.963712
Si Si2 0.843692 0.771890 0.265333
Si Si3 0.624599 0.130521 0.143914
Si Si4 0.810722 0.651895 0.991662
Si Si5 0.030002 0.646620 0.928941
Si Si6 0.526299 0.672665 0.363949
Si Si7 0.227827 0.953640 0.285091
O O1 0.488883 0.410171 0.897856
O O2 0.500000 0.500000 0.000000
O O3 0.650380 0.573702 0.947666
O O4 0.790688 0.419036 0.019896
O O5 0.923939 0.723108 0.335004
O O6 0.663568 0.710388 0.206964
O O7 0.775922 0.875894 0.261418
O O8 0.000000 0.774904 0.250000
O O9 0.448826 0.108006 0.066875
O O10 0.812822 0.143032 0.145548
O O11 0.668266 0.050839 0.196143
O O12 0.750000 0.750000 0.000000
O O13 0.933985 0.670620 0.964966
O O14 0.095842 0.737924 0.911953
O O15 0.856918 0.597022 0.858566
O O16 0.000000 0.970690 0.250000
#
# Coordination Sequence:
#
# PCOD9291838 Si02
#       7
#     8   8   8   8   8   8   8
#     4  12  25  42  68 104 143 186 232 288 354 420
#     4  10  25  44  69  99 135 182 242 295 346 418
#     4  12  24  46  70  99 140 184 237 285 355 419
#     4  12  27  42  71 103 140 187 233 287 353 430
#     4  11  23  46  67 105 143 181 231 289 351 420
#     4  11  24  43  72 100 141 186 231 290 352 422
#     4  10  22  42  72  96 130 183 232 284 345 419
#
# _framework density 22.519307999999999
#
# number of rings (size 3 to 8) (size 9 to 14) (size 15 to 20)
#    0.000    0.857    2.857    3.857   10.000    0.000 
#    0.000    2.857    0.000    0.000    0.000    0.000 
#    0.000    0.000    0.000    0.000    0.000    0.000 
#
# Total GULP energy -156539.794011 kJ/mol
# GULP energy per Si atom -5590.706929 kJ/mol
# Density = 2.246805 g / cm^3
# Si number density = 22.519308 Si / 1000 Ang^3
#
#
#
# Elastic Constant Matrix: (Units=GPa)
#
#
# Indices 1 2 3 4 5 6 
#
# 1 65.9490 14.0636 -15.1316 0.0000 -15.2141 0.0000
# 2 14.0636 146.7081 11.5615 0.0000 -8.0211 0.0000
# 3 -15.1316 11.5615 32.0585 0.0000 0.6554 0.0000
# 4 0.0000 0.0000 0.0000 39.4253 0.0000 2.2332
# 5 -15.2141 -8.0211 0.6554 0.0000 38.8583 0.0000
# 6 0.0000 0.0000 0.0000 2.2332 0.0000 24.4504
#
#
#
# Elastic Compliance Matrix: (Units=1/GPa)
#
#
# Indices 1 2 3 4 5 6 
#
# 1 0.019536 -0.002269 0.009896 0.000000 0.007013 0.000000
# 2 -0.002269 0.007367 -0.003742 0.000000 0.000695 0.000000
# 3 0.009896 -0.003742 0.037163 0.000000 0.002475 0.000000
# 4 0.000000 0.000000 0.000000 0.025496 0.000000 -0.002329
# 5 0.007013 0.000695 0.002475 0.000000 0.028582 0.000000
# 6 0.000000 0.000000 0.000000 -0.002329 0.000000 0.041112
#
#
# Mechanical properties :
#
#
# Convention : Reuss Voigt Hill
#
# Bulk Modulus (GPa) = 13.92095 29.52253 21.72174
# Shear Modulus (GPa) = 28.50129 36.16160 32.33145
#
# Velocity S-wave (km/s) = 3.56144 4.01160 3.79320
# Velocity P-wave (km/s) = 4.80698 5.88180 5.37134
#
# Compressibility (1/GPa) = 0.07183420
#
# Stress axis : x y z
#
# Youngs Moduli (GPa) = 51.18871 135.74641 26.90875
#
# Poissons Ratio (x) = 0.30802 -0.26628
# Poissons Ratio (y) = 0.11615 0.10069
# Poissons Ratio (z) = -0.50655 0.50795
#
# Static dielectric constant tensor:
#      x y z
#    x 1.792620 0.000000 0.025970 
#    y 0.000000 1.859990 0.000000 
#    z 0.025970 0.000000 1.838770 
# 
# From -- ./inp_files/264813.got.cif
#   From: 2010.05.17/outbox.cif.g08.bks.cpg/sg15_133_cif.got.tgz:264813.got - 2010.06.03 18:47:42.
