data_PCOD9291660
_publ_section_title
;
Structure prediction by ZEFSAII (Michael W. Deem and Ramdas Pophale) SiO2 
 PCOD9291660
Probable space group: C 2/C
;
_chemical_formula_sum "Si O2"
_cell_formula_units_Z 28
_cell_length_a 8.848829
_cell_length_b 14.697092
_cell_length_c 10.272604
_cell_angle_alpha 90.000000
_cell_angle_beta 107.257207
_cell_angle_gamma 90.000000
_cell_volume 1275.831255
_symmetry_space_group_name_H-M "C 2/C"
_symmetry_group_IT_number 15
_symmetry_cell_setting 'monoclinic'
loop_
_space_group_symop_operation_xyz
x,y,z
-x,y,1/2-z
-x,-y,-z
x,-y,1/2+z
1/2+x,1/2+y,z
1/2-x,1/2+y,1/2-z
1/2-x,1/2-y,-z
1/2+x,1/2-y,1/2+z
loop_
_atom_site_type_symbol
_atom_site_label
_atom_site_fract_x
_atom_site_fract_y
_atom_site_fract_z
Si Si1 0.604713 0.989541 0.896744
Si Si2 0.352364 0.329095 0.968728
Si Si3 0.189524 0.151212 0.530109
Si Si4 0.500000 0.645240 0.250000
O O1 0.500000 0.955191 0.750000
O O2 0.751168 0.920623 0.949633
O O3 0.676389 0.088082 0.878960
O O4 0.500000 0.000000 0.000000
O O5 0.392706 0.304033 0.828178
O O6 0.250000 0.250000 0.000000
O O7 0.529180 0.338826 0.072112
O O8 0.250000 0.250000 0.500000
O O9 0.122430 0.099577 0.381510
#
# Coordination Sequence:
#
# PCOD9291660 Si02
#       4
#     8   8   8   4
#     4  12  26  44  71 106 142 182 238 289 354 417
#     4  10  22  44  69  97 138 184 229 287 352 410
#     4  10  22  42  69  99 137 182 228 287 345 419
#     4   8  22  40  70  88 150 162 246 268 360 390
#
# _framework density 21.946476000000001
#
# number of rings (size 3 to 8) (size 9 to 14) (size 15 to 20)
#    1.714    0.000    0.000    4.286    2.000    0.000 
#    0.000    2.857    0.000    0.000    0.000    0.000 
#    0.000    0.000    0.000    0.000    0.000    0.000 
#
# Total GULP energy -77949.353258 kJ/mol
# GULP energy per Si atom -5567.810947 kJ/mol
# Density = 2.189652 g / cm^3
# Si number density = 21.946476 Si / 1000 Ang^3
#
#
#
# Elastic Constant Matrix: (Units=GPa)
#
#
# Indices 1 2 3 4 5 6 
#
# 1 203.8648 73.5380 21.4504 0.0000 -7.5701 0.0000
# 2 73.5380 130.7523 -6.0902 0.0000 10.4721 0.0000
# 3 21.4504 -6.0902 39.1806 0.0000 -3.4989 0.0000
# 4 0.0000 0.0000 0.0000 15.5370 0.0000 5.3888
# 5 -7.5701 10.4721 -3.4989 0.0000 48.3420 0.0000
# 6 0.0000 0.0000 0.0000 5.3888 0.0000 29.5501
#
#
#
# Elastic Compliance Matrix: (Units=1/GPa)
#
#
# Indices 1 2 3 4 5 6 
#
# 1 0.006955 -0.004249 -0.004317 0.000000 0.001697 0.000000
# 2 -0.004249 0.010423 0.003709 0.000000 -0.002655 0.000000
# 3 -0.004317 0.003709 0.028515 0.000000 0.000584 0.000000
# 4 0.000000 0.000000 0.000000 0.068708 0.000000 -0.012530
# 5 0.001697 -0.002655 0.000584 0.000000 0.021569 0.000000
# 6 0.000000 0.000000 0.000000 -0.012530 0.000000 0.036126
#
#
# Mechanical properties :
#
#
# Convention : Reuss Voigt Hill
#
# Bulk Modulus (GPa) = 27.63916 61.28822 44.46369
# Shear Modulus (GPa) = 25.76420 37.67913 31.72166
#
# Velocity S-wave (km/s) = 3.43002 4.14800 3.80598
# Velocity P-wave (km/s) = 5.32052 7.13639 6.29428
#
# Compressibility (1/GPa) = 0.03618055
#
# Stress axis : x y z
#
# Youngs Moduli (GPa) = 143.78239 95.94228 35.06957
#
# Poissons Ratio (x) = 0.40762 0.15138
# Poissons Ratio (y) = 0.61087 -0.13008
# Poissons Ratio (z) = 0.62064 -0.35586
#
# Static dielectric constant tensor:
#      x y z
#    x 1.818470 0.000000 0.189140 
#    y 0.000000 1.805350 0.000000 
#    z 0.189140 0.000000 1.455700 
# 
# From -- ./inp_files/75715.got.cif
#   From: 2010.05.17/outbox.cif.g08.bks.cpg/sg15_38_cif.got.tgz:75715.got - 2010.06.03 18:47:42.
