data_PCOD9291165
_publ_section_title
;
Structure prediction by ZEFSAII (Michael W. Deem and Ramdas Pophale) SiO2 
 PCOD9291165
Probable space group: C 2/C
;
_chemical_formula_sum "Si O2"
_cell_formula_units_Z 32
_cell_length_a 19.727580
_cell_length_b 7.634718
_cell_length_c 8.049679
_cell_angle_alpha 90.000000
_cell_angle_beta 105.157551
_cell_angle_gamma 90.000000
_cell_volume 1170.219698
_symmetry_space_group_name_H-M "C 2/C"
_symmetry_group_IT_number 15
_symmetry_cell_setting 'monoclinic'
loop_
_space_group_symop_operation_xyz
x,y,z
-x,y,1/2-z
-x,-y,-z
x,-y,1/2+z
1/2+x,1/2+y,z
1/2-x,1/2+y,1/2-z
1/2-x,1/2-y,-z
1/2+x,1/2-y,1/2+z
loop_
_atom_site_type_symbol
_atom_site_label
_atom_site_fract_x
_atom_site_fract_y
_atom_site_fract_z
Si Si1 0.884762 0.361012 0.113821
Si Si2 0.038280 0.832525 0.105420
Si Si3 0.830528 0.313422 0.414652
Si Si4 0.810688 0.080478 0.859391
O O1 0.890313 0.321208 0.310340
O O2 0.947747 0.310759 0.030110
O O3 0.857796 0.558290 0.073848
O O4 0.824468 0.229145 0.006123
O O5 0.117234 0.897709 0.199033
O O6 0.000000 0.776895 0.250000
O O7 0.000000 0.000000 0.000000
O O8 0.687589 0.386568 0.565567
O O9 0.760608 0.392825 0.285517
#
# Coordination Sequence:
#
# PCOD9291165 Si02
#       4
#     8   8   8   8
#     4  10  26  39  68  95 132 166 215 262 325 378
#     4  10  22  42  65  90 127 171 213 257 316 377
#     4  12  22  44  64 104 124 168 213 271 329 375
#     4  10  23  38  70  90 135 161 214 269 318 380
#
# _framework density 27.345295
#
# number of rings (size 3 to 8) (size 9 to 14) (size 15 to 20)
#    1.500    0.000    2.500    2.250    0.000    5.000 
#    0.000    6.250    0.000    0.000    0.000    0.000 
#    0.000    0.000    0.000    0.000    0.000    0.000 
#
# Total GULP energy -89688.769824 kJ/mol
# GULP energy per Si atom -5605.548114 kJ/mol
# Density = 2.728306 g / cm^3
# Si number density = 27.345295 Si / 1000 Ang^3
#
#
#
# Elastic Constant Matrix: (Units=GPa)
#
#
# Indices 1 2 3 4 5 6 
#
# 1 157.1466 28.2321 34.1257 0.0000 -15.4766 0.0000
# 2 28.2321 181.0555 8.6890 0.0000 6.0429 0.0000
# 3 34.1257 8.6890 79.0428 0.0000 -32.2351 0.0000
# 4 0.0000 0.0000 0.0000 29.9943 0.0000 4.9040
# 5 -15.4766 6.0429 -32.2351 0.0000 54.2252 0.0000
# 6 0.0000 0.0000 0.0000 4.9040 0.0000 38.4078
#
#
#
# Elastic Compliance Matrix: (Units=1/GPa)
#
#
# Indices 1 2 3 4 5 6 
#
# 1 0.007200 -0.001006 -0.002791 0.000000 0.000508 0.000000
# 2 -0.001006 0.005763 -0.000763 0.000000 -0.001383 0.000000
# 3 -0.002791 -0.000763 0.018018 0.000000 0.010000 0.000000
# 4 0.000000 0.000000 0.000000 0.034051 0.000000 -0.004348
# 5 0.000508 -0.001383 0.010000 0.000000 0.024685 0.000000
# 6 0.000000 0.000000 0.000000 -0.004348 0.000000 0.026592
#
#
# Mechanical properties :
#
#
# Convention : Reuss Voigt Hill
#
# Bulk Modulus (GPa) = 45.74246 62.14872 53.94559
# Shear Modulus (GPa) = 37.67452 47.60531 42.63991
#
# Velocity S-wave (km/s) = 3.71581 4.17693 3.95310
# Velocity P-wave (km/s) = 5.93074 6.78521 6.37231
#
# Compressibility (1/GPa) = 0.02186153
#
# Stress axis : x y z
#
# Youngs Moduli (GPa) = 138.88368 173.52708 55.49915
#
# Poissons Ratio (x) = 0.17453 0.15489
# Poissons Ratio (y) = 0.13968 0.04236
# Poissons Ratio (z) = 0.38761 0.13245
#
# Static dielectric constant tensor:
#      x y z
#    x 2.169500 0.000000 -0.054350 
#    y 0.000000 2.059100 0.000000 
#    z -0.054350 0.000000 2.090400 
# 
# From -- ./inp_files/45718.got.cif
#   From: 2010.05.17/outbox.cif.g08.bks.cpg/sg15_23_cif.got.tgz:45718.got - 2010.06.03 18:47:42.
