data_PCOD9291717
_publ_section_title
;
Structure prediction by ZEFSAII (Michael W. Deem and Ramdas Pophale) SiO2 
 PCOD9291717
Probable space group: C 2/C
;
_chemical_formula_sum "Si O2"
_cell_formula_units_Z 60
_cell_length_a 24.170364
_cell_length_b 19.842712
_cell_length_c 8.702439
_cell_angle_alpha 90.000000
_cell_angle_beta 140.502661
_cell_angle_gamma 90.000000
_cell_volume 2654.674411
_symmetry_space_group_name_H-M "C 2/C"
_symmetry_group_IT_number 15
_symmetry_cell_setting 'monoclinic'
loop_
_space_group_symop_operation_xyz
x,y,z
-x,y,1/2-z
-x,-y,-z
x,-y,1/2+z
1/2+x,1/2+y,z
1/2-x,1/2+y,1/2-z
1/2-x,1/2-y,-z
1/2+x,1/2-y,1/2+z
loop_
_atom_site_type_symbol
_atom_site_label
_atom_site_fract_x
_atom_site_fract_y
_atom_site_fract_z
Si Si1 0.565983 0.525511 0.012689
Si Si2 0.442998 0.746605 0.475400
Si Si3 0.163678 0.111846 0.646456
Si Si4 0.005387 0.394378 0.923697
Si Si5 0.799087 0.859755 0.607924
Si Si6 0.000000 0.792728 0.750000
Si Si7 0.323501 0.083062 0.149023
Si Si8 0.848324 0.440984 0.054898
O O1 0.620044 0.462509 0.060108
O O2 0.630392 0.581466 0.210544
O O3 0.500000 0.556797 0.750000
O O4 0.500000 0.500000 0.000000
O O5 0.440860 0.826560 0.493564
O O6 0.350390 0.707813 0.267325
O O7 0.479404 0.740150 0.374871
O O8 0.500000 0.722947 0.750000
O O9 0.217507 0.131009 0.608970
O O10 0.082933 0.161789 0.468019
O O11 0.230931 0.118917 0.930511
O O12 0.057789 0.432702 0.166891
O O13 0.000000 0.432823 0.750000
O O14 0.907455 0.378548 0.765151
O O15 0.714406 0.881460 0.518851
O O16 0.345243 0.063747 0.367635
O O17 0.313917 0.013522 0.034407
#
# Coordination Sequence:
#
# PCOD9291717 Si02
#       8
#     8   8   8   8   8   4   8   8
#     4  12  21  33  58  90 135 174 214 260 339 411
#     4  10  24  44  71  98 137 183 241 282 344 417
#     4  11  22  40  59 100 133 183 217 274 342 410
#     4  11  25  49  73  93 130 184 233 294 344 408
#     4  11  23  40  63 100 139 178 224 285 341 420
#     4  10  22  42  70  94 148 178 230 282 342 414
#     4  12  26  43  69 104 141 174 231 283 354 424
#     4  12  26  42  71 102 141 174 225 290 355 421
#
# _framework density 22.601642999999999
#
# number of rings (size 3 to 8) (size 9 to 14) (size 15 to 20)
#    0.000    0.800    3.333    4.400    5.600    0.533 
#    0.000    2.000    0.000    0.000    0.000    0.000 
#    0.000    0.000    0.000    0.000    0.000    0.000 
#
# Total GULP energy -167572.763352 kJ/mol
# GULP energy per Si atom -5585.758778 kJ/mol
# Density = 2.255020 g / cm^3
# Si number density = 22.601643 Si / 1000 Ang^3
#
#
#
# Elastic Constant Matrix: (Units=GPa)
#
#
# Indices 1 2 3 4 5 6 
#
# 1 86.0745 13.9685 37.8487 0.0000 -10.8437 0.0000
# 2 13.9685 45.6629 20.9181 0.0000 -1.5744 0.0000
# 3 37.8487 20.9181 159.9908 0.0000 -10.9214 0.0000
# 4 0.0000 0.0000 0.0000 20.7670 0.0000 -1.6148
# 5 -10.8437 -1.5744 -10.9214 0.0000 45.1866 0.0000
# 6 0.0000 0.0000 0.0000 -1.6148 0.0000 17.8888
#
#
#
# Elastic Compliance Matrix: (Units=1/GPa)
#
#
# Indices 1 2 3 4 5 6 
#
# 1 0.013568 -0.002842 -0.002667 0.000000 0.002512 0.000000
# 2 -0.002842 0.023891 -0.002482 0.000000 -0.000450 0.000000
# 3 -0.002667 -0.002482 0.007276 0.000000 0.001032 0.000000
# 4 0.000000 0.000000 0.000000 0.048494 0.000000 0.004378
# 5 0.002512 -0.000450 0.001032 0.000000 0.022967 0.000000
# 6 0.000000 0.000000 0.000000 0.004378 0.000000 0.056296
#
#
# Mechanical properties :
#
#
# Convention : Reuss Voigt Hill
#
# Bulk Modulus (GPa) = 34.77881 48.57765 41.67823
# Shear Modulus (GPa) = 25.24512 31.36801 28.30656
#
# Velocity S-wave (km/s) = 3.34572 3.72945 3.54278
# Velocity P-wave (km/s) = 5.50874 6.33124 5.93426
#
# Compressibility (1/GPa) = 0.02875314
#
# Stress axis : x y z
#
# Youngs Moduli (GPa) = 73.70154 41.85755 137.43508
#
# Poissons Ratio (x) = 0.11897 0.36650
# Poissons Ratio (y) = 0.20949 0.34109
# Poissons Ratio (z) = 0.19654 0.10388
#
# Static dielectric constant tensor:
#      x y z
#    x 1.811630 0.000000 0.046160 
#    y 0.000000 1.833800 0.000000 
#    z 0.046160 0.000000 1.839900 
# 
# From -- ./inp_files/63943.got.cif
#   From: 2010.05.17/outbox.cif.g08.bks.cpg/sg15_32_cif.got.tgz:63943.got - 2010.06.03 18:47:42.
