data_PCOD9291273
_publ_section_title
;
Structure prediction by ZEFSAII (Michael W. Deem and Ramdas Pophale) SiO2 
 PCOD9291273
Probable space group: C 2/C
;
_chemical_formula_sum "Si O2"
_cell_formula_units_Z 48
_cell_length_a 15.243011
_cell_length_b 28.327955
_cell_length_c 11.728359
_cell_angle_alpha 90.000000
_cell_angle_beta 152.381881
_cell_angle_gamma 90.000000
_cell_volume 2347.709876
_symmetry_space_group_name_H-M "C 2/C"
_symmetry_group_IT_number 15
_symmetry_cell_setting 'monoclinic'
loop_
_space_group_symop_operation_xyz
x,y,z
-x,y,1/2-z
-x,-y,-z
x,-y,1/2+z
1/2+x,1/2+y,z
1/2-x,1/2+y,1/2-z
1/2-x,1/2-y,-z
1/2+x,1/2-y,1/2+z
loop_
_atom_site_type_symbol
_atom_site_label
_atom_site_fract_x
_atom_site_fract_y
_atom_site_fract_z
Si Si1 0.810879 0.721366 0.183474
Si Si2 0.019316 0.976519 0.647571
Si Si3 0.298480 0.091330 0.405562
Si Si4 0.228182 0.686170 0.692391
Si Si5 0.535895 0.365531 0.412722
Si Si6 0.766492 0.610477 0.615733
O O1 0.820380 0.762121 0.289836
O O2 0.010922 0.695236 0.408407
O O3 0.750000 0.750000 0.000000
O O4 0.653714 0.682620 0.028589
O O5 0.876382 0.930645 0.501716
O O6 0.000000 0.001153 0.750000
O O7 0.235120 0.958448 0.884884
O O8 0.000000 0.000000 0.500000
O O9 0.251367 0.122286 0.463541
O O10 0.515338 0.093845 0.619873
O O11 0.159638 0.104476 0.142999
O O12 0.335190 0.651070 0.729898
O O13 0.251705 0.658852 0.836913
O O14 0.500000 0.388818 0.250000
#
# Coordination Sequence:
#
# PCOD9291273 Si02
#       6
#     8   8   8   8   8   8
#     4  12  23  36  55  86 126 171 211 268 315 371
#     4  10  22  42  69  98 131 165 204 259 327 396
#     4  10  22  42  66  91 123 166 211 259 314 381
#     4  12  22  36  60  86 121 165 216 257 317 368
#     4  12  23  35  60  88 124 163 215 263 317 372
#     4  10  22  42  68  89 123 169 211 256 316 381
#
# _framework density 20.445456
#
# number of rings (size 3 to 8) (size 9 to 14) (size 15 to 20)
#    0.000    1.000    6.667    0.500    0.000    1.333 
#    0.000    0.833    3.667    0.000    0.000    0.000 
#    0.000    0.000    0.000    0.000    0.000    0.000 
#
# Total GULP energy -133708.135738 kJ/mol
# GULP energy per Si atom -5571.172322 kJ/mol
# Density = 2.039892 g / cm^3
# Si number density = 20.445456 Si / 1000 Ang^3
#
#
#
# Elastic Constant Matrix: (Units=GPa)
#
#
# Indices 1 2 3 4 5 6 
#
# 1 119.9277 32.0684 59.6145 0.0000 -13.1702 0.0000
# 2 32.0684 56.6614 25.2170 0.0000 -3.9877 0.0000
# 3 59.6145 25.2170 113.7501 0.0000 0.3592 0.0000
# 4 0.0000 0.0000 0.0000 27.5283 0.0000 -12.3026
# 5 -13.1702 -3.9877 0.3592 0.0000 46.7705 0.0000
# 6 0.0000 0.0000 0.0000 -12.3026 0.0000 30.0572
#
#
#
# Elastic Compliance Matrix: (Units=1/GPa)
#
#
# Indices 1 2 3 4 5 6 
#
# 1 0.012707 -0.004432 -0.005687 0.000000 0.003244 0.000000
# 2 -0.004432 0.021263 -0.002393 0.000000 0.000583 0.000000
# 3 -0.005687 -0.002393 0.012308 0.000000 -0.001900 0.000000
# 4 0.000000 0.000000 0.000000 0.044459 0.000000 0.018197
# 5 0.003244 0.000583 -0.001900 0.000000 0.022359 0.000000
# 6 0.000000 0.000000 0.000000 0.018197 0.000000 0.040718
#
#
# Mechanical properties :
#
#
# Convention : Reuss Voigt Hill
#
# Bulk Modulus (GPa) = 47.05022 58.23767 52.64394
# Shear Modulus (GPa) = 26.89292 32.43381 29.66337
#
# Velocity S-wave (km/s) = 3.63071 3.98723 3.81314
# Velocity P-wave (km/s) = 6.37484 7.05291 6.72243
#
# Compressibility (1/GPa) = 0.02125389
#
# Stress axis : x y z
#
# Youngs Moduli (GPa) = 78.69845 47.02975 81.24711
#
# Poissons Ratio (x) = 0.20845 0.46206
# Poissons Ratio (y) = 0.34881 0.19440
# Poissons Ratio (z) = 0.44756 0.11253
#
# Static dielectric constant tensor:
#      x y z
#    x 1.823960 0.000000 -0.035060 
#    y 0.000000 1.761760 0.000000 
#    z -0.035060 0.000000 1.758390 
# 
# From -- ./inp_files/101403.got.cif
#   From: 2010.05.17/outbox.cif.g08.bks.cpg/sg15_51_cif.got.tgz:101403.got - 2010.06.03 18:47:42.
