data_PCOD9291783
_publ_section_title
;
Structure prediction by ZEFSAII (Michael W. Deem and Ramdas Pophale) SiO2 
 PCOD9291783
Probable space group: C 2/C
;
_chemical_formula_sum "Si O2"
_cell_formula_units_Z 48
_cell_length_a 8.161180
_cell_length_b 28.871401
_cell_length_c 10.852979
_cell_angle_alpha 90.000000
_cell_angle_beta 118.549385
_cell_angle_gamma 90.000000
_cell_volume 2246.284853
_symmetry_space_group_name_H-M "C 2/C"
_symmetry_group_IT_number 15
_symmetry_cell_setting 'monoclinic'
loop_
_space_group_symop_operation_xyz
x,y,z
-x,y,1/2-z
-x,-y,-z
x,-y,1/2+z
1/2+x,1/2+y,z
1/2-x,1/2+y,1/2-z
1/2-x,1/2-y,-z
1/2+x,1/2-y,1/2+z
loop_
_atom_site_type_symbol
_atom_site_label
_atom_site_fract_x
_atom_site_fract_y
_atom_site_fract_z
Si Si1 0.558123 0.075809 0.016404
Si Si2 0.329924 0.006455 0.092715
Si Si3 0.682288 0.157942 0.659297
Si Si4 0.632246 0.424059 0.683287
Si Si5 0.469912 0.744317 0.100444
Si Si6 0.973915 0.843201 0.039983
O O1 0.393535 0.042544 0.009200
O O2 0.673644 0.090420 0.179154
O O3 0.470273 0.117831 0.910516
O O4 0.686873 0.043145 0.977226
O O5 0.500000 0.001502 0.250000
O O6 0.169780 0.030780 0.113841
O O7 0.578804 0.207229 0.627419
O O8 0.822170 0.152696 0.824605
O O9 0.817140 0.154146 0.589064
O O10 0.500000 0.433673 0.750000
O O11 0.559154 0.383108 0.571454
O O12 0.500000 0.726770 0.250000
O O13 0.250000 0.750000 0.000000
O O14 0.541407 0.706416 0.030581
#
# Coordination Sequence:
#
# PCOD9291783 Si02
#       6
#     8   8   8   8   8   8
#     4  10  22  42  71  97 134 187 232 289 345 417
#     4   9  20  43  66  98 137 182 234 286 352 417
#     4  11  25  45  73 101 138 190 236 284 353 423
#     4  11  24  41  69 103 140 180 236 294 354 417
#     4  12  26  47  69 104 145 181 232 287 353 428
#     4  11  25  46  68 105 142 183 236 291 351 418
#
# _framework density 21.368618000000001
#
# number of rings (size 3 to 8) (size 9 to 14) (size 15 to 20)
#    0.000    1.333    3.333    1.000    4.667    2.667 
#    0.000    3.333    0.000    0.000    0.000    0.000 
#    0.000    0.000    0.000    0.000    0.000    0.000 
#
# Total GULP energy -134273.020542 kJ/mol
# GULP energy per Si atom -5594.709189 kJ/mol
# Density = 2.131998 g / cm^3
# Si number density = 21.368618 Si / 1000 Ang^3
#
#
#
# Elastic Constant Matrix: (Units=GPa)
#
#
# Indices 1 2 3 4 5 6 
#
# 1 101.5844 58.0835 41.8800 0.0000 -6.6308 0.0000
# 2 58.0835 154.8755 95.6391 0.0000 1.7974 0.0000
# 3 41.8800 95.6391 134.1507 0.0000 10.4070 0.0000
# 4 0.0000 0.0000 0.0000 45.1693 0.0000 -5.1017
# 5 -6.6308 1.7974 10.4070 0.0000 35.5451 0.0000
# 6 0.0000 0.0000 0.0000 -5.1017 0.0000 31.6100
#
#
#
# Elastic Compliance Matrix: (Units=1/GPa)
#
#
# Indices 1 2 3 4 5 6 
#
# 1 0.012914 -0.004009 -0.001408 0.000000 0.003024 0.000000
# 2 -0.004009 0.012902 -0.008020 0.000000 0.000948 0.000000
# 3 -0.001408 -0.008020 0.013917 0.000000 -0.003932 0.000000
# 4 0.000000 0.000000 0.000000 0.022550 0.000000 0.003639
# 5 0.003024 0.000948 -0.003932 0.000000 0.029801 0.000000
# 6 0.000000 0.000000 0.000000 0.003639 0.000000 0.032223
#
#
# Mechanical properties :
#
#
# Convention : Reuss Voigt Hill
#
# Bulk Modulus (GPa) = 77.77003 86.86842 82.31922
# Shear Modulus (GPa) = 32.16136 35.46543 33.81339
#
# Velocity S-wave (km/s) = 3.88374 4.07836 3.98224
# Velocity P-wave (km/s) = 7.52228 7.93208 7.72990
#
# Compressibility (1/GPa) = 0.01285842
#
# Stress axis : x y z
#
# Youngs Moduli (GPa) = 77.43489 77.50915 71.85646
#
# Poissons Ratio (x) = 0.31070 0.10120
# Poissons Ratio (y) = 0.31041 0.57629
# Poissons Ratio (z) = 0.10906 0.62162
#
# Static dielectric constant tensor:
#      x y z
#    x 1.795630 0.000000 0.011500 
#    y 0.000000 1.733120 0.000000 
#    z 0.011500 0.000000 1.773240 
# 
# From -- ./inp_files/80910.got.cif
#   From: 2010.05.17/outbox.cif.g08.bks.cpg/sg15_41_cif.got.tgz:80910.got - 2010.06.03 18:47:42.
