data_PCOD9291145
_publ_section_title
;
Structure prediction by ZEFSAII (Michael W. Deem and Ramdas Pophale) SiO2 
 PCOD9291145
Probable space group: C 2/C
;
_chemical_formula_sum "Si O2"
_cell_formula_units_Z 52
_cell_length_a 23.834849
_cell_length_b 9.472058
_cell_length_c 15.654508
_cell_angle_alpha 90.000000
_cell_angle_beta 136.488885
_cell_angle_gamma 90.000000
_cell_volume 2433.308337
_symmetry_space_group_name_H-M "C 2/C"
_symmetry_group_IT_number 15
_symmetry_cell_setting 'monoclinic'
loop_
_space_group_symop_operation_xyz
x,y,z
-x,y,1/2-z
-x,-y,-z
x,-y,1/2+z
1/2+x,1/2+y,z
1/2-x,1/2+y,1/2-z
1/2-x,1/2-y,-z
1/2+x,1/2-y,1/2+z
loop_
_atom_site_type_symbol
_atom_site_label
_atom_site_fract_x
_atom_site_fract_y
_atom_site_fract_z
Si Si1 0.000000 0.584092 0.750000
Si Si2 0.691148 0.932594 0.725235
Si Si3 0.431272 0.227303 0.507897
Si Si4 0.127516 0.003664 0.127883
Si Si5 0.632133 0.863658 0.925171
Si Si6 0.319893 0.330140 0.159015
Si Si7 0.575838 0.176306 0.556485
O O1 0.974363 0.678412 0.641250
O O2 0.922363 0.481942 0.680956
O O3 0.656141 0.846026 0.604444
O O4 0.692271 0.816813 0.801614
O O5 0.780932 0.987634 0.806265
O O6 0.634393 0.069565 0.671817
O O7 0.422068 0.393942 0.485148
O O8 0.484042 0.163469 0.487754
O O9 0.131804 0.933833 0.226032
O O10 0.096394 0.161426 0.096125
O O11 0.632407 0.717425 0.872717
O O12 0.729379 0.890928 0.041147
O O13 0.592710 0.850955 0.975417
#
# Coordination Sequence:
#
# PCOD9291145 Si02
#       7
#     4   8   8   8   8   8   8
#     4  12  24  44  62 102 132 176 214 272 326 398
#     4  11  20  42  71  92 122 175 225 265 314 391
#     4  11  25  41  66  95 131 169 218 271 329 390
#     4  11  22  42  65  94 131 170 217 271 327 385
#     4  11  23  38  67  94 130 167 224 264 320 388
#     4  10  22  42  64  99 126 172 224 271 313 390
#     4  12  22  41  65 101 126 174 213 269 337 385
#
# _framework density 21.370083000000001
#
# number of rings (size 3 to 8) (size 9 to 14) (size 15 to 20)
#    0.000    0.923    4.615    2.769    4.308    0.000 
#    2.769    0.000    0.000    5.538    0.000    0.000 
#    0.000    0.000    0.000    0.000    0.000    0.000 
#
# Total GULP energy -145334.750301 kJ/mol
# GULP energy per Si atom -5589.798089 kJ/mol
# Density = 2.132144 g / cm^3
# Si number density = 21.370083 Si / 1000 Ang^3
#
#
#
# Elastic Constant Matrix: (Units=GPa)
#
#
# Indices 1 2 3 4 5 6 
#
# 1 61.1497 -2.8534 23.9244 0.0000 1.9226 0.0000
# 2 -2.8534 123.1264 49.8080 0.0000 11.2078 0.0000
# 3 23.9244 49.8080 115.4287 0.0000 1.0153 0.0000
# 4 0.0000 0.0000 0.0000 35.2809 0.0000 10.7485
# 5 1.9226 11.2078 1.0153 0.0000 30.8429 0.0000
# 6 0.0000 0.0000 0.0000 10.7485 0.0000 17.1955
#
#
#
# Elastic Compliance Matrix: (Units=1/GPa)
#
#
# Indices 1 2 3 4 5 6 
#
# 1 0.018465 0.002599 -0.004932 0.000000 -0.001933 0.000000
# 2 0.002599 0.010583 -0.005072 0.000000 -0.003841 0.000000
# 3 -0.004932 -0.005072 0.011858 0.000000 0.001760 0.000000
# 4 0.000000 0.000000 0.000000 0.035011 0.000000 -0.021885
# 5 -0.001933 -0.003841 0.001760 0.000000 0.033881 0.000000
# 6 0.000000 0.000000 0.000000 -0.021885 0.000000 0.071834
#
#
# Mechanical properties :
#
#
# Convention : Reuss Voigt Hill
#
# Bulk Modulus (GPa) = 38.31736 49.05144 43.68440
# Shear Modulus (GPa) = 24.37358 31.91894 28.14626
#
# Velocity S-wave (km/s) = 3.38086 3.86894 3.63311
# Velocity P-wave (km/s) = 5.76278 6.55450 6.17135
#
# Compressibility (1/GPa) = 0.02609783
#
# Stress axis : x y z
#
# Youngs Moduli (GPa) = 54.15720 94.48985 84.32843
#
# Poissons Ratio (x) = -0.24556 0.41587
# Poissons Ratio (y) = -0.14074 0.42767
# Poissons Ratio (z) = 0.26708 0.47921
#
# Static dielectric constant tensor:
#      x y z
#    x 1.815950 0.000000 0.003040 
#    y 0.000000 1.767090 0.000000 
#    z 0.003040 0.000000 1.814170 
# 
# From -- ./inp_files/221923.got.cif
#   From: 2010.05.17/outbox.cif.g08.bks.cpg/sg15_111_cif.got.tgz:221923.got - 2010.06.03 18:47:42.
