data_PCOD9291206
_publ_section_title
;
Structure prediction by ZEFSAII (Michael W. Deem and Ramdas Pophale) SiO2 
 PCOD9291206
Probable space group: C 2/C
;
_chemical_formula_sum "Si O2"
_cell_formula_units_Z 44
_cell_length_a 23.003624
_cell_length_b 19.555306
_cell_length_c 5.324582
_cell_angle_alpha 90.000000
_cell_angle_beta 126.517406
_cell_angle_gamma 90.000000
_cell_volume 1924.985493
_symmetry_space_group_name_H-M "C 2/C"
_symmetry_group_IT_number 15
_symmetry_cell_setting 'monoclinic'
loop_
_space_group_symop_operation_xyz
x,y,z
-x,y,1/2-z
-x,-y,-z
x,-y,1/2+z
1/2+x,1/2+y,z
1/2-x,1/2+y,1/2-z
1/2-x,1/2-y,-z
1/2+x,1/2-y,1/2+z
loop_
_atom_site_type_symbol
_atom_site_label
_atom_site_fract_x
_atom_site_fract_y
_atom_site_fract_z
Si Si1 0.564885 0.835661 0.571630
Si Si2 0.675724 0.737132 0.665400
Si Si3 0.000000 0.215759 0.750000
Si Si4 0.381214 0.031996 0.036382
Si Si5 0.284645 0.477286 0.850410
Si Si6 0.650747 0.663543 0.100612
O O1 0.626419 0.804719 0.549647
O O2 0.528065 0.770821 0.615865
O O3 0.603298 0.889635 0.854088
O O4 0.500000 0.869045 0.250000
O O5 0.683828 0.711853 0.403254
O O6 0.750000 0.750000 0.000000
O O7 0.643146 0.684956 0.788414
O O8 0.932344 0.166828 0.516237
O O9 0.411571 0.987939 0.345439
O O10 0.296145 0.008120 0.811476
O O11 0.318487 0.522120 0.714762
O O12 0.297305 0.401918 0.774846
#
# Coordination Sequence:
#
# PCOD9291206 Si02
#       6
#     8   8   4   8   8   8
#     4  11  24  44  67  95 143 170 228 268 340 410
#     4  11  25  39  69 104 126 179 223 295 335 384
#     4  10  24  46  66 104 128 186 214 286 338 406
#     4  10  25  40  64  90 131 179 218 267 322 394
#     4  10  22  42  65  95 131 173 217 275 330 391
#     4  11  23  43  70  94 140 168 229 278 340 401
#
# _framework density 22.857313999999999
#
# number of rings (size 3 to 8) (size 9 to 14) (size 15 to 20)
#    0.000    1.455    1.818    1.636   12.727    0.727 
#    0.000    0.909    0.000    0.000    0.000    0.000 
#    0.000    0.000    0.000    0.000    0.000    0.000 
#
# Total GULP energy -122490.125080 kJ/mol
# GULP energy per Si atom -5567.732958 kJ/mol
# Density = 2.280529 g / cm^3
# Si number density = 22.857314 Si / 1000 Ang^3
#
#
#
# Elastic Constant Matrix: (Units=GPa)
#
#
# Indices 1 2 3 4 5 6 
#
# 1 75.5294 37.3557 29.6538 0.0000 5.8572 0.0000
# 2 37.3557 48.9112 16.4069 0.0000 15.8833 0.0000
# 3 29.6538 16.4069 78.0572 0.0000 -0.1476 0.0000
# 4 0.0000 0.0000 0.0000 16.0157 0.0000 -0.6164
# 5 5.8572 15.8833 -0.1476 0.0000 54.7479 0.0000
# 6 0.0000 0.0000 0.0000 -0.6164 0.0000 31.7271
#
#
#
# Elastic Compliance Matrix: (Units=1/GPa)
#
#
# Indices 1 2 3 4 5 6 
#
# 1 0.023555 -0.016961 -0.005379 0.000000 0.002386 0.000000
# 2 -0.016961 0.036700 -0.001287 0.000000 -0.008836 0.000000
# 3 -0.005379 -0.001287 0.015127 0.000000 0.000990 0.000000
# 4 0.000000 0.000000 0.000000 0.062486 0.000000 0.001214
# 5 0.002386 -0.008836 0.000990 0.000000 0.020577 0.000000
# 6 0.000000 0.000000 0.000000 0.001214 0.000000 0.031542
#
#
# Mechanical properties :
#
#
# Convention : Reuss Voigt Hill
#
# Bulk Modulus (GPa) = 35.55154 41.03671 38.29413
# Shear Modulus (GPa) = 20.27432 28.43689 24.35561
#
# Velocity S-wave (km/s) = 2.98148 3.53101 3.26782
# Velocity P-wave (km/s) = 5.23829 5.88358 5.57029
#
# Compressibility (1/GPa) = 0.02812817
#
# Stress axis : x y z
#
# Youngs Moduli (GPa) = 42.45344 27.24783 66.10647
#
# Poissons Ratio (x) = 0.46214 0.35559
# Poissons Ratio (y) = 0.72004 0.08511
# Poissons Ratio (z) = 0.22836 0.03508
#
# Static dielectric constant tensor:
#      x y z
#    x 1.873050 0.000000 0.050450 
#    y 0.000000 1.966770 0.000000 
#    z 0.050450 0.000000 2.028060 
# 
# From -- ./inp_files/10337.got.cif
#   From: 2010.05.17/outbox.cif.g08.bks.cpg/sg15_6_cif.got.tgz:10337.got - 2010.06.03 18:47:42.
