data_PCOD9291223
_publ_section_title
;
Structure prediction by ZEFSAII (Michael W. Deem and Ramdas Pophale) SiO2 
 PCOD9291223
Probable space group: C 2/C
;
_chemical_formula_sum "Si O2"
_cell_formula_units_Z 56
_cell_length_a 14.971789
_cell_length_b 17.293174
_cell_length_c 8.921456
_cell_angle_alpha 90.000000
_cell_angle_beta 93.069641
_cell_angle_gamma 90.000000
_cell_volume 2306.537752
_symmetry_space_group_name_H-M "C 2/C"
_symmetry_group_IT_number 15
_symmetry_cell_setting 'monoclinic'
loop_
_space_group_symop_operation_xyz
x,y,z
-x,y,1/2-z
-x,-y,-z
x,-y,1/2+z
1/2+x,1/2+y,z
1/2-x,1/2+y,1/2-z
1/2-x,1/2-y,-z
1/2+x,1/2-y,1/2+z
loop_
_atom_site_type_symbol
_atom_site_label
_atom_site_fract_x
_atom_site_fract_y
_atom_site_fract_z
Si Si1 0.390373 0.032007 0.162001
Si Si2 0.240759 0.299347 0.149378
Si Si3 0.717148 0.539214 0.970620
Si Si4 0.851122 0.748046 0.573845
Si Si5 0.547768 0.901824 0.527218
Si Si6 0.899888 0.971000 0.783043
Si Si7 0.914049 0.154965 0.839481
O O1 0.395862 0.056832 0.333936
O O2 0.446381 0.099375 0.079978
O O3 0.292209 0.013273 0.094421
O O4 0.445134 0.957117 0.114918
O O5 0.234902 0.390671 0.111561
O O6 0.164034 0.265877 0.251091
O O7 0.333608 0.300443 0.249221
O O8 0.250000 0.250000 0.000000
O O9 0.672050 0.475904 0.858933
O O10 0.637846 0.570398 0.072042
O O11 0.750000 0.750000 0.500000
O O12 0.906119 0.677151 0.509924
O O13 0.904653 0.820682 0.511795
O O14 0.905037 0.062612 0.825957
O O15 0.000000 0.947365 0.750000
O O16 0.000000 0.176577 0.750000
#
# Coordination Sequence:
#
# PCOD9291223 Si02
#       7
#     8   8   8   8   8   8   8
#     4  10  23  39  63  93 132 172 219 276 332 403
#     4  10  24  42  59  92 127 163 222 271 324 396
#     4  11  23  38  66  93 128 170 214 279 338 403
#     4  10  23  40  65  90 127 174 229 268 335 411
#     4  10  23  41  61  94 132 174 227 271 337 402
#     4  10  22  42  65  98 129 167 221 276 340 409
#     4   9  21  41  66  89 125 170 214 267 333 403
#
# _framework density 24.278813
#
# number of rings (size 3 to 8) (size 9 to 14) (size 15 to 20)
#    0.000    2.000    0.000    1.286   14.000    1.143 
#    0.000    2.143    0.000    0.000    0.000    0.000 
#    0.000    0.000    0.000    0.000    0.000    0.000 
#
# Total GULP energy -156420.489646 kJ/mol
# GULP energy per Si atom -5586.446059 kJ/mol
# Density = 2.422355 g / cm^3
# Si number density = 24.278813 Si / 1000 Ang^3
#
#
#
# Elastic Constant Matrix: (Units=GPa)
#
#
# Indices 1 2 3 4 5 6 
#
# 1 98.3821 11.9262 38.6914 0.0000 -9.3506 0.0000
# 2 11.9262 64.1113 31.5948 0.0000 -6.1918 0.0000
# 3 38.6914 31.5948 137.7987 0.0000 -11.5618 0.0000
# 4 0.0000 0.0000 0.0000 32.5052 0.0000 -8.9646
# 5 -9.3506 -6.1918 -11.5618 0.0000 37.7158 0.0000
# 6 0.0000 0.0000 0.0000 -8.9646 0.0000 23.3837
#
#
#
# Elastic Compliance Matrix: (Units=1/GPa)
#
#
# Indices 1 2 3 4 5 6 
#
# 1 0.011575 -0.000505 -0.002977 0.000000 0.001874 0.000000
# 2 -0.000505 0.017713 -0.003783 0.000000 0.001623 0.000000
# 3 -0.002977 -0.003783 0.009080 0.000000 0.001424 0.000000
# 4 0.000000 0.000000 0.000000 0.034402 0.000000 0.013189
# 5 0.001874 0.001623 0.001424 0.000000 0.027682 0.000000
# 6 0.000000 0.000000 0.000000 0.013189 0.000000 0.047821
#
#
# Mechanical properties :
#
#
# Convention : Reuss Voigt Hill
#
# Bulk Modulus (GPa) = 41.95193 51.63522 46.79358
# Shear Modulus (GPa) = 29.28294 33.25956 31.27125
#
# Velocity S-wave (km/s) = 3.47668 3.70523 3.59277
# Velocity P-wave (km/s) = 5.78214 6.29434 6.04367
#
# Compressibility (1/GPa) = 0.02383680
#
# Stress axis : x y z
#
# Youngs Moduli (GPa) = 86.39657 56.45556 110.13506
#
# Poissons Ratio (x) = 0.02852 0.32786
# Poissons Ratio (y) = 0.04364 0.41667
# Poissons Ratio (z) = 0.25719 0.21359
#
# Static dielectric constant tensor:
#      x y z
#    x 1.925180 0.000000 0.054680 
#    y 0.000000 1.972070 0.000000 
#    z 0.054680 0.000000 2.006880 
# 
# From -- ./inp_files/49687.got.cif
#   From: 2010.05.17/outbox.cif.g08.bks.cpg/sg15_25_cif.got.tgz:49687.got - 2010.06.03 18:47:42.
