data_PCOD9291303
_publ_section_title
;
Structure prediction by ZEFSAII (Michael W. Deem and Ramdas Pophale) SiO2 
 PCOD9291303
Probable space group: C 2/C
;
_chemical_formula_sum "Si O2"
_cell_formula_units_Z 60
_cell_length_a 21.841095
_cell_length_b 25.472643
_cell_length_c 8.245032
_cell_angle_alpha 90.000000
_cell_angle_beta 41.265129
_cell_angle_gamma 90.000000
_cell_volume 3025.413527
_symmetry_space_group_name_H-M "C 2/C"
_symmetry_group_IT_number 15
_symmetry_cell_setting 'monoclinic'
loop_
_space_group_symop_operation_xyz
x,y,z
-x,y,1/2-z
-x,-y,-z
x,-y,1/2+z
1/2+x,1/2+y,z
1/2-x,1/2+y,1/2-z
1/2-x,1/2-y,-z
1/2+x,1/2-y,1/2+z
loop_
_atom_site_type_symbol
_atom_site_label
_atom_site_fract_x
_atom_site_fract_y
_atom_site_fract_z
Si Si1 0.501960 0.166936 0.058924
Si Si2 0.022816 0.059414 0.395151
Si Si3 0.500000 0.979284 0.750000
Si Si4 0.289971 0.606395 0.319103
Si Si5 0.597843 0.064928 0.769833
Si Si6 0.919149 0.151854 0.784450
Si Si7 0.354104 0.755347 0.730141
Si Si8 0.824345 0.711253 0.918678
O O1 0.500000 0.152069 0.250000
O O2 0.406940 0.194920 0.201687
O O3 0.536662 0.118647 0.876783
O O4 0.582531 0.209550 0.870778
O O5 0.956412 0.101576 0.613658
O O6 0.000000 0.061066 0.250000
O O7 0.126026 0.080458 0.243619
O O8 0.000000 0.000000 0.500000
O O9 0.551588 0.017725 0.768325
O O10 0.579981 0.947753 0.494811
O O11 0.202701 0.567068 0.495053
O O12 0.230818 0.656631 0.496459
O O13 0.334928 0.629270 0.063365
O O14 0.898861 0.200477 0.704364
O O15 0.000000 0.168319 0.750000
O O16 0.351668 0.769687 0.544515
O O17 0.250000 0.750000 0.000000
O O18 0.750000 0.750000 0.000000
#
# Coordination Sequence:
#
# PCOD9291303 Si02
#       8
#     8   8   4   8   8   8   8   8
#     4  11  24  42  64  92 137 172 220 277 336 393
#     4  11  25  45  71  98 133 178 226 282 352 407
#     4  10  22  42  66  94 126 174 222 274 336 392
#     4  10  23  44  65  99 133 174 220 280 332 401
#     4  10  23  42  66  95 131 173 222 277 337 394
#     4  10  23  43  69  96 139 174 223 281 335 404
#     4  12  24  40  66  99 129 183 220 266 343 397
#     4  11  25  41  64  96 134 171 223 271 325 410
#
# _framework density 19.832000000000001
#
# number of rings (size 3 to 8) (size 9 to 14) (size 15 to 20)
#    0.000    1.333    2.000    2.800    9.333    2.133 
#    0.000    2.667    0.000    0.000    0.000    0.000 
#    0.000    0.000    0.000    0.000    0.000    0.000 
#
# Total GULP energy -167049.791720 kJ/mol
# GULP energy per Si atom -5568.326391 kJ/mol
# Density = 1.978686 g / cm^3
# Si number density = 19.832000 Si / 1000 Ang^3
#
#
#
# Elastic Constant Matrix: (Units=GPa)
#
#
# Indices 1 2 3 4 5 6 
#
# 1 89.3150 41.4578 16.8121 0.0000 -0.4767 0.0000
# 2 41.4578 88.1690 6.4689 0.0000 -14.9487 0.0000
# 3 16.8121 6.4689 88.0302 0.0000 -22.9749 0.0000
# 4 0.0000 0.0000 0.0000 37.6333 0.0000 2.8436
# 5 -0.4767 -14.9487 -22.9749 0.0000 27.8180 0.0000
# 6 0.0000 0.0000 0.0000 2.8436 0.0000 37.4859
#
#
#
# Elastic Compliance Matrix: (Units=1/GPa)
#
#
# Indices 1 2 3 4 5 6 
#
# 1 0.015970 -0.008543 -0.004524 0.000000 -0.008054 0.000000
# 2 -0.008543 0.017127 0.003489 0.000000 0.011939 0.000000
# 3 -0.004524 0.003489 0.015854 0.000000 0.014891 0.000000
# 4 0.000000 0.000000 0.000000 0.026725 0.000000 -0.002027
# 5 -0.008054 0.011939 0.014891 0.000000 0.054524 0.000000
# 6 0.000000 0.000000 0.000000 -0.002027 0.000000 0.026830
#
#
# Mechanical properties :
#
#
# Convention : Reuss Voigt Hill
#
# Bulk Modulus (GPa) = 33.56319 43.88798 38.72558
# Shear Modulus (GPa) = 26.86458 33.97246 30.41852
#
# Velocity S-wave (km/s) = 3.68449 4.14335 3.92064
# Velocity P-wave (km/s) = 5.92124 6.71325 6.32964
#
# Compressibility (1/GPa) = 0.02979455
#
# Stress axis : x y z
#
# Youngs Moduli (GPa) = 62.61607 58.38747 63.07661
#
# Poissons Ratio (x) = 0.49880 0.28537
# Poissons Ratio (y) = 0.53492 -0.22006
# Poissons Ratio (z) = 0.28328 -0.20370
#
# Static dielectric constant tensor:
#      x y z
#    x 1.318800 0.000000 0.210840 
#    y 0.000000 1.781210 0.000000 
#    z 0.210840 0.000000 1.677820 
# 
# From -- ./inp_files/58744.got.cif
#   From: 2010.05.17/outbox.cif.g08.bks.cpg/sg15_30_cif.got.tgz:58744.got - 2010.06.03 18:47:42.
