data_PCOD9291056
_publ_section_title
;
Structure prediction by ZEFSAII (Michael W. Deem and Ramdas Pophale) SiO2 
 PCOD9291056
Probable space group: C 2/C
;
_chemical_formula_sum "Si O2"
_cell_formula_units_Z 44
_cell_length_a 16.395243
_cell_length_b 17.033853
_cell_length_c 19.932845
_cell_angle_alpha 90.000000
_cell_angle_beta 158.606240
_cell_angle_gamma 90.000000
_cell_volume 2030.605526
_symmetry_space_group_name_H-M "C 2/C"
_symmetry_group_IT_number 15
_symmetry_cell_setting 'monoclinic'
loop_
_space_group_symop_operation_xyz
x,y,z
-x,y,1/2-z
-x,-y,-z
x,-y,1/2+z
1/2+x,1/2+y,z
1/2-x,1/2+y,1/2-z
1/2-x,1/2-y,-z
1/2+x,1/2-y,1/2+z
loop_
_atom_site_type_symbol
_atom_site_label
_atom_site_fract_x
_atom_site_fract_y
_atom_site_fract_z
Si Si1 0.423903 0.543133 0.556741
Si Si2 0.144900 0.512740 0.543267
Si Si3 0.060902 0.322567 0.649195
Si Si4 0.000000 0.653200 0.250000
Si Si5 0.106943 0.586961 0.759308
Si Si6 0.054219 0.169765 0.556370
O O1 0.592597 0.507391 0.739548
O O2 0.306449 0.476122 0.423111
O O3 0.572960 0.601461 0.626048
O O4 0.217027 0.597047 0.422496
O O5 0.000000 0.500000 0.500000
O O6 0.088332 0.601403 0.477458
O O7 0.062600 0.452807 0.423018
O O8 0.025221 0.299587 0.700190
O O9 0.022267 0.251966 0.569208
O O10 0.320443 0.346678 0.840464
O O11 0.227475 0.663272 0.821686
O O12 0.000000 0.599195 0.750000
#
# Coordination Sequence:
#
# PCOD9291056 Si02
#       6
#     8   8   8   4   8   8
#     4  11  21  42  69 100 140 171 220 273 345 408
#     4  12  23  40  75 103 131 181 228 270 338 411
#     4  11  24  42  65 100 134 178 226 269 351 401
#     4  10  22  42  64 102 140 172 208 294 340 400
#     4  12  24  45  67 103 135 175 230 283 333 387
#     4  11  23  42  67  92 142 181 218 278 333 417
#
# _framework density 21.668413999999999
#
# number of rings (size 3 to 8) (size 9 to 14) (size 15 to 20)
#    0.000    0.727    6.364    2.727    0.000    5.818 
#    0.000    2.727    0.000    0.000    0.000    0.000 
#    0.000    0.000    0.000    0.000    0.000    0.000 
#
# Total GULP energy -123064.203353 kJ/mol
# GULP energy per Si atom -5593.827425 kJ/mol
# Density = 2.161910 g / cm^3
# Si number density = 21.668414 Si / 1000 Ang^3
#
#
#
# Elastic Constant Matrix: (Units=GPa)
#
#
# Indices 1 2 3 4 5 6 
#
# 1 134.4746 12.7649 12.8912 0.0299 5.8113 0.0049
# 2 12.7649 28.2097 -7.6780 0.0433 1.3275 0.0099
# 3 12.8912 -7.6780 136.2290 0.0744 -5.8058 0.0279
# 4 0.0299 0.0433 0.0744 17.6139 0.0086 -1.5113
# 5 5.8113 1.3275 -5.8058 0.0086 25.2006 0.0003
# 6 0.0049 0.0099 0.0279 -1.5113 0.0003 28.0410
#
#
#
# Elastic Compliance Matrix: (Units=1/GPa)
#
#
# Indices 1 2 3 4 5 6 
#
# 1 0.007980 -0.003808 -0.001050 0.000001 -0.001881 0.000001
# 2 -0.003808 0.037871 0.002472 -0.000099 -0.000547 -0.000020
# 3 -0.001050 0.002472 0.007659 -0.000038 0.001876 -0.000010
# 4 0.000001 -0.000099 -0.000038 0.057038 -0.000023 0.003074
# 5 -0.001881 -0.000547 0.001876 -0.000023 0.040577 -0.000003
# 6 0.000001 -0.000020 -0.000010 0.003074 -0.000003 0.035828
#
#
# Mechanical properties :
#
#
# Convention : Reuss Voigt Hill
#
# Bulk Modulus (GPa) = 20.51847 37.20773 28.86310
# Shear Modulus (GPa) = 24.04192 32.90011 28.47101
#
# Velocity S-wave (km/s) = 3.33459 3.90082 3.62876
# Velocity P-wave (km/s) = 4.93111 6.12350 5.55936
#
# Compressibility (1/GPa) = 0.04873658
#
# Stress axis : x y z
#
# Youngs Moduli (GPa) = 125.31664 26.40571 130.56143
#
# Poissons Ratio (x) = 0.10056 0.13708
# Poissons Ratio (y) = 0.47722 -0.32268
# Poissons Ratio (z) = 0.13157 -0.06526
#
# Static dielectric constant tensor:
#      x y z
#    x 1.862880 0.000000 -0.008790 
#    y 0.000000 1.792180 -0.000030 
#    z -0.008790 -0.000030 1.803650 
# 
# From -- ./inp_files/249669.got.cif
#   From: 2010.05.17/outbox.cif.g08.bks.cpg/sg15_125_cif.got.tgz:249669.got - 2010.06.03 18:47:42.
