data_PCOD9291590
_publ_section_title
;
Structure prediction by ZEFSAII (Michael W. Deem and Ramdas Pophale) SiO2 
 PCOD9291590
Probable space group: C 2/C
;
_chemical_formula_sum "Si O2"
_cell_formula_units_Z 60
_cell_length_a 17.631216
_cell_length_b 11.089287
_cell_length_c 21.589339
_cell_angle_alpha 90.000000
_cell_angle_beta 140.149164
_cell_angle_gamma 90.000000
_cell_volume 2704.840833
_symmetry_space_group_name_H-M "C 2/C"
_symmetry_group_IT_number 15
_symmetry_cell_setting 'monoclinic'
loop_
_space_group_symop_operation_xyz
x,y,z
-x,y,1/2-z
-x,-y,-z
x,-y,1/2+z
1/2+x,1/2+y,z
1/2-x,1/2+y,1/2-z
1/2-x,1/2-y,-z
1/2+x,1/2-y,1/2+z
loop_
_atom_site_type_symbol
_atom_site_label
_atom_site_fract_x
_atom_site_fract_y
_atom_site_fract_z
Si Si1 0.000000 0.986565 0.250000
Si Si2 0.301522 0.664118 0.585618
Si Si3 0.978105 0.869839 0.958253
Si Si4 0.371271 0.221062 0.362181
Si Si5 0.288745 0.819066 0.688939
Si Si6 0.938170 0.536816 0.028114
Si Si7 0.563809 0.064056 0.722681
Si Si8 0.127669 0.839462 0.740897
O O1 0.913204 0.074462 0.231392
O O2 0.920109 0.913187 0.150532
O O3 0.250000 0.750000 0.500000
O O4 0.342004 0.757141 0.663305
O O5 0.197736 0.576960 0.548187
O O6 0.852383 0.824657 0.906028
O O7 0.954101 0.863321 0.870286
O O8 0.088083 0.794126 0.053019
O O9 0.000000 0.000000 0.000000
O O10 0.315854 0.270525 0.263922
O O11 0.489094 0.158149 0.412376
O O12 0.264754 0.132177 0.312994
O O13 0.341392 0.954764 0.726441
O O14 0.975783 0.448248 0.107950
O O15 0.000000 0.500000 0.000000
O O16 0.500000 0.051723 0.750000
O O17 0.619647 0.197678 0.753000
#
# Coordination Sequence:
#
# PCOD9291590 Si02
#       8
#     4   8   8   8   8   8   8   8
#     4  12  30  48  70 100 150 186 232 300 362 444
#     4  12  28  46  72 105 145 189 245 299 376 437
#     4  11  23  41  73 102 137 177 241 298 352 423
#     4  10  22  42  69 100 136 177 237 301 348 413
#     4  10  24  41  71 103 134 184 236 298 355 420
#     4  11  23  43  73 101 139 190 246 301 360 434
#     4  11  23  44  68 102 149 192 234 285 367 441
#     4  11  25  47  68 106 142 190 235 289 367 437
#
# _framework density 22.182452000000001
#
# number of rings (size 3 to 8) (size 9 to 14) (size 15 to 20)
#    0.000    1.067    2.000    3.200   10.267    0.000 
#    2.400    1.333    0.000    0.000    0.000    0.000 
#    0.000    0.000    0.000    0.000    0.000    0.000 
#
# Total GULP energy -167234.736239 kJ/mol
# GULP energy per Si atom -5574.491208 kJ/mol
# Density = 2.213196 g / cm^3
# Si number density = 22.182452 Si / 1000 Ang^3
#
#
#
# Elastic Constant Matrix: (Units=GPa)
#
#
# Indices 1 2 3 4 5 6 
#
# 1 81.5159 10.3689 37.4654 0.0000 -10.1323 0.0000
# 2 10.3689 49.8007 41.6428 0.0000 1.0845 0.0000
# 3 37.4654 41.6428 134.1336 0.0000 6.1806 0.0000
# 4 0.0000 0.0000 0.0000 27.0892 0.0000 -3.0035
# 5 -10.1323 1.0845 6.1806 0.0000 30.9923 0.0000
# 6 0.0000 0.0000 0.0000 -3.0035 0.0000 32.2216
#
#
#
# Elastic Compliance Matrix: (Units=1/GPa)
#
#
# Indices 1 2 3 4 5 6 
#
# 1 0.015059 0.000648 -0.004676 0.000000 0.005833 0.000000
# 2 0.000648 0.027165 -0.008660 0.000000 0.000988 0.000000
# 3 -0.004676 -0.008660 0.011613 0.000000 -0.003542 0.000000
# 4 0.000000 0.000000 0.000000 0.037301 0.000000 0.003477
# 5 0.005833 0.000988 -0.003542 0.000000 0.034845 0.000000
# 6 0.000000 0.000000 0.000000 0.003477 0.000000 0.031359
#
#
# Mechanical properties :
#
#
# Convention : Reuss Voigt Hill
#
# Bulk Modulus (GPa) = 35.13636 49.37827 42.25731
# Shear Modulus (GPa) = 26.01371 29.79216 27.90293
#
# Velocity S-wave (km/s) = 3.42821 3.66874 3.55051
# Velocity P-wave (km/s) = 5.61643 6.34465 5.99161
#
# Compressibility (1/GPa) = 0.02846055
#
# Stress axis : x y z
#
# Youngs Moduli (GPa) = 66.40349 36.81198 86.10932
#
# Poissons Ratio (x) = -0.02384 0.40266
# Poissons Ratio (y) = -0.04301 0.74571
# Poissons Ratio (z) = 0.31051 0.31879
#
# Static dielectric constant tensor:
#      x y z
#    x 3.857420 0.000000 -0.046670 
#    y 0.000000 1.938880 0.000000 
#    z -0.046670 0.000000 1.918170 
# 
# From -- ./inp_files/248788.got.cif
#   From: 2010.05.17/outbox.cif.g08.bks.cpg/sg15_125_cif.got.tgz:248788.got - 2010.06.03 18:47:42.
