data_PCOD9291947
_publ_section_title
;
Structure prediction by ZEFSAII (Michael W. Deem and Ramdas Pophale) SiO2 
 PCOD9291947
Probable space group: C 2/C
;
_chemical_formula_sum "Si O2"
_cell_formula_units_Z 32
_cell_length_a 9.332104
_cell_length_b 13.225350
_cell_length_c 13.968808
_cell_angle_alpha 90.000000
_cell_angle_beta 76.765442
_cell_angle_gamma 90.000000
_cell_volume 1678.246401
_symmetry_space_group_name_H-M "C 2/C"
_symmetry_group_IT_number 15
_symmetry_cell_setting 'monoclinic'
loop_
_space_group_symop_operation_xyz
x,y,z
-x,y,1/2-z
-x,-y,-z
x,-y,1/2+z
1/2+x,1/2+y,z
1/2-x,1/2+y,1/2-z
1/2-x,1/2-y,-z
1/2+x,1/2-y,1/2+z
loop_
_atom_site_type_symbol
_atom_site_label
_atom_site_fract_x
_atom_site_fract_y
_atom_site_fract_z
Si Si1 0.371610 0.924294 0.547612
Si Si2 0.640493 0.540655 0.920981
Si Si3 0.328285 0.598865 0.252121
Si Si4 0.396834 0.746292 0.675325
O O1 0.261494 0.916070 0.475323
O O2 0.433865 0.818030 0.578475
O O3 0.269325 0.959141 0.652862
O O4 0.500000 0.000000 0.500000
O O5 0.699794 0.449639 0.846496
O O6 0.597063 0.631104 0.856680
O O7 0.500000 0.500000 0.000000
O O8 0.500000 0.593376 0.250000
O O9 0.265061 0.712451 0.270804
O O10 0.500000 0.766785 0.750000
#
# Coordination Sequence:
#
# PCOD9291947 Si02
#       4
#     8   8   8   8
#     4  10  23  42  65  94 130 164 219 265 320 383
#     4  12  22  42  68  93 131 170 215 264 323 386
#     4  10  22  43  63  95 131 170 215 269 317 378
#     4  10  23  42  63  93 132 164 220 259 322 381
#
# _framework density 19.067522
#
# number of rings (size 3 to 8) (size 9 to 14) (size 15 to 20)
#    1.500    0.000    2.500    3.000    0.000    0.000 
#    9.000    2.500    0.000    0.000    0.000    0.000 
#    0.000    0.000    0.000    0.000    0.000    0.000 
#
# Total GULP energy -89136.660360 kJ/mol
# GULP energy per Si atom -5571.041273 kJ/mol
# Density = 1.902412 g / cm^3
# Si number density = 19.067522 Si / 1000 Ang^3
#
#
#
# Elastic Constant Matrix: (Units=GPa)
#
#
# Indices 1 2 3 4 5 6 
#
# 1 95.7095 12.3109 24.7259 0.0000 6.2038 0.0000
# 2 12.3109 79.4604 22.4434 0.0000 -10.6571 0.0000
# 3 24.7259 22.4434 94.4736 0.0000 -11.8280 0.0000
# 4 0.0000 0.0000 0.0000 42.4146 0.0000 4.5958
# 5 6.2038 -10.6571 -11.8280 0.0000 40.3384 0.0000
# 6 0.0000 0.0000 0.0000 4.5958 0.0000 25.1799
#
#
#
# Elastic Compliance Matrix: (Units=1/GPa)
#
#
# Indices 1 2 3 4 5 6 
#
# 1 0.011620 -0.001332 -0.003107 0.000000 -0.003050 0.000000
# 2 -0.001332 0.013937 -0.002570 0.000000 0.003133 0.000000
# 3 -0.003107 -0.002570 0.012440 0.000000 0.003446 0.000000
# 4 0.000000 0.000000 0.000000 0.024052 0.000000 -0.004390
# 5 -0.003050 0.003133 0.003446 0.000000 0.027098 0.000000
# 6 0.000000 0.000000 0.000000 -0.004390 0.000000 0.040515
#
#
# Mechanical properties :
#
#
# Convention : Reuss Voigt Hill
#
# Bulk Modulus (GPa) = 41.70118 43.17821 42.43970
# Shear Modulus (GPa) = 32.96554 35.59748 34.28151
#
# Velocity S-wave (km/s) = 4.16250 4.32547 4.24477
# Velocity P-wave (km/s) = 6.70966 6.90220 6.80661
#
# Compressibility (1/GPa) = 0.02398014
#
# Stress axis : x y z
#
# Youngs Moduli (GPa) = 86.05951 71.74941 80.38522
#
# Poissons Ratio (x) = 0.09556 0.24973
# Poissons Ratio (y) = 0.11462 0.20660
# Poissons Ratio (z) = 0.26735 0.18440
#
# Static dielectric constant tensor:
#      x y z
#    x 1.659300 0.000000 0.015640 
#    y 0.000000 1.686210 0.000000 
#    z 0.015640 0.000000 1.668050 
# 
# From -- ./inp_files/187543.got.cif
#   From: 2010.05.17/outbox.cif.g08.bks.cpg/sg15_94_cif.got.tgz:187543.got - 2010.06.03 18:47:42.
