data_PCOD9291849
_publ_section_title
;
Structure prediction by ZEFSAII (Michael W. Deem and Ramdas Pophale) SiO2 
 PCOD9291849
Probable space group: C 2/C
;
_chemical_formula_sum "Si O2"
_cell_formula_units_Z 48
_cell_length_a 15.021008
_cell_length_b 27.326601
_cell_length_c 8.442504
_cell_angle_alpha 90.000000
_cell_angle_beta 39.805407
_cell_angle_gamma 90.000000
_cell_volume 2218.500661
_symmetry_space_group_name_H-M "C 2/C"
_symmetry_group_IT_number 15
_symmetry_cell_setting 'monoclinic'
loop_
_space_group_symop_operation_xyz
x,y,z
-x,y,1/2-z
-x,-y,-z
x,-y,1/2+z
1/2+x,1/2+y,z
1/2-x,1/2+y,1/2-z
1/2-x,1/2-y,-z
1/2+x,1/2-y,1/2+z
loop_
_atom_site_type_symbol
_atom_site_label
_atom_site_fract_x
_atom_site_fract_y
_atom_site_fract_z
Si Si1 0.139092 0.539939 0.462932
Si Si2 0.000000 0.040455 0.750000
Si Si3 0.712855 0.463861 0.425159
Si Si4 0.834999 0.203939 0.948777
Si Si5 0.092011 0.346753 0.960836
Si Si6 0.500000 0.868870 0.750000
Si Si7 0.196228 0.107125 0.696173
O O1 0.157935 0.493830 0.323475
O O2 0.261763 0.540404 0.425440
O O3 0.129387 0.595383 0.411699
O O4 0.000000 0.533253 0.750000
O O5 0.900372 0.073804 0.781393
O O6 0.096019 0.001750 0.531573
O O7 0.679230 0.411574 0.397072
O O8 0.831305 0.162177 0.817946
O O9 0.000000 0.213522 0.750000
O O10 0.750000 0.250000 0.000000
O O11 0.738381 0.182146 0.226344
O O12 0.007388 0.339808 0.908913
O O13 0.000000 0.337019 0.250000
O O14 0.639782 0.900126 0.555654
#
# Coordination Sequence:
#
# PCOD9291849 Si02
#       7
#     8   4   8   8   8   4   8
#     4  11  24  40  63 104 141 188 238 288 349 427
#     4  12  24  42  59 100 144 184 227 282 358 436
#     4  12  24  38  65  95 147 190 236 279 356 436
#     4  11  26  47  79 106 140 191 249 308 384 442
#     4  10  23  46  76 106 151 187 243 311 368 437
#     4  10  22  42  73 100 136 192 245 286 364 426
#     4  11  23  41  69  96 139 186 232 294 357 426
#
# _framework density 21.636234000000002
#
# number of rings (size 3 to 8) (size 9 to 14) (size 15 to 20)
#    0.000    1.000    2.500    5.000    5.833    0.000 
#    0.000    0.833    1.833    0.000    0.000    0.000 
#    0.000    0.000    0.000    0.000    0.000    0.000 
#
# Total GULP energy -133724.112352 kJ/mol
# GULP energy per Si atom -5571.838015 kJ/mol
# Density = 2.158699 g / cm^3
# Si number density = 21.636234 Si / 1000 Ang^3
#
#
#
# Elastic Constant Matrix: (Units=GPa)
#
#
# Indices 1 2 3 4 5 6 
#
# 1 138.9645 32.3294 62.5666 0.0000 -7.1937 0.0000
# 2 32.3294 116.0520 36.2602 0.0000 -0.8020 0.0000
# 3 62.5666 36.2602 111.2743 0.0000 -0.1796 0.0000
# 4 0.0000 0.0000 0.0000 30.4552 0.0000 -1.0700
# 5 -7.1937 -0.8020 -0.1796 0.0000 46.7044 0.0000
# 6 0.0000 0.0000 0.0000 -1.0700 0.0000 34.0856
#
#
#
# Elastic Compliance Matrix: (Units=1/GPa)
#
#
# Indices 1 2 3 4 5 6 
#
# 1 0.009865 -0.001120 -0.005180 0.000000 0.001480 0.000000
# 2 -0.001120 0.009722 -0.002538 0.000000 -0.000015 0.000000
# 3 -0.005180 -0.002538 0.012725 0.000000 -0.000792 0.000000
# 4 0.000000 0.000000 0.000000 0.032871 0.000000 0.001032
# 5 0.001480 -0.000015 -0.000792 0.000000 0.021636 0.000000
# 6 0.000000 0.000000 0.000000 0.001032 0.000000 0.029370
#
#
# Mechanical properties :
#
#
# Convention : Reuss Voigt Hill
#
# Bulk Modulus (GPa) = 68.32216 69.84480 69.08348
# Shear Modulus (GPa) = 36.03750 37.92468 36.98109
#
# Velocity S-wave (km/s) = 4.08561 4.19123 4.13876
# Velocity P-wave (km/s) = 7.34183 7.46815 7.40526
#
# Compressibility (1/GPa) = 0.01463654
#
# Stress axis : x y z
#
# Youngs Moduli (GPa) = 101.36545 102.86214 78.58449
#
# Poissons Ratio (x) = 0.11516 0.40705
# Poissons Ratio (y) = 0.11349 0.19948
# Poissons Ratio (z) = 0.52505 0.26111
#
# Static dielectric constant tensor:
#      x y z
#    x 1.805030 0.000000 0.016930 
#    y 0.000000 1.767910 0.000000 
#    z 0.016930 0.000000 1.836930 
# 
# From -- ./inp_files/43860.got.cif
#   From: 2010.05.17/outbox.cif.g08.bks.cpg/sg15_22_cif.got.tgz:43860.got - 2010.06.03 18:47:42.
