data_PCOD9291014
_publ_section_title
;
Structure prediction by ZEFSAII (Michael W. Deem and Ramdas Pophale) SiO2 
 PCOD9291014
Probable space group: C 2/C
;
_chemical_formula_sum "Si O2"
_cell_formula_units_Z 48
_cell_length_a 9.720727
_cell_length_b 9.794263
_cell_length_c 26.871103
_cell_angle_alpha 90.000000
_cell_angle_beta 90.091057
_cell_angle_gamma 90.000000
_cell_volume 2558.323460
_symmetry_space_group_name_H-M "C 2/C"
_symmetry_group_IT_number 15
_symmetry_cell_setting 'monoclinic'
loop_
_space_group_symop_operation_xyz
x,y,z
-x,y,1/2-z
-x,-y,-z
x,-y,1/2+z
1/2+x,1/2+y,z
1/2-x,1/2+y,1/2-z
1/2-x,1/2-y,-z
1/2+x,1/2-y,1/2+z
loop_
_atom_site_type_symbol
_atom_site_label
_atom_site_fract_x
_atom_site_fract_y
_atom_site_fract_z
Si Si1 0.981252 0.791227 0.807471
Si Si2 0.696337 0.527385 0.365047
Si Si3 0.797339 0.707519 0.136661
Si Si4 0.982662 0.474269 0.808710
Si Si5 0.660558 0.645415 0.032556
Si Si6 0.660584 0.636716 0.472645
O O1 0.822447 0.798054 0.822315
O O2 0.025055 0.633263 0.815323
O O3 0.000000 0.825379 0.750000
O O4 0.069827 0.893530 0.840441
O O5 0.666748 0.366476 0.372245
O O6 0.827232 0.539269 0.328660
O O7 0.720592 0.594455 0.418950
O O8 0.729992 0.647237 0.086689
O O9 0.923894 0.622075 0.157394
O O10 0.000000 0.442007 0.750000
O O11 0.498466 0.683155 0.034808
O O12 0.750000 0.750000 0.000000
O O13 0.663381 0.497760 0.006977
O O14 0.750000 0.750000 0.500000
#
# Coordination Sequence:
#
# PCOD9291014 Si02
#       6
#     8   8   8   8   8   8
#     4  10  22  42  63  88 125 160 204 257 303 364
#     4  11  23  40  61  94 122 157 208 248 304 370
#     4  11  23  40  64  90 126 161 201 256 307 363
#     4  10  24  41  63  93 122 160 205 248 305 366
#     4  11  24  43  61  91 126 158 205 256 305 362
#     4  11  26  41  64  92 122 162 210 251 307 371
#
# _framework density 18.762288000000002
#
# number of rings (size 3 to 8) (size 9 to 14) (size 15 to 20)
#    0.000    1.333    3.333    1.000    4.667    2.667 
#    0.000    0.000    0.000    0.000    0.000    0.000 
#    0.000    0.000    0.000    0.000    0.000    0.000 
#
# Total GULP energy -134090.502460 kJ/mol
# GULP energy per Si atom -5587.104269 kJ/mol
# Density = 1.871958 g / cm^3
# Si number density = 18.762288 Si / 1000 Ang^3
#
#
#
# Elastic Constant Matrix: (Units=GPa)
#
#
# Indices 1 2 3 4 5 6 
#
# 1 69.4896 38.1342 3.2495 0.0000 8.4359 0.0000
# 2 38.1342 62.2888 10.3982 0.0000 14.7707 0.0000
# 3 3.2495 10.3982 48.1623 0.0000 -9.6919 0.0000
# 4 0.0000 0.0000 0.0000 34.2154 0.0000 6.9216
# 5 8.4359 14.7707 -9.6919 0.0000 32.2805 0.0000
# 6 0.0000 0.0000 0.0000 6.9216 0.0000 27.5498
#
#
#
# Elastic Compliance Matrix: (Units=1/GPa)
#
#
# Indices 1 2 3 4 5 6 
#
# 1 0.021808 -0.013936 0.001781 0.000000 0.001213 0.000000
# 2 -0.013936 0.028642 -0.007608 0.000000 -0.011748 0.000000
# 3 0.001781 -0.007608 0.024364 0.000000 0.010331 0.000000
# 4 0.000000 0.000000 0.000000 0.030792 0.000000 -0.007736
# 5 0.001213 -0.011748 0.010331 0.000000 0.039139 0.000000
# 6 0.000000 0.000000 0.000000 -0.007736 0.000000 0.038241
#
#
# Mechanical properties :
#
#
# Convention : Reuss Voigt Hill
#
# Bulk Modulus (GPa) = 28.33692 31.50049 29.91871
# Shear Modulus (GPa) = 21.34257 27.35307 24.34782
#
# Velocity S-wave (km/s) = 3.37638 3.82236 3.60627
# Velocity P-wave (km/s) = 5.50780 6.02547 5.77244
#
# Compressibility (1/GPa) = 0.03528965
#
# Stress axis : x y z
#
# Youngs Moduli (GPa) = 45.85493 34.91386 41.04372
#
# Poissons Ratio (x) = 0.48656 -0.07312
# Poissons Ratio (y) = 0.63904 0.31224
# Poissons Ratio (z) = -0.08169 0.26561
#
# Static dielectric constant tensor:
#      x y z
#    x 1.624760 0.000000 -0.025510 
#    y 0.000000 1.634280 0.000000 
#    z -0.025510 0.000000 1.659610 
# 
# From -- ./inp_files/263575.got.cif
#   From: 2010.05.17/outbox.cif.g08.bks.cpg/sg15_132_cif.got.tgz:263575.got - 2010.06.03 18:47:42.
