data_PCOD9291417
_publ_section_title
;
Structure prediction by ZEFSAII (Michael W. Deem and Ramdas Pophale) SiO2 
 PCOD9291417
Probable space group: C 2/C
;
_chemical_formula_sum "Si O2"
_cell_formula_units_Z 60
_cell_length_a 9.795543
_cell_length_b 18.367541
_cell_length_c 24.186079
_cell_angle_alpha 90.000000
_cell_angle_beta 143.363669
_cell_angle_gamma 90.000000
_cell_volume 2596.723159
_symmetry_space_group_name_H-M "C 2/C"
_symmetry_group_IT_number 15
_symmetry_cell_setting 'monoclinic'
loop_
_space_group_symop_operation_xyz
x,y,z
-x,y,1/2-z
-x,-y,-z
x,-y,1/2+z
1/2+x,1/2+y,z
1/2-x,1/2+y,1/2-z
1/2-x,1/2-y,-z
1/2+x,1/2-y,1/2+z
loop_
_atom_site_type_symbol
_atom_site_label
_atom_site_fract_x
_atom_site_fract_y
_atom_site_fract_z
Si Si1 0.257457 0.823419 0.436806
Si Si2 0.752762 0.662152 0.760558
Si Si3 0.160442 0.659097 0.412505
Si Si4 0.904309 0.562985 0.908280
Si Si5 0.387442 0.314237 0.773103
Si Si6 0.377384 0.459720 0.604880
Si Si7 0.187622 0.022851 0.104704
Si Si8 0.500000 0.912369 0.250000
O O1 0.284515 0.737014 0.444917
O O2 0.260467 0.857034 0.499120
O O3 0.435853 0.870064 0.461236
O O4 0.018786 0.832495 0.327367
O O5 0.827083 0.601009 0.827535
O O6 0.873549 0.740941 0.806059
O O7 0.815595 0.637767 0.719254
O O8 0.228730 0.602093 0.387626
O O9 0.883302 0.666282 0.322743
O O10 0.717121 0.507720 0.873979
O O11 0.159773 0.532345 0.992578
O O12 0.500000 0.298275 0.750000
O O13 0.533783 0.380941 0.845527
O O14 0.588549 0.483292 0.634678
O O15 0.389528 0.964950 0.169094
O O16 0.000000 0.000000 0.000000
#
# Coordination Sequence:
#
# PCOD9291417 Si02
#       8
#     8   8   8   8   8   8   8   4
#     4  10  22  42  67  94 134 180 231 280 345 419
#     4  11  24  42  68  99 136 180 229 288 352 422
#     4  10  23  43  67  98 135 184 226 286 350 416
#     4  11  24  45  68  98 136 181 233 283 354 418
#     4  11  24  44  69 102 141 178 233 293 353 422
#     4  11  26  44  68 102 138 180 231 293 351 425
#     4  12  25  43  67  98 137 179 232 286 351 421
#     4  12  24  42  66  96 134 176 224 284 350 420
#
# _framework density 23.106044000000001
#
# number of rings (size 3 to 8) (size 9 to 14) (size 15 to 20)
#    0.000    1.067    0.667    5.200    1.867    5.867 
#    4.800    0.000    0.000    0.000    0.000    0.000 
#    0.000    0.000    0.000    0.000    0.000    0.000 
#
# Total GULP energy -167575.498577 kJ/mol
# GULP energy per Si atom -5585.849953 kJ/mol
# Density = 2.305345 g / cm^3
# Si number density = 23.106044 Si / 1000 Ang^3
#
#
#
# Elastic Constant Matrix: (Units=GPa)
#
#
# Indices 1 2 3 4 5 6 
#
# 1 84.5841 38.3040 11.5809 -0.0001 11.1571 -0.0001
# 2 38.3040 114.6444 30.9583 -0.0001 6.6131 0.0000
# 3 11.5809 30.9583 74.6096 -0.0002 -2.3302 -0.0004
# 4 -0.0001 -0.0001 -0.0002 25.4815 -0.0002 -13.1604
# 5 11.1571 6.6131 -2.3302 -0.0002 30.3468 -0.0002
# 6 -0.0001 0.0000 -0.0004 -13.1604 -0.0002 44.1459
#
#
#
# Elastic Compliance Matrix: (Units=1/GPa)
#
#
# Indices 1 2 3 4 5 6 
#
# 1 0.014488 -0.004440 -0.000544 0.000000 -0.004401 0.000000
# 2 -0.004440 0.011371 -0.004065 0.000000 -0.001158 0.000000
# 3 -0.000544 -0.004065 0.015245 0.000000 0.002256 0.000000
# 4 0.000000 0.000000 0.000000 0.046386 0.000000 0.013828
# 5 -0.004401 -0.001158 0.002256 0.000000 0.034996 0.000000
# 6 0.000000 0.000000 0.000000 0.013828 0.000000 0.026774
#
#
# Mechanical properties :
#
#
# Convention : Reuss Voigt Hill
#
# Bulk Modulus (GPa) = 43.46785 48.39162 45.92973
# Shear Modulus (GPa) = 28.56714 32.86116 30.71415
#
# Velocity S-wave (km/s) = 3.51999 3.77528 3.64987
# Velocity P-wave (km/s) = 5.94757 6.32396 6.13865
#
# Compressibility (1/GPa) = 0.02300551
#
# Stress axis : x y z
#
# Youngs Moduli (GPa) = 69.02193 87.94661 65.59631
#
# Poissons Ratio (x) = 0.39047 0.03569
# Poissons Ratio (y) = 0.30645 0.26665
# Poissons Ratio (z) = 0.03755 0.35751
#
# Static dielectric constant tensor:
#      x y z
#    x 1.861670 0.000000 0.018960 
#    y 0.000000 1.921450 0.000000 
#    z 0.018960 0.000000 1.853040 
# 
# From -- ./inp_files/266275.got.cif
#   From: 2010.05.17/outbox.cif.g08.bks.cpg/sg15_134_cif.got.tgz:266275.got - 2010.06.03 18:47:42.
