data_PCOD9291369
_publ_section_title
;
Structure prediction by ZEFSAII (Michael W. Deem and Ramdas Pophale) SiO2 
 PCOD9291369
Probable space group: C 2/C
;
_chemical_formula_sum "Si O2"
_cell_formula_units_Z 48
_cell_length_a 26.515736
_cell_length_b 13.900268
_cell_length_c 15.448500
_cell_angle_alpha 90.000000
_cell_angle_beta 158.096190
_cell_angle_gamma 90.000000
_cell_volume 2124.122779
_symmetry_space_group_name_H-M "C 2/C"
_symmetry_group_IT_number 15
_symmetry_cell_setting 'monoclinic'
loop_
_space_group_symop_operation_xyz
x,y,z
-x,y,1/2-z
-x,-y,-z
x,-y,1/2+z
1/2+x,1/2+y,z
1/2-x,1/2+y,1/2-z
1/2-x,1/2-y,-z
1/2+x,1/2-y,1/2+z
loop_
_atom_site_type_symbol
_atom_site_label
_atom_site_fract_x
_atom_site_fract_y
_atom_site_fract_z
Si Si1 0.382717 0.020348 0.667214
Si Si2 0.826608 0.571594 0.913900
Si Si3 0.364682 0.700565 0.479298
Si Si4 0.803415 0.191473 0.186233
Si Si5 0.399342 0.647362 0.164641
Si Si6 0.762213 0.977722 0.894672
O O1 0.294085 0.954692 0.460798
O O2 0.354737 0.999857 0.722717
O O3 0.325747 0.124357 0.546874
O O4 0.535790 0.988006 0.891175
O O5 0.732265 0.534434 0.687659
O O6 0.843295 0.685475 0.940234
O O7 0.500000 0.684382 0.750000
O O8 0.357013 0.668590 0.366821
O O9 0.261514 0.633501 0.368108
O O10 0.915946 0.177448 0.290951
O O11 0.742133 0.298736 0.084303
O O12 0.500000 0.679552 0.250000
O O13 0.384989 0.531755 0.139509
#
# Coordination Sequence:
#
# PCOD9291369 Si02
#       6
#     8   8   8   8   8   8
#     4  10  22  42  68  93 126 172 219 265 321 386
#     4  11  22  43  64  96 132 164 218 271 321 390
#     4  12  24  43  63  93 136 170 207 269 335 389
#     4  10  22  42  68  97 129 169 224 270 313 390
#     4  10  22  42  66  99 131 169 218 271 325 382
#     4  11  23  42  66  95 131 172 214 266 326 395
#
# _framework density 22.597563000000001
#
# number of rings (size 3 to 8) (size 9 to 14) (size 15 to 20)
#    0.000    1.333    5.000    1.000    2.333    0.667 
#    6.000    2.500    0.000    0.000    0.000    0.000 
#    0.000    0.000    0.000    0.000    0.000    0.000 
#
# Total GULP energy -133636.439928 kJ/mol
# GULP energy per Si atom -5568.184997 kJ/mol
# Density = 2.254613 g / cm^3
# Si number density = 22.597563 Si / 1000 Ang^3
#
#
#
# Elastic Constant Matrix: (Units=GPa)
#
#
# Indices 1 2 3 4 5 6 
#
# 1 117.0805 42.4545 24.2832 0.0000 -17.2744 0.0000
# 2 42.4545 110.4029 20.1579 0.0000 -1.9158 0.0000
# 3 24.2832 20.1579 52.0289 0.0000 -25.5755 0.0000
# 4 0.0000 0.0000 0.0000 63.9966 0.0000 -52.9671
# 5 -17.2744 -1.9158 -25.5755 0.0000 32.7012 0.0000
# 6 0.0000 0.0000 0.0000 -52.9671 0.0000 77.8032
#
#
#
# Elastic Compliance Matrix: (Units=1/GPa)
#
#
# Indices 1 2 3 4 5 6 
#
# 1 0.010882 -0.003849 -0.001418 0.000000 0.004414 0.000000
# 2 -0.003849 0.011420 -0.005359 0.000000 -0.005555 0.000000
# 3 -0.001418 -0.005359 0.034823 0.000000 0.026172 0.000000
# 4 0.000000 0.000000 0.000000 0.035794 0.000000 0.024368
# 5 0.004414 -0.005555 0.026172 0.000000 0.053055 0.000000
# 6 0.000000 0.000000 0.000000 0.024368 0.000000 0.029442
#
#
# Mechanical properties :
#
#
# Convention : Reuss Voigt Hill
#
# Bulk Modulus (GPa) = 27.87554 50.36706 39.12130
# Shear Modulus (GPa) = 23.96618 47.74132 35.85375
#
# Velocity S-wave (km/s) = 3.26016 4.60137 3.98756
# Velocity P-wave (km/s) = 5.15111 7.11107 6.20891
#
# Compressibility (1/GPa) = 0.03587375
#
# Stress axis : x y z
#
# Youngs Moduli (GPa) = 91.89288 87.56603 28.71632
#
# Poissons Ratio (x) = 0.33706 0.04072
# Poissons Ratio (y) = 0.35371 0.15389
# Poissons Ratio (z) = 0.13029 0.46925
#
# Static dielectric constant tensor:
#      x y z
#    x 1.884500 0.000000 0.007330 
#    y 0.000000 1.881240 0.000000 
#    z 0.007330 0.000000 1.943280 
# 
# From -- ./inp_files/177899.got.cif
#   From: 2010.05.17/outbox.cif.g08.bks.cpg/sg15_89_cif.got.tgz:177899.got - 2010.06.03 18:47:42.
