data_PCOD9291921
_publ_section_title
;
Structure prediction by ZEFSAII (Michael W. Deem and Ramdas Pophale) SiO2 
 PCOD9291921
Probable space group: C 2/C
;
_chemical_formula_sum "Si O2"
_cell_formula_units_Z 48
_cell_length_a 13.182299
_cell_length_b 8.545683
_cell_length_c 20.080781
_cell_angle_alpha 90.000000
_cell_angle_beta 88.220504
_cell_angle_gamma 90.000000
_cell_volume 2261.044146
_symmetry_space_group_name_H-M "C 2/C"
_symmetry_group_IT_number 15
_symmetry_cell_setting 'monoclinic'
loop_
_space_group_symop_operation_xyz
x,y,z
-x,y,1/2-z
-x,-y,-z
x,-y,1/2+z
1/2+x,1/2+y,z
1/2-x,1/2+y,1/2-z
1/2-x,1/2-y,-z
1/2+x,1/2-y,1/2+z
loop_
_atom_site_type_symbol
_atom_site_label
_atom_site_fract_x
_atom_site_fract_y
_atom_site_fract_z
Si Si1 0.373838 0.968383 0.152621
Si Si2 0.817624 0.150146 0.901566
Si Si3 0.294727 0.902942 0.530690
Si Si4 0.293204 0.122759 0.788445
Si Si5 0.114547 0.966405 0.725068
Si Si6 0.905141 0.491048 0.907810
O O1 0.295354 0.830561 0.130190
O O2 0.358234 0.976027 0.231560
O O3 0.328843 0.107633 0.107109
O O4 0.488868 0.957770 0.127150
O O5 0.879941 0.306855 0.909689
O O6 0.786889 0.045776 0.966067
O O7 0.877431 0.041276 0.848325
O O8 0.250000 0.750000 0.500000
O O9 0.388839 0.949411 0.482764
O O10 0.329159 0.299885 0.777452
O O11 0.178211 0.083419 0.770965
O O12 0.321048 0.066636 0.861103
O O13 0.000000 0.946326 0.750000
#
# Coordination Sequence:
#
# PCOD9291921 Si02
#       6
#     8   8   8   8   8   8
#     4   9  22  40  64  92 129 160 217 262 319 376
#     4   9  23  40  60  93 127 158 221 262 308 386
#     4  10  22  43  62  89 133 171 211 270 316 384
#     4  11  23  39  67  99 129 163 212 273 319 382
#     4  11  23  43  65  95 134 168 213 265 327 382
#     4  12  21  39  71  90 124 179 210 260 333 379
#
# _framework density 21.229130999999999
#
# number of rings (size 3 to 8) (size 9 to 14) (size 15 to 20)
#    1.000    0.667    0.000    5.500    0.000    4.000 
#    0.000    1.667    0.000    0.000    0.000    0.000 
#    0.000    0.000    0.000    0.000    0.000    0.000 
#
# Total GULP energy -133799.740835 kJ/mol
# GULP energy per Si atom -5574.989201 kJ/mol
# Density = 2.118081 g / cm^3
# Si number density = 21.229131 Si / 1000 Ang^3
#
#
#
# Elastic Constant Matrix: (Units=GPa)
#
#
# Indices 1 2 3 4 5 6 
#
# 1 69.1491 35.1430 18.2195 0.0000 -22.4721 0.0000
# 2 35.1430 93.6771 14.3540 0.0000 -9.2063 0.0000
# 3 18.2195 14.3540 81.7659 0.0000 -12.5976 0.0000
# 4 0.0000 0.0000 0.0000 22.2377 0.0000 -0.8917
# 5 -22.4721 -9.2063 -12.5976 0.0000 28.8049 0.0000
# 6 0.0000 0.0000 0.0000 -0.8917 0.0000 18.3800
#
#
#
# Elastic Compliance Matrix: (Units=1/GPa)
#
#
# Indices 1 2 3 4 5 6 
#
# 1 0.023452 -0.007042 -0.001627 0.000000 0.015334 0.000000
# 2 -0.007042 0.013308 -0.001027 0.000000 -0.001690 0.000000
# 3 -0.001627 -0.001027 0.013432 0.000000 0.004277 0.000000
# 4 0.000000 0.000000 0.000000 0.045056 0.000000 0.002186
# 5 0.015334 -0.001690 0.004277 0.000000 0.048010 0.000000
# 6 0.000000 0.000000 0.000000 0.002186 0.000000 0.054513
#
#
# Mechanical properties :
#
#
# Convention : Reuss Voigt Hill
#
# Bulk Modulus (GPa) = 32.46802 42.22500 37.34651
# Shear Modulus (GPa) = 21.98475 25.67622 23.83049
#
# Velocity S-wave (km/s) = 3.22156 3.48153 3.35406
# Velocity P-wave (km/s) = 5.40048 6.00789 5.71226
#
# Compressibility (1/GPa) = 0.03079954
#
# Stress axis : x y z
#
# Youngs Moduli (GPa) = 42.63976 75.14221 74.44990
#
# Poissons Ratio (x) = 0.52914 0.12113
# Poissons Ratio (y) = 0.30026 0.07650
# Poissons Ratio (z) = 0.06938 0.07721
#
# Static dielectric constant tensor:
#      x y z
#    x 1.795160 0.000000 0.000900 
#    y 0.000000 1.788890 0.000000 
#    z 0.000900 0.000000 1.771240 
# 
# From -- ./inp_files/242320.got.cif
#   From: 2010.05.17/outbox.cif.g08.bks.cpg/sg15_122_cif.got.tgz:242320.got - 2010.06.03 18:47:42.
