data_PCOD9291761
_publ_section_title
;
Structure prediction by ZEFSAII (Michael W. Deem and Ramdas Pophale) SiO2 
 PCOD9291761
Probable space group: C 2/C
;
_chemical_formula_sum "Si O2"
_cell_formula_units_Z 36
_cell_length_a 15.216751
_cell_length_b 10.220957
_cell_length_c 13.981550
_cell_angle_alpha 90.000000
_cell_angle_beta 137.139125
_cell_angle_gamma 90.000000
_cell_volume 1479.171474
_symmetry_space_group_name_H-M "C 2/C"
_symmetry_group_IT_number 15
_symmetry_cell_setting 'monoclinic'
loop_
_space_group_symop_operation_xyz
x,y,z
-x,y,1/2-z
-x,-y,-z
x,-y,1/2+z
1/2+x,1/2+y,z
1/2-x,1/2+y,1/2-z
1/2-x,1/2-y,-z
1/2+x,1/2-y,1/2+z
loop_
_atom_site_type_symbol
_atom_site_label
_atom_site_fract_x
_atom_site_fract_y
_atom_site_fract_z
Si Si1 0.371925 0.482518 0.183274
Si Si2 0.247869 0.363507 0.421827
Si Si3 0.007294 0.859631 0.555091
Si Si4 0.500000 0.987868 0.750000
Si Si5 0.902407 0.603982 0.974055
O O1 0.500000 0.405212 0.250000
O O2 0.428036 0.606049 0.290179
O O3 0.250417 0.431455 0.147358
O O4 0.310825 0.518890 0.032548
O O5 0.250000 0.250000 0.500000
O O6 0.356592 0.318234 0.435763
O O7 0.106894 0.415894 0.287222
O O8 0.080746 0.746038 0.558837
O O9 0.000000 0.000000 0.500000
O O10 0.443933 0.904240 0.618403
O O11 0.000000 0.500000 0.000000
#
# Coordination Sequence:
#
# PCOD9291761 Si02
#       5
#     8   8   8   4   8
#     4   9  22  44  69 102 146 189 240 296 366 433
#     4  10  22  42  71 102 140 187 238 299 354 437
#     4  11  25  45  72 108 143 187 243 301 364 435
#     4  10  24  46  68 114 150 192 242 298 382 434
#     4  11  25  46  77 111 150 194 246 310 365 445
#
# _framework density 24.337948999999998
#
# number of rings (size 3 to 8) (size 9 to 14) (size 15 to 20)
#    0.000    1.778    0.000    2.667   10.889    1.778 
#    6.000    5.556    0.000    0.000    0.000    0.000 
#    0.000    0.000    0.000    0.000    0.000    0.000 
#
# Total GULP energy -100416.799330 kJ/mol
# GULP energy per Si atom -5578.711074 kJ/mol
# Density = 2.428255 g / cm^3
# Si number density = 24.337949 Si / 1000 Ang^3
#
#
#
# Elastic Constant Matrix: (Units=GPa)
#
#
# Indices 1 2 3 4 5 6 
#
# 1 176.9329 58.4204 37.0372 0.0000 50.2680 0.0000
# 2 58.4204 99.2332 22.2361 0.0000 15.1482 0.0000
# 3 37.0372 22.2361 116.6905 0.0000 4.5149 0.0000
# 4 0.0000 0.0000 0.0000 25.5050 0.0000 -4.2307
# 5 50.2680 15.1482 4.5149 0.0000 55.3457 0.0000
# 6 0.0000 0.0000 0.0000 -4.2307 0.0000 35.3440
#
#
#
# Elastic Compliance Matrix: (Units=1/GPa)
#
#
# Indices 1 2 3 4 5 6 
#
# 1 0.009476 -0.004018 -0.001958 0.000000 -0.007347 0.000000
# 2 -0.004018 0.012657 -0.001147 0.000000 0.000279 0.000000
# 3 -0.001958 -0.001147 0.009358 0.000000 0.001329 0.000000
# 4 0.000000 0.000000 0.000000 0.040002 0.000000 0.004788
# 5 -0.007347 0.000279 0.001329 0.000000 0.024556 0.000000
# 6 0.000000 0.000000 0.000000 0.004788 0.000000 0.028866
#
#
# Mechanical properties :
#
#
# Convention : Reuss Voigt Hill
#
# Bulk Modulus (GPa) = 57.98826 69.80488 63.89657
# Shear Modulus (GPa) = 34.50385 41.58315 38.04350
#
# Velocity S-wave (km/s) = 3.76932 4.13797 3.95794
# Velocity P-wave (km/s) = 6.54383 7.18152 6.87007
#
# Compressibility (1/GPa) = 0.01724487
#
# Stress axis : x y z
#
# Youngs Moduli (GPa) = 105.53270 79.00470 106.85781
#
# Poissons Ratio (x) = 0.31747 0.20918
# Poissons Ratio (y) = 0.42407 0.12260
# Poissons Ratio (z) = 0.20659 0.09064
#
# Static dielectric constant tensor:
#      x y z
#    x 2.023200 0.000000 0.039710 
#    y 0.000000 2.003130 0.000000 
#    z 0.039710 0.000000 2.049800 
# 
# From -- ./inp_files/99557.got.cif
#   From: 2010.05.17/outbox.cif.g08.bks.cpg/sg15_50_cif.got.tgz:99557.got - 2010.06.03 18:47:42.
