data_PCOD9291982
_publ_section_title
;
Structure prediction by ZEFSAII (Michael W. Deem and Ramdas Pophale) SiO2 
 PCOD9291982
Probable space group: C 2/C
;
_chemical_formula_sum "Si O2"
_cell_formula_units_Z 56
_cell_length_a 24.190625
_cell_length_b 9.870084
_cell_length_c 16.950851
_cell_angle_alpha 90.000000
_cell_angle_beta 42.622477
_cell_angle_gamma 90.000000
_cell_volume 2740.651071
_symmetry_space_group_name_H-M "C 2/C"
_symmetry_group_IT_number 15
_symmetry_cell_setting 'monoclinic'
loop_
_space_group_symop_operation_xyz
x,y,z
-x,y,1/2-z
-x,-y,-z
x,-y,1/2+z
1/2+x,1/2+y,z
1/2-x,1/2+y,1/2-z
1/2-x,1/2-y,-z
1/2+x,1/2-y,1/2+z
loop_
_atom_site_type_symbol
_atom_site_label
_atom_site_fract_x
_atom_site_fract_y
_atom_site_fract_z
Si Si1 0.080522 0.484405 0.205475
Si Si2 0.843836 0.944645 0.539834
Si Si3 0.689114 0.546776 0.237504
Si Si4 0.728935 0.814536 0.105729
Si Si5 0.830390 0.646574 0.528559
Si Si6 0.496512 0.120863 0.440101
Si Si7 0.977102 0.923657 0.102943
O O1 0.141896 0.385414 0.184918
O O2 0.131546 0.570461 0.087468
O O3 0.000000 0.418103 0.250000
O O4 0.041502 0.577508 0.313135
O O5 0.825033 0.947459 0.653589
O O6 0.810526 0.804744 0.537148
O O7 0.942645 0.938085 0.426482
O O8 0.797601 0.074892 0.554595
O O9 0.719170 0.693718 0.178098
O O10 0.605735 0.495761 0.282839
O O11 0.756333 0.438274 0.141040
O O12 0.750000 0.750000 0.000000
O O13 0.901990 0.644950 0.518826
O O14 0.534153 0.268888 0.414988
O O15 0.500000 0.000000 0.500000
O O16 0.000000 0.000000 0.000000
#
# Coordination Sequence:
#
# PCOD9291982 Si02
#       7
#     8   8   8   8   8   8   8
#     4  10  24  44  63  95 134 170 223 275 338 404
#     4  10  24  42  68  96 135 176 228 276 338 404
#     4  11  23  42  67  98 135 173 231 277 335 399
#     4  12  26  43  66 101 134 177 227 277 342 401
#     4  10  22  43  64  94 134 175 219 280 337 400
#     4  10  23  39  70  98 126 174 224 273 337 405
#     4   9  22  42  61 100 132 170 217 279 336 394
#
# _framework density 20.4331
#
# number of rings (size 3 to 8) (size 9 to 14) (size 15 to 20)
#    0.000    1.714    1.429    0.857   10.000    5.143 
#    0.000    1.429    0.000    0.000    0.000    0.000 
#    0.000    0.000    0.000    0.000    0.000    0.000 
#
# Total GULP energy -156273.068665 kJ/mol
# GULP energy per Si atom -5581.181024 kJ/mol
# Density = 2.038659 g / cm^3
# Si number density = 20.433100 Si / 1000 Ang^3
#
#
#
# Elastic Constant Matrix: (Units=GPa)
#
#
# Indices 1 2 3 4 5 6 
#
# 1 41.7008 24.4197 4.5812 -0.0003 -10.8994 0.0002
# 2 24.4197 103.8742 -1.3024 -0.0007 -21.8871 0.0005
# 3 4.5812 -1.3024 69.3893 -0.0003 -20.5066 0.0002
# 4 -0.0003 -0.0007 -0.0003 23.6410 0.0002 -5.8273
# 5 -10.8994 -21.8871 -20.5066 0.0002 32.9513 -0.0001
# 6 0.0002 0.0005 0.0002 -5.8273 -0.0001 36.5031
#
#
#
# Elastic Compliance Matrix: (Units=1/GPa)
#
#
# Indices 1 2 3 4 5 6 
#
# 1 0.028749 -0.005588 -0.000355 0.000000 0.005577 0.000000
# 2 -0.005588 0.012795 0.003155 0.000000 0.008614 0.000000
# 3 -0.000355 0.003155 0.018477 0.000000 0.013477 0.000000
# 4 0.000000 0.000000 0.000000 0.044032 0.000000 0.007029
# 5 0.005577 0.008614 0.013477 0.000000 0.046301 0.000000
# 6 0.000000 0.000000 0.000000 0.007029 0.000000 0.028517
#
#
# Mechanical properties :
#
#
# Convention : Reuss Voigt Hill
#
# Bulk Modulus (GPa) = 18.36702 30.04015 24.20358
# Shear Modulus (GPa) = 24.67964 31.10348 27.89156
#
# Velocity S-wave (km/s) = 3.47915 3.90578 3.69862
# Velocity P-wave (km/s) = 5.01475 5.92232 5.48733
#
# Compressibility (1/GPa) = 0.05444542
#
# Stress axis : x y z
#
# Youngs Moduli (GPa) = 34.78346 78.15384 54.12165
#
# Poissons Ratio (x) = 0.43672 0.01920
# Poissons Ratio (y) = 0.19437 -0.17074
# Poissons Ratio (z) = 0.01234 -0.24656
#
# Static dielectric constant tensor:
#      x y z
#    x 2.222930 0.000010 0.868610 
#    y 0.000010 1.681490 0.000010 
#    z 0.868610 0.000010 3.581020 
# 
# From -- ./inp_files/222015.got.cif
#   From: 2010.05.17/outbox.cif.g08.bks.cpg/sg15_112_cif.got.tgz:222015.got - 2010.06.03 18:47:42.
