data_PCOD9291754
_publ_section_title
;
Structure prediction by ZEFSAII (Michael W. Deem and Ramdas Pophale) SiO2 
 PCOD9291754
Probable space group: C 2/C
;
_chemical_formula_sum "Si O2"
_cell_formula_units_Z 52
_cell_length_a 17.496987
_cell_length_b 8.515460
_cell_length_c 25.488845
_cell_angle_alpha 90.000000
_cell_angle_beta 40.393998
_cell_angle_gamma 90.000000
_cell_volume 2461.066985
_symmetry_space_group_name_H-M "C 2/C"
_symmetry_group_IT_number 15
_symmetry_cell_setting 'monoclinic'
loop_
_space_group_symop_operation_xyz
x,y,z
-x,y,1/2-z
-x,-y,-z
x,-y,1/2+z
1/2+x,1/2+y,z
1/2-x,1/2+y,1/2-z
1/2-x,1/2-y,-z
1/2+x,1/2-y,1/2+z
loop_
_atom_site_type_symbol
_atom_site_label
_atom_site_fract_x
_atom_site_fract_y
_atom_site_fract_z
Si Si1 0.460188 0.520629 0.439597
Si Si2 0.152728 0.438559 0.757476
Si Si3 0.359111 0.004815 0.567717
Si Si4 0.000000 0.727731 0.250000
Si Si5 0.192834 0.122345 0.569855
Si Si6 0.653872 0.213130 0.831172
Si Si7 0.150312 0.843620 0.398312
O O1 0.386008 0.482959 0.427349
O O2 0.556816 0.653483 0.377881
O O3 0.533049 0.371390 0.424206
O O4 0.382252 0.587020 0.527670
O O5 0.061141 0.374543 0.763573
O O6 0.222103 0.293943 0.748506
O O7 0.109861 0.560973 0.823160
O O8 0.248979 0.544598 0.676906
O O9 0.315789 0.837172 0.612138
O O10 0.500000 0.000000 0.500000
O O11 0.300848 0.034560 0.542008
O O12 0.324238 0.152695 0.621640
O O13 0.896978 0.819012 0.336752
O O14 0.250000 0.250000 0.500000
#
# Coordination Sequence:
#
# PCOD9291754 Si02
#       7
#     8   8   8   4   8   8   8
#     4  10  23  43  71 100 136 180 236 288 359 415
#     4  11  25  43  68  99 142 180 234 289 363 418
#     4  12  24  44  70 104 142 187 242 285 362 435
#     4  12  28  46  68 106 144 184 240 302 358 430
#     4  12  28  45  73 106 147 192 238 303 367 420
#     4  11  24  43  69 103 134 187 233 289 350 435
#     4  10  22  42  70  99 136 180 231 292 348 434
#
# _framework density 21.129047
#
# number of rings (size 3 to 8) (size 9 to 14) (size 15 to 20)
#    0.000    0.923    3.077    2.769   10.769    3.077 
#    0.000    0.000    0.000    0.000    0.000    0.000 
#    0.000    0.000    0.000    0.000    0.000    0.000 
#
# Total GULP energy -145256.873908 kJ/mol
# GULP energy per Si atom -5586.802843 kJ/mol
# Density = 2.108096 g / cm^3
# Si number density = 21.129047 Si / 1000 Ang^3
#
#
#
# Elastic Constant Matrix: (Units=GPa)
#
#
# Indices 1 2 3 4 5 6 
#
# 1 185.2142 57.7280 26.0325 0.0000 9.4744 0.0000
# 2 57.7280 91.6720 6.5295 0.0001 -4.6445 0.0000
# 3 26.0325 6.5295 63.3942 0.0000 1.4074 0.0000
# 4 0.0000 0.0001 0.0000 33.0573 0.0000 11.8863
# 5 9.4744 -4.6445 1.4074 0.0000 22.1532 0.0000
# 6 0.0000 0.0000 0.0000 11.8863 0.0000 37.7071
#
#
#
# Elastic Compliance Matrix: (Units=1/GPa)
#
#
# Indices 1 2 3 4 5 6 
#
# 1 0.007415 -0.004696 -0.002472 0.000000 -0.003999 0.000000
# 2 -0.004696 0.014090 0.000367 0.000000 0.004939 0.000000
# 3 -0.002472 0.000367 0.016750 0.000000 0.000070 0.000000
# 4 0.000000 0.000000 0.000000 0.034118 0.000000 -0.010755
# 5 -0.003999 0.004939 0.000070 0.000000 0.047881 0.000000
# 6 0.000000 0.000000 0.000000 -0.010755 0.000000 0.029910
#
#
# Mechanical properties :
#
#
# Convention : Reuss Voigt Hill
#
# Bulk Modulus (GPa) = 40.56292 57.87339 49.21815
# Shear Modulus (GPa) = 29.07264 35.24954 32.16109
#
# Velocity S-wave (km/s) = 3.71341 4.08891 3.90568
# Velocity P-wave (km/s) = 6.13395 7.05281 6.60937
#
# Compressibility (1/GPa) = 0.02465306
#
# Stress axis : x y z
#
# Youngs Moduli (GPa) = 134.86568 70.97464 59.70081
#
# Poissons Ratio (x) = 0.33328 0.14761
# Poissons Ratio (y) = 0.63330 -0.02194
# Poissons Ratio (z) = 0.33344 -0.02608
#
# Static dielectric constant tensor:
#      x y z
#    x 1.738710 0.000000 -0.005330 
#    y 0.000000 1.972230 0.000000 
#    z -0.005330 0.000000 1.841610 
# 
# From -- ./inp_files/298333.got.cif
#   From: 2010.05.17/outbox.cif.g08.bks.cpg/sg15_150_cif.got.tgz:298333.got - 2010.06.03 18:47:42.
