data_PCOD9291813
_publ_section_title
;
Structure prediction by ZEFSAII (Michael W. Deem and Ramdas Pophale) SiO2 
 PCOD9291813
Probable space group: C 2/C
;
_chemical_formula_sum "Si O2"
_cell_formula_units_Z 48
_cell_length_a 9.160177
_cell_length_b 18.409788
_cell_length_c 17.959176
_cell_angle_alpha 90.000000
_cell_angle_beta 142.506211
_cell_angle_gamma 90.000000
_cell_volume 1843.422256
_symmetry_space_group_name_H-M "C 2/C"
_symmetry_group_IT_number 15
_symmetry_cell_setting 'monoclinic'
loop_
_space_group_symop_operation_xyz
x,y,z
-x,y,1/2-z
-x,-y,-z
x,-y,1/2+z
1/2+x,1/2+y,z
1/2-x,1/2+y,1/2-z
1/2-x,1/2-y,-z
1/2+x,1/2-y,1/2+z
loop_
_atom_site_type_symbol
_atom_site_label
_atom_site_fract_x
_atom_site_fract_y
_atom_site_fract_z
Si Si1 0.192468 0.120185 0.266325
Si Si2 0.530878 0.264463 0.610413
Si Si3 0.854688 0.458072 0.356977
Si Si4 0.823279 0.838861 0.328739
Si Si5 0.169577 0.337017 0.030673
Si Si6 0.263213 0.961071 0.102029
O O1 0.101328 0.151694 0.151259
O O2 0.232858 0.035175 0.295845
O O3 0.445527 0.156106 0.386557
O O4 0.627656 0.036287 0.936849
O O5 0.632733 0.224077 0.579016
O O6 0.651863 0.223722 0.729963
O O7 0.250000 0.250000 0.500000
O O8 0.500000 0.357232 0.750000
O O9 0.402992 0.678294 0.577168
O O10 0.168656 0.585361 0.575262
O O11 0.773168 0.904657 0.251939
O O12 0.772459 0.877523 0.386188
O O13 0.500000 0.987693 0.250000
O O14 0.000000 0.000000 0.000000
#
# Coordination Sequence:
#
# PCOD9291813 Si02
#       6
#     8   8   8   8   8   8
#     4  12  24  40  70 111 145 189 249 297 366 439
#     4  11  24  46  68 103 148 194 245 298 364 439
#     4  10  22  42  72 107 143 184 238 305 363 435
#     4  10  23  47  74  98 143 195 237 295 377 433
#     4  11  23  46  75 102 140 189 242 305 366 430
#     4  10  22  43  68 105 146 193 235 294 368 441
#
# _framework density 26.038529
#
# number of rings (size 3 to 8) (size 9 to 14) (size 15 to 20)
#    0.000    1.333    1.667    4.500    0.000    6.667 
#    6.000    5.000    0.000    0.000    0.000    0.000 
#    0.000    0.000    0.000    0.000    0.000    0.000 
#
# Total GULP energy -134409.124458 kJ/mol
# GULP energy per Si atom -5600.380186 kJ/mol
# Density = 2.597926 g / cm^3
# Si number density = 26.038529 Si / 1000 Ang^3
#
#
#
# Elastic Constant Matrix: (Units=GPa)
#
#
# Indices 1 2 3 4 5 6 
#
# 1 120.1106 50.3955 40.5329 0.0004 35.0252 0.0005
# 2 50.3955 148.7532 70.9755 0.0003 5.5146 0.0007
# 3 40.5329 70.9755 145.6082 0.0004 22.2814 0.0035
# 4 0.0004 0.0003 0.0004 43.3858 0.0005 0.7686
# 5 35.0252 5.5146 22.2814 0.0005 57.5312 0.0010
# 6 0.0005 0.0007 0.0035 0.7686 0.0010 13.2457
#
#
#
# Elastic Compliance Matrix: (Units=1/GPa)
#
#
# Indices 1 2 3 4 5 6 
#
# 1 0.011960 -0.003525 -0.000583 0.000000 -0.006718 0.000000
# 2 -0.003525 0.009839 -0.004251 0.000000 0.002849 0.000001
# 3 -0.000583 -0.004251 0.009552 0.000000 -0.002937 -0.000002
# 4 0.000000 0.000000 0.000000 0.023073 0.000000 -0.001339
# 5 -0.006718 0.002849 -0.002937 0.000000 0.022336 -0.000001
# 6 0.000000 0.000001 -0.000002 -0.001339 -0.000001 0.075574
#
#
# Mechanical properties :
#
#
# Convention : Reuss Voigt Hill
#
# Bulk Modulus (GPa) = 68.33686 82.03111 75.18398
# Shear Modulus (GPa) = 28.74731 39.67039 34.20885
#
# Velocity S-wave (km/s) = 3.32630 3.90747 3.62854
# Velocity P-wave (km/s) = 6.40733 7.20624 6.81850
#
# Compressibility (1/GPa) = 0.01463339
#
# Stress axis : x y z
#
# Youngs Moduli (GPa) = 83.60996 101.63365 104.69477
#
# Poissons Ratio (x) = 0.35822 0.06108
# Poissons Ratio (y) = 0.29469 0.44505
# Poissons Ratio (z) = 0.04878 0.43203
#
# Static dielectric constant tensor:
#      x y z
#    x 2.031550 0.000000 -0.040660 
#    y 0.000000 2.679390 -0.000010 
#    z -0.040660 -0.000010 2.106740 
# 
# From -- ./inp_files/275085.got.cif
#   From: 2010.05.17/outbox.cif.g08.bks.cpg/sg15_138_cif.got.tgz:275085.got - 2010.06.03 18:47:42.
