data_PCOD9291536
_publ_section_title
;
Structure prediction by ZEFSAII (Michael W. Deem and Ramdas Pophale) SiO2 
 PCOD9291536
Probable space group: C 2/C
;
_chemical_formula_sum "Si O2"
_cell_formula_units_Z 40
_cell_length_a 27.508130
_cell_length_b 5.050788
_cell_length_c 12.864530
_cell_angle_alpha 90.000000
_cell_angle_beta 124.351127
_cell_angle_gamma 90.000000
_cell_volume 1475.642807
_symmetry_space_group_name_H-M "C 2/C"
_symmetry_group_IT_number 15
_symmetry_cell_setting 'monoclinic'
loop_
_space_group_symop_operation_xyz
x,y,z
-x,y,1/2-z
-x,-y,-z
x,-y,1/2+z
1/2+x,1/2+y,z
1/2-x,1/2+y,1/2-z
1/2-x,1/2-y,-z
1/2+x,1/2-y,1/2+z
loop_
_atom_site_type_symbol
_atom_site_label
_atom_site_fract_x
_atom_site_fract_y
_atom_site_fract_z
Si Si1 0.807406 0.145209 0.259366
Si Si2 0.015100 0.888429 0.129803
Si Si3 0.774167 0.029629 0.449509
Si Si4 0.088693 0.924393 0.890228
Si Si5 0.110382 0.360419 0.627309
O O1 0.775303 0.146531 0.332487
O O2 0.763941 0.261215 0.118460
O O3 0.858088 0.362786 0.330281
O O4 0.841662 0.869076 0.288242
O O5 0.052080 0.103697 0.240682
O O6 0.059755 0.658014 0.152814
O O7 0.953045 0.842189 0.111798
O O8 0.000000 0.000000 0.000000
O O9 0.750000 0.250000 0.500000
O O10 0.843502 0.979237 0.552505
O O11 0.089776 0.714664 0.985535
#
# Coordination Sequence:
#
# PCOD9291536 Si02
#       5
#     8   8   8   8   8
#     4  11  24  43  66 100 136 172 223 274 331 409
#     4   9  18  38  65  92 126 169 217 276 334 390
#     4  11  23  41  67 101 141 185 226 281 342 407
#     4   9  19  36  61  94 128 169 222 268 327 402
#     4  10  22  42  68  95 131 171 215 276 335 394
#
# _framework density 27.106833000000002
#
# number of rings (size 3 to 8) (size 9 to 14) (size 15 to 20)
#    0.000    2.000    0.000    3.600    0.000    3.200 
#    0.000   27.000    0.000   31.200    0.000    0.000 
#    0.000    0.000    0.000    0.000    0.000    0.000 
#
# Total GULP energy -111944.173217 kJ/mol
# GULP energy per Si atom -5597.208661 kJ/mol
# Density = 2.704514 g / cm^3
# Si number density = 27.106833 Si / 1000 Ang^3
#
#
#
# Elastic Constant Matrix: (Units=GPa)
#
#
# Indices 1 2 3 4 5 6 
#
# 1 171.5070 46.9345 24.9931 0.0000 21.0696 0.0000
# 2 46.9345 113.1731 24.7594 0.0000 17.0013 0.0000
# 3 24.9931 24.7594 221.4606 0.0000 6.0905 0.0000
# 4 0.0000 0.0000 0.0000 16.6254 0.0000 -2.0092
# 5 21.0696 17.0013 6.0905 0.0000 56.7973 0.0000
# 6 0.0000 0.0000 0.0000 -2.0092 0.0000 10.3361
#
#
#
# Elastic Compliance Matrix: (Units=1/GPa)
#
#
# Indices 1 2 3 4 5 6 
#
# 1 0.006780 -0.002454 -0.000443 0.000000 -0.001733 0.000000
# 2 -0.002454 0.010349 -0.000822 0.000000 -0.002099 0.000000
# 3 -0.000443 -0.000822 0.004660 0.000000 -0.000089 0.000000
# 4 0.000000 0.000000 0.000000 0.061596 0.000000 0.011973
# 5 -0.001733 -0.002099 -0.000089 0.000000 0.018887 0.000000
# 6 0.000000 0.000000 0.000000 0.011973 0.000000 0.099076
#
#
# Mechanical properties :
#
#
# Convention : Reuss Voigt Hill
#
# Bulk Modulus (GPa) = 69.69043 77.72386 73.70715
# Shear Modulus (GPa) = 23.41150 44.04869 33.73009
#
# Velocity S-wave (km/s) = 2.94202 4.03551 3.53135
# Velocity P-wave (km/s) = 6.10787 7.10276 6.62402
#
# Compressibility (1/GPa) = 0.01434917
#
# Stress axis : x y z
#
# Youngs Moduli (GPa) = 147.49723 96.62625 214.59843
#
# Poissons Ratio (x) = 0.23716 0.09508
# Poissons Ratio (y) = 0.36202 0.17647
# Poissons Ratio (z) = 0.06535 0.07946
#
# Static dielectric constant tensor:
#      x y z
#    x 2.208870 0.000000 -0.071100 
#    y 0.000000 2.135250 0.000000 
#    z -0.071100 0.000000 2.225300 
# 
# From -- ./inp_files/179852.got.cif
#   From: 2010.05.17/outbox.cif.g08.bks.cpg/sg15_90_cif.got.tgz:179852.got - 2010.06.03 18:47:42.
