data_PCOD9291696
_publ_section_title
;
Structure prediction by ZEFSAII (Michael W. Deem and Ramdas Pophale) SiO2 
 PCOD9291696
Probable space group: C 2/C
;
_chemical_formula_sum "Si O2"
_cell_formula_units_Z 44
_cell_length_a 17.053702
_cell_length_b 10.540896
_cell_length_c 27.240492
_cell_angle_alpha 90.000000
_cell_angle_beta 22.228962
_cell_angle_gamma 90.000000
_cell_volume 1852.497077
_symmetry_space_group_name_H-M "C 2/C"
_symmetry_group_IT_number 15
_symmetry_cell_setting 'monoclinic'
loop_
_space_group_symop_operation_xyz
x,y,z
-x,y,1/2-z
-x,-y,-z
x,-y,1/2+z
1/2+x,1/2+y,z
1/2-x,1/2+y,1/2-z
1/2-x,1/2-y,-z
1/2+x,1/2-y,1/2+z
loop_
_atom_site_type_symbol
_atom_site_label
_atom_site_fract_x
_atom_site_fract_y
_atom_site_fract_z
Si Si1 0.053028 0.904331 0.013331
Si Si2 0.891032 0.697631 0.730589
Si Si3 0.848461 0.112317 0.935291
Si Si4 0.955154 0.554953 0.946389
Si Si5 0.500000 0.987849 0.750000
Si Si6 0.825932 0.037846 0.296656
O O1 0.301168 0.895092 0.863756
O O2 0.052368 0.939568 0.071439
O O3 0.862344 0.805874 0.119837
O O4 0.000000 0.000000 0.000000
O O5 0.973893 0.587893 0.719563
O O6 0.957939 0.837611 0.707125
O O7 0.964209 0.672183 0.632562
O O8 0.750000 0.250000 0.000000
O O9 0.028299 0.085922 0.791229
O O10 0.654197 0.033604 0.029503
O O11 0.149210 0.487449 0.859068
O O12 0.791425 0.570045 0.085096
#
# Coordination Sequence:
#
# PCOD9291696 Si02
#       6
#     8   8   8   8   4   8
#     4  10  22  44  69 107 148 192 255 311 372 451
#     4  11  23  45  74 104 149 196 247 316 381 453
#     4  12  25  48  75 107 145 198 250 305 377 449
#     4  11  25  48  73 109 151 195 249 313 382 447
#     4  10  22  42  70 110 142 196 262 304 376 456
#     4  11  27  48  73 110 152 196 251 313 386 452
#
# _framework density 23.751722999999998
#
# number of rings (size 3 to 8) (size 9 to 14) (size 15 to 20)
#    0.000    1.091    3.636    1.636    2.545    3.636 
#    9.818    0.000    0.000    0.000    0.000    0.000 
#    0.000    0.000    0.000    0.000    0.000    0.000 
#
# Total GULP energy -122667.504774 kJ/mol
# GULP energy per Si atom -5575.795672 kJ/mol
# Density = 2.369766 g / cm^3
# Si number density = 23.751723 Si / 1000 Ang^3
#
#
#
# Elastic Constant Matrix: (Units=GPa)
#
#
# Indices 1 2 3 4 5 6 
#
# 1 154.5573 33.3422 44.8936 0.0177 -0.7116 -0.0094
# 2 33.3422 94.0469 57.4880 0.0041 15.6485 0.0005
# 3 44.8936 57.4880 146.1655 0.0554 0.6320 -0.0227
# 4 0.0177 0.0041 0.0554 14.0599 -0.0201 1.4282
# 5 -0.7116 15.6485 0.6320 -0.0201 57.0973 0.0151
# 6 -0.0094 0.0005 -0.0227 1.4282 0.0151 21.1083
#
#
#
# Elastic Compliance Matrix: (Units=1/GPa)
#
#
# Indices 1 2 3 4 5 6 
#
# 1 0.007300 -0.001728 -0.001565 -0.000002 0.000582 0.000001
# 2 -0.001728 0.015272 -0.005458 0.000014 -0.004147 -0.000005
# 3 -0.001565 -0.005458 0.009463 -0.000033 0.001372 0.000011
# 4 -0.000002 0.000014 -0.000033 0.071616 0.000023 -0.004846
# 5 0.000582 -0.004147 0.001372 0.000023 0.018643 -0.000013
# 6 0.000001 -0.000005 0.000011 -0.004846 -0.000013 0.047703
#
#
# Mechanical properties :
#
#
# Convention : Reuss Voigt Hill
#
# Bulk Modulus (GPa) = 68.80975 74.02414 71.41694
# Shear Modulus (GPa) = 25.99523 35.72282 30.85903
#
# Velocity S-wave (km/s) = 3.31185 3.88236 3.60840
# Velocity P-wave (km/s) = 6.60740 7.16453 6.89160
#
# Compressibility (1/GPa) = 0.01453282
#
# Stress axis : x y z
#
# Youngs Moduli (GPa) = 136.98277 65.47986 105.67610
#
# Poissons Ratio (x) = 0.11317 0.16538
# Poissons Ratio (y) = 0.23676 0.57676
# Poissons Ratio (z) = 0.21437 0.35737
#
# Static dielectric constant tensor:
#      x y z
#    x 1.892620 0.000010 -0.003090 
#    y 0.000010 1.889050 0.000010 
#    z -0.003090 0.000010 1.939580 
# 
# From -- ./inp_files/316138.got.cif
#   From: 2010.05.17/outbox.cif.g08.bks.cpg/sg15_159_cif.got.tgz:316138.got - 2010.06.03 18:47:42.
