data_PCOD9291820
_publ_section_title
;
Structure prediction by ZEFSAII (Michael W. Deem and Ramdas Pophale) SiO2 
 PCOD9291820
Probable space group: C 2/C
;
_chemical_formula_sum "Si O2"
_cell_formula_units_Z 28
_cell_length_a 7.562987
_cell_length_b 26.153608
_cell_length_c 5.469103
_cell_angle_alpha 90.000000
_cell_angle_beta 103.387177
_cell_angle_gamma 90.000000
_cell_volume 1052.390705
_symmetry_space_group_name_H-M "C 2/C"
_symmetry_group_IT_number 15
_symmetry_cell_setting 'monoclinic'
loop_
_space_group_symop_operation_xyz
x,y,z
-x,y,1/2-z
-x,-y,-z
x,-y,1/2+z
1/2+x,1/2+y,z
1/2-x,1/2+y,1/2-z
1/2-x,1/2-y,-z
1/2+x,1/2-y,1/2+z
loop_
_atom_site_type_symbol
_atom_site_label
_atom_site_fract_x
_atom_site_fract_y
_atom_site_fract_z
Si Si1 0.500000 0.626142 0.250000
Si Si2 0.173360 0.620004 0.482416
Si Si3 0.322744 0.292451 0.338402
Si Si4 0.294595 0.981500 0.224240
O O1 0.348343 0.603290 0.378118
O O2 0.611874 0.662327 0.466500
O O3 0.196985 0.676993 0.603580
O O4 0.178279 0.577651 0.697374
O O5 0.000000 0.618743 0.250000
O O6 0.500000 0.273243 0.250000
O O7 0.250000 0.250000 0.500000
O O8 0.500000 0.996431 0.750000
O O9 0.208351 0.991672 0.933491
#
# Coordination Sequence:
#
# PCOD9291820 Si02
#       4
#     4   8   8   8
#     4  10  26  46  68 106 152 180 252 312 362 462
#     4  11  25  45  77 108 145 201 244 310 384 447
#     4  10  25  49  72 104 148 192 251 317 377 460
#     4  10  22  42  72 116 152 191 254 313 375 457
#
# _framework density 26.606089000000001
#
# number of rings (size 3 to 8) (size 9 to 14) (size 15 to 20)
#    0.000    1.714    0.000    2.571    8.000    8.000 
#    0.000    5.714    0.000    0.000    0.000    0.000 
#    0.000    0.000    0.000    0.000    0.000    0.000 
#
# Total GULP energy -78386.084380 kJ/mol
# GULP energy per Si atom -5599.006027 kJ/mol
# Density = 2.654553 g / cm^3
# Si number density = 26.606089 Si / 1000 Ang^3
#
#
#
# Elastic Constant Matrix: (Units=GPa)
#
#
# Indices 1 2 3 4 5 6 
#
# 1 105.7837 75.7173 71.7677 0.0000 -33.7715 0.0000
# 2 75.7173 157.3166 98.9558 0.0000 -2.1320 0.0000
# 3 71.7677 98.9558 197.1299 0.0000 -25.9490 0.0000
# 4 0.0000 0.0000 0.0000 74.2987 0.0000 -24.7050
# 5 -33.7715 -2.1320 -25.9490 0.0000 64.2332 0.0000
# 6 0.0000 0.0000 0.0000 -24.7050 0.0000 14.0318
#
#
#
# Elastic Compliance Matrix: (Units=1/GPa)
#
#
# Indices 1 2 3 4 5 6 
#
# 1 0.019391 -0.008082 -0.001791 0.000000 0.009203 0.000000
# 2 -0.008082 0.012830 -0.004226 0.000000 -0.005530 0.000000
# 3 -0.001791 -0.004226 0.008137 0.000000 0.002205 0.000000
# 4 0.000000 0.000000 0.000000 0.032465 0.000000 0.057160
# 5 0.009203 -0.005530 0.002205 0.000000 0.021114 0.000000
# 6 0.000000 0.000000 0.000000 0.057160 0.000000 0.171904
#
#
# Mechanical properties :
#
#
# Convention : Reuss Voigt Hill
#
# Bulk Modulus (GPa) = 82.23970 105.90134 94.07052
# Shear Modulus (GPa) = 16.77329 44.76539 30.76934
#
# Velocity S-wave (km/s) = 2.51356 4.10631 3.40439
# Velocity P-wave (km/s) = 6.27704 7.89761 7.13349
#
# Compressibility (1/GPa) = 0.01215958
#
# Stress axis : x y z
#
# Youngs Moduli (GPa) = 51.56926 77.94433 122.90126
#
# Poissons Ratio (x) = 0.62992 0.22016
# Poissons Ratio (y) = 0.41676 0.51939
# Poissons Ratio (z) = 0.09238 0.32940
#
# Static dielectric constant tensor:
#      x y z
#    x 2.126040 0.000000 -0.050510 
#    y 0.000000 2.088750 0.000000 
#    z -0.050510 0.000000 2.156920 
# 
# From -- ./inp_files/2052.got.cif
#   From: 2010.05.17/outbox.cif.g08.bks.cpg/sg15_2_cif.got.tgz:2052.got - 2010.06.03 18:47:42.
