data_PCOD9291741
_publ_section_title
;
Structure prediction by ZEFSAII (Michael W. Deem and Ramdas Pophale) SiO2 
 PCOD9291741
Probable space group: C 2/C
;
_chemical_formula_sum "Si O2"
_cell_formula_units_Z 48
_cell_length_a 27.242825
_cell_length_b 14.468174
_cell_length_c 8.316316
_cell_angle_alpha 90.000000
_cell_angle_beta 38.861548
_cell_angle_gamma 90.000000
_cell_volume 2056.693059
_symmetry_space_group_name_H-M "C 2/C"
_symmetry_group_IT_number 15
_symmetry_cell_setting 'monoclinic'
loop_
_space_group_symop_operation_xyz
x,y,z
-x,y,1/2-z
-x,-y,-z
x,-y,1/2+z
1/2+x,1/2+y,z
1/2-x,1/2+y,1/2-z
1/2-x,1/2-y,-z
1/2+x,1/2-y,1/2+z
loop_
_atom_site_type_symbol
_atom_site_label
_atom_site_fract_x
_atom_site_fract_y
_atom_site_fract_z
Si Si1 0.587557 0.965206 0.289207
Si Si2 0.151001 0.194607 0.614810
Si Si3 0.835135 0.303940 0.591933
Si Si4 0.833632 0.123072 0.412390
Si Si5 0.848157 0.620000 0.559383
Si Si6 0.413140 0.464568 0.402270
O O1 0.600637 0.918725 0.427088
O O2 0.500000 0.000000 0.500000
O O3 0.613661 0.891884 0.086233
O O4 0.640572 0.055357 0.124903
O O5 0.142693 0.244639 0.807518
O O6 0.243284 0.170212 0.352548
O O7 0.132499 0.275584 0.535425
O O8 0.096465 0.106602 0.723034
O O9 0.845030 0.231040 0.420531
O O10 0.741188 0.110553 0.661008
O O11 0.876762 0.060503 0.436139
O O12 0.862854 0.085141 0.168699
O O13 0.500000 0.472944 0.250000
#
# Coordination Sequence:
#
# PCOD9291741 Si02
#       6
#     8   8   8   8   8   8
#     4  12  25  42  64  98 142 178 219 277 343 406
#     4  10  22  42  70  98 129 172 224 279 327 394
#     4  10  22  43  70  98 128 173 226 272 329 396
#     4  11  23  42  69  94 128 173 221 275 328 402
#     4  11  23  41  66  95 127 175 226 270 329 401
#     4  12  25  42  64  97 133 167 213 274 343 400
#
# _framework density 23.338436000000002
#
# number of rings (size 3 to 8) (size 9 to 14) (size 15 to 20)
#    0.000    1.000    0.000    7.000    0.000    8.000 
#    0.000    3.333    0.000    0.000    0.000    0.000 
#    0.000    0.000    0.000    0.000    0.000    0.000 
#
# Total GULP energy -134482.476935 kJ/mol
# GULP energy per Si atom -5603.436539 kJ/mol
# Density = 2.328532 g / cm^3
# Si number density = 23.338436 Si / 1000 Ang^3
#
#
#
# Elastic Constant Matrix: (Units=GPa)
#
#
# Indices 1 2 3 4 5 6 
#
# 1 106.4519 34.1454 4.8423 0.0000 -8.9274 0.0000
# 2 34.1454 108.5497 35.7539 0.0000 -24.7601 0.0000
# 3 4.8423 35.7539 51.2000 0.0000 6.2001 0.0000
# 4 0.0000 0.0000 0.0000 1519.5815 0.0000 -406.3301
# 5 -8.9274 -24.7601 6.2001 0.0000 35.9933 0.0000
# 6 0.0000 0.0000 0.0000 -406.3301 0.0000 147.4684
#
#
#
# Elastic Compliance Matrix: (Units=1/GPa)
#
#
# Indices 1 2 3 4 5 6 
#
# 1 0.010569 -0.004065 0.001900 0.000000 -0.000502 0.000000
# 2 -0.004065 0.018350 -0.014131 0.000000 0.014049 0.000000
# 3 0.001900 -0.014131 0.030986 0.000000 -0.014587 0.000000
# 4 0.000000 0.000000 0.000000 0.002500 0.000000 0.006889
# 5 -0.000502 0.014049 -0.014587 0.000000 0.039836 0.000000
# 6 0.000000 0.000000 0.000000 0.006889 0.000000 0.025762
#
#
# Mechanical properties :
#
#
# Convention : Reuss Voigt Hill
#
# Bulk Modulus (GPa) = 36.61264 46.18722 41.39993
# Shear Modulus (GPa) = 29.46390 353.37263 191.41826
#
# Velocity S-wave (km/s) = 3.55697 12.31832 9.06623
# Velocity P-wave (km/s) = 5.70886 14.90485 11.28596
#
# Compressibility (1/GPa) = 0.02731297
#
# Stress axis : x y z
#
# Youngs Moduli (GPa) = 94.61397 54.49573 32.27274
#
# Poissons Ratio (x) = 0.22152 -0.06131
# Poissons Ratio (y) = 0.38460 0.45605
# Poissons Ratio (z) = -0.17975 0.77008
#
# Static dielectric constant tensor:
#      x y z
#    x 1.910330 0.000000 0.070930 
#    y 0.000000 1.857250 0.000000 
#    z 0.070930 0.000000 1.873970 
# 
# From -- ./inp_files/66407.got.cif
#   From: 2010.05.17/outbox.cif.g08.bks.cpg/sg15_34_cif.got.tgz:66407.got - 2010.06.03 18:47:42.
