data_PCOD9291236
_publ_section_title
;
Structure prediction by ZEFSAII (Michael W. Deem and Ramdas Pophale) SiO2 
 PCOD9291236
Probable space group: C 2/C
;
_chemical_formula_sum "Si O2"
_cell_formula_units_Z 56
_cell_length_a 24.323788
_cell_length_b 7.385836
_cell_length_c 13.521865
_cell_angle_alpha 90.000000
_cell_angle_beta 69.125849
_cell_angle_gamma 90.000000
_cell_volume 2269.782153
_symmetry_space_group_name_H-M "C 2/C"
_symmetry_group_IT_number 15
_symmetry_cell_setting 'monoclinic'
loop_
_space_group_symop_operation_xyz
x,y,z
-x,y,1/2-z
-x,-y,-z
x,-y,1/2+z
1/2+x,1/2+y,z
1/2-x,1/2+y,1/2-z
1/2-x,1/2-y,-z
1/2+x,1/2-y,1/2+z
loop_
_atom_site_type_symbol
_atom_site_label
_atom_site_fract_x
_atom_site_fract_y
_atom_site_fract_z
Si Si1 0.000000 0.403201 0.750000
Si Si2 0.374905 0.268183 0.313960
Si Si3 0.227959 0.514776 0.398936
Si Si4 0.312146 0.652298 0.171575
Si Si5 0.974930 0.715588 0.896658
Si Si6 0.590822 0.671736 0.252712
Si Si7 0.869317 0.771410 0.092972
Si Si8 0.250000 0.250000 0.500000
O O1 0.939550 0.296848 0.803317
O O2 0.004502 0.525124 0.847707
O O3 0.381373 0.483802 0.298164
O O4 0.363190 0.207434 0.209381
O O5 0.319863 0.212136 0.413571
O O6 0.264478 0.584505 0.281862
O O7 0.218105 0.292037 0.386495
O O8 0.171183 0.635751 0.442882
O O9 0.260417 0.478638 0.479628
O O10 0.361845 0.757668 0.203205
O O11 0.345103 0.477729 0.105612
O O12 0.928983 0.732787 0.834760
O O13 0.029004 0.853942 0.849915
O O14 0.936282 0.750581 0.016151
#
# Coordination Sequence:
#
# PCOD9291236 Si02
#       8
#     4   8   8   8   8   8   8   4
#     4  10  22  42  66 100 132 184 228 284 348 416
#     4  11  23  43  69 100 140 183 231 289 347 415
#     4  12  24  45  67  99 143 177 230 282 343 416
#     4  11  23  43  69  97 137 184 218 286 340 409
#     4  10  23  43  67  99 132 174 233 284 344 425
#     4   9  21  44  66  94 136 174 227 277 348 405
#     4  11  25  45  69 103 136 181 233 286 350 411
#     4  12  24  44  66 106 140 180 236 282 344 422
#
# _framework density 24.671972
#
# number of rings (size 3 to 8) (size 9 to 14) (size 15 to 20)
#    0.000    1.429    4.286    1.714    6.000    2.857 
#    7.714    1.429    0.000    0.000    0.000    0.000 
#    0.000    0.000    0.000    0.000    0.000    0.000 
#
# Total GULP energy -156073.433236 kJ/mol
# GULP energy per Si atom -5574.051187 kJ/mol
# Density = 2.461582 g / cm^3
# Si number density = 24.671972 Si / 1000 Ang^3
#
#
#
# Elastic Constant Matrix: (Units=GPa)
#
#
# Indices 1 2 3 4 5 6 
#
# 1 125.0214 28.2957 49.3496 0.0000 -20.0599 0.0000
# 2 28.2957 54.3970 11.4794 0.0000 -10.7539 0.0000
# 3 49.3496 11.4794 158.8766 0.0000 -51.7733 0.0000
# 4 0.0000 0.0000 0.0000 13.5457 0.0000 4.9569
# 5 -20.0599 -10.7539 -51.7733 0.0000 51.8546 0.0000
# 6 0.0000 0.0000 0.0000 4.9569 0.0000 51.2392
#
#
#
# Elastic Compliance Matrix: (Units=1/GPa)
#
#
# Indices 1 2 3 4 5 6 
#
# 1 0.010177 -0.004669 -0.002752 0.000000 0.000221 0.000000
# 2 -0.004669 0.021314 0.001130 0.000000 0.003742 0.000000
# 3 -0.002752 0.001130 0.010075 0.000000 0.009229 0.000000
# 4 0.000000 0.000000 0.000000 0.076534 0.000000 -0.007404
# 5 0.000221 0.003742 0.009229 0.000000 0.029360 0.000000
# 6 0.000000 0.000000 0.000000 -0.007404 0.000000 0.020233
#
#
# Mechanical properties :
#
#
# Convention : Reuss Voigt Hill
#
# Bulk Modulus (GPa) = 34.50345 57.39383 45.94864
# Shear Modulus (GPa) = 26.32471 39.93925 33.13198
#
# Velocity S-wave (km/s) = 3.27002 4.02781 3.66854
# Velocity P-wave (km/s) = 5.31720 6.70405 6.05049
#
# Compressibility (1/GPa) = 0.02898261
#
# Stress axis : x y z
#
# Youngs Moduli (GPa) = 98.25970 46.91846 99.25931
#
# Poissons Ratio (x) = 0.21908 0.27313
# Poissons Ratio (y) = 0.45881 -0.11214
# Poissons Ratio (z) = 0.27038 -0.05301
#
# Static dielectric constant tensor:
#      x y z
#    x 2.254940 0.000000 0.242180 
#    y 0.000000 2.025110 0.000000 
#    z 0.242180 0.000000 2.161820 
# 
# From -- ./inp_files/172315.got.cif
#   From: 2010.05.17/outbox.cif.g08.bks.cpg/sg15_87_cif.got.tgz:172315.got - 2010.06.03 18:47:42.
