data_PCOD9291571
_publ_section_title
;
Structure prediction by ZEFSAII (Michael W. Deem and Ramdas Pophale) SiO2 
 PCOD9291571
Probable space group: C 2/C
;
_chemical_formula_sum "Si O2"
_cell_formula_units_Z 44
_cell_length_a 31.188279
_cell_length_b 5.006585
_cell_length_c 13.819674
_cell_angle_alpha 90.000000
_cell_angle_beta 66.684549
_cell_angle_gamma 90.000000
_cell_volume 1981.682860
_symmetry_space_group_name_H-M "C 2/C"
_symmetry_group_IT_number 15
_symmetry_cell_setting 'monoclinic'
loop_
_space_group_symop_operation_xyz
x,y,z
-x,y,1/2-z
-x,-y,-z
x,-y,1/2+z
1/2+x,1/2+y,z
1/2-x,1/2+y,1/2-z
1/2-x,1/2-y,-z
1/2+x,1/2-y,1/2+z
loop_
_atom_site_type_symbol
_atom_site_label
_atom_site_fract_x
_atom_site_fract_y
_atom_site_fract_z
Si Si1 0.139247 0.266218 0.710853
Si Si2 0.417626 0.260067 0.708842
Si Si3 0.219128 0.333130 0.793728
Si Si4 0.783134 0.503597 0.493184
Si Si5 0.500000 0.446096 0.250000
Si Si6 0.527420 0.252570 0.019552
O O1 0.093889 0.451360 0.762758
O O2 0.174080 0.281688 0.770155
O O3 0.169491 0.414131 0.602400
O O4 0.123381 0.959524 0.718912
O O5 0.462070 0.367086 0.729274
O O6 0.424720 0.274481 0.585477
O O7 0.247139 0.057179 0.783397
O O8 0.205005 0.463229 0.906412
O O9 0.750000 0.750000 0.500000
O O10 0.750000 0.250000 0.500000
O O11 0.475718 0.280003 0.360894
O O12 0.500000 0.500000 0.000000
O O13 0.500000 0.000000 0.000000
#
# Coordination Sequence:
#
# PCOD9291571 Si02
#       6
#     8   8   8   8   4   8
#     4  12  25  41  66 101 140 173 233 289 329 408
#     4  11  25  42  66 102 138 177 231 289 338 414
#     4  12  23  42  67  92 131 184 223 280 353 402
#     4  12  23  42  68  97 132 182 232 277 342 411
#     4  10  24  46  74  94 140 188 224 278 366 406
#     4  10  22  42  68  98 130 178 228 279 342 419
#
# _framework density 22.203351999999999
#
# number of rings (size 3 to 8) (size 9 to 14) (size 15 to 20)
#    0.000    0.727    3.636    4.364    0.000    9.455 
#    0.000    0.000    0.000    0.000    0.000    0.000 
#    0.000    0.000    0.000    0.000    0.000    0.000 
#
# Total GULP energy -122786.403885 kJ/mol
# GULP energy per Si atom -5581.200177 kJ/mol
# Density = 2.215282 g / cm^3
# Si number density = 22.203352 Si / 1000 Ang^3
#
#
#
# Elastic Constant Matrix: (Units=GPa)
#
#
# Indices 1 2 3 4 5 6 
#
# 1 86.7429 8.4145 10.2499 0.0000 16.8788 0.0000
# 2 8.4145 133.7617 -3.9412 0.0000 -1.1997 0.0000
# 3 10.2499 -3.9412 111.7405 0.0000 9.6160 0.0000
# 4 0.0000 0.0000 0.0000 28.3480 0.0000 -11.1465
# 5 16.8788 -1.1997 9.6160 0.0000 34.5381 0.0000
# 6 0.0000 0.0000 0.0000 -11.1465 0.0000 8.8291
#
#
#
# Elastic Compliance Matrix: (Units=1/GPa)
#
#
# Indices 1 2 3 4 5 6 
#
# 1 0.012890 -0.000886 -0.000685 0.000000 -0.006139 0.000000
# 2 -0.000886 0.007546 0.000295 0.000000 0.000613 0.000000
# 3 -0.000685 0.000295 0.009214 0.000000 -0.002220 0.000000
# 4 0.000000 0.000000 0.000000 0.070049 0.000000 0.088435
# 5 -0.006139 0.000613 -0.002220 0.000000 0.032593 0.000000
# 6 0.000000 0.000000 0.000000 0.088435 0.000000 0.224910
#
#
# Mechanical properties :
#
#
# Convention : Reuss Voigt Hill
#
# Bulk Modulus (GPa) = 36.90601 40.18797 38.54699
# Shear Modulus (GPa) = 13.55798 35.51116 24.53457
#
# Velocity S-wave (km/s) = 2.47377 4.00354 3.32775
# Velocity P-wave (km/s) = 4.98169 6.28573 5.67131
#
# Compressibility (1/GPa) = 0.02709586
#
# Stress axis : x y z
#
# Youngs Moduli (GPa) = 77.58032 132.52222 108.53506
#
# Poissons Ratio (x) = 0.11743 0.07438
# Poissons Ratio (y) = 0.06875 -0.03198
# Poissons Ratio (z) = 0.05317 -0.03905
#
# Static dielectric constant tensor:
#      x y z
#    x 1.767750 0.000000 -0.024160 
#    y 0.000000 1.780610 0.000000 
#    z -0.024160 0.000000 1.952370 
# 
# From -- ./inp_files/175660.got.cif
#   From: 2010.05.17/outbox.cif.g08.bks.cpg/sg15_88_cif.got.tgz:175660.got - 2010.06.03 18:47:42.
