data_PCOD9291839
_publ_section_title
;
Structure prediction by ZEFSAII (Michael W. Deem and Ramdas Pophale) SiO2 
 PCOD9291839
Probable space group: C 2/C
;
_chemical_formula_sum "Si O2"
_cell_formula_units_Z 36
_cell_length_a 10.673267
_cell_length_b 17.189589
_cell_length_c 10.041616
_cell_angle_alpha 90.000000
_cell_angle_beta 54.596362
_cell_angle_gamma 90.000000
_cell_volume 1501.663348
_symmetry_space_group_name_H-M "C 2/C"
_symmetry_group_IT_number 15
_symmetry_cell_setting 'monoclinic'
loop_
_space_group_symop_operation_xyz
x,y,z
-x,y,1/2-z
-x,-y,-z
x,-y,1/2+z
1/2+x,1/2+y,z
1/2-x,1/2+y,1/2-z
1/2-x,1/2-y,-z
1/2+x,1/2-y,1/2+z
loop_
_atom_site_type_symbol
_atom_site_label
_atom_site_fract_x
_atom_site_fract_y
_atom_site_fract_z
Si Si1 0.528280 0.789557 0.979287
Si Si2 0.648725 0.661695 0.235742
Si Si3 0.582790 0.948656 0.557404
Si Si4 0.631040 0.554717 0.479798
Si Si5 0.500000 0.312213 0.250000
O O1 0.694024 0.815224 0.935825
O O2 0.421611 0.861871 0.001428
O O3 0.574693 0.745187 0.813040
O O4 0.431867 0.734015 0.136055
O O5 0.500000 0.629276 0.250000
O O6 0.703472 0.597299 0.307771
O O7 0.500000 0.945627 0.750000
O O8 0.746668 0.985015 0.498525
O O9 0.500000 0.000000 0.500000
O O10 0.500000 0.500000 0.500000
O O11 0.580846 0.627405 0.601281
#
# Coordination Sequence:
#
# PCOD9291839 Si02
#       5
#     8   8   8   8   4
#     4  11  22  46  70 100 140 184 244 282 363 426
#     4  11  24  42  71 104 142 185 231 301 352 423
#     4  12  27  46  72 101 144 188 233 295 361 422
#     4  11  26  42  71 101 141 182 236 287 354 427
#     4  10  22  42  72  96 130 184 230 284 348 416
#
# _framework density 23.973417000000001
#
# number of rings (size 3 to 8) (size 9 to 14) (size 15 to 20)
#    0.000    0.889    3.333    2.000    7.778    4.444 
#    0.000    0.000    0.000    0.000    0.000    0.000 
#    0.000    0.000    0.000    0.000    0.000    0.000 
#
# Total GULP energy -100466.617320 kJ/mol
# GULP energy per Si atom -5581.478740 kJ/mol
# Density = 2.391885 g / cm^3
# Si number density = 23.973417 Si / 1000 Ang^3
#
#
#
# Elastic Constant Matrix: (Units=GPa)
#
#
# Indices 1 2 3 4 5 6 
#
# 1 213.0285 50.9886 15.4539 0.0000 -14.4871 0.0000
# 2 50.9886 79.9445 13.2171 0.0000 2.1804 0.0000
# 3 15.4539 13.2171 25.2980 0.0000 -0.1579 0.0000
# 4 0.0000 0.0000 0.0000 25.7893 0.0000 4.1749
# 5 -14.4871 2.1804 -0.1579 0.0000 42.0407 0.0000
# 6 0.0000 0.0000 0.0000 4.1749 0.0000 45.8193
#
#
#
# Elastic Compliance Matrix: (Units=1/GPa)
#
#
# Indices 1 2 3 4 5 6 
#
# 1 0.005798 -0.003474 -0.001713 0.000000 0.002172 0.000000
# 2 -0.003474 0.015795 -0.006143 0.000000 -0.002039 0.000000
# 3 -0.001713 -0.006143 0.043784 0.000000 -0.000107 0.000000
# 4 0.000000 0.000000 0.000000 0.039356 0.000000 -0.003586
# 5 0.002172 -0.002039 -0.000107 0.000000 0.024640 0.000000
# 6 0.000000 0.000000 0.000000 -0.003586 0.000000 0.022152
#
#
# Mechanical properties :
#
#
# Convention : Reuss Voigt Hill
#
# Bulk Modulus (GPa) = 23.40978 53.06556 38.23767
# Shear Modulus (GPa) = 26.53582 38.63727 32.58655
#
# Velocity S-wave (km/s) = 3.33060 4.01892 3.69084
# Velocity P-wave (km/s) = 4.95748 6.61202 5.84360
#
# Compressibility (1/GPa) = 0.04271719
#
# Stress axis : x y z
#
# Youngs Moduli (GPa) = 172.48519 63.30936 22.83927
#
# Poissons Ratio (x) = 0.21992 0.03913
# Poissons Ratio (y) = 0.59916 0.14031
# Poissons Ratio (z) = 0.29550 0.38892
#
# Static dielectric constant tensor:
#      x y z
#    x 1.975630 0.000000 -0.085110 
#    y 0.000000 1.934340 0.000000 
#    z -0.085110 0.000000 1.910060 
# 
# From -- ./inp_files/87033.got.cif
#   From: 2010.05.17/outbox.cif.g08.bks.cpg/sg15_44_cif.got.tgz:87033.got - 2010.06.03 18:47:42.
