data_PCOD9291170
_publ_section_title
;
Structure prediction by ZEFSAII (Michael W. Deem and Ramdas Pophale) SiO2 
 PCOD9291170
Probable space group: C 2/C
;
_chemical_formula_sum "Si O2"
_cell_formula_units_Z 40
_cell_length_a 13.068873
_cell_length_b 18.194202
_cell_length_c 8.592772
_cell_angle_alpha 90.000000
_cell_angle_beta 75.734186
_cell_angle_gamma 90.000000
_cell_volume 1980.164333
_symmetry_space_group_name_H-M "C 2/C"
_symmetry_group_IT_number 15
_symmetry_cell_setting 'monoclinic'
loop_
_space_group_symop_operation_xyz
x,y,z
-x,y,1/2-z
-x,-y,-z
x,-y,1/2+z
1/2+x,1/2+y,z
1/2-x,1/2+y,1/2-z
1/2-x,1/2-y,-z
1/2+x,1/2-y,1/2+z
loop_
_atom_site_type_symbol
_atom_site_label
_atom_site_fract_x
_atom_site_fract_y
_atom_site_fract_z
Si Si1 0.238621 0.959439 0.935948
Si Si2 0.614766 0.839695 0.782544
Si Si3 0.108171 0.598633 0.630483
Si Si4 0.612932 0.434053 0.290184
Si Si5 0.276446 0.702685 0.645205
O O1 0.306143 0.897914 0.824299
O O2 0.316085 0.029230 0.922207
O O3 0.139694 0.991618 0.874532
O O4 0.196802 0.932837 0.117193
O O5 0.500000 0.836123 0.750000
O O6 0.675069 0.761805 0.756663
O O7 0.594349 0.864744 0.967753
O O8 0.167731 0.659008 0.715032
O O9 0.000000 0.575513 0.750000
O O10 0.500000 0.432034 0.250000
O O11 0.637929 0.363856 0.391389
O O12 0.250000 0.750000 0.500000
#
# Coordination Sequence:
#
# PCOD9291170 Si02
#       5
#     8   8   8   8   8
#     4  11  23  40  65  94 132 164 213 268 316 381
#     4  11  23  39  64  94 126 165 213 261 318 377
#     4  10  22  42  65  91 127 171 205 258 324 376
#     4  11  23  43  67  93 128 173 216 264 322 380
#     4   9  22  44  62  87 132 163 209 267 312 380
#
# _framework density 20.200341999999999
#
# number of rings (size 3 to 8) (size 9 to 14) (size 15 to 20)
#    0.000    1.600    2.000    1.800    5.600    2.400 
#    7.200    0.000    0.000    0.000    0.000    0.000 
#    0.000    0.000    0.000    0.000    0.000    0.000 
#
# Total GULP energy -111577.454161 kJ/mol
# GULP energy per Si atom -5578.872708 kJ/mol
# Density = 2.015437 g / cm^3
# Si number density = 20.200342 Si / 1000 Ang^3
#
#
#
# Elastic Constant Matrix: (Units=GPa)
#
#
# Indices 1 2 3 4 5 6 
#
# 1 123.5784 55.2534 20.4274 0.0000 16.0816 0.0000
# 2 55.2534 112.0535 15.6925 0.0000 11.1048 0.0000
# 3 20.4274 15.6925 67.8622 0.0000 -1.4276 0.0000
# 4 0.0000 0.0000 0.0000 23.3904 0.0000 12.9704
# 5 16.0816 11.1048 -1.4276 0.0000 33.0263 0.0000
# 6 0.0000 0.0000 0.0000 12.9704 0.0000 18.2733
#
#
#
# Elastic Compliance Matrix: (Units=1/GPa)
#
#
# Indices 1 2 3 4 5 6 
#
# 1 0.011118 -0.004769 -0.002326 0.000000 -0.003911 0.000000
# 2 -0.004769 0.011618 -0.001286 0.000000 -0.001640 0.000000
# 3 -0.002326 -0.001286 0.015780 0.000000 0.002247 0.000000
# 4 0.000000 0.000000 0.000000 0.070502 0.000000 -0.050042
# 5 -0.003911 -0.001640 0.002247 0.000000 0.032832 0.000000
# 6 0.000000 0.000000 0.000000 -0.050042 0.000000 0.090245
#
#
# Mechanical properties :
#
#
# Convention : Reuss Voigt Hill
#
# Bulk Modulus (GPa) = 45.96556 54.02673 49.99615
# Shear Modulus (GPa) = 19.52303 29.07940 24.30121
#
# Velocity S-wave (km/s) = 3.11218 3.79826 3.47221
# Velocity P-wave (km/s) = 5.97649 6.78522 6.39366
#
# Compressibility (1/GPa) = 0.02175542
#
# Stress axis : x y z
#
# Youngs Moduli (GPa) = 89.94749 86.07063 63.36941
#
# Poissons Ratio (x) = 0.41045 0.14740
# Poissons Ratio (y) = 0.42894 0.08147
# Poissons Ratio (z) = 0.20922 0.11066
#
# Static dielectric constant tensor:
#      x y z
#    x 1.734080 0.000000 0.045740 
#    y 0.000000 1.729440 0.000000 
#    z 0.045740 0.000000 1.713460 
# 
# From -- ./inp_files/29082.got.cif
#   From: 2010.05.17/outbox.cif.g08.bks.cpg/sg15_15_cif.got.tgz:29082.got - 2010.06.03 18:47:42.
