data_PCOD9291587
_publ_section_title
;
Structure prediction by ZEFSAII (Michael W. Deem and Ramdas Pophale) SiO2 
 PCOD9291587
Probable space group: C 2/C
;
_chemical_formula_sum "Si O2"
_cell_formula_units_Z 48
_cell_length_a 10.180264
_cell_length_b 13.350623
_cell_length_c 19.691173
_cell_angle_alpha 90.000000
_cell_angle_beta 134.516871
_cell_angle_gamma 90.000000
_cell_volume 1908.308172
_symmetry_space_group_name_H-M "C 2/C"
_symmetry_group_IT_number 15
_symmetry_cell_setting 'monoclinic'
loop_
_space_group_symop_operation_xyz
x,y,z
-x,y,1/2-z
-x,-y,-z
x,-y,1/2+z
1/2+x,1/2+y,z
1/2-x,1/2+y,1/2-z
1/2-x,1/2-y,-z
1/2+x,1/2-y,1/2+z
loop_
_atom_site_type_symbol
_atom_site_label
_atom_site_fract_x
_atom_site_fract_y
_atom_site_fract_z
Si Si1 0.100683 0.867215 0.878469
Si Si2 0.636031 0.058775 0.357869
Si Si3 0.780886 0.334795 0.088538
Si Si4 0.893605 0.472002 0.893534
Si Si5 0.398130 0.437863 0.283726
Si Si6 0.579783 0.686884 0.969458
O O1 0.061763 0.750149 0.852948
O O2 0.219713 0.911085 0.859053
O O3 0.223885 0.866384 0.991435
O O4 0.940119 0.949137 0.826516
O O5 0.500000 0.095720 0.250000
O O6 0.676264 0.940638 0.361014
O O7 0.529749 0.078205 0.390317
O O8 0.826670 0.114394 0.440571
O O9 0.602060 0.277668 0.055667
O O10 0.812084 0.561932 0.817496
O O11 0.000000 0.500000 0.000000
O O12 0.500000 0.415651 0.250000
O O13 0.485943 0.368048 0.371697
O O14 0.750000 0.750000 0.000000
#
# Coordination Sequence:
#
# PCOD9291587 Si02
#       6
#     8   8   8   8   8   8
#     4  10  22  42  69 100 130 183 225 282 338 418
#     4  12  25  41  69 104 140 180 230 294 356 412
#     4  11  23  42  69  99 138 174 229 284 346 410
#     4  11  21  42  69 104 137 180 230 280 354 426
#     4  10  22  43  73  97 134 180 229 280 343 415
#     4  12  26  47  68  97 140 186 230 287 352 420
#
# _framework density 25.153169999999999
#
# number of rings (size 3 to 8) (size 9 to 14) (size 15 to 20)
#    0.000    1.000    3.333    3.500    2.333    2.667 
#    0.000    1.667    0.000    0.000    0.000    0.000 
#    0.000    0.000    0.000    0.000    0.000    0.000 
#
# Total GULP energy -134048.719814 kJ/mol
# GULP energy per Si atom -5585.363326 kJ/mol
# Density = 2.509592 g / cm^3
# Si number density = 25.153170 Si / 1000 Ang^3
#
#
#
# Elastic Constant Matrix: (Units=GPa)
#
#
# Indices 1 2 3 4 5 6 
#
# 1 95.2938 12.9249 16.1432 0.0000 -14.4468 0.0000
# 2 12.9249 66.1104 37.0079 0.0000 -3.4639 0.0000
# 3 16.1432 37.0079 180.7465 0.0000 -28.8346 0.0000
# 4 0.0000 0.0000 0.0000 12.6592 0.0000 3.8750
# 5 -14.4468 -3.4639 -28.8346 0.0000 40.0719 0.0000
# 6 0.0000 0.0000 0.0000 3.8750 0.0000 30.2012
#
#
#
# Elastic Compliance Matrix: (Units=1/GPa)
#
#
# Indices 1 2 3 4 5 6 
#
# 1 0.011362 -0.002032 0.000030 0.000000 0.003942 0.000000
# 2 -0.002032 0.017497 -0.003701 0.000000 -0.001883 0.000000
# 3 0.000030 -0.003701 0.007047 0.000000 0.004762 0.000000
# 4 0.000000 0.000000 0.000000 0.082223 0.000000 -0.010550
# 5 0.003942 -0.001883 0.004762 0.000000 0.029640 0.000000
# 6 0.000000 0.000000 0.000000 -0.010550 0.000000 0.034465
#
#
# Mechanical properties :
#
#
# Convention : Reuss Voigt Hill
#
# Bulk Modulus (GPa) = 40.81587 52.70028 46.75808
# Shear Modulus (GPa) = 24.77614 34.99146 29.88380
#
# Velocity S-wave (km/s) = 3.14189 3.73384 3.45058
# Velocity P-wave (km/s) = 5.42440 6.29174 5.87410
#
# Compressibility (1/GPa) = 0.02450027
#
# Stress axis : x y z
#
# Youngs Moduli (GPa) = 88.01289 57.15339 141.89439
#
# Poissons Ratio (x) = 0.11611 -0.00427
# Poissons Ratio (y) = 0.17881 0.52522
# Poissons Ratio (z) = -0.00265 0.21155
#
# Static dielectric constant tensor:
#      x y z
#    x 2.055990 0.000000 0.067220 
#    y 0.000000 2.073570 0.000000 
#    z 0.067220 0.000000 2.065860 
# 
# From -- ./inp_files/239042.got.cif
#   From: 2010.05.17/outbox.cif.g08.bks.cpg/sg15_120_cif.got.tgz:239042.got - 2010.06.03 18:47:42.
