data_PCOD9291346
_publ_section_title
;
Structure prediction by ZEFSAII (Michael W. Deem and Ramdas Pophale) SiO2 
 PCOD9291346
Probable space group: C 2/C
;
_chemical_formula_sum "Si O2"
_cell_formula_units_Z 48
_cell_length_a 27.382061
_cell_length_b 11.725483
_cell_length_c 21.943421
_cell_angle_alpha 90.000000
_cell_angle_beta 20.257627
_cell_angle_gamma 90.000000
_cell_volume 2439.388017
_symmetry_space_group_name_H-M "C 2/C"
_symmetry_group_IT_number 15
_symmetry_cell_setting 'monoclinic'
loop_
_space_group_symop_operation_xyz
x,y,z
-x,y,1/2-z
-x,-y,-z
x,-y,1/2+z
1/2+x,1/2+y,z
1/2-x,1/2+y,1/2-z
1/2-x,1/2-y,-z
1/2+x,1/2-y,1/2+z
loop_
_atom_site_type_symbol
_atom_site_label
_atom_site_fract_x
_atom_site_fract_y
_atom_site_fract_z
Si Si1 0.791580 0.032390 0.296707
Si Si2 0.324957 0.175594 0.362403
Si Si3 0.591569 0.588108 0.469821
Si Si4 0.639879 0.478454 0.544579
Si Si5 0.640160 0.198347 0.981052
Si Si6 0.839037 0.717964 0.956595
O O1 0.682006 0.930188 0.420972
O O2 0.817766 0.071795 0.196997
O O3 0.739230 0.126780 0.407359
O O4 0.938944 0.970428 0.141099
O O5 0.250000 0.250000 0.500000
O O6 0.487004 0.189162 0.190016
O O7 0.265149 0.237872 0.371307
O O8 0.268006 0.045792 0.427441
O O9 0.637203 0.531938 0.480420
O O10 0.601488 0.723205 0.468966
O O11 0.500000 0.501600 0.750000
O O12 0.650232 0.342849 0.525099
O O13 0.000000 0.682514 0.750000
O O14 0.750000 0.750000 0.000000
#
# Coordination Sequence:
#
# PCOD9291346 Si02
#       6
#     8   8   8   8   8   8
#     4  11  24  43  73  93 137 180 226 275 340 406
#     4  11  22  38  65  96 132 171 213 282 334 401
#     4  10  23  46  66  99 134 182 217 282 344 400
#     4  10  22  42  66  96 139 173 227 278 343 392
#     4  11  23  41  63  99 129 168 229 267 341 395
#     4  11  26  44  68 101 136 180 229 278 336 406
#
# _framework density 19.677066
#
# number of rings (size 3 to 8) (size 9 to 14) (size 15 to 20)
#    0.000    1.333    1.667    4.500    7.000    0.000 
#    0.000    3.333    0.000    0.000    0.000    0.000 
#    0.000    0.000    0.000    0.000    0.000    0.000 
#
# Total GULP energy -133625.017941 kJ/mol
# GULP energy per Si atom -5567.709081 kJ/mol
# Density = 1.963228 g / cm^3
# Si number density = 19.677066 Si / 1000 Ang^3
#
#
#
# Elastic Constant Matrix: (Units=GPa)
#
#
# Indices 1 2 3 4 5 6 
#
# 1 89.2425 38.6124 50.0096 0.0000 19.9838 0.0000
# 2 38.6124 129.9157 52.9456 0.0000 26.0005 0.0001
# 3 50.0096 52.9456 115.2711 -0.0001 14.8955 0.0001
# 4 0.0000 0.0000 -0.0001 20.3219 0.0000 -18.0359
# 5 19.9838 26.0005 14.8955 0.0000 27.8403 -0.0001
# 6 0.0000 0.0001 0.0001 -18.0359 -0.0001 0.7150
#
#
#
# Elastic Compliance Matrix: (Units=1/GPa)
#
#
# Indices 1 2 3 4 5 6 
#
# 1 0.016627 -0.001027 -0.005719 0.000000 -0.007916 0.000000
# 2 -0.001027 0.011000 -0.003626 0.000000 -0.007597 0.000000
# 3 -0.005719 -0.003626 0.012734 0.000000 0.000678 0.000000
# 4 0.000000 0.000000 0.000000 -0.002301 0.000000 -0.058038
# 5 -0.007916 -0.007597 0.000678 0.000000 0.048333 0.000000
# 6 0.000000 0.000000 0.000000 -0.058038 0.000000 -0.065394
#
#
# Mechanical properties :
#
#
# Convention : Reuss Voigt Hill
#
# Bulk Modulus (GPa) = 50.97121 68.61828 59.79475
# Shear Modulus (GPa) = 103.55770 22.63289 63.09529
#
# Velocity S-wave (km/s) = 7.26243 3.39516 5.66877
# Velocity P-wave (km/s) = 9.81244 7.09348 8.56158
#
# Compressibility (1/GPa) = 0.01961892
#
# Stress axis : x y z
#
# Youngs Moduli (GPa) = 60.14261 90.90634 78.52984
#
# Poissons Ratio (x) = 0.09334 0.44912
# Poissons Ratio (y) = 0.06175 0.28471
# Poissons Ratio (z) = 0.34396 0.32958
#
# Static dielectric constant tensor:
#      x y z
#    x 2.116930 0.000000 -0.281520 
#    y 0.000000 1.629420 0.000000 
#    z -0.281520 0.000000 1.884460 
# 
# From -- ./inp_files/257573.got.cif
#   From: 2010.05.17/outbox.cif.g08.bks.cpg/sg15_129_cif.got.tgz:257573.got - 2010.06.03 18:47:42.
