data_PCOD9291740
_publ_section_title
;
Structure prediction by ZEFSAII (Michael W. Deem and Ramdas Pophale) SiO2 
 PCOD9291740
Probable space group: C 2/C
;
_chemical_formula_sum "Si O2"
_cell_formula_units_Z 52
_cell_length_a 24.535001
_cell_length_b 9.461030
_cell_length_c 11.500561
_cell_angle_alpha 90.000000
_cell_angle_beta 71.982232
_cell_angle_gamma 90.000000
_cell_volume 2538.668931
_symmetry_space_group_name_H-M "C 2/C"
_symmetry_group_IT_number 15
_symmetry_cell_setting 'monoclinic'
loop_
_space_group_symop_operation_xyz
x,y,z
-x,y,1/2-z
-x,-y,-z
x,-y,1/2+z
1/2+x,1/2+y,z
1/2-x,1/2+y,1/2-z
1/2-x,1/2-y,-z
1/2+x,1/2-y,1/2+z
loop_
_atom_site_type_symbol
_atom_site_label
_atom_site_fract_x
_atom_site_fract_y
_atom_site_fract_z
Si Si1 0.690759 0.734271 0.612096
Si Si2 0.392518 0.305249 0.958286
Si Si3 0.500000 0.385547 0.750000
Si Si4 0.800836 0.089067 0.329880
Si Si5 0.938660 0.967248 0.591840
Si Si6 0.360157 0.763611 0.095751
Si Si7 0.172616 0.585227 0.353766
O O1 0.750000 0.750000 0.500000
O O2 0.688515 0.578606 0.669252
O O3 0.645266 0.750734 0.538874
O O4 0.682226 0.846843 0.720248
O O5 0.455741 0.296450 0.858245
O O6 0.342274 0.339054 0.898232
O O7 0.396127 0.433742 0.049024
O O8 0.375162 0.168829 0.042808
O O9 0.452736 0.484898 0.717761
O O10 0.817735 0.160249 0.196083
O O11 0.732468 0.104373 0.384509
O O12 0.920605 0.804390 0.590901
O O13 0.000000 0.000000 0.500000
O O14 0.344513 0.921515 0.142704
#
# Coordination Sequence:
#
# PCOD9291740 Si02
#       7
#     8   8   4   8   8   8   8
#     4  12  25  43  65 100 149 187 234 282 343 434
#     4  11  24  42  72 100 137 183 242 293 357 420
#     4  10  22  44  72  96 132 174 244 302 342 420
#     4  12  23  42  71 100 143 192 234 278 354 432
#     4  10  22  42  70  98 123 180 240 288 342 420
#     4  12  25  44  67 103 145 185 234 295 353 421
#     4  12  27  40  67 109 147 185 232 288 367 426
#
# _framework density 20.483174000000002
#
# number of rings (size 3 to 8) (size 9 to 14) (size 15 to 20)
#    0.000    0.615    6.154    1.385    2.154    1.231 
#    0.000    3.077    0.000    1.846    0.000    0.000 
#    0.000    0.000    0.000    0.000    0.000    0.000 
#
# Total GULP energy -144988.884022 kJ/mol
# GULP energy per Si atom -5576.495539 kJ/mol
# Density = 2.043655 g / cm^3
# Si number density = 20.483174 Si / 1000 Ang^3
#
#
#
# Elastic Constant Matrix: (Units=GPa)
#
#
# Indices 1 2 3 4 5 6 
#
# 1 94.8602 36.4970 44.6960 0.0000 2.7787 0.0000
# 2 36.4970 144.3792 66.9721 0.0000 -13.2666 0.0000
# 3 44.6960 66.9721 104.2483 0.0000 -2.5383 0.0000
# 4 0.0000 0.0000 0.0000 30.5351 0.0000 -0.5443
# 5 2.7787 -13.2666 -2.5383 0.0000 52.5932 0.0000
# 6 0.0000 0.0000 0.0000 -0.5443 0.0000 13.8250
#
#
#
# Elastic Compliance Matrix: (Units=1/GPa)
#
#
# Indices 1 2 3 4 5 6 
#
# 1 0.013395 -0.001172 -0.005021 0.000000 -0.001246 0.000000
# 2 -0.001172 0.010226 -0.006010 0.000000 0.002351 0.000000
# 3 -0.005021 -0.006010 0.015594 0.000000 -0.000498 0.000000
# 4 0.000000 0.000000 0.000000 0.032772 0.000000 0.001290
# 5 -0.001246 0.002351 -0.000498 0.000000 0.019649 0.000000
# 6 0.000000 0.000000 0.000000 0.001290 0.000000 0.072383
#
#
# Mechanical properties :
#
#
# Convention : Reuss Voigt Hill
#
# Bulk Modulus (GPa) = 67.52006 71.09087 69.30547
# Shear Modulus (GPa) = 25.85844 32.41217 29.13531
#
# Velocity S-wave (km/s) = 3.55691 3.98223 3.77557
# Velocity P-wave (km/s) = 7.06428 7.47840 7.27429
#
# Compressibility (1/GPa) = 0.01481041
#
# Stress axis : x y z
#
# Youngs Moduli (GPa) = 74.65676 97.78717 64.12738
#
# Poissons Ratio (x) = 0.11456 0.32196
# Poissons Ratio (y) = 0.08747 0.38541
# Poissons Ratio (z) = 0.37482 0.58771
#
# Static dielectric constant tensor:
#      x y z
#    x 1.802390 0.000000 0.058170 
#    y 0.000000 1.757090 0.000000 
#    z 0.058170 0.000000 2.003810 
# 
# From -- ./inp_files/121476.got.cif
#   From: 2010.05.17/outbox.cif.g08.bks.cpg/sg15_61_cif.got.tgz:121476.got - 2010.06.03 18:47:42.
