data_PCOD9291321
_publ_section_title
;
Structure prediction by ZEFSAII (Michael W. Deem and Ramdas Pophale) SiO2 
 PCOD9291321
Probable space group: C 2/C
;
_chemical_formula_sum "Si O2"
_cell_formula_units_Z 36
_cell_length_a 7.620671
_cell_length_b 16.479727
_cell_length_c 14.916937
_cell_angle_alpha 90.000000
_cell_angle_beta 53.002645
_cell_angle_gamma 90.000000
_cell_volume 1496.189507
_symmetry_space_group_name_H-M "C 2/C"
_symmetry_group_IT_number 15
_symmetry_cell_setting 'monoclinic'
loop_
_space_group_symop_operation_xyz
x,y,z
-x,y,1/2-z
-x,-y,-z
x,-y,1/2+z
1/2+x,1/2+y,z
1/2-x,1/2+y,1/2-z
1/2-x,1/2-y,-z
1/2+x,1/2-y,1/2+z
loop_
_atom_site_type_symbol
_atom_site_label
_atom_site_fract_x
_atom_site_fract_y
_atom_site_fract_z
Si Si1 0.184019 0.421323 0.124466
Si Si2 0.301067 0.889747 0.575699
Si Si3 0.790366 0.915377 0.697325
Si Si4 0.000000 0.272204 0.750000
Si Si5 0.497697 0.720570 0.563730
O O1 0.250601 0.506662 0.148475
O O2 0.396928 0.362465 0.057991
O O3 0.000000 0.387624 0.250000
O O4 0.101752 0.426357 0.046454
O O5 0.339367 0.919311 0.666740
O O6 0.374335 0.795881 0.555093
O O7 0.042657 0.904011 0.643157
O O8 0.700456 0.835160 0.676143
O O9 0.069905 0.218507 0.811038
O O10 0.750000 0.750000 0.500000
#
# Coordination Sequence:
#
# PCOD9291321 Si02
#       5
#     8   8   8   4   8
#     4  12  26  43  71 109 139 179 245 295 347 424
#     4  10  24  45  74  93 147 186 230 283 369 409
#     4  10  22  47  68 101 136 193 226 288 354 431
#     4  10  22  42  66  94 142 176 228 280 358 406
#     4  11  26  44  70 101 139 185 234 293 351 421
#
# _framework density 24.061124
#
# number of rings (size 3 to 8) (size 9 to 14) (size 15 to 20)
#    0.000    1.333    1.111    2.667    9.333    2.667 
#    0.000    0.000    0.000    0.000    0.000    0.000 
#    0.000    0.000    0.000    0.000    0.000    0.000 
#
# Total GULP energy -100450.178761 kJ/mol
# GULP energy per Si atom -5580.565487 kJ/mol
# Density = 2.400636 g / cm^3
# Si number density = 24.061124 Si / 1000 Ang^3
#
#
#
# Elastic Constant Matrix: (Units=GPa)
#
#
# Indices 1 2 3 4 5 6 
#
# 1 83.5099 22.2011 32.0811 0.0000 23.4670 0.0000
# 2 22.2011 75.0706 24.7345 0.0000 34.3583 0.0000
# 3 32.0811 24.7345 131.4980 0.0000 36.2514 0.0000
# 4 0.0000 0.0000 0.0000 37.7935 0.0000 1.1426
# 5 23.4670 34.3583 36.2514 0.0000 65.1285 0.0000
# 6 0.0000 0.0000 0.0000 1.1426 0.0000 33.6738
#
#
#
# Elastic Compliance Matrix: (Units=1/GPa)
#
#
# Indices 1 2 3 4 5 6 
#
# 1 0.014201 -0.002221 -0.002314 0.000000 -0.002657 0.000000
# 2 -0.002221 0.017996 -0.000527 0.000000 -0.008400 0.000000
# 3 -0.002314 -0.000527 0.009405 0.000000 -0.004123 0.000000
# 4 0.000000 0.000000 0.000000 0.026487 0.000000 -0.000899
# 5 -0.002657 -0.008400 -0.004123 0.000000 0.023038 0.000000
# 6 0.000000 0.000000 0.000000 -0.000899 0.000000 0.029727
#
#
# Mechanical properties :
#
#
# Convention : Reuss Voigt Hill
#
# Bulk Modulus (GPa) = 31.77031 49.79020 40.78026
# Shear Modulus (GPa) = 35.34292 41.38995 38.36643
#
# Velocity S-wave (km/s) = 3.83676 4.15203 3.99750
# Velocity P-wave (km/s) = 5.73239 6.61241 6.18806
#
# Compressibility (1/GPa) = 0.03147593
#
# Stress axis : x y z
#
# Youngs Moduli (GPa) = 70.41864 55.56839 106.32548
#
# Poissons Ratio (x) = 0.12343 0.24606
# Poissons Ratio (y) = 0.15641 0.05608
# Poissons Ratio (z) = 0.16297 0.02931
#
# Static dielectric constant tensor:
#      x y z
#    x 2.185170 0.000000 -0.171360 
#    y 0.000000 1.855320 0.000000 
#    z -0.171360 0.000000 2.197630 
# 
# From -- ./inp_files/134172.got.cif
#   From: 2010.05.17/outbox.cif.g08.bks.cpg/sg15_68_cif.got.tgz:134172.got - 2010.06.03 18:47:42.
