data_PCOD9291668
_publ_section_title
;
Structure prediction by ZEFSAII (Michael W. Deem and Ramdas Pophale) SiO2 
 PCOD9291668
Probable space group: C 2/C
;
_chemical_formula_sum "Si O2"
_cell_formula_units_Z 44
_cell_length_a 21.913254
_cell_length_b 10.866708
_cell_length_c 9.517470
_cell_angle_alpha 90.000000
_cell_angle_beta 117.462858
_cell_angle_gamma 90.000000
_cell_volume 2010.952214
_symmetry_space_group_name_H-M "C 2/C"
_symmetry_group_IT_number 15
_symmetry_cell_setting 'monoclinic'
loop_
_space_group_symop_operation_xyz
x,y,z
-x,y,1/2-z
-x,-y,-z
x,-y,1/2+z
1/2+x,1/2+y,z
1/2-x,1/2+y,1/2-z
1/2-x,1/2-y,-z
1/2+x,1/2-y,1/2+z
loop_
_atom_site_type_symbol
_atom_site_label
_atom_site_fract_x
_atom_site_fract_y
_atom_site_fract_z
Si Si1 0.000000 0.801822 0.250000
Si Si2 0.496377 0.854796 0.476363
Si Si3 0.347998 0.767517 0.905166
Si Si4 0.228183 0.830520 0.609909
Si Si5 0.863683 0.767716 0.735814
Si Si6 0.133689 0.054220 0.795794
O O1 0.021922 0.713446 0.398477
O O2 0.937167 0.885449 0.229923
O O3 0.572447 0.807638 0.518417
O O4 0.433568 0.811326 0.312790
O O5 0.500000 0.000000 0.500000
O O6 0.297023 0.861515 0.770153
O O7 0.342469 0.640062 0.809771
O O8 0.329368 0.757022 0.048535
O O9 0.250000 0.750000 0.500000
O O10 0.183025 0.753249 0.674757
O O11 0.184940 0.935017 0.483797
O O12 0.878688 0.913821 0.756506
#
# Coordination Sequence:
#
# PCOD9291668 Si02
#       6
#     4   8   8   8   8   8
#     4  10  22  42  70 100 138 184 226 292 362 406
#     4  11  26  45  68  98 141 190 235 284 352 439
#     4  10  24  42  68 104 142 180 236 290 353 421
#     4  10  22  47  65  99 144 183 225 285 362 420
#     4  12  23  43  74 106 134 181 244 293 352 420
#     4  10  22  42  72 104 141 179 227 302 360 408
#
# _framework density 21.880181
#
# number of rings (size 3 to 8) (size 9 to 14) (size 15 to 20)
#    0.000    1.455    1.818    2.182    5.091    1.455 
#   13.091    0.000    0.000    0.000    0.000    0.000 
#    0.000    0.000    0.000    0.000    0.000    0.000 
#
# Total GULP energy -122847.120269 kJ/mol
# GULP energy per Si atom -5583.960012 kJ/mol
# Density = 2.183038 g / cm^3
# Si number density = 21.880181 Si / 1000 Ang^3
#
#
#
# Elastic Constant Matrix: (Units=GPa)
#
#
# Indices 1 2 3 4 5 6 
#
# 1 111.8187 26.9940 63.3231 0.0000 -1.1342 0.0000
# 2 26.9940 95.9369 40.6452 0.0000 1.6221 0.0000
# 3 63.3231 40.6452 164.6605 0.0000 -7.8907 0.0000
# 4 0.0000 0.0000 0.0000 20.9744 0.0000 -6.9879
# 5 -1.1342 1.6221 -7.8907 0.0000 33.3283 0.0000
# 6 0.0000 0.0000 0.0000 -6.9879 0.0000 5.6819
#
#
#
# Elastic Compliance Matrix: (Units=1/GPa)
#
#
# Indices 1 2 3 4 5 6 
#
# 1 0.011641 -0.001519 -0.004126 0.000000 -0.000507 0.000000
# 2 -0.001519 0.011892 -0.002409 0.000000 -0.001201 0.000000
# 3 -0.004126 -0.002409 0.008348 0.000000 0.001953 0.000000
# 4 0.000000 0.000000 0.000000 0.080774 0.000000 0.099342
# 5 -0.000507 -0.001201 0.001953 0.000000 0.030508 0.000000
# 6 0.000000 0.000000 0.000000 0.099342 0.000000 0.298176
#
#
# Mechanical properties :
#
#
# Convention : Reuss Voigt Hill
#
# Bulk Modulus (GPa) = 63.39814 70.48229 66.94022
# Shear Modulus (GPa) = 10.80602 28.09383 19.44992
#
# Velocity S-wave (km/s) = 2.22473 3.58716 2.98473
# Velocity P-wave (km/s) = 5.96970 7.03134 6.52216
#
# Compressibility (1/GPa) = 0.01577333
#
# Stress axis : x y z
#
# Youngs Moduli (GPa) = 85.90139 84.09215 119.78747
#
# Poissons Ratio (x) = 0.12772 0.49427
# Poissons Ratio (y) = 0.13047 0.28855
# Poissons Ratio (z) = 0.35445 0.20256
#
# Static dielectric constant tensor:
#      x y z
#    x 1.810760 0.000000 -0.022260 
#    y 0.000000 1.751840 0.000000 
#    z -0.022260 0.000000 1.750710 
# 
# From -- ./inp_files/60943.got.cif
#   From: 2010.05.17/outbox.cif.g08.bks.cpg/sg15_31_cif.got.tgz:60943.got - 2010.06.03 18:47:42.
