data_PCOD9291944
_publ_section_title
;
Structure prediction by ZEFSAII (Michael W. Deem and Ramdas Pophale) SiO2 
 PCOD9291944
Probable space group: C 2/C
;
_chemical_formula_sum "Si O2"
_cell_formula_units_Z 56
_cell_length_a 17.502490
_cell_length_b 12.064645
_cell_length_c 16.702450
_cell_angle_alpha 90.000000
_cell_angle_beta 129.464534
_cell_angle_gamma 90.000000
_cell_volume 2722.839775
_symmetry_space_group_name_H-M "C 2/C"
_symmetry_group_IT_number 15
_symmetry_cell_setting 'monoclinic'
loop_
_space_group_symop_operation_xyz
x,y,z
-x,y,1/2-z
-x,-y,-z
x,-y,1/2+z
1/2+x,1/2+y,z
1/2-x,1/2+y,1/2-z
1/2-x,1/2-y,-z
1/2+x,1/2-y,1/2+z
loop_
_atom_site_type_symbol
_atom_site_label
_atom_site_fract_x
_atom_site_fract_y
_atom_site_fract_z
Si Si1 0.279445 0.778227 0.896909
Si Si2 0.988277 0.787940 0.337551
Si Si3 0.012498 0.368924 0.518859
Si Si4 0.324670 0.419177 0.546036
Si Si5 0.790195 0.845597 0.971845
Si Si6 0.667850 0.279997 0.666947
Si Si7 0.466194 0.513347 0.383892
O O1 0.387845 0.830730 0.959274
O O2 0.206709 0.866862 0.890755
O O3 0.235570 0.739512 0.783605
O O4 0.291128 0.671747 0.960010
O O5 0.971949 0.678398 0.379948
O O6 0.092171 0.833082 0.441556
O O7 0.000000 0.771356 0.250000
O O8 0.924883 0.897751 0.318885
O O9 0.916116 0.306489 0.418044
O O10 0.000000 0.500000 0.500000
O O11 0.267104 0.533069 0.488650
O O12 0.440857 0.443224 0.607534
O O13 0.750000 0.750000 0.000000
O O14 0.766179 0.818441 0.864578
O O15 0.613089 0.389704 0.662164
O O16 0.500000 0.500000 0.500000
#
# Coordination Sequence:
#
# PCOD9291944 Si02
#       7
#     8   8   8   8   8   8   8
#     4  11  25  42  67  96 132 180 225 267 337 415
#     4  10  23  40  67  97 121 172 217 279 343 388
#     4  11  25  48  64  95 144 175 219 279 342 407
#     4  10  22  43  63  94 133 171 219 284 331 396
#     4  10  23  41  63  94 132 163 218 284 331 393
#     4  11  24  42  71  96 125 184 224 275 339 399
#     4  11  18  43  68  91 132 163 222 293 335 385
#
# _framework density 20.566763999999999
#
# number of rings (size 3 to 8) (size 9 to 14) (size 15 to 20)
#    0.000    1.429    5.714    0.000   10.000    1.143 
#    0.000    0.000    0.000    0.000    0.000    0.000 
#    0.000    0.000    0.000    0.000    0.000    0.000 
#
# Total GULP energy -156251.613117 kJ/mol
# GULP energy per Si atom -5580.414754 kJ/mol
# Density = 2.051995 g / cm^3
# Si number density = 20.566764 Si / 1000 Ang^3
#
#
#
# Elastic Constant Matrix: (Units=GPa)
#
#
# Indices 1 2 3 4 5 6 
#
# 1 60.2497 49.6646 15.8354 0.0000 -21.5209 0.0000
# 2 49.6646 175.7138 44.5436 0.0000 -28.5056 0.0000
# 3 15.8354 44.5436 107.4600 0.0000 -28.7567 0.0000
# 4 0.0000 0.0000 0.0000 14.1996 0.0000 -8.5510
# 5 -21.5209 -28.5056 -28.7567 0.0000 32.5502 0.0000
# 6 0.0000 0.0000 0.0000 -8.5510 0.0000 25.4914
#
#
#
# Elastic Compliance Matrix: (Units=1/GPa)
#
#
# Indices 1 2 3 4 5 6 
#
# 1 0.025588 -0.005526 0.002295 0.000000 0.014106 0.000000
# 2 -0.005526 0.008034 -0.002110 0.000000 0.001519 0.000000
# 3 0.002295 -0.002110 0.012774 0.000000 0.010955 0.000000
# 4 0.000000 0.000000 0.000000 0.088252 0.000000 0.029604
# 5 0.014106 0.001519 0.010955 0.000000 0.051056 0.000000
# 6 0.000000 0.000000 0.000000 0.029604 0.000000 0.049159
#
#
# Mechanical properties :
#
#
# Convention : Reuss Voigt Hill
#
# Bulk Modulus (GPa) = 27.99998 62.61230 45.30614
# Shear Modulus (GPa) = 19.42135 30.00689 24.71412
#
# Velocity S-wave (km/s) = 3.07629 3.82383 3.47025
# Velocity P-wave (km/s) = 5.12463 7.07143 6.17523
#
# Compressibility (1/GPa) = 0.03571431
#
# Stress axis : x y z
#
# Youngs Moduli (GPa) = 39.08102 124.47088 78.28656
#
# Poissons Ratio (x) = 0.68778 -0.17963
# Poissons Ratio (y) = 0.21595 0.16515
# Poissons Ratio (z) = -0.08967 0.26258
#
# Static dielectric constant tensor:
#      x y z
#    x 1.681130 0.000000 -0.028190 
#    y 0.000000 1.515000 0.000000 
#    z -0.028190 0.000000 1.750210 
# 
# From -- ./inp_files/161395.got.cif
#   From: 2010.05.17/outbox.cif.g08.bks.cpg/sg15_81_cif.got.tgz:161395.got - 2010.06.03 18:47:42.
