data_PCOD9291658
_publ_section_title
;
Structure prediction by ZEFSAII (Michael W. Deem and Ramdas Pophale) SiO2 
 PCOD9291658
Probable space group: C 2/C
;
_chemical_formula_sum "Si O2"
_cell_formula_units_Z 48
_cell_length_a 18.449566
_cell_length_b 7.535107
_cell_length_c 22.261822
_cell_angle_alpha 90.000000
_cell_angle_beta 128.372505
_cell_angle_gamma 90.000000
_cell_volume 2426.317364
_symmetry_space_group_name_H-M "C 2/C"
_symmetry_group_IT_number 15
_symmetry_cell_setting 'monoclinic'
loop_
_space_group_symop_operation_xyz
x,y,z
-x,y,1/2-z
-x,-y,-z
x,-y,1/2+z
1/2+x,1/2+y,z
1/2-x,1/2+y,1/2-z
1/2-x,1/2-y,-z
1/2+x,1/2-y,1/2+z
loop_
_atom_site_type_symbol
_atom_site_label
_atom_site_fract_x
_atom_site_fract_y
_atom_site_fract_z
Si Si1 0.371484 0.989885 0.331536
Si Si2 0.713560 0.369730 0.662500
Si Si3 0.436812 0.319019 0.430743
Si Si4 0.927633 0.933345 0.556438
Si Si5 0.231590 0.408546 0.943000
Si Si6 0.539461 0.872665 0.337921
O O1 0.336912 0.804384 0.339685
O O2 0.460810 0.965082 0.336617
O O3 0.291751 0.074181 0.249509
O O4 0.397794 0.128086 0.396257
O O5 0.642027 0.532880 0.620559
O O6 0.756126 0.337359 0.618622
O O7 0.460248 0.328470 0.513244
O O8 0.520593 0.379349 0.429935
O O9 0.950757 0.823568 0.627673
O O10 0.818006 0.959532 0.497510
O O11 0.135059 0.516806 0.894672
O O12 0.250000 0.250000 0.000000
O O13 0.500000 0.864090 0.250000
#
# Coordination Sequence:
#
# PCOD9291658 Si02
#       6
#     8   8   8   8   8   8
#     4  12  23  42  71 100 135 181 225 288 346 400
#     4  11  23  42  68 100 136 175 226 283 334 407
#     4  10  22  42  69  99 131 168 233 283 327 404
#     4  10  23  45  66  98 135 174 228 285 338 413
#     4  11  25  46  65  99 139 181 228 282 343 420
#     4  12  25  44  68 101 141 181 226 285 353 416
#
# _framework density 19.783066999999999
#
# number of rings (size 3 to 8) (size 9 to 14) (size 15 to 20)
#    0.000    1.000    5.000    1.500    2.333    0.667 
#    6.000    0.000    0.000    0.000    0.000    0.000 
#    0.000    0.000    0.000    0.000    0.000    0.000 
#
# Total GULP energy -134056.244513 kJ/mol
# GULP energy per Si atom -5585.676855 kJ/mol
# Density = 1.973804 g / cm^3
# Si number density = 19.783067 Si / 1000 Ang^3
#
#
#
# Elastic Constant Matrix: (Units=GPa)
#
#
# Indices 1 2 3 4 5 6 
#
# 1 115.2976 45.4224 25.4850 0.0000 16.2970 0.0000
# 2 45.4224 80.7180 28.7431 0.0000 1.9996 0.0000
# 3 25.4850 28.7431 65.3387 0.0000 9.2856 0.0000
# 4 0.0000 0.0000 0.0000 39.6328 0.0000 6.5038
# 5 16.2970 1.9996 9.2856 0.0000 37.5873 0.0000
# 6 0.0000 0.0000 0.0000 6.5038 0.0000 21.0393
#
#
#
# Elastic Compliance Matrix: (Units=1/GPa)
#
#
# Indices 1 2 3 4 5 6 
#
# 1 0.012054 -0.006198 -0.001326 0.000000 -0.004569 0.000000
# 2 -0.006198 0.017903 -0.005912 0.000000 0.003195 0.000000
# 3 -0.001326 -0.005912 0.018962 0.000000 -0.003795 0.000000
# 4 0.000000 0.000000 0.000000 0.026580 0.000000 -0.008217
# 5 -0.004569 0.003195 -0.003795 0.000000 0.029353 0.000000
# 6 0.000000 0.000000 0.000000 -0.008217 0.000000 0.050070
#
#
# Mechanical properties :
#
#
# Convention : Reuss Voigt Hill
#
# Bulk Modulus (GPa) = 45.35743 51.18390 48.27067
# Shear Modulus (GPa) = 26.43512 30.43210 28.43361
#
# Velocity S-wave (km/s) = 3.65944 3.92636 3.79525
# Velocity P-wave (km/s) = 6.39003 6.81790 6.60743
#
# Compressibility (1/GPa) = 0.02204710
#
# Stress axis : x y z
#
# Youngs Moduli (GPa) = 82.96208 55.85782 52.73660
#
# Poissons Ratio (x) = 0.34619 0.06991
# Poissons Ratio (y) = 0.51417 0.31179
# Poissons Ratio (z) = 0.10999 0.33024
#
# Static dielectric constant tensor:
#      x y z
#    x 1.701670 0.000000 0.015270 
#    y 0.000000 1.707430 0.000000 
#    z 0.015270 0.000000 1.705780 
# 
# From -- ./inp_files/279028.got.cif
#   From: 2010.05.17/outbox.cif.g08.bks.cpg/sg15_140_cif.got.tgz:279028.got - 2010.06.03 18:47:42.
