data_PCOD9291103
_publ_section_title
;
Structure prediction by ZEFSAII (Michael W. Deem and Ramdas Pophale) SiO2 
 PCOD9291103
Probable space group: C 2/C
;
_chemical_formula_sum "Si O2"
_cell_formula_units_Z 60
_cell_length_a 10.340947
_cell_length_b 11.627060
_cell_length_c 23.930675
_cell_angle_alpha 90.000000
_cell_angle_beta 114.612022
_cell_angle_gamma 90.000000
_cell_volume 2615.893854
_symmetry_space_group_name_H-M "C 2/C"
_symmetry_group_IT_number 15
_symmetry_cell_setting 'monoclinic'
loop_
_space_group_symop_operation_xyz
x,y,z
-x,y,1/2-z
-x,-y,-z
x,-y,1/2+z
1/2+x,1/2+y,z
1/2-x,1/2+y,1/2-z
1/2-x,1/2-y,-z
1/2+x,1/2-y,1/2+z
loop_
_atom_site_type_symbol
_atom_site_label
_atom_site_fract_x
_atom_site_fract_y
_atom_site_fract_z
Si Si1 0.000000 0.206986 0.250000
Si Si2 0.190143 0.975837 0.557061
Si Si3 0.568470 0.200628 0.393080
Si Si4 0.446917 0.898482 0.331349
Si Si5 0.864639 0.827165 0.200886
Si Si6 0.315427 0.125772 0.282424
Si Si7 0.461404 0.691390 0.976808
Si Si8 0.601893 0.076275 0.978704
O O1 0.993794 0.294371 0.195556
O O2 0.147813 0.136609 0.266733
O O3 0.318505 0.897599 0.602763
O O4 0.055715 0.891232 0.532823
O O5 0.142055 0.099488 0.572734
O O6 0.248797 0.012425 0.506008
O O7 0.597016 0.300281 0.355089
O O8 0.406162 0.162509 0.353424
O O9 0.573349 0.247196 0.455963
O O10 0.290072 0.876812 0.326921
O O11 0.538497 0.913925 0.404269
O O12 0.399272 0.007467 0.284453
O O13 0.848258 0.715526 0.238618
O O14 0.000000 0.893542 0.250000
O O15 0.386026 0.796526 0.994023
O O16 0.500000 0.000000 0.000000
#
# Coordination Sequence:
#
# PCOD9291103 Si02
#       8
#     4   8   8   8   8   8   8   8
#     4  10  26  44  64  96 128 164 220 270 324 392
#     4  11  24  42  65  95 130 177 215 271 318 387
#     4  11  21  42  67  91 130 171 215 266 326 390
#     4  11  23  42  68  93 129 174 210 270 332 377
#     4   9  22  40  63  95 124 165 219 270 325 395
#     4  10  22  42  64  93 126 164 215 268 328 386
#     4  11  25  43  65  96 136 170 222 264 324 390
#     4  12  24  43  68  98 133 177 216 268 330 391
#
# _framework density 22.936710999999999
#
# number of rings (size 3 to 8) (size 9 to 14) (size 15 to 20)
#    0.000    1.333    2.667    1.600    7.467    0.000 
#    7.200    0.000    0.000    0.000    0.000    0.000 
#    0.000    0.000    0.000    0.000    0.000    0.000 
#
# Total GULP energy -167102.531961 kJ/mol
# GULP energy per Si atom -5570.084399 kJ/mol
# Density = 2.288451 g / cm^3
# Si number density = 22.936711 Si / 1000 Ang^3
#
#
#
# Elastic Constant Matrix: (Units=GPa)
#
#
# Indices 1 2 3 4 5 6 
#
# 1 117.3880 12.7048 14.2250 0.0000 11.4867 0.0000
# 2 12.7048 76.3299 5.4539 0.0000 5.5547 0.0000
# 3 14.2250 5.4539 46.1871 0.0000 4.6892 0.0000
# 4 0.0000 0.0000 0.0000 6.6290 0.0000 13.0249
# 5 11.4867 5.5547 4.6892 0.0000 29.6822 0.0000
# 6 0.0000 0.0000 0.0000 13.0249 0.0000 26.3452
#
#
#
# Elastic Compliance Matrix: (Units=1/GPa)
#
#
# Indices 1 2 3 4 5 6 
#
# 1 0.009225 -0.001147 -0.002404 0.000000 -0.002976 0.000000
# 2 -0.001147 0.013506 -0.001047 0.000000 -0.001918 0.000000
# 3 -0.002404 -0.001047 0.022766 0.000000 -0.002470 0.000000
# 4 0.000000 0.000000 0.000000 5.275633 0.000000 -2.608237
# 5 -0.002976 -0.001918 -0.002470 0.000000 0.035591 0.000000
# 6 0.000000 0.000000 0.000000 -2.608237 0.000000 1.327453
#
#
# Mechanical properties :
#
#
# Convention : Reuss Voigt Hill
#
# Bulk Modulus (GPa) = 27.54662 33.85249 30.69956
# Shear Modulus (GPa) = 0.74566 26.36602 13.55584
#
# Velocity S-wave (km/s) = 0.57079 3.39412 2.43371
# Velocity P-wave (km/s) = 3.53133 5.49101 4.61636
#
# Compressibility (1/GPa) = 0.03630210
#
# Stress axis : x y z
#
# Youngs Moduli (GPa) = 108.39654 74.03911 43.92549
#
# Poissons Ratio (x) = 0.08494 0.10558
# Poissons Ratio (y) = 0.12436 0.04598
# Poissons Ratio (z) = 0.26056 0.07750
#
# Static dielectric constant tensor:
#      x y z
#    x 1.945980 0.000000 0.096170 
#    y 0.000000 1.997010 0.000000 
#    z 0.096170 0.000000 1.882950 
# 
# From -- ./inp_files/292281.got.cif
#   From: 2010.05.17/outbox.cif.g08.bks.cpg/sg15_147_cif.got.tgz:292281.got - 2010.06.03 18:47:42.
