data_PCOD9291665
_publ_section_title
;
Structure prediction by ZEFSAII (Michael W. Deem and Ramdas Pophale) SiO2 
 PCOD9291665
Probable space group: C 2/C
;
_chemical_formula_sum "Si O2"
_cell_formula_units_Z 60
_cell_length_a 20.596178
_cell_length_b 10.289947
_cell_length_c 16.928698
_cell_angle_alpha 90.000000
_cell_angle_beta 43.932597
_cell_angle_gamma 90.000000
_cell_volume 2489.229409
_symmetry_space_group_name_H-M "C 2/C"
_symmetry_group_IT_number 15
_symmetry_cell_setting 'monoclinic'
loop_
_space_group_symop_operation_xyz
x,y,z
-x,y,1/2-z
-x,-y,-z
x,-y,1/2+z
1/2+x,1/2+y,z
1/2-x,1/2+y,1/2-z
1/2-x,1/2-y,-z
1/2+x,1/2-y,1/2+z
loop_
_atom_site_type_symbol
_atom_site_label
_atom_site_fract_x
_atom_site_fract_y
_atom_site_fract_z
Si Si1 0.206097 0.788059 0.160907
Si Si2 0.790592 0.214870 0.298516
Si Si3 0.646627 0.990835 0.737181
Si Si4 0.646878 0.308335 0.594071
Si Si5 0.500000 0.901874 0.250000
Si Si6 0.609198 0.736438 0.443146
Si Si7 0.402499 0.799511 0.596788
Si Si8 0.595308 0.415727 0.116320
O O1 0.207594 0.629310 0.150174
O O2 0.309863 0.834143 0.094505
O O3 0.137756 0.796841 0.297735
O O4 0.167250 0.849897 0.115430
O O5 0.808020 0.369470 0.291402
O O6 0.851959 0.151602 0.313646
O O7 0.830970 0.168040 0.179112
O O8 0.678595 0.200502 0.397644
O O9 0.559621 0.010625 0.755655
O O10 0.606914 0.939396 0.854099
O O11 0.750000 0.250000 0.500000
O O12 0.571860 0.196771 0.645693
O O13 0.627356 0.439347 0.565947
O O14 0.511314 0.774688 0.488064
O O15 0.582389 0.661607 0.546484
O O16 0.500000 0.422386 0.250000
#
# Coordination Sequence:
#
# PCOD9291665 Si02
#       8
#     8   8   8   8   4   8   8   8
#     4   9  22  41  65 107 135 180 233 287 356 420
#     4  10  24  45  65 100 142 178 239 284 354 427
#     4   9  21  41  69  93 145 174 230 290 342 422
#     4  11  27  46  71 100 140 194 233 292 360 421
#     4  10  22  42  70 100 136 180 242 290 344 424
#     4  11  23  42  71 103 136 183 233 296 362 411
#     4   9  21  40  65 101 136 180 230 280 360 417
#     4  12  23  45  71 106 146 180 248 299 352 429
#
# _framework density 24.103845
#
# number of rings (size 3 to 8) (size 9 to 14) (size 15 to 20)
#    0.800    1.067    2.000    0.400    6.533    5.867 
#    0.000    1.333    0.000    0.000    0.000    0.000 
#    0.000    0.000    0.000    0.000    0.000    0.000 
#
# Total GULP energy -167473.759249 kJ/mol
# GULP energy per Si atom -5582.458642 kJ/mol
# Density = 2.404898 g / cm^3
# Si number density = 24.103845 Si / 1000 Ang^3
#
#
#
# Elastic Constant Matrix: (Units=GPa)
#
#
# Indices 1 2 3 4 5 6 
#
# 1 119.3601 12.2927 11.8665 0.0000 -29.4633 0.0000
# 2 12.2927 45.8823 2.1483 0.0001 -11.1026 -0.0001
# 3 11.8665 2.1483 110.0170 0.0000 -24.7035 0.0000
# 4 0.0000 0.0001 0.0000 16.3683 0.0000 0.3699
# 5 -29.4633 -11.1026 -24.7035 0.0000 52.7003 0.0000
# 6 0.0000 -0.0001 0.0000 0.3699 0.0000 18.3154
#
#
#
# Elastic Compliance Matrix: (Units=1/GPa)
#
#
# Indices 1 2 3 4 5 6 
#
# 1 0.009803 -0.001359 0.000151 0.000000 0.005265 0.000000
# 2 -0.001359 0.023204 0.000694 0.000000 0.004454 0.000000
# 3 0.000151 0.000694 0.010183 0.000000 0.005004 0.000000
# 4 0.000000 0.000000 0.000000 0.061122 0.000000 -0.001234
# 5 0.005265 0.004454 0.005004 0.000000 0.025203 0.000000
# 6 0.000000 0.000000 0.000000 -0.001234 0.000000 0.054624
#
#
# Mechanical properties :
#
#
# Convention : Reuss Voigt Hill
#
# Bulk Modulus (GPa) = 23.71835 36.43046 30.07441
# Shear Modulus (GPa) = 25.09778 34.07361 29.58570
#
# Velocity S-wave (km/s) = 3.23032 3.76389 3.50727
# Velocity P-wave (km/s) = 4.87593 5.83403 5.37637
#
# Compressibility (1/GPa) = 0.04216145
#
# Stress axis : x y z
#
# Youngs Moduli (GPa) = 102.01408 43.09543 98.20002
#
# Poissons Ratio (x) = 0.05858 -0.01487
# Poissons Ratio (y) = 0.13867 -0.06811
# Poissons Ratio (z) = -0.01545 -0.02989
#
# Static dielectric constant tensor:
#      x y z
#    x 1.943010 0.000000 0.066030 
#    y 0.000000 1.901630 0.000000 
#    z 0.066030 0.000000 2.031820 
# 
# From -- ./inp_files/215205.got.cif
#   From: 2010.05.17/outbox.cif.g08.bks.cpg/sg15_108_cif.got.tgz:215205.got - 2010.06.03 18:47:42.
