data_PCOD9291065
_publ_section_title
;
Structure prediction by ZEFSAII (Michael W. Deem and Ramdas Pophale) SiO2 
 PCOD9291065
Probable space group: C 2/C
;
_chemical_formula_sum "Si O2"
_cell_formula_units_Z 52
_cell_length_a 15.810845
_cell_length_b 28.193915
_cell_length_c 5.296825
_cell_angle_alpha 90.000000
_cell_angle_beta 62.874083
_cell_angle_gamma 90.000000
_cell_volume 2101.451375
_symmetry_space_group_name_H-M "C 2/C"
_symmetry_group_IT_number 15
_symmetry_cell_setting 'monoclinic'
loop_
_space_group_symop_operation_xyz
x,y,z
-x,y,1/2-z
-x,-y,-z
x,-y,1/2+z
1/2+x,1/2+y,z
1/2-x,1/2+y,1/2-z
1/2-x,1/2-y,-z
1/2+x,1/2-y,1/2+z
loop_
_atom_site_type_symbol
_atom_site_label
_atom_site_fract_x
_atom_site_fract_y
_atom_site_fract_z
Si Si1 0.635059 0.480309 0.951444
Si Si2 0.110753 0.825515 0.676437
Si Si3 0.392894 0.780393 0.276508
Si Si4 0.169145 0.877811 0.100348
Si Si5 0.500000 0.172101 0.250000
Si Si6 0.634837 0.874512 0.923469
Si Si7 0.359517 0.020970 0.030770
O O1 0.596962 0.515692 0.218830
O O2 0.626555 0.429320 0.095383
O O3 0.747304 0.488781 0.737105
O O4 0.147499 0.771246 0.616951
O O5 0.154782 0.859078 0.401440
O O6 0.000000 0.824464 0.750000
O O7 0.125590 0.844200 0.940558
O O8 0.500000 0.779092 0.250000
O O9 0.341875 0.826782 0.454230
O O10 0.415156 0.793578 0.955960
O O11 0.281170 0.881151 0.892154
O O12 0.462555 0.138215 0.083076
O O13 0.630302 0.924557 0.068505
O O14 0.399270 0.011731 0.255424
#
# Coordination Sequence:
#
# PCOD9291065 Si02
#       7
#     8   8   8   8   4   8   8
#     4   9  17  34  59  87 123 162 200 242 308 376
#     4  11  25  43  65  91 129 166 205 258 324 376
#     4   9  22  40  63  86 123 177 207 247 317 383
#     4  11  24  39  67 100 124 160 213 267 302 364
#     4  10  22  42  64  84 128 176 206 252 314 374
#     4  10  23  39  64  93 127 163 217 257 308 370
#     4   9  19  34  57  87 121 162 204 255 305 358
#
# _framework density 24.744802
#
# number of rings (size 3 to 8) (size 9 to 14) (size 15 to 20)
#    0.000    2.154    0.000    1.385   10.769    3.692 
#    0.000    0.769    0.000    9.231    0.000    0.000 
#    0.000    0.000    0.000    0.000    0.000    0.000 
#
# Total GULP energy -145283.127718 kJ/mol
# GULP energy per Si atom -5587.812605 kJ/mol
# Density = 2.468848 g / cm^3
# Si number density = 24.744802 Si / 1000 Ang^3
#
#
#
# Elastic Constant Matrix: (Units=GPa)
#
#
# Indices 1 2 3 4 5 6 
#
# 1 69.5458 -7.2386 6.5374 0.0000 9.7056 0.0000
# 2 -7.2386 110.2135 42.3918 0.0000 4.4935 0.0000
# 3 6.5374 42.3918 90.6910 0.0000 13.8851 0.0000
# 4 0.0000 0.0000 0.0000 -8.2847 0.0000 48.9949
# 5 9.7056 4.4935 13.8851 0.0000 33.3363 0.0000
# 6 0.0000 0.0000 0.0000 48.9949 0.0000 -27.1233
#
#
#
# Elastic Compliance Matrix: (Units=1/GPa)
#
#
# Indices 1 2 3 4 5 6 
#
# 1 0.015245 0.001644 -0.001233 0.000000 -0.004147 0.000000
# 2 0.001644 0.011255 -0.005420 0.000000 0.000261 0.000000
# 3 -0.001233 -0.005420 0.014400 0.000000 -0.004908 0.000000
# 4 0.000000 0.000000 0.000000 0.012466 0.000000 0.022518
# 5 -0.004147 0.000261 -0.004908 0.000000 0.033214 0.000000
# 6 0.000000 0.000000 0.000000 0.022518 0.000000 0.003808
#
#
# Mechanical properties :
#
#
# Convention : Reuss Voigt Hill
#
# Bulk Modulus (GPa) = 32.37891 39.31461 35.84676
# Shear Modulus (GPa) = 45.16796 14.83631 30.00213
#
# Velocity S-wave (km/s) = 4.27705 2.45127 3.48582
# Velocity P-wave (km/s) = 6.12408 4.89226 5.54250
#
# Compressibility (1/GPa) = 0.03088430
#
# Stress axis : x y z
#
# Youngs Moduli (GPa) = 65.59642 88.84779 69.44395
#
# Poissons Ratio (x) = -0.14610 0.08560
# Poissons Ratio (y) = -0.10787 0.37636
# Poissons Ratio (z) = 0.08086 0.48152
#
# Static dielectric constant tensor:
#      x y z
#    x 2.043550 0.000000 0.001540 
#    y 0.000000 1.951260 0.000000 
#    z 0.001540 0.000000 2.003850 
# 
# From -- ./inp_files/11459.got.cif
#   From: 2010.05.17/outbox.cif.g08.bks.cpg/sg15_6_cif.got.tgz:11459.got - 2010.06.03 18:47:42.
