data_PCOD9291297
_publ_section_title
;
Structure prediction by ZEFSAII (Michael W. Deem and Ramdas Pophale) SiO2 
 PCOD9291297
Probable space group: C 2/C
;
_chemical_formula_sum "Si O2"
_cell_formula_units_Z 40
_cell_length_a 13.335777
_cell_length_b 25.567124
_cell_length_c 5.582226
_cell_angle_alpha 90.000000
_cell_angle_beta 81.799451
_cell_angle_gamma 90.000000
_cell_volume 1883.840104
_symmetry_space_group_name_H-M "C 2/C"
_symmetry_group_IT_number 15
_symmetry_cell_setting 'monoclinic'
loop_
_space_group_symop_operation_xyz
x,y,z
-x,y,1/2-z
-x,-y,-z
x,-y,1/2+z
1/2+x,1/2+y,z
1/2-x,1/2+y,1/2-z
1/2-x,1/2-y,-z
1/2+x,1/2-y,1/2+z
loop_
_atom_site_type_symbol
_atom_site_label
_atom_site_fract_x
_atom_site_fract_y
_atom_site_fract_z
Si Si1 0.000000 0.826218 0.750000
Si Si2 0.278307 0.031097 0.884705
Si Si3 0.950209 0.928602 0.015106
Si Si4 0.500000 0.183278 0.250000
Si Si5 0.887071 0.359495 0.398001
Si Si6 0.652559 0.241127 0.864700
O O1 0.966163 0.866090 0.971747
O O2 0.899133 0.792031 0.734356
O O3 0.337943 0.085707 0.858696
O O4 0.298837 0.999682 0.629004
O O5 0.162070 0.049305 0.936270
O O6 0.000000 0.948571 0.750000
O O7 0.000000 0.941245 0.250000
O O8 0.588945 0.148434 0.331183
O O9 0.442834 0.220624 0.450385
O O10 0.829756 0.307477 0.323744
O O11 0.000000 0.359676 0.250000
O O12 0.750000 0.250000 0.000000
#
# Coordination Sequence:
#
# PCOD9291297 Si02
#       6
#     4   8   8   4   8   8
#     4  10  24  42  64 113 141 190 228 282 360 438
#     4  12  29  47  75 105 137 188 247 297 365 414
#     4  10  25  44  73 102 148 179 235 290 353 433
#     4  10  22  42  66  93 145 176 236 284 350 428
#     4  10  25  46  67 101 140 183 239 301 346 429
#     4  11  24  40  71 103 144 188 232 285 363 424
#
# _framework density 21.233222999999999
#
# number of rings (size 3 to 8) (size 9 to 14) (size 15 to 20)
#    0.600    0.800    3.000    1.200   12.600    4.000 
#    0.000    0.000    0.000    0.000    0.000    0.000 
#    0.000    0.000    0.000    0.000    0.000    0.000 
#
# Total GULP energy -111495.029646 kJ/mol
# GULP energy per Si atom -5574.751482 kJ/mol
# Density = 2.118490 g / cm^3
# Si number density = 21.233223 Si / 1000 Ang^3
#
#
#
# Elastic Constant Matrix: (Units=GPa)
#
#
# Indices 1 2 3 4 5 6 
#
# 1 83.7335 62.4724 29.2608 0.0000 35.9559 0.0000
# 2 62.4724 181.5862 56.1831 0.0000 37.5842 0.0000
# 3 29.2608 56.1831 106.2817 0.0000 32.8763 0.0000
# 4 0.0000 0.0000 0.0000 242.5164 0.0000 -67.2112
# 5 35.9559 37.5842 32.8763 0.0000 34.2672 0.0000
# 6 0.0000 0.0000 0.0000 -67.2112 0.0000 62.9285
#
#
#
# Elastic Compliance Matrix: (Units=1/GPa)
#
#
# Indices 1 2 3 4 5 6 
#
# 1 0.024266 -0.004396 0.002883 0.000000 -0.023407 0.000000
# 2 -0.004396 0.008207 -0.002518 0.000000 -0.001973 0.000000
# 3 0.002883 -0.002518 0.014260 0.000000 -0.013945 0.000000
# 4 0.000000 0.000000 0.000000 0.005857 0.000000 0.006256
# 5 -0.023407 -0.001973 -0.013945 0.000000 0.069286 0.000000
# 6 0.000000 0.000000 0.000000 0.006256 0.000000 0.022573
#
#
# Mechanical properties :
#
#
# Convention : Reuss Voigt Hill
#
# Bulk Modulus (GPa) = 25.85850 74.15935 50.00892
# Shear Modulus (GPa) = 30.23007 82.85476 56.54242
#
# Velocity S-wave (km/s) = 3.77731 6.25348 5.16595
# Velocity P-wave (km/s) = 5.58828 9.33505 7.69325
#
# Compressibility (1/GPa) = 0.03867201
#
# Stress axis : x y z
#
# Youngs Moduli (GPa) = 41.21046 121.85113 70.12794
#
# Poissons Ratio (x) = 0.53564 -0.20221
# Poissons Ratio (y) = 0.18115 0.17656
# Poissons Ratio (z) = -0.11883 0.30678
#
# Static dielectric constant tensor:
#      x y z
#    x 1.738580 0.000000 0.077530 
#    y 0.000000 1.815230 0.000000 
#    z 0.077530 0.000000 1.925190 
# 
# From -- ./inp_files/5520.got.cif
#   From: 2010.05.17/outbox.cif.g08.bks.cpg/sg15_3_cif.got.tgz:5520.got - 2010.06.03 18:47:42.
