data_PCOD9291957
_publ_section_title
;
Structure prediction by ZEFSAII (Michael W. Deem and Ramdas Pophale) SiO2 
 PCOD9291957
Probable space group: C 2/C
;
_chemical_formula_sum "Si O2"
_cell_formula_units_Z 32
_cell_length_a 13.976728
_cell_length_b 5.406666
_cell_length_c 26.600762
_cell_angle_alpha 90.000000
_cell_angle_beta 39.226281
_cell_angle_gamma 90.000000
_cell_volume 1271.190046
_symmetry_space_group_name_H-M "C 2/C"
_symmetry_group_IT_number 15
_symmetry_cell_setting 'monoclinic'
loop_
_space_group_symop_operation_xyz
x,y,z
-x,y,1/2-z
-x,-y,-z
x,-y,1/2+z
1/2+x,1/2+y,z
1/2-x,1/2+y,1/2-z
1/2-x,1/2-y,-z
1/2+x,1/2-y,1/2+z
loop_
_atom_site_type_symbol
_atom_site_label
_atom_site_fract_x
_atom_site_fract_y
_atom_site_fract_z
Si Si1 0.977510 0.150547 0.700531
Si Si2 0.752795 0.464546 0.918954
Si Si3 0.556365 0.146741 0.819175
Si Si4 0.521312 0.795046 0.446737
O O1 0.140490 0.229734 0.608891
O O2 0.884626 0.404474 0.732116
O O3 0.000000 0.107835 0.750000
O O4 0.891400 0.922813 0.711562
O O5 0.887482 0.662876 0.861718
O O6 0.662202 0.368450 0.907737
O O7 0.620011 0.606245 0.002204
O O8 0.544375 0.088821 0.882950
O O9 0.500000 0.000000 0.500000
#
# Coordination Sequence:
#
# PCOD9291957 Si02
#       4
#     8   8   8   8
#     4  10  22  43  64  86 120 166 213 253 307 368
#     4   9  23  36  65  89 127 159 206 256 311 374
#     4  10  23  39  65  89 122 166 203 257 316 365
#     4  11  22  38  61  96 131 156 206 259 323 375
#
# _framework density 25.173262000000001
#
# number of rings (size 3 to 8) (size 9 to 14) (size 15 to 20)
#    1.500    0.500    0.000    3.000    7.000    2.000 
#    0.000    2.500    0.000    0.000    0.000    0.000 
#    0.000    0.000    0.000    0.000    0.000    0.000 
#
# Total GULP energy -89085.447138 kJ/mol
# GULP energy per Si atom -5567.840446 kJ/mol
# Density = 2.511597 g / cm^3
# Si number density = 25.173262 Si / 1000 Ang^3
#
#
#
# Elastic Constant Matrix: (Units=GPa)
#
#
# Indices 1 2 3 4 5 6 
#
# 1 112.2725 0.7581 23.6135 0.0559 -17.1744 -0.0839
# 2 0.7581 99.2905 23.5167 0.1410 19.9204 -0.3977
# 3 23.6135 23.5167 89.4433 0.0438 24.9237 -0.1087
# 4 0.0559 0.1410 0.0438 6.6670 0.0339 60.2209
# 5 -17.1744 19.9204 24.9237 0.0339 43.0841 -0.0433
# 6 -0.0839 -0.3977 -0.1087 60.2209 -0.0433 -49.2722
#
#
#
# Elastic Compliance Matrix: (Units=1/GPa)
#
#
# Indices 1 2 3 4 5 6 
#
# 1 0.011074 -0.000419 -0.004885 0.000001 0.007434 -0.000010
# 2 -0.000419 0.011358 -0.001628 0.000046 -0.004477 -0.000028
# 3 -0.004885 -0.001628 0.015774 0.000005 -0.010319 0.000002
# 4 0.000001 0.000046 0.000005 0.012458 -0.000018 0.015226
# 5 0.007434 -0.004477 -0.010319 -0.000018 0.034214 -0.000006
# 6 -0.000010 -0.000028 0.000002 0.015226 -0.000006 -0.001686
#
#
# Mechanical properties :
#
#
# Convention : Reuss Voigt Hill
#
# Bulk Modulus (GPa) = 41.08240 44.08698 42.58469
# Shear Modulus (GPa) = 47.54151 16.97029 32.25590
#
# Velocity S-wave (km/s) = 4.35048 2.59924 3.58349
# Velocity P-wave (km/s) = 6.44910 5.15359 5.83740
#
# Compressibility (1/GPa) = 0.02434133
#
# Stress axis : x y z
#
# Youngs Moduli (GPa) = 90.29836 88.04119 63.39706
#
# Poissons Ratio (x) = 0.03690 0.30970
# Poissons Ratio (y) = 0.03784 0.10323
# Poissons Ratio (z) = 0.44112 0.14336
#
# Static dielectric constant tensor:
#      x y z
#    x 1.970490 -0.000040 -0.093910 
#    y -0.000040 2.113070 0.000040 
#    z -0.093910 0.000040 1.936880 
# 
# From -- ./inp_files/223989.got.cif
#   From: 2010.05.17/outbox.cif.g08.bks.cpg/sg15_112_cif.got.tgz:223989.got - 2010.06.03 18:47:42.
