data_PCOD9292279
_publ_section_title
;
Structure prediction by ZEFSAII (Michael W. Deem and Ramdas Pophale) SiO2 
 PCOD9292279
Probable space group: C 2/C
;
_chemical_formula_sum "Si O2"
_cell_formula_units_Z 28
_cell_length_a 13.222924
_cell_length_b 9.143701
_cell_length_c 14.786031
_cell_angle_alpha 90.000000
_cell_angle_beta 37.244739
_cell_angle_gamma 90.000000
_cell_volume 1081.969563
_symmetry_space_group_name_H-M "C 2/C"
_symmetry_group_IT_number 15
_symmetry_cell_setting 'monoclinic'
loop_
_space_group_symop_operation_xyz
x,y,z
-x,y,1/2-z
-x,-y,-z
x,-y,1/2+z
1/2+x,1/2+y,z
1/2-x,1/2+y,1/2-z
1/2-x,1/2-y,-z
1/2+x,1/2-y,1/2+z
loop_
_atom_site_type_symbol
_atom_site_label
_atom_site_fract_x
_atom_site_fract_y
_atom_site_fract_z
Si Si1 0.702320 0.907812 0.945339
Si Si2 0.180206 0.668502 0.259847
Si Si3 0.849732 0.374830 0.267017
Si Si4 0.500000 0.637866 0.750000
O O1 0.640935 0.905745 0.884291
O O2 0.791421 0.748363 0.878501
O O3 0.839377 0.031216 0.868615
O O4 0.542008 0.920014 0.122869
O O5 0.246877 0.528901 0.156482
O O6 0.311749 0.788854 0.199651
O O7 0.037005 0.755616 0.308665
#
# Coordination Sequence:
#
# PCOD9292279 Si02
#       4
#     8   8   8   4
#     4  10  23  45  67 101 134 179 213 292 312 412
#     4  10  22  43  69 101 132 182 214 285 320 408
#     4  10  22  44  69  92 147 166 224 275 343 367
#     4  12  24  42  72 100 134 176 230 260 350 382
#
# _framework density 25.878733
#
# number of rings (size 3 to 8) (size 9 to 14) (size 15 to 20)
#    1.714    0.000    2.857    0.857    0.000    4.571 
#    0.000    0.000    0.000    0.000    0.000    0.000 
#    0.000    0.000    0.000    0.000    0.000    0.000 
#
# Total GULP energy -78090.217780 kJ/mol
# GULP energy per Si atom -5577.872699 kJ/mol
# Density = 2.581983 g / cm^3
# Si number density = 25.878733 Si / 1000 Ang^3
#
#
#
# Elastic Constant Matrix: (Units=GPa)
#
#
# Indices 1 2 3 4 5 6 
#
# 1 180.5176 66.7792 48.4917 0.0000 -17.2760 0.0000
# 2 66.7792 246.0046 57.3729 0.0000 -16.8648 0.0000
# 3 48.4917 57.3729 115.0636 0.0000 -3.1741 0.0000
# 4 0.0000 0.0000 0.0000 21.7019 0.0000 -22.8516
# 5 -17.2760 -16.8648 -3.1741 0.0000 35.1313 0.0000
# 6 0.0000 0.0000 0.0000 -22.8516 0.0000 63.6764
#
#
#
# Elastic Compliance Matrix: (Units=1/GPa)
#
#
# Indices 1 2 3 4 5 6 
#
# 1 0.006812 -0.001152 -0.002225 0.000000 0.002596 0.000000
# 2 -0.001152 0.004940 -0.001933 0.000000 0.001630 0.000000
# 3 -0.002225 -0.001933 0.010563 0.000000 -0.001067 0.000000
# 4 0.000000 0.000000 0.000000 0.074068 0.000000 0.026581
# 5 0.002596 0.001630 -0.001067 0.000000 0.030427 0.000000
# 6 0.000000 0.000000 0.000000 0.026581 0.000000 0.025244
#
#
# Mechanical properties :
#
#
# Convention : Reuss Voigt Hill
#
# Bulk Modulus (GPa) = 85.50296 98.54147 92.02222
# Shear Modulus (GPa) = 30.01710 48.69804 39.35757
#
# Velocity S-wave (km/s) = 3.40945 4.34265 3.90403
# Velocity P-wave (km/s) = 6.97214 7.95649 7.48052
#
# Compressibility (1/GPa) = 0.01169550
#
# Stress axis : x y z
#
# Youngs Moduli (GPa) = 146.80173 202.41740 94.67372
#
# Poissons Ratio (x) = 0.23326 0.21061
# Poissons Ratio (y) = 0.16917 0.18298
# Poissons Ratio (z) = 0.32657 0.39121
#
# Static dielectric constant tensor:
#      x y z
#    x 2.272700 0.000000 -0.008900 
#    y 0.000000 2.092070 0.000000 
#    z -0.008900 0.000000 1.934870 
# 
# From -- ./inp_files/121001.got.cif
#   From: 2010.05.17/outbox.cif.g08.bks.cpg/sg15_61_cif.got.tgz:121001.got - 2010.06.03 18:47:42.
