data_PCOD9292137
_publ_section_title
;
Structure prediction by ZEFSAII (Michael W. Deem and Ramdas Pophale) SiO2 
 PCOD9292137
Probable space group: C 2/C
;
_chemical_formula_sum "Si O2"
_cell_formula_units_Z 40
_cell_length_a 30.217956
_cell_length_b 5.105304
_cell_length_c 9.545591
_cell_angle_alpha 90.000000
_cell_angle_beta 71.792359
_cell_angle_gamma 90.000000
_cell_volume 1398.882690
_symmetry_space_group_name_H-M "C 2/C"
_symmetry_group_IT_number 15
_symmetry_cell_setting 'monoclinic'
loop_
_space_group_symop_operation_xyz
x,y,z
-x,y,1/2-z
-x,-y,-z
x,-y,1/2+z
1/2+x,1/2+y,z
1/2-x,1/2+y,1/2-z
1/2-x,1/2-y,-z
1/2+x,1/2-y,1/2+z
loop_
_atom_site_type_symbol
_atom_site_label
_atom_site_fract_x
_atom_site_fract_y
_atom_site_fract_z
Si Si1 0.904191 0.478648 0.122967
Si Si2 0.886761 0.979380 0.335414
Si Si3 0.193373 0.498257 0.861242
Si Si4 0.970486 0.168892 0.420001
Si Si5 0.288851 0.502087 0.351960
O O1 0.861359 0.489091 0.054383
O O2 0.896532 0.717052 0.239516
O O3 0.951581 0.557468 0.999866
O O4 0.899294 0.219451 0.219106
O O5 0.923093 0.013042 0.424553
O O6 0.831093 0.997983 0.421373
O O7 0.000000 0.206766 0.250000
O O8 0.233540 0.502024 0.940230
O O9 0.202952 0.743840 0.751261
O O10 0.201775 0.242923 0.758725
O O11 0.000000 0.000000 0.500000
#
# Coordination Sequence:
#
# PCOD9292137 Si02
#       5
#     8   8   8   8   8
#     4  10  22  43  67 100 138 182 228 286 348 415
#     4  10  22  43  68  99 140 180 230 284 349 415
#     4   8  14  28  56  91 132 171 218 268 334 409
#     4  12  26  50  73 104 139 184 242 295 355 412
#     4   8  14  28  56  92 130 174 215 270 333 409
#
# _framework density 28.594249000000001
#
# number of rings (size 3 to 8) (size 9 to 14) (size 15 to 20)
#    0.000    2.400    2.000    0.000    0.000    2.400 
#    3.600    1.000    0.000    0.000    0.000   28.000 
#    0.000    0.000    0.000    0.000    0.000    0.000 
#
# Total GULP energy -112358.790771 kJ/mol
# GULP energy per Si atom -5617.939539 kJ/mol
# Density = 2.852917 g / cm^3
# Si number density = 28.594249 Si / 1000 Ang^3
#
#
#
# Elastic Constant Matrix: (Units=GPa)
#
#
# Indices 1 2 3 4 5 6 
#
# 1 308.1186 25.9014 71.4900 0.0000 22.7286 0.0000
# 2 25.9014 199.6016 61.7487 0.0000 6.6838 0.0000
# 3 71.4900 61.7487 151.8056 0.0000 -4.8682 0.0000
# 4 0.0000 0.0000 0.0000 33.4546 0.0000 4.9153
# 5 22.7286 6.6838 -4.8682 0.0000 49.4509 0.0000
# 6 0.0000 0.0000 0.0000 4.9153 0.0000 53.0493
#
#
#
# Elastic Compliance Matrix: (Units=1/GPa)
#
#
# Indices 1 2 3 4 5 6 
#
# 1 0.003825 0.000168 -0.001933 0.000000 -0.001971 0.000000
# 2 0.000168 0.005789 -0.002469 0.000000 -0.001103 0.000000
# 3 -0.001933 -0.002469 0.008568 0.000000 0.002066 0.000000
# 4 0.000000 0.000000 0.000000 0.030304 0.000000 -0.002808
# 5 -0.001971 -0.001103 0.002066 0.000000 0.021480 0.000000
# 6 0.000000 0.000000 0.000000 -0.002808 0.000000 0.019111
#
#
# Mechanical properties :
#
#
# Convention : Reuss Voigt Hill
#
# Bulk Modulus (GPa) = 102.94563 108.64512 105.79538
# Shear Modulus (GPa) = 49.61128 60.54999 55.08064
#
# Velocity S-wave (km/s) = 4.16986 4.60669 4.39371
# Velocity P-wave (km/s) = 7.69831 8.14698 7.92582
#
# Compressibility (1/GPa) = 0.00971387
#
# Stress axis : x y z
#
# Youngs Moduli (GPa) = 261.41957 172.74257 116.71175
#
# Poissons Ratio (x) = -0.02894 0.22558
# Poissons Ratio (y) = -0.04380 0.28816
# Poissons Ratio (z) = 0.50527 0.42650
#
# Static dielectric constant tensor:
#      x y z
#    x 2.311280 0.000000 0.022610 
#    y 0.000000 2.244380 0.000000 
#    z 0.022610 0.000000 2.121390 
# 
# From -- ./inp_files/220553.got.cif
#   From: 2010.05.17/outbox.cif.g08.bks.cpg/sg15_111_cif.got.tgz:220553.got - 2010.06.03 18:47:42.
