data_PCOD9292035
_publ_section_title
;
Structure prediction by ZEFSAII (Michael W. Deem and Ramdas Pophale) SiO2 
 PCOD9292035
Probable space group: C 2/C
;
_chemical_formula_sum "Si O2"
_cell_formula_units_Z 56
_cell_length_a 26.734416
_cell_length_b 6.448528
_cell_length_c 16.906075
_cell_angle_alpha 90.000000
_cell_angle_beta 68.645015
_cell_angle_gamma 90.000000
_cell_volume 2714.459481
_symmetry_space_group_name_H-M "C 2/C"
_symmetry_group_IT_number 15
_symmetry_cell_setting 'monoclinic'
loop_
_space_group_symop_operation_xyz
x,y,z
-x,y,1/2-z
-x,-y,-z
x,-y,1/2+z
1/2+x,1/2+y,z
1/2-x,1/2+y,1/2-z
1/2-x,1/2-y,-z
1/2+x,1/2-y,1/2+z
loop_
_atom_site_type_symbol
_atom_site_label
_atom_site_fract_x
_atom_site_fract_y
_atom_site_fract_z
Si Si1 0.674485 0.696198 0.586370
Si Si2 0.364104 0.774932 0.594613
Si Si3 0.005328 0.691309 0.338388
Si Si4 0.780750 0.558484 0.018349
Si Si5 0.887762 0.035727 0.725296
Si Si6 0.913943 0.923636 0.482268
Si Si7 0.071252 0.649524 0.872091
O O1 0.733533 0.602194 0.566850
O O2 0.639470 0.615105 0.679350
O O3 0.644549 0.624363 0.522508
O O4 0.681829 0.941098 0.567284
O O5 0.315508 0.856615 0.570370
O O6 0.352372 0.603436 0.669146
O O7 0.408052 0.662689 0.512130
O O8 0.387409 0.973399 0.625361
O O9 0.955866 0.832274 0.395256
O O10 0.000000 0.634841 0.250000
O O11 0.057041 0.838229 0.316908
O O12 0.018251 0.479394 0.378537
O O13 0.750000 0.750000 0.000000
O O14 0.904086 0.794719 0.710793
O O15 0.931975 0.800939 0.550759
#
# Coordination Sequence:
#
# PCOD9292035 Si02
#       7
#     8   8   8   8   8   8   8
#     4  11  23  42  66  96 133 175 223 283 334 398
#     4  10  22  43  65  94 132 173 222 277 333 405
#     4  11  23  40  64 100 135 173 223 272 339 408
#     4  11  23  42  69  98 127 175 233 273 340 403
#     4  10  24  44  62  96 135 173 221 280 336 396
#     4  11  21  41  68  93 134 175 219 275 335 406
#     4  10  23  42  66  92 132 175 223 270 333 407
#
# _framework density 20.630257
#
# number of rings (size 3 to 8) (size 9 to 14) (size 15 to 20)
#    0.000    1.429    4.286    0.429    0.000    9.143 
#    7.714    0.000    0.000    0.000    0.000    0.000 
#    0.000    0.000    0.000    0.000    0.000    0.000 
#
# Total GULP energy -156114.317752 kJ/mol
# GULP energy per Si atom -5575.511348 kJ/mol
# Density = 2.058330 g / cm^3
# Si number density = 20.630257 Si / 1000 Ang^3
#
#
#
# Elastic Constant Matrix: (Units=GPa)
#
#
# Indices 1 2 3 4 5 6 
#
# 1 100.1840 42.7284 27.2528 0.0000 20.2097 0.0000
# 2 42.7284 108.9336 21.7089 0.0000 6.0299 0.0000
# 3 27.2528 21.7089 69.8666 0.0000 6.7680 0.0000
# 4 0.0000 0.0000 0.0000 22.0211 0.0000 -7.2733
# 5 20.2097 6.0299 6.7680 0.0000 31.1708 0.0000
# 6 0.0000 0.0000 0.0000 -7.2733 0.0000 28.2510
#
#
#
# Elastic Compliance Matrix: (Units=1/GPa)
#
#
# Indices 1 2 3 4 5 6 
#
# 1 0.014416 -0.004537 -0.003466 0.000000 -0.007717 0.000000
# 2 -0.004537 0.011262 -0.001842 0.000000 0.001163 0.000000
# 3 -0.003466 -0.001842 0.016329 0.000000 -0.000942 0.000000
# 4 0.000000 0.000000 0.000000 0.049631 0.000000 0.012778
# 5 -0.007717 0.001163 -0.000942 0.000000 0.037064 0.000000
# 6 0.000000 0.000000 0.000000 0.012778 0.000000 0.038687
#
#
# Mechanical properties :
#
#
# Convention : Reuss Voigt Hill
#
# Bulk Modulus (GPa) = 44.80984 51.37382 48.09183
# Shear Modulus (GPa) = 25.70455 28.77484 27.23969
#
# Velocity S-wave (km/s) = 3.53365 3.73874 3.63764
# Velocity P-wave (km/s) = 6.19811 6.60256 6.40353
#
# Compressibility (1/GPa) = 0.02231653
#
# Stress axis : x y z
#
# Youngs Moduli (GPa) = 69.36717 88.79269 61.24181
#
# Poissons Ratio (x) = 0.40283 0.21227
# Poissons Ratio (y) = 0.31470 0.11283
# Poissons Ratio (z) = 0.24044 0.16359
#
# Static dielectric constant tensor:
#      x y z
#    x 1.786630 0.000000 0.012120 
#    y 0.000000 1.823800 0.000000 
#    z 0.012120 0.000000 1.779080 
# 
# From -- ./inp_files/221224.got.cif
#   From: 2010.05.17/outbox.cif.g08.bks.cpg/sg15_111_cif.got.tgz:221224.got - 2010.06.03 18:47:42.
