data_PCOD9292428
_publ_section_title
;
Structure prediction by ZEFSAII (Michael W. Deem and Ramdas Pophale) SiO2 
 PCOD9292428
Probable space group: C 2/C
;
_chemical_formula_sum "Si O2"
_cell_formula_units_Z 48
_cell_length_a 12.997090
_cell_length_b 12.159992
_cell_length_c 19.053938
_cell_angle_alpha 90.000000
_cell_angle_beta 136.438433
_cell_angle_gamma 90.000000
_cell_volume 2075.236539
_symmetry_space_group_name_H-M "C 2/C"
_symmetry_group_IT_number 15
_symmetry_cell_setting 'monoclinic'
loop_
_space_group_symop_operation_xyz
x,y,z
-x,y,1/2-z
-x,-y,-z
x,-y,1/2+z
1/2+x,1/2+y,z
1/2-x,1/2+y,1/2-z
1/2-x,1/2-y,-z
1/2+x,1/2-y,1/2+z
loop_
_atom_site_type_symbol
_atom_site_label
_atom_site_fract_x
_atom_site_fract_y
_atom_site_fract_z
Si Si1 0.181519 0.532990 0.507069
Si Si2 0.655421 0.663718 0.795486
Si Si3 0.298805 0.890256 0.226792
Si Si4 0.416748 0.204800 0.564075
Si Si5 0.932017 0.600688 0.282837
Si Si6 0.104319 0.072617 0.502384
O O1 0.225797 0.602095 0.597271
O O2 0.110736 0.412208 0.488604
O O3 0.319846 0.497464 0.523536
O O4 0.064995 0.607068 0.404601
O O5 0.500000 0.620988 0.750000
O O6 0.681110 0.650938 0.725768
O O7 0.641763 0.795565 0.791260
O O8 0.455924 0.829582 0.317378
O O9 0.236850 0.884624 0.118515
O O10 0.313546 0.018175 0.255524
O O11 0.250000 0.250000 0.500000
O O12 0.480452 0.315546 0.560716
O O13 0.000000 0.535312 0.250000
O O14 0.000000 0.000000 0.500000
#
# Coordination Sequence:
#
# PCOD9292428 Si02
#       6
#     8   8   8   8   8   8
#     4  10  22  46  66  95 143 180 235 288 355 427
#     4  11  26  42  65 106 140 183 231 295 358 421
#     4  11  24  43  72 100 141 187 242 287 362 431
#     4   9  23  43  70 104 137 186 234 301 363 421
#     4  10  22  43  71  93 134 190 230 283 362 424
#     4  11  23  42  73 105 140 185 240 292 353 432
#
# _framework density 23.129894
#
# number of rings (size 3 to 8) (size 9 to 14) (size 15 to 20)
#    0.000    1.667    1.667    1.000    2.333    8.000 
#    6.000    0.000    0.000    0.000    0.000    0.000 
#    0.000    0.000    0.000    0.000    0.000    0.000 
#
# Total GULP energy -133723.092672 kJ/mol
# GULP energy per Si atom -5571.795528 kJ/mol
# Density = 2.307725 g / cm^3
# Si number density = 23.129894 Si / 1000 Ang^3
#
#
#
# Elastic Constant Matrix: (Units=GPa)
#
#
# Indices 1 2 3 4 5 6 
#
# 1 66.2831 16.7714 -9.0345 0.0000 4.5560 0.0000
# 2 16.7714 138.9342 54.3899 0.0000 -6.5236 0.0000
# 3 -9.0345 54.3899 100.8712 0.0000 -0.2313 0.0000
# 4 0.0000 0.0000 0.0000 37.2760 0.0000 -10.2737
# 5 4.5560 -6.5236 -0.2313 0.0000 25.5276 0.0000
# 6 0.0000 0.0000 0.0000 -10.2737 0.0000 32.6699
#
#
#
# Elastic Compliance Matrix: (Units=1/GPa)
#
#
# Indices 1 2 3 4 5 6 
#
# 1 0.016705 -0.003523 0.003387 0.000000 -0.003851 0.000000
# 2 -0.003523 0.010002 -0.005702 0.000000 0.003133 0.000000
# 3 0.003387 -0.005702 0.013287 0.000000 -0.001941 0.000000
# 4 0.000000 0.000000 0.000000 0.029373 0.000000 0.009237
# 5 -0.003851 0.003133 -0.001941 0.000000 0.040644 0.000000
# 6 0.000000 0.000000 0.000000 0.009237 0.000000 0.033514
#
#
# Mechanical properties :
#
#
# Convention : Reuss Voigt Hill
#
# Bulk Modulus (GPa) = 35.31314 47.81579 41.56446
# Shear Modulus (GPa) = 30.36956 35.35884 32.86420
#
# Velocity S-wave (km/s) = 3.62747 3.91411 3.77351
# Velocity P-wave (km/s) = 5.73107 6.41441 6.08234
#
# Compressibility (1/GPa) = 0.02831807
#
# Stress axis : x y z
#
# Youngs Moduli (GPa) = 59.86362 99.97897 75.26267
#
# Poissons Ratio (x) = 0.35225 -0.25492
# Poissons Ratio (y) = 0.21092 0.42911
# Poissons Ratio (z) = -0.20276 0.57003
#
# Static dielectric constant tensor:
#      x y z
#    x 2.037310 0.000000 0.085330 
#    y 0.000000 1.898660 0.000000 
#    z 0.085330 0.000000 1.894910 
# 
# From -- ./inp_files/243967.got.cif
#   From: 2010.05.17/outbox.cif.g08.bks.cpg/sg15_122_cif.got.tgz:243967.got - 2010.06.03 18:47:42.
