data_PCOD9292087
_publ_section_title
;
Structure prediction by ZEFSAII (Michael W. Deem and Ramdas Pophale) SiO2 
 PCOD9292087
Probable space group: C 2/C
;
_chemical_formula_sum "Si O2"
_cell_formula_units_Z 56
_cell_length_a 12.077518
_cell_length_b 8.184589
_cell_length_c 29.533228
_cell_angle_alpha 90.000000
_cell_angle_beta 64.838840
_cell_angle_gamma 90.000000
_cell_volume 2642.344733
_symmetry_space_group_name_H-M "C 2/C"
_symmetry_group_IT_number 15
_symmetry_cell_setting 'monoclinic'
loop_
_space_group_symop_operation_xyz
x,y,z
-x,y,1/2-z
-x,-y,-z
x,-y,1/2+z
1/2+x,1/2+y,z
1/2-x,1/2+y,1/2-z
1/2-x,1/2-y,-z
1/2+x,1/2-y,1/2+z
loop_
_atom_site_type_symbol
_atom_site_label
_atom_site_fract_x
_atom_site_fract_y
_atom_site_fract_z
Si Si1 0.178600 0.224633 0.815148
Si Si2 0.002081 0.286409 0.091027
Si Si3 0.449477 0.817389 0.517279
Si Si4 0.953949 0.672645 0.409438
Si Si5 0.777867 0.249081 0.869826
Si Si6 0.137883 0.432431 0.731618
Si Si7 0.704316 0.632766 0.116731
O O1 0.155558 0.334446 0.775084
O O2 0.264660 0.302184 0.838901
O O3 0.046794 0.220267 0.862917
O O4 0.251523 0.061816 0.789570
O O5 0.998899 0.484480 0.097072
O O6 0.084364 0.210000 0.115704
O O7 0.863890 0.225510 0.115596
O O8 0.052744 0.242337 0.032152
O O9 0.540385 0.754608 0.540989
O O10 0.317439 0.821996 0.563850
O O11 0.500000 0.000000 0.500000
O O12 0.825478 0.661420 0.406500
O O13 0.848745 0.312419 0.813673
O O14 0.800070 0.060778 0.877388
O O15 0.000000 0.504139 0.750000
#
# Coordination Sequence:
#
# PCOD9292087 Si02
#       7
#     8   8   8   8   8   8   8
#     4  11  24  46  68  95 128 174 214 274 337 394
#     4  11  23  43  68  96 136 180 218 267 335 392
#     4   9  18  42  66  94 136 181 215 271 326 389
#     4  10  22  43  66  92 138 166 217 276 325 387
#     4  12  24  42  67  99 131 172 220 278 325 394
#     4  12  27  45  69  95 135 169 222 278 340 399
#     4  11  23  41  71  96 136 178 221 267 335 397
#
# _framework density 21.193297999999999
#
# number of rings (size 3 to 8) (size 9 to 14) (size 15 to 20)
#    0.000    1.143    5.714    2.143    2.000    0.571 
#    0.000    0.714    0.000    0.000    0.000    0.000 
#    0.000    0.000    0.000    0.000    0.000    0.000 
#
# Total GULP energy -156350.851789 kJ/mol
# GULP energy per Si atom -5583.958992 kJ/mol
# Density = 2.114506 g / cm^3
# Si number density = 21.193298 Si / 1000 Ang^3
#
#
#
# Elastic Constant Matrix: (Units=GPa)
#
#
# Indices 1 2 3 4 5 6 
#
# 1 156.9696 28.2238 4.9602 0.0000 15.4629 0.0000
# 2 28.2238 14.9411 41.5077 0.0000 0.3737 0.0000
# 3 4.9602 41.5077 20.2660 0.0000 16.2422 0.0000
# 4 0.0000 0.0000 0.0000 13.9362 0.0000 -5.3109
# 5 15.4629 0.3737 16.2422 0.0000 34.8123 0.0000
# 6 0.0000 0.0000 0.0000 -5.3109 0.0000 34.0479
#
#
#
# Elastic Compliance Matrix: (Units=1/GPa)
#
#
# Indices 1 2 3 4 5 6 
#
# 1 0.006243 0.001846 -0.004905 0.000000 -0.000504 0.000000
# 2 0.001846 -0.007807 0.025762 0.000000 -0.012756 0.000000
# 3 -0.004905 0.025762 -0.005980 0.000000 0.004692 0.000000
# 4 0.000000 0.000000 0.000000 0.076291 0.000000 0.011900
# 5 -0.000504 -0.012756 0.004692 0.000000 0.026897 0.000000
# 6 0.000000 0.000000 0.000000 0.011900 0.000000 0.031227
#
#
# Mechanical properties :
#
#
# Convention : Reuss Voigt Hill
#
# Bulk Modulus (GPa) = 26.41215 37.95111 32.18163
# Shear Modulus (GPa) = 53.14276 24.39159 38.76718
#
# Velocity S-wave (km/s) = 5.01295 3.39619 4.28158
# Velocity P-wave (km/s) = 6.78202 5.77276 6.29764
#
# Compressibility (1/GPa) = 0.03786136
#
# Stress axis : x y z
#
# Youngs Moduli (GPa) = 160.16952 -128.08614 -167.22628
#
# Poissons Ratio (x) = 0.23648 -0.82030
# Poissons Ratio (y) = -0.29572 4.30802
# Poissons Ratio (z) = 0.78568 3.29971
#
# Static dielectric constant tensor:
#      x y z
#    x 1.791980 0.000000 0.003180 
#    y 0.000000 1.819440 0.000000 
#    z 0.003180 0.000000 1.776180 
# 
# From -- ./inp_files/310201.got.cif
#   From: 2010.05.17/outbox.cif.g08.bks.cpg/sg15_156_cif.got.tgz:310201.got - 2010.06.03 18:47:42.
