data_PCOD9292432
_publ_section_title
;
Structure prediction by ZEFSAII (Michael W. Deem and Ramdas Pophale) SiO2 
 PCOD9292432
Probable space group: C 2/C
;
_chemical_formula_sum "Si O2"
_cell_formula_units_Z 36
_cell_length_a 8.836648
_cell_length_b 11.843143
_cell_length_c 23.520703
_cell_angle_alpha 90.000000
_cell_angle_beta 142.774935
_cell_angle_gamma 90.000000
_cell_volume 1489.095400
_symmetry_space_group_name_H-M "C 2/C"
_symmetry_group_IT_number 15
_symmetry_cell_setting 'monoclinic'
loop_
_space_group_symop_operation_xyz
x,y,z
-x,y,1/2-z
-x,-y,-z
x,-y,1/2+z
1/2+x,1/2+y,z
1/2-x,1/2+y,1/2-z
1/2-x,1/2-y,-z
1/2+x,1/2-y,1/2+z
loop_
_atom_site_type_symbol
_atom_site_label
_atom_site_fract_x
_atom_site_fract_y
_atom_site_fract_z
Si Si1 0.500000 0.003973 0.750000
Si Si2 0.002607 0.910623 0.940299
Si Si3 0.054533 0.338995 0.485310
Si Si4 0.222330 0.466596 0.195612
Si Si5 0.835783 0.378036 0.533478
O O1 0.715234 0.930010 0.842707
O O2 0.345719 0.059844 0.757897
O O3 0.039938 0.795944 0.986862
O O4 0.131355 0.030968 0.993113
O O5 0.156758 0.875069 0.929537
O O6 0.936868 0.378123 0.390202
O O7 0.900597 0.399976 0.487458
O O8 0.500000 0.464328 0.250000
O O9 0.089270 0.588222 0.142677
O O10 0.750000 0.250000 0.500000
#
# Coordination Sequence:
#
# PCOD9292432 Si02
#       5
#     4   8   8   8   8
#     4  12  24  42  66 102 140 176 228 286 350 410
#     4  10  23  42  67 100 135 178 232 287 344 419
#     4  10  22  43  71  95 138 185 232 290 354 418
#     4  11  24  44  70 100 139 181 233 289 349 423
#     4  11  23  44  71 100 137 187 234 288 356 422
#
# _framework density 24.175751999999999
#
# number of rings (size 3 to 8) (size 9 to 14) (size 15 to 20)
#    0.000    1.333    0.000    6.667    1.556    9.778 
#    6.000    0.000    0.000    0.000    0.000    0.000 
#    0.000    0.000    0.000    0.000    0.000    0.000 
#
# Total GULP energy -100240.354962 kJ/mol
# GULP energy per Si atom -5568.908609 kJ/mol
# Density = 2.412073 g / cm^3
# Si number density = 24.175752 Si / 1000 Ang^3
#
#
#
# Elastic Constant Matrix: (Units=GPa)
#
#
# Indices 1 2 3 4 5 6 
#
# 1 215.9693 58.9231 46.1773 0.0000 9.4798 0.0000
# 2 58.9231 132.4916 16.2230 0.0000 19.7845 0.0000
# 3 46.1773 16.2230 84.6071 0.0000 36.3090 0.0000
# 4 0.0000 0.0000 0.0000 23.3697 0.0000 1.3003
# 5 9.4798 19.7845 36.3090 0.0000 56.7464 0.0000
# 6 0.0000 0.0000 0.0000 1.3003 0.0000 47.0693
#
#
#
# Elastic Compliance Matrix: (Units=1/GPa)
#
#
# Indices 1 2 3 4 5 6 
#
# 1 0.006041 -0.002568 -0.003799 0.000000 0.002317 0.000000
# 2 -0.002568 0.009067 0.001152 0.000000 -0.003469 0.000000
# 3 -0.003799 0.001152 0.018709 0.000000 -0.011738 0.000000
# 4 0.000000 0.000000 0.000000 0.042856 0.000000 -0.001184
# 5 0.002317 -0.003469 -0.011738 0.000000 0.025955 0.000000
# 6 0.000000 0.000000 0.000000 -0.001184 0.000000 0.021278
#
#
# Mechanical properties :
#
#
# Convention : Reuss Voigt Hill
#
# Bulk Modulus (GPa) = 42.75915 75.07942 58.91929
# Shear Modulus (GPa) = 35.17830 46.22007 40.69919
#
# Velocity S-wave (km/s) = 3.81872 4.37720 4.10746
# Velocity P-wave (km/s) = 6.09662 7.52792 6.84976
#
# Compressibility (1/GPa) = 0.02338681
#
# Stress axis : x y z
#
# Youngs Moduli (GPa) = 165.52316 110.29583 53.44885
#
# Poissons Ratio (x) = 0.28319 0.20307
# Poissons Ratio (y) = 0.42499 -0.06155
# Poissons Ratio (z) = 0.62887 -0.12701
#
# Static dielectric constant tensor:
#      x y z
#    x 2.158170 0.000000 0.002360 
#    y 0.000000 1.980820 0.000000 
#    z 0.002360 0.000000 1.924270 
# 
# From -- ./inp_files/287837.got.cif
#   From: 2010.05.17/outbox.cif.g08.bks.cpg/sg15_144_cif.got.tgz:287837.got - 2010.06.03 18:47:42.
