data_PCOD9292745
_publ_section_title
;
Structure prediction by ZEFSAII (Michael W. Deem and Ramdas Pophale) SiO2 
 PCOD9292745
Probable space group: C 2/C
;
_chemical_formula_sum "Si O2"
_cell_formula_units_Z 48
_cell_length_a 22.088080
_cell_length_b 15.323296
_cell_length_c 10.075300
_cell_angle_alpha 90.000000
_cell_angle_beta 38.097000
_cell_angle_gamma 90.000000
_cell_volume 2104.018512
_symmetry_space_group_name_H-M "C 2/C"
_symmetry_group_IT_number 15
_symmetry_cell_setting 'monoclinic'
loop_
_space_group_symop_operation_xyz
x,y,z
-x,y,1/2-z
-x,-y,-z
x,-y,1/2+z
1/2+x,1/2+y,z
1/2-x,1/2+y,1/2-z
1/2-x,1/2-y,-z
1/2+x,1/2-y,1/2+z
loop_
_atom_site_type_symbol
_atom_site_label
_atom_site_fract_x
_atom_site_fract_y
_atom_site_fract_z
Si Si1 0.913068 0.706462 0.493660
Si Si2 0.722151 0.699251 0.682984
Si Si3 0.216369 0.997782 0.798252
Si Si4 0.003813 0.767957 0.882882
Si Si5 0.434404 0.001701 0.480145
Si Si6 0.905963 0.953342 0.732304
O O1 0.804491 0.735684 0.641671
O O2 0.917162 0.602651 0.472326
O O3 0.939517 0.721964 0.598582
O O4 0.000000 0.744480 0.250000
O O5 0.750000 0.750000 0.500000
O O6 0.724025 0.594057 0.711974
O O7 0.608775 0.720073 0.888617
O O8 0.322655 0.966658 0.669638
O O9 0.170971 0.942075 0.755988
O O10 0.144711 0.002131 0.051154
O O11 0.000000 0.721643 0.750000
O O12 0.056412 0.861130 0.779630
O O13 0.500000 0.963809 0.250000
O O14 0.500000 0.000000 0.500000
O O15 0.000000 0.000000 0.500000
#
# Coordination Sequence:
#
# PCOD9292745 Si02
#       6
#     8   8   8   8   8   8
#     4  10  23  41  66  95 128 174 227 277 338 413
#     4  11  22  43  69  95 134 182 229 282 345 409
#     4  11  24  42  69 102 138 178 233 285 349 418
#     4  12  24  44  65  99 140 175 226 289 341 413
#     4  10  22  44  67  93 131 174 228 284 337 408
#     4  12  23  43  68 102 142 181 223 291 356 410
#
# _framework density 22.813489000000001
#
# number of rings (size 3 to 8) (size 9 to 14) (size 15 to 20)
#    0.000    1.000    5.000    1.500    0.000    4.000 
#    3.000    0.000    0.000    0.000    0.000    0.000 
#    0.000    0.000    0.000    0.000    0.000    0.000 
#
# Total GULP energy -133882.091783 kJ/mol
# GULP energy per Si atom -5578.420491 kJ/mol
# Density = 2.276156 g / cm^3
# Si number density = 22.813489 Si / 1000 Ang^3
#
#
#
# Elastic Constant Matrix: (Units=GPa)
#
#
# Indices 1 2 3 4 5 6 
#
# 1 222.8014 15.9077 75.6643 0.0000 -5.8727 0.0000
# 2 15.9077 42.8441 22.0818 0.0000 2.3727 0.0000
# 3 75.6643 22.0818 108.8236 0.0000 6.6231 0.0000
# 4 0.0000 0.0000 0.0000 7.4530 0.0000 -0.3616
# 5 -5.8727 2.3727 6.6231 0.0000 50.3403 0.0000
# 6 0.0000 0.0000 0.0000 -0.3616 0.0000 27.1659
#
#
#
# Elastic Compliance Matrix: (Units=1/GPa)
#
#
# Indices 1 2 3 4 5 6 
#
# 1 0.005953 -0.000120 -0.004191 0.000000 0.001252 0.000000
# 2 -0.000120 0.026083 -0.005175 0.000000 -0.000562 0.000000
# 3 -0.004191 -0.005175 0.013275 0.000000 -0.001992 0.000000
# 4 0.000000 0.000000 0.000000 0.134260 0.000000 0.001787
# 5 0.001252 -0.000562 -0.001992 0.000000 0.020299 0.000000
# 6 0.000000 0.000000 0.000000 0.001787 0.000000 0.036835
#
#
# Mechanical properties :
#
#
# Convention : Reuss Voigt Hill
#
# Bulk Modulus (GPa) = 37.96638 66.86408 52.41523
# Shear Modulus (GPa) = 18.90669 34.37956 26.64313
#
# Velocity S-wave (km/s) = 2.88193 3.88620 3.42111
# Velocity P-wave (km/s) = 5.26804 7.03629 6.21537
#
# Compressibility (1/GPa) = 0.02633909
#
# Stress axis : x y z
#
# Youngs Moduli (GPa) = 167.97877 38.33868 75.33212
#
# Poissons Ratio (x) = 0.00458 0.31572
# Poissons Ratio (y) = 0.02009 0.38987
# Poissons Ratio (z) = 0.70401 0.19841
#
# Static dielectric constant tensor:
#      x y z
#    x 1.919590 0.000000 0.164030 
#    y 0.000000 1.913020 0.000000 
#    z 0.164030 0.000000 2.206240 
# 
# From -- ./inp_files/57717.got.cif
#   From: 2010.05.17/outbox.cif.g08.bks.cpg/sg15_29_cif.got.tgz:57717.got - 2010.06.03 18:47:42.
