data_PCOD9292191
_publ_section_title
;
Structure prediction by ZEFSAII (Michael W. Deem and Ramdas Pophale) SiO2 
 PCOD9292191
Probable space group: C 2/C
;
_chemical_formula_sum "Si O2"
_cell_formula_units_Z 48
_cell_length_a 25.514363
_cell_length_b 16.959365
_cell_length_c 5.069115
_cell_angle_alpha 90.000000
_cell_angle_beta 108.938551
_cell_angle_gamma 90.000000
_cell_volume 2074.706304
_symmetry_space_group_name_H-M "C 2/C"
_symmetry_group_IT_number 15
_symmetry_cell_setting 'monoclinic'
loop_
_space_group_symop_operation_xyz
x,y,z
-x,y,1/2-z
-x,-y,-z
x,-y,1/2+z
1/2+x,1/2+y,z
1/2-x,1/2+y,1/2-z
1/2-x,1/2-y,-z
1/2+x,1/2-y,1/2+z
loop_
_atom_site_type_symbol
_atom_site_label
_atom_site_fract_x
_atom_site_fract_y
_atom_site_fract_z
Si Si1 0.783759 0.693452 0.754294
Si Si2 0.433462 0.048634 0.598822
Si Si3 0.000000 0.110154 0.750000
Si Si4 0.618601 0.454078 0.568367
Si Si5 0.110094 0.706853 0.889994
Si Si6 0.822610 0.171590 0.695460
Si Si7 0.500000 0.714375 0.250000
O O1 0.750000 0.750000 0.500000
O O2 0.840643 0.670748 0.706154
O O3 0.734612 0.637013 0.777731
O O4 0.804628 0.746943 0.026722
O O5 0.500000 0.056996 0.750000
O O6 0.407391 0.131551 0.463954
O O7 0.417121 0.983052 0.359458
O O8 0.053169 0.061593 0.932483
O O9 0.019089 0.161135 0.527842
O O10 0.631842 0.472925 0.892671
O O11 0.650682 0.382504 0.483961
O O12 0.049140 0.734277 0.698544
O O13 0.134379 0.790749 0.028786
#
# Coordination Sequence:
#
# PCOD9292191 Si02
#       7
#     8   8   4   8   8   8   4
#     4   9  21  40  71  90 125 160 221 275 331 373
#     4  10  23  41  60  91 134 172 204 253 329 394
#     4  12  24  43  60  95 138 178 226 266 326 389
#     4  12  26  42  65  94 139 180 218 271 330 391
#     4  11  22  40  67  99 126 172 218 274 322 391
#     4  10  22  43  67  96 125 174 226 275 323 387
#     4  12  24  37  70 103 132 166 228 284 306 393
#
# _framework density 23.135802999999999
#
# number of rings (size 3 to 8) (size 9 to 14) (size 15 to 20)
#    0.000    1.333    2.500    2.500    7.000    0.000 
#    0.000    1.667    0.000    0.000    0.000    0.000 
#    0.000    0.000    0.000    0.000    0.000    0.000 
#
# Total GULP energy -133745.861853 kJ/mol
# GULP energy per Si atom -5572.744244 kJ/mol
# Density = 2.308314 g / cm^3
# Si number density = 23.135803 Si / 1000 Ang^3
#
#
#
# Elastic Constant Matrix: (Units=GPa)
#
#
# Indices 1 2 3 4 5 6 
#
# 1 144.6365 22.3777 10.7549 0.0000 5.3057 0.0000
# 2 22.3777 65.3259 -8.6293 0.0000 1.6149 0.0000
# 3 10.7549 -8.6293 47.1114 0.0000 -12.9957 0.0000
# 4 0.0000 0.0000 0.0000 19.0784 0.0000 -1.2552
# 5 5.3057 1.6149 -12.9957 0.0000 23.8409 0.0000
# 6 0.0000 0.0000 0.0000 -1.2552 0.0000 20.0896
#
#
#
# Elastic Compliance Matrix: (Units=1/GPa)
#
#
# Indices 1 2 3 4 5 6 
#
# 1 0.007736 -0.002994 -0.003217 0.000000 -0.003273 0.000000
# 2 -0.002994 0.016853 0.004284 0.000000 0.001860 0.000000
# 3 -0.003217 0.004284 0.026909 0.000000 0.015094 0.000000
# 4 0.000000 0.000000 0.000000 0.052632 0.000000 0.003288
# 5 -0.003273 0.001860 0.015094 0.000000 0.050775 0.000000
# 6 0.000000 0.000000 0.000000 0.003288 0.000000 0.049982
#
#
# Mechanical properties :
#
#
# Convention : Reuss Voigt Hill
#
# Bulk Modulus (GPa) = 20.98948 34.00891 27.49920
# Shear Modulus (GPa) = 22.25933 28.10648 25.18290
#
# Velocity S-wave (km/s) = 3.10516 3.48925 3.30279
# Velocity P-wave (km/s) = 4.68487 5.56460 5.14358
#
# Compressibility (1/GPa) = 0.04764292
#
# Stress axis : x y z
#
# Youngs Moduli (GPa) = 129.25857 59.33514 37.16218
#
# Poissons Ratio (x) = 0.17766 0.11956
# Poissons Ratio (y) = 0.38703 -0.15919
# Poissons Ratio (z) = 0.41587 -0.25417
#
# Static dielectric constant tensor:
#      x y z
#    x 2.034790 0.000000 0.075090 
#    y 0.000000 1.915030 0.000000 
#    z 0.075090 0.000000 1.883690 
# 
# From -- ./inp_files/15456.got.cif
#   From: 2010.05.17/outbox.cif.g08.bks.cpg/sg15_8_cif.got.tgz:15456.got - 2010.06.03 18:47:42.
