data_PCOD9292699
_publ_section_title
;
Structure prediction by ZEFSAII (Michael W. Deem and Ramdas Pophale) SiO2 
 PCOD9292699
Probable space group: C 2/C
;
_chemical_formula_sum "Si O2"
_cell_formula_units_Z 48
_cell_length_a 13.217945
_cell_length_b 15.686619
_cell_length_c 15.559295
_cell_angle_alpha 90.000000
_cell_angle_beta 39.866990
_cell_angle_gamma 90.000000
_cell_volume 2067.980023
_symmetry_space_group_name_H-M "C 2/C"
_symmetry_group_IT_number 15
_symmetry_cell_setting 'monoclinic'
loop_
_space_group_symop_operation_xyz
x,y,z
-x,y,1/2-z
-x,-y,-z
x,-y,1/2+z
1/2+x,1/2+y,z
1/2-x,1/2+y,1/2-z
1/2-x,1/2-y,-z
1/2+x,1/2-y,1/2+z
loop_
_atom_site_type_symbol
_atom_site_label
_atom_site_fract_x
_atom_site_fract_y
_atom_site_fract_z
Si Si1 0.329085 0.320030 0.347756
Si Si2 0.374475 0.993986 0.716505
Si Si3 0.500000 0.408174 0.750000
Si Si4 0.315112 0.994275 0.053113
Si Si5 0.924199 0.233800 0.427392
Si Si6 0.500000 0.155381 0.250000
Si Si7 0.749430 0.671295 0.799608
O O1 0.500000 0.363519 0.250000
O O2 0.198790 0.392310 0.452589
O O3 0.365832 0.226554 0.363960
O O4 0.304548 0.309604 0.261812
O O5 0.346871 0.981063 0.632004
O O6 0.256280 0.070044 0.817835
O O7 0.553649 0.028790 0.596549
O O8 0.396819 0.908280 0.756617
O O9 0.347468 0.463424 0.860565
O O10 0.500045 0.348835 0.666383
O O11 0.750000 0.250000 0.500000
O O12 0.873601 0.218651 0.558329
O O13 0.067419 0.298812 0.317025
#
# Coordination Sequence:
#
# PCOD9292699 Si02
#       7
#     8   8   4   8   8   4   8
#     4   9  22  46  67 100 139 183 232 289 354 418
#     4  10  24  41  70  96 139 180 230 282 347 416
#     4  12  23  37  70  96 130 172 228 283 339 408
#     4  10  22  44  66  96 135 185 226 280 345 419
#     4  12  25  42  69 100 140 179 232 288 351 421
#     4  10  23  39  68 100 136 174 236 283 347 406
#     4  11  25  46  69 104 141 182 236 291 353 420
#
# _framework density 23.211055999999999
#
# number of rings (size 3 to 8) (size 9 to 14) (size 15 to 20)
#    0.500    1.000    2.500    1.000    7.000    3.333 
#    3.000    3.333    0.000    0.000    0.000    0.000 
#    0.000    0.000    0.000    0.000    0.000    0.000 
#
# Total GULP energy -133620.465486 kJ/mol
# GULP energy per Si atom -5567.519395 kJ/mol
# Density = 2.315823 g / cm^3
# Si number density = 23.211056 Si / 1000 Ang^3
#
#
#
# Elastic Constant Matrix: (Units=GPa)
#
#
# Indices 1 2 3 4 5 6 
#
# 1 53.2159 28.2749 -18.3539 -0.0003 -3.6545 0.0002
# 2 28.2749 136.5257 23.9269 -0.0002 8.5336 0.0002
# 3 -18.3539 23.9269 64.9741 -0.0006 -0.5907 0.0006
# 4 -0.0003 -0.0002 -0.0006 4.5919 0.0003 0.0811
# 5 -3.6545 8.5336 -0.5907 0.0003 19.9775 -0.0002
# 6 0.0002 0.0002 0.0006 0.0811 -0.0002 29.0009
#
#
#
# Elastic Compliance Matrix: (Units=1/GPa)
#
#
# Indices 1 2 3 4 5 6 
#
# 1 0.027455 -0.008136 0.010832 0.000002 0.008818 0.000000
# 2 -0.008136 0.010483 -0.006214 0.000000 -0.006150 0.000000
# 3 0.010832 -0.006214 0.020787 0.000003 0.005251 0.000000
# 4 0.000002 0.000000 0.000003 0.217783 -0.000003 -0.000609
# 5 0.008818 -0.006150 0.005251 -0.000003 0.054452 0.000000
# 6 0.000000 0.000000 0.000000 -0.000609 0.000000 0.034483
#
#
# Mechanical properties :
#
#
# Convention : Reuss Voigt Hill
#
# Bulk Modulus (GPa) = 19.34665 35.82350 27.58508
# Shear Modulus (GPa) = 12.83005 25.43858 19.13432
#
# Velocity S-wave (km/s) = 2.35363 3.31413 2.87429
# Velocity P-wave (km/s) = 3.96728 5.48744 4.78807
#
# Compressibility (1/GPa) = 0.05168853
#
# Stress axis : x y z
#
# Youngs Moduli (GPa) = 36.42272 95.39193 48.10759
#
# Poissons Ratio (x) = 0.77607 -0.52109
# Poissons Ratio (y) = 0.29632 0.29896
# Poissons Ratio (z) = -0.39452 0.59281
#
# Static dielectric constant tensor:
#      x y z
#    x 1.899860 0.000000 -0.009360 
#    y 0.000000 1.933350 0.000000 
#    z -0.009360 0.000000 1.856800 
# 
# From -- ./inp_files/205318.got.cif
#   From: 2010.05.17/outbox.cif.g08.bks.cpg/sg15_103_cif.got.tgz:205318.got - 2010.06.03 18:47:42.
