data_PCOD9292923
_publ_section_title
;
Structure prediction by ZEFSAII (Michael W. Deem and Ramdas Pophale) SiO2 
 PCOD9292923
Probable space group: C 2/C
;
_chemical_formula_sum "Si O2"
_cell_formula_units_Z 64
_cell_length_a 31.279675
_cell_length_b 5.992480
_cell_length_c 23.487741
_cell_angle_alpha 90.000000
_cell_angle_beta 140.773864
_cell_angle_gamma 90.000000
_cell_volume 2784.133648
_symmetry_space_group_name_H-M "C 2/C"
_symmetry_group_IT_number 15
_symmetry_cell_setting 'monoclinic'
loop_
_space_group_symop_operation_xyz
x,y,z
-x,y,1/2-z
-x,-y,-z
x,-y,1/2+z
1/2+x,1/2+y,z
1/2-x,1/2+y,1/2-z
1/2-x,1/2-y,-z
1/2+x,1/2-y,1/2+z
loop_
_atom_site_type_symbol
_atom_site_label
_atom_site_fract_x
_atom_site_fract_y
_atom_site_fract_z
Si Si1 0.489668 0.279538 0.561453
Si Si2 0.210667 0.054524 0.346420
Si Si3 0.597543 0.045632 0.114103
Si Si4 0.241624 0.558458 0.944418
Si Si5 0.980263 0.503382 0.166754
Si Si6 0.074687 0.830309 0.197192
Si Si7 0.734344 0.102041 0.714879
Si Si8 0.332591 0.820800 0.541159
O O1 0.424728 0.235743 0.454829
O O2 0.519757 0.521879 0.605617
O O3 0.543413 0.137345 0.579905
O O4 0.479825 0.168876 0.613713
O O5 0.218600 0.318438 0.364239
O O6 0.227634 0.983091 0.301290
O O7 0.134430 0.985762 0.283032
O O8 0.272060 0.937687 0.443559
O O9 0.609344 0.171097 0.186084
O O10 0.653998 0.907148 0.139216
O O11 0.313223 0.436544 0.013880
O O12 0.250000 0.750000 0.000000
O O13 0.185097 0.395917 0.912535
O O14 0.000000 0.414139 0.250000
O O15 0.034141 0.691243 0.202624
O O16 0.905621 0.607703 0.096564
O O17 0.748881 0.868297 0.765716
#
# Coordination Sequence:
#
# PCOD9292923 Si02
#       8
#     8   8   8   8   8   8   8   8
#     4  10  23  45  69  95 135 187 233 295 362 442
#     4  11  24  42  71 101 137 187 233 294 368 431
#     4  10  22  44  70 100 137 178 239 289 370 432
#     4   9  22  40  69  93 126 176 230 288 358 420
#     4  11  27  42  65 100 138 186 239 296 362 433
#     4  11  24  43  67 102 139 183 230 299 364 436
#     4  12  26  44  68 109 145 183 238 300 360 441
#     4  10  23  44  67  97 136 179 238 298 354 437
#
# _framework density 22.987401999999999
#
# number of rings (size 3 to 8) (size 9 to 14) (size 15 to 20)
#    0.000    1.500    1.250    1.875    8.750    4.500 
#    0.000    0.000    0.000    0.000    0.000    0.000 
#    0.000    0.000    0.000    0.000    0.000    0.000 
#
# Total GULP energy -178337.792962 kJ/mol
# GULP energy per Si atom -5573.056030 kJ/mol
# Density = 2.293508 g / cm^3
# Si number density = 22.987402 Si / 1000 Ang^3
#
#
#
# Elastic Constant Matrix: (Units=GPa)
#
#
# Indices 1 2 3 4 5 6 
#
# 1 97.5551 -2.1413 13.0794 -0.0010 13.2575 -0.0014
# 2 -2.1413 36.3222 -3.0016 -0.0021 -8.8044 -0.0026
# 3 13.0794 -3.0016 43.4723 0.0001 8.4756 0.0002
# 4 -0.0010 -0.0021 0.0001 10.3335 0.0000 -29.5308
# 5 13.2575 -8.8044 8.4756 0.0000 32.3775 0.0001
# 6 -0.0014 -0.0026 0.0002 -29.5308 0.0001 -1.2010
#
#
#
# Elastic Compliance Matrix: (Units=1/GPa)
#
#
# Indices 1 2 3 4 5 6 
#
# 1 0.011135 -0.000534 -0.002602 0.000000 -0.004023 -0.000001
# 2 -0.000534 0.029510 0.000623 -0.000002 0.008080 -0.000003
# 3 -0.002602 0.000623 0.024857 0.000000 -0.005272 0.000000
# 4 0.000000 -0.000002 0.000000 0.001358 0.000000 -0.033388
# 5 -0.004023 0.008080 -0.005272 0.000000 0.036110 -0.000001
# 6 -0.000001 -0.000003 0.000000 -0.033388 -0.000001 -0.011683
#
#
# Mechanical properties :
#
#
# Convention : Reuss Voigt Hill
#
# Bulk Modulus (GPa) = 16.53590 21.46917 19.00253
# Shear Modulus (GPa) = 42.92885 19.59622 31.26253
#
# Velocity S-wave (km/s) = 4.32614 2.92289 3.69180
# Velocity P-wave (km/s) = 5.67125 4.55531 5.14363
#
# Compressibility (1/GPa) = 0.06047448
#
# Stress axis : x y z
#
# Youngs Moduli (GPa) = 89.81046 33.88681 40.23012
#
# Poissons Ratio (x) = 0.01809 0.10470
# Poissons Ratio (y) = 0.04795 -0.02506
# Poissons Ratio (z) = 0.23373 -0.02110
#
# Static dielectric constant tensor:
#      x y z
#    x 3.732190 0.000070 -1.575030 
#    y 0.000070 1.975800 -0.000060 
#    z -1.575030 -0.000060 3.249350 
# 
# From -- ./inp_files/304104.got.cif
#   From: 2010.05.17/outbox.cif.g08.bks.cpg/sg15_153_cif.got.tgz:304104.got - 2010.06.03 18:47:42.
