data_PCOD9292679
_publ_section_title
;
Structure prediction by ZEFSAII (Michael W. Deem and Ramdas Pophale) SiO2 
 PCOD9292679
Probable space group: C 2/C
;
_chemical_formula_sum "Si O2"
_cell_formula_units_Z 40
_cell_length_a 27.734365
_cell_length_b 4.732231
_cell_length_c 11.225887
_cell_angle_alpha 90.000000
_cell_angle_beta 105.015537
_cell_angle_gamma 90.000000
_cell_volume 1423.039759
_symmetry_space_group_name_H-M "C 2/C"
_symmetry_group_IT_number 15
_symmetry_cell_setting 'monoclinic'
loop_
_space_group_symop_operation_xyz
x,y,z
-x,y,1/2-z
-x,-y,-z
x,-y,1/2+z
1/2+x,1/2+y,z
1/2-x,1/2+y,1/2-z
1/2-x,1/2-y,-z
1/2+x,1/2-y,1/2+z
loop_
_atom_site_type_symbol
_atom_site_label
_atom_site_fract_x
_atom_site_fract_y
_atom_site_fract_z
Si Si1 0.250000 0.250000 0.000000
Si Si2 0.781024 0.515335 0.291849
Si Si3 0.339345 0.316511 0.632226
Si Si4 0.917716 0.507976 0.022711
Si Si5 0.922765 0.988290 0.357455
Si Si6 0.000000 0.325554 0.250000
O O1 0.286840 0.107620 0.924876
O O2 0.207176 0.000162 0.942830
O O3 0.769533 0.845098 0.281643
O O4 0.817794 0.419073 0.211507
O O5 0.372159 0.155419 0.555475
O O6 0.377824 0.504046 0.734230
O O7 0.960867 0.506660 0.148885
O O8 0.908329 0.811758 0.960205
O O9 0.932775 0.315782 0.918951
O O10 0.969771 0.126827 0.322032
#
# Coordination Sequence:
#
# PCOD9292679 Si02
#       6
#     4   8   8   8   8   4
#     4  10  22  44  66  92 132 178 234 298 354 414
#     4  10  23  40  62  91 124 169 227 288 352 412
#     4  10  24  42  69 101 138 188 243 300 365 432
#     4  11  25  44  71 105 149 192 242 304 367 443
#     4  11  25  44  70 106 149 192 242 301 367 441
#     4  10  24  44  74 110 148 196 244 294 372 448
#
# _framework density 28.108841999999999
#
# number of rings (size 3 to 8) (size 9 to 14) (size 15 to 20)
#    0.000    1.600    0.000    2.400    0.000   20.800 
#    0.000    0.000    0.000    0.000    0.000    0.000 
#    0.000    0.000    0.000    0.000    0.000    0.000 
#
# Total GULP energy -111877.981188 kJ/mol
# GULP energy per Si atom -5593.899059 kJ/mol
# Density = 2.804486 g / cm^3
# Si number density = 28.108842 Si / 1000 Ang^3
#
#
#
# Elastic Constant Matrix: (Units=GPa)
#
#
# Indices 1 2 3 4 5 6 
#
# 1 156.8188 49.5192 63.3294 0.0000 -9.1321 0.0000
# 2 49.5192 122.4487 41.8828 0.0000 14.6548 0.0000
# 3 63.3294 41.8828 132.0050 0.0000 -2.9217 0.0000
# 4 0.0000 0.0000 0.0000 31.5244 0.0000 -3.1175
# 5 -9.1321 14.6548 -2.9217 0.0000 58.7615 0.0000
# 6 0.0000 0.0000 0.0000 -3.1175 0.0000 34.5224
#
#
#
# Elastic Compliance Matrix: (Units=1/GPa)
#
#
# Indices 1 2 3 4 5 6 
#
# 1 0.008622 -0.002584 -0.003276 0.000000 0.001822 0.000000
# 2 -0.002584 0.010296 -0.002095 0.000000 -0.003074 0.000000
# 3 -0.003276 -0.002095 0.009823 0.000000 0.000502 0.000000
# 4 0.000000 0.000000 0.000000 0.032007 0.000000 0.002890
# 5 0.001822 -0.003074 0.000502 0.000000 0.018093 0.000000
# 6 0.000000 0.000000 0.000000 0.002890 0.000000 0.029228
#
#
# Mechanical properties :
#
#
# Convention : Reuss Voigt Hill
#
# Bulk Modulus (GPa) = 77.94002 80.08169 79.01086
# Shear Modulus (GPa) = 38.98446 42.06439 40.52442
#
# Velocity S-wave (km/s) = 3.72817 3.87264 3.80109
# Velocity P-wave (km/s) = 6.80591 6.96765 6.88725
#
# Compressibility (1/GPa) = 0.01283038
#
# Stress axis : x y z
#
# Youngs Moduli (GPa) = 115.98371 97.12314 101.80171
#
# Poissons Ratio (x) = 0.25098 0.33351
# Poissons Ratio (y) = 0.29972 0.21328
# Poissons Ratio (z) = 0.37998 0.20348
#
# Static dielectric constant tensor:
#      x y z
#    x 2.207920 0.000000 0.068850 
#    y 0.000000 2.098280 0.000000 
#    z 0.068850 0.000000 2.338840 
# 
# From -- ./inp_files/120901.got.cif
#   From: 2010.05.17/outbox.cif.g08.bks.cpg/sg15_61_cif.got.tgz:120901.got - 2010.06.03 18:47:42.
