data_PCOD9292748
_publ_section_title
;
Structure prediction by ZEFSAII (Michael W. Deem and Ramdas Pophale) SiO2 
 PCOD9292748
Probable space group: C 2/C
;
_chemical_formula_sum "Si O2"
_cell_formula_units_Z 52
_cell_length_a 24.804059
_cell_length_b 7.000770
_cell_length_c 15.026684
_cell_angle_alpha 90.000000
_cell_angle_beta 62.701745
_cell_angle_gamma 90.000000
_cell_volume 2318.746529
_symmetry_space_group_name_H-M "C 2/C"
_symmetry_group_IT_number 15
_symmetry_cell_setting 'monoclinic'
loop_
_space_group_symop_operation_xyz
x,y,z
-x,y,1/2-z
-x,-y,-z
x,-y,1/2+z
1/2+x,1/2+y,z
1/2-x,1/2+y,1/2-z
1/2-x,1/2-y,-z
1/2+x,1/2-y,1/2+z
loop_
_atom_site_type_symbol
_atom_site_label
_atom_site_fract_x
_atom_site_fract_y
_atom_site_fract_z
Si Si1 0.567545 0.249460 0.093652
Si Si2 0.067903 0.056704 0.421077
Si Si3 0.000000 0.466686 0.250000
Si Si4 0.773332 0.177225 0.365123
Si Si5 0.802166 0.645336 0.514286
Si Si6 0.089686 0.122346 0.195271
Si Si7 0.300473 0.520595 0.151633
O O1 0.567151 0.456699 0.144009
O O2 0.511435 0.115848 0.161622
O O3 0.572489 0.261214 0.983269
O O4 0.631540 0.162899 0.077874
O O5 0.073508 0.073836 0.310812
O O6 0.129599 0.942827 0.403016
O O7 0.000000 0.000000 0.500000
O O8 0.055929 0.321727 0.205702
O O9 0.837951 0.152440 0.364290
O O10 0.748278 0.384526 0.358147
O O11 0.719886 0.068279 0.455831
O O12 0.782887 0.060911 0.266040
O O13 0.750000 0.750000 0.500000
O O14 0.802482 0.774187 0.602883
#
# Coordination Sequence:
#
# PCOD9292748 Si02
#       7
#     8   8   4   8   8   8   8
#     4  11  25  46  67 102 139 173 230 284 328 408
#     4  10  22  44  67  93 136 179 217 278 339 388
#     4  12  26  44  70  98 132 182 234 276 338 416
#     4  11  22  42  68  97 134 177 222 274 339 397
#     4  11  23  41  66  97 134 173 218 279 336 392
#     4  11  25  44  69  97 138 180 222 283 343 397
#     4  10  23  40  66  98 130 173 227 273 326 411
#
# _framework density 22.425908
#
# number of rings (size 3 to 8) (size 9 to 14) (size 15 to 20)
#    0.000    1.231    3.077    2.308    2.154    4.923 
#    2.769    1.538    0.000    0.000    0.000    0.000 
#    0.000    0.000    0.000    0.000    0.000    0.000 
#
# Total GULP energy -144977.910280 kJ/mol
# GULP energy per Si atom -5576.073472 kJ/mol
# Density = 2.237487 g / cm^3
# Si number density = 22.425908 Si / 1000 Ang^3
#
#
#
# Elastic Constant Matrix: (Units=GPa)
#
#
# Indices 1 2 3 4 5 6 
#
# 1 74.4242 27.8674 6.9555 0.0000 -14.6150 0.0000
# 2 27.8674 100.9102 25.6719 -0.0001 -12.8894 -0.0002
# 3 6.9555 25.6719 86.1168 0.0000 -7.1429 0.0000
# 4 0.0000 -0.0001 0.0000 33.8836 0.0000 -13.6384
# 5 -14.6150 -12.8894 -7.1429 0.0000 39.1414 0.0000
# 6 0.0000 -0.0002 0.0000 -13.6384 0.0000 27.3938
#
#
#
# Elastic Compliance Matrix: (Units=1/GPa)
#
#
# Indices 1 2 3 4 5 6 
#
# 1 0.015761 -0.003820 0.000253 0.000000 0.004673 0.000000
# 2 -0.003820 0.012006 -0.003108 0.000000 0.001960 0.000000
# 3 0.000253 -0.003108 0.012632 0.000000 0.001376 0.000000
# 4 0.000000 0.000000 0.000000 0.036909 0.000000 0.018376
# 5 0.004673 0.001960 0.001376 0.000000 0.028190 0.000000
# 6 0.000000 0.000000 0.000000 0.018376 0.000000 0.045653
#
#
# Mechanical properties :
#
#
# Convention : Reuss Voigt Hill
#
# Bulk Modulus (GPa) = 36.96869 42.49342 39.73106
# Shear Modulus (GPa) = 28.81557 33.48085 31.14821
#
# Velocity S-wave (km/s) = 3.58847 3.86807 3.73089
# Velocity P-wave (km/s) = 5.80432 6.24009 6.02615
#
# Compressibility (1/GPa) = 0.02704992
#
# Stress axis : x y z
#
# Youngs Moduli (GPa) = 63.44814 83.29334 79.16204
#
# Poissons Ratio (x) = 0.31819 -0.02006
# Poissons Ratio (y) = 0.24238 0.24603
# Poissons Ratio (z) = -0.01608 0.25887
#
# Static dielectric constant tensor:
#      x y z
#    x 1.977100 0.000000 0.135820 
#    y 0.000000 1.858780 0.000000 
#    z 0.135820 0.000000 2.138830 
# 
# From -- ./inp_files/221149.got.cif
#   From: 2010.05.17/outbox.cif.g08.bks.cpg/sg15_111_cif.got.tgz:221149.got - 2010.06.03 18:47:42.
