data_PCOD9292789
_publ_section_title
;
Structure prediction by ZEFSAII (Michael W. Deem and Ramdas Pophale) SiO2 
 PCOD9292789
Probable space group: C 2/C
;
_chemical_formula_sum "Si O2"
_cell_formula_units_Z 36
_cell_length_a 22.552234
_cell_length_b 7.405476
_cell_length_c 9.244382
_cell_angle_alpha 90.000000
_cell_angle_beta 101.142604
_cell_angle_gamma 90.000000
_cell_volume 1514.800716
_symmetry_space_group_name_H-M "C 2/C"
_symmetry_group_IT_number 15
_symmetry_cell_setting 'monoclinic'
loop_
_space_group_symop_operation_xyz
x,y,z
-x,y,1/2-z
-x,-y,-z
x,-y,1/2+z
1/2+x,1/2+y,z
1/2-x,1/2+y,1/2-z
1/2-x,1/2-y,-z
1/2+x,1/2-y,1/2+z
loop_
_atom_site_type_symbol
_atom_site_label
_atom_site_fract_x
_atom_site_fract_y
_atom_site_fract_z
Si Si1 0.932154 0.867811 0.677855
Si Si2 0.718858 0.925158 0.043282
Si Si3 0.250000 0.750000 0.000000
Si Si4 0.632889 0.641636 0.647855
Si Si5 0.637969 0.954245 0.258460
O O1 0.916980 0.876486 0.502153
O O2 0.917856 0.661199 0.716926
O O3 0.000000 0.917508 0.750000
O O4 0.886034 0.991953 0.745639
O O5 0.760110 0.081445 0.125985
O O6 0.691312 0.064723 0.906193
O O7 0.750000 0.750000 0.000000
O O8 0.664564 0.879435 0.122195
O O9 0.195891 0.846863 0.089428
O O10 0.628168 0.834695 0.729099
#
# Coordination Sequence:
#
# PCOD9292789 Si02
#       5
#     8   8   4   8   8
#     4  12  27  50  74 104 147 197 255 305 360 441
#     4  11  25  40  68 100 141 187 224 299 361 438
#     4  10  22  44  68 102 146 174 244 288 368 446
#     4  11  27  45  73 111 141 198 243 305 383 427
#     4  11  25  46  66 106 141 184 246 294 368 431
#
# _framework density 23.765502000000001
#
# number of rings (size 3 to 8) (size 9 to 14) (size 15 to 20)
#    0.000    0.889    4.444    2.000   12.444    3.556 
#    0.000    0.000    0.000    0.000    0.000    0.000 
#    0.000    0.000    0.000    0.000    0.000    0.000 
#
# Total GULP energy -100307.416463 kJ/mol
# GULP energy per Si atom -5572.634248 kJ/mol
# Density = 2.371141 g / cm^3
# Si number density = 23.765502 Si / 1000 Ang^3
#
#
#
# Elastic Constant Matrix: (Units=GPa)
#
#
# Indices 1 2 3 4 5 6 
#
# 1 111.4202 25.6517 24.0337 0.0000 20.9088 0.0000
# 2 25.6517 93.7788 13.8460 0.0000 1.2532 0.0000
# 3 24.0337 13.8460 81.0123 0.0000 12.1376 0.0000
# 4 0.0000 0.0000 0.0000 46.8909 0.0000 -11.4437
# 5 20.9088 1.2532 12.1376 0.0000 26.8996 0.0000
# 6 0.0000 0.0000 0.0000 -11.4437 0.0000 24.3365
#
#
#
# Elastic Compliance Matrix: (Units=1/GPa)
#
#
# Indices 1 2 3 4 5 6 
#
# 1 0.011495 -0.002781 -0.001733 0.000000 -0.008023 0.000000
# 2 -0.002781 0.011616 -0.001505 0.000000 0.002300 0.000000
# 3 -0.001733 -0.001505 0.013838 0.000000 -0.004827 0.000000
# 4 0.000000 0.000000 0.000000 0.024091 0.000000 0.011328
# 5 -0.008023 0.002300 -0.004827 0.000000 0.045483 0.000000
# 6 0.000000 0.000000 0.000000 0.011328 0.000000 0.046417
#
#
# Mechanical properties :
#
#
# Convention : Reuss Voigt Hill
#
# Bulk Modulus (GPa) = 40.14221 45.91935 43.03078
# Shear Modulus (GPa) = 28.85502 34.47073 31.66288
#
# Velocity S-wave (km/s) = 3.48825 3.81261 3.65403
# Velocity P-wave (km/s) = 5.75774 6.22456 5.99569
#
# Compressibility (1/GPa) = 0.02491144
#
# Stress axis : x y z
#
# Youngs Moduli (GPa) = 86.99656 86.09144 72.26359
#
# Poissons Ratio (x) = 0.23943 0.12521
# Poissons Ratio (y) = 0.24195 0.10874
# Poissons Ratio (z) = 0.15074 0.12954
#
# Static dielectric constant tensor:
#      x y z
#    x 2.020060 0.000000 0.129760 
#    y 0.000000 2.446520 0.000000 
#    z 0.129760 0.000000 2.216640 
# 
# From -- ./inp_files/53593.got.cif
#   From: 2010.05.17/outbox.cif.g08.bks.cpg/sg15_27_cif.got.tgz:53593.got - 2010.06.03 18:47:42.
