data_PCOD9292782
_publ_section_title
;
Structure prediction by ZEFSAII (Michael W. Deem and Ramdas Pophale) SiO2 
 PCOD9292782
Probable space group: C 2/C
;
_chemical_formula_sum "Si O2"
_cell_formula_units_Z 60
_cell_length_a 28.584498
_cell_length_b 6.369312
_cell_length_c 15.579961
_cell_angle_alpha 90.000000
_cell_angle_beta 105.872731
_cell_angle_gamma 90.000000
_cell_volume 2728.390667
_symmetry_space_group_name_H-M "C 2/C"
_symmetry_group_IT_number 15
_symmetry_cell_setting 'monoclinic'
loop_
_space_group_symop_operation_xyz
x,y,z
-x,y,1/2-z
-x,-y,-z
x,-y,1/2+z
1/2+x,1/2+y,z
1/2-x,1/2+y,1/2-z
1/2-x,1/2-y,-z
1/2+x,1/2-y,1/2+z
loop_
_atom_site_type_symbol
_atom_site_label
_atom_site_fract_x
_atom_site_fract_y
_atom_site_fract_z
Si Si1 0.638874 0.218642 0.470030
Si Si2 0.198112 0.896720 0.069849
Si Si3 0.000000 0.460183 0.250000
Si Si4 0.948502 0.970821 0.909265
Si Si5 0.114464 0.359460 0.594380
Si Si6 0.465936 0.700675 0.597708
Si Si7 0.307527 0.116748 0.605349
Si Si8 0.601162 0.184015 0.735971
O O1 0.670323 0.384734 0.539185
O O2 0.590467 0.322413 0.404751
O O3 0.618502 0.030263 0.520110
O O4 0.673443 0.107538 0.419087
O O5 0.165726 0.761270 0.118146
O O6 0.254742 0.910436 0.120986
O O7 0.196563 0.771309 0.978390
O O8 0.011168 0.606435 0.339089
O O9 0.050707 0.340619 0.261733
O O10 0.906097 0.877333 0.831139
O O11 0.927671 0.185907 0.939418
O O12 0.962577 0.808651 0.991521
O O13 0.994900 0.015484 0.872764
O O14 0.105746 0.478782 0.678373
O O15 0.350548 0.203638 0.685260
#
# Coordination Sequence:
#
# PCOD9292782 Si02
#       8
#     8   8   4   8   8   8   8   8
#     4  11  21  42  73  92 129 173 219 278 333 398
#     4  10  22  44  68 101 125 176 227 272 338 403
#     4  12  26  40  66 100 134 168 234 276 338 402
#     4  11  25  43  67  93 134 179 224 265 339 410
#     4  11  22  43  65  93 132 172 224 268 326 407
#     4  11  23  43  66  96 129 178 216 277 329 402
#     4  10  24  42  69  99 134 168 222 283 338 391
#     4  12  25  44  63  99 137 179 217 284 334 397
#
# _framework density 21.990987000000001
#
# number of rings (size 3 to 8) (size 9 to 14) (size 15 to 20)
#    0.000    1.067    5.333    0.400    0.000    6.933 
#    4.800    0.000    0.000    0.000    0.000    0.000 
#    0.000    0.000    0.000    0.000    0.000    0.000 
#
# Total GULP energy -167523.928267 kJ/mol
# GULP energy per Si atom -5584.130942 kJ/mol
# Density = 2.194093 g / cm^3
# Si number density = 21.990987 Si / 1000 Ang^3
#
#
#
# Elastic Constant Matrix: (Units=GPa)
#
#
# Indices 1 2 3 4 5 6 
#
# 1 183.5455 49.5905 33.6328 0.0000 28.8622 0.0000
# 2 49.5905 67.9971 6.4283 0.0000 4.6077 0.0000
# 3 33.6328 6.4283 38.5721 0.0000 22.2917 0.0000
# 4 0.0000 0.0000 0.0000 15.6047 0.0000 -5.1320
# 5 28.8622 4.6077 22.2917 0.0000 38.4815 0.0000
# 6 0.0000 0.0000 0.0000 -5.1320 0.0000 34.7751
#
#
#
# Elastic Compliance Matrix: (Units=1/GPa)
#
#
# Indices 1 2 3 4 5 6 
#
# 1 0.008179 -0.005338 -0.004610 0.000000 -0.002825 0.000000
# 2 -0.005338 0.018433 0.000818 0.000000 0.001323 0.000000
# 3 -0.004610 0.000818 0.041891 0.000000 -0.020908 0.000000
# 4 0.000000 0.000000 0.000000 0.067352 0.000000 0.009940
# 5 -0.002825 0.001323 -0.020908 0.000000 0.040059 0.000000
# 6 0.000000 0.000000 0.000000 0.009940 0.000000 0.030223
#
#
# Mechanical properties :
#
#
# Convention : Reuss Voigt Hill
#
# Bulk Modulus (GPa) = 19.90262 52.15754 36.03008
# Shear Modulus (GPa) = 20.73446 31.13647 25.93547
#
# Velocity S-wave (km/s) = 3.07394 3.76689 3.43792
# Velocity P-wave (km/s) = 4.65497 6.53364 5.67262
#
# Compressibility (1/GPa) = 0.05024464
#
# Stress axis : x y z
#
# Youngs Moduli (GPa) = 122.25819 54.25176 23.87125
#
# Poissons Ratio (x) = 0.28960 0.11004
# Poissons Ratio (y) = 0.65262 -0.01953
# Poissons Ratio (z) = 0.56356 -0.04439
#
# Static dielectric constant tensor:
#      x y z
#    x 1.828080 0.000000 -0.010670 
#    y 0.000000 1.824370 0.000000 
#    z -0.010670 0.000000 1.795000 
# 
# From -- ./inp_files/223916.got.cif
#   From: 2010.05.17/outbox.cif.g08.bks.cpg/sg15_112_cif.got.tgz:223916.got - 2010.06.03 18:47:42.
