data_PCOD9292932
_publ_section_title
;
Structure prediction by ZEFSAII (Michael W. Deem and Ramdas Pophale) SiO2 
 PCOD9292932
Probable space group: C 2/C
;
_chemical_formula_sum "Si O2"
_cell_formula_units_Z 28
_cell_length_a 12.527051
_cell_length_b 21.012665
_cell_length_c 4.962377
_cell_angle_alpha 90.000000
_cell_angle_beta 119.176248
_cell_angle_gamma 90.000000
_cell_volume 1140.501302
_symmetry_space_group_name_H-M "C 2/C"
_symmetry_group_IT_number 15
_symmetry_cell_setting 'monoclinic'
loop_
_space_group_symop_operation_xyz
x,y,z
-x,y,1/2-z
-x,-y,-z
x,-y,1/2+z
1/2+x,1/2+y,z
1/2-x,1/2+y,1/2-z
1/2-x,1/2-y,-z
1/2+x,1/2-y,1/2+z
loop_
_atom_site_type_symbol
_atom_site_label
_atom_site_fract_x
_atom_site_fract_y
_atom_site_fract_z
Si Si1 0.837252 0.541891 0.891742
Si Si2 0.500000 0.865143 0.250000
Si Si3 0.912877 0.885643 0.384462
Si Si4 0.131567 0.750946 0.044166
O O1 0.857217 0.481368 0.719959
O O2 0.700329 0.568348 0.709465
O O3 0.921185 0.595571 0.863855
O O4 0.403957 0.822492 0.950653
O O5 0.858900 0.813282 0.256058
O O6 0.000000 0.904499 0.250000
O O7 0.000000 0.888575 0.750000
O O8 0.000000 0.766383 0.750000
O O9 0.250000 0.750000 0.000000
#
# Coordination Sequence:
#
# PCOD9292932 Si02
#       4
#     8   4   8   8
#     4  12  26  46  69  98 140 187 230 280 340 418
#     4  10  22  44  70 102 134 178 234 288 348 412
#     4  11  23  43  68 105 136 177 231 283 351 411
#     4   9  18  40  69  99 137 174 227 289 351 401
#
# _framework density 24.550605999999998
#
# number of rings (size 3 to 8) (size 9 to 14) (size 15 to 20)
#    0.857    0.571    2.857    2.571    0.000    3.429 
#    5.143    7.143    0.000    0.000    0.000    0.000 
#    0.000    0.000    0.000    0.000    0.000    0.000 
#
# Total GULP energy -78092.992212 kJ/mol
# GULP energy per Si atom -5578.070872 kJ/mol
# Density = 2.449473 g / cm^3
# Si number density = 24.550606 Si / 1000 Ang^3
#
#
#
# Elastic Constant Matrix: (Units=GPa)
#
#
# Indices 1 2 3 4 5 6 
#
# 1 200.1656 22.2670 56.5394 0.0000 -1.1539 0.0000
# 2 22.2670 57.8251 25.4940 0.0000 3.7470 0.0000
# 3 56.5394 25.4940 78.6114 0.0000 -8.5766 0.0000
# 4 0.0000 0.0000 0.0000 97.9824 0.0000 116.1058
# 5 -1.1539 3.7470 -8.5766 0.0000 32.6257 0.0000
# 6 0.0000 0.0000 0.0000 116.1058 0.0000 176.9961
#
#
#
# Elastic Compliance Matrix: (Units=1/GPa)
#
#
# Indices 1 2 3 4 5 6 
#
# 1 0.006308 -0.000379 -0.004514 0.000000 -0.000920 0.000000
# 2 -0.000379 0.020764 -0.006921 0.000000 -0.004218 0.000000
# 3 -0.004514 -0.006921 0.018821 0.000000 0.005583 0.000000
# 4 0.000000 0.000000 0.000000 0.045831 0.000000 -0.030064
# 5 -0.000920 -0.004218 0.005583 0.000000 0.032570 0.000000
# 6 0.000000 0.000000 0.000000 -0.030064 0.000000 0.025371
#
#
# Mechanical properties :
#
#
# Convention : Reuss Voigt Hill
#
# Bulk Modulus (GPa) = 44.91564 60.57809 52.74687
# Shear Modulus (GPa) = 27.66767 77.00761 52.33764
#
# Velocity S-wave (km/s) = 3.36067 5.60669 4.62218
# Velocity P-wave (km/s) = 5.77873 8.16343 7.07232
#
# Compressibility (1/GPa) = 0.02226396
#
# Stress axis : x y z
#
# Youngs Moduli (GPa) = 158.53320 48.15952 53.13143
#
# Poissons Ratio (x) = 0.01826 0.23984
# Poissons Ratio (y) = 0.06011 0.36774
# Poissons Ratio (z) = 0.71565 0.33333
#
# Static dielectric constant tensor:
#      x y z
#    x 1.799030 0.000000 0.018860 
#    y 0.000000 2.211590 0.000000 
#    z 0.018860 0.000000 1.972710 
# 
# From -- ./inp_files/3553.got.cif
#   From: 2010.05.17/outbox.cif.g08.bks.cpg/sg15_2_cif.got.tgz:3553.got - 2010.06.03 18:47:42.
