data_PCOD9292450
_publ_section_title
;
Structure prediction by ZEFSAII (Michael W. Deem and Ramdas Pophale) SiO2 
 PCOD9292450
Probable space group: C 2/C
;
_chemical_formula_sum "Si O2"
_cell_formula_units_Z 44
_cell_length_a 5.029993
_cell_length_b 13.656847
_cell_length_c 25.494374
_cell_angle_alpha 90.000000
_cell_angle_beta 94.418451
_cell_angle_gamma 90.000000
_cell_volume 1746.101679
_symmetry_space_group_name_H-M "C 2/C"
_symmetry_group_IT_number 15
_symmetry_cell_setting 'monoclinic'
loop_
_space_group_symop_operation_xyz
x,y,z
-x,y,1/2-z
-x,-y,-z
x,-y,1/2+z
1/2+x,1/2+y,z
1/2-x,1/2+y,1/2-z
1/2-x,1/2-y,-z
1/2+x,1/2-y,1/2+z
loop_
_atom_site_type_symbol
_atom_site_label
_atom_site_fract_x
_atom_site_fract_y
_atom_site_fract_z
Si Si1 0.865397 0.587276 0.349464
Si Si2 0.500000 0.581001 0.250000
Si Si3 0.027991 0.251107 0.057110
Si Si4 0.146674 0.421403 0.297692
Si Si5 0.046237 0.401528 0.968037
Si Si6 0.029482 0.215490 0.627296
O O1 0.626740 0.619914 0.306552
O O2 0.053032 0.683251 0.345120
O O3 0.960135 0.478824 0.335360
O O4 0.873955 0.582747 0.412759
O O5 0.271124 0.510830 0.267906
O O6 0.161423 0.143728 0.045375
O O7 0.285344 0.307521 0.085912
O O8 0.795052 0.263654 0.096455
O O9 0.955140 0.313592 0.004538
O O10 0.378768 0.364371 0.330225
O O11 0.000000 0.359337 0.250000
O O12 0.000000 0.500000 0.000000
#
# Coordination Sequence:
#
# PCOD9292450 Si02
#       6
#     8   4   8   8   8   8
#     4  10  24  44  68 104 138 186 234 293 353 427
#     4  10  24  44  68  98 142 170 254 296 344 442
#     4  10  25  46  66 112 143 180 247 291 339 452
#     4  10  24  45  66 103 138 187 240 297 356 427
#     4  10  22  43  72 103 146 191 232 291 367 413
#     4  11  25  46  75 100 148 188 231 300 363 412
#
# _framework density 25.198990999999999
#
# number of rings (size 3 to 8) (size 9 to 14) (size 15 to 20)
#    0.000    1.818    0.000    1.091   14.000    6.545 
#    4.909    5.455    0.000    0.000    0.000    0.000 
#    0.000    0.000    0.000    0.000    0.000    0.000 
#
# Total GULP energy -122491.008479 kJ/mol
# GULP energy per Si atom -5567.773113 kJ/mol
# Density = 2.514164 g / cm^3
# Si number density = 25.198991 Si / 1000 Ang^3
#
#
#
# Elastic Constant Matrix: (Units=GPa)
#
#
# Indices 1 2 3 4 5 6 
#
# 1 93.8000 29.1027 55.5670 0.0000 -14.3266 0.0000
# 2 29.1027 88.0605 57.5940 0.0000 12.9423 0.0000
# 3 55.5670 57.5940 179.2226 0.0000 48.7698 0.0000
# 4 0.0000 0.0000 0.0000 -13.4305 0.0000 9.8371
# 5 -14.3266 12.9423 48.7698 0.0000 43.6907 0.0000
# 6 0.0000 0.0000 0.0000 9.8371 0.0000 20.7144
#
#
#
# Elastic Compliance Matrix: (Units=1/GPa)
#
#
# Indices 1 2 3 4 5 6 
#
# 1 0.021278 -0.002641 -0.011289 0.000000 0.020361 0.000000
# 2 -0.002641 0.014756 -0.003588 0.000000 -0.001232 0.000000
# 3 -0.011289 -0.003588 0.015728 0.000000 -0.020196 0.000000
# 4 0.000000 0.000000 0.000000 -0.055242 0.000000 0.026234
# 5 0.020361 -0.001232 -0.020196 0.000000 0.052473 0.000000
# 6 0.000000 0.000000 0.000000 0.026234 0.000000 0.035817
#
#
# Mechanical properties :
#
#
# Convention : Reuss Voigt Hill
#
# Bulk Modulus (GPa) = 59.78450 71.73450 65.75950
# Shear Modulus (GPa) = 39.86564 24.78289 32.32426
#
# Velocity S-wave (km/s) = 3.98179 3.13946 3.58545
# Velocity P-wave (km/s) = 6.70194 6.45528 6.57977
#
# Compressibility (1/GPa) = 0.01672674
#
# Stress axis : x y z
#
# Youngs Moduli (GPa) = 46.99743 67.76754 63.57999
#
# Poissons Ratio (x) = 0.17899 0.71774
# Poissons Ratio (y) = 0.12413 0.22811
# Poissons Ratio (z) = 0.53055 0.24313
#
# Static dielectric constant tensor:
#      x y z
#    x 1.592710 0.000000 0.598520 
#    y 0.000000 2.070820 0.000000 
#    z 0.598520 0.000000 1.745550 
# 
# From -- ./inp_files/285452.got.cif
#   From: 2010.05.17/outbox.cif.g08.bks.cpg/sg15_143_cif.got.tgz:285452.got - 2010.06.03 18:47:42.
