data_PCOD9292594
_publ_section_title
;
Structure prediction by ZEFSAII (Michael W. Deem and Ramdas Pophale) SiO2 
 PCOD9292594
Probable space group: C 2/C
;
_chemical_formula_sum "Si O2"
_cell_formula_units_Z 60
_cell_length_a 27.624958
_cell_length_b 12.823026
_cell_length_c 27.084575
_cell_angle_alpha 90.000000
_cell_angle_beta 159.927120
_cell_angle_gamma 90.000000
_cell_volume 3292.915803
_symmetry_space_group_name_H-M "C 2/C"
_symmetry_group_IT_number 15
_symmetry_cell_setting 'monoclinic'
loop_
_space_group_symop_operation_xyz
x,y,z
-x,y,1/2-z
-x,-y,-z
x,-y,1/2+z
1/2+x,1/2+y,z
1/2-x,1/2+y,1/2-z
1/2-x,1/2-y,-z
1/2+x,1/2-y,1/2+z
loop_
_atom_site_type_symbol
_atom_site_label
_atom_site_fract_x
_atom_site_fract_y
_atom_site_fract_z
Si Si1 0.555550 0.668689 0.118340
Si Si2 0.783962 0.218137 0.692235
Si Si3 0.000000 0.278719 0.750000
Si Si4 0.784061 0.156673 0.472321
Si Si5 0.302157 0.999650 0.354260
Si Si6 0.356165 0.478505 0.470757
Si Si7 0.037708 0.836235 0.492934
Si Si8 0.391242 0.913226 0.333033
O O1 0.691747 0.594001 0.247717
O O2 0.596819 0.788982 0.161179
O O3 0.449956 0.625559 0.059070
O O4 0.478981 0.655956 0.991518
O O5 0.748992 0.270154 0.606834
O O6 0.751533 0.095720 0.663556
O O7 0.685256 0.277048 0.636789
O O8 0.941035 0.229913 0.863222
O O9 0.131411 0.344362 0.853213
O O10 0.911518 0.206965 0.626351
O O11 0.836114 0.046049 0.500750
O O12 0.323515 0.951447 0.319998
O O13 0.452263 0.039939 0.516457
O O14 0.435224 0.554260 0.507184
O O15 0.203923 0.456804 0.301989
#
# Coordination Sequence:
#
# PCOD9292594 Si02
#       8
#     8   8   4   8   8   8   8   8
#     4  12  22  37  52  78 123 168 211 246 268 323
#     4  11  22  35  56  87 115 162 196 237 279 357
#     4  10  22  44  64  96 118 138 170 252 320 378
#     4  10  23  39  67  91 122 140 187 236 314 379
#     4  11  23  36  52  80 118 165 213 243 282 314
#     4  11  22  37  55  83 115 160 195 239 295 343
#     4  11  22  32  54  79 121 164 209 236 274 324
#     4  11  24  34  53  81 119 165 210 246 273 324
#
# _framework density 18.220934
#
# number of rings (size 3 to 8) (size 9 to 14) (size 15 to 20)
#    0.000    1.067    4.000    3.600    7.467    0.000 
#    0.000    0.000    0.000    0.000    0.000    2.800 
#    0.000    0.000    0.000    0.000    0.000    0.000 
#
# Total GULP energy -167483.090558 kJ/mol
# GULP energy per Si atom -5582.769685 kJ/mol
# Density = 1.817946 g / cm^3
# Si number density = 18.220934 Si / 1000 Ang^3
#
#
#
# Elastic Constant Matrix: (Units=GPa)
#
#
# Indices 1 2 3 4 5 6 
#
# 1 63.3667 18.0639 18.0074 0.0007 3.2791 0.0002
# 2 18.0639 65.3917 5.8984 0.0029 10.2201 0.0028
# 3 18.0074 5.8984 88.5899 0.0006 8.4513 0.0016
# 4 0.0007 0.0029 0.0006 26.0076 0.0012 5.5408
# 5 3.2791 10.2201 8.4513 0.0012 18.5526 0.0007
# 6 0.0002 0.0028 0.0016 5.5408 0.0007 23.4761
#
#
#
# Elastic Compliance Matrix: (Units=1/GPa)
#
#
# Indices 1 2 3 4 5 6 
#
# 1 0.018091 -0.004850 -0.003454 0.000000 0.001048 0.000001
# 2 -0.004850 0.018038 0.000681 -0.000001 -0.009390 -0.000002
# 3 -0.003454 0.000681 0.012464 0.000000 -0.005442 -0.000001
# 4 0.000000 -0.000001 0.000000 0.040486 -0.000002 -0.009555
# 5 0.001048 -0.009390 -0.005442 -0.000002 0.061367 0.000000
# 6 0.000001 -0.000002 -0.000001 -0.009555 0.000000 0.044852
#
#
# Mechanical properties :
#
#
# Convention : Reuss Voigt Hill
#
# Bulk Modulus (GPa) = 29.98834 33.47642 31.73238
# Shear Modulus (GPa) = 22.55701 25.29917 23.92809
#
# Velocity S-wave (km/s) = 3.52230 3.73026 3.62777
# Velocity P-wave (km/s) = 5.74770 6.07992 5.91614
#
# Compressibility (1/GPa) = 0.03334630
#
# Stress axis : x y z
#
# Youngs Moduli (GPa) = 55.27585 55.43782 80.23118
#
# Poissons Ratio (x) = 0.26885 0.27715
# Poissons Ratio (y) = 0.26807 -0.05460
# Poissons Ratio (z) = 0.19094 -0.03773
#
# Static dielectric constant tensor:
#      x y z
#    x 1.649800 0.000000 0.028800 
#    y 0.000000 1.646940 0.000000 
#    z 0.028800 0.000000 1.656880 
# 
# From -- ./inp_files/320281.got.cif
#   From: 2010.05.17/outbox.cif.g08.bks.cpg/sg15_161_cif.got.tgz:320281.got - 2010.06.03 18:47:42.
