data_PCOD9292421
_publ_section_title
;
Structure prediction by ZEFSAII (Michael W. Deem and Ramdas Pophale) SiO2 
 PCOD9292421
Probable space group: C 2/C
;
_chemical_formula_sum "Si O2"
_cell_formula_units_Z 48
_cell_length_a 5.513391
_cell_length_b 18.959010
_cell_length_c 19.042187
_cell_angle_alpha 90.000000
_cell_angle_beta 65.243191
_cell_angle_gamma 90.000000
_cell_volume 1807.514543
_symmetry_space_group_name_H-M "C 2/C"
_symmetry_group_IT_number 15
_symmetry_cell_setting 'monoclinic'
loop_
_space_group_symop_operation_xyz
x,y,z
-x,y,1/2-z
-x,-y,-z
x,-y,1/2+z
1/2+x,1/2+y,z
1/2-x,1/2+y,1/2-z
1/2-x,1/2-y,-z
1/2+x,1/2-y,1/2+z
loop_
_atom_site_type_symbol
_atom_site_label
_atom_site_fract_x
_atom_site_fract_y
_atom_site_fract_z
Si Si1 0.700841 0.631840 0.286378
Si Si2 0.236866 0.956580 0.553931
Si Si3 0.594631 0.727383 0.089534
Si Si4 0.778959 0.489997 0.202372
Si Si5 0.808031 0.076470 0.589846
Si Si6 0.398384 0.282946 0.412620
O O1 0.500000 0.656206 0.250000
O O2 0.749718 0.549381 0.266095
O O3 0.000000 0.662696 0.250000
O O4 0.322806 0.773116 0.120582
O O5 0.245589 0.904055 0.485346
O O6 0.500000 0.000000 0.500000
O O7 0.961463 0.849235 0.622848
O O8 0.974337 0.004379 0.574969
O O9 0.287065 0.041264 0.132148
O O10 0.750000 0.750000 0.000000
O O11 0.005592 0.862996 0.092842
O O12 0.820123 0.741698 0.120584
O O13 0.500000 0.449330 0.250000
O O14 0.029851 0.438363 0.163405
O O15 0.250000 0.250000 0.500000
#
# Coordination Sequence:
#
# PCOD9292421 Si02
#       6
#     8   8   8   8   8   8
#     4  11  25  46  74 110 158 194 263 338 398 489
#     4   9  21  43  67 110 150 199 258 328 410 467
#     4  10  23  47  70 111 149 207 265 320 391 465
#     4  10  24  41  69 110 154 207 258 329 417 470
#     4  10  22  43  71 107 158 200 264 332 399 481
#     4  10  23  43  72 105 146 201 261 316 384 459
#
# _framework density 26.555800999999999
#
# number of rings (size 3 to 8) (size 9 to 14) (size 15 to 20)
#    0.000    2.000    0.000    1.000    9.333    5.333 
#   42.000    0.833    7.333    0.000    0.000    0.000 
#    0.000    0.000    0.000    0.000    0.000    0.000 
#
# Total GULP energy -133706.247570 kJ/mol
# GULP energy per Si atom -5571.093649 kJ/mol
# Density = 2.649536 g / cm^3
# Si number density = 26.555801 Si / 1000 Ang^3
#
#
#
# Elastic Constant Matrix: (Units=GPa)
#
#
# Indices 1 2 3 4 5 6 
#
# 1 199.9165 22.0758 49.6050 0.0000 -45.2357 0.0000
# 2 22.0758 89.7157 53.7902 0.0000 -5.9777 0.0000
# 3 49.6050 53.7902 174.2982 0.0000 -24.5023 0.0000
# 4 0.0000 0.0000 0.0000 36.3601 0.0000 -5.8243
# 5 -45.2357 -5.9777 -24.5023 0.0000 38.9856 0.0000
# 6 0.0000 0.0000 0.0000 -5.8243 0.0000 34.1381
#
#
#
# Elastic Compliance Matrix: (Units=1/GPa)
#
#
# Indices 1 2 3 4 5 6 
#
# 1 0.006963 -0.000808 -0.000674 0.000000 0.007532 0.000000
# 2 -0.000808 0.013784 -0.004233 0.000000 -0.001484 0.000000
# 3 -0.000674 -0.004233 0.007716 0.000000 0.003419 0.000000
# 4 0.000000 0.000000 0.000000 0.028275 0.000000 0.004824
# 5 0.007532 -0.001484 0.003419 0.000000 0.036311 0.000000
# 6 0.000000 0.000000 0.000000 0.004824 0.000000 0.030116
#
#
# Mechanical properties :
#
#
# Convention : Reuss Voigt Hill
#
# Bulk Modulus (GPa) = 58.70311 79.43027 69.06669
# Shear Modulus (GPa) = 35.64551 44.46073 40.05312
#
# Velocity S-wave (km/s) = 3.66770 4.09618 3.88785
# Velocity P-wave (km/s) = 6.33163 7.23514 6.79841
#
# Compressibility (1/GPa) = 0.01703487
#
# Stress axis : x y z
#
# Youngs Moduli (GPa) = 143.62433 72.54851 129.60394
#
# Poissons Ratio (x) = 0.05859 0.08729
# Poissons Ratio (y) = 0.11599 0.54856
# Poissons Ratio (z) = 0.09674 0.30707
#
# Static dielectric constant tensor:
#      x y z
#    x 2.288900 0.000000 0.077760 
#    y 0.000000 3.057030 0.000000 
#    z 0.077760 0.000000 2.186250 
# 
# From -- ./inp_files/227793.got.cif
#   From: 2010.05.17/outbox.cif.g08.bks.cpg/sg15_114_cif.got.tgz:227793.got - 2010.06.03 18:47:42.
