data_PCOD9292640
_publ_section_title
;
Structure prediction by ZEFSAII (Michael W. Deem and Ramdas Pophale) SiO2 
 PCOD9292640
Probable space group: C 2/C
;
_chemical_formula_sum "Si O2"
_cell_formula_units_Z 48
_cell_length_a 11.988790
_cell_length_b 17.798520
_cell_length_c 10.072593
_cell_angle_alpha 90.000000
_cell_angle_beta 85.978515
_cell_angle_gamma 90.000000
_cell_volume 2144.025277
_symmetry_space_group_name_H-M "C 2/C"
_symmetry_group_IT_number 15
_symmetry_cell_setting 'monoclinic'
loop_
_space_group_symop_operation_xyz
x,y,z
-x,y,1/2-z
-x,-y,-z
x,-y,1/2+z
1/2+x,1/2+y,z
1/2-x,1/2+y,1/2-z
1/2-x,1/2-y,-z
1/2+x,1/2-y,1/2+z
loop_
_atom_site_type_symbol
_atom_site_label
_atom_site_fract_x
_atom_site_fract_y
_atom_site_fract_z
Si Si1 0.988115 0.826645 0.908131
Si Si2 0.905957 0.674950 0.847977
Si Si3 0.873058 0.627215 0.284213
Si Si4 0.300108 0.412419 0.484723
Si Si5 0.734854 0.585823 0.039028
Si Si6 0.271171 0.276495 0.343271
O O1 0.971159 0.736811 0.932900
O O2 0.873573 0.862645 0.967340
O O3 0.000000 0.837834 0.750000
O O4 0.094456 0.871070 0.955960
O O5 0.829635 0.725086 0.753989
O O6 0.000000 0.636370 0.750000
O O7 0.829967 0.617051 0.932526
O O8 0.815618 0.601648 0.425975
O O9 0.791203 0.595465 0.178217
O O10 0.861615 0.717888 0.283682
O O11 0.000000 0.604125 0.250000
O O12 0.306959 0.500986 0.473309
O O13 0.295650 0.364917 0.349566
O O14 0.250000 0.250000 0.500000
#
# Coordination Sequence:
#
# PCOD9292640 Si02
#       6
#     8   8   8   8   8   8
#     4  11  21  46  72  99 140 188 241 299 350 422
#     4  11  24  41  73 103 141 191 239 298 358 428
#     4  11  25  43  70 101 139 187 240 296 357 441
#     4  11  26  44  70  99 148 186 235 299 374 420
#     4  12  26  43  69 108 143 185 242 301 367 434
#     4  10  22  44  65  97 135 184 239 287 349 429
#
# _framework density 22.387796000000002
#
# number of rings (size 3 to 8) (size 9 to 14) (size 15 to 20)
#    0.000    1.000    3.333    4.000    9.333    1.333 
#    0.000    0.833    0.000    0.000    0.000    0.000 
#    0.000    0.000    0.000    0.000    0.000    0.000 
#
# Total GULP energy -133991.262736 kJ/mol
# GULP energy per Si atom -5582.969281 kJ/mol
# Density = 2.233684 g / cm^3
# Si number density = 22.387796 Si / 1000 Ang^3
#
#
#
# Elastic Constant Matrix: (Units=GPa)
#
#
# Indices 1 2 3 4 5 6 
#
# 1 98.7877 16.7165 -0.9681 0.0000 -2.3951 0.0000
# 2 16.7165 106.6588 17.7834 0.0000 6.9973 0.0000
# 3 -0.9681 17.7834 31.5803 0.0000 6.7879 0.0000
# 4 0.0000 0.0000 0.0000 9.0698 0.0000 -2.8331
# 5 -2.3951 6.9973 6.7879 0.0000 26.0982 0.0000
# 6 0.0000 0.0000 0.0000 -2.8331 0.0000 24.7900
#
#
#
# Elastic Compliance Matrix: (Units=1/GPa)
#
#
# Indices 1 2 3 4 5 6 
#
# 1 0.010486 -0.001912 0.001145 0.000000 0.001177 0.000000
# 2 -0.001912 0.010740 -0.005772 0.000000 -0.001554 0.000000
# 3 0.001145 -0.005772 0.036644 0.000000 -0.007878 0.000000
# 4 0.000000 0.000000 0.000000 0.114338 0.000000 0.013067
# 5 0.001177 -0.001554 -0.007878 0.000000 0.040890 0.000000
# 6 0.000000 0.000000 0.000000 0.013067 0.000000 0.041832
#
#
# Mechanical properties :
#
#
# Convention : Reuss Voigt Hill
#
# Bulk Modulus (GPa) = 22.32552 33.78781 28.05667
# Shear Modulus (GPa) = 17.67165 25.55794 21.61479
#
# Velocity S-wave (km/s) = 2.81257 3.38242 3.11058
# Velocity P-wave (km/s) = 4.53225 5.51174 5.04581
#
# Compressibility (1/GPa) = 0.04479179
#
# Stress axis : x y z
#
# Youngs Moduli (GPa) = 95.36584 93.11302 27.28941
#
# Poissons Ratio (x) = 0.17799 -0.03124
# Poissons Ratio (y) = 0.18230 0.15752
# Poissons Ratio (z) = -0.10918 0.53748
#
# Static dielectric constant tensor:
#      x y z
#    x 1.897370 0.000000 0.038270 
#    y 0.000000 1.842590 0.000000 
#    z 0.038270 0.000000 1.893540 
# 
# From -- ./inp_files/87386.got.cif
#   From: 2010.05.17/outbox.cif.g08.bks.cpg/sg15_44_cif.got.tgz:87386.got - 2010.06.03 18:47:42.
