data_PCOD9292339
_publ_section_title
;
Structure prediction by ZEFSAII (Michael W. Deem and Ramdas Pophale) SiO2 
 PCOD9292339
Probable space group: C 2/C
;
_chemical_formula_sum "Si O2"
_cell_formula_units_Z 48
_cell_length_a 30.952137
_cell_length_b 5.181223
_cell_length_c 13.657071
_cell_angle_alpha 90.000000
_cell_angle_beta 117.099222
_cell_angle_gamma 90.000000
_cell_volume 1949.742890
_symmetry_space_group_name_H-M "C 2/C"
_symmetry_group_IT_number 15
_symmetry_cell_setting 'monoclinic'
loop_
_space_group_symop_operation_xyz
x,y,z
-x,y,1/2-z
-x,-y,-z
x,-y,1/2+z
1/2+x,1/2+y,z
1/2-x,1/2+y,1/2-z
1/2-x,1/2-y,-z
1/2+x,1/2-y,1/2+z
loop_
_atom_site_type_symbol
_atom_site_label
_atom_site_fract_x
_atom_site_fract_y
_atom_site_fract_z
Si Si1 0.824424 0.133100 0.164808
Si Si2 0.778474 0.212682 0.310225
Si Si3 0.540808 0.147524 0.649033
Si Si4 0.500000 0.490484 0.250000
Si Si5 0.942942 0.631653 0.044719
Si Si6 0.250000 0.250000 0.000000
Si Si7 0.879047 0.632768 0.156846
O O1 0.861293 0.918255 0.162727
O O2 0.821728 0.136847 0.280513
O O3 0.837527 0.422032 0.142158
O O4 0.774296 0.010489 0.075145
O O5 0.762155 0.494753 0.255544
O O6 0.782464 0.205683 0.431016
O O7 0.539967 0.339212 0.738171
O O8 0.563796 0.233881 0.571221
O O9 0.574602 0.920488 0.724980
O O10 0.483075 0.095876 0.573900
O O11 0.473775 0.326921 0.141231
O O12 0.896458 0.581174 0.063542
#
# Coordination Sequence:
#
# PCOD9292339 Si02
#       7
#     8   8   8   4   8   4   8
#     4  11  26  42  72 101 140 182 227 287 354 410
#     4  10  22  43  70 100 129 171 225 276 340 419
#     4  11  24  41  66  95 135 189 239 279 345 413
#     4  12  18  44  66  94 132 182 240 292 324 414
#     4  11  24  41  67  97 133 193 234 279 350 410
#     4  10  24  48  74  98 134 182 230 278 350 430
#     4  12  24  45  64 104 148 178 227 300 339 405
#
# _framework density 24.61863
#
# number of rings (size 3 to 8) (size 9 to 14) (size 15 to 20)
#    0.000    1.000    3.333    3.500    0.000    8.667 
#    0.000    0.000    0.000    0.000    0.000    0.000 
#    0.000    0.000    0.000    0.000    0.000    0.000 
#
# Total GULP energy -133628.117078 kJ/mol
# GULP energy per Si atom -5567.838212 kJ/mol
# Density = 2.456260 g / cm^3
# Si number density = 24.618630 Si / 1000 Ang^3
#
#
#
# Elastic Constant Matrix: (Units=GPa)
#
#
# Indices 1 2 3 4 5 6 
#
# 1 115.8527 2.6153 57.2688 0.0000 -43.1822 0.0000
# 2 2.6153 44.8198 8.9496 0.0000 -11.0705 0.0000
# 3 57.2688 8.9496 131.8955 0.0000 -66.3203 0.0000
# 4 0.0000 0.0000 0.0000 93.3302 0.0000 -27.5773
# 5 -43.1822 -11.0705 -66.3203 0.0000 63.2254 0.0000
# 6 0.0000 0.0000 0.0000 -27.5773 0.0000 52.1179
#
#
#
# Elastic Compliance Matrix: (Units=1/GPa)
#
#
# Indices 1 2 3 4 5 6 
#
# 1 0.011962 0.001240 -0.002245 0.000000 0.006032 0.000000
# 2 0.001240 0.023511 0.000766 0.000000 0.005767 0.000000
# 3 -0.002245 0.000766 0.016508 0.000000 0.015917 0.000000
# 4 0.000000 0.000000 0.000000 0.012700 0.000000 0.006720
# 5 0.006032 0.005767 0.015917 0.000000 0.037642 0.000000
# 6 0.000000 0.000000 0.000000 0.006720 0.000000 0.022743
#
#
# Mechanical properties :
#
#
# Convention : Reuss Voigt Hill
#
# Bulk Modulus (GPa) = 19.41606 47.80392 33.60999
# Shear Modulus (GPa) = 35.03589 56.65032 45.84311
#
# Velocity S-wave (km/s) = 3.77655 4.80220 4.31992
# Velocity P-wave (km/s) = 5.18848 7.08577 6.21001
#
# Compressibility (1/GPa) = 0.05150377
#
# Stress axis : x y z
#
# Youngs Moduli (GPa) = 83.60009 42.53372 60.57706
#
# Poissons Ratio (x) = -0.05275 0.13598
# Poissons Ratio (y) = -0.10368 -0.04641
# Poissons Ratio (z) = 0.18766 -0.03259
#
# Static dielectric constant tensor:
#      x y z
#    x 2.145140 0.000000 0.081040 
#    y 0.000000 1.957010 0.000000 
#    z 0.081040 0.000000 1.971930 
# 
# From -- ./inp_files/179771.got.cif
#   From: 2010.05.17/outbox.cif.g08.bks.cpg/sg15_90_cif.got.tgz:179771.got - 2010.06.03 18:47:42.
