data_PCOD9292954
_publ_section_title
;
Structure prediction by ZEFSAII (Michael W. Deem and Ramdas Pophale) SiO2 
 PCOD9292954
Probable space group: C 2/C
;
_chemical_formula_sum "Si O2"
_cell_formula_units_Z 60
_cell_length_a 16.844076
_cell_length_b 9.150737
_cell_length_c 15.838440
_cell_angle_alpha 90.000000
_cell_angle_beta 81.712243
_cell_angle_gamma 90.000000
_cell_volume 2415.774067
_symmetry_space_group_name_H-M "C 2/C"
_symmetry_group_IT_number 15
_symmetry_cell_setting 'monoclinic'
loop_
_space_group_symop_operation_xyz
x,y,z
-x,y,1/2-z
-x,-y,-z
x,-y,1/2+z
1/2+x,1/2+y,z
1/2-x,1/2+y,1/2-z
1/2-x,1/2-y,-z
1/2+x,1/2-y,1/2+z
loop_
_atom_site_type_symbol
_atom_site_label
_atom_site_fract_x
_atom_site_fract_y
_atom_site_fract_z
Si Si1 0.874108 0.653921 0.516190
Si Si2 0.399967 0.062841 0.684026
Si Si3 0.144950 0.881851 0.609932
Si Si4 0.226072 0.934410 0.951653
Si Si5 0.500000 0.316934 0.750000
Si Si6 0.533010 0.665121 0.978660
Si Si7 0.244053 0.835357 0.303940
Si Si8 0.422231 0.736332 0.713897
O O1 0.889291 0.538468 0.586543
O O2 0.820698 0.589336 0.450541
O O3 0.957811 0.727407 0.483467
O O4 0.818423 0.783984 0.561738
O O5 0.456554 0.203275 0.692201
O O6 0.315983 0.100133 0.738912
O O7 0.428346 0.910657 0.715786
O O8 0.185947 0.008621 0.546238
O O9 0.215747 0.797621 0.648512
O O10 0.072222 0.900822 0.689689
O O11 0.096504 0.796684 0.542517
O O12 0.218020 0.046697 0.877540
O O13 0.500000 0.500000 0.000000
O O14 0.570738 0.676117 0.881571
O O15 0.170445 0.799633 0.252669
O O16 0.500000 0.679265 0.750000
#
# Coordination Sequence:
#
# PCOD9292954 Si02
#       8
#     8   8   8   8   4   8   8   8
#     4  11  25  42  74 104 146 190 241 303 377 428
#     4  11  25  44  69 109 148 189 245 301 373 445
#     4  11  22  45  77 104 145 196 249 305 373 441
#     4  11  24  45  72 106 142 193 247 301 365 453
#     4  10  22  44  70 110 148 192 242 316 368 440
#     4  12  25  48  73 109 151 188 253 310 364 454
#     4  11  26  46  72 106 153 187 247 312 366 449
#     4  12  28  49  76 109 149 196 252 308 374 447
#
# _framework density 24.836760999999999
#
# number of rings (size 3 to 8) (size 9 to 14) (size 15 to 20)
#    0.000    0.800    4.667    1.200    5.600    1.600 
#    3.600    0.000    0.000    0.000    0.000    0.000 
#    0.000    0.000    0.000    0.000    0.000    0.000 
#
# Total GULP energy -167834.652570 kJ/mol
# GULP energy per Si atom -5594.488419 kJ/mol
# Density = 2.478023 g / cm^3
# Si number density = 24.836761 Si / 1000 Ang^3
#
#
#
# Elastic Constant Matrix: (Units=GPa)
#
#
# Indices 1 2 3 4 5 6 
#
# 1 167.1368 36.7236 30.8476 0.0000 38.1004 0.0000
# 2 36.7236 65.5996 0.3717 0.0000 2.3659 0.0000
# 3 30.8476 0.3717 38.2729 0.0000 1.5000 0.0000
# 4 0.0000 0.0000 0.0000 20.4872 0.0000 -3.2191
# 5 38.1004 2.3659 1.5000 0.0000 39.2442 0.0000
# 6 0.0000 0.0000 0.0000 -3.2191 0.0000 21.7316
#
#
#
# Elastic Compliance Matrix: (Units=1/GPa)
#
#
# Indices 1 2 3 4 5 6 
#
# 1 0.011153 -0.005829 -0.008535 0.000000 -0.010150 0.000000
# 2 -0.005829 0.018324 0.004348 0.000000 0.004388 0.000000
# 3 -0.008535 0.004348 0.032699 0.000000 0.006774 0.000000
# 4 0.000000 0.000000 0.000000 0.049974 0.000000 0.007403
# 5 -0.010150 0.004388 0.006774 0.000000 0.034812 0.000000
# 6 0.000000 0.000000 0.000000 0.007403 0.000000 0.047113
#
#
# Mechanical properties :
#
#
# Convention : Reuss Voigt Hill
#
# Bulk Modulus (GPa) = 23.72736 45.21056 34.46896
# Shear Modulus (GPa) = 21.91485 29.83035 25.87260
#
# Velocity S-wave (km/s) = 2.97367 3.46939 3.23105
# Velocity P-wave (km/s) = 4.62216 5.85589 5.27522
#
# Compressibility (1/GPa) = 0.04214544
#
# Stress axis : x y z
#
# Youngs Moduli (GPa) = 89.66194 54.57222 30.58161
#
# Poissons Ratio (x) = 0.31811 0.26101
# Poissons Ratio (y) = 0.52266 -0.13298
# Poissons Ratio (z) = 0.76525 -0.23730
#
# Static dielectric constant tensor:
#      x y z
#    x 2.006430 0.000000 -0.032170 
#    y 0.000000 1.975020 0.000000 
#    z -0.032170 0.000000 1.968130 
# 
# From -- ./inp_files/209601.got.cif
#   From: 2010.05.17/outbox.cif.g08.bks.cpg/sg15_105_cif.got.tgz:209601.got - 2010.06.03 18:47:42.
