data_PCOD9292242
_publ_section_title
;
Structure prediction by ZEFSAII (Michael W. Deem and Ramdas Pophale) SiO2 
 PCOD9292242
Probable space group: C 2/C
;
_chemical_formula_sum "Si O2"
_cell_formula_units_Z 28
_cell_length_a 7.438248
_cell_length_b 12.105077
_cell_length_c 16.340057
_cell_angle_alpha 90.000000
_cell_angle_beta 43.598099
_cell_angle_gamma 90.000000
_cell_volume 1014.579789
_symmetry_space_group_name_H-M "C 2/C"
_symmetry_group_IT_number 15
_symmetry_cell_setting 'monoclinic'
loop_
_space_group_symop_operation_xyz
x,y,z
-x,y,1/2-z
-x,-y,-z
x,-y,1/2+z
1/2+x,1/2+y,z
1/2-x,1/2+y,1/2-z
1/2-x,1/2-y,-z
1/2+x,1/2-y,1/2+z
loop_
_atom_site_type_symbol
_atom_site_label
_atom_site_fract_x
_atom_site_fract_y
_atom_site_fract_z
Si Si1 0.310494 0.381338 0.234509
Si Si2 0.598682 0.671731 0.133443
Si Si3 0.053680 0.824912 0.985766
Si Si4 0.500000 0.926803 0.750000
O O1 0.500000 0.384040 0.250000
O O2 0.145803 0.489952 0.263979
O O3 0.097946 0.279801 0.307145
O O4 0.491509 0.368883 0.094864
O O5 0.500000 0.618899 0.250000
O O6 0.576999 0.616759 0.051477
O O7 0.897438 0.709747 0.040058
O O8 0.345869 0.845452 0.862017
#
# Coordination Sequence:
#
# PCOD9292242 Si02
#       4
#     8   8   8   4
#     4  11  24  42  68  96 135 175 219 269 332 385
#     4   9  20  44  69  97 130 173 220 274 324 389
#     4  10  22  43  68  94 137 170 221 273 323 388
#     4  12  24  44  64 100 136 174 214 278 324 390
#
# _framework density 27.597632999999998
#
# number of rings (size 3 to 8) (size 9 to 14) (size 15 to 20)
#    0.000    1.714    4.286    0.857    2.000    3.429 
#   10.286    0.000    0.000    0.000    0.000    0.000 
#    0.000    0.000    0.000    0.000    0.000    0.000 
#
# Total GULP energy -78178.354286 kJ/mol
# GULP energy per Si atom -5584.168163 kJ/mol
# Density = 2.753482 g / cm^3
# Si number density = 27.597633 Si / 1000 Ang^3
#
#
#
# Elastic Constant Matrix: (Units=GPa)
#
#
# Indices 1 2 3 4 5 6 
#
# 1 212.8066 66.3331 67.5911 -0.0014 41.7327 0.0007
# 2 66.3331 102.5054 37.7687 -0.0023 -6.1244 0.0012
# 3 67.5911 37.7687 254.3061 -0.0056 32.7852 0.0035
# 4 -0.0014 -0.0023 -0.0056 -0.7389 0.0031 -17.0218
# 5 41.7327 -6.1244 32.7852 0.0031 70.9094 -0.0018
# 6 0.0007 0.0012 0.0035 -17.0218 -0.0018 31.6631
#
#
#
# Elastic Compliance Matrix: (Units=1/GPa)
#
#
# Indices 1 2 3 4 5 6 
#
# 1 0.007225 -0.004691 -0.000663 -0.000001 -0.004351 -0.000001
# 2 -0.004691 0.013563 -0.001355 0.000000 0.004559 0.000000
# 3 -0.000663 -0.001355 0.004545 -0.000002 -0.001829 -0.000002
# 4 -0.000001 0.000000 -0.000002 -0.101116 0.000004 -0.054359
# 5 -0.004351 0.004559 -0.001829 0.000004 0.017903 0.000003
# 6 -0.000001 0.000000 -0.000002 -0.054359 0.000003 0.002360
#
#
# Mechanical properties :
#
#
# Convention : Reuss Voigt Hill
#
# Bulk Modulus (GPa) = 83.92572 101.44490 92.68531
# Shear Modulus (GPa) = -131.13176 46.89506 -42.11835
#
# Velocity S-wave (km/s) = -6.90063 4.12666 -3.91085
# Velocity P-wave (km/s) = 5.74588 7.71648 3.64204
#
# Compressibility (1/GPa) = 0.01191530
#
# Stress axis : x y z
#
# Youngs Moduli (GPa) = 138.40517 73.72917 220.00172
#
# Poissons Ratio (x) = 0.34589 0.14579
# Poissons Ratio (y) = 0.64930 0.29815
# Poissons Ratio (z) = 0.09172 0.09992
#
# Static dielectric constant tensor:
#      x y z
#    x 2.294050 0.000000 -0.101570 
#    y 0.000000 2.195610 0.000000 
#    z -0.101570 0.000000 2.183670 
# 
# From -- ./inp_files/134701.got.cif
#   From: 2010.05.17/outbox.cif.g08.bks.cpg/sg15_68_cif.got.tgz:134701.got - 2010.06.03 18:47:42.
