data_PCOD9292067
_publ_section_title
;
Structure prediction by ZEFSAII (Michael W. Deem and Ramdas Pophale) SiO2 
 PCOD9292067
Probable space group: C 2/C
;
_chemical_formula_sum "Si O2"
_cell_formula_units_Z 40
_cell_length_a 16.617703
_cell_length_b 4.799775
_cell_length_c 19.839903
_cell_angle_alpha 90.000000
_cell_angle_beta 108.899324
_cell_angle_gamma 90.000000
_cell_volume 1497.143719
_symmetry_space_group_name_H-M "C 2/C"
_symmetry_group_IT_number 15
_symmetry_cell_setting 'monoclinic'
loop_
_space_group_symop_operation_xyz
x,y,z
-x,y,1/2-z
-x,-y,-z
x,-y,1/2+z
1/2+x,1/2+y,z
1/2-x,1/2+y,1/2-z
1/2-x,1/2-y,-z
1/2+x,1/2-y,1/2+z
loop_
_atom_site_type_symbol
_atom_site_label
_atom_site_fract_x
_atom_site_fract_y
_atom_site_fract_z
Si Si1 0.936710 0.224170 0.781696
Si Si2 0.741541 0.837492 0.790929
Si Si3 0.658651 0.099160 0.470076
Si Si4 0.894431 0.579007 0.902567
Si Si5 0.946585 0.131898 0.100040
O O1 0.983865 0.736173 0.931711
O O2 0.000000 0.386823 0.750000
O O3 0.992407 0.961675 0.821471
O O4 0.849137 0.202716 0.716558
O O5 0.767817 0.656696 0.731935
O O6 0.818137 0.788619 0.862036
O O7 0.750000 0.250000 0.500000
O O8 0.638456 0.956725 0.536628
O O9 0.594187 0.350975 0.438843
O O10 0.629723 0.855661 0.410411
O O11 0.909331 0.373537 0.843666
#
# Coordination Sequence:
#
# PCOD9292067 Si02
#       5
#     8   8   8   8   8
#     4  11  26  47  74 111 148 200 248 309 374 454
#     4  10  22  43  66 102 140 186 241 296 363 437
#     4  12  29  48  75 112 145 196 255 314 376 442
#     4  11  25  47  78 104 151 197 247 309 374 450
#     4  12  25  50  73 109 150 193 249 309 378 446
#
# _framework density 26.717542000000002
#
# number of rings (size 3 to 8) (size 9 to 14) (size 15 to 20)
#    0.000    0.800    4.000    1.800    5.600    0.800 
#    3.600    0.000    0.000    0.000    0.000    0.000 
#    0.000    0.000    0.000    0.000    0.000    0.000 
#
# Total GULP energy -111831.976263 kJ/mol
# GULP energy per Si atom -5591.598813 kJ/mol
# Density = 2.665673 g / cm^3
# Si number density = 26.717542 Si / 1000 Ang^3
#
#
#
# Elastic Constant Matrix: (Units=GPa)
#
#
# Indices 1 2 3 4 5 6 
#
# 1 143.4300 27.5535 58.5294 -0.0001 31.1796 0.0002
# 2 27.5535 121.8016 25.4443 -0.0003 8.1730 0.0005
# 3 58.5294 25.4443 75.9103 -0.0001 11.8803 0.0002
# 4 -0.0001 -0.0003 -0.0001 40.1605 0.0000 11.8206
# 5 31.1796 8.1730 11.8803 0.0000 59.8957 0.0000
# 6 0.0002 0.0005 0.0002 11.8206 0.0000 25.9921
#
#
#
# Elastic Compliance Matrix: (Units=1/GPa)
#
#
# Indices 1 2 3 4 5 6 
#
# 1 0.011162 -0.000627 -0.007740 0.000000 -0.004190 0.000000
# 2 -0.000627 0.008887 -0.002432 0.000000 -0.000404 0.000000
# 3 -0.007740 -0.002432 0.019892 0.000000 0.000416 0.000000
# 4 0.000000 0.000000 0.000000 0.028748 0.000000 -0.013074
# 5 -0.004190 -0.000404 0.000416 0.000000 0.018849 0.000000
# 6 0.000000 0.000000 0.000000 -0.013074 0.000000 0.044419
#
#
# Mechanical properties :
#
#
# Convention : Reuss Voigt Hill
#
# Bulk Modulus (GPa) = 54.52083 62.68847 58.60465
# Shear Modulus (GPa) = 31.31458 40.51729 35.91594
#
# Velocity S-wave (km/s) = 3.42725 3.89846 3.67042
# Velocity P-wave (km/s) = 6.00933 6.61652 6.32022
#
# Compressibility (1/GPa) = 0.01834161
#
# Stress axis : x y z
#
# Youngs Moduli (GPa) = 89.59107 112.52275 50.27221
#
# Poissons Ratio (x) = 0.07054 0.38912
# Poissons Ratio (y) = 0.05617 0.12228
# Poissons Ratio (z) = 0.69346 0.27369
#
# Static dielectric constant tensor:
#      x y z
#    x 2.120890 0.000000 -0.017930 
#    y 0.000000 2.092630 0.000000 
#    z -0.017930 0.000000 2.139930 
# 
# From -- ./inp_files/275746.got.cif
#   From: 2010.05.17/outbox.cif.g08.bks.cpg/sg15_138_cif.got.tgz:275746.got - 2010.06.03 18:47:42.
