data_PCOD9292830
_publ_section_title
;
Structure prediction by ZEFSAII (Michael W. Deem and Ramdas Pophale) SiO2 
 PCOD9292830
Probable space group: C 2/C
;
_chemical_formula_sum "Si O2"
_cell_formula_units_Z 48
_cell_length_a 10.100025
_cell_length_b 22.954883
_cell_length_c 8.922074
_cell_angle_alpha 90.000000
_cell_angle_beta 76.876392
_cell_angle_gamma 90.000000
_cell_volume 2014.512253
_symmetry_space_group_name_H-M "C 2/C"
_symmetry_group_IT_number 15
_symmetry_cell_setting 'monoclinic'
loop_
_space_group_symop_operation_xyz
x,y,z
-x,y,1/2-z
-x,-y,-z
x,-y,1/2+z
1/2+x,1/2+y,z
1/2-x,1/2+y,1/2-z
1/2-x,1/2-y,-z
1/2+x,1/2-y,1/2+z
loop_
_atom_site_type_symbol
_atom_site_label
_atom_site_fract_x
_atom_site_fract_y
_atom_site_fract_z
Si Si1 0.767372 0.816917 0.540973
Si Si2 0.876179 0.086486 0.863196
Si Si3 0.654064 0.825538 0.894295
Si Si4 0.708050 0.494779 0.866271
Si Si5 0.389517 0.048914 0.065691
Si Si6 0.054104 0.211172 0.075275
O O1 0.750000 0.750000 0.500000
O O2 0.755428 0.866767 0.418658
O O3 0.678181 0.826344 0.710513
O O4 0.926696 0.824396 0.545756
O O5 0.851637 0.036108 0.745953
O O6 0.000000 0.118943 0.750000
O O7 0.884258 0.051408 0.019451
O O8 0.574826 0.883592 0.959807
O O9 0.805538 0.823101 0.930784
O O10 0.584176 0.766106 0.962970
O O11 0.827327 0.460746 0.746998
O O12 0.771540 0.535649 0.976463
O O13 0.500000 0.000000 0.000000
O O14 0.000000 0.233543 0.250000
#
# Coordination Sequence:
#
# PCOD9292830 Si02
#       6
#     8   8   8   8   8   8
#     4  11  25  42  66 106 138 178 229 292 352 415
#     4  11  24  43  69  98 135 179 230 281 349 410
#     4  10  22  44  68  95 139 180 231 286 343 420
#     4  10  24  44  63 100 131 172 231 283 335 416
#     4  11  23  42  67  96 135 178 223 281 350 414
#     4   9  22  42  68  97 132 180 235 282 353 410
#
# _framework density 23.827107999999999
#
# number of rings (size 3 to 8) (size 9 to 14) (size 15 to 20)
#    0.000    1.667    1.667    1.000    4.667    6.667 
#    3.000    0.000    0.000    0.000    0.000    0.000 
#    0.000    0.000    0.000    0.000    0.000    0.000 
#
# Total GULP energy -134086.732965 kJ/mol
# GULP energy per Si atom -5586.947207 kJ/mol
# Density = 2.377288 g / cm^3
# Si number density = 23.827108 Si / 1000 Ang^3
#
#
#
# Elastic Constant Matrix: (Units=GPa)
#
#
# Indices 1 2 3 4 5 6 
#
# 1 56.2026 17.0290 23.8701 0.0000 -15.3309 0.0000
# 2 17.0290 154.3634 66.9967 0.0000 -11.2285 0.0000
# 3 23.8701 66.9967 158.3925 0.0000 -22.8634 0.0000
# 4 0.0000 0.0000 0.0000 45.0755 0.0000 -12.8313
# 5 -15.3309 -11.2285 -22.8634 0.0000 30.6576 0.0000
# 6 0.0000 0.0000 0.0000 -12.8313 0.0000 16.8569
#
#
#
# Elastic Compliance Matrix: (Units=1/GPa)
#
#
# Indices 1 2 3 4 5 6 
#
# 1 0.021217 -0.001054 -0.001430 0.000000 0.009158 0.000000
# 2 -0.001054 0.007993 -0.003222 0.000000 -0.000003 0.000000
# 3 -0.001430 -0.003222 0.008537 0.000000 0.004472 0.000000
# 4 0.000000 0.000000 0.000000 0.028322 0.000000 0.021558
# 5 0.009158 -0.000003 0.004472 0.000000 0.040532 0.000000
# 6 0.000000 0.000000 0.000000 0.021558 0.000000 0.075733
#
#
# Mechanical properties :
#
#
# Convention : Reuss Voigt Hill
#
# Bulk Modulus (GPa) = 37.97168 64.97225 51.47196
# Shear Modulus (GPa) = 24.68832 35.92218 30.30525
#
# Velocity S-wave (km/s) = 3.22241 3.88702 3.57021
# Velocity P-wave (km/s) = 5.46042 6.89004 6.21646
#
# Compressibility (1/GPa) = 0.02633542
#
# Stress axis : x y z
#
# Youngs Moduli (GPa) = 47.13101 125.11162 117.13204
#
# Poissons Ratio (x) = 0.13186 0.16748
# Poissons Ratio (y) = 0.04967 0.37744
# Poissons Ratio (z) = 0.06739 0.40316
#
# Static dielectric constant tensor:
#      x y z
#    x 2.202680 0.000000 -0.000120 
#    y 0.000000 1.989480 0.000000 
#    z -0.000120 0.000000 1.875910 
# 
# From -- ./inp_files/32540.got.cif
#   From: 2010.05.17/outbox.cif.g08.bks.cpg/sg15_17_cif.got.tgz:32540.got - 2010.06.03 18:47:42.
