data_PCOD9292864
_publ_section_title
;
Structure prediction by ZEFSAII (Michael W. Deem and Ramdas Pophale) SiO2 
 PCOD9292864
Probable space group: C 2/C
;
_chemical_formula_sum "Si O2"
_cell_formula_units_Z 44
_cell_length_a 17.966912
_cell_length_b 4.856978
_cell_length_c 20.679798
_cell_angle_alpha 90.000000
_cell_angle_beta 65.840243
_cell_angle_gamma 90.000000
_cell_volume 1646.549773
_symmetry_space_group_name_H-M "C 2/C"
_symmetry_group_IT_number 15
_symmetry_cell_setting 'monoclinic'
loop_
_space_group_symop_operation_xyz
x,y,z
-x,y,1/2-z
-x,-y,-z
x,-y,1/2+z
1/2+x,1/2+y,z
1/2-x,1/2+y,1/2-z
1/2-x,1/2-y,-z
1/2+x,1/2-y,1/2+z
loop_
_atom_site_type_symbol
_atom_site_label
_atom_site_fract_x
_atom_site_fract_y
_atom_site_fract_z
Si Si1 0.108638 0.286305 0.032249
Si Si2 0.000000 0.075254 0.250000
Si Si3 0.661230 0.465944 0.133953
Si Si4 0.068046 0.176541 0.356713
Si Si5 0.702434 0.637673 0.757301
Si Si6 0.829087 0.213790 0.060489
O O1 0.014882 0.197855 0.073596
O O2 0.151335 0.199703 0.083999
O O3 0.121828 0.600682 0.008801
O O4 0.149282 0.100319 0.962259
O O5 0.067684 0.895432 0.187157
O O6 0.040941 0.256327 0.293039
O O7 0.694562 0.529489 0.193031
O O8 0.733510 0.268005 0.085039
O O9 0.115141 0.889603 0.323184
O O10 0.134993 0.300512 0.382228
O O11 0.730583 0.943578 0.732699
#
# Coordination Sequence:
#
# PCOD9292864 Si02
#       6
#     8   4   8   8   8   8
#     4  11  26  43  67 102 140 184 227 284 347 410
#     4   8  20  44  72 102 140 184 228 308 348 410
#     4  10  22  44  69 101 139 180 236 285 352 409
#     4  10  22  44  69 101 139 180 236 285 352 409
#     4  11  24  41  68  97 129 176 230 289 334 401
#     4  12  24  42  71 101 139 184 231 282 339 426
#
# _framework density 26.722546000000001
#
# number of rings (size 3 to 8) (size 9 to 14) (size 15 to 20)
#    0.000    1.455    1.818    2.182    2.545    2.909 
#    0.000    0.000    0.000   19.636    0.000    0.000 
#    0.000    0.000    0.000    0.000    0.000    0.000 
#
# Total GULP energy -122725.537231 kJ/mol
# GULP energy per Si atom -5578.433510 kJ/mol
# Density = 2.666172 g / cm^3
# Si number density = 26.722546 Si / 1000 Ang^3
#
#
#
# Elastic Constant Matrix: (Units=GPa)
#
#
# Indices 1 2 3 4 5 6 
#
# 1 149.2822 27.8637 41.2676 0.0201 -17.1113 -0.0021
# 2 27.8637 70.3459 -4.3414 0.0420 -3.3084 0.0169
# 3 41.2676 -4.3414 95.7137 0.0171 -12.1769 -0.0079
# 4 0.0201 0.0420 0.0171 16.5453 0.0278 5.2129
# 5 -17.1113 -3.3084 -12.1769 0.0278 64.4610 -0.0070
# 6 -0.0021 0.0169 -0.0079 5.2129 -0.0070 21.4526
#
#
#
# Elastic Compliance Matrix: (Units=1/GPa)
#
#
# Indices 1 2 3 4 5 6 
#
# 1 0.008531 -0.003540 -0.003662 -0.000001 0.001391 0.000003
# 2 -0.003540 0.015772 0.002280 -0.000038 0.000301 -0.000003
# 3 -0.003662 0.002280 0.012317 -0.000019 0.001472 0.000007
# 4 -0.000001 -0.000038 -0.000019 0.065451 -0.000036 -0.015904
# 5 0.001391 0.000301 0.001472 -0.000036 0.016176 0.000014
# 6 0.000003 -0.000003 0.000007 -0.015904 0.000014 0.050479
#
#
# Mechanical properties :
#
#
# Convention : Reuss Voigt Hill
#
# Bulk Modulus (GPa) = 37.34490 49.43575 43.39032
# Shear Modulus (GPa) = 26.66716 37.19523 31.93120
#
# Velocity S-wave (km/s) = 3.16243 3.73487 3.46051
# Velocity P-wave (km/s) = 5.22876 6.09416 5.67797
#
# Compressibility (1/GPa) = 0.02677742
#
# Stress axis : x y z
#
# Youngs Moduli (GPa) = 117.21738 63.40189 81.18661
#
# Poissons Ratio (x) = 0.22442 0.29729
# Poissons Ratio (y) = 0.41492 -0.18509
# Poissons Ratio (z) = 0.42923 -0.14455
#
# Static dielectric constant tensor:
#      x y z
#    x 2.149880 -0.000020 0.005000 
#    y -0.000020 2.070560 -0.000030 
#    z 0.005000 -0.000030 2.153400 
# 
# From -- ./inp_files/246422.got.cif
#   From: 2010.05.17/outbox.cif.g08.bks.cpg/sg15_124_cif.got.tgz:246422.got - 2010.06.03 18:47:42.
