data_PCOD9292965
_publ_section_title
;
Structure prediction by ZEFSAII (Michael W. Deem and Ramdas Pophale) SiO2 
 PCOD9292965
Probable space group: C 2/C
;
_chemical_formula_sum "Si O2"
_cell_formula_units_Z 40
_cell_length_a 19.792618
_cell_length_b 12.402142
_cell_length_c 8.415646
_cell_angle_alpha 90.000000
_cell_angle_beta 119.014503
_cell_angle_gamma 90.000000
_cell_volume 1806.532196
_symmetry_space_group_name_H-M "C 2/C"
_symmetry_group_IT_number 15
_symmetry_cell_setting 'monoclinic'
loop_
_space_group_symop_operation_xyz
x,y,z
-x,y,1/2-z
-x,-y,-z
x,-y,1/2+z
1/2+x,1/2+y,z
1/2-x,1/2+y,1/2-z
1/2-x,1/2-y,-z
1/2+x,1/2-y,1/2+z
loop_
_atom_site_type_symbol
_atom_site_label
_atom_site_fract_x
_atom_site_fract_y
_atom_site_fract_z
Si Si1 0.037965 0.327589 0.464287
Si Si2 0.686955 0.660690 0.989363
Si Si3 0.170309 0.545517 0.264113
Si Si4 0.455574 0.399936 0.365960
Si Si5 0.110028 0.640201 0.526016
O O1 0.119464 0.385685 0.581240
O O2 0.042478 0.201757 0.513457
O O3 0.000000 0.343816 0.250000
O O4 0.978634 0.373932 0.528375
O O5 0.740296 0.575924 0.139400
O O6 0.631849 0.734742 0.034679
O O7 0.750000 0.750000 0.000000
O O8 0.634235 0.601726 0.797108
O O9 0.134844 0.583610 0.391109
O O10 0.157655 0.420896 0.215283
O O11 0.500000 0.381246 0.250000
O O12 0.500000 0.500000 0.500000
#
# Coordination Sequence:
#
# PCOD9292965 Si02
#       5
#     8   8   8   8   8
#     4  12  23  43  67 100 134 175 231 283 333 407
#     4  10  22  44  70  93 143 175 222 283 347 400
#     4  11  23  42  70  97 133 183 223 280 348 406
#     4  12  24  45  71 100 135 180 226 281 346 415
#     4  11  22  43  67  99 135 176 227 281 340 405
#
# _framework density 22.141870000000001
#
# number of rings (size 3 to 8) (size 9 to 14) (size 15 to 20)
#    0.000    0.800    6.000    3.000    0.000    3.200 
#    3.600    2.000    0.000    0.000    0.000    0.000 
#    0.000    0.000    0.000    0.000    0.000    0.000 
#
# Total GULP energy -111656.267267 kJ/mol
# GULP energy per Si atom -5582.813363 kJ/mol
# Density = 2.209147 g / cm^3
# Si number density = 22.141870 Si / 1000 Ang^3
#
#
#
# Elastic Constant Matrix: (Units=GPa)
#
#
# Indices 1 2 3 4 5 6 
#
# 1 55.1521 23.1544 62.5123 0.0000 12.2953 0.0000
# 2 23.1544 103.0591 48.3310 0.0000 19.4456 0.0000
# 3 62.5123 48.3310 144.0417 0.0000 21.9050 0.0000
# 4 0.0000 0.0000 0.0000 53.0009 0.0000 1.9908
# 5 12.2953 19.4456 21.9050 0.0000 41.1802 0.0000
# 6 0.0000 0.0000 0.0000 1.9908 0.0000 24.1286
#
#
#
# Elastic Compliance Matrix: (Units=1/GPa)
#
#
# Indices 1 2 3 4 5 6 
#
# 1 0.035975 -0.000558 -0.015049 0.000000 -0.002472 0.000000
# 2 -0.000558 0.012060 -0.003224 0.000000 -0.003813 0.000000
# 3 -0.015049 -0.003224 0.014841 0.000000 -0.001879 0.000000
# 4 0.000000 0.000000 0.000000 0.018926 0.000000 -0.001562
# 5 -0.002472 -0.003813 -0.001879 0.000000 0.027821 0.000000
# 6 0.000000 0.000000 0.000000 -0.001562 0.000000 0.041573
#
#
# Mechanical properties :
#
#
# Convention : Reuss Voigt Hill
#
# Bulk Modulus (GPa) = 39.66352 63.36093 51.51223
# Shear Modulus (GPa) = 25.34643 34.87895 30.11269
#
# Velocity S-wave (km/s) = 3.38705 3.97325 3.69180
# Velocity P-wave (km/s) = 5.76615 7.05173 6.44109
#
# Compressibility (1/GPa) = 0.02521208
#
# Stress axis : x y z
#
# Youngs Moduli (GPa) = 27.79697 82.91716 67.37958
#
# Poissons Ratio (x) = 0.04631 1.01402
# Poissons Ratio (y) = 0.01552 0.21726
# Poissons Ratio (z) = 0.41833 0.26736
#
# Static dielectric constant tensor:
#      x y z
#    x 1.862450 0.000000 0.026740 
#    y 0.000000 1.858560 0.000000 
#    z 0.026740 0.000000 1.874260 
# 
# From -- ./inp_files/54052.got.cif
#   From: 2010.05.17/outbox.cif.g08.bks.cpg/sg15_28_cif.got.tgz:54052.got - 2010.06.03 18:47:42.
