data_PCOD9292554
_publ_section_title
;
Structure prediction by ZEFSAII (Michael W. Deem and Ramdas Pophale) SiO2 
 PCOD9292554
Probable space group: C 2/C
;
_chemical_formula_sum "Si O2"
_cell_formula_units_Z 60
_cell_length_a 9.091353
_cell_length_b 17.380244
_cell_length_c 19.994082
_cell_angle_alpha 90.000000
_cell_angle_beta 102.399780
_cell_angle_gamma 90.000000
_cell_volume 3085.567750
_symmetry_space_group_name_H-M "C 2/C"
_symmetry_group_IT_number 15
_symmetry_cell_setting 'monoclinic'
loop_
_space_group_symop_operation_xyz
x,y,z
-x,y,1/2-z
-x,-y,-z
x,-y,1/2+z
1/2+x,1/2+y,z
1/2-x,1/2+y,1/2-z
1/2-x,1/2-y,-z
1/2+x,1/2-y,1/2+z
loop_
_atom_site_type_symbol
_atom_site_label
_atom_site_fract_x
_atom_site_fract_y
_atom_site_fract_z
Si Si1 0.998316 0.024463 0.351760
Si Si2 0.432755 0.170278 0.316154
Si Si3 0.004712 0.815715 0.585127
Si Si4 0.289232 0.213004 0.635351
Si Si5 0.733067 0.991839 0.723441
Si Si6 0.000000 0.383518 0.250000
Si Si7 0.507377 0.617947 0.564302
Si Si8 0.692181 0.750649 0.917352
O O1 0.139262 0.998341 0.320482
O O2 0.837264 0.015371 0.299754
O O3 0.002879 0.970757 0.417456
O O4 0.014757 0.114733 0.365685
O O5 0.500000 0.191511 0.250000
O O6 0.299869 0.226566 0.326788
O O7 0.566389 0.186077 0.383602
O O8 0.365217 0.084475 0.302443
O O9 0.866161 0.758584 0.581889
O O10 0.015257 0.857214 0.514355
O O11 0.159503 0.769132 0.610415
O O12 0.415452 0.170263 0.689550
O O13 0.170146 0.150437 0.599429
O O14 0.619755 0.061795 0.724102
O O15 0.389621 0.668452 0.596975
O O16 0.750000 0.750000 0.000000
#
# Coordination Sequence:
#
# PCOD9292554 Si02
#       8
#     8   8   8   8   8   4   8   8
#     4  11  23  41  64  91 125 170 214 254 324 379
#     4  11  22  40  66  93 128 167 218 260 328 384
#     4  11  22  40  68  90 125 163 216 262 307 387
#     4  11  25  39  63  96 121 164 209 263 318 376
#     4  11  24  41  61  90 130 167 204 271 317 387
#     4  12  26  40  62  92 134 156 210 262 328 370
#     4  10  22  44  62  92 127 168 209 259 321 375
#     4   9  22  40  64  91 130 169 211 260 323 382
#
# _framework density 19.445367999999998
#
# number of rings (size 3 to 8) (size 9 to 14) (size 15 to 20)
#    0.000    1.333    3.333    1.600    5.600    1.067 
#    0.000    0.000    0.000    2.400    0.000    0.000 
#    0.000    0.000    0.000    0.000    0.000    0.000 
#
# Total GULP energy -167369.696361 kJ/mol
# GULP energy per Si atom -5578.989879 kJ/mol
# Density = 1.940111 g / cm^3
# Si number density = 19.445368 Si / 1000 Ang^3
#
#
#
# Elastic Constant Matrix: (Units=GPa)
#
#
# Indices 1 2 3 4 5 6 
#
# 1 97.8859 36.4476 32.3033 0.0000 5.9529 0.0000
# 2 36.4476 58.6394 15.9364 0.0000 1.1248 0.0000
# 3 32.3033 15.9364 59.6987 0.0000 14.5508 0.0000
# 4 0.0000 0.0000 0.0000 28.8286 0.0000 -3.9073
# 5 5.9529 1.1248 14.5508 0.0000 29.3470 0.0000
# 6 0.0000 0.0000 0.0000 -3.9073 0.0000 32.2219
#
#
#
# Elastic Compliance Matrix: (Units=1/GPa)
#
#
# Indices 1 2 3 4 5 6 
#
# 1 0.015115 -0.007718 -0.006191 0.000000 0.000300 0.000000
# 2 -0.007718 0.022428 -0.002256 0.000000 0.001824 0.000000
# 3 -0.006191 -0.002256 0.023177 0.000000 -0.010149 0.000000
# 4 0.000000 0.000000 0.000000 0.035267 0.000000 0.004277
# 5 0.000300 0.001824 -0.010149 0.000000 0.038977 0.000000
# 6 0.000000 0.000000 0.000000 0.004277 0.000000 0.031553
#
#
# Mechanical properties :
#
#
# Convention : Reuss Voigt Hill
#
# Bulk Modulus (GPa) = 35.22347 42.84430 39.03388
# Shear Modulus (GPa) = 24.00261 26.84860 25.42561
#
# Velocity S-wave (km/s) = 3.51716 3.71983 3.61992
# Velocity P-wave (km/s) = 5.88619 6.36636 6.13098
#
# Compressibility (1/GPa) = 0.02839016
#
# Stress axis : x y z
#
# Youngs Moduli (GPa) = 66.16085 44.58632 43.14636
#
# Poissons Ratio (x) = 0.34410 0.26714
# Poissons Ratio (y) = 0.51061 0.09733
# Poissons Ratio (z) = 0.40963 0.10058
#
# Static dielectric constant tensor:
#      x y z
#    x 1.674890 0.000000 -0.011610 
#    y 0.000000 1.649580 0.000000 
#    z -0.011610 0.000000 1.709730 
# 
# From -- ./inp_files/232745.got.cif
#   From: 2010.05.17/outbox.cif.g08.bks.cpg/sg15_117_cif.got.tgz:232745.got - 2010.06.03 18:47:42.
