data_PCOD9292697
_publ_section_title
;
Structure prediction by ZEFSAII (Michael W. Deem and Ramdas Pophale) SiO2 
 PCOD9292697
Probable space group: C 2/C
;
_chemical_formula_sum "Si O2"
_cell_formula_units_Z 44
_cell_length_a 20.792474
_cell_length_b 8.824490
_cell_length_c 20.410594
_cell_angle_alpha 90.000000
_cell_angle_beta 26.247411
_cell_angle_gamma 90.000000
_cell_volume 1656.217862
_symmetry_space_group_name_H-M "C 2/C"
_symmetry_group_IT_number 15
_symmetry_cell_setting 'monoclinic'
loop_
_space_group_symop_operation_xyz
x,y,z
-x,y,1/2-z
-x,-y,-z
x,-y,1/2+z
1/2+x,1/2+y,z
1/2-x,1/2+y,1/2-z
1/2-x,1/2-y,-z
1/2+x,1/2-y,1/2+z
loop_
_atom_site_type_symbol
_atom_site_label
_atom_site_fract_x
_atom_site_fract_y
_atom_site_fract_z
Si Si1 0.128817 0.856418 0.433813
Si Si2 0.236478 0.637024 0.451982
Si Si3 0.327076 0.338956 0.528273
Si Si4 0.489490 0.074519 0.157799
Si Si5 0.500000 0.548522 0.750000
Si Si6 0.598326 0.127321 0.876135
O O1 0.190694 0.727697 0.428385
O O2 0.228730 0.863102 0.277220
O O3 0.973395 0.790560 0.556499
O O4 0.125149 0.015453 0.473884
O O5 0.250000 0.750000 0.500000
O O6 0.111928 0.515582 0.586180
O O7 0.391530 0.554387 0.305523
O O8 0.407298 0.186974 0.478895
O O9 0.395078 0.360357 0.394164
O O10 0.151798 0.335251 0.687918
O O11 0.414972 0.938919 0.185835
O O12 0.500000 0.000000 0.000000
#
# Coordination Sequence:
#
# PCOD9292697 Si02
#       6
#     8   8   8   8   4   8
#     4  10  22  44  66  96 133 166 220 273 325 400
#     4  11  23  40  65  94 130 176 219 265 328 404
#     4  11  23  42  61  92 134 172 215 274 324 388
#     4  10  25  43  62  94 135 167 221 279 329 391
#     4  12  24  36  64  92 124 178 222 246 334 382
#     4  10  23  44  69  97 127 170 221 275 334 392
#
# _framework density 26.566554
#
# number of rings (size 3 to 8) (size 9 to 14) (size 15 to 20)
#    0.000    1.455    1.818    2.182    5.091    8.000 
#    0.000    1.818    0.000    0.000    0.000    0.000 
#    0.000    0.000    0.000    0.000    0.000    0.000 
#
# Total GULP energy -123102.084352 kJ/mol
# GULP energy per Si atom -5595.549289 kJ/mol
# Density = 2.650609 g / cm^3
# Si number density = 26.566554 Si / 1000 Ang^3
#
#
#
# Elastic Constant Matrix: (Units=GPa)
#
#
# Indices 1 2 3 4 5 6 
#
# 1 46.4888 13.3402 10.1075 -0.0001 -7.8108 0.0000
# 2 13.3402 127.7863 63.7033 -0.0008 -18.9510 0.0002
# 3 10.1075 63.7033 202.4415 -0.0011 -3.4198 0.0003
# 4 -0.0001 -0.0008 -0.0011 58.9699 0.0003 -7.2453
# 5 -7.8108 -18.9510 -3.4198 0.0003 30.2374 0.0000
# 6 0.0000 0.0002 0.0003 -7.2453 0.0000 50.9913
#
#
#
# Elastic Compliance Matrix: (Units=1/GPa)
#
#
# Indices 1 2 3 4 5 6 
#
# 1 0.022871 -0.001326 -0.000640 0.000000 0.005004 0.000000
# 2 -0.001326 0.010370 -0.003099 0.000000 0.005806 0.000000
# 3 -0.000640 -0.003099 0.005922 0.000000 -0.001438 0.000000
# 4 0.000000 0.000000 0.000000 0.017259 0.000000 0.002452
# 5 0.005004 0.005806 -0.001438 0.000000 0.037841 0.000000
# 6 0.000000 0.000000 0.000000 0.002452 0.000000 0.019960
#
#
# Mechanical properties :
#
#
# Convention : Reuss Voigt Hill
#
# Bulk Modulus (GPa) = 34.44359 61.22428 47.83394
# Shear Modulus (GPa) = 37.30481 47.34411 42.32446
#
# Velocity S-wave (km/s) = 3.75133 4.22607 3.99576
# Velocity P-wave (km/s) = 5.63529 6.84898 6.27156
#
# Compressibility (1/GPa) = 0.02903298
#
# Stress axis : x y z
#
# Youngs Moduli (GPa) = 43.72333 96.43276 168.84776
#
# Poissons Ratio (x) = 0.12791 0.10806
# Poissons Ratio (y) = 0.05800 0.52323
# Poissons Ratio (z) = 0.02798 0.29883
#
# Static dielectric constant tensor:
#      x y z
#    x 2.244490 0.000000 0.081830 
#    y 0.000000 2.051410 0.000000 
#    z 0.081830 0.000000 2.147470 
# 
# From -- ./inp_files/303151.got.cif
#   From: 2010.05.17/outbox.cif.g08.bks.cpg/sg15_152_cif.got.tgz:303151.got - 2010.06.03 18:47:42.
