data_PCOD9292542
_publ_section_title
;
Structure prediction by ZEFSAII (Michael W. Deem and Ramdas Pophale) SiO2 
 PCOD9292542
Probable space group: C 2/C
;
_chemical_formula_sum "Si O2"
_cell_formula_units_Z 48
_cell_length_a 17.358599
_cell_length_b 16.347285
_cell_length_c 23.411849
_cell_angle_alpha 90.000000
_cell_angle_beta 158.031212
_cell_angle_gamma 90.000000
_cell_volume 2485.337734
_symmetry_space_group_name_H-M "C 2/C"
_symmetry_group_IT_number 15
_symmetry_cell_setting 'monoclinic'
loop_
_space_group_symop_operation_xyz
x,y,z
-x,y,1/2-z
-x,-y,-z
x,-y,1/2+z
1/2+x,1/2+y,z
1/2-x,1/2+y,1/2-z
1/2-x,1/2-y,-z
1/2+x,1/2-y,1/2+z
loop_
_atom_site_type_symbol
_atom_site_label
_atom_site_fract_x
_atom_site_fract_y
_atom_site_fract_z
Si Si1 0.410973 0.311820 0.133385
Si Si2 0.430078 0.041886 0.892753
Si Si3 0.756225 0.791588 0.231306
Si Si4 0.309963 0.495340 0.078783
Si Si5 0.469440 0.644353 0.481656
Si Si6 0.447787 0.496999 0.544284
O O1 0.500000 0.269987 0.250000
O O2 0.586999 0.325372 0.208549
O O3 0.314092 0.397029 0.085031
O O4 0.250000 0.250000 0.000000
O O5 0.421074 0.140281 0.890487
O O6 0.196353 0.011605 0.719586
O O7 0.500000 0.000000 0.000000
O O8 0.593526 0.022095 0.955912
O O9 0.679432 0.703597 0.156838
O O10 0.878816 0.799327 0.375472
O O11 0.500000 0.524221 0.250000
O O12 0.355687 0.514475 0.043982
O O13 0.368307 0.578876 0.456731
O O14 0.583928 0.582939 0.516605
#
# Coordination Sequence:
#
# PCOD9292542 Si02
#       6
#     8   8   8   8   8   8
#     4  11  22  36  55  91 132 161 210 269 325 393
#     4  11  21  38  67  93 127 175 214 261 331 390
#     4  11  23  42  61  98 127 171 225 267 333 387
#     4  11  21  39  63  95 132 170 218 269 319 406
#     4  10  23  41  67  89 136 174 217 278 323 391
#     4  10  22  44  60  96 134 175 222 267 326 399
#
# _framework density 19.313271
#
# number of rings (size 3 to 8) (size 9 to 14) (size 15 to 20)
#    0.000    1.333    5.000    2.000    4.667    0.000 
#    0.000    8.333    0.000    0.000    0.000    0.000 
#    0.000    0.000    0.000    0.000    0.000    0.000 
#
# Total GULP energy -133899.057629 kJ/mol
# GULP energy per Si atom -5579.127401 kJ/mol
# Density = 1.926931 g / cm^3
# Si number density = 19.313271 Si / 1000 Ang^3
#
#
#
# Elastic Constant Matrix: (Units=GPa)
#
#
# Indices 1 2 3 4 5 6 
#
# 1 159.2300 42.6627 51.2924 -0.0168 -1.7343 -0.0130
# 2 42.6627 89.3026 39.2199 -0.0176 -1.3910 -0.0232
# 3 51.2924 39.2199 66.4785 -0.0101 -7.9773 -0.0109
# 4 -0.0168 -0.0176 -0.0101 27.2939 -0.0049 -29.2280
# 5 -1.7343 -1.3910 -7.9773 -0.0049 45.0904 -0.0050
# 6 -0.0130 -0.0232 -0.0109 -29.2280 -0.0050 -5.2569
#
#
#
# Elastic Compliance Matrix: (Units=1/GPa)
#
#
# Indices 1 2 3 4 5 6 
#
# 1 0.008547 -0.001565 -0.005760 0.000000 -0.000739 -0.000002
# 2 -0.001565 0.015458 -0.008032 -0.000006 -0.001004 -0.000011
# 3 -0.005760 -0.008032 0.024693 -0.000001 0.003899 -0.000002
# 4 0.000000 -0.000006 -0.000001 0.005269 -0.000003 -0.029294
# 5 -0.000739 -0.001004 0.003899 -0.000003 0.022808 -0.000007
# 6 -0.000002 -0.000011 -0.000002 -0.029294 -0.000007 -0.027355
#
#
# Mechanical properties :
#
#
# Convention : Reuss Voigt Hill
#
# Bulk Modulus (GPa) = 55.60730 64.59566 60.10148
# Shear Modulus (GPa) = 58.05308 25.54789 41.80048
#
# Velocity S-wave (km/s) = 5.48852 3.64100 4.65729
# Velocity P-wave (km/s) = 8.30783 7.15505 7.75289
#
# Compressibility (1/GPa) = 0.01798325
#
# Stress axis : x y z
#
# Youngs Moduli (GPa) = 117.00174 64.69319 40.49697
#
# Poissons Ratio (x) = 0.10125 0.23325
# Poissons Ratio (y) = 0.18311 0.32529
# Poissons Ratio (z) = 0.67390 0.51964
#
# Static dielectric constant tensor:
#      x y z
#    x 1.630340 0.000010 -0.039890 
#    y 0.000010 1.669440 -0.000010 
#    z -0.039890 -0.000010 1.712050 
# 
# From -- ./inp_files/277892.got.cif
#   From: 2010.05.17/outbox.cif.g08.bks.cpg/sg15_139_cif.got.tgz:277892.got - 2010.06.03 18:47:42.
