data_PCOD9292619
_publ_section_title
;
Structure prediction by ZEFSAII (Michael W. Deem and Ramdas Pophale) SiO2 
 PCOD9292619
Probable space group: C 2/C
;
_chemical_formula_sum "Si O2"
_cell_formula_units_Z 40
_cell_length_a 18.691710
_cell_length_b 6.954492
_cell_length_c 18.809560
_cell_angle_alpha 90.000000
_cell_angle_beta 50.235478
_cell_angle_gamma 90.000000
_cell_volume 1879.483493
_symmetry_space_group_name_H-M "C 2/C"
_symmetry_group_IT_number 15
_symmetry_cell_setting 'monoclinic'
loop_
_space_group_symop_operation_xyz
x,y,z
-x,y,1/2-z
-x,-y,-z
x,-y,1/2+z
1/2+x,1/2+y,z
1/2-x,1/2+y,1/2-z
1/2-x,1/2-y,-z
1/2+x,1/2-y,1/2+z
loop_
_atom_site_type_symbol
_atom_site_label
_atom_site_fract_x
_atom_site_fract_y
_atom_site_fract_z
Si Si1 0.958534 0.781610 0.148152
Si Si2 0.670245 0.599887 0.530135
Si Si3 0.843474 0.036940 0.122288
Si Si4 0.395317 0.594041 0.295718
Si Si5 0.149932 0.605109 0.796074
O O1 0.923299 0.566148 0.162899
O O2 0.067856 0.801623 0.092706
O O3 0.925493 0.902071 0.099868
O O4 0.906867 0.892073 0.245926
O O5 0.750000 0.750000 0.500000
O O6 0.680834 0.514819 0.444594
O O7 0.663503 0.441785 0.596437
O O8 0.864670 0.259591 0.126373
O O9 0.752304 0.985021 0.226593
O O10 0.500000 0.651736 0.250000
O O11 0.358552 0.751951 0.265229
#
# Coordination Sequence:
#
# PCOD9292619 Si02
#       5
#     8   8   8   8   8
#     4  10  22  44  65  90 131 174 215 264 323 395
#     4  11  24  40  65  99 135 166 214 276 328 382
#     4  11  23  40  66  95 130 171 217 268 322 389
#     4   9  22  42  63  92 127 166 213 267 326 382
#     4  11  22  40  69  89 123 177 218 256 323 390
#
# _framework density 21.282443000000001
#
# number of rings (size 3 to 8) (size 9 to 14) (size 15 to 20)
#    0.000    1.600    2.000    1.800    2.800    5.600 
#    0.000    6.000    0.000    0.000    0.000    0.000 
#    0.000    0.000    0.000    0.000    0.000    0.000 
#
# Total GULP energy -111827.927691 kJ/mol
# GULP energy per Si atom -5591.396385 kJ/mol
# Density = 2.123400 g / cm^3
# Si number density = 21.282443 Si / 1000 Ang^3
#
#
#
# Elastic Constant Matrix: (Units=GPa)
#
#
# Indices 1 2 3 4 5 6 
#
# 1 69.6667 -0.3253 11.4525 -0.0002 10.9882 0.0001
# 2 -0.3253 79.3161 13.4328 -0.0007 1.4823 0.0004
# 3 11.4525 13.4328 68.0997 -0.0003 21.1364 0.0005
# 4 -0.0002 -0.0007 -0.0003 9.5619 0.0001 -7.4639
# 5 10.9882 1.4823 21.1364 0.0001 43.3085 -0.0002
# 6 0.0001 0.0004 0.0005 -7.4639 -0.0002 25.9245
#
#
#
# Elastic Compliance Matrix: (Units=1/GPa)
#
#
# Indices 1 2 3 4 5 6 
#
# 1 0.015110 0.000403 -0.001681 0.000000 -0.003027 0.000000
# 2 0.000403 0.013088 -0.002921 0.000001 0.000875 0.000000
# 3 -0.001681 -0.002921 0.018125 0.000000 -0.008319 0.000000
# 4 0.000000 0.000001 0.000000 0.134898 0.000000 0.038838
# 5 -0.003027 0.000875 -0.008319 0.000000 0.027888 0.000000
# 6 0.000000 0.000000 0.000000 0.038838 0.000000 0.049755
#
#
# Mechanical properties :
#
#
# Convention : Reuss Voigt Hill
#
# Bulk Modulus (GPa) = 26.36779 29.57805 27.97292
# Shear Modulus (GPa) = 17.86327 28.59382 23.22854
#
# Velocity S-wave (km/s) = 2.90028 3.66941 3.30728
# Velocity P-wave (km/s) = 4.86126 5.64631 5.26843
#
# Compressibility (1/GPa) = 0.03792506
#
# Stress axis : x y z
#
# Youngs Moduli (GPa) = 66.18252 76.40709 55.17121
#
# Poissons Ratio (x) = -0.03081 0.09275
# Poissons Ratio (y) = -0.02669 0.16116
# Poissons Ratio (z) = 0.11126 0.22319
#
# Static dielectric constant tensor:
#      x y z
#    x 1.758760 0.000000 0.013430 
#    y 0.000000 1.747030 0.000000 
#    z 0.013430 0.000000 1.793070 
# 
# From -- ./inp_files/250996.got.cif
#   From: 2010.05.17/outbox.cif.g08.bks.cpg/sg15_126_cif.got.tgz:250996.got - 2010.06.03 18:47:42.
