data_PCOD9292158
_publ_section_title
;
Structure prediction by ZEFSAII (Michael W. Deem and Ramdas Pophale) SiO2 
 PCOD9292158
Probable space group: C 2/C
;
_chemical_formula_sum "Si O2"
_cell_formula_units_Z 60
_cell_length_a 24.284451
_cell_length_b 12.237611
_cell_length_c 17.593709
_cell_angle_alpha 90.000000
_cell_angle_beta 146.506354
_cell_angle_gamma 90.000000
_cell_volume 2885.353717
_symmetry_space_group_name_H-M "C 2/C"
_symmetry_group_IT_number 15
_symmetry_cell_setting 'monoclinic'
loop_
_space_group_symop_operation_xyz
x,y,z
-x,y,1/2-z
-x,-y,-z
x,-y,1/2+z
1/2+x,1/2+y,z
1/2-x,1/2+y,1/2-z
1/2-x,1/2-y,-z
1/2+x,1/2-y,1/2+z
loop_
_atom_site_type_symbol
_atom_site_label
_atom_site_fract_x
_atom_site_fract_y
_atom_site_fract_z
Si Si1 0.208249 0.030888 0.785409
Si Si2 0.798896 0.591907 0.670237
Si Si3 0.881927 0.818922 0.431884
Si Si4 0.352494 0.467159 0.627441
Si Si5 0.800275 0.742712 0.972365
Si Si6 0.683660 0.895526 0.720521
Si Si7 0.449276 0.748433 0.260786
Si Si8 0.500000 0.344258 0.250000
O O1 0.120123 0.092018 0.637840
O O2 0.273451 0.127662 0.900562
O O3 0.177105 0.957565 0.819700
O O4 0.260396 0.953907 0.784492
O O5 0.717787 0.649157 0.633712
O O6 0.738907 0.526211 0.535695
O O7 0.861085 0.499264 0.786714
O O8 0.869694 0.679854 0.713575
O O9 0.878782 0.701261 0.387909
O O10 0.975123 0.809417 0.594195
O O11 0.397962 0.351383 0.658087
O O12 0.427717 0.569524 0.710144
O O13 0.754714 0.832657 0.862393
O O14 0.750000 0.750000 0.000000
O O15 0.918231 0.768400 0.114742
O O16 0.500000 0.815152 0.250000
#
# Coordination Sequence:
#
# PCOD9292158 Si02
#       8
#     8   8   8   8   8   8   8   4
#     4  10  23  41  66  96 133 172 211 280 338 384
#     4  11  22  43  66  93 133 173 212 277 326 384
#     4  10  23  44  61  94 133 165 222 271 326 394
#     4  12  22  42  69  98 126 170 222 270 329 391
#     4  11  22  45  68  99 134 173 226 277 323 395
#     4  10  22  43  67  88 138 177 212 273 340 385
#     4  12  25  38  66  98 129 171 223 266 320 396
#     4  12  22  40  76  92 128 172 230 272 314 398
#
# _framework density 20.794677
#
# number of rings (size 3 to 8) (size 9 to 14) (size 15 to 20)
#    0.000    1.067    4.667    1.200    3.733    1.067 
#    7.200    2.667    0.000    0.000    0.000    0.000 
#    0.000    0.000    0.000    0.000    0.000    0.000 
#
# Total GULP energy -167206.190898 kJ/mol
# GULP energy per Si atom -5573.539697 kJ/mol
# Density = 2.074735 g / cm^3
# Si number density = 20.794677 Si / 1000 Ang^3
#
#
#
# Elastic Constant Matrix: (Units=GPa)
#
#
# Indices 1 2 3 4 5 6 
#
# 1 83.5264 19.6650 14.3488 0.0000 -22.6615 0.0000
# 2 19.6650 62.3262 12.3686 0.0000 -5.9414 0.0000
# 3 14.3488 12.3686 50.1630 0.0000 -22.6515 0.0000
# 4 0.0000 0.0000 0.0000 -10.1229 0.0000 -23.7789
# 5 -22.6615 -5.9414 -22.6515 0.0000 27.7533 0.0000
# 6 0.0000 0.0000 0.0000 -23.7789 0.0000 30.4753
#
#
#
# Elastic Compliance Matrix: (Units=1/GPa)
#
#
# Indices 1 2 3 4 5 6 
#
# 1 0.016592 -0.004423 0.003222 0.000000 0.015231 0.000000
# 2 -0.004423 0.018051 -0.004864 0.000000 -0.003717 0.000000
# 3 0.003222 -0.004864 0.033147 0.000000 0.028643 0.000000
# 4 0.000000 0.000000 0.000000 -0.034871 0.000000 -0.027209
# 5 0.015231 -0.003717 0.028643 0.000000 0.071051 0.000000
# 6 0.000000 0.000000 0.000000 -0.027209 0.000000 0.011583
#
#
# Mechanical properties :
#
#
# Convention : Reuss Voigt Hill
#
# Bulk Modulus (GPa) = 17.96588 32.08670 25.02629
# Shear Modulus (GPa) = 34.19135 19.59668 26.89401
#
# Velocity S-wave (km/s) = 4.05932 3.07317 3.60017
# Velocity P-wave (km/s) = 5.53436 5.29681 5.41689
#
# Compressibility (1/GPa) = 0.05566106
#
# Stress axis : x y z
#
# Youngs Moduli (GPa) = 60.26859 55.39859 30.16879
#
# Poissons Ratio (x) = 0.24501 -0.09721
# Poissons Ratio (y) = 0.26655 0.14674
# Poissons Ratio (z) = -0.19420 0.26947
#
# Static dielectric constant tensor:
#      x y z
#    x 1.785880 0.000000 0.021740 
#    y 0.000000 1.765870 0.000000 
#    z 0.021740 0.000000 1.797730 
# 
# From -- ./inp_files/215214.got.cif
#   From: 2010.05.17/outbox.cif.g08.bks.cpg/sg15_108_cif.got.tgz:215214.got - 2010.06.03 18:47:42.
