data_PCOD9292892
_publ_section_title
;
Structure prediction by ZEFSAII (Michael W. Deem and Ramdas Pophale) SiO2 
 PCOD9292892
Probable space group: C 2/C
;
_chemical_formula_sum "Si O2"
_cell_formula_units_Z 60
_cell_length_a 9.103862
_cell_length_b 26.947926
_cell_length_c 11.990488
_cell_angle_alpha 90.000000
_cell_angle_beta 78.667920
_cell_angle_gamma 90.000000
_cell_volume 2884.281154
_symmetry_space_group_name_H-M "C 2/C"
_symmetry_group_IT_number 15
_symmetry_cell_setting 'monoclinic'
loop_
_space_group_symop_operation_xyz
x,y,z
-x,y,1/2-z
-x,-y,-z
x,-y,1/2+z
1/2+x,1/2+y,z
1/2-x,1/2+y,1/2-z
1/2-x,1/2-y,-z
1/2+x,1/2-y,1/2+z
loop_
_atom_site_type_symbol
_atom_site_label
_atom_site_fract_x
_atom_site_fract_y
_atom_site_fract_z
Si Si1 0.177044 0.405662 0.464806
Si Si2 0.460499 0.839653 0.382874
Si Si3 0.358107 0.643255 0.123025
Si Si4 0.128769 0.133426 0.935960
Si Si5 0.703093 0.754003 0.377854
Si Si6 0.828658 0.446915 0.807504
Si Si7 0.500000 0.305998 0.250000
Si Si8 0.666339 0.546148 0.767135
O O1 0.264658 0.363551 0.521011
O O2 0.261044 0.420508 0.340639
O O3 0.019351 0.382945 0.454755
O O4 0.825675 0.550945 0.443552
O O5 0.500000 0.854454 0.250000
O O6 0.283555 0.836810 0.424847
O O7 0.561256 0.790876 0.388334
O O8 0.338642 0.699611 0.162253
O O9 0.278690 0.599962 0.206122
O O10 0.527827 0.632180 0.061444
O O11 0.036003 0.160687 0.852012
O O12 0.159779 0.078894 0.880598
O O13 0.750000 0.750000 0.500000
O O14 0.849694 0.774801 0.294097
O O15 0.764453 0.497268 0.768361
O O16 0.000000 0.437344 0.750000
O O17 0.500000 0.533451 0.750000
#
# Coordination Sequence:
#
# PCOD9292892 Si02
#       8
#     8   8   8   8   8   8   4   8
#     4  10  22  44  69  96 133 179 231 278 344 412
#     4  12  23  40  70 109 136 166 237 288 332 407
#     4  10  23  46  66  93 139 184 227 265 355 419
#     4  12  22  40  71 103 136 168 231 291 334 406
#     4  12  22  41  70  99 136 183 220 278 352 409
#     4  10  26  47  65  99 139 183 235 284 355 415
#     4  12  22  40  70 100 130 182 220 282 346 398
#     4  12  22  41  73 100 133 178 231 293 348 406
#
# _framework density 20.802412
#
# number of rings (size 3 to 8) (size 9 to 14) (size 15 to 20)
#    0.800    0.000    7.333    0.000    2.800    3.200 
#    2.400    0.667    0.000    0.000    0.000    0.000 
#    0.000    0.000    0.000    0.000    0.000    0.000 
#
# Total GULP energy -167464.126149 kJ/mol
# GULP energy per Si atom -5582.137538 kJ/mol
# Density = 2.075506 g / cm^3
# Si number density = 20.802412 Si / 1000 Ang^3
#
#
#
# Elastic Constant Matrix: (Units=GPa)
#
#
# Indices 1 2 3 4 5 6 
#
# 1 121.0224 26.6469 20.2170 0.0000 -24.4181 0.0000
# 2 26.6469 69.5858 3.7057 0.0000 -8.5757 0.0000
# 3 20.2170 3.7057 15.3709 0.0000 -16.6524 0.0000
# 4 0.0000 0.0000 0.0000 17.2359 0.0000 0.2984
# 5 -24.4181 -8.5757 -16.6524 0.0000 41.5676 0.0000
# 6 0.0000 0.0000 0.0000 0.2984 0.0000 30.0125
#
#
#
# Elastic Compliance Matrix: (Units=1/GPa)
#
#
# Indices 1 2 3 4 5 6 
#
# 1 0.011431 -0.003588 -0.013600 0.000000 0.000527 0.000000
# 2 -0.003588 0.015874 0.003811 0.000000 0.002694 0.000000
# 3 -0.013600 0.003811 0.131140 0.000000 0.045333 0.000000
# 4 0.000000 0.000000 0.000000 0.058028 0.000000 -0.000577
# 5 0.000527 0.002694 0.045333 0.000000 0.043083 0.000000
# 6 0.000000 0.000000 0.000000 -0.000577 0.000000 0.033325
#
#
# Mechanical properties :
#
#
# Convention : Reuss Voigt Hill
#
# Bulk Modulus (GPa) = 7.59355 34.12425 20.85890
# Shear Modulus (GPa) = 13.75395 28.12384 20.93890
#
# Velocity S-wave (km/s) = 2.57411 3.68088 3.17608
# Velocity P-wave (km/s) = 3.53454 5.87407 4.84756
#
# Compressibility (1/GPa) = 0.13169077
#
# Stress axis : x y z
#
# Youngs Moduli (GPa) = 87.48091 62.99671 7.62547
#
# Poissons Ratio (x) = 0.22605 0.10370
# Poissons Ratio (y) = 0.31390 -0.02906
# Poissons Ratio (z) = 1.18970 -0.24008
#
# Static dielectric constant tensor:
#      x y z
#    x 1.746690 0.000000 0.005130 
#    y 0.000000 1.741450 0.000000 
#    z 0.005130 0.000000 1.760660 
# 
# From -- ./inp_files/137786.got.cif
#   From: 2010.05.17/outbox.cif.g08.bks.cpg/sg15_69_cif.got.tgz:137786.got - 2010.06.03 18:47:42.
