data_PCOD9292068
_publ_section_title
;
Structure prediction by ZEFSAII (Michael W. Deem and Ramdas Pophale) SiO2 
 PCOD9292068
Probable space group: C 2/C
;
_chemical_formula_sum "Si O2"
_cell_formula_units_Z 48
_cell_length_a 22.699576
_cell_length_b 12.872714
_cell_length_c 11.328567
_cell_angle_alpha 90.000000
_cell_angle_beta 144.999889
_cell_angle_gamma 90.000000
_cell_volume 1898.695609
_symmetry_space_group_name_H-M "C 2/C"
_symmetry_group_IT_number 15
_symmetry_cell_setting 'monoclinic'
loop_
_space_group_symop_operation_xyz
x,y,z
-x,y,1/2-z
-x,-y,-z
x,-y,1/2+z
1/2+x,1/2+y,z
1/2-x,1/2+y,1/2-z
1/2-x,1/2-y,-z
1/2+x,1/2-y,1/2+z
loop_
_atom_site_type_symbol
_atom_site_label
_atom_site_fract_x
_atom_site_fract_y
_atom_site_fract_z
Si Si1 0.582251 0.320203 0.637187
Si Si2 0.970137 0.390019 0.503885
Si Si3 0.841716 0.416453 0.520913
Si Si4 0.135417 0.191156 0.666268
Si Si5 0.610923 0.536907 0.406594
Si Si6 0.234964 0.388207 0.722276
O O1 0.567273 0.198945 0.647583
O O2 0.461437 0.337351 0.410202
O O3 0.611271 0.403310 0.783823
O O4 0.669436 0.329825 0.682603
O O5 0.879398 0.393624 0.450110
O O6 0.000000 0.500000 0.500000
O O7 0.070579 0.373500 0.750012
O O8 0.738949 0.357131 0.385727
O O9 0.818844 0.539588 0.466317
O O10 0.114950 0.126753 0.512825
O O11 0.159045 0.308377 0.662155
O O12 0.500000 0.484804 0.250000
O O13 0.707149 0.463358 0.589872
#
# Coordination Sequence:
#
# PCOD9292068 Si02
#       6
#     8   8   8   8   8   8
#     4  11  24  43  74 100 140 193 229 290 367 419
#     4  11  24  44  69 104 137 188 239 287 360 419
#     4  10  24  43  65 101 144 178 236 296 338 423
#     4  10  22  43  66 102 141 182 236 289 349 426
#     4   9  23  42  66 104 142 175 245 286 343 428
#     4  11  23  43  71 102 147 187 229 301 353 415
#
# _framework density 25.280514
#
# number of rings (size 3 to 8) (size 9 to 14) (size 15 to 20)
#    0.000    1.667    1.667    1.000    2.333   12.667 
#    0.000    1.667    0.000    0.000    0.000    0.000 
#    0.000    0.000    0.000    0.000    0.000    0.000 
#
# Total GULP energy -134099.525950 kJ/mol
# GULP energy per Si atom -5587.480248 kJ/mol
# Density = 2.522297 g / cm^3
# Si number density = 25.280514 Si / 1000 Ang^3
#
#
#
# Elastic Constant Matrix: (Units=GPa)
#
#
# Indices 1 2 3 4 5 6 
#
# 1 101.3482 23.2600 17.0775 0.0000 16.2650 0.0000
# 2 23.2600 118.5085 18.0766 0.0000 -7.7748 0.0000
# 3 17.0775 18.0766 73.2886 0.0000 18.9943 0.0000
# 4 0.0000 0.0000 0.0000 29.8523 0.0000 6.1553
# 5 16.2650 -7.7748 18.9943 0.0000 28.0897 0.0000
# 6 0.0000 0.0000 0.0000 6.1553 0.0000 37.1161
#
#
#
# Elastic Compliance Matrix: (Units=1/GPa)
#
#
# Indices 1 2 3 4 5 6 
#
# 1 0.011723 -0.002775 -0.000108 0.000000 -0.007484 0.000000
# 2 -0.002775 0.009973 -0.003571 0.000000 0.006782 0.000000
# 3 -0.000108 -0.003571 0.017933 0.000000 -0.013052 0.000000
# 4 0.000000 0.000000 0.000000 0.034684 0.000000 -0.005752
# 5 -0.007484 0.006782 -0.013052 0.000000 0.050637 0.000000
# 6 0.000000 0.000000 0.000000 -0.005752 0.000000 0.027896
#
#
# Mechanical properties :
#
#
# Convention : Reuss Voigt Hill
#
# Bulk Modulus (GPa) = 37.42306 45.55262 41.48784
# Shear Modulus (GPa) = 28.62690 34.66036 31.64363
#
# Velocity S-wave (km/s) = 3.36872 3.70676 3.54178
# Velocity P-wave (km/s) = 5.47415 6.03142 5.75953
#
# Compressibility (1/GPa) = 0.02672149
#
# Stress axis : x y z
#
# Youngs Moduli (GPa) = 85.30164 100.27541 55.76225
#
# Poissons Ratio (x) = 0.27831 0.00600
# Poissons Ratio (y) = 0.23675 0.19911
# Poissons Ratio (z) = 0.00918 0.35805
#
# Static dielectric constant tensor:
#      x y z
#    x 1.968960 0.000000 0.030610 
#    y 0.000000 2.442020 0.000000 
#    z 0.030610 0.000000 2.064450 
# 
# From -- ./inp_files/181796.got.cif
#   From: 2010.05.17/outbox.cif.g08.bks.cpg/sg15_91_cif.got.tgz:181796.got - 2010.06.03 18:47:42.
