data_PCOD9292318
_publ_section_title
;
Structure prediction by ZEFSAII (Michael W. Deem and Ramdas Pophale) SiO2 
 PCOD9292318
Probable space group: C 2/C
;
_chemical_formula_sum "Si O2"
_cell_formula_units_Z 40
_cell_length_a 22.997343
_cell_length_b 13.177783
_cell_length_c 7.605225
_cell_angle_alpha 90.000000
_cell_angle_beta 38.750267
_cell_angle_gamma 90.000000
_cell_volume 1442.632929
_symmetry_space_group_name_H-M "C 2/C"
_symmetry_group_IT_number 15
_symmetry_cell_setting 'monoclinic'
loop_
_space_group_symop_operation_xyz
x,y,z
-x,y,1/2-z
-x,-y,-z
x,-y,1/2+z
1/2+x,1/2+y,z
1/2-x,1/2+y,1/2-z
1/2-x,1/2-y,-z
1/2+x,1/2-y,1/2+z
loop_
_atom_site_type_symbol
_atom_site_label
_atom_site_fract_x
_atom_site_fract_y
_atom_site_fract_z
Si Si1 0.800152 0.085088 0.723940
Si Si2 0.203240 0.870426 0.685787
Si Si3 0.402744 0.966540 0.635686
Si Si4 0.395807 0.818180 0.120740
Si Si5 0.564187 0.259257 0.453059
O O1 0.841937 0.971415 0.630601
O O2 0.698828 0.947376 0.538811
O O3 0.804903 0.120765 0.509543
O O4 0.846422 0.167819 0.744285
O O5 0.312202 0.844008 0.456460
O O6 0.149105 0.772220 0.882789
O O7 0.414764 0.854844 0.530989
O O8 0.500000 0.000000 0.500000
O O9 0.398060 0.070085 0.530647
O O10 0.491253 0.771876 0.969904
O O11 0.500000 0.312842 0.750000
#
# Coordination Sequence:
#
# PCOD9292318 Si02
#       5
#     8   8   8   8   8
#     4  11  23  42  70 104 137 187 234 292 359 427
#     4  10  22  43  69  96 141 184 232 287 361 424
#     4   9  21  39  65  96 131 181 233 284 343 420
#     4   9  20  41  62  91 135 182 225 286 352 411
#     4  11  21  40  68  99 140 184 230 296 359 426
#
# _framework density 27.727080000000001
#
# number of rings (size 3 to 8) (size 9 to 14) (size 15 to 20)
#    0.000    2.000    2.000    0.600    0.000   10.400 
#   10.800    5.000    0.000    0.000    0.000    0.000 
#    0.000    0.000    0.000    0.000    0.000    0.000 
#
# Total GULP energy -111353.272755 kJ/mol
# GULP energy per Si atom -5567.663638 kJ/mol
# Density = 2.766397 g / cm^3
# Si number density = 27.727080 Si / 1000 Ang^3
#
#
#
# Elastic Constant Matrix: (Units=GPa)
#
#
# Indices 1 2 3 4 5 6 
#
# 1 134.7693 60.8831 29.7687 0.0000 -34.7570 0.0000
# 2 60.8831 258.7247 55.4276 0.0000 -38.9482 0.0000
# 3 29.7687 55.4276 125.9191 0.0000 -29.4366 0.0000
# 4 0.0000 0.0000 0.0000 44.5560 0.0000 -23.3061
# 5 -34.7570 -38.9482 -29.4366 0.0000 30.6166 0.0000
# 6 0.0000 0.0000 0.0000 -23.3061 0.0000 21.8606
#
#
#
# Elastic Compliance Matrix: (Units=1/GPa)
#
#
# Indices 1 2 3 4 5 6 
#
# 1 0.010671 -0.000899 0.000564 0.000000 0.011513 0.000000
# 2 -0.000899 0.004933 -0.000942 0.000000 0.004349 0.000000
# 3 0.000564 -0.000942 0.010439 0.000000 0.009479 0.000000
# 4 0.000000 0.000000 0.000000 0.050739 0.000000 0.054094
# 5 0.011513 0.004349 0.009479 0.000000 0.060378 0.000000
# 6 0.000000 0.000000 0.000000 0.054094 0.000000 0.103415
#
#
# Mechanical properties :
#
#
# Convention : Reuss Voigt Hill
#
# Bulk Modulus (GPa) = 42.57243 90.17465 66.37354
# Shear Modulus (GPa) = 19.92371 44.29555 32.10963
#
# Velocity S-wave (km/s) = 2.68351 4.00128 3.40672
# Velocity P-wave (km/s) = 4.99891 7.34437 6.28207
#
# Compressibility (1/GPa) = 0.02348938
#
# Stress axis : x y z
#
# Youngs Moduli (GPa) = 93.71503 202.70663 95.79665
#
# Poissons Ratio (x) = 0.18219 -0.05407
# Poissons Ratio (y) = 0.08423 0.09027
# Poissons Ratio (z) = -0.05289 0.19100
#
# Static dielectric constant tensor:
#      x y z
#    x 2.700530 0.000000 -0.283850 
#    y 0.000000 2.226080 0.000000 
#    z -0.283850 0.000000 2.454110 
# 
# From -- ./inp_files/117394.got.cif
#   From: 2010.05.17/outbox.cif.g08.bks.cpg/sg15_59_cif.got.tgz:117394.got - 2010.06.03 18:47:42.
