data_PCOD9292131
_publ_section_title
;
Structure prediction by ZEFSAII (Michael W. Deem and Ramdas Pophale) SiO2 
 PCOD9292131
Probable space group: C 2/C
;
_chemical_formula_sum "Si O2"
_cell_formula_units_Z 60
_cell_length_a 26.626620
_cell_length_b 8.980142
_cell_length_c 10.850330
_cell_angle_alpha 90.000000
_cell_angle_beta 94.688146
_cell_angle_gamma 90.000000
_cell_volume 2585.751254
_symmetry_space_group_name_H-M "C 2/C"
_symmetry_group_IT_number 15
_symmetry_cell_setting 'monoclinic'
loop_
_space_group_symop_operation_xyz
x,y,z
-x,y,1/2-z
-x,-y,-z
x,-y,1/2+z
1/2+x,1/2+y,z
1/2-x,1/2+y,1/2-z
1/2-x,1/2-y,-z
1/2+x,1/2-y,1/2+z
loop_
_atom_site_type_symbol
_atom_site_label
_atom_site_fract_x
_atom_site_fract_y
_atom_site_fract_z
Si Si1 0.806606 0.028936 0.477495
Si Si2 0.180986 0.629035 0.254954
Si Si3 0.000000 0.328232 0.250000
Si Si4 0.251952 0.602139 0.724344
Si Si5 0.954916 0.903520 0.935140
Si Si6 0.873501 0.301140 0.506491
Si Si7 0.109363 0.168272 0.576364
Si Si8 0.054056 0.442949 0.467421
O O1 0.775430 0.963123 0.356829
O O2 0.832360 0.186041 0.443512
O O3 0.776822 0.051891 0.599107
O O4 0.851514 0.909804 0.509238
O O5 0.195773 0.465029 0.213224
O O6 0.156680 0.633867 0.383598
O O7 0.142679 0.727622 0.168975
O O8 0.232804 0.725432 0.263640
O O9 0.974706 0.218155 0.343774
O O10 0.956104 0.429689 0.181150
O O11 0.918192 0.027658 0.866785
O O12 0.921329 0.813413 0.028986
O O13 0.000000 0.000000 0.000000
O O14 0.903470 0.448046 0.471010
O O15 0.068578 0.277038 0.509763
O O16 0.000000 0.500000 0.500000
#
# Coordination Sequence:
#
# PCOD9292131 Si02
#       8
#     8   8   4   8   8   8   8   8
#     4   9  22  43  68  96 132 182 231 290 335 439
#     4  10  24  40  66  96 131 183 217 292 343 422
#     4  12  26  40  70  94 130 192 224 286 350 402
#     4  10  22  43  66  99 135 170 235 277 370 414
#     4  11  22  44  66  95 130 182 232 280 336 422
#     4  10  23  41  63  95 137 172 230 276 350 403
#     4  10  23  41  65  97 131 173 236 281 342 408
#     4  12  25  44  60  98 137 174 227 284 351 414
#
# _framework density 23.204089
#
# number of rings (size 3 to 8) (size 9 to 14) (size 15 to 20)
#    0.000    1.600    2.667    0.000    3.733   10.667 
#    0.000    0.000    0.000    0.000    0.000    0.000 
#    0.000    0.000    0.000    0.000    0.000    0.000 
#
# Total GULP energy -167177.211930 kJ/mol
# GULP energy per Si atom -5572.573731 kJ/mol
# Density = 2.315128 g / cm^3
# Si number density = 23.204089 Si / 1000 Ang^3
#
#
#
# Elastic Constant Matrix: (Units=GPa)
#
#
# Indices 1 2 3 4 5 6 
#
# 1 68.8501 20.1334 7.9254 0.0000 6.4184 0.0000
# 2 20.1334 88.7034 7.8419 0.0000 -4.7431 0.0000
# 3 7.9254 7.8419 44.9630 0.0000 -1.5659 0.0000
# 4 0.0000 0.0000 0.0000 24.4863 0.0000 -2.1855
# 5 6.4184 -4.7431 -1.5659 0.0000 19.3725 0.0000
# 6 0.0000 0.0000 0.0000 -2.1855 0.0000 58.8460
#
#
#
# Elastic Compliance Matrix: (Units=1/GPa)
#
#
# Indices 1 2 3 4 5 6 
#
# 1 0.016568 -0.003897 -0.002472 0.000000 -0.006643 0.000000
# 2 -0.003897 0.012504 -0.001346 0.000000 0.004244 0.000000
# 3 -0.002472 -0.001346 0.022993 0.000000 0.002348 0.000000
# 4 0.000000 0.000000 0.000000 0.040975 0.000000 0.001522
# 5 -0.006643 0.004244 0.002348 0.000000 0.055049 0.000000
# 6 0.000000 0.000000 0.000000 0.001522 0.000000 0.017050
#
#
# Mechanical properties :
#
#
# Convention : Reuss Voigt Hill
#
# Bulk Modulus (GPa) = 27.29692 30.47975 28.88834
# Shear Modulus (GPa) = 25.93620 31.64867 28.79244
#
# Velocity S-wave (km/s) = 3.34689 3.69714 3.52637
# Velocity P-wave (km/s) = 5.16962 5.60261 5.39046
#
# Compressibility (1/GPa) = 0.03663417
#
# Stress axis : x y z
#
# Youngs Moduli (GPa) = 60.35823 79.97441 43.49192
#
# Poissons Ratio (x) = 0.31167 0.10751
# Poissons Ratio (y) = 0.23522 0.05854
# Poissons Ratio (z) = 0.14920 0.10765
#
# Static dielectric constant tensor:
#      x y z
#    x 1.929310 0.000000 0.059040 
#    y 0.000000 1.866170 0.000000 
#    z 0.059040 0.000000 1.920620 
# 
# From -- ./inp_files/121969.got.cif
#   From: 2010.05.17/outbox.cif.g08.bks.cpg/sg15_61_cif.got.tgz:121969.got - 2010.06.03 18:47:42.
