data_PCOD9292528
_publ_section_title
;
Structure prediction by ZEFSAII (Michael W. Deem and Ramdas Pophale) SiO2 
 PCOD9292528
Probable space group: C 2/C
;
_chemical_formula_sum "Si O2"
_cell_formula_units_Z 32
_cell_length_a 11.676657
_cell_length_b 12.905651
_cell_length_c 19.226859
_cell_angle_alpha 90.000000
_cell_angle_beta 22.417046
_cell_angle_gamma 90.000000
_cell_volume 1104.905959
_symmetry_space_group_name_H-M "C 2/C"
_symmetry_group_IT_number 15
_symmetry_cell_setting 'monoclinic'
loop_
_space_group_symop_operation_xyz
x,y,z
-x,y,1/2-z
-x,-y,-z
x,-y,1/2+z
1/2+x,1/2+y,z
1/2-x,1/2+y,1/2-z
1/2-x,1/2-y,-z
1/2+x,1/2-y,1/2+z
loop_
_atom_site_type_symbol
_atom_site_label
_atom_site_fract_x
_atom_site_fract_y
_atom_site_fract_z
Si Si1 0.779969 0.154381 0.134229
Si Si2 0.000000 0.151752 0.750000
Si Si3 0.923669 0.537086 0.124545
Si Si4 0.500000 0.363960 0.750000
Si Si5 0.425236 0.842676 0.216962
O O1 0.500000 0.110254 0.250000
O O2 0.675155 0.272565 0.205397
O O3 0.795484 0.088722 0.194723
O O4 0.065773 0.164145 0.925456
O O5 0.262958 0.098559 0.557962
O O6 0.738205 0.561027 0.157195
O O7 0.990634 0.423361 0.118833
O O8 0.449515 0.274629 0.838847
O O9 0.500000 0.893089 0.250000
#
# Coordination Sequence:
#
# PCOD9292528 Si02
#       5
#     8   4   8   4   8
#     4  10  22  45  82 121 158 225 282 343 425 508
#     4  10  22  43  76 127 158 226 278 345 437 494
#     4  12  23  46  83 119 169 221 284 346 428 518
#     4  10  24  49  80 123 164 224 274 353 435 490
#     4  10  23  49  83 122 160 226 281 347 427 507
#
# _framework density 28.961742000000001
#
# number of rings (size 3 to 8) (size 9 to 14) (size 15 to 20)
#    1.500    0.000    2.500    2.250    0.000    1.000 
#    0.000    2.500    5.500   25.500    3.250    0.000 
#    0.000    0.000    0.000    0.000    0.000    0.000 
#
# Total GULP energy -89327.371003 kJ/mol
# GULP energy per Si atom -5582.960688 kJ/mol
# Density = 2.889582 g / cm^3
# Si number density = 28.961742 Si / 1000 Ang^3
#
#
#
# Elastic Constant Matrix: (Units=GPa)
#
#
# Indices 1 2 3 4 5 6 
#
# 1 186.2063 90.9319 53.3836 0.0323 6.2889 -0.0833
# 2 90.9319 231.9652 62.3348 -0.0528 -5.6720 -0.0248
# 3 53.3836 62.3348 112.8300 -0.0149 -8.9817 -0.1723
# 4 0.0323 -0.0528 -0.0149 53.5285 -0.0738 -7.8740
# 5 6.2889 -5.6720 -8.9817 -0.0738 47.5905 0.1445
# 6 -0.0833 -0.0248 -0.1723 -7.8740 0.1445 52.0261
#
#
#
# Elastic Compliance Matrix: (Units=1/GPa)
#
#
# Indices 1 2 3 4 5 6 
#
# 1 0.007175 -0.002238 -0.002290 -0.000009 -0.001647 0.000006
# 2 -0.002238 0.005761 -0.002077 0.000006 0.000590 -0.000008
# 3 -0.002290 -0.002077 0.011267 0.000010 0.002181 0.000028
# 4 -0.000009 0.000006 0.000010 0.019107 0.000024 0.002892
# 5 -0.001647 0.000590 0.002181 0.000024 0.021712 -0.000052
# 6 0.000006 -0.000008 0.000028 0.002892 -0.000052 0.019659
#
#
# Mechanical properties :
#
#
# Convention : Reuss Voigt Hill
#
# Bulk Modulus (GPa) = 90.95286 104.92245 97.93766
# Shear Modulus (GPa) = 49.23427 52.25244 50.74335
#
# Velocity S-wave (km/s) = 4.12755 4.25218 4.19033
# Velocity P-wave (km/s) = 7.36126 7.77269 7.56977
#
# Compressibility (1/GPa) = 0.01099471
#
# Stress axis : x y z
#
# Youngs Moduli (GPa) = 139.36872 173.58882 88.75230
#
# Poissons Ratio (x) = 0.38844 0.20321
# Poissons Ratio (y) = 0.31187 0.18433
# Poissons Ratio (z) = 0.31911 0.36053
#
# Static dielectric constant tensor:
#      x y z
#    x 2.223760 0.000050 -0.173080 
#    y 0.000050 2.336160 0.000160 
#    z -0.173080 0.000160 2.172400 
# 
# From -- ./inp_files/197570.got.cif
#   From: 2010.05.17/outbox.cif.g08.bks.cpg/sg15_99_cif.got.tgz:197570.got - 2010.06.03 18:47:42.
