data_PCOD9292462
_publ_section_title
;
Structure prediction by ZEFSAII (Michael W. Deem and Ramdas Pophale) SiO2 
 PCOD9292462
Probable space group: C 2/C
;
_chemical_formula_sum "Si O2"
_cell_formula_units_Z 32
_cell_length_a 13.458499
_cell_length_b 5.221074
_cell_length_c 18.132381
_cell_angle_alpha 90.000000
_cell_angle_beta 67.865312
_cell_angle_gamma 90.000000
_cell_volume 1180.220890
_symmetry_space_group_name_H-M "C 2/C"
_symmetry_group_IT_number 15
_symmetry_cell_setting 'monoclinic'
loop_
_space_group_symop_operation_xyz
x,y,z
-x,y,1/2-z
-x,-y,-z
x,-y,1/2+z
1/2+x,1/2+y,z
1/2-x,1/2+y,1/2-z
1/2-x,1/2-y,-z
1/2+x,1/2-y,1/2+z
loop_
_atom_site_type_symbol
_atom_site_label
_atom_site_fract_x
_atom_site_fract_y
_atom_site_fract_z
Si Si1 0.653442 0.974645 0.106680
Si Si2 0.684781 0.236416 0.757119
Si Si3 0.623025 0.415295 0.479502
Si Si4 0.045968 0.453921 0.905085
O O1 0.640858 0.867523 0.191768
O O2 0.638061 0.743659 0.051023
O O3 0.554092 0.156979 0.113000
O O4 0.771841 0.091688 0.059617
O O5 0.722863 0.529336 0.746113
O O6 0.594116 0.184037 0.844603
O O7 0.500000 0.500000 0.500000
O O8 0.641054 0.231277 0.402940
O O9 0.000000 0.500000 0.000000
#
# Coordination Sequence:
#
# PCOD9292462 Si02
#       4
#     8   8   8   8
#     4  10  23  43  70 107 151 195 257 307 393 446
#     4  12  27  48  75 111 157 203 257 323 387 457
#     4  10  22  43  72 111 150 199 254 321 383 467
#     4  10  23  44  70 108 145 196 254 310 377 461
#
# _framework density 27.113567
#
# number of rings (size 3 to 8) (size 9 to 14) (size 15 to 20)
#    0.000    1.500    2.500    0.750    7.000    3.000 
#    0.000    2.500    0.000    0.000    0.000    0.000 
#    0.000    0.000    0.000    0.000    0.000    0.000 
#
# Total GULP energy -89309.333400 kJ/mol
# GULP energy per Si atom -5581.833338 kJ/mol
# Density = 2.705185 g / cm^3
# Si number density = 27.113567 Si / 1000 Ang^3
#
#
#
# Elastic Constant Matrix: (Units=GPa)
#
#
# Indices 1 2 3 4 5 6 
#
# 1 137.3257 0.1373 57.0149 0.0005 7.4422 0.0004
# 2 0.1373 56.6691 9.5980 0.0013 1.2520 0.0009
# 3 57.0149 9.5980 163.0924 0.0003 13.1801 0.0004
# 4 0.0005 0.0013 0.0003 40.1273 0.0003 2.1687
# 5 7.4422 1.2520 13.1801 0.0003 65.6830 0.0004
# 6 0.0004 0.0009 0.0004 2.1687 0.0004 50.1390
#
#
#
# Elastic Compliance Matrix: (Units=1/GPa)
#
#
# Indices 1 2 3 4 5 6 
#
# 1 0.008541 0.000493 -0.002984 0.000000 -0.000378 0.000000
# 2 0.000493 0.017854 -0.001211 -0.000001 -0.000153 0.000000
# 3 -0.002984 -0.001211 0.007336 0.000000 -0.001111 0.000000
# 4 0.000000 -0.000001 0.000000 0.024979 0.000000 -0.001080
# 5 -0.000378 -0.000153 -0.001111 0.000000 0.015493 0.000000
# 6 0.000000 0.000000 0.000000 -0.001080 0.000000 0.019991
#
#
# Mechanical properties :
#
#
# Convention : Reuss Voigt Hill
#
# Bulk Modulus (GPa) = 37.98440 54.50975 46.24708
# Shear Modulus (GPa) = 45.30084 50.54564 47.92324
#
# Velocity S-wave (km/s) = 4.09195 4.32235 4.20873
# Velocity P-wave (km/s) = 6.03036 6.71253 6.38057
#
# Compressibility (1/GPa) = 0.02632660
#
# Stress axis : x y z
#
# Youngs Moduli (GPa) = 117.08272 56.01132 136.31835
#
# Poissons Ratio (x) = -0.02762 0.40681
# Poissons Ratio (y) = -0.05773 0.16504
# Poissons Ratio (z) = 0.34940 0.06781
#
# Static dielectric constant tensor:
#      x y z
#    x 2.242280 0.000000 -0.095320 
#    y 0.000000 2.573580 0.000000 
#    z -0.095320 0.000000 2.112480 
# 
# From -- ./inp_files/201807.got.cif
#   From: 2010.05.17/outbox.cif.g08.bks.cpg/sg15_101_cif.got.tgz:201807.got - 2010.06.03 18:47:42.
