data_PCOD9292881
_publ_section_title
;
Structure prediction by ZEFSAII (Michael W. Deem and Ramdas Pophale) SiO2 
 PCOD9292881
Probable space group: C 2/C
;
_chemical_formula_sum "Si O2"
_cell_formula_units_Z 52
_cell_length_a 24.030571
_cell_length_b 12.948903
_cell_length_c 16.453099
_cell_angle_alpha 90.000000
_cell_angle_beta 29.842890
_cell_angle_gamma 90.000000
_cell_volume 2547.684112
_symmetry_space_group_name_H-M "C 2/C"
_symmetry_group_IT_number 15
_symmetry_cell_setting 'monoclinic'
loop_
_space_group_symop_operation_xyz
x,y,z
-x,y,1/2-z
-x,-y,-z
x,-y,1/2+z
1/2+x,1/2+y,z
1/2-x,1/2+y,1/2-z
1/2-x,1/2-y,-z
1/2+x,1/2-y,1/2+z
loop_
_atom_site_type_symbol
_atom_site_label
_atom_site_fract_x
_atom_site_fract_y
_atom_site_fract_z
Si Si1 0.140845 0.898926 0.859726
Si Si2 0.802331 0.181697 0.863423
Si Si3 0.081177 0.416069 0.577087
Si Si4 0.000000 0.184698 0.250000
Si Si5 0.893580 0.355473 0.495027
Si Si6 0.005794 0.695539 0.465928
Si Si7 0.453647 0.494107 0.685778
O O1 0.271772 0.875002 0.689616
O O2 0.102085 0.959727 0.828344
O O3 0.081361 0.788571 0.931302
O O4 0.080664 0.965404 0.007580
O O5 0.878696 0.252847 0.709887
O O6 0.880584 0.092941 0.803631
O O7 0.750000 0.250000 0.000000
O O8 0.703038 0.131171 0.937231
O O9 0.086910 0.538727 0.577180
O O10 0.000000 0.372949 0.750000
O O11 0.032473 0.388935 0.550629
O O12 0.051594 0.104479 0.249531
O O13 0.914052 0.259098 0.408164
O O14 0.979230 0.341503 0.461263
#
# Coordination Sequence:
#
# PCOD9292881 Si02
#       7
#     8   8   8   4   8   8   8
#     4  10  22  44  69  93 136 177 230 281 336 411
#     4  11  23  44  72  99 132 178 230 286 343 411
#     4  12  24  43  64  98 137 173 220 293 342 402
#     4  12  26  44  72 104 146 186 232 284 352 414
#     4  12  25  44  68 102 139 186 226 283 349 415
#     4  11  24  43  70  99 132 178 234 275 347 419
#     4  10  23  44  68  98 135 179 228 285 341 412
#
# _framework density 20.410692999999998
#
# number of rings (size 3 to 8) (size 9 to 14) (size 15 to 20)
#    0.000    0.923    5.385    1.385    0.000    5.538 
#    2.769    0.000    0.000    0.000    0.000    0.000 
#    0.000    0.000    0.000    0.000    0.000    0.000 
#
# Total GULP energy -145169.104625 kJ/mol
# GULP energy per Si atom -5583.427101 kJ/mol
# Density = 2.036424 g / cm^3
# Si number density = 20.410693 Si / 1000 Ang^3
#
#
#
# Elastic Constant Matrix: (Units=GPa)
#
#
# Indices 1 2 3 4 5 6 
#
# 1 69.8049 28.0130 28.3880 0.0000 1.4635 0.0000
# 2 28.0130 107.7887 37.3066 0.0000 -0.7309 0.0000
# 3 28.3880 37.3066 88.8551 0.0000 -8.1961 0.0000
# 4 0.0000 0.0000 0.0000 28.5462 0.0000 9.2549
# 5 1.4635 -0.7309 -8.1961 0.0000 19.4012 0.0000
# 6 0.0000 0.0000 0.0000 9.2549 0.0000 21.8678
#
#
#
# Elastic Compliance Matrix: (Units=1/GPa)
#
#
# Indices 1 2 3 4 5 6 
#
# 1 0.017476 -0.002953 -0.004657 0.000000 -0.003397 0.000000
# 2 -0.002953 0.011400 -0.003936 0.000000 -0.001011 0.000000
# 3 -0.004657 -0.003936 0.014998 0.000000 0.006539 0.000000
# 4 0.000000 0.000000 0.000000 0.040602 0.000000 -0.017184
# 5 -0.003397 -0.001011 0.006539 0.000000 0.054524 0.000000
# 6 0.000000 0.000000 0.000000 -0.017184 0.000000 0.053002
#
#
# Mechanical properties :
#
#
# Convention : Reuss Voigt Hill
#
# Bulk Modulus (GPa) = 48.11892 50.42932 49.27412
# Shear Modulus (GPa) = 22.52038 25.47911 23.99974
#
# Velocity S-wave (km/s) = 3.32529 3.53699 3.43277
# Velocity P-wave (km/s) = 6.19435 6.43750 6.31709
#
# Compressibility (1/GPa) = 0.02078185
#
# Stress axis : x y z
#
# Youngs Moduli (GPa) = 57.22236 87.71613 66.67599
#
# Poissons Ratio (x) = 0.25903 0.31049
# Poissons Ratio (y) = 0.16898 0.26246
# Poissons Ratio (z) = 0.26647 0.34528
#
# Static dielectric constant tensor:
#      x y z
#    x 1.714320 0.000000 0.014130 
#    y 0.000000 1.728680 0.000000 
#    z 0.014130 0.000000 1.700920 
# 
# From -- ./inp_files/222447.got.cif
#   From: 2010.05.17/outbox.cif.g08.bks.cpg/sg15_112_cif.got.tgz:222447.got - 2010.06.03 18:47:42.
