data_PCOD9292599
_publ_section_title
;
Structure prediction by ZEFSAII (Michael W. Deem and Ramdas Pophale) SiO2 
 PCOD9292599
Probable space group: C 2/C
;
_chemical_formula_sum "Si O2"
_cell_formula_units_Z 56
_cell_length_a 17.378235
_cell_length_b 8.500008
_cell_length_c 26.887106
_cell_angle_alpha 90.000000
_cell_angle_beta 142.409379
_cell_angle_gamma 90.000000
_cell_volume 2422.757256
_symmetry_space_group_name_H-M "C 2/C"
_symmetry_group_IT_number 15
_symmetry_cell_setting 'monoclinic'
loop_
_space_group_symop_operation_xyz
x,y,z
-x,y,1/2-z
-x,-y,-z
x,-y,1/2+z
1/2+x,1/2+y,z
1/2-x,1/2+y,1/2-z
1/2-x,1/2-y,-z
1/2+x,1/2-y,1/2+z
loop_
_atom_site_type_symbol
_atom_site_label
_atom_site_fract_x
_atom_site_fract_y
_atom_site_fract_z
Si Si1 0.102543 0.713474 0.920110
Si Si2 0.218015 0.710951 0.571802
Si Si3 0.891389 0.606162 0.468984
Si Si4 0.713215 0.278232 0.281565
Si Si5 0.883477 0.922159 0.805118
Si Si6 0.038943 0.399684 0.827673
Si Si7 0.459143 0.373620 0.437641
O O1 0.075135 0.560289 0.873393
O O2 0.017866 0.856643 0.857080
O O3 0.250000 0.750000 0.000000
O O4 0.059758 0.682655 0.955037
O O5 0.212334 0.521751 0.567947
O O6 0.226674 0.760299 0.634328
O O7 0.339895 0.785492 0.608876
O O8 0.086264 0.782721 0.485349
O O9 0.000000 0.500000 0.500000
O O10 0.868593 0.747060 0.418606
O O11 0.800609 0.223436 0.281378
O O12 0.686524 0.463921 0.268598
O O13 0.581772 0.184840 0.210164
O O14 0.901054 0.034784 0.861949
O O15 0.000000 0.426655 0.750000
O O16 0.500000 0.500000 0.500000
#
# Coordination Sequence:
#
# PCOD9292599 Si02
#       7
#     8   8   8   8   8   8   8
#     4  12  26  45  69 105 136 174 239 288 347 418
#     4  10  22  44  64  97 132 178 227 278 342 407
#     4  10  23  39  68  98 132 172 227 288 338 411
#     4  11  25  42  66  94 140 180 226 274 343 426
#     4  12  25  42  67 103 134 181 228 284 343 417
#     4  10  25  46  67  92 139 185 222 282 352 411
#     4  11  20  40  69  94 134 172 227 281 335 394
#
# _framework density 23.114160999999999
#
# number of rings (size 3 to 8) (size 9 to 14) (size 15 to 20)
#    0.000    1.143    2.857    2.571    8.000    0.571 
#    2.571    0.000    0.000    0.000    0.000    0.000 
#    0.000    0.000    0.000    0.000    0.000    0.000 
#
# Total GULP energy -156713.795953 kJ/mol
# GULP energy per Si atom -5596.921284 kJ/mol
# Density = 2.306155 g / cm^3
# Si number density = 23.114161 Si / 1000 Ang^3
#
#
#
# Elastic Constant Matrix: (Units=GPa)
#
#
# Indices 1 2 3 4 5 6 
#
# 1 62.9733 21.0014 19.4015 0.0000 19.6438 0.0000
# 2 21.0014 121.8825 25.4498 0.0000 18.4736 0.0000
# 3 19.4015 25.4498 57.7133 0.0000 12.9741 0.0000
# 4 0.0000 0.0000 0.0000 49.6310 0.0000 3.7241
# 5 19.6438 18.4736 12.9741 0.0000 29.0925 0.0000
# 6 0.0000 0.0000 0.0000 3.7241 0.0000 46.4295
#
#
#
# Elastic Compliance Matrix: (Units=1/GPa)
#
#
# Indices 1 2 3 4 5 6 
#
# 1 0.021146 -0.001012 -0.003998 0.000000 -0.011853 0.000000
# 2 -0.001012 0.009623 -0.002982 0.000000 -0.004097 0.000000
# 3 -0.003998 -0.002982 0.021065 0.000000 -0.004801 0.000000
# 4 0.000000 0.000000 0.000000 0.020271 0.000000 -0.001626
# 5 -0.011853 -0.004097 -0.004801 0.000000 0.047119 0.000000
# 6 0.000000 0.000000 0.000000 -0.001626 0.000000 0.021668
#
#
# Mechanical properties :
#
#
# Convention : Reuss Voigt Hill
#
# Bulk Modulus (GPa) = 27.89409 41.58604 34.74006
# Shear Modulus (GPa) = 29.61615 36.81170 33.21393
#
# Velocity S-wave (km/s) = 3.58341 3.99507 3.79483
# Velocity P-wave (km/s) = 5.40511 6.26989 5.85349
#
# Compressibility (1/GPa) = 0.03584989
#
# Stress axis : x y z
#
# Youngs Moduli (GPa) = 47.28941 103.92105 47.47145
#
# Poissons Ratio (x) = 0.10522 0.18978
# Poissons Ratio (y) = 0.04788 0.14156
# Poissons Ratio (z) = 0.18905 0.30989
#
# Static dielectric constant tensor:
#      x y z
#    x 1.873470 0.000000 0.002500 
#    y 0.000000 1.873130 0.000000 
#    z 0.002500 0.000000 1.884330 
# 
# From -- ./inp_files/298588.got.cif
#   From: 2010.05.17/outbox.cif.g08.bks.cpg/sg15_150_cif.got.tgz:298588.got - 2010.06.03 18:47:42.
