data_PCOD9292466
_publ_section_title
;
Structure prediction by ZEFSAII (Michael W. Deem and Ramdas Pophale) SiO2 
 PCOD9292466
Probable space group: C 2/C
;
_chemical_formula_sum "Si O2"
_cell_formula_units_Z 44
_cell_length_a 8.156635
_cell_length_b 18.027116
_cell_length_c 14.822633
_cell_angle_alpha 90.000000
_cell_angle_beta 110.944628
_cell_angle_gamma 90.000000
_cell_volume 2035.519444
_symmetry_space_group_name_H-M "C 2/C"
_symmetry_group_IT_number 15
_symmetry_cell_setting 'monoclinic'
loop_
_space_group_symop_operation_xyz
x,y,z
-x,y,1/2-z
-x,-y,-z
x,-y,1/2+z
1/2+x,1/2+y,z
1/2-x,1/2+y,1/2-z
1/2-x,1/2-y,-z
1/2+x,1/2-y,1/2+z
loop_
_atom_site_type_symbol
_atom_site_label
_atom_site_fract_x
_atom_site_fract_y
_atom_site_fract_z
Si Si1 0.990190 0.365645 0.597076
Si Si2 0.000000 0.756269 0.250000
Si Si3 0.191533 0.022819 0.295784
Si Si4 0.308607 0.478092 0.002076
Si Si5 0.104202 0.373503 0.421416
Si Si6 0.262518 0.127230 0.730277
O O1 0.975185 0.296852 0.660017
O O2 0.142821 0.421679 0.666078
O O3 0.054176 0.342227 0.508994
O O4 0.801100 0.407002 0.553455
O O5 0.843461 0.812575 0.235592
O O6 0.000000 0.061628 0.250000
O O7 0.184051 0.977157 0.387988
O O8 0.203409 0.959064 0.222098
O O9 0.175835 0.545378 0.957136
O O10 0.500000 0.500000 0.000000
O O11 0.241028 0.343230 0.374008
O O12 0.939867 0.377656 0.323013
#
# Coordination Sequence:
#
# PCOD9292466 Si02
#       6
#     8   4   8   8   8   8
#     4  11  25  47  66 108 142 181 230 308 349 404
#     4  12  30  42  68 104 148 182 228 288 374 412
#     4  11  21  41  73 101 138 177 241 288 342 420
#     4  11  22  39  71 113 131 181 237 295 354 400
#     4  10  22  43  72  94 138 183 238 285 342 420
#     4  11  22  43  69 102 134 192 230 278 351 430
#
# _framework density 21.616102999999999
#
# number of rings (size 3 to 8) (size 9 to 14) (size 15 to 20)
#    0.000    1.091    4.545    2.182    5.091    1.455 
#    3.273    0.000    0.000    0.000    0.000    0.000 
#    0.000    0.000    0.000    0.000    0.000    0.000 
#
# Total GULP energy -122623.899311 kJ/mol
# GULP energy per Si atom -5573.813605 kJ/mol
# Density = 2.156690 g / cm^3
# Si number density = 21.616103 Si / 1000 Ang^3
#
#
#
# Elastic Constant Matrix: (Units=GPa)
#
#
# Indices 1 2 3 4 5 6 
#
# 1 87.9967 30.0653 45.4265 0.0000 -13.3292 0.0000
# 2 30.0653 40.9769 29.4406 0.0000 -6.9465 0.0000
# 3 45.4265 29.4406 113.4185 0.0000 -20.0084 0.0000
# 4 0.0000 0.0000 0.0000 24.6412 0.0000 -43.1591
# 5 -13.3292 -6.9465 -20.0084 0.0000 51.2250 0.0000
# 6 0.0000 0.0000 0.0000 -43.1591 0.0000 -92.1216
#
#
#
# Elastic Compliance Matrix: (Units=1/GPa)
#
#
# Indices 1 2 3 4 5 6 
#
# 1 0.016839 -0.009150 -0.004097 0.000000 0.001540 0.000000
# 2 -0.009150 0.035029 -0.005381 0.000000 0.000268 0.000000
# 3 -0.004097 -0.005381 0.012392 0.000000 0.003044 0.000000
# 4 0.000000 0.000000 0.000000 0.022291 0.000000 -0.010443
# 5 0.001540 0.000268 0.003044 0.000000 0.021148 0.000000
# 6 0.000000 0.000000 0.000000 -0.010443 0.000000 -0.005963
#
#
# Mechanical properties :
#
#
# Convention : Reuss Voigt Hill
#
# Bulk Modulus (GPa) = 37.03258 50.25074 43.64166
# Shear Modulus (GPa) = 33.78552 5.91289 19.84921
#
# Velocity S-wave (km/s) = 3.95774 1.65570 3.03357
# Velocity P-wave (km/s) = 6.16880 5.19158 5.70117
#
# Compressibility (1/GPa) = 0.02700325
#
# Stress axis : x y z
#
# Youngs Moduli (GPa) = 59.38666 28.54817 80.69880
#
# Poissons Ratio (x) = 0.26121 0.33066
# Poissons Ratio (y) = 0.54338 0.43421
# Poissons Ratio (z) = 0.24334 0.15361
#
# Static dielectric constant tensor:
#      x y z
#    x 1.978910 0.000000 -0.052430 
#    y 0.000000 1.721300 0.000000 
#    z -0.052430 0.000000 1.810520 
# 
# From -- ./inp_files/136255.got.cif
#   From: 2010.05.17/outbox.cif.g08.bks.cpg/sg15_69_cif.got.tgz:136255.got - 2010.06.03 18:47:42.
