data_PCOD9292941
_publ_section_title
;
Structure prediction by ZEFSAII (Michael W. Deem and Ramdas Pophale) SiO2 
 PCOD9292941
Probable space group: C 2/C
;
_chemical_formula_sum "Si O2"
_cell_formula_units_Z 52
_cell_length_a 25.636037
_cell_length_b 11.812532
_cell_length_c 8.458923
_cell_angle_alpha 90.000000
_cell_angle_beta 61.698928
_cell_angle_gamma 90.000000
_cell_volume 2255.395836
_symmetry_space_group_name_H-M "C 2/C"
_symmetry_group_IT_number 15
_symmetry_cell_setting 'monoclinic'
loop_
_space_group_symop_operation_xyz
x,y,z
-x,y,1/2-z
-x,-y,-z
x,-y,1/2+z
1/2+x,1/2+y,z
1/2-x,1/2+y,1/2-z
1/2-x,1/2-y,-z
1/2+x,1/2-y,1/2+z
loop_
_atom_site_type_symbol
_atom_site_label
_atom_site_fract_x
_atom_site_fract_y
_atom_site_fract_z
Si Si1 0.290750 0.738796 0.789578
Si Si2 0.395546 0.140448 0.574898
Si Si3 0.000000 0.221424 0.750000
Si Si4 0.077379 0.795511 0.418269
Si Si5 0.808853 0.156684 0.210968
Si Si6 0.840326 0.940129 0.007143
Si Si7 0.064334 0.577599 0.634656
O O1 0.359391 0.754465 0.732867
O O2 0.261447 0.826730 0.708732
O O3 0.293163 0.619362 0.693786
O O4 0.250000 0.750000 0.000000
O O5 0.449029 0.206633 0.411177
O O6 0.338680 0.220928 0.649951
O O7 0.410765 0.121198 0.736294
O O8 0.393035 0.016483 0.501023
O O9 0.035545 0.160044 0.840028
O O10 0.097872 0.890636 0.514091
O O11 0.051631 0.685807 0.542261
O O12 0.828034 0.102986 0.349721
O O13 0.833580 0.072620 0.041062
O O14 0.000000 0.521699 0.750000
#
# Coordination Sequence:
#
# PCOD9292941 Si02
#       7
#     8   8   4   8   8   8   8
#     4  10  22  44  70 103 139 190 241 297 368 438
#     4  12  25  39  73  99 144 188 242 298 380 417
#     4  12  22  42  68 104 142 186 244 300 364 444
#     4  10  24  43  72 103 148 189 246 299 375 430
#     4  12  24  47  75 105 149 196 238 312 367 441
#     4  10  25  45  73 105 150 187 245 305 362 444
#     4  12  22  45  66 105 146 186 241 317 357 440
#
# _framework density 23.055820000000001
#
# number of rings (size 3 to 8) (size 9 to 14) (size 15 to 20)
#    0.923    0.000    3.846    3.692    2.154    1.231 
#    0.000    3.846    3.385    0.000    0.000    0.000 
#    0.000    0.000    0.000    0.000    0.000    0.000 
#
# Total GULP energy -145253.886889 kJ/mol
# GULP energy per Si atom -5586.687957 kJ/mol
# Density = 2.300334 g / cm^3
# Si number density = 23.055820 Si / 1000 Ang^3
#
#
#
# Elastic Constant Matrix: (Units=GPa)
#
#
# Indices 1 2 3 4 5 6 
#
# 1 127.9600 27.2717 28.2129 0.0000 27.1976 0.0000
# 2 27.2717 88.6502 7.0631 0.0000 10.2254 0.0000
# 3 28.2129 7.0631 71.4928 0.0000 16.0961 0.0000
# 4 0.0000 0.0000 0.0000 24.6743 0.0000 -3.9174
# 5 27.1976 10.2254 16.0961 0.0000 42.4532 0.0000
# 6 0.0000 0.0000 0.0000 -3.9174 0.0000 24.9023
#
#
#
# Elastic Compliance Matrix: (Units=1/GPa)
#
#
# Indices 1 2 3 4 5 6 
#
# 1 0.009895 -0.002283 -0.002598 0.000000 -0.004805 0.000000
# 2 -0.002283 0.012150 0.000033 0.000000 -0.001476 0.000000
# 3 -0.002598 0.000033 0.016002 0.000000 -0.004411 0.000000
# 4 0.000000 0.000000 0.000000 0.041566 0.000000 0.006539
# 5 -0.004805 -0.001476 -0.004411 0.000000 0.028662 0.000000
# 6 0.000000 0.000000 0.000000 0.006539 0.000000 0.041186
#
#
# Mechanical properties :
#
#
# Convention : Reuss Voigt Hill
#
# Bulk Modulus (GPa) = 35.27005 45.91093 40.59049
# Shear Modulus (GPa) = 29.65464 33.44302 31.54883
#
# Velocity S-wave (km/s) = 3.59027 3.81271 3.70316
# Velocity P-wave (km/s) = 5.70242 6.27204 5.99400
#
# Compressibility (1/GPa) = 0.02835267
#
# Stress axis : x y z
#
# Youngs Moduli (GPa) = 101.05615 82.30261 62.49066
#
# Poissons Ratio (x) = 0.18790 0.16233
# Poissons Ratio (y) = 0.23071 -0.00206
# Poissons Ratio (z) = 0.26251 -0.00271
#
# Static dielectric constant tensor:
#      x y z
#    x 1.880980 0.000000 0.008870 
#    y 0.000000 1.846630 0.000000 
#    z 0.008870 0.000000 1.885280 
# 
# From -- ./inp_files/65094.got.cif
#   From: 2010.05.17/outbox.cif.g08.bks.cpg/sg15_33_cif.got.tgz:65094.got - 2010.06.03 18:47:42.
