data_PCOD9292742
_publ_section_title
;
Structure prediction by ZEFSAII (Michael W. Deem and Ramdas Pophale) SiO2 
 PCOD9292742
Probable space group: C 2/C
;
_chemical_formula_sum "Si O2"
_cell_formula_units_Z 48
_cell_length_a 10.158646
_cell_length_b 27.201001
_cell_length_c 10.508645
_cell_angle_alpha 90.000000
_cell_angle_beta 127.014620
_cell_angle_gamma 90.000000
_cell_volume 2318.635716
_symmetry_space_group_name_H-M "C 2/C"
_symmetry_group_IT_number 15
_symmetry_cell_setting 'monoclinic'
loop_
_space_group_symop_operation_xyz
x,y,z
-x,y,1/2-z
-x,-y,-z
x,-y,1/2+z
1/2+x,1/2+y,z
1/2-x,1/2+y,1/2-z
1/2-x,1/2-y,-z
1/2+x,1/2-y,1/2+z
loop_
_atom_site_type_symbol
_atom_site_label
_atom_site_fract_x
_atom_site_fract_y
_atom_site_fract_z
Si Si1 0.953206 0.197236 0.968440
Si Si2 0.000000 0.983895 0.750000
Si Si3 0.770777 0.072190 0.579947
Si Si4 0.920783 0.704389 0.836433
Si Si5 0.599386 0.599133 0.125133
Si Si6 0.000000 0.845114 0.250000
Si Si7 0.536490 0.130051 0.122714
O O1 0.772699 0.206833 0.807173
O O2 0.059468 0.188084 0.901217
O O3 0.013816 0.241541 0.089444
O O4 0.976701 0.145441 0.052802
O O5 0.014904 0.947197 0.640888
O O6 0.157293 0.020086 0.838618
O O7 0.842382 0.082709 0.481093
O O8 0.577459 0.081927 0.466405
O O9 0.856506 0.116813 0.708166
O O10 0.000000 0.686840 0.750000
O O11 0.974574 0.670579 0.986500
O O12 0.772013 0.617664 0.285844
O O13 0.500000 0.144620 0.250000
#
# Coordination Sequence:
#
# PCOD9292742 Si02
#       7
#     8   4   8   8   8   4   8
#     4  11  24  41  64  93 134 171 218 262 318 382
#     4  11  22  36  70  92 128 168 210 262 341 386
#     4   9  19  41  62  92 123 163 214 269 315 369
#     4  12  26  41  65  96 134 174 212 264 327 384
#     4  10  23  39  64  95 129 168 215 266 320 383
#     4   9  18  38  64  90 120 166 212 266 305 370
#     4  10  22  44  67  92 130 171 218 268 310 381
#
# _framework density 20.701830000000001
#
# number of rings (size 3 to 8) (size 9 to 14) (size 15 to 20)
#    0.000    1.667    1.667    2.000    4.667    1.333 
#    0.000    0.000    0.000    0.000    0.000    0.000 
#    0.000    0.000    0.000    0.000    0.000    0.000 
#
# Total GULP energy -133891.161590 kJ/mol
# GULP energy per Si atom -5578.798400 kJ/mol
# Density = 2.065471 g / cm^3
# Si number density = 20.701830 Si / 1000 Ang^3
#
#
#
# Elastic Constant Matrix: (Units=GPa)
#
#
# Indices 1 2 3 4 5 6 
#
# 1 31.6729 18.8623 26.2444 0.0000 -3.7329 0.0000
# 2 18.8623 102.4052 56.7089 0.0000 -7.0213 0.0000
# 3 26.2444 56.7089 114.9945 0.0000 16.0225 0.0000
# 4 0.0000 0.0000 0.0000 43.4567 0.0000 9.9097
# 5 -3.7329 -7.0213 16.0225 0.0000 26.8800 0.0000
# 6 0.0000 0.0000 0.0000 9.9097 0.0000 42.0926
#
#
#
# Elastic Compliance Matrix: (Units=1/GPa)
#
#
# Indices 1 2 3 4 5 6 
#
# 1 0.042670 -0.000943 -0.010976 0.000000 0.012222 0.000000
# 2 -0.000943 0.015310 -0.008587 0.000000 0.008987 0.000000
# 3 -0.010976 -0.008587 0.017406 0.000000 -0.014143 0.000000
# 4 0.000000 0.000000 0.000000 0.024317 0.000000 -0.005725
# 5 0.012222 0.008987 -0.014143 0.000000 0.049677 0.000000
# 6 0.000000 0.000000 0.000000 -0.005725 0.000000 0.025105
#
#
# Mechanical properties :
#
#
# Convention : Reuss Voigt Hill
#
# Bulk Modulus (GPa) = 29.09210 50.30044 39.69627
# Shear Modulus (GPa) = 22.03076 32.30300 27.16688
#
# Velocity S-wave (km/s) = 3.26574 3.95447 3.62649
# Velocity P-wave (km/s) = 5.32010 6.72315 6.06235
#
# Compressibility (1/GPa) = 0.03437359
#
# Stress axis : x y z
#
# Youngs Moduli (GPa) = 23.43586 65.31554 57.45081
#
# Poissons Ratio (x) = 0.06162 0.63057
# Poissons Ratio (y) = 0.02211 0.49333
# Poissons Ratio (z) = 0.25723 0.56087
#
# Static dielectric constant tensor:
#      x y z
#    x 1.796750 0.000000 0.002810 
#    y 0.000000 1.716170 0.000000 
#    z 0.002810 0.000000 1.818420 
# 
# From -- ./inp_files/91010.got.cif
#   From: 2010.05.17/outbox.cif.g08.bks.cpg/sg15_46_cif.got.tgz:91010.got - 2010.06.03 18:47:42.
