data_PCOD9292870
_publ_section_title
;
Structure prediction by ZEFSAII (Michael W. Deem and Ramdas Pophale) SiO2 
 PCOD9292870
Probable space group: C 2/C
;
_chemical_formula_sum "Si O2"
_cell_formula_units_Z 60
_cell_length_a 20.305705
_cell_length_b 23.094736
_cell_length_c 12.007688
_cell_angle_alpha 90.000000
_cell_angle_beta 27.702830
_cell_angle_gamma 90.000000
_cell_volume 2617.801602
_symmetry_space_group_name_H-M "C 2/C"
_symmetry_group_IT_number 15
_symmetry_cell_setting 'monoclinic'
loop_
_space_group_symop_operation_xyz
x,y,z
-x,y,1/2-z
-x,-y,-z
x,-y,1/2+z
1/2+x,1/2+y,z
1/2-x,1/2+y,1/2-z
1/2-x,1/2-y,-z
1/2+x,1/2-y,1/2+z
loop_
_atom_site_type_symbol
_atom_site_label
_atom_site_fract_x
_atom_site_fract_y
_atom_site_fract_z
Si Si1 0.832395 0.847371 0.873089
Si Si2 0.124614 0.421880 0.327307
Si Si3 0.534760 0.819630 0.575291
Si Si4 0.566829 0.562436 0.431002
Si Si5 0.279662 0.752721 0.614619
Si Si6 0.000000 0.127238 0.750000
Si Si7 0.391420 0.037362 0.013839
Si Si8 0.770183 0.706884 0.365792
O O1 0.950238 0.885263 0.633559
O O2 0.736600 0.813484 0.924497
O O3 0.748810 0.895638 0.067379
O O4 0.858054 0.794193 0.920337
O O5 0.118204 0.379071 0.443295
O O6 0.143576 0.484424 0.351084
O O7 0.989427 0.422348 0.445996
O O8 0.500000 0.798548 0.750000
O O9 0.622062 0.773501 0.372690
O O10 0.389412 0.834286 0.734308
O O11 0.500000 0.500000 0.500000
O O12 0.495598 0.586669 0.649176
O O13 0.738043 0.557612 0.197312
O O14 0.328461 0.761720 0.667990
O O15 0.133974 0.169648 0.540903
O O16 0.500000 0.021819 0.750000
O O17 0.750000 0.750000 0.500000
#
# Coordination Sequence:
#
# PCOD9292870 Si02
#       8
#     8   8   8   8   8   4   8   8
#     4  10  22  46  70 101 148 186 241 307 366 444
#     4  10  23  39  70 100 134 177 237 302 361 419
#     4  11  22  39  65 102 137 180 235 296 360 431
#     4  12  28  47  73 106 150 202 245 301 379 452
#     4  10  22  44  69 104 143 187 240 302 373 440
#     4  12  28  48  72 102 156 196 248 308 372 466
#     4  11  23  45  72 101 135 183 247 302 358 426
#     4  12  23  42  71 101 144 189 238 297 377 441
#
# _framework density 22.919996000000001
#
# number of rings (size 3 to 8) (size 9 to 14) (size 15 to 20)
#    0.000    1.067    4.000    2.000    1.867    2.133 
#    0.000    3.333    0.000    0.000    0.000    0.000 
#    0.000    0.000    0.000    0.000    0.000    0.000 
#
# Total GULP energy -167411.184026 kJ/mol
# GULP energy per Si atom -5580.372801 kJ/mol
# Density = 2.286783 g / cm^3
# Si number density = 22.919996 Si / 1000 Ang^3
#
#
#
# Elastic Constant Matrix: (Units=GPa)
#
#
# Indices 1 2 3 4 5 6 
#
# 1 95.5371 31.1565 31.5874 -0.0032 24.3019 0.0015
# 2 31.1565 102.6101 37.1772 -0.0049 37.0284 0.0013
# 3 31.5874 37.1772 71.9346 -0.0106 31.2417 0.0038
# 4 -0.0032 -0.0049 -0.0106 26.4262 0.0032 15.6135
# 5 24.3019 37.0284 31.2417 0.0032 51.9097 -0.0015
# 6 0.0015 0.0013 0.0038 15.6135 -0.0015 12.0865
#
#
#
# Elastic Compliance Matrix: (Units=1/GPa)
#
#
# Indices 1 2 3 4 5 6 
#
# 1 0.012886 -0.001622 -0.003659 0.000002 -0.002673 -0.000003
# 2 -0.001622 0.014089 -0.003431 0.000011 -0.007225 -0.000015
# 3 -0.003659 -0.003431 0.020951 0.000052 -0.008449 -0.000075
# 4 0.000002 0.000011 0.000052 0.159831 -0.000056 -0.206471
# 5 -0.002673 -0.007225 -0.008449 -0.000056 0.030755 0.000080
# 6 -0.000003 -0.000015 -0.000075 -0.206471 0.000080 0.349458
#
#
# Mechanical properties :
#
#
# Convention : Reuss Voigt Hill
#
# Bulk Modulus (GPa) = 32.78555 52.21377 42.49966
# Shear Modulus (GPa) = 8.12268 29.42854 18.77561
#
# Velocity S-wave (km/s) = 1.88457 3.58714 2.86524
# Velocity P-wave (km/s) = 4.36702 6.32353 5.43406
#
# Compressibility (1/GPa) = 0.03050124
#
# Stress axis : x y z
#
# Youngs Moduli (GPa) = 77.60385 70.97895 47.73104
#
# Poissons Ratio (x) = 0.11515 0.17464
# Poissons Ratio (y) = 0.12590 0.16376
# Poissons Ratio (z) = 0.28394 0.24352
#
# Static dielectric constant tensor:
#      x y z
#    x 1.907950 0.000000 -0.002030 
#    y 0.000000 1.834750 0.000000 
#    z -0.002030 0.000000 1.887090 
# 
# From -- ./inp_files/114802.got.cif
#   From: 2010.05.17/outbox.cif.g08.bks.cpg/sg15_58_cif.got.tgz:114802.got - 2010.06.03 18:47:42.
