data_PCOD9292801
_publ_section_title
;
Structure prediction by ZEFSAII (Michael W. Deem and Ramdas Pophale) SiO2 
 PCOD9292801
Probable space group: C 2/C
;
_chemical_formula_sum "Si O2"
_cell_formula_units_Z 48
_cell_length_a 23.470388
_cell_length_b 13.029208
_cell_length_c 9.916079
_cell_angle_alpha 90.000000
_cell_angle_beta 46.182105
_cell_angle_gamma 90.000000
_cell_volume 2187.968651
_symmetry_space_group_name_H-M "C 2/C"
_symmetry_group_IT_number 15
_symmetry_cell_setting 'monoclinic'
loop_
_space_group_symop_operation_xyz
x,y,z
-x,y,1/2-z
-x,-y,-z
x,-y,1/2+z
1/2+x,1/2+y,z
1/2-x,1/2+y,1/2-z
1/2-x,1/2-y,-z
1/2+x,1/2-y,1/2+z
loop_
_atom_site_type_symbol
_atom_site_label
_atom_site_fract_x
_atom_site_fract_y
_atom_site_fract_z
Si Si1 0.632867 0.271462 0.327031
Si Si2 0.166317 0.677161 0.690293
Si Si3 0.003332 0.596968 0.591224
Si Si4 0.691870 0.451173 0.423865
Si Si5 0.446857 0.554682 0.702572
Si Si6 0.761651 0.831027 0.757234
O O1 0.574201 0.177948 0.458718
O O2 0.648121 0.364709 0.407525
O O3 0.591042 0.335040 0.275709
O O4 0.718739 0.215220 0.195420
O O5 0.225692 0.592336 0.654398
O O6 0.166149 0.766286 0.803029
O O7 0.202842 0.690948 0.480439
O O8 0.077135 0.653556 0.809315
O O9 0.000000 0.559963 0.750000
O O10 0.000000 0.500000 0.500000
O O11 0.629421 0.484432 0.639343
O O12 0.714947 0.552423 0.302820
O O13 0.500000 0.561887 0.750000
O O14 0.500000 0.500000 0.500000
#
# Coordination Sequence:
#
# PCOD9292801 Si02
#       6
#     8   8   8   8   8   8
#     4  11  25  45  75 106 145 199 240 305 372 436
#     4  10  23  40  73  99 143 194 241 290 362 444
#     4  12  27  48  74 103 145 194 244 301 364 443
#     4  11  24  45  74 108 145 189 252 302 367 438
#     4  12  27  44  73 113 150 194 250 311 374 442
#     4  10  22  44  68 106 142 191 241 298 365 433
#
# _framework density 21.938157
#
# number of rings (size 3 to 8) (size 9 to 14) (size 15 to 20)
#    0.000    1.000    3.333    2.000    4.667    1.333 
#    0.000    0.000    0.000    0.000    0.000    0.000 
#    0.000    0.000    0.000    0.000    0.000    0.000 
#
# Total GULP energy -133929.678515 kJ/mol
# GULP energy per Si atom -5580.403271 kJ/mol
# Density = 2.188823 g / cm^3
# Si number density = 21.938157 Si / 1000 Ang^3
#
#
#
# Elastic Constant Matrix: (Units=GPa)
#
#
# Indices 1 2 3 4 5 6 
#
# 1 172.6913 61.5245 27.8993 0.0000 7.0287 0.0000
# 2 61.5245 135.0843 30.6925 0.0000 18.4980 0.0000
# 3 27.8993 30.6925 19.1734 0.0000 5.2508 0.0000
# 4 0.0000 0.0000 0.0000 15.0265 0.0000 1.3421
# 5 7.0287 18.4980 5.2508 0.0000 22.7191 0.0000
# 6 0.0000 0.0000 0.0000 1.3421 0.0000 37.5377
#
#
#
# Elastic Compliance Matrix: (Units=1/GPa)
#
#
# Indices 1 2 3 4 5 6 
#
# 1 0.007785 -0.001645 -0.008969 0.000000 0.001004 0.000000
# 2 -0.001645 0.012668 -0.016227 0.000000 -0.006055 0.000000
# 3 -0.008969 -0.016227 0.092669 0.000000 -0.005431 0.000000
# 4 0.000000 0.000000 0.000000 0.066762 0.000000 -0.002387
# 5 0.001004 -0.006055 -0.005431 0.000000 0.049891 0.000000
# 6 0.000000 0.000000 0.000000 -0.002387 0.000000 0.026725
#
#
# Mechanical properties :
#
#
# Convention : Reuss Voigt Hill
#
# Bulk Modulus (GPa) = 16.82367 63.02018 39.92192
# Shear Modulus (GPa) = 15.15170 28.84551 21.99861
#
# Velocity S-wave (km/s) = 2.63088 3.63003 3.17007
# Velocity P-wave (km/s) = 4.11267 6.80868 5.62460
#
# Compressibility (1/GPa) = 0.05944008
#
# Stress axis : x y z
#
# Youngs Moduli (GPa) = 128.45211 78.93788 10.79109
#
# Poissons Ratio (x) = 0.12988 0.09679
# Poissons Ratio (y) = 0.21135 0.17510
# Poissons Ratio (z) = 1.15210 1.28090
#
# Static dielectric constant tensor:
#      x y z
#    x 1.839080 0.000000 0.027010 
#    y 0.000000 1.788820 0.000000 
#    z 0.027010 0.000000 1.822430 
# 
# From -- ./inp_files/111430.got.cif
#   From: 2010.05.17/outbox.cif.g08.bks.cpg/sg15_56_cif.got.tgz:111430.got - 2010.06.03 18:47:42.
