data_PCOD9292622
_publ_section_title
;
Structure prediction by ZEFSAII (Michael W. Deem and Ramdas Pophale) SiO2 
 PCOD9292622
Probable space group: C 2/C
;
_chemical_formula_sum "Si O2"
_cell_formula_units_Z 48
_cell_length_a 10.303229
_cell_length_b 15.054211
_cell_length_c 13.033611
_cell_angle_alpha 90.000000
_cell_angle_beta 102.677126
_cell_angle_gamma 90.000000
_cell_volume 1972.321894
_symmetry_space_group_name_H-M "C 2/C"
_symmetry_group_IT_number 15
_symmetry_cell_setting 'monoclinic'
loop_
_space_group_symop_operation_xyz
x,y,z
-x,y,1/2-z
-x,-y,-z
x,-y,1/2+z
1/2+x,1/2+y,z
1/2-x,1/2+y,1/2-z
1/2-x,1/2-y,-z
1/2+x,1/2-y,1/2+z
loop_
_atom_site_type_symbol
_atom_site_label
_atom_site_fract_x
_atom_site_fract_y
_atom_site_fract_z
Si Si1 0.528287 0.723105 0.977048
Si Si2 0.120473 0.197733 0.348966
Si Si3 0.221234 0.456591 0.533774
Si Si4 0.708093 0.866621 0.910511
Si Si5 0.866115 0.502696 0.279864
Si Si6 0.707105 0.641321 0.659976
O O1 0.586245 0.803517 0.920971
O O2 0.448892 0.652887 0.891648
O O3 0.423666 0.741566 0.049935
O O4 0.655917 0.687832 0.060864
O O5 0.166069 0.098013 0.384473
O O6 0.235482 0.259570 0.321964
O O7 0.000000 0.197358 0.250000
O O8 0.235527 0.556671 0.498593
O O9 0.107797 0.463524 0.600776
O O10 0.222133 0.403497 0.427231
O O11 0.681705 0.916377 0.799598
O O12 0.755994 0.424405 0.257639
O O13 0.000000 0.467648 0.250000
#
# Coordination Sequence:
#
# PCOD9292622 Si02
#       6
#     8   8   8   8   8   8
#     4  10  22  44  65  92 133 173 215 269 334 389
#     4  11  23  39  69  94 132 174 220 266 330 396
#     4  10  23  42  64  96 126 171 218 268 326 382
#     4  10  24  42  67  94 131 172 215 276 328 383
#     4  11  25  40  65  98 131 171 223 273 323 396
#     4  10  24  42  66  95 130 178 214 272 329 391
#
# _framework density 24.336798000000002
#
# number of rings (size 3 to 8) (size 9 to 14) (size 15 to 20)
#    0.000    1.667    0.000    3.500    9.333    8.667 
#    0.000    0.000    0.000    0.000    0.000    0.000 
#    0.000    0.000    0.000    0.000    0.000    0.000 
#
# Total GULP energy -134090.234530 kJ/mol
# GULP energy per Si atom -5587.093105 kJ/mol
# Density = 2.428141 g / cm^3
# Si number density = 24.336798 Si / 1000 Ang^3
#
#
#
# Elastic Constant Matrix: (Units=GPa)
#
#
# Indices 1 2 3 4 5 6 
#
# 1 70.2981 32.1580 12.1456 0.0000 3.1817 0.0000
# 2 32.1580 91.3010 21.0720 0.0000 -4.7380 0.0000
# 3 12.1456 21.0720 92.9743 0.0000 6.1428 0.0000
# 4 0.0000 0.0000 0.0000 14.1951 0.0000 -1.4962
# 5 3.1817 -4.7380 6.1428 0.0000 35.9588 0.0000
# 6 0.0000 0.0000 0.0000 -1.4962 0.0000 21.5295
#
#
#
# Elastic Compliance Matrix: (Units=1/GPa)
#
#
# Indices 1 2 3 4 5 6 
#
# 1 0.017197 -0.005999 -0.000742 0.000000 -0.002185 0.000000
# 2 -0.005999 0.013793 -0.002526 0.000000 0.002780 0.000000
# 3 -0.000742 -0.002526 0.011573 0.000000 -0.002244 0.000000
# 4 0.000000 0.000000 0.000000 0.070967 0.000000 0.004932
# 5 -0.002185 0.002780 -0.002244 0.000000 0.028753 0.000000
# 6 0.000000 0.000000 0.000000 0.004932 0.000000 0.046791
#
#
# Mechanical properties :
#
#
# Convention : Reuss Voigt Hill
#
# Bulk Modulus (GPa) = 41.61818 42.81385 42.21601
# Shear Modulus (GPa) = 23.18920 26.94986 25.06953
#
# Velocity S-wave (km/s) = 3.09017 3.33133 3.21301
# Velocity P-wave (km/s) = 5.46537 5.69451 5.58111
#
# Compressibility (1/GPa) = 0.02402796
#
# Stress axis : x y z
#
# Youngs Moduli (GPa) = 58.15116 72.50049 86.40470
#
# Poissons Ratio (x) = 0.43493 0.06415
# Poissons Ratio (y) = 0.34885 0.21827
# Poissons Ratio (z) = 0.04317 0.18314
#
# Static dielectric constant tensor:
#      x y z
#    x 1.958090 0.000000 -0.041180 
#    y 0.000000 1.954710 0.000000 
#    z -0.041180 0.000000 1.953210 
# 
# From -- ./inp_files/143823.got.cif
#   From: 2010.05.17/outbox.cif.g08.bks.cpg/sg15_72_cif.got.tgz:143823.got - 2010.06.03 18:47:42.
