data_PCOD9292765
_publ_section_title
;
Structure prediction by ZEFSAII (Michael W. Deem and Ramdas Pophale) SiO2 
 PCOD9292765
Probable space group: C 2/C
;
_chemical_formula_sum "Si O2"
_cell_formula_units_Z 44
_cell_length_a 12.244559
_cell_length_b 24.231371
_cell_length_c 11.669266
_cell_angle_alpha 90.000000
_cell_angle_beta 140.990935
_cell_angle_gamma 90.000000
_cell_volume 2179.321567
_symmetry_space_group_name_H-M "C 2/C"
_symmetry_group_IT_number 15
_symmetry_cell_setting 'monoclinic'
loop_
_space_group_symop_operation_xyz
x,y,z
-x,y,1/2-z
-x,-y,-z
x,-y,1/2+z
1/2+x,1/2+y,z
1/2-x,1/2+y,1/2-z
1/2-x,1/2-y,-z
1/2+x,1/2-y,1/2+z
loop_
_atom_site_type_symbol
_atom_site_label
_atom_site_fract_x
_atom_site_fract_y
_atom_site_fract_z
Si Si1 0.289453 0.699352 0.191018
Si Si2 0.738836 0.917515 0.214431
Si Si3 0.500000 0.462932 0.250000
Si Si4 0.574891 0.129801 0.191797
Si Si5 0.311470 0.987297 0.652898
Si Si6 0.196621 0.821898 0.052740
O O1 0.172535 0.674086 0.194874
O O2 0.271433 0.765182 0.165406
O O3 0.489393 0.685027 0.375578
O O4 0.236631 0.674480 0.023753
O O5 0.903523 0.926303 0.266733
O O6 0.704052 0.975662 0.247624
O O7 0.762486 0.873268 0.334278
O O8 0.581383 0.897162 0.007588
O O9 0.651818 0.497834 0.436102
O O10 0.500000 0.152709 0.250000
O O11 0.694948 0.077567 0.322007
O O12 0.500000 0.997146 0.750000
#
# Coordination Sequence:
#
# PCOD9292765 Si02
#       6
#     8   8   4   8   8   8
#     4  10  22  44  67  97 134 168 225 278 328 399
#     4  12  25  41  68  96 134 180 216 280 333 392
#     4  12  24  44  64  96 142 170 226 272 328 406
#     4  11  23  44  67  95 137 176 218 273 332 396
#     4  11  25  44  66  98 136 176 223 274 332 398
#     4  10  23  41  68  99 128 173 223 278 331 392
#
# _framework density 20.189771
#
# number of rings (size 3 to 8) (size 9 to 14) (size 15 to 20)
#    0.000    1.091    3.636    3.273    2.545    2.909 
#    1.636    1.818    0.000    0.000    0.000    0.000 
#    0.000    0.000    0.000    0.000    0.000    0.000 
#
# Total GULP energy -123047.281227 kJ/mol
# GULP energy per Si atom -5593.058238 kJ/mol
# Density = 2.014382 g / cm^3
# Si number density = 20.189771 Si / 1000 Ang^3
#
#
#
# Elastic Constant Matrix: (Units=GPa)
#
#
# Indices 1 2 3 4 5 6 
#
# 1 129.2661 48.5307 11.9133 0.0000 -19.5582 0.0000
# 2 48.5307 30.6760 -3.7537 0.0000 -13.4079 0.0000
# 3 11.9133 -3.7537 89.5844 0.0000 5.0333 0.0000
# 4 0.0000 0.0000 0.0000 55.6317 0.0000 -177.9769
# 5 -19.5582 -13.4079 5.0333 0.0000 25.7988 0.0000
# 6 0.0000 0.0000 0.0000 -177.9769 0.0000 549.0230
#
#
#
# Elastic Compliance Matrix: (Units=1/GPa)
#
#
# Indices 1 2 3 4 5 6 
#
# 1 0.020465 -0.033313 -0.004061 0.000000 -0.001006 0.000000
# 2 -0.033313 0.096433 0.007152 0.000000 0.023467 0.000000
# 3 -0.004061 0.007152 0.012099 0.000000 -0.001722 0.000000
# 4 0.000000 0.000000 0.000000 -0.484704 0.000000 -0.157126
# 5 -0.001006 0.023467 -0.001722 0.000000 0.050531 0.000000
# 6 0.000000 0.000000 0.000000 -0.157126 0.000000 -0.049114
#
#
# Mechanical properties :
#
#
# Convention : Reuss Voigt Hill
#
# Bulk Modulus (GPa) = 14.58691 40.32300 27.45496
# Shear Modulus (GPa) = -18.45043 138.94644 60.24800
#
# Velocity S-wave (km/s) = -3.02628 8.30479 5.46860
# Velocity P-wave (km/s) = 2.22947 10.58182 7.31452
#
# Compressibility (1/GPa) = 0.06855462
#
# Stress axis : x y z
#
# Youngs Moduli (GPa) = 48.86481 10.36987 82.65062
#
# Poissons Ratio (x) = 0.34545 0.33563
# Poissons Ratio (y) = 1.62782 -0.59114
# Poissons Ratio (z) = 0.19843 -0.07417
#
# Static dielectric constant tensor:
#      x y z
#    x 1.710200 0.000000 -0.003110 
#    y 0.000000 1.675630 0.000000 
#    z -0.003110 0.000000 1.740560 
# 
# From -- ./inp_files/91361.got.cif
#   From: 2010.05.17/outbox.cif.g08.bks.cpg/sg15_46_cif.got.tgz:91361.got - 2010.06.03 18:47:42.
