data_PCOD9292165
_publ_section_title
;
Structure prediction by ZEFSAII (Michael W. Deem and Ramdas Pophale) SiO2 
 PCOD9292165
Probable space group: C 2/C
;
_chemical_formula_sum "Si O2"
_cell_formula_units_Z 36
_cell_length_a 24.364346
_cell_length_b 7.257116
_cell_length_c 9.005867
_cell_angle_alpha 90.000000
_cell_angle_beta 82.741148
_cell_angle_gamma 90.000000
_cell_volume 1579.609185
_symmetry_space_group_name_H-M "C 2/C"
_symmetry_group_IT_number 15
_symmetry_cell_setting 'monoclinic'
loop_
_space_group_symop_operation_xyz
x,y,z
-x,y,1/2-z
-x,-y,-z
x,-y,1/2+z
1/2+x,1/2+y,z
1/2-x,1/2+y,1/2-z
1/2-x,1/2-y,-z
1/2+x,1/2-y,1/2+z
loop_
_atom_site_type_symbol
_atom_site_label
_atom_site_fract_x
_atom_site_fract_y
_atom_site_fract_z
Si Si1 0.279917 0.381671 0.285109
Si Si2 0.500000 0.516017 0.750000
Si Si3 0.166050 0.166013 0.032973
Si Si4 0.830546 0.591265 0.490599
Si Si5 0.923395 0.128783 0.032295
O O1 0.313733 0.560850 0.327808
O O2 0.286010 0.363873 0.107789
O O3 0.219291 0.397875 0.373870
O O4 0.309378 0.208805 0.355829
O O5 0.467798 0.633790 0.884022
O O6 0.455653 0.395580 0.674575
O O7 0.156240 0.381183 0.051583
O O8 0.113843 0.053625 0.986037
O O9 0.883129 0.698422 0.536320
#
# Coordination Sequence:
#
# PCOD9292165 Si02
#       5
#     8   4   8   8   8
#     4  10  24  40  62 100 142 179 208 253 333 388
#     4  10  22  46  66  86 130 170 218 302 328 368
#     4  11  23  42  68  98 139 175 213 269 320 408
#     4  10  23  39  63  98 133 174 216 257 316 408
#     4  10  22  43  67  92 125 172 225 269 342 376
#
# _framework density 22.790448000000001
#
# number of rings (size 3 to 8) (size 9 to 14) (size 15 to 20)
#    0.000    1.778    0.000    3.333    9.333    5.333 
#    0.000    6.667    0.000    0.000    0.000    0.000 
#    0.000    0.000    0.000    0.000    0.000    0.000 
#
# Total GULP energy -100964.132644 kJ/mol
# GULP energy per Si atom -5609.118480 kJ/mol
# Density = 2.273858 g / cm^3
# Si number density = 22.790448 Si / 1000 Ang^3
#
#
#
# Elastic Constant Matrix: (Units=GPa)
#
#
# Indices 1 2 3 4 5 6 
#
# 1 115.0868 61.7517 23.2240 0.0000 21.3872 0.0000
# 2 61.7517 212.2036 27.2164 0.0000 19.6022 0.0000
# 3 23.2240 27.2164 101.8407 0.0000 13.3098 0.0000
# 4 0.0000 0.0000 0.0000 25.2083 0.0000 0.9431
# 5 21.3872 19.6022 13.3098 0.0000 35.4945 0.0000
# 6 0.0000 0.0000 0.0000 0.9431 0.0000 22.4175
#
#
#
# Elastic Compliance Matrix: (Units=1/GPa)
#
#
# Indices 1 2 3 4 5 6 
#
# 1 0.011274 -0.002675 -0.001221 0.000000 -0.004858 0.000000
# 2 -0.002675 0.005703 -0.000750 0.000000 -0.001256 0.000000
# 3 -0.001221 -0.000750 0.010671 0.000000 -0.002851 0.000000
# 4 0.000000 0.000000 0.000000 0.039732 0.000000 -0.001672
# 5 -0.004858 -0.001256 -0.002851 0.000000 0.032863 0.000000
# 6 0.000000 0.000000 0.000000 -0.001672 0.000000 0.044678
#
#
# Mechanical properties :
#
#
# Convention : Reuss Voigt Hill
#
# Bulk Modulus (GPa) = 54.48053 72.61280 63.54667
# Shear Modulus (GPa) = 31.18522 37.75335 34.46929
#
# Velocity S-wave (km/s) = 3.70313 4.07448 3.89323
# Velocity P-wave (km/s) = 6.49932 7.35292 6.93926
#
# Compressibility (1/GPa) = 0.01835518
#
# Stress axis : x y z
#
# Youngs Moduli (GPa) = 88.70191 175.33946 93.71397
#
# Poissons Ratio (x) = 0.46909 0.11443
# Poissons Ratio (y) = 0.23731 0.07027
# Poissons Ratio (z) = 0.10831 0.13148
#
# Static dielectric constant tensor:
#      x y z
#    x 1.861590 0.000000 -0.006160 
#    y 0.000000 1.835770 0.000000 
#    z -0.006160 0.000000 1.866550 
# 
# From -- ./inp_files/64386.got.cif
#   From: 2010.05.17/outbox.cif.g08.bks.cpg/sg15_33_cif.got.tgz:64386.got - 2010.06.03 18:47:42.
