data_PCOD9292136
_publ_section_title
;
Structure prediction by ZEFSAII (Michael W. Deem and Ramdas Pophale) SiO2 
 PCOD9292136
Probable space group: C 2/C
;
_chemical_formula_sum "Si O2"
_cell_formula_units_Z 32
_cell_length_a 24.910036
_cell_length_b 7.138321
_cell_length_c 13.932007
_cell_angle_alpha 90.000000
_cell_angle_beta 27.369035
_cell_angle_gamma 90.000000
_cell_volume 1138.878572
_symmetry_space_group_name_H-M "C 2/C"
_symmetry_group_IT_number 15
_symmetry_cell_setting 'monoclinic'
loop_
_space_group_symop_operation_xyz
x,y,z
-x,y,1/2-z
-x,-y,-z
x,-y,1/2+z
1/2+x,1/2+y,z
1/2-x,1/2+y,1/2-z
1/2-x,1/2-y,-z
1/2+x,1/2-y,1/2+z
loop_
_atom_site_type_symbol
_atom_site_label
_atom_site_fract_x
_atom_site_fract_y
_atom_site_fract_z
Si Si1 0.887704 0.718934 0.774205
Si Si2 0.616000 0.650811 0.945062
Si Si3 0.147156 0.403286 0.371430
Si Si4 0.199636 0.632094 0.991051
O O1 0.918421 0.682095 0.614057
O O2 0.978266 0.871240 0.671097
O O3 0.750000 0.750000 0.000000
O O4 0.889850 0.520499 0.826922
O O5 0.712316 0.609787 0.872468
O O6 0.680065 0.558460 0.751263
O O7 0.623665 0.876678 0.918714
O O8 0.138290 0.299509 0.488579
O O9 0.250000 0.750000 0.000000
#
# Coordination Sequence:
#
# PCOD9292136 Si02
#       4
#     8   8   8   8
#     4  12  24  43  72  99 140 185 226 291 354 407
#     4  10  24  46  67 102 139 175 243 282 336 439
#     4  10  22  43  67 100 137 179 235 285 344 418
#     4  10  23  43  68 102 136 181 231 281 358 406
#
# _framework density 28.097814
#
# number of rings (size 3 to 8) (size 9 to 14) (size 15 to 20)
#    1.500    0.000    2.500    2.250    0.000    5.000 
#    0.000    0.000   11.000    0.000    0.000    0.000 
#    0.000    0.000    0.000    0.000    0.000    0.000 
#
# Total GULP energy -89254.017481 kJ/mol
# GULP energy per Si atom -5578.376093 kJ/mol
# Density = 2.803386 g / cm^3
# Si number density = 28.097814 Si / 1000 Ang^3
#
#
#
# Elastic Constant Matrix: (Units=GPa)
#
#
# Indices 1 2 3 4 5 6 
#
# 1 199.8879 6.3953 30.3159 0.0000 20.7814 0.0000
# 2 6.3953 57.6578 0.9447 -0.0001 -0.9925 0.0000
# 3 30.3159 0.9447 152.5510 0.0000 -17.8762 0.0000
# 4 0.0000 -0.0001 0.0000 50.3634 0.0000 -13.9410
# 5 20.7814 -0.9925 -17.8762 0.0000 53.2609 0.0000
# 6 0.0000 0.0000 0.0000 -13.9410 0.0000 22.5856
#
#
#
# Elastic Compliance Matrix: (Units=1/GPa)
#
#
# Indices 1 2 3 4 5 6 
#
# 1 0.005509 -0.000633 -0.001399 0.000000 -0.002631 0.000000
# 2 -0.000633 0.017423 0.000088 0.000000 0.000601 0.000000
# 3 -0.001399 0.000088 0.007179 0.000000 0.002957 0.000000
# 4 0.000000 0.000000 0.000000 0.023947 0.000000 0.014781
# 5 -0.002631 0.000601 0.002957 0.000000 0.020806 0.000000
# 6 0.000000 0.000000 0.000000 0.014781 0.000000 0.053400
#
#
# Mechanical properties :
#
#
# Convention : Reuss Voigt Hill
#
# Bulk Modulus (GPa) = 38.13476 53.93428 46.03452
# Shear Modulus (GPa) = 35.48796 50.07135 42.77966
#
# Velocity S-wave (km/s) = 3.55775 4.22600 3.90619
# Velocity P-wave (km/s) = 5.52072 6.56117 6.06330
#
# Compressibility (1/GPa) = 0.02622279
#
# Stress axis : x y z
#
# Youngs Moduli (GPa) = 181.52854 57.39580 139.29133
#
# Poissons Ratio (x) = 0.03635 0.19488
# Poissons Ratio (y) = 0.11498 -0.01232
# Poissons Ratio (z) = 0.25398 -0.00508
#
# Static dielectric constant tensor:
#      x y z
#    x 2.183610 0.000000 -0.056700 
#    y 0.000000 2.347000 0.000000 
#    z -0.056700 0.000000 2.316690 
# 
# From -- ./inp_files/116090.got.cif
#   From: 2010.05.17/outbox.cif.g08.bks.cpg/sg15_59_cif.got.tgz:116090.got - 2010.06.03 18:47:42.
