data_PCOD9292682
_publ_section_title
;
Structure prediction by ZEFSAII (Michael W. Deem and Ramdas Pophale) SiO2 
 PCOD9292682
Probable space group: C 2/C
;
_chemical_formula_sum "Si O2"
_cell_formula_units_Z 56
_cell_length_a 13.141465
_cell_length_b 24.183739
_cell_length_c 7.995267
_cell_angle_alpha 90.000000
_cell_angle_beta 112.627735
_cell_angle_gamma 90.000000
_cell_volume 2345.380092
_symmetry_space_group_name_H-M "C 2/C"
_symmetry_group_IT_number 15
_symmetry_cell_setting 'monoclinic'
loop_
_space_group_symop_operation_xyz
x,y,z
-x,y,1/2-z
-x,-y,-z
x,-y,1/2+z
1/2+x,1/2+y,z
1/2-x,1/2+y,1/2-z
1/2-x,1/2-y,-z
1/2+x,1/2-y,1/2+z
loop_
_atom_site_type_symbol
_atom_site_label
_atom_site_fract_x
_atom_site_fract_y
_atom_site_fract_z
Si Si1 0.122204 0.178024 0.828825
Si Si2 0.886265 0.059461 0.770150
Si Si3 0.941766 0.445859 0.884808
Si Si4 0.256909 0.502304 0.414888
Si Si5 0.675510 0.882300 0.456986
Si Si6 0.199038 0.274115 0.293489
Si Si7 0.608009 0.339875 0.705993
O O1 0.123159 0.124792 0.704706
O O2 0.213527 0.218024 0.804262
O O3 0.000000 0.203812 0.750000
O O4 0.127181 0.149536 0.017944
O O5 0.872606 0.019634 0.917931
O O6 0.000000 0.051511 0.750000
O O7 0.784992 0.039480 0.590824
O O8 0.817573 0.462285 0.755069
O O9 0.930105 0.392781 0.993500
O O10 0.000000 0.432448 0.750000
O O11 0.000000 0.500000 0.000000
O O12 0.194238 0.444199 0.400058
O O13 0.656530 0.834709 0.311168
O O14 0.784929 0.864042 0.630461
O O15 0.250000 0.250000 0.500000
O O16 0.110980 0.227057 0.198576
O O17 0.500000 0.356165 0.750000
#
# Coordination Sequence:
#
# PCOD9292682 Si02
#       7
#     8   8   8   8   8   8   8
#     4  11  22  40  68  97 133 178 223 277 344 406
#     4  11  24  37  63 101 141 180 221 269 340 416
#     4  12  24  44  68  95 135 181 230 279 340 410
#     4  12  22  42  62  97 137 177 224 279 327 413
#     4  11  23  43  67  95 134 177 220 284 340 409
#     4  10  22  44  66  93 132 171 226 287 342 401
#     4  11  25  44  69 100 132 176 228 285 348 409
#
# _framework density 23.876726999999999
#
# number of rings (size 3 to 8) (size 9 to 14) (size 15 to 20)
#    0.000    0.857    4.286    3.429    2.000    0.571 
#    2.571    5.714    0.000    0.000    0.000    0.000 
#    0.000    0.000    0.000    0.000    0.000    0.000 
#
# Total GULP energy -156212.994120 kJ/mol
# GULP energy per Si atom -5579.035504 kJ/mol
# Density = 2.382238 g / cm^3
# Si number density = 23.876727 Si / 1000 Ang^3
#
#
#
# Elastic Constant Matrix: (Units=GPa)
#
#
# Indices 1 2 3 4 5 6 
#
# 1 116.3241 32.0362 5.6437 0.0000 -34.1819 0.0000
# 2 32.0362 87.3922 13.2592 0.0000 -5.3231 0.0000
# 3 5.6437 13.2592 63.5290 0.0000 -10.8954 0.0000
# 4 0.0000 0.0000 0.0000 33.3718 0.0000 -8.6003
# 5 -34.1819 -5.3231 -10.8954 0.0000 35.8534 0.0000
# 6 0.0000 0.0000 0.0000 -8.6003 0.0000 41.1071
#
#
#
# Elastic Compliance Matrix: (Units=1/GPa)
#
#
# Indices 1 2 3 4 5 6 
#
# 1 0.013486 -0.004457 0.001924 0.000000 0.012781 0.000000
# 2 -0.004457 0.013328 -0.002928 0.000000 -0.003160 0.000000
# 3 0.001924 -0.002928 0.017324 0.000000 0.006664 0.000000
# 4 0.000000 0.000000 0.000000 0.031673 0.000000 0.006627
# 5 0.012781 -0.003160 0.006664 0.000000 0.041632 0.000000
# 6 0.000000 0.000000 0.000000 0.006627 0.000000 0.025713
#
#
# Mechanical properties :
#
#
# Convention : Reuss Voigt Hill
#
# Bulk Modulus (GPa) = 30.10531 41.01370 35.55951
# Shear Modulus (GPa) = 30.27526 36.48689 33.38108
#
# Velocity S-wave (km/s) = 3.56474 3.91338 3.74312
# Velocity P-wave (km/s) = 5.43867 6.13465 5.79712
#
# Compressibility (1/GPa) = 0.03321673
#
# Stress axis : x y z
#
# Youngs Moduli (GPa) = 74.14830 75.02810 57.72370
#
# Poissons Ratio (x) = 0.33442 -0.11107
# Poissons Ratio (y) = 0.33050 0.16900
# Poissons Ratio (z) = -0.14267 0.21967
#
# Static dielectric constant tensor:
#      x y z
#    x 2.076210 0.000000 -0.121060 
#    y 0.000000 1.877840 0.000000 
#    z -0.121060 0.000000 2.023140 
# 
# From -- ./inp_files/34355.got.cif
#   From: 2010.05.17/outbox.cif.g08.bks.cpg/sg15_18_cif.got.tgz:34355.got - 2010.06.03 18:47:42.
