data_PCOD9292135
_publ_section_title
;
Structure prediction by ZEFSAII (Michael W. Deem and Ramdas Pophale) SiO2 
 PCOD9292135
Probable space group: C 2/C
;
_chemical_formula_sum "Si O2"
_cell_formula_units_Z 52
_cell_length_a 8.143248
_cell_length_b 15.119192
_cell_length_c 28.873882
_cell_angle_alpha 90.000000
_cell_angle_beta 136.623143
_cell_angle_gamma 90.000000
_cell_volume 2441.506573
_symmetry_space_group_name_H-M "C 2/C"
_symmetry_group_IT_number 15
_symmetry_cell_setting 'monoclinic'
loop_
_space_group_symop_operation_xyz
x,y,z
-x,y,1/2-z
-x,-y,-z
x,-y,1/2+z
1/2+x,1/2+y,z
1/2-x,1/2+y,1/2-z
1/2-x,1/2-y,-z
1/2+x,1/2-y,1/2+z
loop_
_atom_site_type_symbol
_atom_site_label
_atom_site_fract_x
_atom_site_fract_y
_atom_site_fract_z
Si Si1 0.251440 0.037634 0.466662
Si Si2 0.430811 0.308652 0.891693
Si Si3 0.962811 0.861472 0.069254
Si Si4 0.216330 0.465279 0.699605
Si Si5 0.121494 0.674547 0.415600
Si Si6 0.000000 0.393164 0.750000
Si Si7 0.096102 0.614924 0.906755
O O1 0.287545 0.056661 0.528532
O O2 0.157335 0.129581 0.426504
O O3 0.500000 0.000000 0.500000
O O4 0.062594 0.960359 0.416669
O O5 0.333110 0.337582 0.921843
O O6 0.213513 0.332372 0.813362
O O7 0.496863 0.206449 0.906456
O O8 0.954133 0.777392 0.100818
O O9 0.201802 0.859654 0.088460
O O10 0.734509 0.848580 0.988341
O O11 0.500000 0.462445 0.750000
O O12 0.116934 0.448044 0.731409
O O13 0.092507 0.388504 0.643375
O O14 0.108357 0.557143 0.659088
#
# Coordination Sequence:
#
# PCOD9292135 Si02
#       7
#     8   8   8   8   8   4   8
#     4  12  25  40  69 101 138 178 224 284 348 409
#     4  11  25  45  66  99 138 178 228 282 339 410
#     4  11  22  39  69 100 135 170 221 277 348 405
#     4  11  26  48  72  97 139 183 235 282 344 413
#     4  10  22  43  67 100 134 175 221 280 341 406
#     4  10  26  48  70  92 138 190 232 284 336 410
#     4  12  25  42  69 102 135 177 226 289 342 410
#
# _framework density 21.298324000000001
#
# number of rings (size 3 to 8) (size 9 to 14) (size 15 to 20)
#    0.000    0.923    3.077    3.692    9.692    0.000 
#    2.769    0.000    1.692    0.000    0.000    0.000 
#    0.000    0.000    0.000    0.000    0.000    0.000 
#
# Total GULP energy -145416.994707 kJ/mol
# GULP energy per Si atom -5592.961335 kJ/mol
# Density = 2.124985 g / cm^3
# Si number density = 21.298324 Si / 1000 Ang^3
#
#
#
# Elastic Constant Matrix: (Units=GPa)
#
#
# Indices 1 2 3 4 5 6 
#
# 1 81.0679 14.3754 30.5683 0.0000 29.7766 0.0000
# 2 14.3754 126.4035 32.8714 0.0000 12.5104 0.0000
# 3 30.5683 32.8714 65.7804 -0.0001 19.6932 0.0000
# 4 0.0000 0.0000 -0.0001 29.0578 0.0000 1.3327
# 5 29.7766 12.5104 19.6932 0.0000 30.4890 0.0000
# 6 0.0000 0.0000 0.0000 1.3327 0.0000 34.9852
#
#
#
# Elastic Compliance Matrix: (Units=1/GPa)
#
#
# Indices 1 2 3 4 5 6 
#
# 1 0.020212 0.000578 -0.004588 0.000000 -0.017014 0.000000
# 2 0.000578 0.009133 -0.004391 0.000000 -0.001476 0.000000
# 3 -0.004588 -0.004391 0.021878 0.000000 -0.007849 0.000000
# 4 0.000000 0.000000 0.000000 0.034474 0.000000 -0.001313
# 5 -0.017014 -0.001476 -0.007849 0.000000 0.055090 0.000000
# 6 0.000000 0.000000 0.000000 -0.001313 0.000000 0.028634
#
#
# Mechanical properties :
#
#
# Convention : Reuss Voigt Hill
#
# Bulk Modulus (GPa) = 29.05091 47.65355 38.35223
# Shear Modulus (GPa) = 25.29126 31.93551 28.61339
#
# Velocity S-wave (km/s) = 3.44972 3.87646 3.66930
# Velocity P-wave (km/s) = 5.43480 6.51604 5.99982
#
# Compressibility (1/GPa) = 0.03442232
#
# Stress axis : x y z
#
# Youngs Moduli (GPa) = 49.47570 109.48868 45.70778
#
# Poissons Ratio (x) = -0.06332 0.20971
# Poissons Ratio (y) = -0.02861 0.20070
# Poissons Ratio (z) = 0.22700 0.48075
#
# Static dielectric constant tensor:
#      x y z
#    x 1.773680 0.000000 -0.018970 
#    y 0.000000 1.796120 0.000000 
#    z -0.018970 0.000000 1.765810 
# 
# From -- ./inp_files/231306.got.cif
#   From: 2010.05.17/outbox.cif.g08.bks.cpg/sg15_116_cif.got.tgz:231306.got - 2010.06.03 18:47:42.
