data_PCOD9292633
_publ_section_title
;
Structure prediction by ZEFSAII (Michael W. Deem and Ramdas Pophale) SiO2 
 PCOD9292633
Probable space group: C 2/C
;
_chemical_formula_sum "Si O2"
_cell_formula_units_Z 52
_cell_length_a 18.590257
_cell_length_b 18.814838
_cell_length_c 9.081169
_cell_angle_alpha 90.000000
_cell_angle_beta 54.287487
_cell_angle_gamma 90.000000
_cell_volume 2579.052398
_symmetry_space_group_name_H-M "C 2/C"
_symmetry_group_IT_number 15
_symmetry_cell_setting 'monoclinic'
loop_
_space_group_symop_operation_xyz
x,y,z
-x,y,1/2-z
-x,-y,-z
x,-y,1/2+z
1/2+x,1/2+y,z
1/2-x,1/2+y,1/2-z
1/2-x,1/2-y,-z
1/2+x,1/2-y,1/2+z
loop_
_atom_site_type_symbol
_atom_site_label
_atom_site_fract_x
_atom_site_fract_y
_atom_site_fract_z
Si Si1 0.833143 0.076986 0.315369
Si Si2 0.345010 0.729762 0.315460
Si Si3 0.131650 0.627370 0.574998
Si Si4 0.478802 0.918840 0.046136
Si Si5 0.500000 0.820215 0.750000
Si Si6 0.840177 0.220835 0.962593
Si Si7 0.104717 0.060183 0.588279
O O1 0.875032 0.150915 0.325301
O O2 0.731463 0.104474 0.414545
O O3 0.846310 0.007865 0.399422
O O4 0.877949 0.058812 0.106820
O O5 0.250000 0.750000 0.500000
O O6 0.395052 0.795187 0.328497
O O7 0.341588 0.730509 0.140582
O O8 0.065074 0.612451 0.523541
O O9 0.105510 0.580805 0.746846
O O10 0.465089 0.871951 0.918936
O O11 0.500000 0.000000 0.000000
O O12 0.420030 0.768032 0.802520
O O13 0.857142 0.137492 0.909051
O O14 0.750000 0.250000 0.000000
O O15 0.000000 0.056991 0.750000
#
# Coordination Sequence:
#
# PCOD9292633 Si02
#       7
#     8   8   8   8   4   8   8
#     4  10  24  41  70  91 131 171 224 273 329 402
#     4   9  20  43  63  95 128 166 226 268 323 407
#     4  10  22  44  65  95 133 176 219 274 334 412
#     4  11  25  41  64  97 138 171 216 276 344 397
#     4  12  24  44  68  98 136 172 222 280 338 406
#     4  11  25  42  70  98 132 175 221 278 336 401
#     4  11  24  46  63  98 132 170 221 281 333 390
#
# _framework density 20.162444000000001
#
# number of rings (size 3 to 8) (size 9 to 14) (size 15 to 20)
#    0.000    1.538    2.308    1.385    8.615    3.692 
#    2.769    0.000    0.000    0.000    0.000    0.000 
#    0.000    0.000    0.000    0.000    0.000    0.000 
#
# Total GULP energy -144906.849634 kJ/mol
# GULP energy per Si atom -5573.340371 kJ/mol
# Density = 2.011655 g / cm^3
# Si number density = 20.162444 Si / 1000 Ang^3
#
#
#
# Elastic Constant Matrix: (Units=GPa)
#
#
# Indices 1 2 3 4 5 6 
#
# 1 70.3198 39.6413 1.2846 0.0000 -13.2956 0.0000
# 2 39.6413 181.5428 20.6615 0.0000 12.6973 0.0000
# 3 1.2846 20.6615 78.7682 0.0000 -13.1810 0.0000
# 4 0.0000 0.0000 0.0000 -31.1078 0.0000 -37.0985
# 5 -13.2956 12.6973 -13.1810 0.0000 29.1023 0.0000
# 6 0.0000 0.0000 0.0000 -37.0985 0.0000 9.1104
#
#
#
# Elastic Compliance Matrix: (Units=1/GPa)
#
#
# Indices 1 2 3 4 5 6 
#
# 1 0.019774 -0.005604 0.003320 0.000000 0.012982 0.000000
# 2 -0.005604 0.007597 -0.003121 0.000000 -0.007288 0.000000
# 3 0.003320 -0.003121 0.015085 0.000000 0.009711 0.000000
# 4 0.000000 0.000000 0.000000 -0.005489 0.000000 -0.022353
# 5 0.012982 -0.007288 0.009711 0.000000 0.047870 0.000000
# 6 0.000000 0.000000 0.000000 -0.022353 0.000000 0.018743
#
#
# Mechanical properties :
#
#
# Convention : Reuss Voigt Hill
#
# Bulk Modulus (GPa) = 31.59955 50.42284 41.01120
# Shear Modulus (GPa) = 40.02003 19.35719 29.68861
#
# Velocity S-wave (km/s) = 4.46003 3.10185 3.84144
# Velocity P-wave (km/s) = 6.49839 6.15558 6.32931
#
# Compressibility (1/GPa) = 0.03164602
#
# Stress axis : x y z
#
# Youngs Moduli (GPa) = 50.57270 131.63379 66.29129
#
# Poissons Ratio (x) = 0.73761 -0.22007
# Poissons Ratio (y) = 0.28338 0.20689
# Poissons Ratio (z) = -0.16789 0.41081
#
# Static dielectric constant tensor:
#      x y z
#    x 1.751920 0.000000 -0.030440 
#    y 0.000000 1.773560 0.000000 
#    z -0.030440 0.000000 1.754790 
# 
# From -- ./inp_files/48938.got.cif
#   From: 2010.05.17/outbox.cif.g08.bks.cpg/sg15_25_cif.got.tgz:48938.got - 2010.06.03 18:47:42.
