data_PCOD9292240
_publ_section_title
;
Structure prediction by ZEFSAII (Michael W. Deem and Ramdas Pophale) SiO2 
 PCOD9292240
Probable space group: C 2/C
;
_chemical_formula_sum "Si O2"
_cell_formula_units_Z 56
_cell_length_a 7.306760
_cell_length_b 20.948997
_cell_length_c 18.170046
_cell_angle_alpha 90.000000
_cell_angle_beta 113.501948
_cell_angle_gamma 90.000000
_cell_volume 2550.559560
_symmetry_space_group_name_H-M "C 2/C"
_symmetry_group_IT_number 15
_symmetry_cell_setting 'monoclinic'
loop_
_space_group_symop_operation_xyz
x,y,z
-x,y,1/2-z
-x,-y,-z
x,-y,1/2+z
1/2+x,1/2+y,z
1/2-x,1/2+y,1/2-z
1/2-x,1/2-y,-z
1/2+x,1/2-y,1/2+z
loop_
_atom_site_type_symbol
_atom_site_label
_atom_site_fract_x
_atom_site_fract_y
_atom_site_fract_z
Si Si1 0.047865 0.182727 0.087037
Si Si2 0.639669 0.550236 0.840695
Si Si3 0.013876 0.304891 0.668758
Si Si4 0.228526 0.899856 0.863646
Si Si5 0.646375 0.221296 0.842238
Si Si6 0.630648 0.604160 0.576460
Si Si7 0.451626 0.064007 0.535167
O O1 0.283724 0.185885 0.112327
O O2 0.970443 0.137181 0.142074
O O3 0.955654 0.250008 0.100401
O O4 0.962148 0.151378 0.999347
O O5 0.500000 0.569012 0.750000
O O6 0.676695 0.473779 0.843593
O O7 0.524102 0.571693 0.894989
O O8 0.857951 0.581553 0.885335
O O9 0.000000 0.280933 0.750000
O O10 0.147781 0.369091 0.683176
O O11 0.144663 0.257266 0.640463
O O12 0.378580 0.890127 0.957862
O O13 0.500000 0.233435 0.750000
O O14 0.706711 0.147871 0.856640
O O15 0.758669 0.552005 0.553708
O O16 0.500000 0.000000 0.500000
#
# Coordination Sequence:
#
# PCOD9292240 Si02
#       7
#     8   8   8   8   8   8   8
#     4  10  22  43  68  94 122 165 222 265 326 381
#     4  11  25  39  60  98 132 170 219 263 319 393
#     4  11  22  38  66  95 123 169 209 270 335 370
#     4   9  22  40  64  91 129 159 215 274 309 389
#     4  11  24  41  63  97 133 164 216 272 320 391
#     4  11  25  42  68  90 130 180 207 263 332 385
#     4   9  21  44  62  88 126 169 217 261 314 385
#
# _framework density 21.955967999999999
#
# number of rings (size 3 to 8) (size 9 to 14) (size 15 to 20)
#    0.000    1.714    1.429    1.286    4.000    9.714 
#    0.000    0.000    0.000    0.000    0.000    0.000 
#    0.000    0.000    0.000    0.000    0.000    0.000 
#
# Total GULP energy -156248.413254 kJ/mol
# GULP energy per Si atom -5580.300473 kJ/mol
# Density = 2.190600 g / cm^3
# Si number density = 21.955968 Si / 1000 Ang^3
#
#
#
# Elastic Constant Matrix: (Units=GPa)
#
#
# Indices 1 2 3 4 5 6 
#
# 1 162.2948 28.1471 38.0643 0.0000 2.1610 0.0000
# 2 28.1471 58.3946 -11.2514 0.0000 -10.2103 0.0000
# 3 38.0643 -11.2514 80.3647 0.0000 19.7789 0.0000
# 4 0.0000 0.0000 0.0000 14.6642 0.0000 3.2329
# 5 2.1610 -10.2103 19.7789 0.0000 41.0265 0.0000
# 6 0.0000 0.0000 0.0000 3.2329 0.0000 17.6046
#
#
#
# Elastic Compliance Matrix: (Units=1/GPa)
#
#
# Indices 1 2 3 4 5 6 
#
# 1 0.008044 -0.004655 -0.004621 0.000000 0.000645 0.000000
# 2 -0.004655 0.020781 0.004290 0.000000 0.003349 0.000000
# 3 -0.004621 0.004290 0.016917 0.000000 -0.006845 0.000000
# 4 0.000000 0.000000 0.000000 0.071070 0.000000 -0.013051
# 5 0.000645 0.003349 -0.006845 0.000000 0.028474 0.000000
# 6 0.000000 0.000000 0.000000 -0.013051 0.000000 0.059200
#
#
# Mechanical properties :
#
#
# Convention : Reuss Voigt Hill
#
# Bulk Modulus (GPa) = 27.95575 45.66380 36.80977
# Shear Modulus (GPa) = 22.08676 31.06535 26.57605
#
# Velocity S-wave (km/s) = 3.17512 3.76559 3.48289
# Velocity P-wave (km/s) = 5.11880 6.30470 5.74245
#
# Compressibility (1/GPa) = 0.03577082
#
# Stress axis : x y z
#
# Youngs Moduli (GPa) = 124.31602 48.12170 59.11235
#
# Poissons Ratio (x) = 0.22400 0.27313
# Poissons Ratio (y) = 0.57866 -0.25359
# Poissons Ratio (z) = 0.57441 -0.20644
#
# Static dielectric constant tensor:
#      x y z
#    x 1.776160 0.000000 0.060830 
#    y 0.000000 1.865780 0.000000 
#    z 0.060830 0.000000 1.831090 
# 
# From -- ./inp_files/227929.got.cif
#   From: 2010.05.17/outbox.cif.g08.bks.cpg/sg15_114_cif.got.tgz:227929.got - 2010.06.03 18:47:42.
