data_PCOD9292012
_publ_section_title
;
Structure prediction by ZEFSAII (Michael W. Deem and Ramdas Pophale) SiO2 
 PCOD9292012
Probable space group: C 2/C
;
_chemical_formula_sum "Si O2"
_cell_formula_units_Z 32
_cell_length_a 23.292830
_cell_length_b 5.318633
_cell_length_c 16.865565
_cell_angle_alpha 90.000000
_cell_angle_beta 144.438172
_cell_angle_gamma 90.000000
_cell_volume 1215.160051
_symmetry_space_group_name_H-M "C 2/C"
_symmetry_group_IT_number 15
_symmetry_cell_setting 'monoclinic'
loop_
_space_group_symop_operation_xyz
x,y,z
-x,y,1/2-z
-x,-y,-z
x,-y,1/2+z
1/2+x,1/2+y,z
1/2-x,1/2+y,1/2-z
1/2-x,1/2-y,-z
1/2+x,1/2-y,1/2+z
loop_
_atom_site_type_symbol
_atom_site_label
_atom_site_fract_x
_atom_site_fract_y
_atom_site_fract_z
Si Si1 0.402647 0.080123 0.190651
Si Si2 0.345222 0.567461 0.155450
Si Si3 0.775628 0.597576 0.824484
Si Si4 0.010683 0.145657 0.929833
O O1 0.500000 0.046146 0.250000
O O2 0.348809 0.332228 0.100974
O O3 0.435795 0.130996 0.319044
O O4 0.334168 0.843395 0.110436
O O5 0.281028 0.495492 0.160083
O O6 0.463842 0.556630 0.315494
O O7 0.781158 0.333693 0.781398
O O8 0.882662 0.726668 0.957195
O O9 0.000000 0.000000 0.000000
#
# Coordination Sequence:
#
# PCOD9292012 Si02
#       4
#     8   8   8   8
#     4  10  22  43  65  88 129 176 211 259 318 377
#     4  10  23  39  65  89 130 163 217 255 318 376
#     4  12  24  38  63  97 134 162 208 269 328 375
#     4  10  24  42  68  96 129 166 216 264 325 372
#
# _framework density 26.333981999999999
#
# number of rings (size 3 to 8) (size 9 to 14) (size 15 to 20)
#    1.500    0.000    2.500    2.250    3.500    2.000 
#    0.000    2.500    0.000    0.000    0.000    0.000 
#    0.000    0.000    0.000    0.000    0.000    0.000 
#
# Total GULP energy -89245.817191 kJ/mol
# GULP energy per Si atom -5577.863574 kJ/mol
# Density = 2.627404 g / cm^3
# Si number density = 26.333982 Si / 1000 Ang^3
#
#
#
# Elastic Constant Matrix: (Units=GPa)
#
#
# Indices 1 2 3 4 5 6 
#
# 1 166.6423 104.4038 16.3274 -0.0001 13.5496 -0.0003
# 2 104.4038 237.0924 16.8766 0.0023 7.0674 0.0014
# 3 16.3274 16.8766 59.5969 -0.0001 0.2984 0.0002
# 4 -0.0001 0.0023 -0.0001 14.7851 0.0002 4.7496
# 5 13.5496 7.0674 0.2984 0.0002 36.3598 0.0000
# 6 -0.0003 0.0014 0.0002 4.7496 0.0000 51.6610
#
#
#
# Elastic Compliance Matrix: (Units=1/GPa)
#
#
# Indices 1 2 3 4 5 6 
#
# 1 0.008600 -0.003619 -0.001319 0.000001 -0.002491 0.000000
# 2 -0.003619 0.005852 -0.000667 -0.000001 0.000217 0.000000
# 3 -0.001319 -0.000667 0.017327 0.000000 0.000479 0.000000
# 4 0.000001 -0.000001 0.000000 0.069694 0.000000 -0.006408
# 5 -0.002491 0.000217 0.000479 0.000000 0.028385 0.000000
# 6 0.000000 0.000000 0.000000 -0.006408 0.000000 0.019946
#
#
# Mechanical properties :
#
#
# Convention : Reuss Voigt Hill
#
# Bulk Modulus (GPa) = 48.61392 82.06082 65.33737
# Shear Modulus (GPa) = 29.78490 42.27609 36.03050
#
# Velocity S-wave (km/s) = 3.36675 4.01107 3.70295
# Velocity P-wave (km/s) = 5.79775 7.25815 6.56866
#
# Compressibility (1/GPa) = 0.02057024
#
# Stress axis : x y z
#
# Youngs Moduli (GPa) = 116.28116 170.87188 57.71285
#
# Poissons Ratio (x) = 0.61836 0.07611
# Poissons Ratio (y) = 0.42080 0.03849
# Poissons Ratio (z) = 0.15335 0.11396
#
# Static dielectric constant tensor:
#      x y z
#    x 2.034830 0.000000 0.060240 
#    y 0.000000 2.219470 0.000000 
#    z 0.060240 0.000000 2.252420 
# 
# From -- ./inp_files/253910.got.cif
#   From: 2010.05.17/outbox.cif.g08.bks.cpg/sg15_127_cif.got.tgz:253910.got - 2010.06.03 18:47:42.
