data_PCOD9292065
_publ_section_title
;
Structure prediction by ZEFSAII (Michael W. Deem and Ramdas Pophale) SiO2 
 PCOD9292065
Probable space group: C 2/C
;
_chemical_formula_sum "Si O2"
_cell_formula_units_Z 40
_cell_length_a 23.958000
_cell_length_b 17.681386
_cell_length_c 9.005746
_cell_angle_alpha 90.000000
_cell_angle_beta 29.403943
_cell_angle_gamma 90.000000
_cell_volume 1872.992119
_symmetry_space_group_name_H-M "C 2/C"
_symmetry_group_IT_number 15
_symmetry_cell_setting 'monoclinic'
loop_
_space_group_symop_operation_xyz
x,y,z
-x,y,1/2-z
-x,-y,-z
x,-y,1/2+z
1/2+x,1/2+y,z
1/2-x,1/2+y,1/2-z
1/2-x,1/2-y,-z
1/2+x,1/2-y,1/2+z
loop_
_atom_site_type_symbol
_atom_site_label
_atom_site_fract_x
_atom_site_fract_y
_atom_site_fract_z
Si Si1 0.666989 0.172019 0.850985
Si Si2 0.105286 0.261239 0.176157
Si Si3 0.635900 0.282097 0.182986
Si Si4 0.791108 0.601137 0.234503
Si Si5 0.377972 0.969317 0.839394
O O1 0.801823 0.193311 0.542990
O O2 0.625257 0.192793 0.784229
O O3 0.617998 0.232541 0.078836
O O4 0.629920 0.092192 0.008140
O O5 0.979861 0.227091 0.460062
O O6 0.134443 0.326840 0.990690
O O7 0.750000 0.250000 0.000000
O O8 0.666938 0.365307 0.054040
O O9 0.830678 0.569376 0.300833
O O10 0.806696 0.539194 0.070726
O O11 0.500000 0.000000 0.500000
#
# Coordination Sequence:
#
# PCOD9292065 Si02
#       5
#     8   8   8   8   8
#     4  10  22  43  66 101 128 173 220 269 332 385
#     4  10  23  42  72  96 133 169 220 276 324 388
#     4  11  22  40  66  98 135 170 224 264 326 392
#     4  11  25  41  64  98 130 174 217 271 331 393
#     4  12  24  40  63  93 136 168 219 271 331 388
#
# _framework density 21.356203000000001
#
# number of rings (size 3 to 8) (size 9 to 14) (size 15 to 20)
#    0.000    1.200    2.000    3.600    2.800    4.000 
#    0.000    1.000    0.000    4.800    0.000    0.000 
#    0.000    0.000    0.000    0.000    0.000    0.000 
#
# Total GULP energy -111696.451832 kJ/mol
# GULP energy per Si atom -5584.822592 kJ/mol
# Density = 2.130760 g / cm^3
# Si number density = 21.356203 Si / 1000 Ang^3
#
#
#
# Elastic Constant Matrix: (Units=GPa)
#
#
# Indices 1 2 3 4 5 6 
#
# 1 64.1670 42.4914 71.2108 0.0000 10.5984 0.0000
# 2 42.4914 135.6858 80.5463 0.0000 3.7203 0.0000
# 3 71.2108 80.5463 179.7529 0.0000 3.9068 0.0000
# 4 0.0000 0.0000 0.0000 43.3365 0.0000 29.3172
# 5 10.5984 3.7203 3.9068 0.0000 39.8382 0.0000
# 6 0.0000 0.0000 0.0000 29.3172 0.0000 33.7519
#
#
#
# Elastic Compliance Matrix: (Units=1/GPa)
#
#
# Indices 1 2 3 4 5 6 
#
# 1 0.030429 -0.003099 -0.010519 0.000000 -0.006774 0.000000
# 2 -0.003099 0.010366 -0.003421 0.000000 0.000192 0.000000
# 3 -0.010519 -0.003421 0.011220 0.000000 0.002018 0.000000
# 4 0.000000 0.000000 0.000000 0.055956 0.000000 -0.048604
# 5 -0.006774 0.000192 0.002018 0.000000 0.026688 0.000000
# 6 0.000000 0.000000 0.000000 -0.048604 0.000000 0.071845
#
#
# Mechanical properties :
#
#
# Convention : Reuss Voigt Hill
#
# Bulk Modulus (GPa) = 55.75384 85.34475 70.54930
# Shear Modulus (GPa) = 20.27892 35.74246 28.01069
#
# Velocity S-wave (km/s) = 3.08483 4.09545 3.62552
# Velocity P-wave (km/s) = 6.23310 7.90018 7.11563
#
# Compressibility (1/GPa) = 0.01793598
#
# Stress axis : x y z
#
# Youngs Moduli (GPa) = 32.86345 96.46615 89.12985
#
# Poissons Ratio (x) = 0.29897 0.93753
# Poissons Ratio (y) = 0.10185 0.30496
# Poissons Ratio (z) = 0.34568 0.33006
#
# Static dielectric constant tensor:
#      x y z
#    x 1.847400 0.000000 -0.021940 
#    y 0.000000 1.827220 0.000000 
#    z -0.021940 0.000000 1.850220 
# 
# From -- ./inp_files/62860.got.cif
#   From: 2010.05.17/outbox.cif.g08.bks.cpg/sg15_32_cif.got.tgz:62860.got - 2010.06.03 18:47:42.
