data_PCOD9292396
_publ_section_title
;
Structure prediction by ZEFSAII (Michael W. Deem and Ramdas Pophale) SiO2 
 PCOD9292396
Probable space group: C 2/C
;
_chemical_formula_sum "Si O2"
_cell_formula_units_Z 48
_cell_length_a 16.842381
_cell_length_b 13.322797
_cell_length_c 18.202144
_cell_angle_alpha 90.000000
_cell_angle_beta 30.316689
_cell_angle_gamma 90.000000
_cell_volume 2061.687324
_symmetry_space_group_name_H-M "C 2/C"
_symmetry_group_IT_number 15
_symmetry_cell_setting 'monoclinic'
loop_
_space_group_symop_operation_xyz
x,y,z
-x,y,1/2-z
-x,-y,-z
x,-y,1/2+z
1/2+x,1/2+y,z
1/2-x,1/2+y,1/2-z
1/2-x,1/2-y,-z
1/2+x,1/2-y,1/2+z
loop_
_atom_site_type_symbol
_atom_site_label
_atom_site_fract_x
_atom_site_fract_y
_atom_site_fract_z
Si Si1 0.806185 0.344948 0.562724
Si Si2 0.601290 0.805924 0.851715
Si Si3 0.219689 0.434001 0.394223
Si Si4 0.604205 0.161826 0.730857
Si Si5 0.659671 0.242221 0.148536
Si Si6 0.868226 0.917941 0.122239
O O1 0.803335 0.339371 0.653355
O O2 0.780744 0.460786 0.564059
O O3 0.677976 0.264674 0.639895
O O4 0.979847 0.316750 0.395292
O O5 0.694704 0.807312 0.699865
O O6 0.564229 0.689981 0.903874
O O7 0.444895 0.873267 0.969048
O O8 0.350673 0.358796 0.320134
O O9 0.257551 0.449907 0.278433
O O10 0.500000 0.112742 0.750000
O O11 0.751794 0.102229 0.646484
O O12 0.500000 0.192600 0.250000
O O13 0.750000 0.250000 0.000000
O O14 0.000000 0.000000 0.000000
#
# Coordination Sequence:
#
# PCOD9292396 Si02
#       6
#     8   8   8   8   8   8
#     4  11  25  45  73 100 143 191 259 301 380 455
#     4  10  22  43  71 100 140 191 239 308 378 445
#     4  11  23  44  68 101 140 193 245 307 373 461
#     4  11  25  48  71 103 145 197 244 321 382 438
#     4  11  23  44  68 100 144 184 233 305 382 443
#     4  10  24  42  73 110 145 194 257 311 375 458
#
# _framework density 23.281898999999999
#
# number of rings (size 3 to 8) (size 9 to 14) (size 15 to 20)
#    0.000    1.333    3.333    1.000    4.667    0.667 
#    9.000    0.000    0.000    0.000    0.000    0.000 
#    0.000    0.000    0.000    0.000    0.000    0.000 
#
# Total GULP energy -133887.463764 kJ/mol
# GULP energy per Si atom -5578.644324 kJ/mol
# Density = 2.322891 g / cm^3
# Si number density = 23.281899 Si / 1000 Ang^3
#
#
#
# Elastic Constant Matrix: (Units=GPa)
#
#
# Indices 1 2 3 4 5 6 
#
# 1 125.7508 5.6370 48.8784 -0.0004 15.1754 0.0000
# 2 5.6370 106.8988 26.8511 -0.0009 -1.9254 0.0003
# 3 48.8784 26.8511 116.3187 -0.0016 21.6919 0.0005
# 4 -0.0004 -0.0009 -0.0016 41.4377 0.0007 -10.6865
# 5 15.1754 -1.9254 21.6919 0.0007 42.7067 -0.0002
# 6 0.0000 0.0003 0.0005 -10.6865 -0.0002 10.2443
#
#
#
# Elastic Compliance Matrix: (Units=1/GPa)
#
#
# Indices 1 2 3 4 5 6 
#
# 1 0.009611 0.000441 -0.003874 0.000000 -0.001427 0.000000
# 2 0.000441 0.010075 -0.002835 0.000000 0.001738 0.000000
# 3 -0.003874 -0.002835 0.011760 0.000000 -0.004725 0.000000
# 4 0.000000 0.000000 0.000000 0.033014 -0.000001 0.034439
# 5 -0.001427 0.001738 -0.004725 -0.000001 0.026401 0.000000
# 6 0.000000 0.000000 0.000000 0.034439 0.000000 0.133541
#
#
# Mechanical properties :
#
#
# Convention : Reuss Voigt Hill
#
# Bulk Modulus (GPa) = 52.88402 56.85570 54.86986
# Shear Modulus (GPa) = 20.55569 36.71787 28.63678
#
# Velocity S-wave (km/s) = 2.97459 3.97558 3.51094
# Velocity P-wave (km/s) = 5.87891 6.74887 6.32885
#
# Compressibility (1/GPa) = 0.01890930
#
# Stress axis : x y z
#
# Youngs Moduli (GPa) = 104.05269 99.25795 85.03089
#
# Poissons Ratio (x) = -0.04373 0.32940
# Poissons Ratio (y) = -0.04584 0.24105
# Poissons Ratio (z) = 0.40309 0.28138
#
# Static dielectric constant tensor:
#      x y z
#    x 1.878020 0.000000 0.021860 
#    y 0.000000 1.895430 0.000000 
#    z 0.021860 0.000000 1.968480 
# 
# From -- ./inp_files/211297.got.cif
#   From: 2010.05.17/outbox.cif.g08.bks.cpg/sg15_106_cif.got.tgz:211297.got - 2010.06.03 18:47:42.
