data_PCOD9292198
_publ_section_title
;
Structure prediction by ZEFSAII (Michael W. Deem and Ramdas Pophale) SiO2 
 PCOD9292198
Probable space group: C 2/C
;
_chemical_formula_sum "Si O2"
_cell_formula_units_Z 64
_cell_length_a 28.292394
_cell_length_b 6.961365
_cell_length_c 27.491348
_cell_angle_alpha 90.000000
_cell_angle_beta 145.994816
_cell_angle_gamma 90.000000
_cell_volume 3028.168515
_symmetry_space_group_name_H-M "C 2/C"
_symmetry_group_IT_number 15
_symmetry_cell_setting 'monoclinic'
loop_
_space_group_symop_operation_xyz
x,y,z
-x,y,1/2-z
-x,-y,-z
x,-y,1/2+z
1/2+x,1/2+y,z
1/2-x,1/2+y,1/2-z
1/2-x,1/2-y,-z
1/2+x,1/2-y,1/2+z
loop_
_atom_site_type_symbol
_atom_site_label
_atom_site_fract_x
_atom_site_fract_y
_atom_site_fract_z
Si Si1 0.604024 0.585019 0.748793
Si Si2 0.970114 0.766502 0.614639
Si Si3 0.945353 0.639969 0.134140
Si Si4 0.351944 0.453052 0.877429
Si Si5 0.334393 0.797122 0.794142
Si Si6 0.538009 0.126568 0.575304
Si Si7 0.812695 0.725808 0.099012
Si Si8 0.161084 0.078620 0.018450
O O1 0.555393 0.387517 0.697288
O O2 0.529711 0.737156 0.697821
O O3 0.649679 0.663797 0.739472
O O4 0.666144 0.594116 0.848059
O O5 0.962611 0.582560 0.641677
O O6 0.974674 0.688350 0.563531
O O7 0.891085 0.909885 0.552352
O O8 0.898978 0.668356 0.145949
O O9 0.881423 0.725265 0.038202
O O10 0.357897 0.665771 0.860445
O O11 0.261808 0.364344 0.785060
O O12 0.422301 0.317458 0.913853
O O13 0.354321 0.442516 0.937594
O O14 0.391731 0.987029 0.840750
O O15 0.500000 0.000000 0.500000
O O16 0.760020 0.582620 0.089038
O O17 0.750000 0.750000 0.000000
#
# Coordination Sequence:
#
# PCOD9292198 Si02
#       8
#     8   8   8   8   8   8   8   8
#     4  11  22  43  69  94 133 170 224 282 331 404
#     4  11  23  41  67 101 131 175 226 273 336 406
#     4  10  22  43  67  97 132 175 221 275 342 395
#     4  12  24  41  64  99 136 182 226 274 340 405
#     4  12  24  41  65  96 136 179 228 274 336 406
#     4  12  25  40  66 100 138 182 228 276 334 405
#     4  10  22  44  69  95 129 175 218 277 346 392
#     4  10  23  41  66  95 139 174 220 280 332 401
#
# _framework density 21.134886999999999
#
# number of rings (size 3 to 8) (size 9 to 14) (size 15 to 20)
#    0.000    1.000    5.000    1.875    1.750    1.500 
#    0.000   12.500    0.000    0.000    0.000    0.000 
#    0.000    0.000    0.000    0.000    0.000    0.000 
#
# Total GULP energy -178828.140304 kJ/mol
# GULP energy per Si atom -5588.379384 kJ/mol
# Density = 2.108678 g / cm^3
# Si number density = 21.134887 Si / 1000 Ang^3
#
#
#
# Elastic Constant Matrix: (Units=GPa)
#
#
# Indices 1 2 3 4 5 6 
#
# 1 85.4920 2.4087 -8.4826 0.0000 -13.1230 0.0000
# 2 2.4087 84.8696 1.7097 0.0017 -5.6868 0.0008
# 3 -8.4826 1.7097 55.5158 -0.0001 -16.9147 -0.0007
# 4 0.0000 0.0017 -0.0001 21.5242 0.0000 3.4342
# 5 -13.1230 -5.6868 -16.9147 0.0000 39.0472 0.0001
# 6 0.0000 0.0008 -0.0007 3.4342 0.0001 19.2947
#
#
#
# Elastic Compliance Matrix: (Units=1/GPa)
#
#
# Indices 1 2 3 4 5 6 
#
# 1 0.013001 -0.000043 0.003822 0.000000 0.006019 0.000000
# 2 -0.000043 0.011901 0.000174 -0.000001 0.001794 0.000000
# 3 0.003822 0.000174 0.021878 0.000000 0.010787 0.000001
# 4 0.000000 -0.000001 0.000000 0.047817 0.000000 -0.008511
# 5 0.006019 0.001794 0.010787 0.000000 0.032567 0.000000
# 6 0.000000 0.000000 0.000001 -0.008511 0.000000 0.053343
#
#
# Mechanical properties :
#
#
# Convention : Reuss Voigt Hill
#
# Bulk Modulus (GPa) = 18.28647 24.12766 21.20707
# Shear Modulus (GPa) = 26.20133 31.32265 28.76199
#
# Velocity S-wave (km/s) = 3.52478 3.85390 3.69301
# Velocity P-wave (km/s) = 5.02360 5.58965 5.31417
#
# Compressibility (1/GPa) = 0.05468524
#
# Stress axis : x y z
#
# Youngs Moduli (GPa) = 76.91555 84.02856 45.70784
#
# Poissons Ratio (x) = 0.00359 -0.17468
# Poissons Ratio (y) = 0.00328 -0.00793
# Poissons Ratio (z) = -0.29395 -0.01459
#
# Static dielectric constant tensor:
#      x y z
#    x 1.754500 0.000000 0.011360 
#    y 0.000000 1.733910 0.000000 
#    z 0.011360 0.000000 1.823720 
# 
# From -- ./inp_files/304110.got.cif
#   From: 2010.05.17/outbox.cif.g08.bks.cpg/sg15_153_cif.got.tgz:304110.got - 2010.06.03 18:47:42.
