data_PCOD9292723
_publ_section_title
;
Structure prediction by ZEFSAII (Michael W. Deem and Ramdas Pophale) SiO2 
 PCOD9292723
Probable space group: C 2/C
;
_chemical_formula_sum "Si O2"
_cell_formula_units_Z 32
_cell_length_a 13.919735
_cell_length_b 9.321641
_cell_length_c 11.123422
_cell_angle_alpha 90.000000
_cell_angle_beta 67.934457
_cell_angle_gamma 90.000000
_cell_volume 1337.600927
_symmetry_space_group_name_H-M "C 2/C"
_symmetry_group_IT_number 15
_symmetry_cell_setting 'monoclinic'
loop_
_space_group_symop_operation_xyz
x,y,z
-x,y,1/2-z
-x,-y,-z
x,-y,1/2+z
1/2+x,1/2+y,z
1/2-x,1/2+y,1/2-z
1/2-x,1/2-y,-z
1/2+x,1/2-y,1/2+z
loop_
_atom_site_type_symbol
_atom_site_label
_atom_site_fract_x
_atom_site_fract_y
_atom_site_fract_z
Si Si1 0.147975 0.182677 0.106966
Si Si2 0.480368 0.063563 0.637930
Si Si3 0.809381 0.737632 0.657411
Si Si4 0.896284 0.856835 0.377053
O O1 0.055017 0.295664 0.121165
O O2 0.173504 0.160155 0.236986
O O3 0.122415 0.023006 0.077064
O O4 0.250000 0.250000 0.000000
O O5 0.500000 0.974228 0.750000
O O6 0.358500 0.095782 0.693175
O O7 0.500000 0.000000 0.500000
O O8 0.883293 0.775282 0.510065
O O9 0.696342 0.707999 0.660925
O O10 0.000000 0.851384 0.250000
#
# Coordination Sequence:
#
# PCOD9292723 Si02
#       4
#     8   8   8   8
#     4  11  25  43  72 102 141 191 233 296 359 434
#     4  10  22  44  67 100 141 179 233 291 356 422
#     4  10  25  45  67 107 138 183 245 292 359 425
#     4  11  25  46  74 103 143 191 240 299 358 434
#
# _framework density 23.923428000000001
#
# number of rings (size 3 to 8) (size 9 to 14) (size 15 to 20)
#    0.000    1.500    0.000    3.750    7.000    3.000 
#    9.000    0.000    0.000    0.000    0.000    0.000 
#    0.000    0.000    0.000    0.000    0.000    0.000 
#
# Total GULP energy -89320.887049 kJ/mol
# GULP energy per Si atom -5582.555441 kJ/mol
# Density = 2.386898 g / cm^3
# Si number density = 23.923428 Si / 1000 Ang^3
#
#
#
# Elastic Constant Matrix: (Units=GPa)
#
#
# Indices 1 2 3 4 5 6 
#
# 1 134.7747 33.1026 77.1402 0.0000 2.8609 0.0000
# 2 33.1026 90.1578 19.3954 0.0000 3.6128 0.0000
# 3 77.1402 19.3954 161.8809 0.0000 12.9277 0.0000
# 4 0.0000 0.0000 0.0000 31.8591 0.0000 -8.3085
# 5 2.8609 3.6128 12.9277 0.0000 62.6526 0.0000
# 6 0.0000 0.0000 0.0000 -8.3085 0.0000 12.8834
#
#
#
# Elastic Compliance Matrix: (Units=1/GPa)
#
#
# Indices 1 2 3 4 5 6 
#
# 1 0.010954 -0.002992 -0.004916 0.000000 0.000687 0.000000
# 2 -0.002992 0.012211 0.000008 0.000000 -0.000569 0.000000
# 3 -0.004916 0.000008 0.008644 0.000000 -0.001559 0.000000
# 4 0.000000 0.000000 0.000000 0.037734 0.000000 0.024335
# 5 0.000687 -0.000569 -0.001559 0.000000 0.016284 0.000000
# 6 0.000000 0.000000 0.000000 0.024335 0.000000 0.093313
#
#
# Mechanical properties :
#
#
# Convention : Reuss Voigt Hill
#
# Bulk Modulus (GPa) = 62.46517 71.78774 67.12645
# Shear Modulus (GPa) = 24.96545 38.62405 31.79475
#
# Velocity S-wave (km/s) = 3.23392 4.02243 3.64953
# Velocity P-wave (km/s) = 6.33336 7.18649 6.77337
#
# Compressibility (1/GPa) = 0.01600892
#
# Stress axis : x y z
#
# Youngs Moduli (GPa) = 91.29190 81.89197 115.69207
#
# Poissons Ratio (x) = 0.24500 0.56876
# Poissons Ratio (y) = 0.27312 -0.00093
# Poissons Ratio (z) = 0.44881 -0.00066
#
# Static dielectric constant tensor:
#      x y z
#    x 1.900890 0.000000 0.068150 
#    y 0.000000 2.021900 0.000000 
#    z 0.068150 0.000000 1.974200 
# 
# From -- ./inp_files/93398.got.cif
#   From: 2010.05.17/outbox.cif.g08.bks.cpg/sg15_47_cif.got.tgz:93398.got - 2010.06.03 18:47:42.
