data_PCOD9292784
_publ_section_title
;
Structure prediction by ZEFSAII (Michael W. Deem and Ramdas Pophale) SiO2 
 PCOD9292784
Probable space group: C 2/C
;
_chemical_formula_sum "Si O2"
_cell_formula_units_Z 60
_cell_length_a 18.039630
_cell_length_b 14.757335
_cell_length_c 10.932849
_cell_angle_alpha 90.000000
_cell_angle_beta 50.574109
_cell_angle_gamma 90.000000
_cell_volume 2248.212806
_symmetry_space_group_name_H-M "C 2/C"
_symmetry_group_IT_number 15
_symmetry_cell_setting 'monoclinic'
loop_
_space_group_symop_operation_xyz
x,y,z
-x,y,1/2-z
-x,-y,-z
x,-y,1/2+z
1/2+x,1/2+y,z
1/2-x,1/2+y,1/2-z
1/2-x,1/2-y,-z
1/2+x,1/2-y,1/2+z
loop_
_atom_site_type_symbol
_atom_site_label
_atom_site_fract_x
_atom_site_fract_y
_atom_site_fract_z
Si Si1 0.999868 0.196633 0.381151
Si Si2 0.940040 0.696659 0.159482
Si Si3 0.107674 0.993345 0.516607
Si Si4 0.345048 0.136528 0.623238
Si Si5 0.562028 0.998428 0.308598
Si Si6 0.726979 0.287547 0.658628
Si Si7 0.500000 0.349029 0.250000
Si Si8 0.227065 0.984248 0.643890
O O1 0.933938 0.259396 0.533324
O O2 0.112300 0.191250 0.291897
O O3 0.000000 0.242051 0.250000
O O4 0.043672 0.096743 0.081169
O O5 0.894177 0.600339 0.237037
O O6 0.924893 0.781053 0.265488
O O7 0.055847 0.674442 0.036280
O O8 0.045772 0.084144 0.602907
O O9 0.160597 0.998397 0.332083
O O10 0.173225 0.986446 0.570204
O O11 0.267730 0.212660 0.740467
O O12 0.367677 0.083725 0.728344
O O13 0.303844 0.063276 0.574232
O O14 0.500000 0.985114 0.250000
O O15 0.500000 0.000000 0.500000
O O16 0.750000 0.250000 0.500000
O O17 0.773278 0.386091 0.617794
#
# Coordination Sequence:
#
# PCOD9292784 Si02
#       8
#     8   8   8   8   8   8   4   8
#     4  11  22  42  71 106 137 186 254 304 355 430
#     4  10  23  41  68 102 139 183 241 301 373 443
#     4  12  25  44  73 106 144 199 246 311 368 422
#     4  10  25  44  70 100 149 189 238 303 377 446
#     4  10  22  44  68 101 136 183 241 297 365 433
#     4  11  24  45  69 105 145 192 244 298 371 440
#     4  12  22  42  70  98 144 180 246 314 358 438
#     4  12  26  48  71 108 154 194 248 303 371 460
#
# _framework density 26.687866
#
# number of rings (size 3 to 8) (size 9 to 14) (size 15 to 20)
#    0.000    1.067    2.667    3.200    0.000   11.733 
#    2.400    1.333    0.000    0.000    0.000    0.000 
#    0.000    0.000    0.000    0.000    0.000    0.000 
#
# Total GULP energy -168035.067209 kJ/mol
# GULP energy per Si atom -5601.168907 kJ/mol
# Density = 2.662712 g / cm^3
# Si number density = 26.687866 Si / 1000 Ang^3
#
#
#
# Elastic Constant Matrix: (Units=GPa)
#
#
# Indices 1 2 3 4 5 6 
#
# 1 107.6225 39.6031 32.9401 0.0000 21.1102 0.0000
# 2 39.6031 156.7115 33.7894 0.0000 4.2455 0.0000
# 3 32.9401 33.7894 141.4610 0.0000 13.3945 0.0000
# 4 0.0000 0.0000 0.0000 40.5932 0.0000 13.7725
# 5 21.1102 4.2455 13.3945 0.0000 46.9530 0.0000
# 6 0.0000 0.0000 0.0000 13.7725 0.0000 43.8235
#
#
#
# Elastic Compliance Matrix: (Units=1/GPa)
#
#
# Indices 1 2 3 4 5 6 
#
# 1 0.011592 -0.002443 -0.001689 0.000000 -0.004509 0.000000
# 2 -0.002443 0.007244 -0.001237 0.000000 0.000796 0.000000
# 3 -0.001689 -0.001237 0.007888 0.000000 -0.001379 0.000000
# 4 0.000000 0.000000 0.000000 0.027575 0.000000 -0.008666
# 5 -0.004509 0.000796 -0.001379 0.000000 0.023647 0.000000
# 6 0.000000 0.000000 0.000000 -0.008666 0.000000 0.025542
#
#
# Mechanical properties :
#
#
# Convention : Reuss Voigt Hill
#
# Bulk Modulus (GPa) = 62.55168 68.71781 65.63475
# Shear Modulus (GPa) = 41.82200 46.23809 44.03004
#
# Velocity S-wave (km/s) = 3.96293 4.16691 4.06620
# Velocity P-wave (km/s) = 6.66550 6.99682 6.83317
#
# Compressibility (1/GPa) = 0.01598678
#
# Stress axis : x y z
#
# Youngs Moduli (GPa) = 86.26530 138.05167 126.76970
#
# Poissons Ratio (x) = 0.33729 0.21408
# Poissons Ratio (y) = 0.21076 0.15678
# Poissons Ratio (z) = 0.14568 0.17073
#
# Static dielectric constant tensor:
#      x y z
#    x 2.237050 0.000000 -0.002920 
#    y 0.000000 2.120290 0.000000 
#    z -0.002920 0.000000 2.105390 
# 
# From -- ./inp_files/118779.got.cif
#   From: 2010.05.17/outbox.cif.g08.bks.cpg/sg15_60_cif.got.tgz:118779.got - 2010.06.03 18:47:42.
