data_PCOD9292719
_publ_section_title
;
Structure prediction by ZEFSAII (Michael W. Deem and Ramdas Pophale) SiO2 
 PCOD9292719
Probable space group: C 2/C
;
_chemical_formula_sum "Si O2"
_cell_formula_units_Z 52
_cell_length_a 8.715185
_cell_length_b 25.068792
_cell_length_c 11.101993
_cell_angle_alpha 90.000000
_cell_angle_beta 104.006647
_cell_angle_gamma 90.000000
_cell_volume 2353.436691
_symmetry_space_group_name_H-M "C 2/C"
_symmetry_group_IT_number 15
_symmetry_cell_setting 'monoclinic'
loop_
_space_group_symop_operation_xyz
x,y,z
-x,y,1/2-z
-x,-y,-z
x,-y,1/2+z
1/2+x,1/2+y,z
1/2-x,1/2+y,1/2-z
1/2-x,1/2-y,-z
1/2+x,1/2-y,1/2+z
loop_
_atom_site_type_symbol
_atom_site_label
_atom_site_fract_x
_atom_site_fract_y
_atom_site_fract_z
Si Si1 0.670031 0.924058 0.824225
Si Si2 0.000000 0.129082 0.750000
Si Si3 0.625001 0.579211 0.357155
Si Si4 0.397860 0.322578 0.480776
Si Si5 0.832780 0.609729 0.902722
Si Si6 0.531491 0.790300 0.395863
Si Si7 0.390829 0.031017 0.575197
O O1 0.500000 0.906158 0.750000
O O2 0.771053 0.901543 0.734826
O O3 0.661965 0.989179 0.832314
O O4 0.700873 0.906282 0.965651
O O5 0.032994 0.162822 0.636100
O O6 0.168385 0.099510 0.802087
O O7 0.500000 0.546739 0.250000
O O8 0.560959 0.629405 0.419757
O O9 0.734632 0.548504 0.472729
O O10 0.462281 0.265786 0.535258
O O11 0.205755 0.317308 0.441940
O O12 0.892085 0.670585 0.912144
O O13 0.986433 0.579045 0.877547
O O14 0.500000 0.780151 0.250000
O O15 0.500000 0.000000 0.500000
#
# Coordination Sequence:
#
# PCOD9292719 Si02
#       7
#     8   4   8   8   8   8   8
#     4  11  22  44  72 102 136 187 242 280 351 429
#     4  12  26  46  68 110 142 178 240 290 348 426
#     4  12  24  45  71 103 143 177 235 298 351 413
#     4  11  25  45  68 105 138 182 233 289 357 421
#     4  11  23  45  71 102 142 190 232 292 349 417
#     4  11  22  45  72  96 138 189 232 284 358 413
#     4  10  22  44  66  99 136 185 231 277 351 416
#
# _framework density 22.095347
#
# number of rings (size 3 to 8) (size 9 to 14) (size 15 to 20)
#    0.000    0.923    6.154    1.385    0.000    3.077 
#   12.462    0.000    0.000    0.000    0.000    0.000 
#    0.000    0.000    0.000    0.000    0.000    0.000 
#
# Total GULP energy -145051.730712 kJ/mol
# GULP energy per Si atom -5578.912720 kJ/mol
# Density = 2.204506 g / cm^3
# Si number density = 22.095347 Si / 1000 Ang^3
#
#
#
# Elastic Constant Matrix: (Units=GPa)
#
#
# Indices 1 2 3 4 5 6 
#
# 1 70.0345 18.9516 32.1270 0.0000 11.9522 0.0000
# 2 18.9516 67.8387 33.8568 0.0000 -8.4020 0.0000
# 3 32.1270 33.8568 115.6156 0.0000 -0.0478 0.0000
# 4 0.0000 0.0000 0.0000 28.3495 0.0000 1.7882
# 5 11.9522 -8.4020 -0.0478 0.0000 61.3782 0.0000
# 6 0.0000 0.0000 0.0000 1.7882 0.0000 10.8845
#
#
#
# Elastic Compliance Matrix: (Units=1/GPa)
#
#
# Indices 1 2 3 4 5 6 
#
# 1 0.017676 -0.003480 -0.003894 0.000000 -0.003922 0.000000
# 2 -0.003480 0.018298 -0.004390 0.000000 0.003179 0.000000
# 3 -0.003894 -0.004390 0.011017 0.000000 0.000166 0.000000
# 4 0.000000 0.000000 0.000000 0.035643 0.000000 -0.005856
# 5 -0.003922 0.003179 0.000166 0.000000 0.017491 0.000000
# 6 0.000000 0.000000 0.000000 -0.005856 0.000000 0.092836
#
#
# Mechanical properties :
#
#
# Convention : Reuss Voigt Hill
#
# Bulk Modulus (GPa) = 42.62181 47.03997 44.83089
# Shear Modulus (GPa) = 22.29050 31.35933 26.82491
#
# Velocity S-wave (km/s) = 3.17966 3.77141 3.48811
# Velocity P-wave (km/s) = 5.72819 6.34827 6.04618
#
# Compressibility (1/GPa) = 0.02346217
#
# Stress axis : x y z
#
# Youngs Moduli (GPa) = 56.57349 54.65165 90.76801
#
# Poissons Ratio (x) = 0.19020 0.35348
# Poissons Ratio (y) = 0.19689 0.39846
# Poissons Ratio (z) = 0.22031 0.23992
#
# Static dielectric constant tensor:
#      x y z
#    x 1.481910 0.000000 0.129090 
#    y 0.000000 1.855200 0.000000 
#    z 0.129090 0.000000 1.866030 
# 
# From -- ./inp_files/80855.got.cif
#   From: 2010.05.17/outbox.cif.g08.bks.cpg/sg15_41_cif.got.tgz:80855.got - 2010.06.03 18:47:42.
