data_PCOD9292515
_publ_section_title
;
Structure prediction by ZEFSAII (Michael W. Deem and Ramdas Pophale) SiO2 
 PCOD9292515
Probable space group: C 2/C
;
_chemical_formula_sum "Si O2"
_cell_formula_units_Z 56
_cell_length_a 31.291727
_cell_length_b 5.273292
_cell_length_c 17.851940
_cell_angle_alpha 90.000000
_cell_angle_beta 118.036468
_cell_angle_gamma 90.000000
_cell_volume 2600.067418
_symmetry_space_group_name_H-M "C 2/C"
_symmetry_group_IT_number 15
_symmetry_cell_setting 'monoclinic'
loop_
_space_group_symop_operation_xyz
x,y,z
-x,y,1/2-z
-x,-y,-z
x,-y,1/2+z
1/2+x,1/2+y,z
1/2-x,1/2+y,1/2-z
1/2-x,1/2-y,-z
1/2+x,1/2-y,1/2+z
loop_
_atom_site_type_symbol
_atom_site_label
_atom_site_fract_x
_atom_site_fract_y
_atom_site_fract_z
Si Si1 0.121447 0.069832 0.655900
Si Si2 0.833360 0.892343 0.152483
Si Si3 0.760520 0.704155 0.422549
Si Si4 0.033053 0.200272 0.069732
Si Si5 0.773431 0.041549 0.304592
Si Si6 0.433300 0.907513 0.016263
Si Si7 0.854323 0.602584 0.570972
O O1 0.168962 0.934132 0.660851
O O2 0.095648 0.226667 0.567398
O O3 0.141973 0.192755 0.748907
O O4 0.076857 0.907693 0.653063
O O5 0.780630 0.004026 0.132598
O O6 0.853057 0.141224 0.121556
O O7 0.838376 0.646337 0.104121
O O8 0.750000 0.750000 0.500000
O O9 0.760260 0.968601 0.378654
O O10 0.815755 0.614494 0.470059
O O11 0.990745 0.352245 0.076111
O O12 0.062447 0.339179 0.028320
O O13 0.000000 0.000000 0.000000
O O14 0.753967 0.781461 0.250689
O O15 0.405206 0.921227 0.070606
#
# Coordination Sequence:
#
# PCOD9292515 Si02
#       7
#     8   8   8   8   8   8   8
#     4  11  24  42  70  97 139 177 227 282 347 398
#     4  11  26  42  65  97 145 182 220 277 342 405
#     4  10  23  43  64  95 140 182 223 269 331 401
#     4   9  22  42  72 100 129 169 227 290 347 402
#     4  12  27  41  65 104 138 179 230 280 330 405
#     4  10  22  43  75 100 128 175 238 285 343 415
#     4  11  25  43  68  98 136 184 229 275 337 406
#
# _framework density 21.537901000000002
#
# number of rings (size 3 to 8) (size 9 to 14) (size 15 to 20)
#    0.000    1.429    2.857    0.429   12.000    2.286 
#    0.000    0.714    0.000    0.000    0.000    0.000 
#    0.000    0.000    0.000    0.000    0.000    0.000 
#
# Total GULP energy -155902.155442 kJ/mol
# GULP energy per Si atom -5567.934123 kJ/mol
# Density = 2.148888 g / cm^3
# Si number density = 21.537901 Si / 1000 Ang^3
#
#
#
# Elastic Constant Matrix: (Units=GPa)
#
#
# Indices 1 2 3 4 5 6 
#
# 1 -344.0970 250.6401 244.2734 0.0203 -284.5778 -0.0166
# 2 250.6401 -32.3111 -105.4477 -0.0134 151.3227 0.0100
# 3 244.2734 -105.4477 -56.0624 -0.0088 154.1058 0.0075
# 4 0.0203 -0.0134 -0.0088 129.2674 0.0122 -103.6233
# 5 -284.5778 151.3227 154.1058 0.0122 -151.2882 -0.0101
# 6 -0.0166 0.0100 0.0075 -103.6233 -0.0101 107.7066
#
#
#
# Elastic Compliance Matrix: (Units=1/GPa)
#
#
# Indices 1 2 3 4 5 6 
#
# 1 0.005914 0.000743 0.002314 0.000000 -0.008024 0.000000
# 2 0.000743 0.010559 -0.004759 0.000001 0.004317 0.000000
# 3 0.002314 -0.004759 0.013252 -0.000001 0.004385 0.000000
# 4 0.000000 0.000001 -0.000001 0.033815 0.000001 0.032533
# 5 -0.008024 0.004317 0.004385 0.000001 0.017268 0.000000
# 6 0.000000 0.000000 0.000000 0.032533 0.000000 0.040584
#
#
# Mechanical properties :
#
#
# Convention : Reuss Voigt Hill
#
# Bulk Modulus (GPa) = 37.99377 38.49568 38.24472
# Shear Modulus (GPa) = 37.43342 -37.65860 -0.11259
#
# Velocity S-wave (km/s) = 4.17349 -4.18602 -0.22889
# Velocity P-wave (km/s) = 6.39552 2.33483 4.21018
#
# Compressibility (1/GPa) = 0.02632011
#
# Stress axis : x y z
#
# Youngs Moduli (GPa) = 169.08691 94.70667 75.46094
#
# Poissons Ratio (x) = -0.07033 -0.17464
# Poissons Ratio (y) = -0.12556 0.35915
# Poissons Ratio (z) = -0.39133 0.45074
#
# Static dielectric constant tensor:
#      x y z
#    x -11.569140 -0.000280 -32.817500 
#    y -0.000280 1.844370 -0.000690 
#    z -32.817500 -0.000690 -78.443280 
# 
# From -- ./inp_files/223821.got.cif
#   From: 2010.05.17/outbox.cif.g08.bks.cpg/sg15_112_cif.got.tgz:223821.got - 2010.06.03 18:47:42.
