data_PCOD9292734
_publ_section_title
;
Structure prediction by ZEFSAII (Michael W. Deem and Ramdas Pophale) SiO2 
 PCOD9292734
Probable space group: C 2/C
;
_chemical_formula_sum "Si O2"
_cell_formula_units_Z 32
_cell_length_a 28.940698
_cell_length_b 9.878678
_cell_length_c 17.504263
_cell_angle_alpha 90.000000
_cell_angle_beta 164.599622
_cell_angle_gamma 90.000000
_cell_volume 1328.979780
_symmetry_space_group_name_H-M "C 2/C"
_symmetry_group_IT_number 15
_symmetry_cell_setting 'monoclinic'
loop_
_space_group_symop_operation_xyz
x,y,z
-x,y,1/2-z
-x,-y,-z
x,-y,1/2+z
1/2+x,1/2+y,z
1/2-x,1/2+y,1/2-z
1/2-x,1/2-y,-z
1/2+x,1/2-y,1/2+z
loop_
_atom_site_type_symbol
_atom_site_label
_atom_site_fract_x
_atom_site_fract_y
_atom_site_fract_z
Si Si1 0.681131 0.703522 0.213351
Si Si2 0.594417 0.605787 0.326115
Si Si3 0.769518 0.580701 0.823092
Si Si4 0.198437 0.888024 0.378660
O O1 0.798824 0.770431 0.467059
O O2 0.775263 0.580529 0.318476
O O3 0.925737 0.862789 0.506570
O O4 0.627491 0.824873 0.070993
O O5 0.500000 0.536672 0.250000
O O6 0.711371 0.507709 0.461476
O O7 0.507775 0.367990 0.467352
O O8 0.798774 0.592226 0.959667
O O9 0.250000 0.750000 0.500000
#
# Coordination Sequence:
#
# PCOD9292734 Si02
#       4
#     8   8   8   8
#     4  10  22  44  67  89 131 166 213 267 312 381
#     4   9  20  41  65  87 125 170 208 262 317 367
#     4  10  23  42  66  93 123 170 214 259 325 373
#     4  11  25  38  62  97 131 166 209 262 319 383
#
# _framework density 24.078621999999999
#
# number of rings (size 3 to 8) (size 9 to 14) (size 15 to 20)
#    0.000    2.000    0.000    3.000   10.500    5.000 
#   13.500    0.000    0.000    0.000    0.000    0.000 
#    0.000    0.000    0.000    0.000    0.000    0.000 
#
# Total GULP energy -89340.848455 kJ/mol
# GULP energy per Si atom -5583.803028 kJ/mol
# Density = 2.402382 g / cm^3
# Si number density = 24.078622 Si / 1000 Ang^3
#
#
#
# Elastic Constant Matrix: (Units=GPa)
#
#
# Indices 1 2 3 4 5 6 
#
# 1 113.5064 41.1950 13.7264 0.0005 -18.7195 0.0008
# 2 41.1950 155.0626 45.7462 0.0003 -19.8002 0.0005
# 3 13.7264 45.7462 71.8459 0.0003 -14.5721 0.0005
# 4 0.0005 0.0003 0.0003 41.4505 0.0003 -9.7081
# 5 -18.7195 -19.8002 -14.5721 0.0003 28.6861 0.0006
# 6 0.0008 0.0005 0.0005 -9.7081 0.0006 61.0701
#
#
#
# Elastic Compliance Matrix: (Units=1/GPa)
#
#
# Indices 1 2 3 4 5 6 
#
# 1 0.010473 -0.002233 0.000551 0.000000 0.005573 0.000000
# 2 -0.002233 0.008698 -0.004671 0.000000 0.002174 0.000000
# 3 0.000551 -0.004671 0.018068 0.000000 0.006314 0.000000
# 4 0.000000 0.000000 0.000000 0.025058 -0.000001 0.003983
# 5 0.005573 0.002174 0.006314 -0.000001 0.043204 -0.000001
# 6 0.000000 0.000000 0.000000 0.003983 -0.000001 0.017008
#
#
# Mechanical properties :
#
#
# Convention : Reuss Voigt Hill
#
# Bulk Modulus (GPa) = 40.76027 60.19443 50.47735
# Shear Modulus (GPa) = 34.86942 42.22449 38.54696
#
# Velocity S-wave (km/s) = 3.80958 4.19215 4.00544
# Velocity P-wave (km/s) = 6.02622 6.96316 6.51156
#
# Compressibility (1/GPa) = 0.02453369
#
# Stress axis : x y z
#
# Youngs Moduli (GPa) = 95.48323 114.97161 55.34682
#
# Poissons Ratio (x) = 0.25678 -0.03052
# Poissons Ratio (y) = 0.21326 0.25850
# Poissons Ratio (z) = -0.05266 0.53698
#
# Static dielectric constant tensor:
#      x y z
#    x 2.038700 0.000000 0.049460 
#    y 0.000000 1.885290 0.000000 
#    z 0.049460 0.000000 2.017750 
# 
# From -- ./inp_files/180629.got.cif
#   From: 2010.05.17/outbox.cif.g08.bks.cpg/sg15_91_cif.got.tgz:180629.got - 2010.06.03 18:47:42.
