data_PCOD9292409
_publ_section_title
;
Structure prediction by ZEFSAII (Michael W. Deem and Ramdas Pophale) SiO2 
 PCOD9292409
Probable space group: C 2/C
;
_chemical_formula_sum "Si O2"
_cell_formula_units_Z 56
_cell_length_a 26.568159
_cell_length_b 14.283989
_cell_length_c 15.921297
_cell_angle_alpha 90.000000
_cell_angle_beta 25.934060
_cell_angle_gamma 90.000000
_cell_volume 2642.439784
_symmetry_space_group_name_H-M "C 2/C"
_symmetry_group_IT_number 15
_symmetry_cell_setting 'monoclinic'
loop_
_space_group_symop_operation_xyz
x,y,z
-x,y,1/2-z
-x,-y,-z
x,-y,1/2+z
1/2+x,1/2+y,z
1/2-x,1/2+y,1/2-z
1/2-x,1/2-y,-z
1/2+x,1/2-y,1/2+z
loop_
_atom_site_type_symbol
_atom_site_label
_atom_site_fract_x
_atom_site_fract_y
_atom_site_fract_z
Si Si1 0.248234 0.670635 0.094436
Si Si2 0.275092 0.032013 0.156683
Si Si3 0.637317 0.801234 0.203111
Si Si4 0.633817 0.018675 0.811781
Si Si5 0.000000 0.638359 0.750000
Si Si6 0.926026 0.812571 0.534876
Si Si7 0.000000 0.781890 0.250000
Si Si8 0.677414 0.633685 0.696080
O O1 0.186219 0.582965 0.223374
O O2 0.197493 0.765512 0.210250
O O3 0.384031 0.663296 0.904549
O O4 0.237972 0.655947 0.009515
O O5 0.181772 0.115691 0.315846
O O6 0.318825 0.963155 0.166043
O O7 0.215489 0.960623 0.182095
O O8 0.389895 0.078300 0.945644
O O9 0.667764 0.904950 0.191739
O O10 0.546010 0.806864 0.263628
O O11 0.595132 0.747945 0.350073
O O12 0.750000 0.750000 0.000000
O O13 0.500000 0.000000 0.000000
O O14 0.960806 0.746007 0.402042
O O15 0.043124 0.870806 0.374946
#
# Coordination Sequence:
#
# PCOD9292409 Si02
#       8
#     8   8   8   8   4   8   4   8
#     4  10  22  44  65  99 144 176 243 296 366 440
#     4  12  25  44  74 104 147 191 252 307 379 450
#     4  12  27  47  75 111 153 201 251 315 382 456
#     4  12  25  43  72 102 143 189 248 309 367 442
#     4  12  26  49  73 108 152 200 256 317 375 462
#     4  11  24  46  73 106 153 190 247 307 372 458
#     4  10  22  43  71 102 148 188 236 305 369 436
#     4  10  24  41  69 102 134 190 232 299 366 440
#
# _framework density 21.192534999999999
#
# number of rings (size 3 to 8) (size 9 to 14) (size 15 to 20)
#    0.000    0.857    4.286    2.143    2.000    1.714 
#    0.000    0.714    0.000    0.000    0.000    0.000 
#    0.000    0.000    0.000    0.000    0.000    0.000 
#
# Total GULP energy -155920.111471 kJ/mol
# GULP energy per Si atom -5568.575410 kJ/mol
# Density = 2.114430 g / cm^3
# Si number density = 21.192535 Si / 1000 Ang^3
#
#
#
# Elastic Constant Matrix: (Units=GPa)
#
#
# Indices 1 2 3 4 5 6 
#
# 1 127.0044 33.8278 43.6319 0.0000 3.0442 0.0000
# 2 33.8278 73.6264 36.4998 0.0000 -10.2153 0.0000
# 3 43.6319 36.4998 129.4387 0.0000 -15.8713 0.0000
# 4 0.0000 0.0000 0.0000 -12.7172 0.0000 14.1113
# 5 3.0442 -10.2153 -15.8713 0.0000 43.5193 0.0000
# 6 0.0000 0.0000 0.0000 14.1113 0.0000 23.0663
#
#
#
# Elastic Compliance Matrix: (Units=1/GPa)
#
#
# Indices 1 2 3 4 5 6 
#
# 1 0.009768 -0.003543 -0.002595 0.000000 -0.002461 0.000000
# 2 -0.003543 0.017274 -0.003297 0.000000 0.003100 0.000000
# 3 -0.002595 -0.003297 0.009900 0.000000 0.003018 0.000000
# 4 0.000000 0.000000 0.000000 -0.046838 0.000000 0.028654
# 5 -0.002461 0.003100 0.003018 0.000000 0.024979 0.000000
# 6 0.000000 0.000000 0.000000 0.028654 0.000000 0.025823
#
#
# Mechanical properties :
#
#
# Convention : Reuss Voigt Hill
#
# Bulk Modulus (GPa) = 55.33212 61.99871 58.66541
# Shear Modulus (GPa) = 75.98663 25.18101 50.58382
#
# Velocity S-wave (km/s) = 5.99443 3.45077 4.89086
# Velocity P-wave (km/s) = 8.60679 6.72277 7.72245
#
# Compressibility (1/GPa) = 0.01807269
#
# Stress axis : x y z
#
# Youngs Moduli (GPa) = 102.37486 57.88946 101.00726
#
# Poissons Ratio (x) = 0.20509 0.26216
# Poissons Ratio (y) = 0.36269 0.33299
# Poissons Ratio (z) = 0.26571 0.19085
#
# Static dielectric constant tensor:
#      x y z
#    x 2.126490 0.000000 0.109560 
#    y 0.000000 1.770860 0.000000 
#    z 0.109560 0.000000 1.761570 
# 
# From -- ./inp_files/173833.got.cif
#   From: 2010.05.17/outbox.cif.g08.bks.cpg/sg15_87_cif.got.tgz:173833.got - 2010.06.03 18:47:42.
