data_PCOD9292174
_publ_section_title
;
Structure prediction by ZEFSAII (Michael W. Deem and Ramdas Pophale) SiO2 
 PCOD9292174
Probable space group: C 2/C
;
_chemical_formula_sum "Si O2"
_cell_formula_units_Z 56
_cell_length_a 25.949813
_cell_length_b 8.605580
_cell_length_c 12.023094
_cell_angle_alpha 90.000000
_cell_angle_beta 79.858220
_cell_angle_gamma 90.000000
_cell_volume 2642.963802
_symmetry_space_group_name_H-M "C 2/C"
_symmetry_group_IT_number 15
_symmetry_cell_setting 'monoclinic'
loop_
_space_group_symop_operation_xyz
x,y,z
-x,y,1/2-z
-x,-y,-z
x,-y,1/2+z
1/2+x,1/2+y,z
1/2-x,1/2+y,1/2-z
1/2-x,1/2-y,-z
1/2+x,1/2-y,1/2+z
loop_
_atom_site_type_symbol
_atom_site_label
_atom_site_fract_x
_atom_site_fract_y
_atom_site_fract_z
Si Si1 0.500000 0.820896 0.250000
Si Si2 0.219908 0.688264 0.903205
Si Si3 0.140747 0.222919 0.949921
Si Si4 0.337233 0.006388 0.909097
Si Si5 0.457263 0.558908 0.427631
Si Si6 0.500000 0.676276 0.750000
Si Si7 0.270046 0.512588 0.691429
Si Si8 0.422373 0.919355 0.701344
O O1 0.473914 0.713722 0.354455
O O2 0.542995 0.924327 0.299857
O O3 0.255731 0.569104 0.820277
O O4 0.207690 0.837781 0.831404
O O5 0.250000 0.750000 0.000000
O O6 0.172585 0.596129 0.976888
O O7 0.190464 0.138193 0.876444
O O8 0.115244 0.355459 0.880878
O O9 0.154267 0.316872 0.056157
O O10 0.097460 0.092995 0.993302
O O11 0.285292 0.007221 0.852661
O O12 0.384948 0.934019 0.822787
O O13 0.500000 0.500000 0.500000
O O14 0.458871 0.428100 0.332055
O O15 0.466725 0.787530 0.685103
#
# Coordination Sequence:
#
# PCOD9292174 Si02
#       8
#     4   8   8   8   8   4   8   8
#     4  10  24  46  70 102 134 180 228 288 346 406
#     4  10  22  43  67  93 137 179 226 285 335 401
#     4  12  24  42  68 100 133 185 223 280 346 407
#     4  11  23  43  67 100 137 180 232 277 344 406
#     4  11  23  46  66 101 134 175 222 282 347 409
#     4  10  24  42  68  94 138 164 224 286 336 416
#     4  11  24  44  65 101 140 181 232 280 336 414
#     4  11  23  43  70 100 132 179 230 281 341 417
#
# _framework density 21.188334999999999
#
# number of rings (size 3 to 8) (size 9 to 14) (size 15 to 20)
#    0.000    1.143    2.857    3.857    2.000    2.857 
#    5.143    0.000    0.000    0.000    0.000    0.000 
#    0.000    0.000    0.000    0.000    0.000    0.000 
#
# Total GULP energy -156246.293400 kJ/mol
# GULP energy per Si atom -5580.224764 kJ/mol
# Density = 2.114011 g / cm^3
# Si number density = 21.188335 Si / 1000 Ang^3
#
#
#
# Elastic Constant Matrix: (Units=GPa)
#
#
# Indices 1 2 3 4 5 6 
#
# 1 46.1018 25.0728 6.6398 0.0000 -20.0749 0.0000
# 2 25.0728 89.7025 23.0512 0.0000 -2.7824 0.0000
# 3 6.6398 23.0512 81.8641 0.0000 -21.6550 0.0000
# 4 0.0000 0.0000 0.0000 18.6687 0.0000 4.8834
# 5 -20.0749 -2.7824 -21.6550 0.0000 32.3060 0.0000
# 6 0.0000 0.0000 0.0000 4.8834 0.0000 18.4882
#
#
#
# Elastic Compliance Matrix: (Units=1/GPa)
#
#
# Indices 1 2 3 4 5 6 
#
# 1 0.039855 -0.012269 0.007893 0.000000 0.029000 0.000000
# 2 -0.012269 0.015854 -0.006229 0.000000 -0.010434 0.000000
# 3 0.007893 -0.006229 0.017607 0.000000 0.016170 0.000000
# 4 0.000000 0.000000 0.000000 0.057541 0.000000 -0.015199
# 5 0.029000 -0.010434 0.016170 0.000000 0.058915 0.000000
# 6 0.000000 0.000000 0.000000 -0.015199 0.000000 0.058103
#
#
# Mechanical properties :
#
#
# Convention : Reuss Voigt Hill
#
# Bulk Modulus (GPa) = 19.19149 36.35512 27.77330
# Shear Modulus (GPa) = 17.45491 24.75288 21.10389
#
# Velocity S-wave (km/s) = 2.87330 3.42165 3.15939
# Velocity P-wave (km/s) = 4.48164 5.72761 5.14250
#
# Compressibility (1/GPa) = 0.05210642
#
# Stress axis : x y z
#
# Youngs Moduli (GPa) = 25.09124 63.07455 56.79701
#
# Poissons Ratio (x) = 0.77384 -0.44831
# Poissons Ratio (y) = 0.30783 0.35379
# Poissons Ratio (z) = -0.19805 0.39290
#
# Static dielectric constant tensor:
#      x y z
#    x 1.793280 0.000000 0.044150 
#    y 0.000000 1.594140 0.000000 
#    z 0.044150 0.000000 1.787540 
# 
# From -- ./inp_files/121927.got.cif
#   From: 2010.05.17/outbox.cif.g08.bks.cpg/sg15_61_cif.got.tgz:121927.got - 2010.06.03 18:47:42.
