data_PCOD9292817
_publ_section_title
;
Structure prediction by ZEFSAII (Michael W. Deem and Ramdas Pophale) SiO2 
 PCOD9292817
Probable space group: C 2/C
;
_chemical_formula_sum "Si O2"
_cell_formula_units_Z 56
_cell_length_a 6.748134
_cell_length_b 23.146949
_cell_length_c 19.817942
_cell_angle_alpha 90.000000
_cell_angle_beta 119.347910
_cell_angle_gamma 90.000000
_cell_volume 2698.255054
_symmetry_space_group_name_H-M "C 2/C"
_symmetry_group_IT_number 15
_symmetry_cell_setting 'monoclinic'
loop_
_space_group_symop_operation_xyz
x,y,z
-x,y,1/2-z
-x,-y,-z
x,-y,1/2+z
1/2+x,1/2+y,z
1/2-x,1/2+y,1/2-z
1/2-x,1/2-y,-z
1/2+x,1/2-y,1/2+z
loop_
_atom_site_type_symbol
_atom_site_label
_atom_site_fract_x
_atom_site_fract_y
_atom_site_fract_z
Si Si1 0.706259 0.422011 0.054367
Si Si2 0.764000 0.550467 0.098494
Si Si3 0.766996 0.271362 0.685056
Si Si4 0.368808 0.805706 0.156068
Si Si5 0.597173 0.388875 0.696114
Si Si6 0.055922 0.718713 0.427381
Si Si7 0.109765 0.601039 0.053405
O O1 0.729827 0.481785 0.098227
O O2 0.773120 0.364988 0.107817
O O3 0.449127 0.423839 0.981045
O O4 0.876408 0.425698 0.018347
O O5 0.760622 0.575949 0.173494
O O6 0.984993 0.564730 0.090709
O O7 0.564120 0.226099 0.644801
O O8 0.695902 0.324377 0.721819
O O9 0.833145 0.299522 0.625053
O O10 0.000000 0.243127 0.750000
O O11 0.500000 0.813768 0.250000
O O12 0.159132 0.760308 0.123162
O O13 0.500000 0.413321 0.750000
O O14 0.367431 0.385166 0.615475
O O15 0.250000 0.750000 0.500000
O O16 0.999309 0.663631 0.462398
#
# Coordination Sequence:
#
# PCOD9292817 Si02
#       7
#     8   8   8   8   8   8   8
#     4  10  24  43  68  92 131 178 222 272 332 406
#     4  10  22  44  68  94 130 171 223 283 333 387
#     4  12  23  41  63  94 134 176 214 277 349 400
#     4  12  25  44  63  96 143 180 222 274 342 416
#     4  11  23  38  63 100 127 163 218 275 340 394
#     4  12  24  37  66 101 131 171 222 278 337 406
#     4  11  21  40  66  98 124 165 221 280 328 384
#
# _framework density 20.754152000000001
#
# number of rings (size 3 to 8) (size 9 to 14) (size 15 to 20)
#    0.000    0.857    4.286    3.429    2.000    1.143 
#    2.571    0.000    0.000    0.000    0.000    0.000 
#    0.000    0.000    0.000    0.000    0.000    0.000 
#
# Total GULP energy -156269.236385 kJ/mol
# GULP energy per Si atom -5581.044157 kJ/mol
# Density = 2.070691 g / cm^3
# Si number density = 20.754152 Si / 1000 Ang^3
#
#
#
# Elastic Constant Matrix: (Units=GPa)
#
#
# Indices 1 2 3 4 5 6 
#
# 1 102.1717 28.0903 21.9719 0.0000 0.8550 0.0000
# 2 28.0903 102.4603 24.6184 0.0000 6.8299 0.0000
# 3 21.9719 24.6184 47.0341 0.0000 2.4654 0.0000
# 4 0.0000 0.0000 0.0000 19.9493 0.0000 10.7132
# 5 0.8550 6.8299 2.4654 0.0000 36.4390 0.0000
# 6 0.0000 0.0000 0.0000 10.7132 0.0000 5.1320
#
#
#
# Elastic Compliance Matrix: (Units=1/GPa)
#
#
# Indices 1 2 3 4 5 6 
#
# 1 0.011263 -0.002112 -0.004178 0.000000 0.000414 0.000000
# 2 -0.002112 0.011666 -0.005026 0.000000 -0.001797 0.000000
# 3 -0.004178 -0.005026 0.025881 0.000000 -0.000711 0.000000
# 4 0.000000 0.000000 0.000000 -0.414103 0.000000 0.864454
# 5 0.000414 -0.001797 -0.000711 0.000000 0.027818 0.000000
# 6 0.000000 0.000000 0.000000 0.864454 0.000000 -1.609722
#
#
# Mechanical properties :
#
#
# Convention : Reuss Voigt Hill
#
# Bulk Modulus (GPa) = 38.19794 44.55859 41.37827
# Shear Modulus (GPa) = -2.60982 24.10310 10.74664
#
# Velocity S-wave (km/s) = -1.12260 3.41157 2.27801
# Velocity P-wave (km/s) = 4.09446 6.08562 5.18649
#
# Compressibility (1/GPa) = 0.02617942
#
# Stress axis : x y z
#
# Youngs Moduli (GPa) = 88.78638 85.71851 38.63894
#
# Poissons Ratio (x) = 0.18100 0.16143
# Poissons Ratio (y) = 0.18748 0.19418
# Poissons Ratio (z) = 0.37095 0.43079
#
# Static dielectric constant tensor:
#      x y z
#    x 1.614800 0.000000 0.020750 
#    y 0.000000 1.750630 0.000000 
#    z 0.020750 0.000000 1.780020 
# 
# From -- ./inp_files/228166.got.cif
#   From: 2010.05.17/outbox.cif.g08.bks.cpg/sg15_115_cif.got.tgz:228166.got - 2010.06.03 18:47:42.
