data_PCOD9292548
_publ_section_title
;
Structure prediction by ZEFSAII (Michael W. Deem and Ramdas Pophale) SiO2 
 PCOD9292548
Probable space group: C 2/C
;
_chemical_formula_sum "Si O2"
_cell_formula_units_Z 48
_cell_length_a 19.471984
_cell_length_b 8.298961
_cell_length_c 14.130553
_cell_angle_alpha 90.000000
_cell_angle_beta 97.432354
_cell_angle_gamma 90.000000
_cell_volume 2264.273318
_symmetry_space_group_name_H-M "C 2/C"
_symmetry_group_IT_number 15
_symmetry_cell_setting 'monoclinic'
loop_
_space_group_symop_operation_xyz
x,y,z
-x,y,1/2-z
-x,-y,-z
x,-y,1/2+z
1/2+x,1/2+y,z
1/2-x,1/2+y,1/2-z
1/2-x,1/2-y,-z
1/2+x,1/2-y,1/2+z
loop_
_atom_site_type_symbol
_atom_site_label
_atom_site_fract_x
_atom_site_fract_y
_atom_site_fract_z
Si Si1 0.349561 0.851147 0.187787
Si Si2 0.693095 0.877905 0.525462
Si Si3 0.462412 0.491700 0.091847
Si Si4 0.811903 0.986168 0.142945
Si Si5 0.000000 0.266999 0.750000
Si Si6 0.152667 0.326913 0.727485
Si Si7 0.000000 0.747985 0.750000
O O1 0.315958 0.669781 0.188723
O O2 0.425613 0.833332 0.245572
O O3 0.312848 0.004502 0.230965
O O4 0.352957 0.897537 0.076291
O O5 0.750000 0.750000 0.500000
O O6 0.741215 0.024758 0.570271
O O7 0.656594 0.816861 0.614468
O O8 0.378981 0.486804 0.084933
O O9 0.489225 0.340686 0.155516
O O10 0.488074 0.643303 0.156307
O O11 0.500000 0.500000 0.000000
O O12 0.821758 0.837226 0.216756
O O13 0.926542 0.346437 0.753703
#
# Coordination Sequence:
#
# PCOD9292548 Si02
#       7
#     8   8   8   8   4   8   4
#     4  10  22  44  61  98 131 169 220 264 336 386
#     4  10  24  42  66  97 132 178 219 271 329 394
#     4   9  18  36  65  95 126 169 219 272 329 389
#     4   9  22  42  64  96 127 174 219 266 329 392
#     4   9  21  36  60  99 121 168 217 267 336 377
#     4  11  23  43  68  93 137 170 220 278 323 398
#     4   9  19  38  60  93 135 166 217 269 332 393
#
# _framework density 21.198853
#
# number of rings (size 3 to 8) (size 9 to 14) (size 15 to 20)
#    0.000    2.333    0.000    1.500   11.667    0.667 
#    6.000    1.667    0.000    0.000    0.000    0.000 
#    0.000    0.000    0.000    0.000    0.000    0.000 
#
# Total GULP energy -133655.892139 kJ/mol
# GULP energy per Si atom -5568.995506 kJ/mol
# Density = 2.115060 g / cm^3
# Si number density = 21.198853 Si / 1000 Ang^3
#
#
#
# Elastic Constant Matrix: (Units=GPa)
#
#
# Indices 1 2 3 4 5 6 
#
# 1 63.0634 13.0943 -2.0685 0.0000 -0.4569 0.0000
# 2 13.0943 113.4308 14.2382 0.0000 -16.1426 0.0000
# 3 -2.0685 14.2382 66.8472 0.0000 -40.7435 0.0000
# 4 0.0000 0.0000 0.0000 9.1475 0.0000 -9.8021
# 5 -0.4569 -16.1426 -40.7435 0.0000 42.0347 0.0000
# 6 0.0000 0.0000 0.0000 -9.8021 0.0000 9.2872
#
#
#
# Elastic Compliance Matrix: (Units=1/GPa)
#
#
# Indices 1 2 3 4 5 6 
#
# 1 0.016313 -0.001947 0.001397 0.000000 0.000784 0.000000
# 2 -0.001947 0.009564 0.000314 0.000000 0.003956 0.000000
# 3 0.001397 0.000314 0.036700 0.000000 0.035709 0.000000
# 4 0.000000 0.000000 0.000000 -0.834679 0.000000 -0.880957
# 5 0.000784 0.003956 0.035709 0.000000 0.059929 0.000000
# 6 0.000000 0.000000 0.000000 -0.880957 0.000000 -0.822126
#
#
# Mechanical properties :
#
#
# Convention : Reuss Voigt Hill
#
# Bulk Modulus (GPa) = 16.10160 32.65218 24.37689
# Shear Modulus (GPa) = -3.30442 26.63239 11.66398
#
# Velocity S-wave (km/s) = -1.24986 3.54830 2.34822
# Velocity P-wave (km/s) = 2.35141 5.67657 4.34468
#
# Compressibility (1/GPa) = 0.06210564
#
# Stress axis : x y z
#
# Youngs Moduli (GPa) = 61.30145 104.55558 27.24768
#
# Poissons Ratio (x) = 0.20356 -0.03807
# Poissons Ratio (y) = 0.11935 -0.00855
# Poissons Ratio (z) = -0.08566 -0.03280
#
# Static dielectric constant tensor:
#      x y z
#    x 1.627320 0.000000 0.031970 
#    y 0.000000 1.820940 0.000000 
#    z 0.031970 0.000000 1.745010 
# 
# From -- ./inp_files/116485.got.cif
#   From: 2010.05.17/outbox.cif.g08.bks.cpg/sg15_59_cif.got.tgz:116485.got - 2010.06.03 18:47:42.
