data_PCOD9292689
_publ_section_title
;
Structure prediction by ZEFSAII (Michael W. Deem and Ramdas Pophale) SiO2 
 PCOD9292689
Probable space group: C 2/C
;
_chemical_formula_sum "Si O2"
_cell_formula_units_Z 52
_cell_length_a 11.680740
_cell_length_b 11.369952
_cell_length_c 19.088845
_cell_angle_alpha 90.000000
_cell_angle_beta 109.440719
_cell_angle_gamma 90.000000
_cell_volume 2390.639277
_symmetry_space_group_name_H-M "C 2/C"
_symmetry_group_IT_number 15
_symmetry_cell_setting 'monoclinic'
loop_
_space_group_symop_operation_xyz
x,y,z
-x,y,1/2-z
-x,-y,-z
x,-y,1/2+z
1/2+x,1/2+y,z
1/2-x,1/2+y,1/2-z
1/2-x,1/2-y,-z
1/2+x,1/2-y,1/2+z
loop_
_atom_site_type_symbol
_atom_site_label
_atom_site_fract_x
_atom_site_fract_y
_atom_site_fract_z
Si Si1 0.802683 0.538280 0.542665
Si Si2 0.442545 0.430267 0.424763
Si Si3 0.673777 0.443124 0.235027
Si Si4 0.964059 0.671234 0.094104
Si Si5 0.762556 0.603681 0.376563
Si Si6 0.379055 0.843000 0.182835
Si Si7 0.500000 0.758792 0.750000
O O1 0.693279 0.573638 0.572046
O O2 0.757070 0.579361 0.458023
O O3 0.906390 0.602425 0.610877
O O4 0.852163 0.405368 0.542702
O O5 0.500000 0.500000 0.500000
O O6 0.421568 0.489629 0.343978
O O7 0.512938 0.306169 0.427372
O O8 0.699686 0.512983 0.310853
O O9 0.800002 0.423766 0.220162
O O10 0.609335 0.321325 0.243273
O O11 0.093155 0.610833 0.106317
O O12 0.948511 0.671055 0.174451
O O13 0.699047 0.725979 0.345568
O O14 0.500000 0.814761 0.250000
#
# Coordination Sequence:
#
# PCOD9292689 Si02
#       7
#     8   8   8   8   8   8   4
#     4  11  25  43  71  98 142 183 233 297 359 433
#     4  10  24  46  65 101 145 178 240 297 357 428
#     4  10  24  43  66  99 132 180 234 283 350 434
#     4  11  24  44  71  98 136 189 229 293 360 425
#     4  12  24  45  66 103 138 177 231 299 355 424
#     4  11  24  44  69 102 135 186 233 291 363 428
#     4  10  22  44  66  94 138 172 232 286 342 424
#
# _framework density 21.751505000000002
#
# number of rings (size 3 to 8) (size 9 to 14) (size 15 to 20)
#    0.000    1.231    4.615    1.846   10.769    0.615 
#    2.769    0.000    0.000    0.000    0.000    0.000 
#    0.000    0.000    0.000    0.000    0.000    0.000 
#
# Total GULP energy -144869.204315 kJ/mol
# GULP energy per Si atom -5571.892474 kJ/mol
# Density = 2.170200 g / cm^3
# Si number density = 21.751505 Si / 1000 Ang^3
#
#
#
# Elastic Constant Matrix: (Units=GPa)
#
#
# Indices 1 2 3 4 5 6 
#
# 1 40.6566 12.4145 22.0905 0.0000 -3.3896 0.0000
# 2 12.4145 41.5609 9.5433 0.0000 5.0626 0.0000
# 3 22.0905 9.5433 130.9898 0.0000 -15.8636 0.0000
# 4 0.0000 0.0000 0.0000 50.8850 0.0000 47.1805
# 5 -3.3896 5.0626 -15.8636 0.0000 32.2672 0.0000
# 6 0.0000 0.0000 0.0000 47.1805 0.0000 151.7260
#
#
#
# Elastic Compliance Matrix: (Units=1/GPa)
#
#
# Indices 1 2 3 4 5 6 
#
# 1 0.029512 -0.008163 -0.004095 0.000000 0.002367 0.000000
# 2 -0.008163 0.027516 -0.001334 0.000000 -0.005831 0.000000
# 3 -0.004095 -0.001334 0.008927 0.000000 0.004168 0.000000
# 4 0.000000 0.000000 0.000000 0.027614 0.000000 -0.008587
# 5 0.002367 -0.005831 0.004168 0.000000 0.034204 0.000000
# 6 0.000000 0.000000 0.000000 -0.008587 0.000000 0.009261
#
#
# Mechanical properties :
#
#
# Convention : Reuss Voigt Hill
#
# Bulk Modulus (GPa) = 25.79403 33.47822 29.63613
# Shear Modulus (GPa) = 28.22604 58.25289 43.23947
#
# Velocity S-wave (km/s) = 3.60621 5.18066 4.46341
# Velocity P-wave (km/s) = 5.40592 7.15614 6.34170
#
# Compressibility (1/GPa) = 0.03876865
#
# Stress axis : x y z
#
# Youngs Moduli (GPa) = 33.88508 36.34242 112.02239
#
# Poissons Ratio (x) = 0.29667 0.45878
# Poissons Ratio (y) = 0.27661 0.14945
# Poissons Ratio (z) = 0.13877 0.04849
#
# Static dielectric constant tensor:
#      x y z
#    x 2.355480 0.000000 0.204360 
#    y 0.000000 1.839960 0.000000 
#    z 0.204360 0.000000 1.993420 
# 
# From -- ./inp_files/237179.got.cif
#   From: 2010.05.17/outbox.cif.g08.bks.cpg/sg15_119_cif.got.tgz:237179.got - 2010.06.03 18:47:42.
