data_PCOD9292251
_publ_section_title
;
Structure prediction by ZEFSAII (Michael W. Deem and Ramdas Pophale) SiO2 
 PCOD9292251
Probable space group: C 2/C
;
_chemical_formula_sum "Si O2"
_cell_formula_units_Z 56
_cell_length_a 16.322672
_cell_length_b 27.719493
_cell_length_c 8.006535
_cell_angle_alpha 90.000000
_cell_angle_beta 137.677703
_cell_angle_gamma 90.000000
_cell_volume 2439.101915
_symmetry_space_group_name_H-M "C 2/C"
_symmetry_group_IT_number 15
_symmetry_cell_setting 'monoclinic'
loop_
_space_group_symop_operation_xyz
x,y,z
-x,y,1/2-z
-x,-y,-z
x,-y,1/2+z
1/2+x,1/2+y,z
1/2-x,1/2+y,1/2-z
1/2-x,1/2-y,-z
1/2+x,1/2-y,1/2+z
loop_
_atom_site_type_symbol
_atom_site_label
_atom_site_fract_x
_atom_site_fract_y
_atom_site_fract_z
Si Si1 0.500000 0.518961 0.750000
Si Si2 0.058864 0.612762 0.168527
Si Si3 0.326981 0.704167 0.187209
Si Si4 0.360142 0.959258 0.988205
Si Si5 0.710344 0.885739 0.340342
Si Si6 0.175672 0.954550 0.238453
Si Si7 0.298577 0.794593 0.687412
Si Si8 0.000000 0.257398 0.250000
O O1 0.424204 0.482461 0.521479
O O2 0.396946 0.548886 0.695935
O O3 0.142360 0.660144 0.319815
O O4 0.000000 0.593282 0.250000
O O5 0.128280 0.572315 0.164508
O O6 0.932728 0.627751 0.886947
O O7 0.314177 0.693479 0.362434
O O8 0.458141 0.721525 0.333163
O O9 0.250000 0.750000 0.000000
O O10 0.283477 0.659135 0.017060
O O11 0.500000 0.966839 0.250000
O O12 0.290975 0.927269 0.021655
O O13 0.290331 0.009411 0.891014
O O14 0.774852 0.906193 0.272182
O O15 0.250000 0.750000 0.500000
O O16 0.399129 0.786470 0.990440
#
# Coordination Sequence:
#
# PCOD9292251 Si02
#       8
#     4   8   8   8   8   8   8   4
#     4  10  24  43  68  98 144 208 234 308 349 460
#     4  11  25  38  67 104 141 178 236 311 380 430
#     4  10  22  43  68  96 136 182 237 288 365 444
#     4  10  23  44  70 103 139 190 239 309 374 443
#     4  11  23  43  72  98 140 195 235 300 379 446
#     4  11  23  45  71 103 141 193 255 291 376 443
#     4  11  24  42  73 101 144 188 240 300 378 460
#     4  10  24  41  68  98 134 186 234 296 363 436
#
# _framework density 22.959268999999999
#
# number of rings (size 3 to 8) (size 9 to 14) (size 15 to 20)
#    0.000    1.429    2.857    1.714    9.000    3.429 
#    0.000    0.000    0.000    0.000    0.000    0.000 
#    0.000    0.000    0.000    0.000    0.000    0.000 
#
# Total GULP energy -156151.653481 kJ/mol
# GULP energy per Si atom -5576.844767 kJ/mol
# Density = 2.290701 g / cm^3
# Si number density = 22.959269 Si / 1000 Ang^3
#
#
#
# Elastic Constant Matrix: (Units=GPa)
#
#
# Indices 1 2 3 4 5 6 
#
# 1 145.4615 41.0409 10.1267 0.0000 -1.7338 0.0000
# 2 41.0409 99.2555 24.7013 0.0000 -3.8093 0.0000
# 3 10.1267 24.7013 51.6177 0.0000 -6.3413 0.0000
# 4 0.0000 0.0000 0.0000 52.1684 0.0000 10.3473
# 5 -1.7338 -3.8093 -6.3413 0.0000 22.6578 0.0000
# 6 0.0000 0.0000 0.0000 10.3473 0.0000 56.9970
#
#
#
# Elastic Compliance Matrix: (Units=1/GPa)
#
#
# Indices 1 2 3 4 5 6 
#
# 1 0.007783 -0.003221 0.000022 0.000000 0.000060 0.000000
# 2 -0.003221 0.012774 -0.005434 0.000000 0.000380 0.000000
# 3 0.000022 -0.005434 0.022636 0.000000 0.005423 0.000000
# 4 0.000000 0.000000 0.000000 0.019885 0.000000 -0.003610
# 5 0.000060 0.000380 0.005423 0.000000 0.045721 0.000000
# 6 0.000000 0.000000 0.000000 -0.003610 0.000000 0.018200
#
#
# Mechanical properties :
#
#
# Convention : Reuss Voigt Hill
#
# Bulk Modulus (GPa) = 38.57214 49.78583 44.17898
# Shear Modulus (GPa) = 32.69963 41.06235 36.88099
#
# Velocity S-wave (km/s) = 3.77801 4.23364 4.01230
# Velocity P-wave (km/s) = 5.98898 6.75498 6.38348
#
# Compressibility (1/GPa) = 0.02592545
#
# Stress axis : x y z
#
# Youngs Moduli (GPa) = 128.49015 78.28451 44.17816
#
# Poissons Ratio (x) = 0.25217 -0.00097
# Poissons Ratio (y) = 0.41389 0.24007
# Poissons Ratio (z) = -0.00283 0.42541
#
# Static dielectric constant tensor:
#      x y z
#    x 1.981290 0.000000 0.015500 
#    y 0.000000 1.816930 0.000000 
#    z 0.015500 0.000000 1.949900 
# 
# From -- ./inp_files/52412.got.cif
#   From: 2010.05.17/outbox.cif.g08.bks.cpg/sg15_27_cif.got.tgz:52412.got - 2010.06.03 18:47:42.
