data_PCOD9292851
_publ_section_title
;
Structure prediction by ZEFSAII (Michael W. Deem and Ramdas Pophale) SiO2 
 PCOD9292851
Probable space group: C 2/C
;
_chemical_formula_sum "Si O2"
_cell_formula_units_Z 44
_cell_length_a 9.489439
_cell_length_b 10.458895
_cell_length_c 24.746221
_cell_angle_alpha 90.000000
_cell_angle_beta 130.114044
_cell_angle_gamma 90.000000
_cell_volume 1878.288837
_symmetry_space_group_name_H-M "C 2/C"
_symmetry_group_IT_number 15
_symmetry_cell_setting 'monoclinic'
loop_
_space_group_symop_operation_xyz
x,y,z
-x,y,1/2-z
-x,-y,-z
x,-y,1/2+z
1/2+x,1/2+y,z
1/2-x,1/2+y,1/2-z
1/2-x,1/2-y,-z
1/2+x,1/2-y,1/2+z
loop_
_atom_site_type_symbol
_atom_site_label
_atom_site_fract_x
_atom_site_fract_y
_atom_site_fract_z
Si Si1 0.041108 0.947622 0.695188
Si Si2 0.484023 0.787600 0.100128
Si Si3 0.931043 0.856585 0.484540
Si Si4 0.580477 0.296298 0.143265
Si Si5 0.440068 0.974760 0.825523
Si Si6 0.500000 0.141332 0.750000
O O1 0.260975 0.944157 0.746372
O O2 0.000000 0.948432 0.750000
O O3 0.973924 0.824303 0.643884
O O4 0.996271 0.081972 0.654108
O O5 0.280027 0.848259 0.047292
O O6 0.607859 0.911598 0.144408
O O7 0.535920 0.724048 0.056371
O O8 0.941678 0.806636 0.426351
O O9 0.000000 0.000000 0.500000
O O10 0.494272 0.159555 0.136983
O O11 0.803113 0.290554 0.212795
O O12 0.565156 0.051410 0.815084
#
# Coordination Sequence:
#
# PCOD9292851 Si02
#       6
#     8   8   8   8   8   4
#     4  11  23  41  68 104 142 177 232 286 352 410
#     4  11  24  44  72  99 138 186 228 287 345 415
#     4  11  23  46  72  95 138 192 234 272 347 413
#     4  11  23  43  71  98 139 184 228 290 345 405
#     4  11  24  39  70 104 130 182 226 292 350 399
#     4  10  22  44  68  98 146 172 230 292 348 398
#
# _framework density 23.425577000000001
#
# number of rings (size 3 to 8) (size 9 to 14) (size 15 to 20)
#    0.000    1.091    3.636    3.273    3.818    0.727 
#    3.273    0.909    0.000    0.000    0.000    0.000 
#    0.000    0.000    0.000    0.000    0.000    0.000 
#
# Total GULP energy -122734.530514 kJ/mol
# GULP energy per Si atom -5578.842296 kJ/mol
# Density = 2.337226 g / cm^3
# Si number density = 23.425577 Si / 1000 Ang^3
#
#
#
# Elastic Constant Matrix: (Units=GPa)
#
#
# Indices 1 2 3 4 5 6 
#
# 1 56.4860 39.0156 20.0571 0.0000 -14.2465 0.0000
# 2 39.0156 225.4163 61.9610 0.0000 -19.0021 0.0000
# 3 20.0571 61.9610 97.0952 0.0000 -30.4072 0.0000
# 4 0.0000 0.0000 0.0000 24.1771 0.0000 6.1437
# 5 -14.2465 -19.0021 -30.4072 0.0000 35.1914 0.0000
# 6 0.0000 0.0000 0.0000 6.1437 0.0000 33.6342
#
#
#
# Elastic Compliance Matrix: (Units=1/GPa)
#
#
# Indices 1 2 3 4 5 6 
#
# 1 0.021674 -0.003072 -0.000396 0.000000 0.006774 0.000000
# 2 -0.003072 0.005815 -0.003404 0.000000 -0.001044 0.000000
# 3 -0.000396 -0.003404 0.016352 0.000000 0.012131 0.000000
# 4 0.000000 0.000000 0.000000 0.043375 0.000000 -0.007923
# 5 0.006774 -0.001044 0.012131 0.000000 0.041076 0.000000
# 6 0.000000 0.000000 0.000000 -0.007923 0.000000 0.031179
#
#
# Mechanical properties :
#
#
# Convention : Reuss Voigt Hill
#
# Bulk Modulus (GPa) = 33.22319 69.00719 51.11519
# Shear Modulus (GPa) = 27.28567 35.79812 31.54189
#
# Velocity S-wave (km/s) = 3.41659 3.91341 3.67341
# Velocity P-wave (km/s) = 5.45686 7.06695 6.31344
#
# Compressibility (1/GPa) = 0.03009945
#
# Stress axis : x y z
#
# Youngs Moduli (GPa) = 46.13812 171.95699 61.15481
#
# Poissons Ratio (x) = 0.52818 0.02420
# Poissons Ratio (y) = 0.14172 0.20815
# Poissons Ratio (z) = 0.01826 0.58527
#
# Static dielectric constant tensor:
#      x y z
#    x 1.925880 0.000000 -0.030340 
#    y 0.000000 1.948990 0.000000 
#    z -0.030340 0.000000 2.034530 
# 
# From -- ./inp_files/236073.got.cif
#   From: 2010.05.17/outbox.cif.g08.bks.cpg/sg15_119_cif.got.tgz:236073.got - 2010.06.03 18:47:42.
