data_PCOD9292330
_publ_section_title
;
Structure prediction by ZEFSAII (Michael W. Deem and Ramdas Pophale) SiO2 
 PCOD9292330
Probable space group: C 2/C
;
_chemical_formula_sum "Si O2"
_cell_formula_units_Z 36
_cell_length_a 23.818151
_cell_length_b 12.943217
_cell_length_c 9.486930
_cell_angle_alpha 90.000000
_cell_angle_beta 145.587576
_cell_angle_gamma 90.000000
_cell_volume 1652.861865
_symmetry_space_group_name_H-M "C 2/C"
_symmetry_group_IT_number 15
_symmetry_cell_setting 'monoclinic'
loop_
_space_group_symop_operation_xyz
x,y,z
-x,y,1/2-z
-x,-y,-z
x,-y,1/2+z
1/2+x,1/2+y,z
1/2-x,1/2+y,1/2-z
1/2-x,1/2-y,-z
1/2+x,1/2-y,1/2+z
loop_
_atom_site_type_symbol
_atom_site_label
_atom_site_fract_x
_atom_site_fract_y
_atom_site_fract_z
Si Si1 0.404837 0.968392 0.897003
Si Si2 0.447649 0.749623 0.929625
Si Si3 0.583980 0.433126 0.822416
Si Si4 0.806800 0.929855 0.173183
Si Si5 0.000000 0.363281 0.750000
O O1 0.424862 0.849471 0.978267
O O2 0.302150 0.962542 0.600310
O O3 0.410579 0.057128 0.026498
O O4 0.500000 0.000000 0.000000
O O5 0.348333 0.681358 0.710965
O O6 0.477258 0.793245 0.837996
O O7 0.532898 0.674251 0.167853
O O8 0.500000 0.484116 0.750000
O O9 0.619491 0.493518 0.759407
O O10 0.674460 0.427664 0.120556
#
# Coordination Sequence:
#
# PCOD9292330 Si02
#       5
#     8   8   8   8   4
#     4  10  24  45  64  96 139 184 226 276 334 411
#     4  10  22  43  69  98 138 177 227 283 351 403
#     4  10  23  42  70 103 138 172 224 293 343 400
#     4  11  24  42  74 101 135 180 233 282 345 406
#     4  10  24  42  68  96 144 180 224 290 334 404
#
# _framework density 21.780404999999998
#
# number of rings (size 3 to 8) (size 9 to 14) (size 15 to 20)
#    0.000    1.778    0.000    3.333   15.556    0.000 
#    0.000    4.444    0.000    0.000    0.000    0.000 
#    0.000    0.000    0.000    0.000    0.000    0.000 
#
# Total GULP energy -100364.747160 kJ/mol
# GULP energy per Si atom -5575.819287 kJ/mol
# Density = 2.173083 g / cm^3
# Si number density = 21.780405 Si / 1000 Ang^3
#
#
#
# Elastic Constant Matrix: (Units=GPa)
#
#
# Indices 1 2 3 4 5 6 
#
# 1 89.9964 39.5558 52.3617 0.0000 -17.9322 0.0000
# 2 39.5558 110.1966 56.1281 0.0000 -7.2992 0.0000
# 3 52.3617 56.1281 202.9901 0.0000 -6.3538 0.0000
# 4 0.0000 0.0000 0.0000 38.7369 0.0000 -12.2341
# 5 -17.9322 -7.2992 -6.3538 0.0000 42.6048 0.0000
# 6 0.0000 0.0000 0.0000 -12.2341 0.0000 24.5140
#
#
#
# Elastic Compliance Matrix: (Units=1/GPa)
#
#
# Indices 1 2 3 4 5 6 
#
# 1 0.015474 -0.003780 -0.002776 0.000000 0.005451 0.000000
# 2 -0.003780 0.011567 -0.002222 0.000000 0.000060 0.000000
# 3 -0.002776 -0.002222 0.006237 0.000000 -0.000619 0.000000
# 4 0.000000 0.000000 0.000000 0.030645 0.000000 0.015294
# 5 0.005451 0.000060 -0.000619 0.000000 0.025684 0.000000
# 6 0.000000 0.000000 0.000000 0.015294 0.000000 0.048426
#
#
# Mechanical properties :
#
#
# Convention : Reuss Voigt Hill
#
# Bulk Modulus (GPa) = 63.59560 77.69714 70.64637
# Shear Modulus (GPa) = 31.08899 38.18029 34.63464
#
# Velocity S-wave (km/s) = 3.78217 4.19138 3.99203
# Velocity P-wave (km/s) = 6.95234 7.69246 7.33175
#
# Compressibility (1/GPa) = 0.01572436
#
# Stress axis : x y z
#
# Youngs Moduli (GPa) = 64.62433 86.45402 160.32633
#
# Poissons Ratio (x) = 0.32676 0.44504
# Poissons Ratio (y) = 0.24425 0.35617
# Poissons Ratio (z) = 0.17939 0.19206
#
# Static dielectric constant tensor:
#      x y z
#    x 1.873430 0.000000 -0.037720 
#    y 0.000000 1.826690 0.000000 
#    z -0.037720 0.000000 1.878400 
# 
# From -- ./inp_files/126330.got.cif
#   From: 2010.05.17/outbox.cif.g08.bks.cpg/sg15_64_cif.got.tgz:126330.got - 2010.06.03 18:47:42.
