data_PCOD9292411
_publ_section_title
;
Structure prediction by ZEFSAII (Michael W. Deem and Ramdas Pophale) SiO2 
 PCOD9292411
Probable space group: C 2/C
;
_chemical_formula_sum "Si O2"
_cell_formula_units_Z 48
_cell_length_a 18.239169
_cell_length_b 6.754907
_cell_length_c 17.765465
_cell_angle_alpha 90.000000
_cell_angle_beta 50.824747
_cell_angle_gamma 90.000000
_cell_volume 1696.776002
_symmetry_space_group_name_H-M "C 2/C"
_symmetry_group_IT_number 15
_symmetry_cell_setting 'monoclinic'
loop_
_space_group_symop_operation_xyz
x,y,z
-x,y,1/2-z
-x,-y,-z
x,-y,1/2+z
1/2+x,1/2+y,z
1/2-x,1/2+y,1/2-z
1/2-x,1/2-y,-z
1/2+x,1/2-y,1/2+z
loop_
_atom_site_type_symbol
_atom_site_label
_atom_site_fract_x
_atom_site_fract_y
_atom_site_fract_z
Si Si1 0.323703 0.089510 0.919651
Si Si2 0.581750 0.383382 0.759109
Si Si3 0.074288 0.152904 0.037350
Si Si4 0.401431 0.173810 0.264263
Si Si5 0.699749 0.263947 0.939704
Si Si6 0.103933 0.457527 0.901639
O O1 0.415403 0.173651 0.907218
O O2 0.302018 0.904543 0.997027
O O3 0.250000 0.250000 0.000000
O O4 0.300578 0.890941 0.870489
O O5 0.500000 0.414601 0.750000
O O6 0.536660 0.383035 0.872745
O O7 0.628179 0.598127 0.723387
O O8 0.642229 0.208027 0.685013
O O9 0.124789 0.937730 0.010614
O O10 0.121299 0.249352 0.933193
O O11 0.500000 0.149099 0.250000
O O12 0.404392 0.085557 0.180458
O O13 0.668938 0.141448 0.885397
O O14 0.000000 0.500000 0.000000
#
# Coordination Sequence:
#
# PCOD9292411 Si02
#       6
#     8   8   8   8   8   8
#     4   9  23  44  71 103 136 183 240 298 352 419
#     4  10  22  43  71 103 139 186 237 299 359 423
#     4  11  24  44  72 101 143 181 241 298 355 418
#     4  10  25  42  69 100 142 188 237 289 362 424
#     4  10  26  43  68 102 135 185 234 294 351 418
#     4  12  27  45  67 102 142 187 237 289 360 434
#
# _framework density 28.288944999999998
#
# number of rings (size 3 to 8) (size 9 to 14) (size 15 to 20)
#    1.000    0.667    0.000    2.500    4.667   10.667 
#    0.000    0.000    0.000    0.000    0.000    0.000 
#    0.000    0.000    0.000    0.000    0.000    0.000 
#
# Total GULP energy -133722.702308 kJ/mol
# GULP energy per Si atom -5571.779263 kJ/mol
# Density = 2.822456 g / cm^3
# Si number density = 28.288945 Si / 1000 Ang^3
#
#
#
# Elastic Constant Matrix: (Units=GPa)
#
#
# Indices 1 2 3 4 5 6 
#
# 1 146.7902 95.4143 80.0834 0.0007 -7.9288 0.0014
# 2 95.4143 289.7789 113.0356 0.0015 11.7676 0.0034
# 3 80.0834 113.0356 228.0908 -0.0003 9.9214 -0.0009
# 4 0.0007 0.0015 -0.0003 62.0552 0.0001 -4.3893
# 5 -7.9288 11.7676 9.9214 0.0001 41.5849 0.0008
# 6 0.0014 0.0034 -0.0009 -4.3893 0.0008 43.8905
#
#
#
# Elastic Compliance Matrix: (Units=1/GPa)
#
#
# Indices 1 2 3 4 5 6 
#
# 1 0.009878 -0.002447 -0.002392 0.000000 0.003147 0.000000
# 2 -0.002447 0.004905 -0.001507 0.000000 -0.001495 0.000000
# 3 -0.002392 -0.001507 0.006035 0.000000 -0.001470 0.000000
# 4 0.000000 0.000000 0.000000 0.016229 0.000000 0.001623
# 5 0.003147 -0.001495 -0.001470 0.000000 0.025421 0.000000
# 6 0.000000 0.000000 0.000000 0.001623 0.000000 0.022946
#
#
# Mechanical properties :
#
#
# Convention : Reuss Voigt Hill
#
# Bulk Modulus (GPa) = 123.06490 137.96962 130.51726
# Shear Modulus (GPa) = 49.59546 54.58123 52.08835
#
# Velocity S-wave (km/s) = 4.19164 4.39728 4.29569
# Velocity P-wave (km/s) = 8.18680 8.64054 8.41673
#
# Compressibility (1/GPa) = 0.00812579
#
# Stress axis : x y z
#
# Youngs Moduli (GPa) = 101.23209 203.87090 165.70675
#
# Poissons Ratio (x) = 0.49890 0.39644
# Poissons Ratio (y) = 0.24773 0.24965
# Poissons Ratio (z) = 0.24219 0.30715
#
# Static dielectric constant tensor:
#      x y z
#    x 3.110070 0.000000 0.212000 
#    y 0.000000 2.416310 0.000000 
#    z 0.212000 0.000000 2.305870 
# 
# From -- ./inp_files/250821.got.cif
#   From: 2010.05.17/outbox.cif.g08.bks.cpg/sg15_126_cif.got.tgz:250821.got - 2010.06.03 18:47:42.
