data_PCOD9292582
_publ_section_title
;
Structure prediction by ZEFSAII (Michael W. Deem and Ramdas Pophale) SiO2 
 PCOD9292582
Probable space group: C 2/C
;
_chemical_formula_sum "Si O2"
_cell_formula_units_Z 44
_cell_length_a 26.117562
_cell_length_b 5.559708
_cell_length_c 12.636373
_cell_angle_alpha 90.000000
_cell_angle_beta 85.606710
_cell_angle_gamma 90.000000
_cell_volume 1829.486045
_symmetry_space_group_name_H-M "C 2/C"
_symmetry_group_IT_number 15
_symmetry_cell_setting 'monoclinic'
loop_
_space_group_symop_operation_xyz
x,y,z
-x,y,1/2-z
-x,-y,-z
x,-y,1/2+z
1/2+x,1/2+y,z
1/2-x,1/2+y,1/2-z
1/2-x,1/2-y,-z
1/2+x,1/2-y,1/2+z
loop_
_atom_site_type_symbol
_atom_site_label
_atom_site_fract_x
_atom_site_fract_y
_atom_site_fract_z
Si Si1 0.186364 0.519344 0.209826
Si Si2 0.000000 0.593868 0.750000
Si Si3 0.554450 0.952407 0.928134
Si Si4 0.690214 0.520291 0.328966
Si Si5 0.048222 0.068054 0.068274
Si Si6 0.366231 0.258099 0.474453
O O1 0.247898 0.520112 0.186104
O O2 0.173358 0.255925 0.261013
O O3 0.173861 0.757055 0.285052
O O4 0.161218 0.571841 0.099213
O O5 0.961922 0.431603 0.688838
O O6 0.971035 0.769313 0.833953
O O7 0.594883 0.158035 0.942055
O O8 0.579318 0.726082 0.979150
O O9 0.500000 0.000000 0.000000
O O10 0.673280 0.581334 0.452304
O O11 0.089204 0.881153 0.103340
O O12 0.000000 0.000000 0.000000
#
# Coordination Sequence:
#
# PCOD9292582 Si02
#       6
#     8   4   8   8   8   8
#     4  10  25  47  74 100 144 176 230 285 355 413
#     4  10  22  44  64  84 138 188 222 290 342 388
#     4  10  23  43  59  93 136 175 230 275 338 402
#     4  10  25  48  70 108 135 182 227 288 351 416
#     4  11  24  45  61  98 132 181 233 282 339 410
#     4  12  25  42  71 101 135 177 234 283 342 411
#
# _framework density 24.050470000000001
#
# number of rings (size 3 to 8) (size 9 to 14) (size 15 to 20)
#    0.000    1.455    3.636    0.545    7.636    2.182 
#    0.000    5.455    0.000    0.000    0.000    0.000 
#    0.000    0.000    0.000    0.000    0.000    0.000 
#
# Total GULP energy -122644.989816 kJ/mol
# GULP energy per Si atom -5574.772264 kJ/mol
# Density = 2.399573 g / cm^3
# Si number density = 24.050470 Si / 1000 Ang^3
#
#
#
# Elastic Constant Matrix: (Units=GPa)
#
#
# Indices 1 2 3 4 5 6 
#
# 1 60.2700 12.4975 21.9070 0.0000 -1.4197 0.0000
# 2 12.4975 76.3216 12.2390 0.0000 -1.8320 0.0000
# 3 21.9070 12.2390 104.3064 0.0000 10.8438 0.0000
# 4 0.0000 0.0000 0.0000 27.2620 0.0000 -9.9217
# 5 -1.4197 -1.8320 10.8438 0.0000 36.7058 0.0000
# 6 0.0000 0.0000 0.0000 -9.9217 0.0000 9.2321
#
#
#
# Elastic Compliance Matrix: (Units=1/GPa)
#
#
# Indices 1 2 3 4 5 6 
#
# 1 0.018502 -0.002382 -0.003785 0.000000 0.001715 0.000000
# 2 -0.002382 0.013709 -0.001207 0.000000 0.000949 0.000000
# 3 -0.003785 -0.001207 0.010879 0.000000 -0.003421 0.000000
# 4 0.000000 0.000000 0.000000 0.060244 0.000000 0.064744
# 5 0.001715 0.000949 -0.003421 0.000000 0.028368 0.000000
# 6 0.000000 0.000000 0.000000 0.064744 0.000000 0.177897
#
#
# Mechanical properties :
#
#
# Convention : Reuss Voigt Hill
#
# Bulk Modulus (GPa) = 35.28156 37.13168 36.20662
# Shear Modulus (GPa) = 14.97936 27.59029 21.28482
#
# Velocity S-wave (km/s) = 2.49836 3.39068 2.97813
# Velocity P-wave (km/s) = 4.79834 5.54992 5.18776
#
# Compressibility (1/GPa) = 0.02834342
#
# Stress axis : x y z
#
# Youngs Moduli (GPa) = 54.04847 72.94610 91.91806
#
# Poissons Ratio (x) = 0.17373 0.34788
# Poissons Ratio (y) = 0.12872 0.11094
# Poissons Ratio (z) = 0.20456 0.08804
#
# Static dielectric constant tensor:
#      x y z
#    x 1.903190 0.000000 -0.085980 
#    y 0.000000 2.292920 0.000000 
#    z -0.085980 0.000000 1.916960 
# 
# From -- ./inp_files/125075.got.cif
#   From: 2010.05.17/outbox.cif.g08.bks.cpg/sg15_63_cif.got.tgz:125075.got - 2010.06.03 18:47:42.
