data_PCOD9292272
_publ_section_title
;
Structure prediction by ZEFSAII (Michael W. Deem and Ramdas Pophale) SiO2 
 PCOD9292272
Probable space group: C 2/C
;
_chemical_formula_sum "Si O2"
_cell_formula_units_Z 24
_cell_length_a 6.772333
_cell_length_b 20.876130
_cell_length_c 7.289127
_cell_angle_alpha 90.000000
_cell_angle_beta 117.681114
_cell_angle_gamma 90.000000
_cell_volume 912.589216
_symmetry_space_group_name_H-M "C 2/C"
_symmetry_group_IT_number 15
_symmetry_cell_setting 'monoclinic'
loop_
_space_group_symop_operation_xyz
x,y,z
-x,y,1/2-z
-x,-y,-z
x,-y,1/2+z
1/2+x,1/2+y,z
1/2-x,1/2+y,1/2-z
1/2-x,1/2-y,-z
1/2+x,1/2-y,1/2+z
loop_
_atom_site_type_symbol
_atom_site_label
_atom_site_fract_x
_atom_site_fract_y
_atom_site_fract_z
Si Si1 0.005560 0.185341 0.034773
Si Si2 0.220787 0.935341 0.965227
Si Si3 0.500000 0.203915 0.250000
Si Si4 0.000000 0.453915 0.750000
O O1 0.842359 0.125000 0.934719
O O2 0.000000 0.196068 0.250000
O O3 0.264911 0.170758 0.099705
O O4 0.946467 0.247674 0.894486
O O5 0.415206 0.920758 0.900295
O O6 0.000000 0.946068 0.750000
O O7 0.301981 0.997674 0.105514
#
# Coordination Sequence:
#
# PCOD9292272 Si02
#       4
#     8   8   4   4
#     4  10  22  43  68  99 131 177 224 272 338 397
#     4  10  22  43  68  99 131 177 224 272 338 397
#     4  10  22  45  68  94 140 174 219 280 330 398
#     4  10  22  45  68  94 140 174 219 280 330 398
#
# _framework density 26.298797
#
# number of rings (size 3 to 8) (size 9 to 14) (size 15 to 20)
#    0.000    2.000    0.000    2.000    0.000    5.333 
#   54.000    0.000    0.000    0.000    0.000    0.000 
#    0.000    0.000    0.000    0.000    0.000    0.000 
#
# Total GULP energy -67143.624817 kJ/mol
# GULP energy per Si atom -5595.302068 kJ/mol
# Density = 2.623894 g / cm^3
# Si number density = 26.298797 Si / 1000 Ang^3
#
#
#
# Elastic Constant Matrix: (Units=GPa)
#
#
# Indices 1 2 3 4 5 6 
#
# 1 213.5031 71.5094 5.7394 0.0000 0.8686 0.0000
# 2 71.5094 104.8673 13.7537 0.0000 0.3186 0.0000
# 3 5.7394 13.7537 53.9743 0.0000 0.0111 0.0000
# 4 0.0000 0.0000 0.0000 53.9123 0.0000 0.0119
# 5 0.8686 0.3186 0.0111 0.0000 25.1206 0.0000
# 6 0.0000 0.0000 0.0000 0.0119 0.0000 56.0790
#
#
#
# Elastic Compliance Matrix: (Units=1/GPa)
#
#
# Indices 1 2 3 4 5 6 
#
# 1 0.006080 -0.004201 0.000424 0.000000 -0.000157 0.000000
# 2 -0.004201 0.012769 -0.002807 0.000000 -0.000015 0.000000
# 3 0.000424 -0.002807 0.019198 0.000000 0.000012 0.000000
# 4 0.000000 0.000000 0.000000 0.018549 0.000000 -0.000004
# 5 -0.000157 -0.000015 0.000012 0.000000 0.039814 0.000000
# 6 0.000000 0.000000 0.000000 -0.000004 0.000000 0.017832
#
#
# Mechanical properties :
#
#
# Convention : Reuss Voigt Hill
#
# Bulk Modulus (GPa) = 40.19582 61.59439 50.89510
# Shear Modulus (GPa) = 36.84546 45.77852 41.31199
#
# Velocity S-wave (km/s) = 3.74710 4.17671 3.96772
# Velocity P-wave (km/s) = 5.83425 6.83606 6.35492
#
# Compressibility (1/GPa) = 0.02487821
#
# Stress axis : x y z
#
# Youngs Moduli (GPa) = 164.46994 78.31541 52.09002
#
# Poissons Ratio (x) = 0.32902 -0.02209
# Poissons Ratio (y) = 0.69097 0.14622
# Poissons Ratio (z) = -0.06974 0.21983
#
# Static dielectric constant tensor:
#      x y z
#    x 2.169950 0.000000 0.000880 
#    y 0.000000 2.353800 0.000000 
#    z 0.000880 0.000000 2.010070 
# 
# From -- ./inp_files/19488.got.cif
#   From: 2010.05.17/outbox.cif.g08.bks.cpg/sg15_10_cif.got.tgz:19488.got - 2010.06.03 18:47:42.
