data_PCOD9292233
_publ_section_title
;
Structure prediction by ZEFSAII (Michael W. Deem and Ramdas Pophale) SiO2 
 PCOD9292233
Probable space group: C 2/C
;
_chemical_formula_sum "Si O2"
_cell_formula_units_Z 52
_cell_length_a 15.074814
_cell_length_b 6.520791
_cell_length_c 22.246332
_cell_angle_alpha 90.000000
_cell_angle_beta 66.775544
_cell_angle_gamma 90.000000
_cell_volume 2009.604635
_symmetry_space_group_name_H-M "C 2/C"
_symmetry_group_IT_number 15
_symmetry_cell_setting 'monoclinic'
loop_
_space_group_symop_operation_xyz
x,y,z
-x,y,1/2-z
-x,-y,-z
x,-y,1/2+z
1/2+x,1/2+y,z
1/2-x,1/2+y,1/2-z
1/2-x,1/2-y,-z
1/2+x,1/2-y,1/2+z
loop_
_atom_site_type_symbol
_atom_site_label
_atom_site_fract_x
_atom_site_fract_y
_atom_site_fract_z
Si Si1 0.497292 0.415816 0.838516
Si Si2 0.974405 0.775920 0.070012
Si Si3 0.305257 0.208256 0.894055
Si Si4 0.500000 0.256546 0.250000
Si Si5 0.677264 0.056463 0.875928
Si Si6 0.348173 0.568830 0.031849
Si Si7 0.145137 0.417532 0.252510
O O1 0.549300 0.559730 0.872246
O O2 0.412466 0.269995 0.884378
O O3 0.448909 0.587334 0.808928
O O4 0.574330 0.274209 0.784496
O O5 0.927630 0.556891 0.094801
O O6 0.089320 0.795979 0.031018
O O7 0.919044 0.877450 0.028456
O O8 0.244634 0.414112 0.898650
O O9 0.308021 0.115473 0.825122
O O10 0.252241 0.047370 0.951540
O O11 0.576361 0.113915 0.262672
O O12 0.668984 0.275934 0.908507
O O13 0.706517 0.062208 0.797457
#
# Coordination Sequence:
#
# PCOD9292233 Si02
#       7
#     8   8   8   4   8   8   8
#     4  12  23  42  66  94 127 171 218 263 323 392
#     4  10  22  43  68  91 121 178 224 256 317 390
#     4  11  26  38  60 102 131 164 208 271 328 380
#     4  12  22  40  66  90 128 170 214 262 312 392
#     4  11  24  40  66  94 126 171 215 267 325 376
#     4  10  23  43  64  92 134 166 217 270 312 383
#     4  12  24  40  65  96 129 171 206 260 331 387
#
# _framework density 25.875736
#
# number of rings (size 3 to 8) (size 9 to 14) (size 15 to 20)
#    0.000    0.923    6.154    0.462    4.308    0.615 
#    0.000    0.769    0.000    0.000    0.000    0.000 
#    0.000    0.000    0.000    0.000    0.000    0.000 
#
# Total GULP energy -145425.920035 kJ/mol
# GULP energy per Si atom -5593.304617 kJ/mol
# Density = 2.581684 g / cm^3
# Si number density = 25.875736 Si / 1000 Ang^3
#
#
#
# Elastic Constant Matrix: (Units=GPa)
#
#
# Indices 1 2 3 4 5 6 
#
# 1 39.8394 41.3262 14.7034 0.0000 -4.3308 0.0003
# 2 41.3262 114.6586 29.4262 0.0003 -11.9287 0.0004
# 3 14.7034 29.4262 61.6533 0.0001 -7.8281 0.0000
# 4 0.0000 0.0003 0.0001 16.2931 0.0002 2.4313
# 5 -4.3308 -11.9287 -7.8281 0.0002 27.2644 0.0001
# 6 0.0003 0.0004 0.0000 2.4313 0.0001 42.8846
#
#
#
# Elastic Compliance Matrix: (Units=1/GPa)
#
#
# Indices 1 2 3 4 5 6 
#
# 1 0.040601 -0.013887 -0.003121 0.000000 -0.000523 0.000000
# 2 -0.013887 0.014948 -0.003396 0.000000 0.003359 0.000000
# 3 -0.003121 -0.003396 0.019027 0.000000 0.003481 0.000000
# 4 0.000000 0.000000 0.000000 0.061899 -0.000001 -0.003509
# 5 -0.000523 0.003359 0.003481 -0.000001 0.039064 0.000000
# 6 0.000000 0.000000 0.000000 -0.003509 0.000000 0.023517
#
#
# Mechanical properties :
#
#
# Convention : Reuss Voigt Hill
#
# Bulk Modulus (GPa) = 29.61416 43.00699 36.31058
# Shear Modulus (GPa) = 19.91068 26.00144 22.95606
#
# Velocity S-wave (km/s) = 2.77695 3.17339 2.98176
# Velocity P-wave (km/s) = 4.66385 5.48488 5.09094
#
# Compressibility (1/GPa) = 0.03376763
#
# Stress axis : x y z
#
# Youngs Moduli (GPa) = 24.62969 66.89887 52.55699
#
# Poissons Ratio (x) = 0.92904 0.16403
# Poissons Ratio (y) = 0.34204 0.17848
# Poissons Ratio (z) = 0.07687 0.22719
#
# Static dielectric constant tensor:
#      x y z
#    x 2.076930 0.000000 0.031260 
#    y 0.000000 1.953800 0.000000 
#    z 0.031260 0.000000 2.129220 
# 
# From -- ./inp_files/297664.got.cif
#   From: 2010.05.17/outbox.cif.g08.bks.cpg/sg15_149_cif.got.tgz:297664.got - 2010.06.03 18:47:42.
