data_PCOD9292345
_publ_section_title
;
Structure prediction by ZEFSAII (Michael W. Deem and Ramdas Pophale) SiO2 
 PCOD9292345
Probable space group: C 2/C
;
_chemical_formula_sum "Si O2"
_cell_formula_units_Z 24
_cell_length_a 9.560726
_cell_length_b 9.023613
_cell_length_c 17.720383
_cell_angle_alpha 90.000000
_cell_angle_beta 34.508926
_cell_angle_gamma 90.000000
_cell_volume 866.105688
_symmetry_space_group_name_H-M "C 2/C"
_symmetry_group_IT_number 15
_symmetry_cell_setting 'monoclinic'
loop_
_space_group_symop_operation_xyz
x,y,z
-x,y,1/2-z
-x,-y,-z
x,-y,1/2+z
1/2+x,1/2+y,z
1/2-x,1/2+y,1/2-z
1/2-x,1/2-y,-z
1/2+x,1/2-y,1/2+z
loop_
_atom_site_type_symbol
_atom_site_label
_atom_site_fract_x
_atom_site_fract_y
_atom_site_fract_z
Si Si1 0.359895 0.657076 0.567916
Si Si2 0.509462 0.618502 0.827092
Si Si3 0.530709 0.067726 0.585556
O O1 0.500000 0.500000 0.500000
O O2 0.414276 0.701892 0.630475
O O3 0.466228 0.786676 0.468054
O O4 0.107774 0.619897 0.634856
O O5 0.500000 0.699604 0.750000
O O6 0.748935 0.511597 0.711114
O O7 0.254225 0.534318 0.956805
#
# Coordination Sequence:
#
# PCOD9292345 Si02
#       3
#     8   8   8
#     4   9  21  42  69 100 138 186 236 282 342 417
#     4  11  23  41  68 102 138 179 231 288 350 412
#     4  10  22  43  70 100 139 183 231 289 347 415
#
# _framework density 27.710245
#
# number of rings (size 3 to 8) (size 9 to 14) (size 15 to 20)
#    0.000    2.000    0.000    2.000    0.000    9.333 
#    0.000   20.000    0.000    0.000    0.000    0.000 
#    0.000    0.000    0.000    0.000    0.000    0.000 
#
# Total GULP energy -67021.125374 kJ/mol
# GULP energy per Si atom -5585.093781 kJ/mol
# Density = 2.764718 g / cm^3
# Si number density = 27.710245 Si / 1000 Ang^3
#
#
#
# Elastic Constant Matrix: (Units=GPa)
#
#
# Indices 1 2 3 4 5 6 
#
# 1 256.5819 33.9244 83.8259 -0.0002 56.9188 0.0001
# 2 33.9244 87.8720 31.2192 -0.0001 6.0818 0.0001
# 3 83.8259 31.2192 159.1224 -0.0015 -3.4869 0.0006
# 4 -0.0002 -0.0001 -0.0015 1.7771 0.0005 8.4443
# 5 56.9188 6.0818 -3.4869 0.0005 107.7048 -0.0002
# 6 0.0001 0.0001 0.0006 8.4443 -0.0002 36.1854
#
#
#
# Elastic Compliance Matrix: (Units=1/GPa)
#
#
# Indices 1 2 3 4 5 6 
#
# 1 0.005618 -0.000952 -0.002838 0.000009 -0.003007 -0.000002
# 2 -0.000952 0.012458 -0.001948 0.000007 -0.000263 -0.000002
# 3 -0.002838 -0.001948 0.008203 -0.000059 0.001876 0.000014
# 4 0.000009 0.000007 -0.000059 -5.166730 0.000017 1.205725
# 5 -0.003007 -0.000263 0.001876 0.000017 0.010949 -0.000004
# 6 -0.000002 -0.000002 0.000014 1.205725 -0.000004 -0.253736
#
#
# Mechanical properties :
#
#
# Convention : Reuss Voigt Hill
#
# Bulk Modulus (GPa) = 67.56347 89.05727 78.31037
# Shear Modulus (GPa) = -0.93165 52.77390 25.92112
#
# Velocity S-wave (km/s) = -0.58047 4.36878 3.06181
# Velocity P-wave (km/s) = 4.89753 7.59321 6.38916
#
# Compressibility (1/GPa) = 0.01480090
#
# Stress axis : x y z
#
# Youngs Moduli (GPa) = 178.01027 80.26797 121.90448
#
# Poissons Ratio (x) = 0.07643 0.34602
# Poissons Ratio (y) = 0.16951 0.23752
# Poissons Ratio (z) = 0.50527 0.15639
#
# Static dielectric constant tensor:
#      x y z
#    x 2.198010 0.000000 0.027790 
#    y 0.000000 2.111040 0.000000 
#    z 0.027790 0.000000 2.247380 
# 
# From -- ./inp_files/236396.got.cif
#   From: 2010.05.17/outbox.cif.g08.bks.cpg/sg15_119_cif.got.tgz:236396.got - 2010.06.03 18:47:42.
