data_PCOD9292741
_publ_section_title
;
Structure prediction by ZEFSAII (Michael W. Deem and Ramdas Pophale) SiO2 
 PCOD9292741
Probable space group: C 2/C
;
_chemical_formula_sum "Si O2"
_cell_formula_units_Z 56
_cell_length_a 23.744681
_cell_length_b 8.480613
_cell_length_c 12.305918
_cell_angle_alpha 90.000000
_cell_angle_beta 106.131199
_cell_angle_gamma 90.000000
_cell_volume 2380.470730
_symmetry_space_group_name_H-M "C 2/C"
_symmetry_group_IT_number 15
_symmetry_cell_setting 'monoclinic'
loop_
_space_group_symop_operation_xyz
x,y,z
-x,y,1/2-z
-x,-y,-z
x,-y,1/2+z
1/2+x,1/2+y,z
1/2-x,1/2+y,1/2-z
1/2-x,1/2-y,-z
1/2+x,1/2-y,1/2+z
loop_
_atom_site_type_symbol
_atom_site_label
_atom_site_fract_x
_atom_site_fract_y
_atom_site_fract_z
Si Si1 0.721181 0.396128 0.925118
Si Si2 0.671674 0.034794 0.180702
Si Si3 0.564775 0.474500 0.487222
Si Si4 0.143411 0.201749 0.197897
Si Si5 0.756458 0.862986 0.902753
Si Si6 0.572336 0.173800 0.999181
Si Si7 0.967230 0.649049 0.117366
O O1 0.772002 0.469467 0.872542
O O2 0.664433 0.354926 0.825464
O O3 0.750000 0.250000 0.000000
O O4 0.706058 0.502297 0.019986
O O5 0.698406 0.074669 0.313118
O O6 0.627933 0.885079 0.175734
O O7 0.629682 0.163427 0.105474
O O8 0.500000 0.500000 0.500000
O O9 0.602815 0.417988 0.611887
O O10 0.575170 0.652018 0.448049
O O11 0.566810 0.318075 0.411056
O O12 0.206067 0.211621 0.171146
O O13 0.750000 0.750000 0.000000
O O14 0.568786 0.014384 0.923280
O O15 0.515747 0.161902 0.047574
O O16 0.000000 0.639544 0.250000
#
# Coordination Sequence:
#
# PCOD9292741 Si02
#       7
#     8   8   8   8   8   8   8
#     4  11  24  41  60  96 131 171 218 264 324 402
#     4  11  23  40  65  94 131 176 213 265 333 395
#     4  10  23  44  65  90 129 171 219 276 332 386
#     4  11  23  42  65  90 134 173 215 278 327 389
#     4  11  24  40  62  94 131 168 216 264 324 402
#     4  10  23  41  65  95 129 167 214 272 330 384
#     4  10  22  44  67  92 126 167 219 272 329 392
#
# _framework density 23.524759
#
# number of rings (size 3 to 8) (size 9 to 14) (size 15 to 20)
#    0.000    1.429    4.286    0.000    4.000    2.857 
#    2.571    0.000    0.000    0.000    0.000    0.000 
#    0.000    0.000    0.000    0.000    0.000    0.000 
#
# Total GULP energy -156089.267286 kJ/mol
# GULP energy per Si atom -5574.616689 kJ/mol
# Density = 2.347122 g / cm^3
# Si number density = 23.524759 Si / 1000 Ang^3
#
#
#
# Elastic Constant Matrix: (Units=GPa)
#
#
# Indices 1 2 3 4 5 6 
#
# 1 57.4179 15.3780 6.7413 0.0000 2.2149 0.0000
# 2 15.3780 174.2737 69.8375 0.0000 8.1238 0.0000
# 3 6.7413 69.8375 144.6637 0.0000 19.9923 0.0000
# 4 0.0000 0.0000 0.0000 14.0986 0.0000 14.1159
# 5 2.2149 8.1238 19.9923 0.0000 30.6923 0.0000
# 6 0.0000 0.0000 0.0000 14.1159 0.0000 26.8277
#
#
#
# Elastic Compliance Matrix: (Units=1/GPa)
#
#
# Indices 1 2 3 4 5 6 
#
# 1 0.017861 -0.001550 0.000041 0.000000 -0.000905 0.000000
# 2 -0.001550 0.007253 -0.003494 0.000000 0.000468 0.000000
# 3 0.000041 -0.003494 0.009308 0.000000 -0.005141 0.000000
# 4 0.000000 0.000000 0.000000 0.149895 0.000000 -0.078870
# 5 -0.000905 0.000468 -0.005141 0.000000 0.035872 0.000000
# 6 0.000000 0.000000 0.000000 -0.078870 0.000000 0.078774
#
#
# Mechanical properties :
#
#
# Convention : Reuss Voigt Hill
#
# Bulk Modulus (GPa) = 40.95617 62.25212 51.60414
# Shear Modulus (GPa) = 15.76746 33.28363 24.52554
#
# Velocity S-wave (km/s) = 2.59173 3.76551 3.23234
# Velocity P-wave (km/s) = 5.13845 6.73982 5.99287
#
# Compressibility (1/GPa) = 0.02441635
#
# Stress axis : x y z
#
# Youngs Moduli (GPa) = 55.98636 137.86906 107.43557
#
# Poissons Ratio (x) = 0.21376 -0.00443
# Poissons Ratio (y) = 0.08680 0.37538
# Poissons Ratio (z) = -0.00231 0.48171
#
# Static dielectric constant tensor:
#      x y z
#    x 1.997940 0.000000 -0.108150 
#    y 0.000000 1.945970 0.000000 
#    z -0.108150 0.000000 1.952580 
# 
# From -- ./inp_files/125990.got.cif
#   From: 2010.05.17/outbox.cif.g08.bks.cpg/sg15_63_cif.got.tgz:125990.got - 2010.06.03 18:47:42.
