data_PCOD9292664
_publ_section_title
;
Structure prediction by ZEFSAII (Michael W. Deem and Ramdas Pophale) SiO2 
 PCOD9292664
Probable space group: C 2/C
;
_chemical_formula_sum "Si O2"
_cell_formula_units_Z 36
_cell_length_a 16.913463
_cell_length_b 9.286894
_cell_length_c 14.883275
_cell_angle_alpha 90.000000
_cell_angle_beta 38.459498
_cell_angle_gamma 90.000000
_cell_volume 1454.001544
_symmetry_space_group_name_H-M "C 2/C"
_symmetry_group_IT_number 15
_symmetry_cell_setting 'monoclinic'
loop_
_space_group_symop_operation_xyz
x,y,z
-x,y,1/2-z
-x,-y,-z
x,-y,1/2+z
1/2+x,1/2+y,z
1/2-x,1/2+y,1/2-z
1/2-x,1/2-y,-z
1/2+x,1/2-y,1/2+z
loop_
_atom_site_type_symbol
_atom_site_label
_atom_site_fract_x
_atom_site_fract_y
_atom_site_fract_z
Si Si1 0.370888 0.364905 0.467682
Si Si2 0.006411 0.260851 0.010703
Si Si3 0.000000 0.621051 0.250000
Si Si4 0.120653 0.831059 0.590357
Si Si5 0.358526 0.996110 0.713121
O O1 0.482156 0.329691 0.441926
O O2 0.387827 0.224733 0.388326
O O3 0.370200 0.498888 0.399677
O O4 0.261562 0.420055 0.633451
O O5 0.076672 0.176444 0.026213
O O6 0.876354 0.340561 0.161479
O O7 0.099028 0.392934 0.904846
O O8 0.960184 0.524273 0.202272
O O9 0.250000 0.750000 0.500000
O O10 0.000000 0.771707 0.750000
#
# Coordination Sequence:
#
# PCOD9292664 Si02
#       5
#     8   8   4   8   8
#     4  11  23  45  70 103 142 186 240 295 361 429
#     4  10  25  46  65 106 138 186 240 291 366 429
#     4  10  22  44  66 108 136 180 250 284 370 418
#     4  12  27  46  74 106 144 188 240 302 362 430
#     4  10  23  42  72  98 140 186 232 301 357 431
#
# _framework density 24.759259
#
# number of rings (size 3 to 8) (size 9 to 14) (size 15 to 20)
#    0.000    1.333    1.111    2.667   10.889    0.000 
#    4.000    0.000    0.000    0.000    0.000    0.000 
#    0.000    0.000    0.000    0.000    0.000    0.000 
#
# Total GULP energy -100380.476741 kJ/mol
# GULP energy per Si atom -5576.693152 kJ/mol
# Density = 2.470291 g / cm^3
# Si number density = 24.759259 Si / 1000 Ang^3
#
#
#
# Elastic Constant Matrix: (Units=GPa)
#
#
# Indices 1 2 3 4 5 6 
#
# 1 58.1998 30.7919 2.4686 0.0000 11.9750 0.0000
# 2 30.7919 115.8120 10.2379 0.0000 -2.7124 0.0000
# 3 2.4686 10.2379 125.8953 0.0000 -12.5652 0.0000
# 4 0.0000 0.0000 0.0000 21.7662 0.0000 14.8244
# 5 11.9750 -2.7124 -12.5652 0.0000 36.3862 0.0000
# 6 0.0000 0.0000 0.0000 14.8244 0.0000 35.0761
#
#
#
# Elastic Compliance Matrix: (Units=1/GPa)
#
#
# Indices 1 2 3 4 5 6 
#
# 1 0.022008 -0.005972 -0.000739 0.000000 -0.007943 0.000000
# 2 -0.005972 0.010324 -0.000466 0.000000 0.002574 0.000000
# 3 -0.000739 -0.000466 0.008302 0.000000 0.003075 0.000000
# 4 0.000000 0.000000 0.000000 0.064513 0.000000 -0.027265
# 5 -0.007943 0.002574 0.003075 0.000000 0.031351 0.000000
# 6 0.000000 0.000000 0.000000 -0.027265 0.000000 0.040033
#
#
# Mechanical properties :
#
#
# Convention : Reuss Voigt Hill
#
# Bulk Modulus (GPa) = 38.04967 42.98931 40.51949
# Shear Modulus (GPa) = 25.04467 35.73961 30.39214
#
# Velocity S-wave (km/s) = 3.18390 3.80344 3.50738
# Velocity P-wave (km/s) = 5.37750 6.05713 5.72741
#
# Compressibility (1/GPa) = 0.02628143
#
# Stress axis : x y z
#
# Youngs Moduli (GPa) = 45.43897 96.86197 120.44712
#
# Poissons Ratio (x) = 0.57847 0.08897
# Poissons Ratio (y) = 0.27136 0.05607
# Poissons Ratio (z) = 0.03356 0.04509
#
# Static dielectric constant tensor:
#      x y z
#    x 1.966400 0.000000 -0.009150 
#    y 0.000000 1.996940 0.000000 
#    z -0.009150 0.000000 2.166020 
# 
# From -- ./inp_files/160175.got.cif
#   From: 2010.05.17/outbox.cif.g08.bks.cpg/sg15_81_cif.got.tgz:160175.got - 2010.06.03 18:47:42.
