data_PCOD9292997
_publ_section_title
;
Structure prediction by ZEFSAII (Michael W. Deem and Ramdas Pophale) SiO2 
 PCOD9292997
Probable space group: C 2/C
;
_chemical_formula_sum "Si O2"
_cell_formula_units_Z 60
_cell_length_a 23.525069
_cell_length_b 15.114595
_cell_length_c 18.583100
_cell_angle_alpha 90.000000
_cell_angle_beta 23.523789
_cell_angle_gamma 90.000000
_cell_volume 2637.301204
_symmetry_space_group_name_H-M "C 2/C"
_symmetry_group_IT_number 15
_symmetry_cell_setting 'monoclinic'
loop_
_space_group_symop_operation_xyz
x,y,z
-x,y,1/2-z
-x,-y,-z
x,-y,1/2+z
1/2+x,1/2+y,z
1/2-x,1/2+y,1/2-z
1/2-x,1/2-y,-z
1/2+x,1/2-y,1/2+z
loop_
_atom_site_type_symbol
_atom_site_label
_atom_site_fract_x
_atom_site_fract_y
_atom_site_fract_z
Si Si1 0.491261 0.435224 0.346187
Si Si2 0.334514 0.340966 0.642033
Si Si3 0.500000 0.094587 0.750000
Si Si4 0.541474 0.394382 0.521976
Si Si5 0.499917 0.924644 0.653513
Si Si6 0.867203 0.364629 0.135117
Si Si7 0.221704 0.343649 0.496503
Si Si8 0.963074 0.311134 0.436234
O O1 0.500000 0.437785 0.250000
O O2 0.361087 0.380864 0.532583
O O3 0.492794 0.532254 0.378974
O O4 0.633562 0.382270 0.202984
O O5 0.436813 0.398507 0.575269
O O6 0.378982 0.237899 0.595848
O O7 0.176399 0.340797 0.857449
O O8 0.543667 0.167804 0.639133
O O9 0.539747 0.016632 0.644159
O O10 0.708129 0.399860 0.308642
O O11 0.521298 0.294306 0.573538
O O12 0.526712 0.919541 0.538310
O O13 0.603147 0.851307 0.571581
O O14 0.342936 0.903949 0.864527
O O15 0.907046 0.359530 0.172969
O O16 0.250000 0.250000 0.500000
#
# Coordination Sequence:
#
# PCOD9292997 Si02
#       8
#     8   8   4   8   8   8   8   8
#     4  12  27  39  69 105 141 173 225 285 341 409
#     4  10  23  44  69  95 135 182 223 277 350 409
#     4  10  24  42  66  98 132 176 230 284 340 390
#     4  10  24  45  68  99 134 185 225 287 339 401
#     4  10  24  40  69  98 133 177 226 280 336 407
#     4  10  22  44  70  99 129 179 232 283 338 407
#     4  10  23  40  63  99 141 179 213 273 343 411
#     4  10  24  45  73  94 133 185 236 279 338 409
#
# _framework density 22.750530000000001
#
# number of rings (size 3 to 8) (size 9 to 14) (size 15 to 20)
#    0.000    1.867    0.000    2.000   12.133    3.733 
#    0.000    2.000    0.000    0.000    0.000    0.000 
#    0.000    0.000    0.000    0.000    0.000    0.000 
#
# Total GULP energy -167230.772908 kJ/mol
# GULP energy per Si atom -5574.359097 kJ/mol
# Density = 2.269875 g / cm^3
# Si number density = 22.750530 Si / 1000 Ang^3
#
#
#
# Elastic Constant Matrix: (Units=GPa)
#
#
# Indices 1 2 3 4 5 6 
#
# 1 154.3094 25.1184 -2.3396 -0.0005 23.6265 0.0004
# 2 25.1184 76.0068 44.2279 0.0001 18.4716 0.0001
# 3 -2.3396 44.2279 78.1662 0.0001 18.3325 0.0009
# 4 -0.0005 0.0001 0.0001 36.6457 -0.0002 17.4644
# 5 23.6265 18.4716 18.3325 -0.0002 40.9955 -0.0002
# 6 0.0004 0.0001 0.0009 17.4644 -0.0002 25.2216
#
#
#
# Elastic Compliance Matrix: (Units=1/GPa)
#
#
# Indices 1 2 3 4 5 6 
#
# 1 0.007737 -0.003319 0.003133 0.000000 -0.004364 0.000000
# 2 -0.003319 0.021752 -0.011794 0.000000 -0.002614 0.000001
# 3 0.003133 -0.011794 0.020933 0.000001 -0.005853 -0.000001
# 4 0.000000 0.000000 0.000001 0.040729 0.000000 -0.028202
# 5 -0.004364 -0.002614 -0.005853 0.000000 0.030703 0.000001
# 6 0.000000 0.000001 -0.000001 -0.028202 0.000001 0.059177
#
#
# Mechanical properties :
#
#
# Convention : Reuss Voigt Hill
#
# Bulk Modulus (GPa) = 37.79122 49.16619 43.47871
# Shear Modulus (GPa) = 23.38530 36.67094 30.02812
#
# Velocity S-wave (km/s) = 3.20957 4.01917 3.63697
# Velocity P-wave (km/s) = 5.51201 6.57238 6.06541
#
# Compressibility (1/GPa) = 0.02646117
#
# Stress axis : x y z
#
# Youngs Moduli (GPa) = 129.25701 45.97358 47.77190
#
# Poissons Ratio (x) = 0.15260 -0.14968
# Poissons Ratio (y) = 0.42905 0.56341
# Poissons Ratio (z) = -0.40500 0.54220
#
# Static dielectric constant tensor:
#      x y z
#    x 1.919900 0.000000 -0.008510 
#    y 0.000000 1.820920 0.000000 
#    z -0.008510 0.000000 1.857190 
# 
# From -- ./inp_files/257866.got.cif
#   From: 2010.05.17/outbox.cif.g08.bks.cpg/sg15_129_cif.got.tgz:257866.got - 2010.06.03 18:47:42.
