data_PCOD9292437
_publ_section_title
;
Structure prediction by ZEFSAII (Michael W. Deem and Ramdas Pophale) SiO2 
 PCOD9292437
Probable space group: C 2/C
;
_chemical_formula_sum "Si O2"
_cell_formula_units_Z 44
_cell_length_a 12.034310
_cell_length_b 24.819442
_cell_length_c 8.164068
_cell_angle_alpha 90.000000
_cell_angle_beta 122.455363
_cell_angle_gamma 90.000000
_cell_volume 2057.616225
_symmetry_space_group_name_H-M "C 2/C"
_symmetry_group_IT_number 15
_symmetry_cell_setting 'monoclinic'
loop_
_space_group_symop_operation_xyz
x,y,z
-x,y,1/2-z
-x,-y,-z
x,-y,1/2+z
1/2+x,1/2+y,z
1/2-x,1/2+y,1/2-z
1/2-x,1/2-y,-z
1/2+x,1/2-y,1/2+z
loop_
_atom_site_type_symbol
_atom_site_label
_atom_site_fract_x
_atom_site_fract_y
_atom_site_fract_z
Si Si1 0.448945 0.667866 0.523151
Si Si2 0.639558 0.759742 0.272906
Si Si3 0.800328 0.536002 0.852499
Si Si4 0.279264 0.362877 0.378402
Si Si5 0.138024 0.073924 0.256525
Si Si6 0.000000 0.495840 0.750000
O O1 0.500000 0.673858 0.750000
O O2 0.362368 0.716212 0.376460
O O3 0.582333 0.667189 0.522051
O O4 0.386797 0.609908 0.424491
O O5 0.500000 0.759214 0.250000
O O6 0.750000 0.750000 0.500000
O O7 0.669272 0.820658 0.240369
O O8 0.716446 0.587508 0.742645
O O9 0.709790 0.482674 0.782339
O O10 0.919896 0.531471 0.816060
O O11 0.882903 0.539095 0.082813
O O12 0.271467 0.389827 0.550999
O O13 0.000000 0.065847 0.250000
#
# Coordination Sequence:
#
# PCOD9292437 Si02
#       6
#     8   8   8   8   8   4
#     4  11  25  43  69 106 140 168 235 299 345 406
#     4  12  23  47  75  96 134 188 236 284 346 425
#     4  11  23  43  64  98 140 179 231 282 345 415
#     4  11  24  43  70  99 133 186 229 278 348 426
#     4  10  22  43  71  97 135 184 228 274 351 426
#     4  10  24  40  60  90 142 180 226 282 330 420
#
# _framework density 21.383967999999999
#
# number of rings (size 3 to 8) (size 9 to 14) (size 15 to 20)
#    0.000    1.091    5.455    0.545    3.818    4.364 
#    1.636    0.000    0.000    0.000    0.000    0.000 
#    0.000    0.000    0.000    0.000    0.000    0.000 
#
# Total GULP energy -122719.160650 kJ/mol
# GULP energy per Si atom -5578.143666 kJ/mol
# Density = 2.133530 g / cm^3
# Si number density = 21.383968 Si / 1000 Ang^3
#
#
#
# Elastic Constant Matrix: (Units=GPa)
#
#
# Indices 1 2 3 4 5 6 
#
# 1 55.1508 35.8428 4.6976 0.0000 11.2836 0.0000
# 2 35.8428 162.7930 74.6580 0.0000 4.7342 0.0000
# 3 4.6976 74.6580 137.3455 0.0000 11.4059 0.0000
# 4 0.0000 0.0000 0.0000 18.7061 0.0000 -3.9303
# 5 11.2836 4.7342 11.4059 0.0000 26.7089 0.0000
# 6 0.0000 0.0000 0.0000 -3.9303 0.0000 23.2685
#
#
#
# Elastic Compliance Matrix: (Units=1/GPa)
#
#
# Indices 1 2 3 4 5 6 
#
# 1 0.024409 -0.006777 0.003738 0.000000 -0.010707 0.000000
# 2 -0.006777 0.010070 -0.005528 0.000000 0.003439 0.000000
# 3 0.003738 -0.005528 0.010583 0.000000 -0.005119 0.000000
# 4 0.000000 0.000000 0.000000 0.055425 0.000000 0.009362
# 5 -0.010707 0.003439 -0.005119 0.000000 0.043540 0.000000
# 6 0.000000 0.000000 0.000000 0.009362 0.000000 0.044558
#
#
# Mechanical properties :
#
#
# Convention : Reuss Voigt Hill
#
# Bulk Modulus (GPa) = 35.80568 65.07623 50.44095
# Shear Modulus (GPa) = 23.25282 29.74279 26.49780
#
# Velocity S-wave (km/s) = 3.30114 3.73351 3.52397
# Velocity P-wave (km/s) = 5.59559 7.00598 6.34013
#
# Compressibility (1/GPa) = 0.02792853
#
# Stress axis : x y z
#
# Youngs Moduli (GPa) = 40.96878 99.30580 94.49302
#
# Poissons Ratio (x) = 0.67302 -0.35324
# Poissons Ratio (y) = 0.27765 0.52231
# Poissons Ratio (z) = -0.15315 0.54892
#
# Static dielectric constant tensor:
#      x y z
#    x 1.785920 0.000000 -0.043850 
#    y 0.000000 1.814730 0.000000 
#    z -0.043850 0.000000 1.890640 
# 
# From -- ./inp_files/42373.got.cif
#   From: 2010.05.17/outbox.cif.g08.bks.cpg/sg15_22_cif.got.tgz:42373.got - 2010.06.03 18:47:42.
