data_PCOD9292489
_publ_section_title
;
Structure prediction by ZEFSAII (Michael W. Deem and Ramdas Pophale) SiO2 
 PCOD9292489
Probable space group: C 2/C
;
_chemical_formula_sum "Si O2"
_cell_formula_units_Z 32
_cell_length_a 21.088238
_cell_length_b 5.124044
_cell_length_c 23.390577
_cell_angle_alpha 90.000000
_cell_angle_beta 149.143263
_cell_angle_gamma 90.000000
_cell_volume 1296.346257
_symmetry_space_group_name_H-M "C 2/C"
_symmetry_group_IT_number 15
_symmetry_cell_setting 'monoclinic'
loop_
_space_group_symop_operation_xyz
x,y,z
-x,y,1/2-z
-x,-y,-z
x,-y,1/2+z
1/2+x,1/2+y,z
1/2-x,1/2+y,1/2-z
1/2-x,1/2-y,-z
1/2+x,1/2-y,1/2+z
loop_
_atom_site_type_symbol
_atom_site_label
_atom_site_fract_x
_atom_site_fract_y
_atom_site_fract_z
Si Si1 0.580902 0.248266 0.082075
Si Si2 0.542190 0.826596 0.338799
Si Si3 0.169330 0.012266 0.767026
Si Si4 0.257448 0.566315 0.559430
O O1 0.216838 0.324770 0.662371
O O2 0.500000 0.500000 0.000000
O O3 0.615551 0.312021 0.174862
O O4 0.500000 0.000000 0.000000
O O5 0.500000 0.996293 0.250000
O O6 0.563021 0.668929 0.210560
O O7 0.638373 0.638126 0.379839
O O8 0.620842 0.947735 0.450966
O O9 0.215517 0.178256 0.857517
O O10 0.250000 0.750000 0.500000
#
# Coordination Sequence:
#
# PCOD9292489 Si02
#       4
#     8   8   8   8
#     4  12  28  52  78 117 158 213 269 329 394 475
#     4   9  21  44  70 108 154 195 252 323 396 476
#     4  11  25  49  77 109 157 208 263 329 400 477
#     4  10  22  43  73 111 146 197 253 322 396 470
#
# _framework density 24.684761000000002
#
# number of rings (size 3 to 8) (size 9 to 14) (size 15 to 20)
#    0.000    1.500    0.000    3.000    3.500    3.000 
#   31.500    0.000    0.000    0.000    0.000    0.000 
#    0.000    0.000    0.000    0.000    0.000    0.000 
#
# Total GULP energy -89343.844115 kJ/mol
# GULP energy per Si atom -5583.990257 kJ/mol
# Density = 2.462858 g / cm^3
# Si number density = 24.684761 Si / 1000 Ang^3
#
#
#
# Elastic Constant Matrix: (Units=GPa)
#
#
# Indices 1 2 3 4 5 6 
#
# 1 96.7219 29.3126 92.3488 -0.0012 12.8578 0.0099
# 2 29.3126 100.1596 78.0439 0.0033 -0.4462 0.0219
# 3 92.3488 78.0439 264.9054 0.0003 -33.3681 -0.0018
# 4 -0.0012 0.0033 0.0003 28.9465 -0.0008 -3.7085
# 5 12.8578 -0.4462 -33.3681 -0.0008 49.2828 0.0011
# 6 0.0099 0.0219 -0.0018 -3.7085 0.0011 34.1345
#
#
#
# Elastic Compliance Matrix: (Units=1/GPa)
#
#
# Indices 1 2 3 4 5 6 
#
# 1 0.019568 0.000779 -0.008410 0.000000 -0.010793 -0.000006
# 2 0.000779 0.013326 -0.004600 -0.000003 -0.003197 -0.000009
# 3 -0.008410 -0.004600 0.009110 0.000001 0.008321 0.000006
# 4 0.000000 -0.000003 0.000001 0.035034 0.000001 0.003806
# 5 -0.010793 -0.003197 0.008321 0.000001 0.028712 0.000005
# 6 -0.000006 -0.000009 0.000006 0.003806 0.000005 0.029709
#
#
# Mechanical properties :
#
#
# Convention : Reuss Voigt Hill
#
# Bulk Modulus (GPa) = 57.01121 95.68861 76.34991
# Shear Modulus (GPa) = 30.16215 39.94488 35.05351
#
# Velocity S-wave (km/s) = 3.49935 4.02705 3.77244
# Velocity P-wave (km/s) = 6.28276 7.77633 7.06910
#
# Compressibility (1/GPa) = 0.01754041
#
# Stress axis : x y z
#
# Youngs Moduli (GPa) = 51.10444 75.03865 109.76614
#
# Poissons Ratio (x) = -0.05842 0.92317
# Poissons Ratio (y) = -0.03979 0.50495
# Poissons Ratio (z) = 0.42981 0.34520
#
# Static dielectric constant tensor:
#      x y z
#    x 1.798760 -0.000080 -0.158960 
#    y -0.000080 1.781600 -0.000170 
#    z -0.158960 -0.000170 2.042290 
# 
# From -- ./inp_files/258362.got.cif
#   From: 2010.05.17/outbox.cif.g08.bks.cpg/sg15_130_cif.got.tgz:258362.got - 2010.06.03 18:47:42.
