data_PCOD9292016
_publ_section_title
;
Structure prediction by ZEFSAII (Michael W. Deem and Ramdas Pophale) SiO2 
 PCOD9292016
Probable space group: C 2/C
;
_chemical_formula_sum "Si O2"
_cell_formula_units_Z 48
_cell_length_a 9.117435
_cell_length_b 14.927733
_cell_length_c 27.317106
_cell_angle_alpha 90.000000
_cell_angle_beta 141.291044
_cell_angle_gamma 90.000000
_cell_volume 2325.062025
_symmetry_space_group_name_H-M "C 2/C"
_symmetry_group_IT_number 15
_symmetry_cell_setting 'monoclinic'
loop_
_space_group_symop_operation_xyz
x,y,z
-x,y,1/2-z
-x,-y,-z
x,-y,1/2+z
1/2+x,1/2+y,z
1/2-x,1/2+y,1/2-z
1/2-x,1/2-y,-z
1/2+x,1/2-y,1/2+z
loop_
_atom_site_type_symbol
_atom_site_label
_atom_site_fract_x
_atom_site_fract_y
_atom_site_fract_z
Si Si1 0.520544 0.829666 0.810654
Si Si2 0.473569 0.364693 0.327293
Si Si3 0.139425 0.505823 0.687412
Si Si4 0.955761 0.880697 0.535081
Si Si5 0.832475 0.921989 0.396417
Si Si6 0.014484 0.426403 0.046697
O O1 0.500000 0.862388 0.750000
O O2 0.414985 0.730968 0.788735
O O3 0.800235 0.830825 0.892642
O O4 0.384610 0.900320 0.809254
O O5 0.372056 0.445535 0.267605
O O6 0.379701 0.374457 0.357815
O O7 0.753465 0.370409 0.403178
O O8 0.066348 0.527361 0.612870
O O9 0.935882 0.549410 0.667776
O O10 0.894699 0.869012 0.462053
O O11 0.723050 0.868504 0.507363
O O12 0.017706 0.985896 0.561384
O O13 0.000000 0.500000 0.000000
#
# Coordination Sequence:
#
# PCOD9292016 Si02
#       6
#     8   8   8   8   8   8
#     4  11  24  40  65  92 127 172 217 262 322 387
#     4  12  23  40  66  95 128 164 216 270 320 376
#     4  10  22  43  65  90 126 174 212 261 321 387
#     4   9  19  39  61  91 124 167 209 248 318 385
#     4   9  18  37  66  88 120 166 210 253 311 386
#     4  11  22  38  65  94 127 167 211 265 321 372
#
# _framework density 20.64461
#
# number of rings (size 3 to 8) (size 9 to 14) (size 15 to 20)
#    0.000    1.667    1.667    5.000    0.000    1.333 
#    0.000    3.333    0.000    0.000    0.000    0.000 
#    0.000    0.000    0.000    0.000    0.000    0.000 
#
# Total GULP energy -133987.409634 kJ/mol
# GULP energy per Si atom -5582.808735 kJ/mol
# Density = 2.059762 g / cm^3
# Si number density = 20.644610 Si / 1000 Ang^3
#
#
#
# Elastic Constant Matrix: (Units=GPa)
#
#
# Indices 1 2 3 4 5 6 
#
# 1 106.1273 19.9717 20.8909 0.0000 -7.7221 0.0000
# 2 19.9717 54.4560 17.1414 0.0000 1.2535 0.0000
# 3 20.8909 17.1414 79.1390 -0.0001 3.2081 0.0000
# 4 0.0000 0.0000 -0.0001 11.3681 0.0000 5.4709
# 5 -7.7221 1.2535 3.2081 0.0000 44.0665 0.0000
# 6 0.0000 0.0000 0.0000 5.4709 0.0000 9.7576
#
#
#
# Elastic Compliance Matrix: (Units=1/GPa)
#
#
# Indices 1 2 3 4 5 6 
#
# 1 0.010619 -0.003256 -0.002184 0.000000 0.002112 0.000000
# 2 -0.003256 0.020708 -0.003589 0.000000 -0.000898 0.000000
# 3 -0.002184 -0.003589 0.014043 0.000000 -0.001303 0.000000
# 4 0.000000 0.000000 0.000000 0.120472 0.000000 -0.067546
# 5 0.002112 -0.000898 -0.001303 0.000000 0.023184 0.000000
# 6 0.000000 0.000000 0.000000 -0.067546 0.000000 0.140356
#
#
# Mechanical properties :
#
#
# Convention : Reuss Voigt Hill
#
# Bulk Modulus (GPa) = 36.61391 39.52556 38.06973
# Shear Modulus (GPa) = 14.02359 25.15302 19.58830
#
# Velocity S-wave (km/s) = 2.60914 3.49432 3.08366
# Velocity P-wave (km/s) = 5.18176 5.95547 5.58204
#
# Compressibility (1/GPa) = 0.02731203
#
# Stress axis : x y z
#
# Youngs Moduli (GPa) = 94.17207 48.29039 71.21138
#
# Poissons Ratio (x) = 0.15722 0.15550
# Poissons Ratio (y) = 0.30660 0.25561
# Poissons Ratio (z) = 0.20563 0.17334
#
# Static dielectric constant tensor:
#      x y z
#    x 1.744430 0.000000 0.045280 
#    y 0.000000 1.754950 0.000000 
#    z 0.045280 0.000000 1.775160 
# 
# From -- ./inp_files/189268.got.cif
#   From: 2010.05.17/outbox.cif.g08.bks.cpg/sg15_95_cif.got.tgz:189268.got - 2010.06.03 18:47:42.
