data_PCOD9292262
_publ_section_title
;
Structure prediction by ZEFSAII (Michael W. Deem and Ramdas Pophale) SiO2 
 PCOD9292262
Probable space group: C 2/C
;
_chemical_formula_sum "Si O2"
_cell_formula_units_Z 48
_cell_length_a 9.723566
_cell_length_b 22.430986
_cell_length_c 10.100725
_cell_angle_alpha 90.000000
_cell_angle_beta 86.364571
_cell_angle_gamma 90.000000
_cell_volume 2198.627579
_symmetry_space_group_name_H-M "C 2/C"
_symmetry_group_IT_number 15
_symmetry_cell_setting 'monoclinic'
loop_
_space_group_symop_operation_xyz
x,y,z
-x,y,1/2-z
-x,-y,-z
x,-y,1/2+z
1/2+x,1/2+y,z
1/2-x,1/2+y,1/2-z
1/2-x,1/2-y,-z
1/2+x,1/2-y,1/2+z
loop_
_atom_site_type_symbol
_atom_site_label
_atom_site_fract_x
_atom_site_fract_y
_atom_site_fract_z
Si Si1 0.782414 0.137654 0.508741
Si Si2 0.570660 0.260399 0.371106
Si Si3 0.591973 0.521677 0.870641
Si Si4 0.336538 0.605898 0.219070
Si Si5 0.177160 0.686103 0.017931
Si Si6 0.351397 0.791935 0.269942
O O1 0.899555 0.189895 0.519321
O O2 0.828053 0.078894 0.583191
O O3 0.758945 0.120159 0.360148
O O4 0.659326 0.166250 0.601134
O O5 0.500000 0.292074 0.250000
O O6 0.471243 0.205984 0.413042
O O7 0.775562 0.252510 0.693384
O O8 0.500000 0.538562 0.750000
O O9 0.676208 0.463436 0.820232
O O10 0.500000 0.500000 0.000000
O O11 0.500000 0.614054 0.250000
O O12 0.270396 0.643930 0.103451
O O13 0.250000 0.750000 0.000000
O O14 0.168275 0.669817 0.862735
O O15 0.500000 0.762544 0.250000
#
# Coordination Sequence:
#
# PCOD9292262 Si02
#       6
#     8   8   8   8   8   8
#     4  10  22  43  69  99 145 182 245 291 367 422
#     4  10  22  43  68  97 136 189 238 292 357 424
#     4  11  21  36  68 109 148 182 237 305 362 425
#     4  11  24  39  64 109 151 187 234 298 362 431
#     4  12  24  41  66  98 143 187 237 291 361 428
#     4  10  26  45  69  98 133 191 243 298 355 427
#
# _framework density 21.831802
#
# number of rings (size 3 to 8) (size 9 to 14) (size 15 to 20)
#    1.000    0.333    5.000    1.500    2.333    4.000 
#    0.000    0.000    0.000    5.000    0.000    0.000 
#    0.000    0.000    0.000    0.000    0.000    0.333 
#
# Total GULP energy -133869.882117 kJ/mol
# GULP energy per Si atom -5577.911755 kJ/mol
# Density = 2.178211 g / cm^3
# Si number density = 21.831802 Si / 1000 Ang^3
#
#
#
# Elastic Constant Matrix: (Units=GPa)
#
#
# Indices 1 2 3 4 5 6 
#
# 1 133.3987 37.4018 33.6378 0.0000 -8.4652 0.0000
# 2 37.4018 100.5568 20.2781 0.0000 14.5246 0.0000
# 3 33.6378 20.2781 143.8122 0.0000 5.9729 0.0000
# 4 0.0000 0.0000 0.0000 42.9507 0.0000 5.2850
# 5 -8.4652 14.5246 5.9729 0.0000 42.9434 0.0000
# 6 0.0000 0.0000 0.0000 5.2850 0.0000 27.0473
#
#
#
# Elastic Compliance Matrix: (Units=1/GPa)
#
#
# Indices 1 2 3 4 5 6 
#
# 1 0.009132 -0.003505 -0.001776 0.000000 0.003233 0.000000
# 2 -0.003505 0.012062 -0.000687 0.000000 -0.004675 0.000000
# 3 -0.001776 -0.000687 0.007514 0.000000 -0.001163 0.000000
# 4 0.000000 0.000000 0.000000 0.023856 0.000000 -0.004661
# 5 0.003233 -0.004675 -0.001163 0.000000 0.025667 0.000000
# 6 0.000000 0.000000 0.000000 -0.004661 0.000000 0.037883
#
#
# Mechanical properties :
#
#
# Convention : Reuss Voigt Hill
#
# Bulk Modulus (GPa) = 59.62295 62.26703 60.94499
# Shear Modulus (GPa) = 37.41351 41.68495 39.54923
#
# Velocity S-wave (km/s) = 4.14420 4.37437 4.26084
# Velocity P-wave (km/s) = 7.09003 7.35504 7.22375
#
# Compressibility (1/GPa) = 0.01677206
#
# Stress axis : x y z
#
# Youngs Moduli (GPa) = 109.50305 82.90313 133.08401
#
# Poissons Ratio (x) = 0.29062 0.23636
# Poissons Ratio (y) = 0.38386 0.09139
# Poissons Ratio (z) = 0.19448 0.05693
#
# Static dielectric constant tensor:
#      x y z
#    x 1.880650 0.000000 0.020060 
#    y 0.000000 1.791630 0.000000 
#    z 0.020060 0.000000 1.898460 
# 
# From -- ./inp_files/32120.got.cif
#   From: 2010.05.17/outbox.cif.g08.bks.cpg/sg15_17_cif.got.tgz:32120.got - 2010.06.03 18:47:42.
