data_PCOD9292228
_publ_section_title
;
Structure prediction by ZEFSAII (Michael W. Deem and Ramdas Pophale) SiO2 
 PCOD9292228
Probable space group: C 2/C
;
_chemical_formula_sum "Si O2"
_cell_formula_units_Z 32
_cell_length_a 26.318121
_cell_length_b 4.544757
_cell_length_c 9.425535
_cell_angle_alpha 90.000000
_cell_angle_beta 103.062388
_cell_angle_gamma 90.000000
_cell_volume 1098.211640
_symmetry_space_group_name_H-M "C 2/C"
_symmetry_group_IT_number 15
_symmetry_cell_setting 'monoclinic'
loop_
_space_group_symop_operation_xyz
x,y,z
-x,y,1/2-z
-x,-y,-z
x,-y,1/2+z
1/2+x,1/2+y,z
1/2-x,1/2+y,1/2-z
1/2-x,1/2-y,-z
1/2+x,1/2-y,1/2+z
loop_
_atom_site_type_symbol
_atom_site_label
_atom_site_fract_x
_atom_site_fract_y
_atom_site_fract_z
Si Si1 0.786046 0.309659 0.775881
Si Si2 0.078225 0.060325 0.144156
Si Si3 0.500000 0.000000 0.000000
Si Si4 0.000000 0.454673 0.250000
Si Si5 0.347750 0.522821 0.554300
O O1 0.770443 0.649224 0.766032
O O2 0.684201 0.282236 0.350477
O O3 0.812994 0.207679 0.940147
O O4 0.053230 0.748111 0.086127
O O5 0.120619 0.161262 0.057181
O O6 0.107759 0.100652 0.312099
O O7 0.025807 0.258303 0.142259
O O8 0.467175 0.130146 0.119797
#
# Coordination Sequence:
#
# PCOD9292228 Si02
#       5
#     8   8   4   4   8
#     4  11  24  48  74 106 149 190 241 312 395 435
#     4   9  20  42  62  99 136 185 242 290 367 413
#     4   8  18  42  60  94 132 186 234 282 360 416
#     4   8  18  40  62  88 136 186 234 292 356 420
#     4  10  22  43  68 105 140 188 255 304 353 467
#
# _framework density 29.138283999999999
#
# number of rings (size 3 to 8) (size 9 to 14) (size 15 to 20)
#    1.500    1.000    0.000    1.500    0.000    1.000 
#   27.000    0.000    0.000    0.000    0.000    0.000 
#    0.000    0.000    0.000    0.000    0.000    0.000 
#
# Total GULP energy -89134.351970 kJ/mol
# GULP energy per Si atom -5570.896998 kJ/mol
# Density = 2.907196 g / cm^3
# Si number density = 29.138284 Si / 1000 Ang^3
#
#
#
# Elastic Constant Matrix: (Units=GPa)
#
#
# Indices 1 2 3 4 5 6 
#
# 1 117.0538 48.9163 84.1599 0.0000 6.4466 0.0000
# 2 48.9163 98.2910 23.0988 0.0000 -0.6280 0.0000
# 3 84.1599 23.0988 347.3384 0.0000 -29.1837 0.0000
# 4 0.0000 0.0000 0.0000 24.4042 0.0000 7.5017
# 5 6.4466 -0.6280 -29.1837 0.0000 84.7492 0.0000
# 6 0.0000 0.0000 0.0000 7.5017 0.0000 36.4086
#
#
#
# Elastic Compliance Matrix: (Units=1/GPa)
#
#
# Indices 1 2 3 4 5 6 
#
# 1 0.013292 -0.005923 -0.003002 0.000000 -0.002089 0.000000
# 2 -0.005923 0.012977 0.000636 0.000000 0.000766 0.000000
# 3 -0.003002 0.000636 0.003691 0.000000 0.001504 0.000000
# 4 0.000000 0.000000 0.000000 0.043747 0.000000 -0.009014
# 5 -0.002089 0.000766 0.001504 0.000000 0.012482 0.000000
# 6 0.000000 0.000000 0.000000 -0.009014 0.000000 0.029323
#
#
# Mechanical properties :
#
#
# Convention : Reuss Voigt Hill
#
# Bulk Modulus (GPa) = 74.72701 97.22590 85.97645
# Shear Modulus (GPa) = 36.61688 56.21296 46.41492
#
# Velocity S-wave (km/s) = 3.54878 4.39701 3.99547
# Velocity P-wave (km/s) = 6.51868 7.69531 7.13130
#
# Compressibility (1/GPa) = 0.01338204
#
# Stress axis : x y z
#
# Youngs Moduli (GPa) = 75.23481 77.06101 270.96553
#
# Poissons Ratio (x) = 0.45641 0.81349
# Poissons Ratio (y) = 0.44559 -0.17245
# Poissons Ratio (z) = 0.22587 -0.04904
#
# Static dielectric constant tensor:
#      x y z
#    x 0.191890 0.000000 2.283560 
#    y 0.000000 2.328960 0.000000 
#    z 2.283560 0.000000 -0.033710 
# 
# From -- ./inp_files/68057.got.cif
#   From: 2010.05.17/outbox.cif.g08.bks.cpg/sg15_35_cif.got.tgz:68057.got - 2010.06.03 18:47:42.
