data_PCOD9292447
_publ_section_title
;
Structure prediction by ZEFSAII (Michael W. Deem and Ramdas Pophale) SiO2 
 PCOD9292447
Probable space group: C 2/C
;
_chemical_formula_sum "Si O2"
_cell_formula_units_Z 44
_cell_length_a 26.905217
_cell_length_b 10.030274
_cell_length_c 8.738415
_cell_angle_alpha 90.000000
_cell_angle_beta 134.766237
_cell_angle_gamma 90.000000
_cell_volume 1674.293717
_symmetry_space_group_name_H-M "C 2/C"
_symmetry_group_IT_number 15
_symmetry_cell_setting 'monoclinic'
loop_
_space_group_symop_operation_xyz
x,y,z
-x,y,1/2-z
-x,-y,-z
x,-y,1/2+z
1/2+x,1/2+y,z
1/2-x,1/2+y,1/2-z
1/2-x,1/2-y,-z
1/2+x,1/2-y,1/2+z
loop_
_atom_site_type_symbol
_atom_site_label
_atom_site_fract_x
_atom_site_fract_y
_atom_site_fract_z
Si Si1 0.585657 0.332981 0.238783
Si Si2 0.500000 0.002772 0.250000
Si Si3 0.233327 0.389468 0.389032
Si Si4 0.920021 0.105845 0.434163
Si Si5 0.407544 0.130971 0.788994
Si Si6 0.206908 0.377938 0.968826
O O1 0.587031 0.452640 0.120545
O O2 0.610910 0.366546 0.465737
O O3 0.624814 0.195773 0.277901
O O4 0.500798 0.343912 0.087656
O O5 0.555391 0.912210 0.282782
O O6 0.542499 0.089830 0.463210
O O7 0.250000 0.250000 0.500000
O O8 0.270096 0.518771 0.527082
O O9 0.113610 0.214640 0.253560
O O10 0.217496 0.387528 0.177380
O O11 0.336493 0.048124 0.668121
O O12 0.250000 0.250000 0.000000
#
# Coordination Sequence:
#
# PCOD9292447 Si02
#       6
#     8   4   8   8   8   8
#     4  10  23  44  69 109 141 196 233 304 370 436
#     4  10  24  38  72 118 146 190 236 308 388 440
#     4  12  28  51  74 109 148 202 251 312 374 444
#     4  10  22  43  72 102 152 181 244 298 371 441
#     4  11  23  43  71 106 149 185 242 304 369 458
#     4  12  28  50  78 105 149 197 257 310 374 455
#
# _framework density 26.279737000000001
#
# number of rings (size 3 to 8) (size 9 to 14) (size 15 to 20)
#    0.000    1.091    1.818    3.273    7.636    4.364 
#    3.273    0.000    0.000    0.000    0.000    0.000 
#    0.000    0.000    0.000    0.000    0.000    0.000 
#
# Total GULP energy -122493.564477 kJ/mol
# GULP energy per Si atom -5567.889294 kJ/mol
# Density = 2.621992 g / cm^3
# Si number density = 26.279737 Si / 1000 Ang^3
#
#
#
# Elastic Constant Matrix: (Units=GPa)
#
#
# Indices 1 2 3 4 5 6 
#
# 1 120.7591 33.6560 32.6982 0.0000 -13.0351 0.0000
# 2 33.6560 230.9309 40.2617 0.0000 -49.7756 0.0000
# 3 32.6982 40.2617 78.0957 0.0000 -8.5116 0.0000
# 4 0.0000 0.0000 0.0000 27.0875 0.0000 -2.6320
# 5 -13.0351 -49.7756 -8.5116 0.0000 50.2170 0.0000
# 6 0.0000 0.0000 0.0000 -2.6320 0.0000 30.0605
#
#
#
# Elastic Compliance Matrix: (Units=1/GPa)
#
#
# Indices 1 2 3 4 5 6 
#
# 1 0.009536 -0.000457 -0.003603 0.000000 0.001411 0.000000
# 2 -0.000457 0.005961 -0.002293 0.000000 0.005401 0.000000
# 3 -0.003603 -0.002293 0.015431 0.000000 -0.000593 0.000000
# 4 0.000000 0.000000 0.000000 0.037234 0.000000 0.003260
# 5 0.001411 0.005401 -0.000593 0.000000 0.025533 0.000000
# 6 0.000000 0.000000 0.000000 0.003260 0.000000 0.033552
#
#
# Mechanical properties :
#
#
# Convention : Reuss Voigt Hill
#
# Bulk Modulus (GPa) = 54.88123 71.44640 63.16382
# Shear Modulus (GPa) = 34.23998 43.01764 38.62881
#
# Velocity S-wave (km/s) = 3.61349 4.05027 3.83810
# Velocity P-wave (km/s) = 6.19182 7.00848 6.61277
#
# Compressibility (1/GPa) = 0.01822117
#
# Stress axis : x y z
#
# Youngs Moduli (GPa) = 104.86110 167.75975 64.80486
#
# Poissons Ratio (x) = 0.07674 0.23350
# Poissons Ratio (y) = 0.04797 0.14859
# Poissons Ratio (z) = 0.37783 0.38466
#
# Static dielectric constant tensor:
#      x y z
#    x 2.203560 0.000000 0.301040 
#    y 0.000000 2.189710 0.000000 
#    z 0.301040 0.000000 2.409610 
# 
# From -- ./inp_files/66094.got.cif
#   From: 2010.05.17/outbox.cif.g08.bks.cpg/sg15_34_cif.got.tgz:66094.got - 2010.06.03 18:47:42.
