data_PCOD9292667
_publ_section_title
;
Structure prediction by ZEFSAII (Michael W. Deem and Ramdas Pophale) SiO2 
 PCOD9292667
Probable space group: C 2/C
;
_chemical_formula_sum "Si O2"
_cell_formula_units_Z 36
_cell_length_a 11.228974
_cell_length_b 25.052724
_cell_length_c 5.189981
_cell_angle_alpha 90.000000
_cell_angle_beta 104.314704
_cell_angle_gamma 90.000000
_cell_volume 1414.696246
_symmetry_space_group_name_H-M "C 2/C"
_symmetry_group_IT_number 15
_symmetry_cell_setting 'monoclinic'
loop_
_space_group_symop_operation_xyz
x,y,z
-x,y,1/2-z
-x,-y,-z
x,-y,1/2+z
1/2+x,1/2+y,z
1/2-x,1/2+y,1/2-z
1/2-x,1/2-y,-z
1/2+x,1/2-y,1/2+z
loop_
_atom_site_type_symbol
_atom_site_label
_atom_site_fract_x
_atom_site_fract_y
_atom_site_fract_z
Si Si1 0.000000 0.868698 0.250000
Si Si2 0.641305 0.181616 0.372029
Si Si3 0.869693 0.784151 0.824736
Si Si4 0.650389 0.466882 0.188114
Si Si5 0.418282 0.066459 0.959778
O O1 0.092073 0.828727 0.442281
O O2 0.084080 0.909393 0.127806
O O3 0.500000 0.195414 0.250000
O O4 0.734968 0.191527 0.185265
O O5 0.667983 0.225244 0.604308
O O6 0.638121 0.120993 0.456728
O O7 0.000000 0.780214 0.750000
O O8 0.617477 0.493801 0.441016
O O9 0.798166 0.463177 0.290148
O O10 0.500000 0.044862 0.250000
O O11 0.500000 0.077642 0.750000
#
# Coordination Sequence:
#
# PCOD9292667 Si02
#       5
#     4   8   8   8   8
#     4  12  26  46  68 104 136 186 240 304 360 444
#     4  10  22  44  66 110 145 190 237 295 362 446
#     4  11  24  42  72 102 148 189 240 293 367 441
#     4  12  28  48  73 102 141 190 248 307 363 422
#     4  11  24  44  74 106 147 187 241 297 369 437
#
# _framework density 25.447158000000002
#
# number of rings (size 3 to 8) (size 9 to 14) (size 15 to 20)
#    0.000    0.889    3.333    2.667    3.111    7.111 
#    0.000    0.000    0.000    0.000    0.000    0.000 
#    0.000    0.000    0.000    0.000    0.000    0.000 
#
# Total GULP energy -100468.863459 kJ/mol
# GULP energy per Si atom -5581.603526 kJ/mol
# Density = 2.538924 g / cm^3
# Si number density = 25.447158 Si / 1000 Ang^3
#
#
#
# Elastic Constant Matrix: (Units=GPa)
#
#
# Indices 1 2 3 4 5 6 
#
# 1 186.4635 3.3112 19.9277 0.0000 -4.5695 0.0000
# 2 3.3112 94.5905 9.7994 0.0000 7.6908 0.0000
# 3 19.9277 9.7994 88.1065 0.0000 11.7715 0.0000
# 4 0.0000 0.0000 0.0000 -5.9713 0.0000 -6.1617
# 5 -4.5695 7.6908 11.7715 0.0000 42.1325 0.0000
# 6 0.0000 0.0000 0.0000 -6.1617 0.0000 38.5402
#
#
#
# Elastic Compliance Matrix: (Units=1/GPa)
#
#
# Indices 1 2 3 4 5 6 
#
# 1 0.005537 -0.000134 -0.001372 0.000000 0.001008 0.000000
# 2 -0.000134 0.010814 -0.000942 0.000000 -0.001725 0.000000
# 3 -0.001372 -0.000942 0.012218 0.000000 -0.003390 0.000000
# 4 0.000000 0.000000 0.000000 -0.143751 0.000000 -0.022983
# 5 0.001008 -0.001725 -0.003390 0.000000 0.025106 0.000000
# 6 0.000000 0.000000 0.000000 -0.022983 0.000000 0.022273
#
#
# Mechanical properties :
#
#
# Convention : Reuss Voigt Hill
#
# Bulk Modulus (GPa) = 42.24135 48.35968 45.30051
# Shear Modulus (GPa) = -90.88147 37.34843 -26.76652
#
# Velocity S-wave (km/s) = -5.98259 3.83519 -3.24674
# Velocity P-wave (km/s) = 5.57549 6.21746 1.94560
#
# Compressibility (1/GPa) = 0.02367349
#
# Stress axis : x y z
#
# Youngs Moduli (GPa) = 180.61292 92.46897 81.84640
#
# Poissons Ratio (x) = 0.01236 0.11230
# Poissons Ratio (y) = 0.02414 0.07711
# Poissons Ratio (z) = 0.24782 0.08711
#
# Static dielectric constant tensor:
#      x y z
#    x 2.185060 0.000000 0.049190 
#    y 0.000000 1.973940 0.000000 
#    z 0.049190 0.000000 2.036820 
# 
# From -- ./inp_files/4406.got.cif
#   From: 2010.05.17/outbox.cif.g08.bks.cpg/sg15_3_cif.got.tgz:4406.got - 2010.06.03 18:47:42.
