data_PCOD9292128
_publ_section_title
;
Structure prediction by ZEFSAII (Michael W. Deem and Ramdas Pophale) SiO2 
 PCOD9292128
Probable space group: C 2/C
;
_chemical_formula_sum "Si O2"
_cell_formula_units_Z 44
_cell_length_a 16.521800
_cell_length_b 27.340151
_cell_length_c 5.519370
_cell_angle_alpha 90.000000
_cell_angle_beta 55.369131
_cell_angle_gamma 90.000000
_cell_volume 2051.436421
_symmetry_space_group_name_H-M "C 2/C"
_symmetry_group_IT_number 15
_symmetry_cell_setting 'monoclinic'
loop_
_space_group_symop_operation_xyz
x,y,z
-x,y,1/2-z
-x,-y,-z
x,-y,1/2+z
1/2+x,1/2+y,z
1/2-x,1/2+y,1/2-z
1/2-x,1/2-y,-z
1/2+x,1/2-y,1/2+z
loop_
_atom_site_type_symbol
_atom_site_label
_atom_site_fract_x
_atom_site_fract_y
_atom_site_fract_z
Si Si1 0.000000 0.874554 0.750000
Si Si2 0.679829 0.303005 0.354173
Si Si3 0.813713 0.368783 0.826985
Si Si4 0.129205 0.296885 0.134052
Si Si5 0.781982 0.026283 0.095668
Si Si6 0.000000 0.668080 0.250000
Si Si7 0.500000 0.437117 0.250000
O O1 0.096362 0.840343 0.582909
O O2 0.996982 0.905577 0.505252
O O3 0.771888 0.297601 0.375887
O O4 0.635739 0.248536 0.436916
O O5 0.729162 0.328622 0.036536
O O6 0.867131 0.349009 0.499877
O O7 0.764066 0.420625 0.877645
O O8 0.903768 0.364633 0.861668
O O9 0.036862 0.297111 0.469950
O O10 0.753794 0.006539 0.410260
O O11 0.900256 0.031953 0.902441
#
# Coordination Sequence:
#
# PCOD9292128 Si02
#       7
#     4   8   8   8   8   4   4
#     4  12  24  39  70 108 146 190 218 291 336 430
#     4  10  23  39  65 100 143 183 236 271 347 412
#     4  11  23  45  68  97 139 179 234 292 355 410
#     4  10  22  43  66  98 138 189 231 285 342 419
#     4  12  27  46  75 103 137 184 237 297 361 424
#     4  10  24  39  72  98 134 184 232 291 352 418
#     4  12  24  46  70 102 144 182 234 282 360 422
#
# _framework density 21.448384999999998
#
# number of rings (size 3 to 8) (size 9 to 14) (size 15 to 20)
#    0.000    1.091    1.818    3.818    7.636    0.727 
#    0.000    0.909    0.000    0.000    0.000    0.000 
#    0.000    0.000    0.000    0.000    0.000    0.000 
#
# Total GULP energy -122795.845560 kJ/mol
# GULP energy per Si atom -5581.629344 kJ/mol
# Density = 2.139957 g / cm^3
# Si number density = 21.448385 Si / 1000 Ang^3
#
#
#
# Elastic Constant Matrix: (Units=GPa)
#
#
# Indices 1 2 3 4 5 6 
#
# 1 92.3694 43.5438 32.9957 0.0000 -0.3876 0.0000
# 2 43.5438 95.3581 38.7130 0.0000 15.5854 0.0000
# 3 32.9957 38.7130 107.8877 0.0000 8.1402 0.0000
# 4 0.0000 0.0000 0.0000 48.4648 0.0000 -20.8713
# 5 -0.3876 15.5854 8.1402 0.0000 29.6205 0.0000
# 6 0.0000 0.0000 0.0000 -20.8713 0.0000 44.7072
#
#
#
# Elastic Compliance Matrix: (Units=1/GPa)
#
#
# Indices 1 2 3 4 5 6 
#
# 1 0.014774 -0.006413 -0.002539 0.000000 0.004265 0.000000
# 2 -0.006413 0.015952 -0.003189 0.000000 -0.007601 0.000000
# 3 -0.002539 -0.003189 0.011300 0.000000 -0.001461 0.000000
# 4 0.000000 0.000000 0.000000 0.025826 0.000000 0.012057
# 5 0.004265 -0.007601 -0.001461 0.000000 0.038217 0.000000
# 6 0.000000 0.000000 0.000000 0.012057 0.000000 0.027996
#
#
# Mechanical properties :
#
#
# Convention : Reuss Voigt Hill
#
# Bulk Modulus (GPa) = 56.35738 58.45781 57.40760
# Shear Modulus (GPa) = 30.43917 36.58266 33.51091
#
# Velocity S-wave (km/s) = 3.77129 4.13439 3.95701
# Velocity P-wave (km/s) = 6.73026 7.07850 6.90657
#
# Compressibility (1/GPa) = 0.01774390
#
# Stress axis : x y z
#
# Youngs Moduli (GPa) = 67.68657 62.68770 88.49481
#
# Poissons Ratio (x) = 0.40199 0.22470
# Poissons Ratio (y) = 0.43405 0.28224
# Poissons Ratio (z) = 0.17187 0.19993
#
# Static dielectric constant tensor:
#      x y z
#    x 1.842000 0.000000 0.039790 
#    y 0.000000 1.747080 0.000000 
#    z 0.039790 0.000000 1.819610 
# 
# From -- ./inp_files/7646.got.cif
#   From: 2010.05.17/outbox.cif.g08.bks.cpg/sg15_4_cif.got.tgz:7646.got - 2010.06.03 18:47:42.
