data_PCOD9292924
_publ_section_title
;
Structure prediction by ZEFSAII (Michael W. Deem and Ramdas Pophale) SiO2 
 PCOD9292924
Probable space group: C 2/C
;
_chemical_formula_sum "Si O2"
_cell_formula_units_Z 60
_cell_length_a 24.034755
_cell_length_b 21.430228
_cell_length_c 8.187549
_cell_angle_alpha 90.000000
_cell_angle_beta 40.804110
_cell_angle_gamma 90.000000
_cell_volume 2755.810286
_symmetry_space_group_name_H-M "C 2/C"
_symmetry_group_IT_number 15
_symmetry_cell_setting 'monoclinic'
loop_
_space_group_symop_operation_xyz
x,y,z
-x,y,1/2-z
-x,-y,-z
x,-y,1/2+z
1/2+x,1/2+y,z
1/2-x,1/2+y,1/2-z
1/2-x,1/2-y,-z
1/2+x,1/2-y,1/2+z
loop_
_atom_site_type_symbol
_atom_site_label
_atom_site_fract_x
_atom_site_fract_y
_atom_site_fract_z
Si Si1 0.005431 0.742590 0.930541
Si Si2 0.684111 0.807763 0.157424
Si Si3 0.460911 0.381917 0.021228
Si Si4 0.221626 0.442391 0.090857
Si Si5 0.000000 0.960640 0.250000
Si Si6 0.584027 0.862735 0.674759
Si Si7 0.330301 0.458350 0.157456
Si Si8 0.432696 0.966907 0.535750
O O1 0.099467 0.722677 0.773442
O O2 0.000000 0.736878 0.750000
O O3 0.976965 0.811759 0.040530
O O4 0.945099 0.695371 0.155198
O O5 0.706777 0.876247 0.030936
O O6 0.657113 0.836203 0.394411
O O7 0.750000 0.750000 0.000000
O O8 0.500000 0.384677 0.750000
O O9 0.501042 0.423072 0.076936
O O10 0.364386 0.405583 0.206102
O O11 0.289372 0.431383 0.084905
O O12 0.137599 0.479238 0.347877
O O13 0.264185 0.493206 0.879625
O O14 0.914747 0.001398 0.433148
O O15 0.500000 0.880705 0.750000
O O16 0.607429 0.914294 0.758013
O O17 0.500000 0.000000 0.500000
O O18 0.500000 0.941224 0.250000
#
# Coordination Sequence:
#
# PCOD9292924 Si02
#       8
#     8   8   8   8   4   8   8   8
#     4  10  24  44  72 100 134 186 247 298 352 445
#     4  11  26  44  68 101 144 191 234 303 377 436
#     4  11  24  42  71 105 142 189 248 299 352 448
#     4  12  27  43  68 107 147 184 241 313 376 442
#     4  12  24  42  74 102 138 206 246 288 382 448
#     4  10  22  44  70 100 137 184 248 296 355 446
#     4  12  24  44  67 104 148 186 241 305 368 451
#     4  12  23  43  75 106 142 193 247 307 382 452
#
# _framework density 21.772179999999999
#
# number of rings (size 3 to 8) (size 9 to 14) (size 15 to 20)
#    0.000    0.800    2.000    6.000    8.400    1.067 
#    0.000    1.333    0.000    0.000    0.000    0.000 
#    0.000    0.000    0.000    0.000    0.000    0.000 
#
# Total GULP energy -167378.058726 kJ/mol
# GULP energy per Si atom -5579.268624 kJ/mol
# Density = 2.172263 g / cm^3
# Si number density = 21.772180 Si / 1000 Ang^3
#
#
#
# Elastic Constant Matrix: (Units=GPa)
#
#
# Indices 1 2 3 4 5 6 
#
# 1 85.5968 53.9044 8.6651 0.0000 -0.2440 0.0000
# 2 53.9044 165.4309 42.9374 0.0000 -16.5225 0.0000
# 3 8.6651 42.9374 92.0334 0.0000 -5.8164 0.0000
# 4 0.0000 0.0000 0.0000 22.5042 0.0000 -0.0899
# 5 -0.2440 -16.5225 -5.8164 0.0000 26.2204 0.0000
# 6 0.0000 0.0000 0.0000 -0.0899 0.0000 34.6370
#
#
#
# Elastic Compliance Matrix: (Units=1/GPa)
#
#
# Indices 1 2 3 4 5 6 
#
# 1 0.015004 -0.005438 0.000930 0.000000 -0.003081 0.000000
# 2 -0.005438 0.009216 -0.003473 0.000000 0.004987 0.000000
# 3 0.000930 -0.003473 0.012435 0.000000 0.000579 0.000000
# 4 0.000000 0.000000 0.000000 0.044437 0.000000 0.000115
# 5 -0.003081 0.004987 0.000579 0.000000 0.041380 0.000000
# 6 0.000000 0.000000 0.000000 0.000115 0.000000 0.028871
#
#
# Mechanical properties :
#
#
# Convention : Reuss Voigt Hill
#
# Bulk Modulus (GPa) = 48.32462 61.56387 54.94425
# Shear Modulus (GPa) = 28.70217 32.50927 30.60572
#
# Velocity S-wave (km/s) = 3.63477 3.86833 3.75337
# Velocity P-wave (km/s) = 6.31341 6.94908 6.63886
#
# Compressibility (1/GPa) = 0.02069338
#
# Stress axis : x y z
#
# Youngs Moduli (GPa) = 66.64717 108.50573 80.41974
#
# Poissons Ratio (x) = 0.59006 -0.07477
# Poissons Ratio (y) = 0.36243 0.27926
# Poissons Ratio (z) = -0.06196 0.37679
#
# Static dielectric constant tensor:
#      x y z
#    x 1.840530 0.000000 -0.050570 
#    y 0.000000 1.923570 0.000000 
#    z -0.050570 0.000000 1.787820 
# 
# From -- ./inp_files/63492.got.cif
#   From: 2010.05.17/outbox.cif.g08.bks.cpg/sg15_32_cif.got.tgz:63492.got - 2010.06.03 18:47:42.
