data_PCOD9292866
_publ_section_title
;
Structure prediction by ZEFSAII (Michael W. Deem and Ramdas Pophale) SiO2 
 PCOD9292866
Probable space group: C 2/C
;
_chemical_formula_sum "Si O2"
_cell_formula_units_Z 16
_cell_length_a 9.642541
_cell_length_b 5.128185
_cell_length_c 12.111599
_cell_angle_alpha 90.000000
_cell_angle_beta 118.607410
_cell_angle_gamma 90.000000
_cell_volume 525.789766
_symmetry_space_group_name_H-M "C 2/C"
_symmetry_group_IT_number 15
_symmetry_cell_setting 'monoclinic'
loop_
_space_group_symop_operation_xyz
x,y,z
-x,y,1/2-z
-x,-y,-z
x,-y,1/2+z
1/2+x,1/2+y,z
1/2-x,1/2+y,1/2-z
1/2-x,1/2-y,-z
1/2+x,1/2-y,1/2+z
loop_
_atom_site_type_symbol
_atom_site_label
_atom_site_fract_x
_atom_site_fract_y
_atom_site_fract_z
Si Si1 0.481760 0.249335 0.914967
Si Si2 0.668031 0.629167 0.858891
O O1 0.612310 0.335251 0.874271
O O2 0.297732 0.204087 0.816313
O O3 0.500000 0.500000 0.000000
O O4 0.500000 0.000000 0.000000
O O5 0.500000 0.740008 0.750000
O O6 0.750000 0.750000 0.000000
#
# Coordination Sequence:
#
# PCOD9292866 Si02
#       2
#     8   8
#     4  10  22  44  69 102 146 198 251 312 381 458
#     4  10  23  44  74 112 154 204 259 322 392 470
#
# _framework density 30.430415
#
# number of rings (size 3 to 8) (size 9 to 14) (size 15 to 20)
#    0.000    2.000    0.000    1.500    0.000    8.000 
#    0.000   30.000    0.000    0.000    0.000    0.000 
#    0.000    0.000    0.000    0.000    0.000    0.000 
#
# Total GULP energy -44568.691425 kJ/mol
# GULP energy per Si atom -5571.086428 kJ/mol
# Density = 3.036115 g / cm^3
# Si number density = 30.430415 Si / 1000 Ang^3
#
#
#
# Elastic Constant Matrix: (Units=GPa)
#
#
# Indices 1 2 3 4 5 6 
#
# 1 296.8581 106.0451 66.6643 0.0000 33.7837 0.0000
# 2 106.0451 243.7801 70.0938 0.0000 18.1253 0.0000
# 3 66.6643 70.0938 225.8525 0.0000 31.8492 0.0000
# 4 0.0000 0.0000 0.0000 77.6823 0.0000 6.5559
# 5 33.7837 18.1253 31.8492 0.0000 82.2061 0.0000
# 6 0.0000 0.0000 0.0000 6.5559 0.0000 87.4969
#
#
#
# Elastic Compliance Matrix: (Units=1/GPa)
#
#
# Indices 1 2 3 4 5 6 
#
# 1 0.004192 -0.001569 -0.000588 0.000000 -0.001149 0.000000
# 2 -0.001569 0.005109 -0.001116 0.000000 -0.000050 0.000000
# 3 -0.000588 -0.001116 0.005161 0.000000 -0.001512 0.000000
# 4 0.000000 0.000000 0.000000 0.012955 0.000000 -0.000971
# 5 -0.001149 -0.000050 -0.001512 0.000000 0.013233 0.000000
# 6 0.000000 0.000000 0.000000 -0.000971 0.000000 0.011502
#
#
# Mechanical properties :
#
#
# Convention : Reuss Voigt Hill
#
# Bulk Modulus (GPa) = 126.32664 139.12189 132.72427
# Shear Modulus (GPa) = 81.51856 84.38958 82.95407
#
# Velocity S-wave (km/s) = 5.18138 5.27183 5.22680
# Velocity P-wave (km/s) = 8.79767 9.10349 8.95189
#
# Compressibility (1/GPa) = 0.00791599
#
# Stress axis : x y z
#
# Youngs Moduli (GPa) = 238.55276 195.73465 193.77161
#
# Poissons Ratio (x) = 0.30709 0.11402
# Poissons Ratio (y) = 0.37427 0.21615
# Poissons Ratio (z) = 0.14037 0.21834
#
# Static dielectric constant tensor:
#      x y z
#    x 6.235410 0.000000 1.495980 
#    y 0.000000 2.145200 0.000000 
#    z 1.495980 0.000000 3.095290 
# 
# From -- ./inp_files/53016.got.cif
#   From: 2010.05.17/outbox.cif.g08.bks.cpg/sg15_27_cif.got.tgz:53016.got - 2010.06.03 18:47:42.
