data_PCOD9292645
_publ_section_title
;
Structure prediction by ZEFSAII (Michael W. Deem and Ramdas Pophale) SiO2 
 PCOD9292645
Probable space group: C 2/C
;
_chemical_formula_sum "Si O2"
_cell_formula_units_Z 44
_cell_length_a 21.517597
_cell_length_b 10.935780
_cell_length_c 28.170541
_cell_angle_alpha 90.000000
_cell_angle_beta 163.572260
_cell_angle_gamma 90.000000
_cell_volume 1874.680043
_symmetry_space_group_name_H-M "C 2/C"
_symmetry_group_IT_number 15
_symmetry_cell_setting 'monoclinic'
loop_
_space_group_symop_operation_xyz
x,y,z
-x,y,1/2-z
-x,-y,-z
x,-y,1/2+z
1/2+x,1/2+y,z
1/2-x,1/2+y,1/2-z
1/2-x,1/2-y,-z
1/2+x,1/2-y,1/2+z
loop_
_atom_site_type_symbol
_atom_site_label
_atom_site_fract_x
_atom_site_fract_y
_atom_site_fract_z
Si Si1 0.426278 0.085842 0.299185
Si Si2 0.682751 0.616097 0.969500
Si Si3 0.747794 0.249675 0.922278
Si Si4 0.300337 0.811804 0.216584
Si Si5 0.000000 0.013340 0.250000
Si Si6 0.067751 0.771338 0.479197
O O1 0.587867 0.050110 0.373733
O O2 0.557442 0.148395 0.439328
O O3 0.318671 0.958556 0.234952
O O4 0.259572 0.189642 0.156715
O O5 0.515554 0.562893 0.809131
O O6 0.597424 0.624917 0.959982
O O7 0.750000 0.750000 0.000000
O O8 0.500000 0.197999 0.750000
O O9 0.809579 0.214201 0.914435
O O10 0.702881 0.394291 0.894280
O O11 0.966688 0.236619 0.114140
O O12 0.153562 0.769919 0.152857
#
# Coordination Sequence:
#
# PCOD9292645 Si02
#       6
#     8   8   8   8   4   8
#     4  11  24  45  66  97 135 181 224 276 337 404
#     4  10  23  39  69  94 134 172 231 264 335 399
#     4  10  24  43  71  96 135 175 232 271 330 408
#     4  12  24  46  67 102 137 175 225 284 340 396
#     4  10  22  44  66 100 128 178 232 280 320 400
#     4  11  26  40  67 100 138 174 225 279 341 402
#
# _framework density 23.470670999999999
#
# number of rings (size 3 to 8) (size 9 to 14) (size 15 to 20)
#    0.545    0.727    1.818    2.727   10.182    4.364 
#    0.000    2.727    0.000    0.000    0.000    0.000 
#    0.000    0.000    0.000    0.000    0.000    0.000 
#
# Total GULP energy -122650.653642 kJ/mol
# GULP energy per Si atom -5575.029711 kJ/mol
# Density = 2.341725 g / cm^3
# Si number density = 23.470671 Si / 1000 Ang^3
#
#
#
# Elastic Constant Matrix: (Units=GPa)
#
#
# Indices 1 2 3 4 5 6 
#
# 1 109.9716 16.1596 6.3750 -0.0007 11.7004 -0.0047
# 2 16.1596 55.2624 7.0628 -0.0147 -10.3487 0.0000
# 3 6.3750 7.0628 101.5665 0.0267 -12.2011 0.0083
# 4 -0.0007 -0.0147 0.0267 25.8293 0.0209 -12.2122
# 5 11.7004 -10.3487 -12.2011 0.0209 34.8499 0.0011
# 6 -0.0047 0.0000 0.0083 -12.2122 0.0011 29.9871
#
#
#
# Elastic Compliance Matrix: (Units=1/GPa)
#
#
# Indices 1 2 3 4 5 6 
#
# 1 0.010226 -0.003783 -0.000967 0.000005 -0.004895 0.000004
# 2 -0.003783 0.020605 -0.000321 0.000007 0.007277 0.000002
# 3 -0.000967 -0.000321 0.010393 -0.000019 0.003868 -0.000011
# 4 0.000005 0.000007 -0.000019 0.047948 -0.000036 0.019527
# 5 -0.004895 0.007277 0.003868 -0.000036 0.033853 -0.000018
# 6 0.000004 0.000002 -0.000011 0.019527 -0.000018 0.041300
#
#
# Mechanical properties :
#
#
# Convention : Reuss Voigt Hill
#
# Bulk Modulus (GPa) = 32.17296 36.22170 34.19733
# Shear Modulus (GPa) = 27.05191 33.94679 30.49935
#
# Velocity S-wave (km/s) = 3.39866 3.80722 3.60872
# Velocity P-wave (km/s) = 5.39802 5.89854 5.65382
#
# Compressibility (1/GPa) = 0.03108200
#
# Stress axis : x y z
#
# Youngs Moduli (GPa) = 97.78927 48.53075 96.21436
#
# Poissons Ratio (x) = 0.18361 0.09302
# Poissons Ratio (y) = 0.36998 0.03091
# Poissons Ratio (z) = 0.09455 0.01559
#
# Static dielectric constant tensor:
#      x y z
#    x 1.843120 0.000010 0.049320 
#    y 0.000010 1.952950 -0.000020 
#    z 0.049320 -0.000020 1.991540 
# 
# From -- ./inp_files/300884.got.cif
#   From: 2010.05.17/outbox.cif.g08.bks.cpg/sg15_151_cif.got.tgz:300884.got - 2010.06.03 18:47:42.
