data_PCOD9292936
_publ_section_title
;
Structure prediction by ZEFSAII (Michael W. Deem and Ramdas Pophale) SiO2 
 PCOD9292936
Probable space group: C 2/C
;
_chemical_formula_sum "Si O2"
_cell_formula_units_Z 36
_cell_length_a 21.413441
_cell_length_b 15.213564
_cell_length_c 13.924471
_cell_angle_alpha 90.000000
_cell_angle_beta 157.830017
_cell_angle_gamma 90.000000
_cell_volume 1711.776336
_symmetry_space_group_name_H-M "C 2/C"
_symmetry_group_IT_number 15
_symmetry_cell_setting 'monoclinic'
loop_
_space_group_symop_operation_xyz
x,y,z
-x,y,1/2-z
-x,-y,-z
x,-y,1/2+z
1/2+x,1/2+y,z
1/2-x,1/2+y,1/2-z
1/2-x,1/2-y,-z
1/2+x,1/2-y,1/2+z
loop_
_atom_site_type_symbol
_atom_site_label
_atom_site_fract_x
_atom_site_fract_y
_atom_site_fract_z
Si Si1 0.659166 0.323952 0.112727
Si Si2 0.637315 0.006314 0.279302
Si Si3 0.500000 0.460968 0.750000
Si Si4 0.379141 0.811007 0.239156
Si Si5 0.335671 0.823355 0.558196
O O1 0.807846 0.315319 0.246826
O O2 0.723369 0.350842 0.308121
O O3 0.536318 0.395744 0.891095
O O4 0.557066 0.233939 0.981339
O O5 0.610902 0.090264 0.307498
O O6 0.828932 0.012994 0.517799
O O7 0.624412 0.909486 0.307132
O O8 0.500000 0.000000 0.000000
O O9 0.250000 0.750000 0.000000
O O10 0.500000 0.780410 0.750000
O O11 0.250000 0.750000 0.500000
#
# Coordination Sequence:
#
# PCOD9292936 Si02
#       5
#     8   8   4   8   8
#     4  11  21  42  69 100 142 172 231 281 346 409
#     4  11  24  45  69  98 140 182 233 287 346 409
#     4  10  22  44  70 102 138 180 234 288 342 416
#     4  11  21  44  70 104 135 178 227 286 338 416
#     4  12  27  46  67 101 140 185 229 289 353 415
#
# _framework density 21.030784000000001
#
# number of rings (size 3 to 8) (size 9 to 14) (size 15 to 20)
#    0.000    0.889    4.444    5.333    1.556    2.667 
#    4.000    2.222    0.000    0.000    0.000    0.000 
#    0.000    0.000    0.000    0.000    0.000    0.000 
#
# Total GULP energy -100558.290306 kJ/mol
# GULP energy per Si atom -5586.571684 kJ/mol
# Density = 2.098292 g / cm^3
# Si number density = 21.030784 Si / 1000 Ang^3
#
#
#
# Elastic Constant Matrix: (Units=GPa)
#
#
# Indices 1 2 3 4 5 6 
#
# 1 112.2769 50.5621 51.3252 0.0000 -1.1278 0.0000
# 2 50.5621 109.8387 29.8523 0.0000 -6.0290 0.0000
# 3 51.3252 29.8523 126.6239 0.0000 -15.6868 0.0000
# 4 0.0000 0.0000 0.0000 36.3445 0.0000 7.3331
# 5 -1.1278 -6.0290 -15.6868 0.0000 61.3796 0.0000
# 6 0.0000 0.0000 0.0000 7.3331 0.0000 26.3445
#
#
#
# Elastic Compliance Matrix: (Units=1/GPa)
#
#
# Indices 1 2 3 4 5 6 
#
# 1 0.013079 -0.004924 -0.004307 0.000000 -0.001344 0.000000
# 2 -0.004924 0.011590 -0.000627 0.000000 0.000888 0.000000
# 3 -0.004307 -0.000627 0.010093 0.000000 0.002439 0.000000
# 4 0.000000 0.000000 0.000000 0.029152 0.000000 -0.008114
# 5 -0.001344 0.000888 0.002439 0.000000 0.016978 0.000000
# 6 0.000000 0.000000 0.000000 -0.008114 0.000000 0.040217
#
#
# Mechanical properties :
#
#
# Convention : Reuss Voigt Hill
#
# Bulk Modulus (GPa) = 66.45853 68.02431 67.24142
# Shear Modulus (GPa) = 34.28401 39.28038 36.78220
#
# Velocity S-wave (km/s) = 4.04193 4.32644 4.18660
# Velocity P-wave (km/s) = 7.31110 7.57448 7.44396
#
# Compressibility (1/GPa) = 0.01504698
#
# Stress axis : x y z
#
# Youngs Moduli (GPa) = 76.45568 86.28162 99.07740
#
# Poissons Ratio (x) = 0.42485 0.42675
# Poissons Ratio (y) = 0.37647 0.06207
# Poissons Ratio (z) = 0.32931 0.05406
#
# Static dielectric constant tensor:
#      x y z
#    x 1.776310 0.000000 0.015210 
#    y 0.000000 1.753380 0.000000 
#    z 0.015210 0.000000 1.801070 
# 
# From -- ./inp_files/173746.got.cif
#   From: 2010.05.17/outbox.cif.g08.bks.cpg/sg15_87_cif.got.tgz:173746.got - 2010.06.03 18:47:42.
