data_PCOD9292123
_publ_section_title
;
Structure prediction by ZEFSAII (Michael W. Deem and Ramdas Pophale) SiO2 
 PCOD9292123
Probable space group: C 2/C
;
_chemical_formula_sum "Si O2"
_cell_formula_units_Z 52
_cell_length_a 7.561971
_cell_length_b 12.069729
_cell_length_c 29.579394
_cell_angle_alpha 90.000000
_cell_angle_beta 125.313340
_cell_angle_gamma 90.000000
_cell_volume 2202.995290
_symmetry_space_group_name_H-M "C 2/C"
_symmetry_group_IT_number 15
_symmetry_cell_setting 'monoclinic'
loop_
_space_group_symop_operation_xyz
x,y,z
-x,y,1/2-z
-x,-y,-z
x,-y,1/2+z
1/2+x,1/2+y,z
1/2-x,1/2+y,1/2-z
1/2-x,1/2-y,-z
1/2+x,1/2-y,1/2+z
loop_
_atom_site_type_symbol
_atom_site_label
_atom_site_fract_x
_atom_site_fract_y
_atom_site_fract_z
Si Si1 0.800107 0.687452 0.285374
Si Si2 0.589506 0.617572 0.996197
Si Si3 0.705581 0.158409 0.560547
Si Si4 0.500000 0.506253 0.750000
Si Si5 0.783630 0.848335 0.831963
Si Si6 0.863689 0.904057 0.325209
Si Si7 0.848540 0.285538 0.063273
O O1 0.699196 0.575915 0.290557
O O2 0.727934 0.688568 0.222144
O O3 0.724003 0.793209 0.302530
O O4 0.061437 0.688892 0.322896
O O5 0.777524 0.605550 0.986747
O O6 0.366888 0.673515 0.943497
O O7 0.500000 0.500000 0.000000
O O8 0.679191 0.709157 0.045228
O O9 0.522402 0.126331 0.569838
O O10 0.926486 0.121664 0.615142
O O11 0.567245 0.575168 0.716605
O O12 0.768554 0.981439 0.828761
O O13 0.502174 0.301572 0.887504
O O14 0.750000 0.250000 0.000000
#
# Coordination Sequence:
#
# PCOD9292123 Si02
#       7
#     8   8   8   4   8   8   8
#     4  10  22  43  67  97 142 176 238 282 342 437
#     4  10  24  46  67  99 140 185 239 294 357 417
#     4  10  23  43  65 101 134 179 239 291 340 430
#     4  10  24  42  66 108 136 182 234 280 364 424
#     4  10  22  43  66  97 140 183 223 292 355 408
#     4  11  23  42  69  98 141 181 226 289 357 411
#     4  10  22  44  69  99 140 178 235 291 348 427
#
# _framework density 23.604225
#
# number of rings (size 3 to 8) (size 9 to 14) (size 15 to 20)
#    0.000    1.846    1.538    0.923    4.308    5.538 
#   11.077    0.000    0.000    0.000    0.000    0.000 
#    0.000    0.000    0.000    0.000    0.000    0.000 
#
# Total GULP energy -145023.649278 kJ/mol
# GULP energy per Si atom -5577.832665 kJ/mol
# Density = 2.355050 g / cm^3
# Si number density = 23.604225 Si / 1000 Ang^3
#
#
#
# Elastic Constant Matrix: (Units=GPa)
#
#
# Indices 1 2 3 4 5 6 
#
# 1 57.0144 3.3534 -15.4954 0.0000 1.8433 0.0000
# 2 3.3534 124.9444 22.4534 0.0000 9.1801 0.0000
# 3 -15.4954 22.4534 67.3856 0.0000 21.0644 0.0000
# 4 0.0000 0.0000 0.0000 32.1061 0.0000 14.0315
# 5 1.8433 9.1801 21.0644 0.0000 34.3065 0.0000
# 6 0.0000 0.0000 0.0000 14.0315 0.0000 11.8301
#
#
#
# Elastic Compliance Matrix: (Units=1/GPa)
#
#
# Indices 1 2 3 4 5 6 
#
# 1 0.019496 -0.001329 0.006364 0.000000 -0.004599 0.000000
# 2 -0.001329 0.008616 -0.003067 0.000000 -0.000351 0.000000
# 3 0.006364 -0.003067 0.021255 0.000000 -0.012572 0.000000
# 4 0.000000 0.000000 0.000000 0.064668 0.000000 -0.076702
# 5 -0.004599 -0.000351 -0.012572 0.000000 0.037209 0.000000
# 6 0.000000 0.000000 0.000000 -0.076702 0.000000 0.175505
#
#
# Mechanical properties :
#
#
# Convention : Reuss Voigt Hill
#
# Bulk Modulus (GPa) = 18.76075 29.99635 24.37855
# Shear Modulus (GPa) = 14.68077 31.58408 23.13242
#
# Velocity S-wave (km/s) = 2.49661 3.66193 3.13391
# Velocity P-wave (km/s) = 4.03436 5.53311 4.84207
#
# Compressibility (1/GPa) = 0.05330278
#
# Stress axis : x y z
#
# Youngs Moduli (GPa) = 51.29319 116.06114 47.04757
#
# Poissons Ratio (x) = 0.15423 -0.29939
# Poissons Ratio (y) = 0.06816 0.14428
# Poissons Ratio (z) = -0.32641 0.35593
#
# Static dielectric constant tensor:
#      x y z
#    x 2.050880 0.000000 0.004010 
#    y 0.000000 1.909520 0.000000 
#    z 0.004010 0.000000 1.932150 
# 
# From -- ./inp_files/307295.got.cif
#   From: 2010.05.17/outbox.cif.g08.bks.cpg/sg15_154_cif.got.tgz:307295.got - 2010.06.03 18:47:42.
