data_PCOD9292899
_publ_section_title
;
Structure prediction by ZEFSAII (Michael W. Deem and Ramdas Pophale) SiO2 
 PCOD9292899
Probable space group: C 2/C
;
_chemical_formula_sum "Si O2"
_cell_formula_units_Z 48
_cell_length_a 29.675452
_cell_length_b 13.984456
_cell_length_c 11.679265
_cell_angle_alpha 90.000000
_cell_angle_beta 153.669967
_cell_angle_gamma 90.000000
_cell_volume 2149.771237
_symmetry_space_group_name_H-M "C 2/C"
_symmetry_group_IT_number 15
_symmetry_cell_setting 'monoclinic'
loop_
_space_group_symop_operation_xyz
x,y,z
-x,y,1/2-z
-x,-y,-z
x,-y,1/2+z
1/2+x,1/2+y,z
1/2-x,1/2+y,1/2-z
1/2-x,1/2-y,-z
1/2+x,1/2-y,1/2+z
loop_
_atom_site_type_symbol
_atom_site_label
_atom_site_fract_x
_atom_site_fract_y
_atom_site_fract_z
Si Si1 0.077053 0.553732 0.831657
Si Si2 0.533503 0.414624 0.660576
Si Si3 0.813835 0.059087 0.396417
Si Si4 0.850726 0.199019 0.269877
Si Si5 0.489469 0.145046 0.047920
Si Si6 0.144398 0.206210 0.802243
O O1 0.025698 0.452800 0.684936
O O2 0.000000 0.598553 0.750000
O O3 0.075535 0.616026 0.712649
O O4 0.193743 0.536553 0.131827
O O5 0.500000 0.500000 0.500000
O O6 0.390606 0.468946 0.579584
O O7 0.599084 0.346150 0.728378
O O8 0.433226 0.350671 0.460128
O O9 0.835552 0.118052 0.330161
O O10 0.835418 0.130140 0.551120
O O11 0.923757 0.284740 0.476820
O O12 0.750000 0.250000 0.000000
O O13 0.583850 0.205055 0.216959
O O14 0.250000 0.250000 0.000000
#
# Coordination Sequence:
#
# PCOD9292899 Si02
#       6
#     8   8   8   8   8   8
#     4  11  24  40  66  98 141 176 236 276 355 415
#     4   9  23  43  66  99 135 176 229 288 342 415
#     4  11  24  42  71 100 132 192 228 284 366 410
#     4  11  23  44  71  98 140 176 238 287 339 420
#     4  10  24  43  65 101 134 184 223 295 334 411
#     4  10  22  44  69  96 143 176 235 290 351 416
#
# _framework density 22.327957999999999
#
# number of rings (size 3 to 8) (size 9 to 14) (size 15 to 20)
#    0.000    1.667    1.667    1.000    4.667    8.000 
#    0.000    1.667   11.000    0.000    0.000    0.000 
#    0.000    0.000    0.000    0.000    0.000    0.000 
#
# Total GULP energy -134097.976935 kJ/mol
# GULP energy per Si atom -5587.415706 kJ/mol
# Density = 2.227714 g / cm^3
# Si number density = 22.327958 Si / 1000 Ang^3
#
#
#
# Elastic Constant Matrix: (Units=GPa)
#
#
# Indices 1 2 3 4 5 6 
#
# 1 75.9951 40.3307 53.9732 0.0000 6.4606 0.0000
# 2 40.3307 87.3266 41.7461 0.0000 5.4532 0.0000
# 3 53.9732 41.7461 154.8547 0.0000 15.0143 0.0000
# 4 0.0000 0.0000 0.0000 39.0898 0.0000 -0.0906
# 5 6.4606 5.4532 15.0143 0.0000 35.6919 0.0000
# 6 0.0000 0.0000 0.0000 -0.0906 0.0000 23.8323
#
#
#
# Elastic Compliance Matrix: (Units=1/GPa)
#
#
# Indices 1 2 3 4 5 6 
#
# 1 0.020648 -0.006989 -0.005269 0.000000 -0.000453 0.000000
# 2 -0.006989 0.015521 -0.001711 0.000000 -0.000387 0.000000
# 3 -0.005269 -0.001711 0.009005 0.000000 -0.002573 0.000000
# 4 0.000000 0.000000 0.000000 0.025582 0.000000 0.000097
# 5 -0.000453 -0.000387 -0.002573 0.000000 0.029241 0.000000
# 6 0.000000 0.000000 0.000000 0.000097 0.000000 0.041960
#
#
# Mechanical properties :
#
#
# Convention : Reuss Voigt Hill
#
# Bulk Modulus (GPa) = 58.01492 65.58625 61.80058
# Shear Modulus (GPa) = 28.46723 31.86456 30.16589
#
# Velocity S-wave (km/s) = 3.57453 3.78182 3.67963
# Velocity P-wave (km/s) = 6.56322 6.96472 6.76695
#
# Compressibility (1/GPa) = 0.01723694
#
# Stress axis : x y z
#
# Youngs Moduli (GPa) = 48.42996 64.42856 111.05376
#
# Poissons Ratio (x) = 0.45030 0.58511
# Poissons Ratio (y) = 0.33849 0.18998
# Poissons Ratio (z) = 0.25516 0.11022
#
# Static dielectric constant tensor:
#      x y z
#    x 1.841710 0.000000 -0.006180 
#    y 0.000000 1.780220 0.000000 
#    z -0.006180 0.000000 1.874430 
# 
# From -- ./inp_files/123570.got.cif
#   From: 2010.05.17/outbox.cif.g08.bks.cpg/sg15_62_cif.got.tgz:123570.got - 2010.06.03 18:47:42.
