data_PCOD9292776
_publ_section_title
;
Structure prediction by ZEFSAII (Michael W. Deem and Ramdas Pophale) SiO2 
 PCOD9292776
Probable space group: C 2/C
;
_chemical_formula_sum "Si O2"
_cell_formula_units_Z 36
_cell_length_a 8.822174
_cell_length_b 26.573701
_cell_length_c 13.487811
_cell_angle_alpha 90.000000
_cell_angle_beta 31.165405
_cell_angle_gamma 90.000000
_cell_volume 1636.395430
_symmetry_space_group_name_H-M "C 2/C"
_symmetry_group_IT_number 15
_symmetry_cell_setting 'monoclinic'
loop_
_space_group_symop_operation_xyz
x,y,z
-x,y,1/2-z
-x,-y,-z
x,-y,1/2+z
1/2+x,1/2+y,z
1/2-x,1/2+y,1/2-z
1/2-x,1/2-y,-z
1/2+x,1/2-y,1/2+z
loop_
_atom_site_type_symbol
_atom_site_label
_atom_site_fract_x
_atom_site_fract_y
_atom_site_fract_z
Si Si1 0.013731 0.113602 0.946233
Si Si2 0.739096 0.114005 0.316235
Si Si3 0.820673 0.308586 0.953122
Si Si4 0.000000 0.549146 0.750000
Si Si5 0.216812 0.533836 0.978257
O O1 0.317251 0.085532 0.781699
O O2 0.793446 0.077371 0.013034
O O3 0.910261 0.116404 0.116482
O O4 0.987281 0.164011 0.898149
O O5 0.504607 0.160698 0.434419
O O6 0.562105 0.060187 0.420552
O O7 0.000000 0.118651 0.250000
O O8 0.000000 0.315537 0.750000
O O9 0.750000 0.250000 0.000000
O O10 0.164624 0.513204 0.579775
O O11 0.500000 0.527481 0.750000
#
# Coordination Sequence:
#
# PCOD9292776 Si02
#       5
#     8   8   8   4   8
#     4  10  23  44  64  96 139 180 223 286 334 409
#     4  10  22  44  68 100 138 177 232 286 331 409
#     4   9  20  44  72  93 132 178 219 284 358 407
#     4  12  24  44  66  96 146 182 234 282 328 398
#     4  11  24  42  69  97 136 193 232 269 343 400
#
# _framework density 21.999573000000002
#
# number of rings (size 3 to 8) (size 9 to 14) (size 15 to 20)
#    0.000    1.778    2.222    2.000    3.111    5.333 
#    2.000    2.222    0.000    0.000    0.000    0.000 
#    0.000    0.000    0.000    0.000    0.000    0.000 
#
# Total GULP energy -100436.125218 kJ/mol
# GULP energy per Si atom -5579.784734 kJ/mol
# Density = 2.194950 g / cm^3
# Si number density = 21.999573 Si / 1000 Ang^3
#
#
#
# Elastic Constant Matrix: (Units=GPa)
#
#
# Indices 1 2 3 4 5 6 
#
# 1 160.2747 56.1093 49.2418 0.0000 -13.6800 0.0000
# 2 56.1093 156.5671 34.5923 0.0000 -27.4250 0.0000
# 3 49.2418 34.5923 64.7961 0.0000 1.9884 0.0000
# 4 0.0000 0.0000 0.0000 34.5301 0.0000 2.9280
# 5 -13.6800 -27.4250 1.9884 0.0000 31.8654 0.0000
# 6 0.0000 0.0000 0.0000 2.9280 0.0000 24.6939
#
#
#
# Elastic Compliance Matrix: (Units=1/GPa)
#
#
# Indices 1 2 3 4 5 6 
#
# 1 0.008829 -0.001272 -0.006125 0.000000 0.003078 0.000000
# 2 -0.001272 0.009065 -0.004104 0.000000 0.007512 0.000000
# 3 -0.006125 -0.004104 0.022511 0.000000 -0.007566 0.000000
# 4 0.000000 0.000000 0.000000 0.029254 0.000000 -0.003469
# 5 0.003078 0.007512 -0.007566 0.000000 0.039641 0.000000
# 6 0.000000 0.000000 0.000000 -0.003469 0.000000 0.040907
#
#
# Mechanical properties :
#
#
# Convention : Reuss Voigt Hill
#
# Bulk Modulus (GPa) = 57.45796 73.50274 65.48035
# Shear Modulus (GPa) = 27.93130 34.33086 31.13108
#
# Velocity S-wave (km/s) = 3.56705 3.95463 3.76583
# Velocity P-wave (km/s) = 6.56807 7.37127 6.98123
#
# Compressibility (1/GPa) = 0.01740403
#
# Stress axis : x y z
#
# Youngs Moduli (GPa) = 113.26223 110.31033 44.42266
#
# Poissons Ratio (x) = 0.14027 0.27210
# Poissons Ratio (y) = 0.14402 0.18230
# Poissons Ratio (z) = 0.69376 0.45270
#
# Static dielectric constant tensor:
#      x y z
#    x 1.516590 0.000000 -0.090570 
#    y 0.000000 1.833280 0.000000 
#    z -0.090570 0.000000 1.889810 
# 
# From -- ./inp_files/24334.got.cif
#   From: 2010.05.17/outbox.cif.g08.bks.cpg/sg15_13_cif.got.tgz:24334.got - 2010.06.03 18:47:42.
