data_PCOD9292026
_publ_section_title
;
Structure prediction by ZEFSAII (Michael W. Deem and Ramdas Pophale) SiO2 
 PCOD9292026
Probable space group: C 2/C
;
_chemical_formula_sum "Si O2"
_cell_formula_units_Z 52
_cell_length_a 12.171798
_cell_length_b 7.159018
_cell_length_c 25.526514
_cell_angle_alpha 90.000000
_cell_angle_beta 117.188641
_cell_angle_gamma 90.000000
_cell_volume 1978.559245
_symmetry_space_group_name_H-M "C 2/C"
_symmetry_group_IT_number 15
_symmetry_cell_setting 'monoclinic'
loop_
_space_group_symop_operation_xyz
x,y,z
-x,y,1/2-z
-x,-y,-z
x,-y,1/2+z
1/2+x,1/2+y,z
1/2-x,1/2+y,1/2-z
1/2-x,1/2-y,-z
1/2+x,1/2-y,1/2+z
loop_
_atom_site_type_symbol
_atom_site_label
_atom_site_fract_x
_atom_site_fract_y
_atom_site_fract_z
Si Si1 0.750687 0.685670 0.368258
Si Si2 0.380398 0.734598 0.054783
Si Si3 0.235093 0.283311 0.088285
Si Si4 0.623768 0.908214 0.248374
Si Si5 0.500000 0.000000 0.000000
Si Si6 0.657353 0.617382 0.175604
Si Si7 0.512506 0.659639 0.904992
O O1 0.661011 0.756964 0.394471
O O2 0.739280 0.464380 0.369666
O O3 0.694401 0.769208 0.303800
O O4 0.899814 0.729826 0.409983
O O5 0.432959 0.525929 0.055306
O O6 0.250000 0.750000 0.000000
O O7 0.463394 0.885827 0.044875
O O8 0.189888 0.132723 0.120904
O O9 0.366607 0.236022 0.090377
O O10 0.131210 0.363754 0.026151
O O11 0.500000 0.965580 0.250000
O O12 0.717584 0.077636 0.266402
O O13 0.603075 0.803148 0.189358
O O14 0.562411 0.445054 0.158553
#
# Coordination Sequence:
#
# PCOD9292026 Si02
#       7
#     8   8   8   8   4   8   8
#     4  10  23  43  65  92 129 168 214 261 319 375
#     4  11  21  42  63  90 130 168 207 265 313 374
#     4  11  23  42  64  93 131 170 208 265 311 377
#     4  11  24  42  66  97 124 168 208 266 317 381
#     4  12  22  40  66  92 126 174 210 258 326 366
#     4  11  24  41  66  93 130 161 215 256 322 382
#     4  10  22  43  65  93 128 165 212 263 314 378
#
# _framework density 26.281751
#
# number of rings (size 3 to 8) (size 9 to 14) (size 15 to 20)
#    0.000    1.231    4.615    2.769    0.000    4.308 
#    2.769    2.308    0.000    0.000    0.000    0.000 
#    0.000    0.000    0.000    0.000    0.000    0.000 
#
# Total GULP energy -144937.123656 kJ/mol
# GULP energy per Si atom -5574.504756 kJ/mol
# Density = 2.622193 g / cm^3
# Si number density = 26.281751 Si / 1000 Ang^3
#
#
#
# Elastic Constant Matrix: (Units=GPa)
#
#
# Indices 1 2 3 4 5 6 
#
# 1 213.3790 36.9091 25.7168 0.0000 4.1220 0.0000
# 2 36.9091 53.2403 -5.8169 0.0000 -14.3690 0.0000
# 3 25.7168 -5.8169 29.1912 0.0000 -7.0722 0.0000
# 4 0.0000 0.0000 0.0000 15.5887 0.0000 -4.7065
# 5 4.1220 -14.3690 -7.0722 0.0000 60.3488 0.0000
# 6 0.0000 0.0000 0.0000 -4.7065 0.0000 47.6283
#
#
#
# Elastic Compliance Matrix: (Units=1/GPa)
#
#
# Indices 1 2 3 4 5 6 
#
# 1 0.006807 -0.006378 -0.007975 0.000000 -0.002918 0.000000
# 2 -0.006378 0.026881 0.013001 0.000000 0.008360 0.000000
# 3 -0.007975 0.013001 0.046063 0.000000 0.009038 0.000000
# 4 0.000000 0.000000 0.000000 0.066122 0.000000 0.006534
# 5 -0.002918 0.008360 0.009038 0.000000 0.019819 0.000000
# 6 0.000000 0.000000 0.000000 0.006534 0.000000 0.021642
#
#
# Mechanical properties :
#
#
# Convention : Reuss Voigt Hill
#
# Bulk Modulus (GPa) = 12.97913 45.49204 29.23558
# Shear Modulus (GPa) = 23.17815 40.64661 31.91238
#
# Velocity S-wave (km/s) = 2.97292 3.93691 3.48838
# Velocity P-wave (km/s) = 4.09066 6.16544 5.23193
#
# Compressibility (1/GPa) = 0.07704675
#
# Stress axis : x y z
#
# Youngs Moduli (GPa) = 146.90179 37.20102 21.70938
#
# Poissons Ratio (x) = 0.23727 0.17313
# Poissons Ratio (y) = 0.93695 -0.28224
# Poissons Ratio (z) = 1.17154 -0.48364
#
# Static dielectric constant tensor:
#      x y z
#    x 1.938670 0.000000 0.429500 
#    y 0.000000 1.979190 0.000000 
#    z 0.429500 0.000000 0.903860 
# 
# From -- ./inp_files/291257.got.cif
#   From: 2010.05.17/outbox.cif.g08.bks.cpg/sg15_146_cif.got.tgz:291257.got - 2010.06.03 18:47:42.
