data_PCOD9292100
_publ_section_title
;
Structure prediction by ZEFSAII (Michael W. Deem and Ramdas Pophale) SiO2 
 PCOD9292100
Probable space group: C 2/C
;
_chemical_formula_sum "Si O2"
_cell_formula_units_Z 56
_cell_length_a 8.734292
_cell_length_b 26.551464
_cell_length_c 11.869853
_cell_angle_alpha 90.000000
_cell_angle_beta 108.046143
_cell_angle_gamma 90.000000
_cell_volume 2617.303261
_symmetry_space_group_name_H-M "C 2/C"
_symmetry_group_IT_number 15
_symmetry_cell_setting 'monoclinic'
loop_
_space_group_symop_operation_xyz
x,y,z
-x,y,1/2-z
-x,-y,-z
x,-y,1/2+z
1/2+x,1/2+y,z
1/2-x,1/2+y,1/2-z
1/2-x,1/2-y,-z
1/2+x,1/2-y,1/2+z
loop_
_atom_site_type_symbol
_atom_site_label
_atom_site_fract_x
_atom_site_fract_y
_atom_site_fract_z
Si Si1 0.500000 0.199423 0.250000
Si Si2 0.416981 0.944068 0.850235
Si Si3 0.156437 0.130130 0.702701
Si Si4 0.849025 0.441944 0.385377
Si Si5 0.550711 0.553434 0.966561
Si Si6 0.295655 0.624447 0.318002
Si Si7 0.699369 0.259465 0.118960
Si Si8 0.500000 0.696847 0.250000
O O1 0.651799 0.163364 0.312527
O O2 0.548894 0.232162 0.149839
O O3 0.500000 0.932122 0.750000
O O4 0.260442 0.907896 0.804908
O O5 0.395418 0.004419 0.842715
O O6 0.524313 0.932352 0.984614
O O7 0.312517 0.107228 0.802107
O O8 0.189173 0.182071 0.647110
O O9 0.000000 0.138059 0.750000
O O10 0.099730 0.086755 0.604431
O O11 0.670294 0.453800 0.390145
O O12 0.500000 0.500000 0.000000
O O13 0.659392 0.583934 0.079045
O O14 0.454762 0.658294 0.338650
O O15 0.848743 0.232527 0.211555
O O16 0.750000 0.250000 0.000000
#
# Coordination Sequence:
#
# PCOD9292100 Si02
#       8
#     4   8   8   8   8   8   8   4
#     4  10  22  44  74  96 140 180 238 292 342 418
#     4  11  21  41  64  93 130 180 236 277 338 437
#     4  10  22  43  66  94 139 185 229 285 361 418
#     4  10  23  40  61  94 136 175 229 286 350 408
#     4  11  22  38  64  98 132 177 228 280 346 428
#     4  11  21  42  66  96 130 178 231 282 348 419
#     4  11  23  49  69 103 138 183 236 294 350 423
#     4  10  26  42  62 102 134 162 240 290 338 406
#
# _framework density 21.396068
#
# number of rings (size 3 to 8) (size 9 to 14) (size 15 to 20)
#    0.000    1.429    2.857    1.714    2.000    0.000 
#   11.571    2.143    0.000    0.000    0.000    0.000 
#    0.000    0.000    0.000    0.000    0.000    0.000 
#
# Total GULP energy -156058.523548 kJ/mol
# GULP energy per Si atom -5573.518698 kJ/mol
# Density = 2.134737 g / cm^3
# Si number density = 21.396068 Si / 1000 Ang^3
#
#
#
# Elastic Constant Matrix: (Units=GPa)
#
#
# Indices 1 2 3 4 5 6 
#
# 1 56.3528 46.3259 29.0622 0.0000 -5.7310 0.0000
# 2 46.3259 171.0407 72.2675 0.0000 -13.3398 0.0000
# 3 29.0622 72.2675 92.0371 0.0000 0.8950 0.0000
# 4 0.0000 0.0000 0.0000 28.2549 0.0000 -1.5237
# 5 -5.7310 -13.3398 0.8950 0.0000 25.3016 0.0000
# 6 0.0000 0.0000 0.0000 -1.5237 0.0000 26.5596
#
#
#
# Elastic Compliance Matrix: (Units=1/GPa)
#
#
# Indices 1 2 3 4 5 6 
#
# 1 0.023851 -0.004517 -0.004016 0.000000 0.003163 0.000000
# 2 -0.004517 0.010245 -0.006663 0.000000 0.004614 0.000000
# 3 -0.004016 -0.006663 0.017414 0.000000 -0.005039 0.000000
# 4 0.000000 0.000000 0.000000 0.035502 0.000000 0.002037
# 5 0.003163 0.004614 -0.005039 0.000000 0.042851 0.000000
# 6 0.000000 0.000000 0.000000 0.002037 0.000000 0.037768
#
#
# Mechanical properties :
#
#
# Convention : Reuss Voigt Hill
#
# Bulk Modulus (GPa) = 47.34993 68.30466 57.82729
# Shear Modulus (GPa) = 24.38301 27.47488 25.92895
#
# Velocity S-wave (km/s) = 3.37946 3.58733 3.48495
# Velocity P-wave (km/s) = 6.11604 7.01084 6.57867
#
# Compressibility (1/GPa) = 0.02111935
#
# Stress axis : x y z
#
# Youngs Moduli (GPa) = 41.92707 97.60895 57.42506
#
# Poissons Ratio (x) = 0.44086 0.23060
# Poissons Ratio (y) = 0.18937 0.38262
# Poissons Ratio (z) = 0.16837 0.65037
#
# Static dielectric constant tensor:
#      x y z
#    x 2.767620 0.000000 -1.004930 
#    y 0.000000 1.785950 0.000000 
#    z -1.004930 0.000000 2.904170 
# 
# From -- ./inp_files/81451.got.cif
#   From: 2010.05.17/outbox.cif.g08.bks.cpg/sg15_41_cif.got.tgz:81451.got - 2010.06.03 18:47:42.
