data_PCOD9292451
_publ_section_title
;
Structure prediction by ZEFSAII (Michael W. Deem and Ramdas Pophale) SiO2 
 PCOD9292451
Probable space group: C 2/C
;
_chemical_formula_sum "Si O2"
_cell_formula_units_Z 36
_cell_length_a 17.988949
_cell_length_b 20.732199
_cell_length_c 7.316696
_cell_angle_alpha 90.000000
_cell_angle_beta 146.005018
_cell_angle_gamma 90.000000
_cell_volume 1525.708009
_symmetry_space_group_name_H-M "C 2/C"
_symmetry_group_IT_number 15
_symmetry_cell_setting 'monoclinic'
loop_
_space_group_symop_operation_xyz
x,y,z
-x,y,1/2-z
-x,-y,-z
x,-y,1/2+z
1/2+x,1/2+y,z
1/2-x,1/2+y,1/2-z
1/2-x,1/2-y,-z
1/2+x,1/2-y,1/2+z
loop_
_atom_site_type_symbol
_atom_site_label
_atom_site_fract_x
_atom_site_fract_y
_atom_site_fract_z
Si Si1 0.081280 0.126327 0.754468
Si Si2 0.500000 0.306172 0.750000
Si Si3 0.883605 0.583578 0.748716
Si Si4 0.223701 0.712717 0.134879
Si Si5 0.681479 0.942474 0.972061
O O1 0.194796 0.085056 0.886790
O O2 0.000000 0.091786 0.750000
O O3 0.984041 0.150359 0.396440
O O4 0.849429 0.187975 0.505645
O O5 0.373893 0.260564 0.457414
O O6 0.849827 0.647277 0.571608
O O7 0.823387 0.520019 0.531463
O O8 0.826208 0.584868 0.838215
O O9 0.042167 0.575904 0.091810
O O10 0.250000 0.750000 0.000000
#
# Coordination Sequence:
#
# PCOD9292451 Si02
#       5
#     8   4   8   8   8
#     4  12  26  46  71 107 145 187 235 287 358 424
#     4  12  26  46  72 104 142 192 236 290 350 418
#     4  10  22  43  72 104 135 178 242 292 352 402
#     4  12  24  43  69  98 139 183 232 285 343 418
#     4  10  22  43  73 103 137 181 233 302 346 408
#
# _framework density 23.595603000000001
#
# number of rings (size 3 to 8) (size 9 to 14) (size 15 to 20)
#    0.000    0.889    2.222    4.667    0.000    7.111 
#    0.000    4.444    2.444    0.000    0.000    0.000 
#    0.000    0.000    0.000    0.000    0.000    0.000 
#
# Total GULP energy -100881.208046 kJ/mol
# GULP energy per Si atom -5604.511558 kJ/mol
# Density = 2.354190 g / cm^3
# Si number density = 23.595603 Si / 1000 Ang^3
#
#
#
# Elastic Constant Matrix: (Units=GPa)
#
#
# Indices 1 2 3 4 5 6 
#
# 1 160.2420 36.6034 24.0834 0.0000 12.3001 0.0000
# 2 36.6034 89.7701 28.1098 0.0000 -3.6189 0.0000
# 3 24.0834 28.1098 73.6543 0.0000 -2.0112 0.0000
# 4 0.0000 0.0000 0.0000 7.0847 0.0000 8.0883
# 5 12.3001 -3.6189 -2.0112 0.0000 43.8728 0.0000
# 6 0.0000 0.0000 0.0000 8.0883 0.0000 41.8651
#
#
#
# Elastic Compliance Matrix: (Units=1/GPa)
#
#
# Indices 1 2 3 4 5 6 
#
# 1 0.007225 -0.002589 -0.001437 0.000000 -0.002305 0.000000
# 2 -0.002589 0.013609 -0.004302 0.000000 0.001651 0.000000
# 3 -0.001437 -0.004302 0.015710 0.000000 0.000768 0.000000
# 4 0.000000 0.000000 0.000000 0.181093 0.000000 -0.034987
# 5 -0.002305 0.001651 0.000768 0.000000 0.023611 0.000000
# 6 0.000000 0.000000 0.000000 -0.034987 0.000000 0.030646
#
#
# Mechanical properties :
#
#
# Convention : Reuss Voigt Hill
#
# Bulk Modulus (GPa) = 50.28427 55.69552 52.98990
# Shear Modulus (GPa) = 16.93889 34.22251 25.58070
#
# Velocity S-wave (km/s) = 2.68224 3.81251 3.29618
# Velocity P-wave (km/s) = 5.56324 6.56017 6.08216
#
# Compressibility (1/GPa) = 0.01988694
#
# Stress axis : x y z
#
# Youngs Moduli (GPa) = 138.41126 73.48170 63.65456
#
# Poissons Ratio (x) = 0.19023 0.09149
# Poissons Ratio (y) = 0.35831 0.27385
# Poissons Ratio (z) = 0.19894 0.31613
#
# Static dielectric constant tensor:
#      x y z
#    x 1.918280 0.000000 0.018420 
#    y 0.000000 1.841400 0.000000 
#    z 0.018420 0.000000 1.891720 
# 
# From -- ./inp_files/58045.got.cif
#   From: 2010.05.17/outbox.cif.g08.bks.cpg/sg15_30_cif.got.tgz:58045.got - 2010.06.03 18:47:42.
