data_PCOD9292098
_publ_section_title
;
Structure prediction by ZEFSAII (Michael W. Deem and Ramdas Pophale) SiO2 
 PCOD9292098
Probable space group: C 2/C
;
_chemical_formula_sum "Si O2"
_cell_formula_units_Z 32
_cell_length_a 13.951843
_cell_length_b 7.022807
_cell_length_c 23.224131
_cell_angle_alpha 90.000000
_cell_angle_beta 150.300281
_cell_angle_gamma 90.000000
_cell_volume 1127.419347
_symmetry_space_group_name_H-M "C 2/C"
_symmetry_group_IT_number 15
_symmetry_cell_setting 'monoclinic'
loop_
_space_group_symop_operation_xyz
x,y,z
-x,y,1/2-z
-x,-y,-z
x,-y,1/2+z
1/2+x,1/2+y,z
1/2-x,1/2+y,1/2-z
1/2-x,1/2-y,-z
1/2+x,1/2-y,1/2+z
loop_
_atom_site_type_symbol
_atom_site_label
_atom_site_fract_x
_atom_site_fract_y
_atom_site_fract_z
Si Si1 0.855666 0.466029 0.513325
Si Si2 0.564436 0.497467 0.717432
Si Si3 0.085259 0.244519 0.072753
Si Si4 0.121049 0.442319 0.254619
O O1 0.634525 0.458082 0.418713
O O2 0.901033 0.318250 0.485736
O O3 0.890544 0.674183 0.500135
O O4 0.996584 0.455263 0.640575
O O5 0.500000 0.522774 0.750000
O O6 0.748889 0.629677 0.808024
O O7 0.624176 0.279710 0.741423
O O8 0.167798 0.034295 0.125784
O O9 0.000000 0.468439 0.250000
#
# Coordination Sequence:
#
# PCOD9292098 Si02
#       4
#     8   8   8   8
#     4  10  22  43  66  94 136 171 208 276 327 370
#     4   9  20  41  65  92 132 168 210 264 324 382
#     4  10  23  42  65  97 131 170 216 265 323 387
#     4  11  23  40  66  96 125 172 220 261 319 387
#
# _framework density 28.383403000000001
#
# number of rings (size 3 to 8) (size 9 to 14) (size 15 to 20)
#    0.000    2.000    0.000    3.000    3.500    4.000 
#    0.000   22.500    0.000    0.000    0.000    0.000 
#    0.000    0.000    0.000    0.000    0.000    0.000 
#
# Total GULP energy -89878.365547 kJ/mol
# GULP energy per Si atom -5617.397847 kJ/mol
# Density = 2.831880 g / cm^3
# Si number density = 28.383403 Si / 1000 Ang^3
#
#
#
# Elastic Constant Matrix: (Units=GPa)
#
#
# Indices 1 2 3 4 5 6 
#
# 1 131.5743 20.2691 37.8459 0.0000 -6.6258 0.0000
# 2 20.2691 97.6683 1.4184 0.0003 4.9961 0.0000
# 3 37.8459 1.4184 158.0253 0.0006 -13.7241 0.0001
# 4 0.0000 0.0003 0.0006 51.4620 0.0000 10.6729
# 5 -6.6258 4.9961 -13.7241 0.0000 50.9646 0.0000
# 6 0.0000 0.0000 0.0001 10.6729 0.0000 30.0197
#
#
#
# Elastic Compliance Matrix: (Units=1/GPa)
#
#
# Indices 1 2 3 4 5 6 
#
# 1 0.008471 -0.001768 -0.001948 0.000000 0.000750 0.000000
# 2 -0.001768 0.010665 0.000222 0.000000 -0.001215 0.000000
# 3 -0.001948 0.000222 0.006931 0.000000 0.001591 0.000000
# 4 0.000000 0.000000 0.000000 0.020979 0.000000 -0.007459
# 5 0.000750 -0.001215 0.001591 0.000000 0.020267 0.000000
# 6 0.000000 0.000000 0.000000 -0.007459 0.000000 0.035963
#
#
# Mechanical properties :
#
#
# Convention : Reuss Voigt Hill
#
# Bulk Modulus (GPa) = 52.41367 56.25939 54.33653
# Shear Modulus (GPa) = 42.87385 48.33822 45.60603
#
# Velocity S-wave (km/s) = 3.89076 4.13127 4.01282
# Velocity P-wave (km/s) = 6.22017 6.52846 6.37618
#
# Compressibility (1/GPa) = 0.01907899
#
# Stress axis : x y z
#
# Youngs Moduli (GPa) = 118.05514 93.76818 144.28436
#
# Poissons Ratio (x) = 0.16578 0.28101
# Poissons Ratio (y) = 0.20872 -0.03205
# Poissons Ratio (z) = 0.22993 -0.02083
#
# Static dielectric constant tensor:
#      x y z
#    x 2.163900 0.000000 0.015280 
#    y 0.000000 2.272350 0.000000 
#    z 0.015280 0.000000 2.238470 
# 
# From -- ./inp_files/150442.got.cif
#   From: 2010.05.17/outbox.cif.g08.bks.cpg/sg15_76_cif.got.tgz:150442.got - 2010.06.03 18:47:42.
