data_PCOD9292865
_publ_section_title
;
Structure prediction by ZEFSAII (Michael W. Deem and Ramdas Pophale) SiO2 
 PCOD9292865
Probable space group: C 2/C
;
_chemical_formula_sum "Si O2"
_cell_formula_units_Z 44
_cell_length_a 14.479047
_cell_length_b 13.580526
_cell_length_c 9.609757
_cell_angle_alpha 90.000000
_cell_angle_beta 68.499143
_cell_angle_gamma 90.000000
_cell_volume 1758.103013
_symmetry_space_group_name_H-M "C 2/C"
_symmetry_group_IT_number 15
_symmetry_cell_setting 'monoclinic'
loop_
_space_group_symop_operation_xyz
x,y,z
-x,y,1/2-z
-x,-y,-z
x,-y,1/2+z
1/2+x,1/2+y,z
1/2-x,1/2+y,1/2-z
1/2-x,1/2-y,-z
1/2+x,1/2-y,1/2+z
loop_
_atom_site_type_symbol
_atom_site_label
_atom_site_fract_x
_atom_site_fract_y
_atom_site_fract_z
Si Si1 0.715088 0.596198 0.218898
Si Si2 0.973024 0.180014 0.116267
Si Si3 0.174866 0.493347 0.099785
Si Si4 0.305483 0.809870 0.215459
Si Si5 0.000000 0.380053 0.750000
Si Si6 0.410627 0.686119 0.704259
O O1 0.596399 0.587827 0.304612
O O2 0.760296 0.565810 0.340883
O O3 0.727063 0.712455 0.180742
O O4 0.767862 0.538213 0.068612
O O5 0.897568 0.258650 0.083333
O O6 0.000000 0.225572 0.250000
O O7 0.064231 0.156750 0.967740
O O8 0.160573 0.398306 0.206521
O O9 0.072246 0.548553 0.124431
O O10 0.202715 0.837092 0.195330
O O11 0.069274 0.303946 0.796018
O O12 0.500000 0.644131 0.750000
#
# Coordination Sequence:
#
# PCOD9292865 Si02
#       6
#     8   8   8   8   4   8
#     4  10  25  43  63 100 140 178 234 283 351 423
#     4  10  23  42  70  94 136 189 232 278 347 434
#     4  12  24  41  69 101 144 183 228 300 346 418
#     4  10  24  43  69 101 143 187 230 285 358 422
#     4  10  24  40  70 114 138 168 242 300 362 408
#     4  10  22  44  69 101 144 177 235 291 351 418
#
# _framework density 25.026973999999999
#
# number of rings (size 3 to 8) (size 9 to 14) (size 15 to 20)
#    1.636    0.000    1.818    1.636    6.364    2.909 
#    0.000    4.545    0.000    0.000    0.000    0.000 
#    0.000    0.000    0.000    0.000    0.000    0.000 
#
# Total GULP energy -122772.585019 kJ/mol
# GULP energy per Si atom -5580.572046 kJ/mol
# Density = 2.497001 g / cm^3
# Si number density = 25.026974 Si / 1000 Ang^3
#
#
#
# Elastic Constant Matrix: (Units=GPa)
#
#
# Indices 1 2 3 4 5 6 
#
# 1 60.5054 -5.7896 -9.0358 0.0000 -4.6346 0.0000
# 2 -5.7896 78.4174 17.6113 0.0000 -4.6491 0.0000
# 3 -9.0358 17.6113 48.6981 0.0000 3.5182 0.0000
# 4 0.0000 0.0000 0.0000 3.0188 0.0000 -16.3048
# 5 -4.6346 -4.6491 3.5182 0.0000 29.1818 0.0000
# 6 0.0000 0.0000 0.0000 -16.3048 0.0000 31.4179
#
#
#
# Elastic Compliance Matrix: (Units=1/GPa)
#
#
# Indices 1 2 3 4 5 6 
#
# 1 0.017205 0.000810 0.002716 0.000000 0.002534 0.000000
# 2 0.000810 0.014155 -0.005186 0.000000 0.003009 0.000000
# 3 0.002716 -0.005186 0.023144 0.000000 -0.003185 0.000000
# 4 0.000000 0.000000 0.000000 -0.183726 0.000000 -0.095347
# 5 0.002534 0.003009 -0.003185 0.000000 0.035534 0.000000
# 6 0.000000 0.000000 0.000000 -0.095347 0.000000 -0.017653
#
#
# Mechanical properties :
#
#
# Convention : Reuss Voigt Hill
#
# Bulk Modulus (GPa) = 19.53692 21.46585 20.50139
# Shear Modulus (GPa) = -54.96923 25.04603 -14.96160
#
# Velocity S-wave (km/s) = -4.69166 3.16691 -2.44769
# Velocity P-wave (km/s) = 4.63957 4.68702 0.47040
#
# Compressibility (1/GPa) = 0.05118513
#
# Stress axis : x y z
#
# Youngs Moduli (GPa) = 58.12354 70.64531 43.20726
#
# Poissons Ratio (x) = -0.05726 -0.11736
# Poissons Ratio (y) = -0.04711 0.22408
# Poissons Ratio (z) = -0.15787 0.36638
#
# Static dielectric constant tensor:
#      x y z
#    x 2.103250 0.000000 -0.011870 
#    y 0.000000 2.028060 0.000000 
#    z -0.011870 0.000000 1.923530 
# 
# From -- ./inp_files/96075.got.cif
#   From: 2010.05.17/outbox.cif.g08.bks.cpg/sg15_49_cif.got.tgz:96075.got - 2010.06.03 18:47:42.
