data_PCOD9292732
_publ_section_title
;
Structure prediction by ZEFSAII (Michael W. Deem and Ramdas Pophale) SiO2 
 PCOD9292732
Probable space group: C 2/C
;
_chemical_formula_sum "Si O2"
_cell_formula_units_Z 56
_cell_length_a 18.484047
_cell_length_b 25.323475
_cell_length_c 5.425390
_cell_angle_alpha 90.000000
_cell_angle_beta 60.570042
_cell_angle_gamma 90.000000
_cell_volume 2211.811183
_symmetry_space_group_name_H-M "C 2/C"
_symmetry_group_IT_number 15
_symmetry_cell_setting 'monoclinic'
loop_
_space_group_symop_operation_xyz
x,y,z
-x,y,1/2-z
-x,-y,-z
x,-y,1/2+z
1/2+x,1/2+y,z
1/2-x,1/2+y,1/2-z
1/2-x,1/2-y,-z
1/2+x,1/2-y,1/2+z
loop_
_atom_site_type_symbol
_atom_site_label
_atom_site_fract_x
_atom_site_fract_y
_atom_site_fract_z
Si Si1 0.000000 0.124005 0.750000
Si Si2 0.113296 0.971285 0.913525
Si Si3 0.000000 0.390181 0.250000
Si Si4 0.339144 0.880762 0.250839
Si Si5 0.700391 0.986367 0.388043
Si Si6 0.782030 0.192851 0.350355
Si Si7 0.421570 0.194902 0.234224
Si Si8 0.120151 0.805076 0.331965
O O1 0.073686 0.085725 0.528781
O O2 0.039901 0.161041 0.892208
O O3 0.086526 0.005755 0.195613
O O4 0.213754 0.979902 0.740325
O O5 0.078566 0.409877 0.279598
O O6 0.955430 0.353137 0.521964
O O7 0.287362 0.925027 0.194262
O O8 0.287965 0.852142 0.549421
O O9 0.361479 0.832033 0.033163
O O10 0.656510 0.989134 0.723646
O O11 0.750000 0.250000 0.500000
O O12 0.839265 0.174619 0.484935
O O13 0.825206 0.195551 0.012205
O O14 0.500000 0.218440 0.250000
O O15 0.393581 0.242471 0.110004
#
# Coordination Sequence:
#
# PCOD9292732 Si02
#       8
#     4   8   4   8   8   8   8   8
#     4  12  28  46  76 107 159 202 250 302 366 440
#     4  10  24  46  70  99 143 195 254 304 358 423
#     4  10  24  44  78 101 143 188 240 292 388 446
#     4  11  25  44  77  99 144 190 244 306 382 438
#     4  10  25  45  72 104 138 182 244 308 364 433
#     4  12  27  45  71 108 151 195 249 306 363 442
#     4  10  22  44  67 105 143 192 238 297 368 445
#     4  12  28  43  70 111 151 199 250 300 363 437
#
# _framework density 25.318615000000001
#
# number of rings (size 3 to 8) (size 9 to 14) (size 15 to 20)
#    0.000    1.143    2.143    1.714   14.000    1.714 
#    0.000    0.714    0.000    0.000    0.000    0.000 
#    0.000    0.000    0.000    0.000    0.000    0.000 
#
# Total GULP energy -156512.987352 kJ/mol
# GULP energy per Si atom -5589.749548 kJ/mol
# Density = 2.526099 g / cm^3
# Si number density = 25.318615 Si / 1000 Ang^3
#
#
#
# Elastic Constant Matrix: (Units=GPa)
#
#
# Indices 1 2 3 4 5 6 
#
# 1 114.7210 32.4889 10.7269 0.0000 17.6053 0.0000
# 2 32.4889 104.9078 -3.5413 0.0000 -9.4674 0.0000
# 3 10.7269 -3.5413 97.1600 0.0000 18.3398 0.0000
# 4 0.0000 0.0000 0.0000 18.9232 0.0000 5.8026
# 5 17.6053 -9.4674 18.3398 0.0000 33.6876 0.0000
# 6 0.0000 0.0000 0.0000 5.8026 0.0000 47.4814
#
#
#
# Elastic Compliance Matrix: (Units=1/GPa)
#
#
# Indices 1 2 3 4 5 6 
#
# 1 0.010892 -0.003987 -0.000069 0.000000 -0.006775 0.000000
# 2 -0.003987 0.011242 -0.000156 0.000000 0.005328 0.000000
# 3 -0.000069 -0.000156 0.011475 0.000000 -0.006255 0.000000
# 4 0.000000 0.000000 0.000000 0.054903 0.000000 -0.006709
# 5 -0.006775 0.005328 -0.006255 0.000000 0.038128 0.000000
# 6 0.000000 0.000000 0.000000 -0.006709 0.000000 0.021881
#
#
# Mechanical properties :
#
#
# Convention : Reuss Voigt Hill
#
# Bulk Modulus (GPa) = 39.70442 44.01531 41.85986
# Shear Modulus (GPa) = 30.24088 38.49274 34.36681
#
# Velocity S-wave (km/s) = 3.45978 3.90338 3.68825
# Velocity P-wave (km/s) = 5.62815 6.14308 5.89124
#
# Compressibility (1/GPa) = 0.02518611
#
# Stress axis : x y z
#
# Youngs Moduli (GPa) = 91.80998 88.94860 87.14684
#
# Poissons Ratio (x) = 0.35463 0.00601
# Poissons Ratio (y) = 0.36604 0.01357
# Poissons Ratio (z) = 0.00633 0.01385
#
# Static dielectric constant tensor:
#      x y z
#    x 2.200500 0.000000 -0.087450 
#    y 0.000000 1.923070 0.000000 
#    z -0.087450 0.000000 2.401280 
# 
# From -- ./inp_files/13895.got.cif
#   From: 2010.05.17/outbox.cif.g08.bks.cpg/sg15_7_cif.got.tgz:13895.got - 2010.06.03 18:47:42.
