data_PCOD9292573
_publ_section_title
;
Structure prediction by ZEFSAII (Michael W. Deem and Ramdas Pophale) SiO2 
 PCOD9292573
Probable space group: C 2/C
;
_chemical_formula_sum "Si O2"
_cell_formula_units_Z 52
_cell_length_a 19.162695
_cell_length_b 18.767599
_cell_length_c 8.908609
_cell_angle_alpha 90.000000
_cell_angle_beta 42.852220
_cell_angle_gamma 90.000000
_cell_volume 2178.984810
_symmetry_space_group_name_H-M "C 2/C"
_symmetry_group_IT_number 15
_symmetry_cell_setting 'monoclinic'
loop_
_space_group_symop_operation_xyz
x,y,z
-x,y,1/2-z
-x,-y,-z
x,-y,1/2+z
1/2+x,1/2+y,z
1/2-x,1/2+y,1/2-z
1/2-x,1/2-y,-z
1/2+x,1/2-y,1/2+z
loop_
_atom_site_type_symbol
_atom_site_label
_atom_site_fract_x
_atom_site_fract_y
_atom_site_fract_z
Si Si1 0.835736 0.428657 0.459662
Si Si2 0.448145 0.282392 0.985178
Si Si3 0.829877 0.593852 0.500469
Si Si4 0.000000 0.977420 0.750000
Si Si5 0.031064 0.622880 0.488745
Si Si6 0.897225 0.089380 0.698522
Si Si7 0.749901 0.317000 0.385549
O O1 0.818315 0.508730 0.544356
O O2 0.937984 0.426104 0.192888
O O3 0.874710 0.386455 0.543111
O O4 0.747595 0.385380 0.507072
O O5 0.500000 0.306808 0.750000
O O6 0.493532 0.206182 0.953401
O O7 0.461073 0.337398 0.100466
O O8 0.331875 0.288596 0.109221
O O9 0.924631 0.605245 0.241984
O O10 0.721006 0.607552 0.590919
O O11 0.831677 0.647294 0.639222
O O12 0.076021 0.937205 0.513948
O O13 0.068155 0.028331 0.746046
O O14 0.750000 0.250000 0.500000
#
# Coordination Sequence:
#
# PCOD9292573 Si02
#       7
#     8   8   8   4   8   8   8
#     4  11  23  43  69  98 136 189 227 288 360 420
#     4  11  21  44  65  94 133 182 221 286 349 411
#     4  11  26  40  67 104 137 180 238 295 342 429
#     4  10  22  44  64 100 126 176 218 286 350 420
#     4  11  23  44  66  96 142 177 231 287 352 411
#     4  10  24  40  68  94 136 171 227 283 348 412
#     4  11  23  43  68  97 134 188 239 287 354 424
#
# _framework density 23.864324
#
# number of rings (size 3 to 8) (size 9 to 14) (size 15 to 20)
#    0.000    1.231    3.846    1.385    6.462    4.308 
#    0.000    1.538    0.000    0.000    0.000    0.000 
#    0.000    0.000    0.000    0.000    0.000    0.000 
#
# Total GULP energy -144814.429930 kJ/mol
# GULP energy per Si atom -5569.785767 kJ/mol
# Density = 2.381001 g / cm^3
# Si number density = 23.864324 Si / 1000 Ang^3
#
#
#
# Elastic Constant Matrix: (Units=GPa)
#
#
# Indices 1 2 3 4 5 6 
#
# 1 52.2996 2.8311 11.1632 0.0000 7.6203 0.0000
# 2 2.8311 122.7911 41.6545 0.0000 5.4176 0.0000
# 3 11.1632 41.6545 95.9984 0.0000 9.9956 0.0000
# 4 0.0000 0.0000 0.0000 97.8162 0.0000 -11.8617
# 5 7.6203 5.4176 9.9956 0.0000 23.1514 0.0000
# 6 0.0000 0.0000 0.0000 -11.8617 0.0000 5.5593
#
#
#
# Elastic Compliance Matrix: (Units=1/GPa)
#
#
# Indices 1 2 3 4 5 6 
#
# 1 0.020382 0.000453 -0.001945 0.000000 -0.005975 0.000000
# 2 0.000453 0.009564 -0.004140 0.000000 -0.000600 0.000000
# 3 -0.001945 -0.004140 0.012850 0.000000 -0.003939 0.000000
# 4 0.000000 0.000000 0.000000 0.013792 0.000000 0.029427
# 5 -0.005975 -0.000600 -0.003939 0.000000 0.047002 0.000000
# 6 0.000000 0.000000 0.000000 0.029427 0.000000 0.242665
#
#
# Mechanical properties :
#
#
# Convention : Reuss Voigt Hill
#
# Bulk Modulus (GPa) = 31.71327 42.48741 37.10034
# Shear Modulus (GPa) = 13.58592 39.66808 26.62700
#
# Velocity S-wave (km/s) = 2.38859 4.08147 3.34393
# Velocity P-wave (km/s) = 4.57438 6.32879 5.52171
#
# Compressibility (1/GPa) = 0.03153254
#
# Stress axis : x y z
#
# Youngs Moduli (GPa) = 49.06351 104.55377 77.82326
#
# Poissons Ratio (x) = -0.04741 0.15134
# Poissons Ratio (y) = -0.02225 0.32222
# Poissons Ratio (z) = 0.09541 0.43289
#
# Static dielectric constant tensor:
#      x y z
#    x 1.793160 0.000000 0.054950 
#    y 0.000000 1.948930 0.000000 
#    z 0.054950 0.000000 1.876490 
# 
# From -- ./inp_files/56940.got.cif
#   From: 2010.05.17/outbox.cif.g08.bks.cpg/sg15_29_cif.got.tgz:56940.got - 2010.06.03 18:47:42.
