data_PCOD9292671
_publ_section_title
;
Structure prediction by ZEFSAII (Michael W. Deem and Ramdas Pophale) SiO2 
 PCOD9292671
Probable space group: C 2/C
;
_chemical_formula_sum "Si O2"
_cell_formula_units_Z 52
_cell_length_a 11.270633
_cell_length_b 24.388144
_cell_length_c 8.804049
_cell_angle_alpha 90.000000
_cell_angle_beta 76.802303
_cell_angle_gamma 90.000000
_cell_volume 2356.051386
_symmetry_space_group_name_H-M "C 2/C"
_symmetry_group_IT_number 15
_symmetry_cell_setting 'monoclinic'
loop_
_space_group_symop_operation_xyz
x,y,z
-x,y,1/2-z
-x,-y,-z
x,-y,1/2+z
1/2+x,1/2+y,z
1/2-x,1/2+y,1/2-z
1/2-x,1/2-y,-z
1/2+x,1/2-y,1/2+z
loop_
_atom_site_type_symbol
_atom_site_label
_atom_site_fract_x
_atom_site_fract_y
_atom_site_fract_z
Si Si1 0.437369 0.451637 0.929509
Si Si2 0.868227 0.156453 0.565964
Si Si3 0.000000 0.529158 0.250000
Si Si4 0.000000 0.765483 0.250000
Si Si5 0.500000 0.718451 0.250000
Si Si6 0.363158 0.108840 0.721077
Si Si7 0.641876 0.784675 0.453298
Si Si8 0.832135 0.510001 0.072620
O O1 0.500000 0.439922 0.750000
O O2 0.299657 0.469733 0.933950
O O3 0.500000 0.500000 0.000000
O O4 0.444076 0.399555 0.037626
O O5 0.901015 0.194334 0.700252
O O6 0.917135 0.185712 0.397847
O O7 0.730579 0.134138 0.626674
O O8 0.101683 0.553132 0.332736
O O9 0.916769 0.498104 0.400282
O O10 0.962953 0.725987 0.395470
O O11 0.596117 0.755042 0.314269
O O12 0.500000 0.109781 0.750000
O O13 0.346586 0.151697 0.587335
O O14 0.329371 0.048911 0.661693
O O15 0.750000 0.750000 0.500000
#
# Coordination Sequence:
#
# PCOD9292671 Si02
#       8
#     8   8   4   4   4   8   8   8
#     4  12  26  43  69 101 138 180 233 287 348 419
#     4  11  24  45  68  99 137 185 228 287 357 414
#     4  10  22  44  66  86 142 174 222 274 342 392
#     4  10  24  43  73  98 142 181 233 300 344 420
#     4  10  24  45  71  96 140 179 237 292 356 412
#     4  12  25  43  71 100 139 182 231 283 357 418
#     4  11  23  44  67 103 134 180 229 291 351 416
#     4  11  24  44  66 100 133 183 228 283 337 418
#
# _framework density 22.070827000000001
#
# number of rings (size 3 to 8) (size 9 to 14) (size 15 to 20)
#    0.000    0.923    3.846    2.769    5.385    2.462 
#    2.769    0.000    0.000    0.000    0.000    0.000 
#    0.000    0.000    0.000    0.000    0.000    0.000 
#
# Total GULP energy -144969.635071 kJ/mol
# GULP energy per Si atom -5575.755195 kJ/mol
# Density = 2.202059 g / cm^3
# Si number density = 22.070827 Si / 1000 Ang^3
#
#
#
# Elastic Constant Matrix: (Units=GPa)
#
#
# Indices 1 2 3 4 5 6 
#
# 1 93.7989 1.9851 23.8737 0.0000 6.4248 0.0000
# 2 1.9851 97.0570 28.2244 0.0000 4.4850 0.0000
# 3 23.8737 28.2244 98.8883 0.0000 -0.3591 0.0000
# 4 0.0000 0.0000 0.0000 27.6615 0.0000 -3.1578
# 5 6.4248 4.4850 -0.3591 0.0000 45.0593 0.0000
# 6 0.0000 0.0000 0.0000 -3.1578 0.0000 18.1878
#
#
#
# Elastic Compliance Matrix: (Units=1/GPa)
#
#
# Indices 1 2 3 4 5 6 
#
# 1 0.011527 0.000715 -0.002993 0.000000 -0.001739 0.000000
# 2 0.000715 0.011339 -0.003414 0.000000 -0.001258 0.000000
# 3 -0.002993 -0.003414 0.011812 0.000000 0.000861 0.000000
# 4 0.000000 0.000000 0.000000 0.036882 0.000000 0.006404
# 5 -0.001739 -0.001258 0.000861 0.000000 0.022573 0.000000
# 6 0.000000 0.000000 0.000000 0.006404 0.000000 0.056094
#
#
# Mechanical properties :
#
#
# Convention : Reuss Voigt Hill
#
# Bulk Modulus (GPa) = 42.92752 44.21230 43.56991
# Shear Modulus (GPa) = 29.52004 33.89245 31.70625
#
# Velocity S-wave (km/s) = 3.66117 3.92295 3.79432
# Velocity P-wave (km/s) = 6.11264 6.37141 6.24337
#
# Compressibility (1/GPa) = 0.02329508
#
# Stress axis : x y z
#
# Youngs Moduli (GPa) = 86.75365 88.18790 84.65615
#
# Poissons Ratio (x) = -0.06306 0.25339
# Poissons Ratio (y) = -0.06203 0.28899
# Poissons Ratio (z) = 0.25967 0.30104
#
# Static dielectric constant tensor:
#      x y z
#    x 1.895710 0.000000 0.027240 
#    y 0.000000 1.866940 0.000000 
#    z 0.027240 0.000000 1.899680 
# 
# From -- ./inp_files/33604.got.cif
#   From: 2010.05.17/outbox.cif.g08.bks.cpg/sg15_17_cif.got.tgz:33604.got - 2010.06.03 18:47:42.
