data_PCOD9292913
_publ_section_title
;
Structure prediction by ZEFSAII (Michael W. Deem and Ramdas Pophale) SiO2 
 PCOD9292913
Probable space group: C 2/C
;
_chemical_formula_sum "Si O2"
_cell_formula_units_Z 48
_cell_length_a 14.334195
_cell_length_b 26.282823
_cell_length_c 8.091023
_cell_angle_alpha 90.000000
_cell_angle_beta 141.764931
_cell_angle_gamma 90.000000
_cell_volume 1886.521302
_symmetry_space_group_name_H-M "C 2/C"
_symmetry_group_IT_number 15
_symmetry_cell_setting 'monoclinic'
loop_
_space_group_symop_operation_xyz
x,y,z
-x,y,1/2-z
-x,-y,-z
x,-y,1/2+z
1/2+x,1/2+y,z
1/2-x,1/2+y,1/2-z
1/2-x,1/2-y,-z
1/2+x,1/2-y,1/2+z
loop_
_atom_site_type_symbol
_atom_site_label
_atom_site_fract_x
_atom_site_fract_y
_atom_site_fract_z
Si Si1 0.677036 0.866148 0.461790
Si Si2 0.000000 0.994937 0.750000
Si Si3 0.500000 0.025585 0.250000
Si Si4 0.816418 0.773545 0.818624
Si Si5 0.157335 0.806179 0.280641
Si Si6 0.878946 0.897957 0.460776
Si Si7 0.295185 0.050889 0.245538
O O1 0.731486 0.808338 0.567836
O O2 0.729611 0.893852 0.365668
O O3 0.747987 0.900960 0.705106
O O4 0.500000 0.868656 0.250000
O O5 0.849840 0.026897 0.542833
O O6 0.044714 0.952869 0.952685
O O7 0.414458 0.059041 0.265668
O O8 0.619904 0.989137 0.512431
O O9 0.761046 0.716646 0.779708
O O10 0.781262 0.797050 0.951577
O O11 0.994655 0.778949 0.040859
O O12 0.137113 0.865624 0.223393
O O13 0.000000 0.869859 0.750000
#
# Coordination Sequence:
#
# PCOD9292913 Si02
#       7
#     8   4   4   8   8   8   8
#     4  12  26  44  64  98 138 180 229 279 337 414
#     4  10  24  42  74 101 128 183 234 276 348 396
#     4  10  24  42  68  93 138 177 222 280 348 394
#     4  10  23  43  68 101 135 174 224 272 347 409
#     4  10  22  44  69  99 136 172 218 287 337 408
#     4  10  23  44  66  98 134 171 228 282 331 405
#     4  11  24  46  67 100 138 180 227 290 336 412
#
# _framework density 25.443657000000002
#
# number of rings (size 3 to 8) (size 9 to 14) (size 15 to 20)
#    0.500    1.000    2.500    1.000    4.667    6.667 
#    0.000    0.000    0.000    0.000    0.000    0.000 
#    0.000    0.000    0.000    0.000    0.000    0.000 
#
# Total GULP energy -134260.804156 kJ/mol
# GULP energy per Si atom -5594.200173 kJ/mol
# Density = 2.538575 g / cm^3
# Si number density = 25.443657 Si / 1000 Ang^3
#
#
#
# Elastic Constant Matrix: (Units=GPa)
#
#
# Indices 1 2 3 4 5 6 
#
# 1 93.2183 -0.6066 30.7121 0.0000 1.5997 0.0000
# 2 -0.6066 79.0473 21.2626 0.0000 -0.4710 0.0000
# 3 30.7121 21.2626 110.3204 0.0000 10.4469 0.0000
# 4 0.0000 0.0000 0.0000 37.4101 0.0000 0.0923
# 5 1.5997 -0.4710 10.4469 0.0000 43.4590 0.0000
# 6 0.0000 0.0000 0.0000 0.0923 0.0000 22.1726
#
#
#
# Elastic Compliance Matrix: (Units=1/GPa)
#
#
# Indices 1 2 3 4 5 6 
#
# 1 0.011898 0.001050 -0.003555 0.000000 0.000428 0.000000
# 2 0.001050 0.013461 -0.002964 0.000000 0.000820 0.000000
# 3 -0.003555 -0.002964 0.010864 0.000000 -0.002513 0.000000
# 4 0.000000 0.000000 0.000000 0.026731 0.000000 -0.000111
# 5 0.000428 0.000820 -0.002513 0.000000 0.023607 0.000000
# 6 0.000000 0.000000 0.000000 -0.000111 0.000000 0.045101
#
#
# Mechanical properties :
#
#
# Convention : Reuss Voigt Hill
#
# Bulk Modulus (GPa) = 39.55099 42.81357 41.18228
# Shear Modulus (GPa) = 33.10613 36.02286 34.56449
#
# Velocity S-wave (km/s) = 3.61107 3.76678 3.68974
# Velocity P-wave (km/s) = 5.74149 5.98177 5.86286
#
# Compressibility (1/GPa) = 0.02528382
#
# Stress axis : x y z
#
# Youngs Moduli (GPa) = 84.04524 74.28883 92.05084
#
# Poissons Ratio (x) = -0.07802 0.32727
# Poissons Ratio (y) = -0.08826 0.27288
# Poissons Ratio (z) = 0.29881 0.22022
#
# Static dielectric constant tensor:
#      x y z
#    x 2.024340 0.000000 -0.033940 
#    y 0.000000 2.039410 0.000000 
#    z -0.033940 0.000000 2.003390 
# 
# From -- ./inp_files/43998.got.cif
#   From: 2010.05.17/outbox.cif.g08.bks.cpg/sg15_22_cif.got.tgz:43998.got - 2010.06.03 18:47:42.
