data_PCOD9292335
_publ_section_title
;
Structure prediction by ZEFSAII (Michael W. Deem and Ramdas Pophale) SiO2 
 PCOD9292335
Probable space group: C 2/C
;
_chemical_formula_sum "Si O2"
_cell_formula_units_Z 56
_cell_length_a 17.848099
_cell_length_b 8.336863
_cell_length_c 26.013762
_cell_angle_alpha 90.000000
_cell_angle_beta 137.159454
_cell_angle_gamma 90.000000
_cell_volume 2631.972775
_symmetry_space_group_name_H-M "C 2/C"
_symmetry_group_IT_number 15
_symmetry_cell_setting 'monoclinic'
loop_
_space_group_symop_operation_xyz
x,y,z
-x,y,1/2-z
-x,-y,-z
x,-y,1/2+z
1/2+x,1/2+y,z
1/2-x,1/2+y,1/2-z
1/2-x,1/2-y,-z
1/2+x,1/2-y,1/2+z
loop_
_atom_site_type_symbol
_atom_site_label
_atom_site_fract_x
_atom_site_fract_y
_atom_site_fract_z
Si Si1 0.958534 0.185122 0.287781
Si Si2 0.107686 0.937135 0.024680
Si Si3 0.211662 0.069645 0.973557
Si Si4 0.107344 0.620272 0.169368
Si Si5 0.508581 0.344192 0.312630
Si Si6 0.429618 0.863843 0.061284
Si Si7 0.744384 0.399132 0.189389
O O1 0.850728 0.290381 0.236129
O O2 0.000000 0.192726 0.250000
O O3 0.038176 0.258945 0.371790
O O4 0.932617 0.998644 0.285556
O O5 0.205090 0.961960 0.114591
O O6 0.087851 0.755011 0.995491
O O7 0.141916 0.023802 0.989072
O O8 0.000000 0.000000 0.000000
O O9 0.127697 0.079869 0.883904
O O10 0.250000 0.250000 0.000000
O O11 0.315540 0.955366 0.015908
O O12 0.212460 0.536905 0.250140
O O13 0.149753 0.775618 0.160135
O O14 0.024213 0.694956 0.169503
O O15 0.031832 0.486428 0.103651
O O16 0.500000 0.294394 0.250000
#
# Coordination Sequence:
#
# PCOD9292335 Si02
#       7
#     8   8   8   8   8   8   8
#     4  10  22  43  69  99 134 176 233 286 340 420
#     4  12  28  46  72 104 142 184 237 296 356 419
#     4  12  25  47  72 103 144 186 233 291 356 417
#     4  11  25  46  68  99 140 183 230 289 350 422
#     4  11  24  41  70 101 139 177 234 285 343 415
#     4  11  25  45  75 100 141 184 237 295 353 418
#     4  11  26  43  70  97 139 181 230 280 357 415
#
# _framework density 21.276816
#
# number of rings (size 3 to 8) (size 9 to 14) (size 15 to 20)
#    0.000    0.857    2.857    3.000   10.000    2.857 
#    0.000    0.000    0.000    0.000    0.000    0.000 
#    0.000    0.000    0.000    0.000    0.000    0.000 
#
# Total GULP energy -156438.529404 kJ/mol
# GULP energy per Si atom -5587.090336 kJ/mol
# Density = 2.122839 g / cm^3
# Si number density = 21.276816 Si / 1000 Ang^3
#
#
#
# Elastic Constant Matrix: (Units=GPa)
#
#
# Indices 1 2 3 4 5 6 
#
# 1 79.6082 27.1734 29.1734 0.0000 5.9771 0.0000
# 2 27.1734 72.8596 -3.9826 0.0000 4.7803 0.0000
# 3 29.1734 -3.9826 90.9985 0.0000 1.9427 0.0000
# 4 0.0000 0.0000 0.0000 32.3934 0.0000 8.8791
# 5 5.9771 4.7803 1.9427 0.0000 18.1379 0.0000
# 6 0.0000 0.0000 0.0000 8.8791 0.0000 24.8646
#
#
#
# Elastic Compliance Matrix: (Units=1/GPa)
#
#
# Indices 1 2 3 4 5 6 
#
# 1 0.017109 -0.006474 -0.005697 0.000000 -0.003321 0.000000
# 2 -0.006474 0.016460 0.002850 0.000000 -0.002510 0.000000
# 3 -0.005697 0.002850 0.012946 0.000000 -0.000260 0.000000
# 4 0.000000 0.000000 0.000000 0.034220 0.000000 -0.012220
# 5 -0.003321 -0.002510 -0.000260 0.000000 0.056917 0.000000
# 6 0.000000 0.000000 0.000000 -0.012220 0.000000 0.044581
#
#
# Mechanical properties :
#
#
# Convention : Reuss Voigt Hill
#
# Bulk Modulus (GPa) = 35.88009 38.68830 37.28419
# Shear Modulus (GPa) = 23.79055 27.81933 25.80494
#
# Velocity S-wave (km/s) = 3.34749 3.61985 3.48633
# Velocity P-wave (km/s) = 5.64279 5.97444 5.81098
#
# Compressibility (1/GPa) = 0.02787061
#
# Stress axis : x y z
#
# Youngs Moduli (GPa) = 58.44977 60.75303 77.24396
#
# Poissons Ratio (x) = 0.39333 0.44009
# Poissons Ratio (y) = 0.37842 -0.22011
# Poissons Ratio (z) = 0.33301 -0.17312
#
# Static dielectric constant tensor:
#      x y z
#    x 1.799820 0.000000 0.055410 
#    y 0.000000 1.836340 0.000000 
#    z 0.055410 0.000000 1.947240 
# 
# From -- ./inp_files/298510.got.cif
#   From: 2010.05.17/outbox.cif.g08.bks.cpg/sg15_150_cif.got.tgz:298510.got - 2010.06.03 18:47:42.
