data_PCOD9292471
_publ_section_title
;
Structure prediction by ZEFSAII (Michael W. Deem and Ramdas Pophale) SiO2 
 PCOD9292471
Probable space group: C 2/C
;
_chemical_formula_sum "Si O2"
_cell_formula_units_Z 48
_cell_length_a 11.958324
_cell_length_b 11.107585
_cell_length_c 19.534838
_cell_angle_alpha 90.000000
_cell_angle_beta 46.976897
_cell_angle_gamma 90.000000
_cell_volume 1896.984897
_symmetry_space_group_name_H-M "C 2/C"
_symmetry_group_IT_number 15
_symmetry_cell_setting 'monoclinic'
loop_
_space_group_symop_operation_xyz
x,y,z
-x,y,1/2-z
-x,-y,-z
x,-y,1/2+z
1/2+x,1/2+y,z
1/2-x,1/2+y,1/2-z
1/2-x,1/2-y,-z
1/2+x,1/2-y,1/2+z
loop_
_atom_site_type_symbol
_atom_site_label
_atom_site_fract_x
_atom_site_fract_y
_atom_site_fract_z
Si Si1 0.000000 0.568175 0.750000
Si Si2 0.736408 0.711421 0.779494
Si Si3 0.343414 0.168426 0.583888
Si Si4 0.474453 0.503551 0.114785
Si Si5 0.824684 0.384069 0.591935
Si Si6 0.768716 0.087684 0.077497
Si Si7 0.000000 0.117642 0.250000
O O1 0.106968 0.652935 0.753541
O O2 0.113021 0.480526 0.660672
O O3 0.764802 0.697241 0.688408
O O4 0.602558 0.625573 0.859942
O O5 0.671196 0.841773 0.830019
O O6 0.529155 0.173085 0.505556
O O7 0.268336 0.268748 0.566319
O O8 0.318153 0.026002 0.581582
O O9 0.381249 0.579004 0.097313
O O10 0.450773 0.543907 0.202834
O O11 0.646756 0.487391 0.017104
O O12 0.655857 0.329795 0.650187
#
# Coordination Sequence:
#
# PCOD9292471 Si02
#       7
#     4   8   8   8   8   8   4
#     4  10  25  41  74 106 134 183 245 292 350 424
#     4  11  22  46  67 100 140 186 232 294 351 427
#     4  11  24  43  71  98 142 194 223 292 362 423
#     4  10  22  43  72  96 146 186 234 292 363 415
#     4  11  25  43  66 104 142 183 238 285 358 425
#     4  10  22  46  70 104 138 190 237 296 356 426
#     4  12  23  43  66 108 138 187 235 300 342 422
#
# _framework density 25.303311999999998
#
# number of rings (size 3 to 8) (size 9 to 14) (size 15 to 20)
#    0.000    1.333    3.333    1.500    4.667    0.667 
#    0.000    3.333    0.000    0.000    0.000    0.000 
#    0.000    0.000    0.000    0.000    0.000    0.000 
#
# Total GULP energy -133802.908640 kJ/mol
# GULP energy per Si atom -5575.121193 kJ/mol
# Density = 2.524572 g / cm^3
# Si number density = 25.303312 Si / 1000 Ang^3
#
#
#
# Elastic Constant Matrix: (Units=GPa)
#
#
# Indices 1 2 3 4 5 6 
#
# 1 55.1040 -8.6608 22.8324 0.0000 11.3591 0.0000
# 2 -8.6608 73.6994 23.3400 0.0000 -0.3667 0.0000
# 3 22.8324 23.3400 144.1459 0.0000 -27.8251 0.0000
# 4 0.0000 0.0000 0.0000 29.0555 0.0000 0.7029
# 5 11.3591 -0.3667 -27.8251 0.0000 58.2338 0.0000
# 6 0.0000 0.0000 0.0000 0.7029 0.0000 7.4951
#
#
#
# Elastic Compliance Matrix: (Units=1/GPa)
#
#
# Indices 1 2 3 4 5 6 
#
# 1 0.022660 0.004426 -0.005677 0.000000 -0.007105 0.000000
# 2 0.004426 0.015233 -0.003653 0.000000 -0.002513 0.000000
# 3 -0.005677 -0.003653 0.009515 0.000000 0.005631 0.000000
# 4 0.000000 0.000000 0.000000 0.034495 0.000000 -0.003235
# 5 -0.007105 -0.002513 0.005631 0.000000 0.021233 0.000000
# 6 0.000000 0.000000 0.000000 -0.003235 0.000000 0.133723
#
#
# Mechanical properties :
#
#
# Convention : Reuss Voigt Hill
#
# Bulk Modulus (GPa) = 26.59616 38.66359 32.62988
# Shear Modulus (GPa) = 19.29002 34.65272 26.97137
#
# Velocity S-wave (km/s) = 2.76407 3.70468 3.26839
# Velocity P-wave (km/s) = 4.55198 5.79765 5.21216
#
# Compressibility (1/GPa) = 0.03759941
#
# Stress axis : x y z
#
# Youngs Moduli (GPa) = 44.13041 65.64726 105.09641
#
# Poissons Ratio (x) = -0.29053 0.59667
# Poissons Ratio (y) = -0.19530 0.38387
# Poissons Ratio (z) = 0.25055 0.23978
#
# Static dielectric constant tensor:
#      x y z
#    x 2.241760 0.000000 0.019700 
#    y 0.000000 2.194400 0.000000 
#    z 0.019700 0.000000 1.924250 
# 
# From -- ./inp_files/237451.got.cif
#   From: 2010.05.17/outbox.cif.g08.bks.cpg/sg15_119_cif.got.tgz:237451.got - 2010.06.03 18:47:42.
