data_PCOD9292559
_publ_section_title
;
Structure prediction by ZEFSAII (Michael W. Deem and Ramdas Pophale) SiO2 
 PCOD9292559
Probable space group: C 2/C
;
_chemical_formula_sum "Si O2"
_cell_formula_units_Z 48
_cell_length_a 25.682042
_cell_length_b 5.444329
_cell_length_c 22.688625
_cell_angle_alpha 90.000000
_cell_angle_beta 42.777981
_cell_angle_gamma 90.000000
_cell_volume 2154.535871
_symmetry_space_group_name_H-M "C 2/C"
_symmetry_group_IT_number 15
_symmetry_cell_setting 'monoclinic'
loop_
_space_group_symop_operation_xyz
x,y,z
-x,y,1/2-z
-x,-y,-z
x,-y,1/2+z
1/2+x,1/2+y,z
1/2-x,1/2+y,1/2-z
1/2-x,1/2-y,-z
1/2+x,1/2-y,1/2+z
loop_
_atom_site_type_symbol
_atom_site_label
_atom_site_fract_x
_atom_site_fract_y
_atom_site_fract_z
Si Si1 0.254779 0.577013 0.319555
Si Si2 0.494319 0.851982 0.619555
Si Si3 0.370982 0.622839 0.643759
Si Si4 0.519792 0.673167 0.165124
Si Si5 0.696535 0.693445 0.989317
Si Si6 0.143178 0.199866 0.448458
O O1 0.339194 0.549020 0.223112
O O2 0.203310 0.742880 0.320318
O O3 0.238027 0.672199 0.399579
O O4 0.213237 0.314460 0.355497
O O5 0.431473 0.805699 0.621829
O O6 0.503475 0.590471 0.647042
O O7 0.577792 0.889848 0.520716
O O8 0.476498 0.090988 0.673200
O O9 0.399323 0.483284 0.561653
O O10 0.500000 0.647872 0.250000
O O11 0.609400 0.745913 0.082334
O O12 0.750000 0.750000 0.000000
O O13 0.681233 0.423627 0.974126
#
# Coordination Sequence:
#
# PCOD9292559 Si02
#       6
#     8   8   8   8   8   8
#     4  11  22  41  64  97 135 165 226 274 326 403
#     4  11  25  44  69  97 132 179 218 274 338 391
#     4  11  24  38  67  97 132 175 215 273 335 396
#     4  11  25  46  66  99 134 171 230 274 321 404
#     4  10  24  43  67  94 130 181 218 275 337 390
#     4  10  22  44  62  96 133 168 222 272 323 405
#
# _framework density 22.278579000000001
#
# number of rings (size 3 to 8) (size 9 to 14) (size 15 to 20)
#    0.000    1.333    3.333    1.000    4.667    2.667 
#    0.000    0.000    0.000    0.000    0.000    0.000 
#    0.000    0.000    0.000    0.000    0.000    0.000 
#
# Total GULP energy -133834.353168 kJ/mol
# GULP energy per Si atom -5576.431382 kJ/mol
# Density = 2.222787 g / cm^3
# Si number density = 22.278579 Si / 1000 Ang^3
#
#
#
# Elastic Constant Matrix: (Units=GPa)
#
#
# Indices 1 2 3 4 5 6 
#
# 1 90.6860 22.4548 41.0582 -0.0296 25.3636 -0.1130
# 2 22.4548 56.4440 6.2793 0.0319 7.1999 -0.1314
# 3 41.0582 6.2793 89.0655 0.0023 21.0261 -0.0036
# 4 -0.0296 0.0319 0.0023 22.6369 0.0083 -6.2423
# 5 25.3636 7.1999 21.0261 0.0083 24.1916 0.0063
# 6 -0.1130 -0.1314 -0.0036 -6.2423 0.0063 -6.0651
#
#
#
# Elastic Compliance Matrix: (Units=1/GPa)
#
#
# Indices 1 2 3 4 5 6 
#
# 1 0.018215 -0.004999 -0.004891 -0.000024 -0.013359 -0.000218
# 2 -0.004999 0.019787 0.001337 -0.000099 -0.001810 -0.000236
# 3 -0.004891 0.001337 0.015439 0.000004 -0.008689 0.000040
# 4 -0.000024 -0.000099 0.000004 0.034410 0.000048 -0.035413
# 5 -0.013359 -0.001810 -0.008689 0.000048 0.063433 0.000310
# 6 -0.000218 -0.000236 0.000040 -0.035413 0.000310 -0.128421
#
#
# Mechanical properties :
#
#
# Convention : Reuss Voigt Hill
#
# Bulk Modulus (GPa) = 27.52145 41.75334 34.63739
# Shear Modulus (GPa) = 96.00147 19.24623 57.62385
#
# Velocity S-wave (km/s) = 6.57152 2.94239 5.09130
# Velocity P-wave (km/s) = 8.36421 5.50688 7.08116
#
# Compressibility (1/GPa) = 0.03633530
#
# Stress axis : x y z
#
# Youngs Moduli (GPa) = 54.89923 50.53831 64.76952
#
# Poissons Ratio (x) = 0.25263 0.31678
# Poissons Ratio (y) = 0.27443 -0.08657
# Poissons Ratio (z) = 0.26851 -0.06755
#
# Static dielectric constant tensor:
#      x y z
#    x 1.871550 -0.000140 -0.055950 
#    y -0.000140 1.921010 0.000120 
#    z -0.055950 0.000120 1.879290 
# 
# From -- ./inp_files/217797.got.cif
#   From: 2010.05.17/outbox.cif.g08.bks.cpg/sg15_109_cif.got.tgz:217797.got - 2010.06.03 18:47:42.
