data_PCOD9292762
_publ_section_title
;
Structure prediction by ZEFSAII (Michael W. Deem and Ramdas Pophale) SiO2 
 PCOD9292762
Probable space group: C 2/C
;
_chemical_formula_sum "Si O2"
_cell_formula_units_Z 48
_cell_length_a 11.454726
_cell_length_b 20.886214
_cell_length_c 11.545094
_cell_angle_alpha 90.000000
_cell_angle_beta 56.319700
_cell_angle_gamma 90.000000
_cell_volume 2298.480529
_symmetry_space_group_name_H-M "C 2/C"
_symmetry_group_IT_number 15
_symmetry_cell_setting 'monoclinic'
loop_
_space_group_symop_operation_xyz
x,y,z
-x,y,1/2-z
-x,-y,-z
x,-y,1/2+z
1/2+x,1/2+y,z
1/2-x,1/2+y,1/2-z
1/2-x,1/2-y,-z
1/2+x,1/2-y,1/2+z
loop_
_atom_site_type_symbol
_atom_site_label
_atom_site_fract_x
_atom_site_fract_y
_atom_site_fract_z
Si Si1 0.430881 0.899063 0.668670
Si Si2 0.710663 0.036624 0.460878
Si Si3 0.640626 0.405666 0.118279
Si Si4 0.500000 0.387688 0.750000
Si Si5 0.000000 0.391087 0.250000
Si Si6 0.354395 0.672698 0.114861
Si Si7 0.358370 0.175843 0.613614
O O1 0.500000 0.921340 0.750000
O O2 0.372140 0.953950 0.615355
O O3 0.299846 0.853347 0.769097
O O4 0.539970 0.856160 0.537294
O O5 0.612617 0.067627 0.613832
O O6 0.860193 0.072783 0.362527
O O7 0.751331 0.963507 0.462098
O O8 0.500000 0.433677 0.250000
O O9 0.709017 0.356234 0.170563
O O10 0.607209 0.366789 0.020855
O O11 0.544243 0.345792 0.835754
O O12 0.083135 0.346695 0.295109
O O13 0.353873 0.748506 0.099694
#
# Coordination Sequence:
#
# PCOD9292762 Si02
#       7
#     8   8   8   4   4   8   8
#     4  10  22  44  67  97 132 180 219 278 340 388
#     4  10  24  46  68 100 136 173 231 274 338 400
#     4  12  27  43  69 100 134 178 224 281 335 400
#     4  10  23  46  68  98 135 182 222 280 336 390
#     4  10  25  44  74  98 135 180 222 286 328 400
#     4  11  25  42  71  95 137 180 221 278 331 402
#     4  11  25  44  65 104 133 175 229 272 336 400
#
# _framework density 20.883361000000001
#
# number of rings (size 3 to 8) (size 9 to 14) (size 15 to 20)
#    0.000    1.333    2.500    1.000    4.667    7.333 
#    1.500    5.000    0.000    0.000    0.000    0.000 
#    0.000    0.000    0.000    0.000    0.000    0.000 
#
# Total GULP energy -134269.983726 kJ/mol
# GULP energy per Si atom -5594.582655 kJ/mol
# Density = 2.083583 g / cm^3
# Si number density = 20.883361 Si / 1000 Ang^3
#
#
#
# Elastic Constant Matrix: (Units=GPa)
#
#
# Indices 1 2 3 4 5 6 
#
# 1 115.2491 22.5880 44.8837 0.0000 8.9431 0.0000
# 2 22.5880 97.2159 23.9418 0.0000 -9.8773 0.0000
# 3 44.8837 23.9418 110.8487 0.0000 -5.8212 0.0000
# 4 0.0000 0.0000 0.0000 17.6063 0.0000 -7.1915
# 5 8.9431 -9.8773 -5.8212 0.0000 36.7536 0.0000
# 6 0.0000 0.0000 0.0000 -7.1915 0.0000 14.6546
#
#
#
# Elastic Compliance Matrix: (Units=1/GPa)
#
#
# Indices 1 2 3 4 5 6 
#
# 1 0.011004 -0.001903 -0.004247 0.000000 -0.003862 0.000000
# 2 -0.001903 0.011439 -0.001527 0.000000 0.003295 0.000000
# 3 -0.004247 -0.001527 0.011197 0.000000 0.002396 0.000000
# 4 0.000000 0.000000 0.000000 0.071037 0.000000 0.034861
# 5 -0.003862 0.003295 0.002396 0.000000 0.029413 0.000000
# 6 0.000000 0.000000 0.000000 0.034861 0.000000 0.085345
#
#
# Mechanical properties :
#
#
# Convention : Reuss Voigt Hill
#
# Bulk Modulus (GPa) = 54.68967 56.23786 55.46377
# Shear Modulus (GPa) = 20.75678 29.26291 25.00984
#
# Velocity S-wave (km/s) = 3.15610 3.74739 3.46439
# Velocity P-wave (km/s) = 6.28699 6.76106 6.52833
#
# Compressibility (1/GPa) = 0.01828499
#
# Stress axis : x y z
#
# Youngs Moduli (GPa) = 90.87959 87.41658 89.31170
#
# Poissons Ratio (x) = 0.16636 0.37933
# Poissons Ratio (y) = 0.17295 0.13639
# Poissons Ratio (z) = 0.38599 0.13350
#
# Static dielectric constant tensor:
#      x y z
#    x 1.759380 0.000000 -0.027930 
#    y 0.000000 1.708940 0.000000 
#    z -0.027930 0.000000 1.755700 
# 
# From -- ./inp_files/88803.got.cif
#   From: 2010.05.17/outbox.cif.g08.bks.cpg/sg15_45_cif.got.tgz:88803.got - 2010.06.03 18:47:42.
