data_PCOD9292880
_publ_section_title
;
Structure prediction by ZEFSAII (Michael W. Deem and Ramdas Pophale) SiO2 
 PCOD9292880
Probable space group: C 2/C
;
_chemical_formula_sum "Si O2"
_cell_formula_units_Z 56
_cell_length_a 14.194858
_cell_length_b 16.351365
_cell_length_c 11.310317
_cell_angle_alpha 90.000000
_cell_angle_beta 104.295351
_cell_angle_gamma 90.000000
_cell_volume 2543.897750
_symmetry_space_group_name_H-M "C 2/C"
_symmetry_group_IT_number 15
_symmetry_cell_setting 'monoclinic'
loop_
_space_group_symop_operation_xyz
x,y,z
-x,y,1/2-z
-x,-y,-z
x,-y,1/2+z
1/2+x,1/2+y,z
1/2-x,1/2+y,1/2-z
1/2-x,1/2-y,-z
1/2+x,1/2-y,1/2+z
loop_
_atom_site_type_symbol
_atom_site_label
_atom_site_fract_x
_atom_site_fract_y
_atom_site_fract_z
Si Si1 0.922759 0.509640 0.128085
Si Si2 0.937268 0.377465 0.929538
Si Si3 0.759525 0.155629 0.244197
Si Si4 0.002248 0.754162 0.607678
Si Si5 0.786607 0.945233 0.977257
Si Si6 0.783538 0.699440 0.895156
Si Si7 0.422286 0.420368 0.627934
O O1 0.000000 0.479873 0.250000
O O2 0.963516 0.600595 0.109341
O O3 0.932176 0.449638 0.021354
O O4 0.807352 0.509044 0.106659
O O5 0.845408 0.381509 0.815667
O O6 0.928020 0.296775 0.005190
O O7 0.807364 0.116731 0.376683
O O8 0.741839 0.251347 0.268772
O O9 0.834398 0.130161 0.165020
O O10 0.102751 0.713959 0.594492
O O11 0.000000 0.743834 0.750000
O O12 0.980395 0.849255 0.577391
O O13 0.750143 0.892223 0.080696
O O14 0.871590 0.006959 0.040085
O O15 0.750000 0.750000 0.000000
O O16 0.500000 0.451404 0.750000
#
# Coordination Sequence:
#
# PCOD9292880 Si02
#       7
#     8   8   8   8   8   8   8
#     4  11  21  39  64  98 138 179 229 295 356 416
#     4  11  23  37  64 102 133 178 240 288 354 427
#     4  11  22  44  66  96 140 184 232 296 354 424
#     4  11  22  44  68  97 144 184 232 298 361 424
#     4  11  23  43  71 101 138 183 238 295 357 425
#     4  10  22  44  69  93 133 187 235 289 353 423
#     4  11  24  46  69 102 144 185 235 291 365 429
#
# _framework density 22.013463000000002
#
# number of rings (size 3 to 8) (size 9 to 14) (size 15 to 20)
#    0.000    1.143    7.143    0.429    0.000    1.143 
#    5.143    0.000    0.000    0.000    0.000    0.000 
#    0.000    0.000    0.000    0.000    0.000    0.000 
#
# Total GULP energy -155939.766257 kJ/mol
# GULP energy per Si atom -5569.277366 kJ/mol
# Density = 2.196336 g / cm^3
# Si number density = 22.013463 Si / 1000 Ang^3
#
#
#
# Elastic Constant Matrix: (Units=GPa)
#
#
# Indices 1 2 3 4 5 6 
#
# 1 78.6761 20.9943 20.0885 0.0000 15.0860 0.0000
# 2 20.9943 96.6342 54.1173 0.0000 19.3401 0.0000
# 3 20.0885 54.1173 94.7507 0.0000 29.4184 0.0000
# 4 0.0000 0.0000 0.0000 37.7907 0.0000 -0.1119
# 5 15.0860 19.3401 29.4184 0.0000 39.2898 0.0000
# 6 0.0000 0.0000 0.0000 -0.1119 0.0000 27.3822
#
#
#
# Elastic Compliance Matrix: (Units=1/GPa)
#
#
# Indices 1 2 3 4 5 6 
#
# 1 0.014155 -0.001896 -0.000678 0.000000 -0.003994 0.000000
# 2 -0.001896 0.015519 -0.008229 0.000000 -0.000749 0.000000
# 3 -0.000678 -0.008229 0.018318 0.000000 -0.009404 0.000000
# 4 0.000000 0.000000 0.000000 0.026462 0.000000 0.000108
# 5 -0.003994 -0.000749 -0.009404 0.000000 0.034396 0.000000
# 6 0.000000 0.000000 0.000000 0.000108 0.000000 0.036520
#
#
# Mechanical properties :
#
#
# Convention : Reuss Voigt Hill
#
# Bulk Modulus (GPa) = 37.89961 51.16234 44.53097
# Shear Modulus (GPa) = 28.44609 32.54994 30.49802
#
# Velocity S-wave (km/s) = 3.59864 3.84948 3.72617
# Velocity P-wave (km/s) = 5.87544 6.56124 6.22779
#
# Compressibility (1/GPa) = 0.02638550
#
# Stress axis : x y z
#
# Youngs Moduli (GPa) = 70.64476 64.43892 54.59239
#
# Poissons Ratio (x) = 0.12219 0.03701
# Poissons Ratio (y) = 0.13396 0.44923
# Poissons Ratio (z) = 0.04789 0.53025
#
# Static dielectric constant tensor:
#      x y z
#    x 1.891140 0.000000 -0.030360 
#    y 0.000000 1.893870 0.000000 
#    z -0.030360 0.000000 1.809280 
# 
# From -- ./inp_files/98406.got.cif
#   From: 2010.05.17/outbox.cif.g08.bks.cpg/sg15_50_cif.got.tgz:98406.got - 2010.06.03 18:47:42.
