data_PCOD9292821
_publ_section_title
;
Structure prediction by ZEFSAII (Michael W. Deem and Ramdas Pophale) SiO2 
 PCOD9292821
Probable space group: C 2/C
;
_chemical_formula_sum "Si O2"
_cell_formula_units_Z 44
_cell_length_a 13.521773
_cell_length_b 31.469295
_cell_length_c 14.558064
_cell_angle_alpha 90.000000
_cell_angle_beta 160.103995
_cell_angle_gamma 90.000000
_cell_volume 2108.162471
_symmetry_space_group_name_H-M "C 2/C"
_symmetry_group_IT_number 15
_symmetry_cell_setting 'monoclinic'
loop_
_space_group_symop_operation_xyz
x,y,z
-x,y,1/2-z
-x,-y,-z
x,-y,1/2+z
1/2+x,1/2+y,z
1/2-x,1/2+y,1/2-z
1/2-x,1/2-y,-z
1/2+x,1/2-y,1/2+z
loop_
_atom_site_type_symbol
_atom_site_label
_atom_site_fract_x
_atom_site_fract_y
_atom_site_fract_z
Si Si1 0.272312 0.892430 0.125963
Si Si2 0.850833 0.366693 0.878754
Si Si3 0.792461 0.103768 0.445643
Si Si4 0.000000 0.524469 0.750000
Si Si5 0.077604 0.721269 0.501993
Si Si6 0.500000 0.322594 0.250000
Si Si7 0.000000 0.966848 0.250000
O O1 0.500000 0.874293 0.250000
O O2 0.392204 0.882878 0.331862
O O3 0.294704 0.943014 0.127188
O O4 0.953573 0.873806 0.835102
O O5 0.800843 0.392335 0.740588
O O6 0.922525 0.318399 0.914396
O O7 0.500000 0.100835 0.250000
O O8 0.981135 0.063931 0.644716
O O9 0.947296 0.146635 0.616981
O O10 0.787370 0.495619 0.504005
O O11 0.216870 0.704350 0.528188
O O12 0.855124 0.759652 0.295793
#
# Coordination Sequence:
#
# PCOD9292821 Si02
#       7
#     8   8   8   4   8   4   4
#     4  10  24  44  74  91 120 169 235 279 332 381
#     4  12  23  44  68  97 128 174 229 259 322 412
#     4  11  23  39  65  97 139 189 209 249 316 393
#     4  10  22  44  68  95 122 172 218 289 332 370
#     4  12  25  39  63  98 138 172 214 273 319 374
#     4  11  22  40  60  93 142 192 226 235 300 408
#     4  11  22  40  66  94 146 168 206 272 330 376
#
# _framework density 20.871257
#
# number of rings (size 3 to 8) (size 9 to 14) (size 15 to 20)
#    0.545    0.364    2.727    5.455    2.545    0.000 
#    0.000    5.455    0.000   10.909    0.000    0.000 
#    0.000    0.000    0.000    0.000    0.000    0.000 
#
# Total GULP energy -122962.467908 kJ/mol
# GULP energy per Si atom -5589.203087 kJ/mol
# Density = 2.082375 g / cm^3
# Si number density = 20.871257 Si / 1000 Ang^3
#
#
#
# Elastic Constant Matrix: (Units=GPa)
#
#
# Indices 1 2 3 4 5 6 
#
# 1 54.2290 26.0618 4.6102 -0.0019 3.1989 -0.0003
# 2 26.0618 118.3440 33.6513 0.0011 7.5603 0.0002
# 3 4.6102 33.6513 96.9758 -0.0052 5.8578 0.0006
# 4 -0.0019 0.0011 -0.0052 104.4240 -0.0027 -12.0280
# 5 3.1989 7.5603 5.8578 -0.0027 46.6355 0.0000
# 6 -0.0003 0.0002 0.0006 -12.0280 0.0000 12.5195
#
#
#
# Elastic Compliance Matrix: (Units=1/GPa)
#
#
# Indices 1 2 3 4 5 6 
#
# 1 0.020687 -0.004706 0.000694 0.000001 -0.000743 0.000001
# 2 -0.004706 0.010504 -0.003363 0.000000 -0.000958 -0.000001
# 3 0.000694 -0.003363 0.011503 0.000001 -0.000947 0.000000
# 4 0.000001 0.000000 0.000001 0.010768 0.000001 0.010345
# 5 -0.000743 -0.000958 -0.000947 0.000001 0.021768 0.000001
# 6 0.000001 -0.000001 0.000000 0.010345 0.000001 0.089815
#
#
# Mechanical properties :
#
#
# Convention : Reuss Voigt Hill
#
# Bulk Modulus (GPa) = 35.78538 44.24392 40.01465
# Shear Modulus (GPa) = 26.43987 46.39749 36.41868
#
# Velocity S-wave (km/s) = 3.56309 4.72002 4.18176
# Velocity P-wave (km/s) = 5.84041 7.13788 6.52149
#
# Compressibility (1/GPa) = 0.02794437
#
# Stress axis : x y z
#
# Youngs Moduli (GPa) = 48.34053 95.20417 86.93268
#
# Poissons Ratio (x) = 0.44799 -0.06036
# Poissons Ratio (y) = 0.22747 0.29238
# Poissons Ratio (z) = -0.03356 0.32020
#
# Static dielectric constant tensor:
#      x y z
#    x 1.766760 0.000000 0.018290 
#    y 0.000000 1.757610 0.000000 
#    z 0.018290 0.000000 1.768890 
# 
# From -- ./inp_files/157576.got.cif
#   From: 2010.05.17/outbox.cif.g08.bks.cpg/sg15_79_cif.got.tgz:157576.got - 2010.06.03 18:47:42.
