data_PCOD9292478
_publ_section_title
;
Structure prediction by ZEFSAII (Michael W. Deem and Ramdas Pophale) SiO2 
 PCOD9292478
Probable space group: C 2/C
;
_chemical_formula_sum "Si O2"
_cell_formula_units_Z 48
_cell_length_a 20.923293
_cell_length_b 13.306138
_cell_length_c 19.023463
_cell_angle_alpha 90.000000
_cell_angle_beta 159.051012
_cell_angle_gamma 90.000000
_cell_volume 1893.617082
_symmetry_space_group_name_H-M "C 2/C"
_symmetry_group_IT_number 15
_symmetry_cell_setting 'monoclinic'
loop_
_space_group_symop_operation_xyz
x,y,z
-x,y,1/2-z
-x,-y,-z
x,-y,1/2+z
1/2+x,1/2+y,z
1/2-x,1/2+y,1/2-z
1/2-x,1/2-y,-z
1/2+x,1/2-y,1/2+z
loop_
_atom_site_type_symbol
_atom_site_label
_atom_site_fract_x
_atom_site_fract_y
_atom_site_fract_z
Si Si1 0.651911 0.873627 0.062757
Si Si2 0.823112 0.883870 0.383514
Si Si3 0.661209 0.458399 0.807200
Si Si4 0.000000 0.175444 0.250000
Si Si5 0.210737 0.325311 0.855745
Si Si6 0.500000 0.684266 0.750000
Si Si7 0.039354 0.689158 0.927671
O O1 0.740969 0.914489 0.224999
O O2 0.696620 0.755716 0.100356
O O3 0.751076 0.932666 0.101922
O O4 0.439469 0.888542 0.838352
O O5 0.924499 0.776490 0.478565
O O6 0.652292 0.860229 0.256995
O O7 0.971173 0.953481 0.571854
O O8 0.641827 0.400643 0.861079
O O9 0.804008 0.391056 0.911240
O O10 0.047378 0.248391 0.363022
O O11 0.100659 0.259964 0.800108
O O12 0.363781 0.375773 0.060365
#
# Coordination Sequence:
#
# PCOD9292478 Si02
#       7
#     8   8   8   4   8   4   8
#     4  11  23  42  61 104 135 191 237 286 356 424
#     4  11  22  41  66  97 144 185 232 282 364 428
#     4  11  25  41  67 102 142 181 236 307 343 425
#     4  10  22  43  73 102 140 178 238 292 371 423
#     4   9  19  37  67  84 134 178 232 291 346 420
#     4   8  16  37  61  88 110 174 232 280 337 399
#     4  11  22  41  71 100 133 192 226 303 364 423
#
# _framework density 25.348313999999998
#
# number of rings (size 3 to 8) (size 9 to 14) (size 15 to 20)
#    0.000    1.667    3.333    2.000    2.333    1.333 
#    6.000    5.000    0.000    0.000    0.000    0.000 
#    0.000    0.000    0.000    0.000    0.000    0.000 
#
# Total GULP energy -134240.189980 kJ/mol
# GULP energy per Si atom -5593.341249 kJ/mol
# Density = 2.529062 g / cm^3
# Si number density = 25.348314 Si / 1000 Ang^3
#
#
#
# Elastic Constant Matrix: (Units=GPa)
#
#
# Indices 1 2 3 4 5 6 
#
# 1 70.8304 16.2739 38.1872 0.0016 -3.1480 0.0008
# 2 16.2739 83.4182 38.7296 0.0086 -4.9193 0.0060
# 3 38.1872 38.7296 186.0866 0.0040 10.3141 0.0030
# 4 0.0016 0.0086 0.0040 12.0629 0.0022 4.8675
# 5 -3.1480 -4.9193 10.3141 0.0022 36.2388 0.0023
# 6 0.0008 0.0060 0.0030 4.8675 0.0023 35.4106
#
#
#
# Elastic Compliance Matrix: (Units=1/GPa)
#
#
# Indices 1 2 3 4 5 6 
#
# 1 0.016260 -0.001601 -0.003119 0.000000 0.002083 0.000000
# 2 -0.001601 0.013679 -0.002655 -0.000009 0.002474 -0.000001
# 3 -0.003119 -0.002655 0.006707 0.000001 -0.002540 0.000000
# 4 0.000000 -0.000009 0.000001 0.087767 -0.000006 -0.012064
# 5 0.002083 0.002474 -0.002540 -0.000006 0.028834 -0.000001
# 6 0.000000 -0.000001 0.000000 -0.012064 -0.000001 0.029898
#
#
# Mechanical properties :
#
#
# Convention : Reuss Voigt Hill
#
# Bulk Modulus (GPa) = 45.67219 58.52408 52.09813
# Shear Modulus (GPa) = 24.36691 33.21875 28.79283
#
# Velocity S-wave (km/s) = 3.10382 3.62400 3.37395
# Velocity P-wave (km/s) = 5.55895 6.37567 5.98127
#
# Compressibility (1/GPa) = 0.02189516
#
# Stress axis : x y z
#
# Youngs Moduli (GPa) = 61.49958 73.10513 149.08969
#
# Poissons Ratio (x) = 0.11706 0.46501
# Poissons Ratio (y) = 0.09848 0.39590
# Poissons Ratio (z) = 0.19182 0.19413
#
# Static dielectric constant tensor:
#      x y z
#    x 2.027670 0.000000 -0.002340 
#    y 0.000000 1.986570 -0.000010 
#    z -0.002340 -0.000010 2.027870 
# 
# From -- ./inp_files/255754.got.cif
#   From: 2010.05.17/outbox.cif.g08.bks.cpg/sg15_128_cif.got.tgz:255754.got - 2010.06.03 18:47:42.
