data_PCOD9292336
_publ_section_title
;
Structure prediction by ZEFSAII (Michael W. Deem and Ramdas Pophale) SiO2 
 PCOD9292336
Probable space group: C 2/C
;
_chemical_formula_sum "Si O2"
_cell_formula_units_Z 48
_cell_length_a 9.226301
_cell_length_b 16.546723
_cell_length_c 15.615431
_cell_angle_alpha 90.000000
_cell_angle_beta 97.569647
_cell_angle_gamma 90.000000
_cell_volume 2363.155662
_symmetry_space_group_name_H-M "C 2/C"
_symmetry_group_IT_number 15
_symmetry_cell_setting 'monoclinic'
loop_
_space_group_symop_operation_xyz
x,y,z
-x,y,1/2-z
-x,-y,-z
x,-y,1/2+z
1/2+x,1/2+y,z
1/2-x,1/2+y,1/2-z
1/2-x,1/2-y,-z
1/2+x,1/2-y,1/2+z
loop_
_atom_site_type_symbol
_atom_site_label
_atom_site_fract_x
_atom_site_fract_y
_atom_site_fract_z
Si Si1 0.740085 0.154164 0.514632
Si Si2 0.529901 0.315521 0.341369
Si Si3 0.976442 0.565866 0.572027
Si Si4 0.775025 0.346132 0.677485
Si Si5 0.000000 0.527478 0.250000
Si Si6 0.000000 0.227245 0.250000
Si Si7 0.724611 0.200767 0.909889
O O1 0.750000 0.250000 0.500000
O O2 0.876140 0.133152 0.584681
O O3 0.594549 0.133602 0.554735
O O4 0.741165 0.118690 0.419795
O O5 0.500000 0.359459 0.250000
O O6 0.624853 0.235081 0.324691
O O7 0.377112 0.293002 0.372012
O O8 0.005587 0.526550 0.665957
O O9 0.821513 0.610746 0.564879
O O10 0.000000 0.500000 0.500000
O O11 0.861752 0.412500 0.737756
O O12 0.621645 0.322455 0.706924
O O13 0.097851 0.273111 0.330984
O O14 0.750000 0.250000 0.000000
#
# Coordination Sequence:
#
# PCOD9292336 Si02
#       7
#     8   8   8   8   4   4   8
#     4  10  22  43  69  99 135 182 234 293 347 415
#     4  11  21  39  69  98 137 175 239 292 352 400
#     4  12  27  45  72 105 143 188 237 288 366 436
#     4  11  21  42  67 102 140 189 224 298 353 424
#     4  12  25  44  70  96 149 190 230 282 373 428
#     4  12  23  40  74 108 137 180 260 282 351 424
#     4  12  25  43  71 106 140 183 239 300 345 423
#
# _framework density 20.311824000000001
#
# number of rings (size 3 to 8) (size 9 to 14) (size 15 to 20)
#    0.000    0.667    4.167    5.500    4.667    0.000 
#    0.000    2.500    0.000    0.000    0.000    0.000 
#    0.000    0.000    0.000    0.000    0.000    0.000 
#
# Total GULP energy -133975.042766 kJ/mol
# GULP energy per Si atom -5582.293449 kJ/mol
# Density = 2.026559 g / cm^3
# Si number density = 20.311824 Si / 1000 Ang^3
#
#
#
# Elastic Constant Matrix: (Units=GPa)
#
#
# Indices 1 2 3 4 5 6 
#
# 1 122.0763 11.8092 27.5100 0.0000 -30.0527 0.0000
# 2 11.8092 47.3096 5.5651 0.0000 -12.5906 0.0000
# 3 27.5100 5.5651 122.5057 0.0000 -5.4783 0.0000
# 4 0.0000 0.0000 0.0000 32.9299 0.0000 9.2272
# 5 -30.0527 -12.5906 -5.4783 0.0000 48.6517 0.0000
# 6 0.0000 0.0000 0.0000 9.2272 0.0000 22.2111
#
#
#
# Elastic Compliance Matrix: (Units=1/GPa)
#
#
# Indices 1 2 3 4 5 6 
#
# 1 0.010152 -0.000742 -0.001984 0.000000 0.005855 0.000000
# 2 -0.000742 0.022828 -0.000630 0.000000 0.005378 0.000000
# 3 -0.001984 -0.000630 0.008618 0.000000 -0.000418 0.000000
# 4 0.000000 0.000000 0.000000 0.034368 0.000000 -0.014278
# 5 0.005855 0.005378 -0.000418 0.000000 0.025516 0.000000
# 6 0.000000 0.000000 0.000000 -0.014278 0.000000 0.050954
#
#
# Mechanical properties :
#
#
# Convention : Reuss Voigt Hill
#
# Bulk Modulus (GPa) = 28.66501 42.40671 35.53586
# Shear Modulus (GPa) = 29.27775 37.22567 33.25171
#
# Velocity S-wave (km/s) = 3.80071 4.28566 4.05045
# Velocity P-wave (km/s) = 5.77959 6.73887 6.27758
#
# Compressibility (1/GPa) = 0.03488574
#
# Stress axis : x y z
#
# Youngs Moduli (GPa) = 98.50226 43.80576 116.03133
#
# Poissons Ratio (x) = 0.03252 0.23023
# Poissons Ratio (y) = 0.07313 0.07308
# Poissons Ratio (z) = 0.19545 0.02759
#
# Static dielectric constant tensor:
#      x y z
#    x 1.647900 0.000000 -0.025340 
#    y 0.000000 1.749590 0.000000 
#    z -0.025340 0.000000 1.722440 
# 
# From -- ./inp_files/134930.got.cif
#   From: 2010.05.17/outbox.cif.g08.bks.cpg/sg15_68_cif.got.tgz:134930.got - 2010.06.03 18:47:42.
