data_PCOD9292005
_publ_section_title
;
Structure prediction by ZEFSAII (Michael W. Deem and Ramdas Pophale) SiO2 
 PCOD9292005
Probable space group: C 2/C
;
_chemical_formula_sum "Si O2"
_cell_formula_units_Z 48
_cell_length_a 20.316346
_cell_length_b 15.931022
_cell_length_c 17.927026
_cell_angle_alpha 90.000000
_cell_angle_beta 18.740090
_cell_angle_gamma 90.000000
_cell_volume 1864.126302
_symmetry_space_group_name_H-M "C 2/C"
_symmetry_group_IT_number 15
_symmetry_cell_setting 'monoclinic'
loop_
_space_group_symop_operation_xyz
x,y,z
-x,y,1/2-z
-x,-y,-z
x,-y,1/2+z
1/2+x,1/2+y,z
1/2-x,1/2+y,1/2-z
1/2-x,1/2-y,-z
1/2+x,1/2-y,1/2+z
loop_
_atom_site_type_symbol
_atom_site_label
_atom_site_fract_x
_atom_site_fract_y
_atom_site_fract_z
Si Si1 0.538818 0.175987 0.850443
Si Si2 0.613741 0.666543 0.489312
Si Si3 0.937900 0.144539 0.125139
Si Si4 0.551428 0.909940 0.480912
Si Si5 0.500000 0.075146 0.750000
Si Si6 0.500000 0.248973 0.250000
Si Si7 0.654933 0.478282 0.206819
O O1 0.521926 0.275944 0.865010
O O2 0.598096 0.132877 0.709793
O O3 0.311077 0.140866 0.106305
O O4 0.648148 0.146886 0.810014
O O5 0.523605 0.668958 0.502017
O O6 0.562023 0.746412 0.593536
O O7 0.496402 0.592581 0.660556
O O8 0.845048 0.634563 0.230602
O O9 0.982536 0.051234 0.106940
O O10 0.500000 0.000000 0.500000
O O11 0.701699 0.934057 0.385902
O O12 0.686472 0.018259 0.521065
O O13 0.250000 0.250000 0.500000
#
# Coordination Sequence:
#
# PCOD9292005 Si02
#       7
#     8   8   8   8   4   4   8
#     4  10  23  38  68  98 138 184 235 304 386 465
#     4  11  27  44  76 106 142 202 252 322 391 464
#     4  10  23  43  66 103 135 193 249 313 385 473
#     4  11  22  44  71 105 142 195 253 313 386 474
#     4  10  22  43  65 100 144 184 232 316 390 453
#     4  12  34  55  77 122 166 214 270 342 412 485
#     4  11  24  44  72 101 145 186 252 312 377 477
#
# _framework density 25.749327000000001
#
# number of rings (size 3 to 8) (size 9 to 14) (size 15 to 20)
#    0.000    1.333    5.000    0.500   11.667    2.667 
#    0.000    0.833    0.000    0.000    0.000    0.000 
#    0.000    0.000    0.000    0.000    0.000    0.000 
#
# Total GULP energy -133753.821641 kJ/mol
# GULP energy per Si atom -5573.075902 kJ/mol
# Density = 2.569072 g / cm^3
# Si number density = 25.749327 Si / 1000 Ang^3
#
#
#
# Elastic Constant Matrix: (Units=GPa)
#
#
# Indices 1 2 3 4 5 6 
#
# 1 100.8789 27.5771 42.3799 0.0149 18.4274 -0.0085
# 2 27.5771 88.5240 15.8489 0.0380 -0.1138 -0.0092
# 3 42.3799 15.8489 103.6290 0.0322 8.6915 -0.0583
# 4 0.0149 0.0380 0.0322 43.2619 -0.0103 -0.5269
# 5 18.4274 -0.1138 8.6915 -0.0103 39.2210 0.0125
# 6 -0.0085 -0.0092 -0.0583 -0.5269 0.0125 26.2516
#
#
#
# Elastic Compliance Matrix: (Units=1/GPa)
#
#
# Indices 1 2 3 4 5 6 
#
# 1 0.013821 -0.003478 -0.004662 0.000000 -0.005471 -0.000004
# 2 -0.003478 0.012497 -0.000641 -0.000009 0.001812 0.000001
# 3 -0.004662 -0.000641 0.011688 -0.000006 -0.000402 0.000024
# 4 0.000000 -0.000009 -0.000006 0.023121 0.000007 0.000464
# 5 -0.005471 0.001812 -0.000402 0.000007 0.028161 -0.000015
# 6 -0.000004 0.000001 0.000024 0.000464 -0.000015 0.038102
#
#
# Mechanical properties :
#
#
# Convention : Reuss Voigt Hill
#
# Bulk Modulus (GPa) = 48.91141 51.62709 50.26925
# Shear Modulus (GPa) = 32.94531 35.56196 34.25364
#
# Velocity S-wave (km/s) = 3.58084 3.72032 3.65125
# Velocity P-wave (km/s) = 6.01107 6.20869 6.11068
#
# Compressibility (1/GPa) = 0.02044513
#
# Stress axis : x y z
#
# Youngs Moduli (GPa) = 72.35160 80.01950 85.55838
#
# Poissons Ratio (x) = 0.27832 0.39884
# Poissons Ratio (y) = 0.25165 0.05483
# Poissons Ratio (z) = 0.33727 0.05128
#
# Static dielectric constant tensor:
#      x y z
#    x 2.131940 0.000000 -0.084750 
#    y 0.000000 2.080180 0.000010 
#    z -0.084750 0.000010 2.140790 
# 
# From -- ./inp_files/216277.got.cif
#   From: 2010.05.17/outbox.cif.g08.bks.cpg/sg15_109_cif.got.tgz:216277.got - 2010.06.03 18:47:42.
