data_PCOD9292109
_publ_section_title
;
Structure prediction by ZEFSAII (Michael W. Deem and Ramdas Pophale) SiO2 
 PCOD9292109
Probable space group: C 2/C
;
_chemical_formula_sum "Si O2"
_cell_formula_units_Z 48
_cell_length_a 11.820780
_cell_length_b 21.346699
_cell_length_c 10.999894
_cell_angle_alpha 90.000000
_cell_angle_beta 131.370871
_cell_angle_gamma 90.000000
_cell_volume 2082.981880
_symmetry_space_group_name_H-M "C 2/C"
_symmetry_group_IT_number 15
_symmetry_cell_setting 'monoclinic'
loop_
_space_group_symop_operation_xyz
x,y,z
-x,y,1/2-z
-x,-y,-z
x,-y,1/2+z
1/2+x,1/2+y,z
1/2-x,1/2+y,1/2-z
1/2-x,1/2-y,-z
1/2+x,1/2-y,1/2+z
loop_
_atom_site_type_symbol
_atom_site_label
_atom_site_fract_x
_atom_site_fract_y
_atom_site_fract_z
Si Si1 0.326773 0.081684 0.328230
Si Si2 0.500000 0.260661 0.250000
Si Si3 0.690375 0.696299 0.105492
Si Si4 0.000000 0.519035 0.250000
Si Si5 0.168743 0.717304 0.827897
Si Si6 0.461482 0.484393 0.836992
Si Si7 0.237134 0.589403 0.956462
O O1 0.219450 0.126442 0.172966
O O2 0.467968 0.060764 0.347568
O O3 0.342859 0.112039 0.473238
O O4 0.217686 0.024720 0.286842
O O5 0.558482 0.297563 0.411601
O O6 0.353652 0.218344 0.172204
O O7 0.666993 0.741259 0.205170
O O8 0.142413 0.472348 0.356150
O O9 0.231743 0.646858 0.859551
O O10 0.000000 0.709998 0.750000
O O11 0.250000 0.750000 0.000000
O O12 0.500000 0.528865 0.750000
O O13 0.500000 0.500000 0.000000
O O14 0.588837 0.429853 0.903511
#
# Coordination Sequence:
#
# PCOD9292109 Si02
#       7
#     8   4   8   4   8   8   8
#     4  11  24  42  69  97 141 181 235 289 356 427
#     4  10  25  46  64  98 140 185 236 286 352 446
#     4  11  24  45  69 100 140 184 237 289 363 420
#     4  12  23  44  68 100 144 191 230 290 354 432
#     4  12  25  42  73 105 138 179 228 300 356 415
#     4  10  22  43  66  96 132 177 224 288 340 421
#     4  11  24  43  67 103 138 176 241 286 360 423
#
# _framework density 23.043887000000002
#
# number of rings (size 3 to 8) (size 9 to 14) (size 15 to 20)
#    0.000    1.000    4.167    2.000    4.667    0.000 
#    1.500    0.000    0.000    0.000    0.000    0.000 
#    0.000    0.000    0.000    0.000    0.000    0.000 
#
# Total GULP energy -133767.087520 kJ/mol
# GULP energy per Si atom -5573.628647 kJ/mol
# Density = 2.299144 g / cm^3
# Si number density = 23.043887 Si / 1000 Ang^3
#
#
#
# Elastic Constant Matrix: (Units=GPa)
#
#
# Indices 1 2 3 4 5 6 
#
# 1 114.8847 22.4424 20.6161 0.0000 -12.9424 0.0000
# 2 22.4424 53.1606 27.5005 0.0000 -7.1343 0.0000
# 3 20.6161 27.5005 133.6333 0.0000 -9.7498 0.0000
# 4 0.0000 0.0000 0.0000 69.0357 0.0000 -23.9845
# 5 -12.9424 -7.1343 -9.7498 0.0000 51.7442 0.0000
# 6 0.0000 0.0000 0.0000 -23.9845 0.0000 36.9062
#
#
#
# Elastic Compliance Matrix: (Units=1/GPa)
#
#
# Indices 1 2 3 4 5 6 
#
# 1 0.009713 -0.003525 -0.000640 0.000000 0.001823 0.000000
# 2 -0.003525 0.022562 -0.003992 0.000000 0.001477 0.000000
# 3 -0.000640 -0.003992 0.008468 0.000000 0.000885 0.000000
# 4 0.000000 0.000000 0.000000 0.018710 0.000000 0.012159
# 5 0.001823 0.001477 0.000885 0.000000 0.020152 0.000000
# 6 0.000000 0.000000 0.000000 0.012159 0.000000 0.034997
#
#
# Mechanical properties :
#
#
# Convention : Reuss Voigt Hill
#
# Bulk Modulus (GPa) = 40.93276 49.19962 45.06619
# Shear Modulus (GPa) = 35.95606 46.94518 41.45062
#
# Velocity S-wave (km/s) = 3.95439 4.51844 4.24579
# Velocity P-wave (km/s) = 6.21700 6.97270 6.60566
#
# Compressibility (1/GPa) = 0.02443031
#
# Stress axis : x y z
#
# Youngs Moduli (GPa) = 102.95314 44.32222 118.09277
#
# Poissons Ratio (x) = 0.15623 0.07559
# Poissons Ratio (y) = 0.36289 0.47137
# Poissons Ratio (z) = 0.06590 0.17691
#
# Static dielectric constant tensor:
#      x y z
#    x 1.944200 0.000000 -0.281250 
#    y 0.000000 1.955520 0.000000 
#    z -0.281250 0.000000 2.336960 
# 
# From -- ./inp_files/89813.got.cif
#   From: 2010.05.17/outbox.cif.g08.bks.cpg/sg15_45_cif.got.tgz:89813.got - 2010.06.03 18:47:42.
