data_PCOD9292860
_publ_section_title
;
Structure prediction by ZEFSAII (Michael W. Deem and Ramdas Pophale) SiO2 
 PCOD9292860
Probable space group: C 2/C
;
_chemical_formula_sum "Si O2"
_cell_formula_units_Z 36
_cell_length_a 9.698676
_cell_length_b 20.410518
_cell_length_c 7.925658
_cell_angle_alpha 90.000000
_cell_angle_beta 100.511302
_cell_angle_gamma 90.000000
_cell_volume 1542.595438
_symmetry_space_group_name_H-M "C 2/C"
_symmetry_group_IT_number 15
_symmetry_cell_setting 'monoclinic'
loop_
_space_group_symop_operation_xyz
x,y,z
-x,y,1/2-z
-x,-y,-z
x,-y,1/2+z
1/2+x,1/2+y,z
1/2-x,1/2+y,1/2-z
1/2-x,1/2-y,-z
1/2+x,1/2-y,1/2+z
loop_
_atom_site_type_symbol
_atom_site_label
_atom_site_fract_x
_atom_site_fract_y
_atom_site_fract_z
Si Si1 0.500000 0.473218 0.250000
Si Si2 0.300839 0.274655 0.778907
Si Si3 0.457160 0.928520 0.547277
Si Si4 0.959224 0.710675 0.497075
Si Si5 0.851429 0.919013 0.911134
O O1 0.530150 0.429574 0.420617
O O2 0.623664 0.523272 0.219616
O O3 0.136499 0.274648 0.688986
O O4 0.376039 0.244833 0.630502
O O5 0.345262 0.349808 0.817938
O O6 0.380084 0.235797 0.948007
O O7 0.500000 0.920214 0.750000
O O8 0.530601 0.867508 0.473025
O O9 0.290292 0.923974 0.513083
O O10 0.500000 0.000000 0.500000
#
# Coordination Sequence:
#
# PCOD9292860 Si02
#       5
#     4   8   8   8   8
#     4  10  24  44  72 110 144 194 238 296 378 430
#     4  10  22  44  69 100 143 192 247 293 366 430
#     4  12  26  45  71 107 143 184 239 298 367 446
#     4  10  23  44  71 103 139 196 237 305 360 435
#     4  11  23  46  72 106 147 189 241 303 359 451
#
# _framework density 23.337291
#
# number of rings (size 3 to 8) (size 9 to 14) (size 15 to 20)
#    0.000    1.333    2.222    2.667    3.111    2.667 
#    6.000    0.000    0.000    0.000    0.000    0.000 
#    0.000    0.000    0.000    0.000    0.000    0.000 
#
# Total GULP energy -100525.922581 kJ/mol
# GULP energy per Si atom -5584.773477 kJ/mol
# Density = 2.328417 g / cm^3
# Si number density = 23.337291 Si / 1000 Ang^3
#
#
#
# Elastic Constant Matrix: (Units=GPa)
#
#
# Indices 1 2 3 4 5 6 
#
# 1 96.5921 72.5608 27.8579 0.0000 12.7540 0.0000
# 2 72.5608 182.5413 64.9791 0.0000 4.3844 0.0000
# 3 27.8579 64.9791 145.7424 0.0000 24.3933 0.0000
# 4 0.0000 0.0000 0.0000 44.0338 0.0000 2.3337
# 5 12.7540 4.3844 24.3933 0.0000 48.1733 0.0000
# 6 0.0000 0.0000 0.0000 2.3337 0.0000 37.6080
#
#
#
# Elastic Compliance Matrix: (Units=1/GPa)
#
#
# Indices 1 2 3 4 5 6 
#
# 1 0.015353 -0.006170 0.000440 0.000000 -0.003726 0.000000
# 2 -0.006170 0.009032 -0.003260 0.000000 0.002462 0.000000
# 3 0.000440 -0.003260 0.008960 0.000000 -0.004357 0.000000
# 4 0.000000 0.000000 0.000000 0.022785 0.000000 -0.001414
# 5 -0.003726 0.002462 -0.004357 0.000000 0.023727 0.000000
# 6 0.000000 0.000000 0.000000 -0.001414 0.000000 0.026678
#
#
# Mechanical properties :
#
#
# Convention : Reuss Voigt Hill
#
# Bulk Modulus (GPa) = 65.08187 83.96351 74.52269
# Shear Modulus (GPa) = 38.56980 43.26153 40.91567
#
# Velocity S-wave (km/s) = 4.06977 4.31019 4.19170
# Velocity P-wave (km/s) = 7.07333 7.79915 7.44509
#
# Compressibility (1/GPa) = 0.01536526
#
# Stress axis : x y z
#
# Youngs Moduli (GPa) = 65.13481 110.71809 111.60900
#
# Poissons Ratio (x) = 0.68312 -0.04909
# Poissons Ratio (y) = 0.40187 0.36380
# Poissons Ratio (z) = -0.02865 0.36090
#
# Static dielectric constant tensor:
#      x y z
#    x 2.043150 0.000000 0.091760 
#    y 0.000000 1.904540 0.000000 
#    z 0.091760 0.000000 1.933680 
# 
# From -- ./inp_files/29414.got.cif
#   From: 2010.05.17/outbox.cif.g08.bks.cpg/sg15_15_cif.got.tgz:29414.got - 2010.06.03 18:47:42.
