data_PCOD9292173
_publ_section_title
;
Structure prediction by ZEFSAII (Michael W. Deem and Ramdas Pophale) SiO2 
 PCOD9292173
Probable space group: C 2/C
;
_chemical_formula_sum "Si O2"
_cell_formula_units_Z 56
_cell_length_a 27.850233
_cell_length_b 10.105257
_cell_length_c 9.511153
_cell_angle_alpha 90.000000
_cell_angle_beta 109.375752
_cell_angle_gamma 90.000000
_cell_volume 2525.156330
_symmetry_space_group_name_H-M "C 2/C"
_symmetry_group_IT_number 15
_symmetry_cell_setting 'monoclinic'
loop_
_space_group_symop_operation_xyz
x,y,z
-x,y,1/2-z
-x,-y,-z
x,-y,1/2+z
1/2+x,1/2+y,z
1/2-x,1/2+y,1/2-z
1/2-x,1/2-y,-z
1/2+x,1/2-y,1/2+z
loop_
_atom_site_type_symbol
_atom_site_label
_atom_site_fract_x
_atom_site_fract_y
_atom_site_fract_z
Si Si1 0.110917 0.774493 0.470776
Si Si2 0.502879 0.360789 0.421563
Si Si3 0.248902 0.927925 0.735833
Si Si4 0.685711 0.473024 0.420477
Si Si5 0.089489 0.658274 0.162503
Si Si6 0.824331 0.263124 0.964253
Si Si7 0.649906 0.907816 0.227940
O O1 0.134223 0.895181 0.404050
O O2 0.099026 0.669298 0.338362
O O3 0.147990 0.717825 0.624019
O O4 0.059643 0.809688 0.501054
O O5 0.500000 0.383879 0.250000
O O6 0.500000 0.500000 0.500000
O O7 0.461511 0.245006 0.416159
O O8 0.227196 0.901648 0.560495
O O9 0.269613 0.806451 0.848958
O O10 0.207477 0.009740 0.785735
O O11 0.300251 0.010554 0.764052
O O12 0.679044 0.620236 0.471531
O O13 0.134190 0.729897 0.118883
O O14 0.100734 0.501877 0.148163
O O15 0.843399 0.362458 0.105182
#
# Coordination Sequence:
#
# PCOD9292173 Si02
#       7
#     8   8   8   8   8   8   8
#     4  11  25  42  67  97 128 172 224 273 335 404
#     4  10  23  44  70 101 136 170 220 276 337 394
#     4  11  24  39  60  92 130 176 223 269 327 396
#     4  12  24  39  63  92 130 177 218 275 331 397
#     4  10  22  43  67  93 130 173 213 278 334 392
#     4  11  23  42  62  94 134 171 227 274 330 399
#     4  11  24  43  64  92 134 172 223 276 326 401
#
# _framework density 22.176846000000001
#
# number of rings (size 3 to 8) (size 9 to 14) (size 15 to 20)
#    0.000    1.143    1.429    4.714    4.000    5.714 
#    0.000    1.429    0.000    0.000    0.000    0.000 
#    0.000    0.000    0.000    0.000    0.000    0.000 
#
# Total GULP energy -156447.821731 kJ/mol
# GULP energy per Si atom -5587.422205 kJ/mol
# Density = 2.212637 g / cm^3
# Si number density = 22.176846 Si / 1000 Ang^3
#
#
#
# Elastic Constant Matrix: (Units=GPa)
#
#
# Indices 1 2 3 4 5 6 
#
# 1 101.1960 23.8822 -3.0206 0.0000 -10.4363 0.0000
# 2 23.8822 88.3085 5.1426 0.0000 -5.1877 0.0000
# 3 -3.0206 5.1426 36.2091 0.0000 -11.5164 0.0000
# 4 0.0000 0.0000 0.0000 36.1621 0.0000 -3.8533
# 5 -10.4363 -5.1877 -11.5164 0.0000 31.2941 0.0000
# 6 0.0000 0.0000 0.0000 -3.8533 0.0000 31.1678
#
#
#
# Elastic Compliance Matrix: (Units=1/GPa)
#
#
# Indices 1 2 3 4 5 6 
#
# 1 0.011080 -0.002906 0.002672 0.000000 0.004197 0.000000
# 2 -0.002906 0.012240 -0.001862 0.000000 0.000375 0.000000
# 3 0.002672 -0.001862 0.032040 0.000000 0.012373 0.000000
# 4 0.000000 0.000000 0.000000 0.028022 0.000000 0.003464
# 5 0.004197 0.000375 0.012373 0.000000 0.037970 0.000000
# 6 0.000000 0.000000 0.000000 0.003464 0.000000 0.032513
#
#
# Mechanical properties :
#
#
# Convention : Reuss Voigt Hill
#
# Bulk Modulus (GPa) = 19.54291 30.85800 25.20045
# Shear Modulus (GPa) = 28.55307 33.03876 30.79591
#
# Velocity S-wave (km/s) = 3.59209 3.86396 3.73050
# Velocity P-wave (km/s) = 5.10251 5.81822 5.47208
#
# Compressibility (1/GPa) = 0.05116946
#
# Stress axis : x y z
#
# Youngs Moduli (GPa) = 90.25209 81.69828 31.21107
#
# Poissons Ratio (x) = 0.23738 -0.08339
# Poissons Ratio (y) = 0.26223 0.05810
# Poissons Ratio (z) = -0.24113 0.15208
#
# Static dielectric constant tensor:
#      x y z
#    x 1.826490 0.000000 0.029020 
#    y 0.000000 1.865930 0.000000 
#    z 0.029020 0.000000 1.836110 
# 
# From -- ./inp_files/65553.got.cif
#   From: 2010.05.17/outbox.cif.g08.bks.cpg/sg15_33_cif.got.tgz:65553.got - 2010.06.03 18:47:42.
