data_PCOD9292658
_publ_section_title
;
Structure prediction by ZEFSAII (Michael W. Deem and Ramdas Pophale) SiO2 
 PCOD9292658
Probable space group: C 2/C
;
_chemical_formula_sum "Si O2"
_cell_formula_units_Z 44
_cell_length_a 18.014980
_cell_length_b 11.993738
_cell_length_c 8.764033
_cell_angle_alpha 90.000000
_cell_angle_beta 107.280766
_cell_angle_gamma 90.000000
_cell_volume 1808.141056
_symmetry_space_group_name_H-M "C 2/C"
_symmetry_group_IT_number 15
_symmetry_cell_setting 'monoclinic'
loop_
_space_group_symop_operation_xyz
x,y,z
-x,y,1/2-z
-x,-y,-z
x,-y,1/2+z
1/2+x,1/2+y,z
1/2-x,1/2+y,1/2-z
1/2-x,1/2-y,-z
1/2+x,1/2-y,1/2+z
loop_
_atom_site_type_symbol
_atom_site_label
_atom_site_fract_x
_atom_site_fract_y
_atom_site_fract_z
Si Si1 0.457640 0.859217 0.562412
Si Si2 0.554834 0.592804 0.953769
Si Si3 0.288250 0.154953 0.920233
Si Si4 0.500000 0.862024 0.250000
Si Si5 0.164794 0.242713 0.371508
Si Si6 0.851490 0.005423 0.228804
O O1 0.500000 0.882311 0.750000
O O2 0.464266 0.723305 0.538567
O O3 0.367668 0.889239 0.541779
O O4 0.477427 0.908345 0.405580
O O5 0.632856 0.560086 0.097789
O O6 0.500000 0.500000 0.000000
O O7 0.580718 0.574688 0.794503
O O8 0.315089 0.214650 0.783556
O O9 0.228330 0.059016 0.838156
O O10 0.250000 0.250000 0.000000
O O11 0.581923 0.802452 0.351117
O O12 0.250000 0.250000 0.500000
O O13 0.144075 0.113556 0.374277
#
# Coordination Sequence:
#
# PCOD9292658 Si02
#       6
#     8   8   8   4   8   8
#     4  11  23  42  66  98 139 184 226 293 355 427
#     4  12  23  35  60 100 132 170 216 280 360 421
#     4  11  23  41  60  97 135 177 231 273 353 431
#     4  10  22  44  66 104 140 172 238 290 364 426
#     4  11  24  41  69  97 132 184 224 292 355 418
#     4  12  22  41  62  92 137 173 223 282 342 429
#
# _framework density 24.334384
#
# number of rings (size 3 to 8) (size 9 to 14) (size 15 to 20)
#    0.000    0.727    5.455    3.818    2.545    0.000 
#    0.000    0.000    2.000    2.182    0.000    0.000 
#    0.000    0.000    0.000    0.000    0.000    0.000 
#
# Total GULP energy -122610.347181 kJ/mol
# GULP energy per Si atom -5573.197599 kJ/mol
# Density = 2.427900 g / cm^3
# Si number density = 24.334384 Si / 1000 Ang^3
#
#
#
# Elastic Constant Matrix: (Units=GPa)
#
#
# Indices 1 2 3 4 5 6 
#
# 1 137.9054 2.2493 35.8495 0.0000 7.5762 0.0000
# 2 2.2493 56.8554 24.7137 0.0000 -4.2558 0.0000
# 3 35.8495 24.7137 146.0622 0.0000 13.2394 0.0000
# 4 0.0000 0.0000 0.0000 43.2565 0.0000 10.3738
# 5 7.5762 -4.2558 13.2394 0.0000 43.9395 0.0000
# 6 0.0000 0.0000 0.0000 10.3738 0.0000 25.9101
#
#
#
# Elastic Compliance Matrix: (Units=1/GPa)
#
#
# Indices 1 2 3 4 5 6 
#
# 1 0.007784 0.000476 -0.001926 0.000000 -0.000716 0.000000
# 2 0.000476 0.019376 -0.003658 0.000000 0.002897 0.000000
# 3 -0.001926 -0.003658 0.008163 0.000000 -0.002482 0.000000
# 4 0.000000 0.000000 0.000000 0.025573 0.000000 -0.010239
# 5 -0.000716 0.002897 -0.002482 0.000000 0.023910 0.000000
# 6 0.000000 0.000000 0.000000 -0.010239 0.000000 0.042695
#
#
# Mechanical properties :
#
#
# Convention : Reuss Voigt Hill
#
# Bulk Modulus (GPa) = 39.82998 51.82757 45.82877
# Shear Modulus (GPa) = 34.22628 41.15525 37.69077
#
# Velocity S-wave (km/s) = 3.75440 4.11693 3.93984
# Velocity P-wave (km/s) = 5.93273 6.62896 6.29049
#
# Compressibility (1/GPa) = 0.02510672
#
# Stress axis : x y z
#
# Youngs Moduli (GPa) = 128.47549 51.60900 122.50435
#
# Poissons Ratio (x) = -0.02455 0.23595
# Poissons Ratio (y) = -0.06111 0.44810
# Poissons Ratio (z) = 0.24745 0.18878
#
# Static dielectric constant tensor:
#      x y z
#    x 2.137150 0.000000 0.340460 
#    y 0.000000 1.957770 0.000000 
#    z 0.340460 0.000000 2.109940 
# 
# From -- ./inp_files/54519.got.cif
#   From: 2010.05.17/outbox.cif.g08.bks.cpg/sg15_28_cif.got.tgz:54519.got - 2010.06.03 18:47:42.
