data_PCOD9292091
_publ_section_title
;
Structure prediction by ZEFSAII (Michael W. Deem and Ramdas Pophale) SiO2 
 PCOD9292091
Probable space group: C 2/C
;
_chemical_formula_sum "Si O2"
_cell_formula_units_Z 56
_cell_length_a 9.297984
_cell_length_b 21.653705
_cell_length_c 14.741256
_cell_angle_alpha 90.000000
_cell_angle_beta 109.231381
_cell_angle_gamma 90.000000
_cell_volume 2802.319859
_symmetry_space_group_name_H-M "C 2/C"
_symmetry_group_IT_number 15
_symmetry_cell_setting 'monoclinic'
loop_
_space_group_symop_operation_xyz
x,y,z
-x,y,1/2-z
-x,-y,-z
x,-y,1/2+z
1/2+x,1/2+y,z
1/2-x,1/2+y,1/2-z
1/2-x,1/2-y,-z
1/2+x,1/2-y,1/2+z
loop_
_atom_site_type_symbol
_atom_site_label
_atom_site_fract_x
_atom_site_fract_y
_atom_site_fract_z
Si Si1 0.922423 0.598821 0.954582
Si Si2 0.172912 0.791479 0.059259
Si Si3 0.086973 0.575107 0.176358
Si Si4 0.131219 0.254877 0.056737
Si Si5 0.361441 0.906549 0.157454
Si Si6 0.815610 0.033181 0.713016
Si Si7 0.339259 0.215464 0.261200
O O1 0.926555 0.673947 0.949600
O O2 0.759048 0.576648 0.881226
O O3 0.043667 0.567735 0.909176
O O4 0.972175 0.581301 0.066863
O O5 0.256798 0.854892 0.091745
O O6 0.181634 0.753967 0.153415
O O7 0.250000 0.750000 0.000000
O O8 0.999076 0.793811 0.994068
O O9 0.230551 0.532266 0.182337
O O10 0.147829 0.643314 0.213261
O O11 0.000000 0.552216 0.250000
O O12 0.209232 0.234023 0.164904
O O13 0.250000 0.250000 0.000000
O O14 0.500000 0.882020 0.250000
O O15 0.252616 0.943815 0.203815
O O16 0.000000 0.032366 0.750000
O O17 0.500000 0.233274 0.250000
#
# Coordination Sequence:
#
# PCOD9292091 Si02
#       7
#     8   8   8   8   8   8   8
#     4  11  22  45  69  93 129 178 217 251 325 395
#     4  12  23  39  62  99 132 163 213 258 316 388
#     4  11  22  46  67  90 124 178 218 259 317 394
#     4  12  23  39  65 100 132 167 210 261 322 380
#     4  10  22  43  66  93 131 174 211 259 323 391
#     4  11  26  44  67  98 124 161 222 281 324 370
#     4  11  22  40  65  92 131 172 210 259 319 387
#
# _framework density 19.983443000000001
#
# number of rings (size 3 to 8) (size 9 to 14) (size 15 to 20)
#    0.000    0.857    4.286    4.286    2.000    1.143 
#    5.143    1.429    0.000    0.000    0.000    0.000 
#    0.000    0.000    0.000    0.000    0.000    0.000 
#
# Total GULP energy -156349.256763 kJ/mol
# GULP energy per Si atom -5583.902027 kJ/mol
# Density = 1.993796 g / cm^3
# Si number density = 19.983443 Si / 1000 Ang^3
#
#
#
# Elastic Constant Matrix: (Units=GPa)
#
#
# Indices 1 2 3 4 5 6 
#
# 1 107.5374 13.3332 58.2689 0.0000 21.8368 0.0000
# 2 13.3332 34.1043 35.3050 0.0000 17.1413 0.0000
# 3 58.2689 35.3050 175.0099 0.0000 6.1400 0.0000
# 4 0.0000 0.0000 0.0000 21.3325 0.0000 12.5642
# 5 21.8368 17.1413 6.1400 0.0000 39.1686 0.0000
# 6 0.0000 0.0000 0.0000 12.5642 0.0000 18.4828
#
#
#
# Elastic Compliance Matrix: (Units=1/GPa)
#
#
# Indices 1 2 3 4 5 6 
#
# 1 0.013155 0.004174 -0.004928 0.000000 -0.008388 0.000000
# 2 0.004174 0.050129 -0.010710 0.000000 -0.022586 0.000000
# 3 -0.004928 -0.010710 0.009306 0.000000 0.005976 0.000000
# 4 0.000000 0.000000 0.000000 0.078176 0.000000 -0.053142
# 5 -0.008388 -0.022586 0.005976 0.000000 0.039155 0.000000
# 6 0.000000 0.000000 0.000000 -0.053142 0.000000 0.090229
#
#
# Mechanical properties :
#
#
# Convention : Reuss Voigt Hill
#
# Bulk Modulus (GPa) = 20.13574 58.94064 39.53819
# Shear Modulus (GPa) = 15.64301 29.77973 22.71137
#
# Velocity S-wave (km/s) = 2.80089 3.86453 3.37487
# Velocity P-wave (km/s) = 4.53410 7.03360 5.91733
#
# Compressibility (1/GPa) = 0.04966293
#
# Stress axis : x y z
#
# Youngs Moduli (GPa) = 76.01708 19.94839 107.46289
#
# Poissons Ratio (x) = -0.08327 0.52954
# Poissons Ratio (y) = -0.31732 1.15094
# Poissons Ratio (z) = 0.37459 0.21365
#
# Static dielectric constant tensor:
#      x y z
#    x 1.691750 0.000000 -0.025040 
#    y 0.000000 1.757290 0.000000 
#    z -0.025040 0.000000 1.676810 
# 
# From -- ./inp_files/137974.got.cif
#   From: 2010.05.17/outbox.cif.g08.bks.cpg/sg15_69_cif.got.tgz:137974.got - 2010.06.03 18:47:42.
