data_PCOD9292621
_publ_section_title
;
Structure prediction by ZEFSAII (Michael W. Deem and Ramdas Pophale) SiO2 
 PCOD9292621
Probable space group: C 2/C
;
_chemical_formula_sum "Si O2"
_cell_formula_units_Z 56
_cell_length_a 9.480001
_cell_length_b 26.433578
_cell_length_c 14.694951
_cell_angle_alpha 90.000000
_cell_angle_beta 47.541872
_cell_angle_gamma 90.000000
_cell_volume 2716.776913
_symmetry_space_group_name_H-M "C 2/C"
_symmetry_group_IT_number 15
_symmetry_cell_setting 'monoclinic'
loop_
_space_group_symop_operation_xyz
x,y,z
-x,y,1/2-z
-x,-y,-z
x,-y,1/2+z
1/2+x,1/2+y,z
1/2-x,1/2+y,1/2-z
1/2-x,1/2-y,-z
1/2+x,1/2-y,1/2+z
loop_
_atom_site_type_symbol
_atom_site_label
_atom_site_fract_x
_atom_site_fract_y
_atom_site_fract_z
Si Si1 0.076760 0.615734 0.935576
Si Si2 0.782355 0.461244 0.829966
Si Si3 0.045910 0.700309 0.627255
Si Si4 0.146900 0.045370 0.762515
Si Si5 0.627739 0.620931 0.536114
Si Si6 0.308800 0.383156 0.786719
Si Si7 0.497921 0.694248 0.069950
O O1 0.153504 0.560481 0.872621
O O2 0.217710 0.634480 0.954395
O O3 0.070737 0.651199 0.850346
O O4 0.863663 0.620285 0.067935
O O5 0.669974 0.509078 0.838690
O O6 0.769677 0.420612 0.754984
O O7 0.000000 0.476931 0.750000
O O8 0.707238 0.428722 0.947718
O O9 0.272263 0.688126 0.522319
O O10 0.000000 0.716201 0.750000
O O11 0.982067 0.745438 0.587525
O O12 0.000000 0.025219 0.750000
O O13 0.057011 0.098554 0.833556
O O14 0.577437 0.665624 0.487572
O O15 0.500000 0.403894 0.750000
O O16 0.382765 0.332715 0.702696
#
# Coordination Sequence:
#
# PCOD9292621 Si02
#       7
#     8   8   8   8   8   8   8
#     4  11  23  41  68  92 130 165 217 264 318 386
#     4  11  22  39  64  94 129 166 218 265 314 387
#     4  11  23  40  64  97 125 169 213 265 314 385
#     4  10  23  42  61  92 130 171 212 267 321 380
#     4  10  22  44  65  92 131 172 207 270 323 379
#     4  11  21  41  63  93 126 173 209 263 323 378
#     4  10  23  38  66  92 130 164 212 261 319 386
#
# _framework density 20.612660999999999
#
# number of rings (size 3 to 8) (size 9 to 14) (size 15 to 20)
#    0.000    1.429    2.857    2.143    2.000    2.857 
#    2.571    0.000    6.286    0.000    0.000    0.000 
#    0.000    0.000    0.000    0.000    0.000    0.000 
#
# Total GULP energy -156180.769175 kJ/mol
# GULP energy per Si atom -5577.884613 kJ/mol
# Density = 2.056575 g / cm^3
# Si number density = 20.612661 Si / 1000 Ang^3
#
#
#
# Elastic Constant Matrix: (Units=GPa)
#
#
# Indices 1 2 3 4 5 6 
#
# 1 79.6094 20.2591 4.6659 0.0000 -7.9646 0.0000
# 2 20.2591 44.3514 3.2591 0.0000 -15.4628 0.0000
# 3 4.6659 3.2591 73.4624 0.0000 -14.9540 0.0000
# 4 0.0000 0.0000 0.0000 33.1910 0.0000 0.4405
# 5 -7.9646 -15.4628 -14.9540 0.0000 29.0010 0.0000
# 6 0.0000 0.0000 0.0000 0.4405 0.0000 28.2250
#
#
#
# Elastic Compliance Matrix: (Units=1/GPa)
#
#
# Indices 1 2 3 4 5 6 
#
# 1 0.014242 -0.006392 -0.000579 0.000000 0.000205 0.000000
# 2 -0.006392 0.030826 0.002264 0.000000 0.015848 0.000000
# 3 -0.000579 0.002264 0.015376 0.000000 0.008977 0.000000
# 4 0.000000 0.000000 0.000000 0.030135 0.000000 -0.000470
# 5 0.000205 0.015848 0.008977 0.000000 0.047616 0.000000
# 6 0.000000 0.000000 0.000000 -0.000470 0.000000 0.035437
#
#
# Mechanical properties :
#
#
# Convention : Reuss Voigt Hill
#
# Bulk Modulus (GPa) = 19.59603 28.19903 23.89753
# Shear Modulus (GPa) = 24.99301 29.36601 27.17951
#
# Velocity S-wave (km/s) = 3.48589 3.77856 3.63517
# Velocity P-wave (km/s) = 5.07241 5.72248 5.40722
#
# Compressibility (1/GPa) = 0.05103074
#
# Stress axis : x y z
#
# Youngs Moduli (GPa) = 70.21314 32.44042 65.03631
#
# Poissons Ratio (x) = 0.20735 0.03768
# Poissons Ratio (y) = 0.44878 -0.14727
# Poissons Ratio (z) = 0.04068 -0.07346
#
# Static dielectric constant tensor:
#      x y z
#    x 1.608730 0.000000 0.061320 
#    y 0.000000 1.723360 0.000000 
#    z 0.061320 0.000000 1.789770 
# 
# From -- ./inp_files/193834.got.cif
#   From: 2010.05.17/outbox.cif.g08.bks.cpg/sg15_97_cif.got.tgz:193834.got - 2010.06.03 18:47:42.
