data_PCOD9292183
_publ_section_title
;
Structure prediction by ZEFSAII (Michael W. Deem and Ramdas Pophale) SiO2 
 PCOD9292183
Probable space group: C 2/C
;
_chemical_formula_sum "Si O2"
_cell_formula_units_Z 36
_cell_length_a 21.597105
_cell_length_b 8.245204
_cell_length_c 10.577573
_cell_angle_alpha 90.000000
_cell_angle_beta 127.955516
_cell_angle_gamma 90.000000
_cell_volume 1485.177448
_symmetry_space_group_name_H-M "C 2/C"
_symmetry_group_IT_number 15
_symmetry_cell_setting 'monoclinic'
loop_
_space_group_symop_operation_xyz
x,y,z
-x,y,1/2-z
-x,-y,-z
x,-y,1/2+z
1/2+x,1/2+y,z
1/2-x,1/2+y,1/2-z
1/2-x,1/2-y,-z
1/2+x,1/2-y,1/2+z
loop_
_atom_site_type_symbol
_atom_site_label
_atom_site_fract_x
_atom_site_fract_y
_atom_site_fract_z
Si Si1 0.391685 0.352913 0.913143
Si Si2 0.000000 0.671591 0.250000
Si Si3 0.413131 0.628536 0.085120
Si Si4 0.385713 0.908954 0.197617
Si Si5 0.229190 0.093503 0.056846
O O1 0.411877 0.544359 0.944994
O O2 0.442646 0.275999 0.091193
O O3 0.408175 0.237665 0.818126
O O4 0.300345 0.346272 0.842500
O O5 0.052957 0.553609 0.231018
O O6 0.500000 0.612227 0.250000
O O7 0.387244 0.815378 0.064507
O O8 0.346372 0.519366 0.072573
O O9 0.303537 0.978535 0.139136
O O10 0.250000 0.250000 0.000000
#
# Coordination Sequence:
#
# PCOD9292183 Si02
#       5
#     8   4   8   8   8
#     4  10  24  43  66  99 132 181 221 282 344 398
#     4  12  22  46  66 102 142 172 230 286 336 408
#     4  10  22  44  65  98 135 171 225 286 331 402
#     4  12  23  43  70 103 134 184 228 276 347 409
#     4  10  22  43  67  94 142 174 223 285 334 399
#
# _framework density 24.239526999999999
#
# number of rings (size 3 to 8) (size 9 to 14) (size 15 to 20)
#    1.333    0.000    4.444    1.333    0.000    2.667 
#    4.000    0.000    0.000    0.000    0.000    0.000 
#    0.000    0.000    0.000    0.000    0.000    0.000 
#
# Total GULP energy -100444.546154 kJ/mol
# GULP energy per Si atom -5580.252564 kJ/mol
# Density = 2.418436 g / cm^3
# Si number density = 24.239527 Si / 1000 Ang^3
#
#
#
# Elastic Constant Matrix: (Units=GPa)
#
#
# Indices 1 2 3 4 5 6 
#
# 1 126.1806 26.9730 30.7517 0.0000 40.2618 0.0000
# 2 26.9730 97.2776 15.2912 0.0000 10.1012 0.0000
# 3 30.7517 15.2912 39.5536 0.0000 15.8697 0.0000
# 4 0.0000 0.0000 0.0000 15.0782 0.0000 9.6975
# 5 40.2618 10.1012 15.8697 0.0000 36.6482 0.0000
# 6 0.0000 0.0000 0.0000 9.6975 0.0000 69.2342
#
#
#
# Elastic Compliance Matrix: (Units=1/GPa)
#
#
# Indices 1 2 3 4 5 6 
#
# 1 0.013318 -0.001675 -0.004867 0.000000 -0.012062 0.000000
# 2 -0.001675 0.011218 -0.003065 0.000000 0.000076 0.000000
# 3 -0.004867 -0.003065 0.033605 0.000000 -0.008360 0.000000
# 4 0.000000 0.000000 0.000000 0.072887 0.000000 -0.010209
# 5 -0.012062 0.000076 -0.008360 0.000000 0.044137 0.000000
# 6 0.000000 0.000000 0.000000 -0.010209 0.000000 0.015874
#
#
# Mechanical properties :
#
#
# Convention : Reuss Voigt Hill
#
# Bulk Modulus (GPa) = 25.68905 45.44932 35.56918
# Shear Modulus (GPa) = 22.39841 36.85853 29.62847
#
# Velocity S-wave (km/s) = 3.04311 3.90371 3.49996
# Velocity P-wave (km/s) = 4.79253 6.25375 5.57126
#
# Compressibility (1/GPa) = 0.03892709
#
# Stress axis : x y z
#
# Youngs Moduli (GPa) = 75.08507 89.14022 29.75712
#
# Poissons Ratio (x) = 0.14933 0.14484
# Poissons Ratio (y) = 0.12579 0.09120
# Poissons Ratio (z) = 0.36547 0.27320
#
# Static dielectric constant tensor:
#      x y z
#    x 2.053870 0.000000 -0.141620 
#    y 0.000000 1.934980 0.000000 
#    z -0.141620 0.000000 2.012430 
# 
# From -- ./inp_files/109839.got.cif
#   From: 2010.05.17/outbox.cif.g08.bks.cpg/sg15_55_cif.got.tgz:109839.got - 2010.06.03 18:47:42.
