data_PCOD9292704
_publ_section_title
;
Structure prediction by ZEFSAII (Michael W. Deem and Ramdas Pophale) SiO2 
 PCOD9292704
Probable space group: C 2/C
;
_chemical_formula_sum "Si O2"
_cell_formula_units_Z 44
_cell_length_a 16.563821
_cell_length_b 7.043566
_cell_length_c 21.461394
_cell_angle_alpha 90.000000
_cell_angle_beta 54.508945
_cell_angle_gamma 90.000000
_cell_volume 2038.662960
_symmetry_space_group_name_H-M "C 2/C"
_symmetry_group_IT_number 15
_symmetry_cell_setting 'monoclinic'
loop_
_space_group_symop_operation_xyz
x,y,z
-x,y,1/2-z
-x,-y,-z
x,-y,1/2+z
1/2+x,1/2+y,z
1/2-x,1/2+y,1/2-z
1/2-x,1/2-y,-z
1/2+x,1/2-y,1/2+z
loop_
_atom_site_type_symbol
_atom_site_label
_atom_site_fract_x
_atom_site_fract_y
_atom_site_fract_z
Si Si1 0.979320 0.002796 0.614423
Si Si2 0.319402 0.195614 0.682704
Si Si3 0.502609 0.067007 0.426914
Si Si4 0.153067 0.286378 0.004457
Si Si5 0.500000 0.574860 0.250000
Si Si6 0.779685 0.862044 0.830559
O O1 0.988307 0.210904 0.583498
O O2 0.985177 0.017143 0.687738
O O3 0.071194 0.875335 0.550293
O O4 0.880524 0.886395 0.638218
O O5 0.271413 0.248520 0.769830
O O6 0.407925 0.040751 0.647806
O O7 0.240926 0.087085 0.674155
O O8 0.500000 0.000000 0.500000
O O9 0.399284 0.980508 0.449573
O O10 0.195225 0.303066 0.916067
O O11 0.250000 0.250000 0.000000
O O12 0.608300 0.673562 0.195308
#
# Coordination Sequence:
#
# PCOD9292704 Si02
#       6
#     8   8   8   8   4   8
#     4  10  24  45  70  98 140 182 222 295 338 398
#     4  10  25  42  70 101 140 175 234 282 342 405
#     4  11  24  46  67 104 134 177 235 278 339 413
#     4  11  23  45  69  99 139 179 229 283 343 409
#     4  10  22  44  66  96 144 172 228 276 346 416
#     4  11  23  45  69 101 137 182 229 283 343 416
#
# _framework density 21.582774000000001
#
# number of rings (size 3 to 8) (size 9 to 14) (size 15 to 20)
#    0.000    1.455    3.636    0.000    5.091    5.091 
#    3.273    0.000    0.000    0.000    0.000    0.000 
#    0.000    0.000    0.000    0.000    0.000    0.000 
#
# Total GULP energy -122778.709998 kJ/mol
# GULP energy per Si atom -5580.850454 kJ/mol
# Density = 2.153365 g / cm^3
# Si number density = 21.582774 Si / 1000 Ang^3
#
#
#
# Elastic Constant Matrix: (Units=GPa)
#
#
# Indices 1 2 3 4 5 6 
#
# 1 71.0624 32.7078 28.9187 0.0000 -20.1136 0.0001
# 2 32.7078 163.9710 71.7036 -0.0001 -3.1668 0.0007
# 3 28.9187 71.7036 164.6095 0.0000 -12.8282 -0.0001
# 4 0.0000 -0.0001 0.0000 40.2115 0.0000 -1.1586
# 5 -20.1136 -3.1668 -12.8282 0.0000 44.8973 0.0000
# 6 0.0001 0.0007 -0.0001 -1.1586 0.0000 18.1682
#
#
#
# Elastic Compliance Matrix: (Units=1/GPa)
#
#
# Indices 1 2 3 4 5 6 
#
# 1 0.018064 -0.002874 -0.001337 0.000000 0.007508 0.000000
# 2 -0.002874 0.007998 -0.003105 0.000000 -0.001610 0.000000
# 3 -0.001337 -0.003105 0.007772 0.000000 0.001403 0.000000
# 4 0.000000 0.000000 0.000000 0.024914 0.000000 0.001589
# 5 0.007508 -0.001610 0.001403 0.000000 0.025924 0.000000
# 6 0.000000 0.000000 0.000000 0.001589 0.000000 0.055143
#
#
# Mechanical properties :
#
#
# Convention : Reuss Voigt Hill
#
# Bulk Modulus (GPa) = 52.07350 74.03369 63.05360
# Shear Modulus (GPa) = 31.08569 38.40958 34.74764
#
# Velocity S-wave (km/s) = 3.79925 4.22316 4.01680
# Velocity P-wave (km/s) = 6.58980 7.62606 7.12679
#
# Compressibility (1/GPa) = 0.01920362
#
# Stress axis : x y z
#
# Youngs Moduli (GPa) = 55.35943 125.02397 128.67482
#
# Poissons Ratio (x) = 0.35929 0.17198
# Poissons Ratio (y) = 0.15909 0.39950
# Poissons Ratio (z) = 0.07399 0.38817
#
# Static dielectric constant tensor:
#      x y z
#    x 1.859150 0.000000 0.024410 
#    y 0.000000 1.804720 0.000000 
#    z 0.024410 0.000000 1.818650 
# 
# From -- ./inp_files/297646.got.cif
#   From: 2010.05.17/outbox.cif.g08.bks.cpg/sg15_149_cif.got.tgz:297646.got - 2010.06.03 18:47:42.
