data_PCOD9292308
_publ_section_title
;
Structure prediction by ZEFSAII (Michael W. Deem and Ramdas Pophale) SiO2 
 PCOD9292308
Probable space group: C 2/C
;
_chemical_formula_sum "Si O2"
_cell_formula_units_Z 64
_cell_length_a 8.992946
_cell_length_b 22.465094
_cell_length_c 14.065071
_cell_angle_alpha 90.000000
_cell_angle_beta 85.467898
_cell_angle_gamma 90.000000
_cell_volume 2832.644561
_symmetry_space_group_name_H-M "C 2/C"
_symmetry_group_IT_number 15
_symmetry_cell_setting 'monoclinic'
loop_
_space_group_symop_operation_xyz
x,y,z
-x,y,1/2-z
-x,-y,-z
x,-y,1/2+z
1/2+x,1/2+y,z
1/2-x,1/2+y,1/2-z
1/2-x,1/2-y,-z
1/2+x,1/2-y,1/2+z
loop_
_atom_site_type_symbol
_atom_site_label
_atom_site_fract_x
_atom_site_fract_y
_atom_site_fract_z
Si Si1 0.884934 0.789476 0.171944
Si Si2 0.966389 0.585820 0.027135
Si Si3 0.583947 0.731447 0.476467
Si Si4 0.414792 0.373558 0.668279
Si Si5 0.012511 0.008172 0.858950
Si Si6 0.429930 0.165420 0.857133
Si Si7 0.247970 0.516749 0.009499
Si Si8 0.652821 0.157759 0.297345
O O1 0.748450 0.830833 0.148371
O O2 0.804129 0.727195 0.205029
O O3 0.000000 0.807883 0.250000
O O4 0.985405 0.776164 0.075327
O O5 0.861286 0.528443 0.038529
O O6 0.884506 0.634507 0.096258
O O7 0.969711 0.608933 0.919704
O O8 0.135986 0.569213 0.046514
O O9 0.750000 0.750000 0.500000
O O10 0.594886 0.669413 0.419740
O O11 0.502603 0.779377 0.412249
O O12 0.500000 0.341033 0.750000
O O13 0.496108 0.435422 0.640962
O O14 0.260487 0.383756 0.730846
O O15 0.000000 0.027432 0.750000
O O16 0.168771 0.015486 0.906702
O O17 0.880431 0.034203 0.930571
O O18 0.500000 0.162885 0.750000
O O19 0.500000 0.157286 0.250000
#
# Coordination Sequence:
#
# PCOD9292308 Si02
#       8
#     8   8   8   8   8   8   8   8
#     4  11  24  43  65  99 140 181 226 277 327 404
#     4  11  24  42  67  94 130 178 217 278 339 394
#     4  12  24  40  66  99 138 180 218 276 333 400
#     4  11  23  37  67  97 127 169 221 278 325 392
#     4  10  22  43  69  95 127 164 220 283 339 394
#     4  12  26  43  62  96 139 182 223 267 336 417
#     4  10  24  43  66  97 128 164 226 281 339 401
#     4  11  21  39  65  99 129 168 226 275 328 391
#
# _framework density 22.593729
#
# number of rings (size 3 to 8) (size 9 to 14) (size 15 to 20)
#    0.000    1.000    1.250    6.750    5.250    1.000 
#    0.000    3.125    0.000    0.000    0.000    0.000 
#    0.000    0.000    0.000    0.000    0.000    0.000 
#
# Total GULP energy -178847.077417 kJ/mol
# GULP energy per Si atom -5588.971169 kJ/mol
# Density = 2.254230 g / cm^3
# Si number density = 22.593729 Si / 1000 Ang^3
#
#
#
# Elastic Constant Matrix: (Units=GPa)
#
#
# Indices 1 2 3 4 5 6 
#
# 1 105.2847 15.5153 24.4316 0.0000 2.2718 0.0000
# 2 15.5153 28.0337 -0.2810 0.0000 3.5714 0.0000
# 3 24.4316 -0.2810 119.1766 0.0000 5.3957 0.0000
# 4 0.0000 0.0000 0.0000 30.8246 0.0000 2.3704
# 5 2.2718 3.5714 5.3957 0.0000 26.9000 0.0000
# 6 0.0000 0.0000 0.0000 2.3704 0.0000 27.5491
#
#
#
# Elastic Compliance Matrix: (Units=1/GPa)
#
#
# Indices 1 2 3 4 5 6 
#
# 1 0.010917 -0.006109 -0.002268 0.000000 0.000344 0.000000
# 2 -0.006109 0.039714 0.001576 0.000000 -0.005073 0.000000
# 3 -0.002268 0.001576 0.008942 0.000000 -0.001811 0.000000
# 4 0.000000 0.000000 0.000000 0.032658 0.000000 -0.002810
# 5 0.000344 -0.005073 -0.001811 0.000000 0.038182 0.000000
# 6 0.000000 0.000000 0.000000 -0.002810 0.000000 0.036541
#
#
# Mechanical properties :
#
#
# Convention : Reuss Voigt Hill
#
# Bulk Modulus (GPa) = 21.75293 36.86964 29.31129
# Shear Modulus (GPa) = 25.52590 31.24335 28.38462
#
# Velocity S-wave (km/s) = 3.36486 3.72268 3.54828
# Velocity P-wave (km/s) = 4.97445 5.90184 5.45788
#
# Compressibility (1/GPa) = 0.04597081
#
# Stress axis : x y z
#
# Youngs Moduli (GPa) = 91.59911 25.17988 111.83712
#
# Poissons Ratio (x) = 0.15382 0.25365
# Poissons Ratio (y) = 0.55955 -0.17621
# Poissons Ratio (z) = 0.20775 -0.03967
#
# Static dielectric constant tensor:
#      x y z
#    x 1.643970 0.000000 0.160460 
#    y 0.000000 1.941540 0.000000 
#    z 0.160460 0.000000 1.748910 
# 
# From -- ./inp_files/82568.got.cif
#   From: 2010.05.17/outbox.cif.g08.bks.cpg/sg15_42_cif.got.tgz:82568.got - 2010.06.03 18:47:42.
