data_PCOD9292302
_publ_section_title
;
Structure prediction by ZEFSAII (Michael W. Deem and Ramdas Pophale) SiO2 
 PCOD9292302
Probable space group: C 2/C
;
_chemical_formula_sum "Si O2"
_cell_formula_units_Z 48
_cell_length_a 8.955603
_cell_length_b 17.558140
_cell_length_c 14.679308
_cell_angle_alpha 90.000000
_cell_angle_beta 82.710363
_cell_angle_gamma 90.000000
_cell_volume 2289.572688
_symmetry_space_group_name_H-M "C 2/C"
_symmetry_group_IT_number 15
_symmetry_cell_setting 'monoclinic'
loop_
_space_group_symop_operation_xyz
x,y,z
-x,y,1/2-z
-x,-y,-z
x,-y,1/2+z
1/2+x,1/2+y,z
1/2-x,1/2+y,1/2-z
1/2-x,1/2-y,-z
1/2+x,1/2-y,1/2+z
loop_
_atom_site_type_symbol
_atom_site_label
_atom_site_fract_x
_atom_site_fract_y
_atom_site_fract_z
Si Si1 0.134224 0.948717 0.025693
Si Si2 0.147586 0.792164 0.936431
Si Si3 0.319322 0.667384 0.263941
Si Si4 0.140320 0.533365 0.617394
Si Si5 0.793305 0.504527 0.183642
Si Si6 0.657063 0.212115 0.588390
O O1 0.174901 0.961713 0.127837
O O2 0.090620 0.865053 0.996395
O O3 0.282341 0.977878 0.960879
O O4 0.000000 0.000000 0.000000
O O5 0.226049 0.821328 0.837591
O O6 0.015414 0.736758 0.914186
O O7 0.250000 0.750000 0.000000
O O8 0.500000 0.651211 0.250000
O O9 0.239065 0.595115 0.315955
O O10 0.295069 0.744527 0.322748
O O11 0.215062 0.519049 0.710202
O O12 0.167154 0.621477 0.590438
O O13 0.963046 0.515520 0.639865
O O14 0.750000 0.250000 0.500000
#
# Coordination Sequence:
#
# PCOD9292302 Si02
#       6
#     8   8   8   8   8   8
#     4  12  24  43  69  97 134 174 221 275 328 397
#     4  11  24  41  66  97 130 170 222 275 325 391
#     4  10  22  43  69  93 135 179 216 272 342 401
#     4  11  25  43  68 102 132 177 226 270 335 402
#     4  11  24  41  69  99 134 172 222 281 331 394
#     4  11  24  45  67  94 133 180 217 265 341 402
#
# _framework density 20.964611000000001
#
# number of rings (size 3 to 8) (size 9 to 14) (size 15 to 20)
#    0.000    1.000    1.667    5.500    9.333    1.333 
#    0.000    0.000    0.000    0.000    0.000    0.000 
#    0.000    0.000    0.000    0.000    0.000    0.000 
#
# Total GULP energy -134228.653321 kJ/mol
# GULP energy per Si atom -5592.860555 kJ/mol
# Density = 2.091689 g / cm^3
# Si number density = 20.964611 Si / 1000 Ang^3
#
#
#
# Elastic Constant Matrix: (Units=GPa)
#
#
# Indices 1 2 3 4 5 6 
#
# 1 23.8631 5.7075 16.3353 0.0000 10.2470 0.0000
# 2 5.7075 62.0865 -9.6408 0.0000 1.9523 0.0000
# 3 16.3353 -9.6408 91.8895 0.0000 28.1955 0.0000
# 4 0.0000 0.0000 0.0000 34.8683 0.0000 -0.4724
# 5 10.2470 1.9523 28.1955 0.0000 41.0089 0.0000
# 6 0.0000 0.0000 0.0000 -0.4724 0.0000 35.5327
#
#
#
# Elastic Compliance Matrix: (Units=1/GPa)
#
#
# Indices 1 2 3 4 5 6 
#
# 1 0.051588 -0.005667 -0.007468 0.000000 -0.007486 0.000000
# 2 -0.005667 0.017198 0.003331 0.000000 -0.001693 0.000000
# 3 -0.007468 0.003331 0.015254 0.000000 -0.008780 0.000000
# 4 0.000000 0.000000 0.000000 0.028685 0.000000 0.000381
# 5 -0.007486 -0.001693 -0.008780 0.000000 0.032373 0.000000
# 6 0.000000 0.000000 0.000000 0.000381 0.000000 0.028148
#
#
# Mechanical properties :
#
#
# Convention : Reuss Voigt Hill
#
# Bulk Modulus (GPa) = 15.52018 22.51589 19.01804
# Shear Modulus (GPa) = 23.32847 33.31112 28.31979
#
# Velocity S-wave (km/s) = 3.33942 3.99045 3.67936
# Velocity P-wave (km/s) = 4.72102 5.65640 5.20975
#
# Compressibility (1/GPa) = 0.06443223
#
# Stress axis : x y z
#
# Youngs Moduli (GPa) = 19.38441 58.14620 65.55671
#
# Poissons Ratio (x) = 0.32950 0.48961
# Poissons Ratio (y) = 0.10985 -0.21839
# Poissons Ratio (z) = 0.14477 -0.19370
#
# Static dielectric constant tensor:
#      x y z
#    x 1.757030 0.000000 -0.015230 
#    y 0.000000 1.706360 0.000000 
#    z -0.015230 0.000000 1.763660 
# 
# From -- ./inp_files/134811.got.cif
#   From: 2010.05.17/outbox.cif.g08.bks.cpg/sg15_68_cif.got.tgz:134811.got - 2010.06.03 18:47:42.
