data_PCOD9292727
_publ_section_title
;
Structure prediction by ZEFSAII (Michael W. Deem and Ramdas Pophale) SiO2 
 PCOD9292727
Probable space group: C 2/C
;
_chemical_formula_sum "Si O2"
_cell_formula_units_Z 36
_cell_length_a 7.637441
_cell_length_b 19.860378
_cell_length_c 14.614705
_cell_angle_alpha 90.000000
_cell_angle_beta 45.312694
_cell_angle_gamma 90.000000
_cell_volume 1576.041775
_symmetry_space_group_name_H-M "C 2/C"
_symmetry_group_IT_number 15
_symmetry_cell_setting 'monoclinic'
loop_
_space_group_symop_operation_xyz
x,y,z
-x,y,1/2-z
-x,-y,-z
x,-y,1/2+z
1/2+x,1/2+y,z
1/2-x,1/2+y,1/2-z
1/2-x,1/2-y,-z
1/2+x,1/2-y,1/2+z
loop_
_atom_site_type_symbol
_atom_site_label
_atom_site_fract_x
_atom_site_fract_y
_atom_site_fract_z
Si Si1 0.282351 0.522301 0.967856
Si Si2 0.230108 0.757599 0.397468
Si Si3 0.424888 0.138729 0.172993
Si Si4 0.218563 0.907854 0.379380
Si Si5 0.000000 0.940222 0.750000
O O1 0.284357 0.458713 0.034810
O O2 0.111414 0.580983 0.069310
O O3 0.553201 0.555147 0.866481
O O4 0.279821 0.485855 0.871753
O O5 0.500000 0.756036 0.250000
O O6 0.250000 0.750000 0.500000
O O7 0.078874 0.700571 0.397962
O O8 0.121333 0.832408 0.426627
O O9 0.500000 0.156004 0.250000
O O10 0.147647 0.107149 0.267340
O O11 0.500000 0.901774 0.250000
#
# Coordination Sequence:
#
# PCOD9292727 Si02
#       5
#     8   8   8   8   4
#     4  11  23  40  73 106 142 186 256 305 371 444
#     4  11  26  48  76 104 154 203 247 309 387 454
#     4  12  26  46  77 109 147 198 255 309 376 452
#     4  10  22  44  67 102 144 188 241 306 372 440
#     4  12  24  44  70 106 150 194 240 314 384 436
#
# _framework density 22.842034999999999
#
# number of rings (size 3 to 8) (size 9 to 14) (size 15 to 20)
#    0.000    0.889    1.111    6.667    3.111    4.444 
#    2.000    0.000    0.000    0.000    0.000    0.000 
#    0.000    0.000    0.000    0.000    0.000    0.000 
#
# Total GULP energy -100445.966202 kJ/mol
# GULP energy per Si atom -5580.331456 kJ/mol
# Density = 2.279005 g / cm^3
# Si number density = 22.842035 Si / 1000 Ang^3
#
#
#
# Elastic Constant Matrix: (Units=GPa)
#
#
# Indices 1 2 3 4 5 6 
#
# 1 114.0087 59.4571 54.3124 0.0000 33.7235 0.0000
# 2 59.4571 194.1487 42.6399 0.0000 29.3997 0.0000
# 3 54.3124 42.6399 58.5079 0.0000 21.8034 0.0000
# 4 0.0000 0.0000 0.0000 15.3839 0.0000 22.6655
# 5 33.7235 29.3997 21.8034 0.0000 38.5862 0.0000
# 6 0.0000 0.0000 0.0000 22.6655 0.0000 11.2520
#
#
#
# Elastic Compliance Matrix: (Units=1/GPa)
#
#
# Indices 1 2 3 4 5 6 
#
# 1 0.017733 -0.001569 -0.012652 0.000000 -0.007154 0.000000
# 2 -0.001569 0.006505 -0.002468 0.000000 -0.002191 0.000000
# 3 -0.012652 -0.002468 0.032699 0.000000 -0.005539 0.000000
# 4 0.000000 0.000000 0.000000 -0.033033 0.000000 0.066541
# 5 -0.007154 -0.002191 -0.005539 0.000000 0.036967 0.000000
# 6 0.000000 0.000000 0.000000 0.066541 0.000000 -0.045164
#
#
# Mechanical properties :
#
#
# Convention : Reuss Voigt Hill
#
# Bulk Modulus (GPa) = 42.44621 75.49822 58.97222
# Shear Modulus (GPa) = 87.81584 27.06149 57.43866
#
# Velocity S-wave (km/s) = 6.20712 3.44572 5.02002
# Velocity P-wave (km/s) = 8.36624 6.99676 7.71196
#
# Compressibility (1/GPa) = 0.02355923
#
# Stress axis : x y z
#
# Youngs Moduli (GPa) = 56.39350 153.73102 30.58167
#
# Poissons Ratio (x) = 0.24113 0.38692
# Poissons Ratio (y) = 0.08846 0.07548
# Poissons Ratio (z) = 0.71349 0.37945
#
# Static dielectric constant tensor:
#      x y z
#    x 1.892300 0.000000 -0.017440 
#    y 0.000000 1.898710 0.000000 
#    z -0.017440 0.000000 1.916190 
# 
# From -- ./inp_files/136391.got.cif
#   From: 2010.05.17/outbox.cif.g08.bks.cpg/sg15_69_cif.got.tgz:136391.got - 2010.06.03 18:47:42.
