data_PCOD9292260
_publ_section_title
;
Structure prediction by ZEFSAII (Michael W. Deem and Ramdas Pophale) SiO2 
 PCOD9292260
Probable space group: C 2/C
;
_chemical_formula_sum "Si O2"
_cell_formula_units_Z 64
_cell_length_a 25.665522
_cell_length_b 15.495185
_cell_length_c 11.039564
_cell_angle_alpha 90.000000
_cell_angle_beta 140.908116
_cell_angle_gamma 90.000000
_cell_volume 2768.402621
_symmetry_space_group_name_H-M "C 2/C"
_symmetry_group_IT_number 15
_symmetry_cell_setting 'monoclinic'
loop_
_space_group_symop_operation_xyz
x,y,z
-x,y,1/2-z
-x,-y,-z
x,-y,1/2+z
1/2+x,1/2+y,z
1/2-x,1/2+y,1/2-z
1/2-x,1/2-y,-z
1/2+x,1/2-y,1/2+z
loop_
_atom_site_type_symbol
_atom_site_label
_atom_site_fract_x
_atom_site_fract_y
_atom_site_fract_z
Si Si1 0.186417 0.317000 0.526740
Si Si2 0.213749 0.034918 0.599563
Si Si3 0.581247 0.593368 0.945857
Si Si4 0.005574 0.622446 0.115856
Si Si5 0.886171 0.227075 0.704997
Si Si6 0.869032 0.469817 0.218936
Si Si7 0.771741 0.811547 0.193338
Si Si8 0.864713 0.835958 0.719640
O O1 0.152940 0.412664 0.439505
O O2 0.199778 0.274328 0.681578
O O3 0.127834 0.249485 0.348463
O O4 0.277855 0.318133 0.632870
O O5 0.287502 0.002878 0.646036
O O6 0.244508 0.110228 0.744877
O O7 0.150595 0.084677 0.397605
O O8 0.163613 0.963447 0.582119
O O9 0.500000 0.545211 0.750000
O O10 0.591292 0.671756 0.870605
O O11 0.573377 0.632559 0.065404
O O12 0.040180 0.710838 0.123219
O O13 0.072226 0.548056 0.209009
O O14 0.000000 0.633796 0.250000
O O15 0.920523 0.592181 0.902501
O O16 0.846772 0.168233 0.738097
O O17 0.810942 0.289346 0.527865
#
# Coordination Sequence:
#
# PCOD9292260 Si02
#       8
#     8   8   8   8   8   8   8   8
#     4   9  18  39  66  92 122 170 224 270 323 399
#     4  10  24  44  68  97 132 181 226 281 326 405
#     4  12  27  42  67  97 138 179 222 278 343 402
#     4  11  25  42  63 103 143 173 220 288 351 407
#     4  11  25  41  68 101 136 178 225 279 345 404
#     4  10  24  41  69  98 132 178 228 276 345 405
#     4  10  22  43  68  97 132 173 234 278 330 403
#     4   9  20  38  65  91 121 169 221 268 323 395
#
# _framework density 23.118024999999999
#
# number of rings (size 3 to 8) (size 9 to 14) (size 15 to 20)
#    0.000    1.750    1.250    1.875    8.750    5.500 
#    0.000    0.000    0.000    0.000    0.000    0.000 
#    0.000    0.000    0.000    0.000    0.000    0.000 
#
# Total GULP energy -178969.455195 kJ/mol
# GULP energy per Si atom -5592.795475 kJ/mol
# Density = 2.306541 g / cm^3
# Si number density = 23.118025 Si / 1000 Ang^3
#
#
#
# Elastic Constant Matrix: (Units=GPa)
#
#
# Indices 1 2 3 4 5 6 
#
# 1 53.4531 13.0380 0.5227 0.0000 3.8689 0.0000
# 2 13.0380 47.3679 14.4777 0.0000 12.4068 0.0000
# 3 0.5227 14.4777 69.4681 0.0000 0.5162 0.0000
# 4 0.0000 0.0000 0.0000 24.8274 0.0000 6.1621
# 5 3.8689 12.4068 0.5162 0.0000 27.0114 0.0000
# 6 0.0000 0.0000 0.0000 6.1621 0.0000 24.5686
#
#
#
# Elastic Compliance Matrix: (Units=1/GPa)
#
#
# Indices 1 2 3 4 5 6 
#
# 1 0.020130 -0.005802 0.001060 0.000000 -0.000238 0.000000
# 2 -0.005802 0.027479 -0.005596 0.000000 -0.011684 0.000000
# 3 0.001060 -0.005596 0.015538 0.000000 0.002122 0.000000
# 4 0.000000 0.000000 0.000000 0.042952 0.000000 -0.010773
# 5 -0.000238 -0.011684 0.002122 0.000000 0.042382 0.000000
# 6 0.000000 0.000000 0.000000 -0.010773 0.000000 0.043404
#
#
# Mechanical properties :
#
#
# Convention : Reuss Voigt Hill
#
# Bulk Modulus (GPa) = 23.54668 25.15176 24.34922
# Shear Modulus (GPa) = 22.05372 24.76486 23.40929
#
# Velocity S-wave (km/s) = 3.09198 3.27652 3.18559
# Velocity P-wave (km/s) = 4.79110 5.02170 4.90776
#
# Compressibility (1/GPa) = 0.04246884
#
# Stress axis : x y z
#
# Youngs Moduli (GPa) = 49.67675 36.39122 64.35965
#
# Poissons Ratio (x) = 0.21115 -0.06819
# Poissons Ratio (y) = 0.28823 0.36018
# Poissons Ratio (z) = -0.05263 0.20366
#
# Static dielectric constant tensor:
#      x y z
#    x 1.854570 0.000000 0.008430 
#    y 0.000000 1.863650 0.000000 
#    z 0.008430 0.000000 1.897640 
# 
# From -- ./inp_files/123565.got.cif
#   From: 2010.05.17/outbox.cif.g08.bks.cpg/sg15_62_cif.got.tgz:123565.got - 2010.06.03 18:47:42.
