data_PCOD9292538
_publ_section_title
;
Structure prediction by ZEFSAII (Michael W. Deem and Ramdas Pophale) SiO2 
 PCOD9292538
Probable space group: C 2/C
;
_chemical_formula_sum "Si O2"
_cell_formula_units_Z 48
_cell_length_a 9.386423
_cell_length_b 10.216079
_cell_length_c 26.570627
_cell_angle_alpha 90.000000
_cell_angle_beta 97.587714
_cell_angle_gamma 90.000000
_cell_volume 2525.612307
_symmetry_space_group_name_H-M "C 2/C"
_symmetry_group_IT_number 15
_symmetry_cell_setting 'monoclinic'
loop_
_space_group_symop_operation_xyz
x,y,z
-x,y,1/2-z
-x,-y,-z
x,-y,1/2+z
1/2+x,1/2+y,z
1/2-x,1/2+y,1/2-z
1/2-x,1/2-y,-z
1/2+x,1/2-y,1/2+z
loop_
_atom_site_type_symbol
_atom_site_label
_atom_site_fract_x
_atom_site_fract_y
_atom_site_fract_z
Si Si1 0.755060 0.268060 0.641175
Si Si2 0.284539 0.483869 0.202491
Si Si3 0.091891 0.300959 0.638421
Si Si4 0.670139 0.147358 0.531763
Si Si5 0.111474 0.987578 0.180415
Si Si6 0.651694 0.147065 0.023723
O O1 0.701436 0.190058 0.589910
O O2 0.663305 0.396927 0.646944
O O3 0.920898 0.308206 0.640365
O O4 0.742832 0.164905 0.686345
O O5 0.175546 0.588445 0.173830
O O6 0.442420 0.502013 0.185057
O O7 0.303643 0.498926 0.262953
O O8 0.136009 0.155633 0.658238
O O9 0.124985 0.319703 0.581029
O O10 0.750000 0.250000 0.500000
O O11 0.501849 0.147944 0.511156
O O12 0.718380 0.998345 0.524749
O O13 0.750000 0.250000 0.000000
#
# Coordination Sequence:
#
# PCOD9292538 Si02
#       6
#     8   8   8   8   8   8
#     4  11  23  41  66  91 127 164 200 257 308 364
#     4  10  22  44  60  91 127 156 208 258 299 363
#     4  11  23  41  63  94 124 161 208 253 309 365
#     4  11  24  43  62  94 127 159 206 255 309 368
#     4  10  24  39  66  90 120 165 205 251 311 366
#     4  11  26  41  65  92 126 163 206 257 303 371
#
# _framework density 19.005292000000001
#
# number of rings (size 3 to 8) (size 9 to 14) (size 15 to 20)
#    0.000    1.333    3.333    1.000    4.667    4.000 
#    0.000    0.000    0.000    0.000    0.000    0.000 
#    0.000    0.000    0.000    0.000    0.000    0.000 
#
# Total GULP energy -134158.340456 kJ/mol
# GULP energy per Si atom -5589.930852 kJ/mol
# Density = 1.896203 g / cm^3
# Si number density = 19.005292 Si / 1000 Ang^3
#
#
#
# Elastic Constant Matrix: (Units=GPa)
#
#
# Indices 1 2 3 4 5 6 
#
# 1 39.5027 43.9258 13.5721 0.0000 11.1324 0.0000
# 2 43.9258 139.8022 20.5712 0.0000 -9.7842 0.0000
# 3 13.5721 20.5712 42.7666 0.0000 16.8366 0.0000
# 4 0.0000 0.0000 0.0000 38.8200 0.0000 -1.1683
# 5 11.1324 -9.7842 16.8366 0.0000 26.5527 0.0000
# 6 0.0000 0.0000 0.0000 -1.1683 0.0000 27.3577
#
#
#
# Elastic Compliance Matrix: (Units=1/GPa)
#
#
# Indices 1 2 3 4 5 6 
#
# 1 0.056885 -0.021281 0.006210 0.000000 -0.035629 0.000000
# 2 -0.021281 0.016744 -0.009651 0.000000 0.021212 0.000000
# 3 0.006210 -0.009651 0.037954 0.000000 -0.030226 0.000000
# 4 0.000000 0.000000 0.000000 0.025793 0.000000 0.001101
# 5 -0.035629 0.021212 -0.030226 0.000000 0.079580 0.000000
# 6 0.000000 0.000000 0.000000 0.001101 0.000000 0.036600
#
#
# Mechanical properties :
#
#
# Convention : Reuss Voigt Hill
#
# Bulk Modulus (GPa) = 16.09291 42.02332 29.05812
# Shear Modulus (GPa) = 15.44579 28.14624 21.79602
#
# Velocity S-wave (km/s) = 2.85390 3.85251 3.39018
# Velocity P-wave (km/s) = 4.39837 6.47677 5.53598
#
# Compressibility (1/GPa) = 0.06213917
#
# Stress axis : x y z
#
# Youngs Moduli (GPa) = 17.57934 59.72302 26.34776
#
# Poissons Ratio (x) = 1.27094 -0.16362
# Poissons Ratio (y) = 0.37410 0.25429
# Poissons Ratio (z) = -0.10917 0.57641
#
# Static dielectric constant tensor:
#      x y z
#    x 1.631000 0.000000 0.012980 
#    y 0.000000 1.641630 0.000000 
#    z 0.012980 0.000000 1.643080 
# 
# From -- ./inp_files/306658.got.cif
#   From: 2010.05.17/outbox.cif.g08.bks.cpg/sg15_154_cif.got.tgz:306658.got - 2010.06.03 18:47:42.
