data_PCOD9292069
_publ_section_title
;
Structure prediction by ZEFSAII (Michael W. Deem and Ramdas Pophale) SiO2 
 PCOD9292069
Probable space group: C 2/C
;
_chemical_formula_sum "Si O2"
_cell_formula_units_Z 40
_cell_length_a 14.421877
_cell_length_b 17.838424
_cell_length_c 14.376150
_cell_angle_alpha 90.000000
_cell_angle_beta 29.800780
_cell_angle_gamma 90.000000
_cell_volume 1838.081750
_symmetry_space_group_name_H-M "C 2/C"
_symmetry_group_IT_number 15
_symmetry_cell_setting 'monoclinic'
loop_
_space_group_symop_operation_xyz
x,y,z
-x,y,1/2-z
-x,-y,-z
x,-y,1/2+z
1/2+x,1/2+y,z
1/2-x,1/2+y,1/2-z
1/2-x,1/2-y,-z
1/2+x,1/2-y,1/2+z
loop_
_atom_site_type_symbol
_atom_site_label
_atom_site_fract_x
_atom_site_fract_y
_atom_site_fract_z
Si Si1 0.690386 0.567359 0.284762
Si Si2 0.826110 0.986098 0.009962
Si Si3 0.000000 0.885551 0.250000
Si Si4 0.508493 0.834836 0.442907
Si Si5 0.000000 0.368811 0.250000
Si Si6 0.929554 0.183664 0.615650
O O1 0.723269 0.511522 0.341892
O O2 0.542107 0.539300 0.337040
O O3 0.584762 0.636993 0.425342
O O4 0.883113 0.593688 0.074432
O O5 0.680544 0.923189 0.104866
O O6 0.840115 0.058425 0.930071
O O7 0.947881 0.833335 0.208632
O O8 0.476450 0.818637 0.362151
O O9 0.726859 0.846040 0.265148
O O10 0.449154 0.768337 0.563664
#
# Coordination Sequence:
#
# PCOD9292069 Si02
#       6
#     8   8   4   8   4   8
#     4  10  22  45  69  94 143 173 215 284 333 394
#     4  10  22  43  66 104 134 175 222 274 338 400
#     4  10  24  44  70  96 138 176 226 278 334 402
#     4  12  25  44  68  97 138 178 225 277 329 402
#     4  12  26  40  70 106 128 184 226 266 346 396
#     4  11  24  46  65 102 134 181 224 275 338 391
#
# _framework density 21.761818999999999
#
# number of rings (size 3 to 8) (size 9 to 14) (size 15 to 20)
#    0.000    1.200    4.000    1.200    2.800    2.400 
#    0.000    0.000    0.000    0.000    0.000    0.000 
#    0.000    0.000    0.000    0.000    0.000    0.000 
#
# Total GULP energy -111776.938757 kJ/mol
# GULP energy per Si atom -5588.846938 kJ/mol
# Density = 2.171229 g / cm^3
# Si number density = 21.761819 Si / 1000 Ang^3
#
#
#
# Elastic Constant Matrix: (Units=GPa)
#
#
# Indices 1 2 3 4 5 6 
#
# 1 124.3629 33.9194 16.0770 0.0130 20.0760 -0.0069
# 2 33.9194 67.0597 10.3462 0.0195 15.7967 -0.0191
# 3 16.0770 10.3462 68.5095 0.0260 0.1316 -0.0241
# 4 0.0130 0.0195 0.0260 26.0072 -0.0141 11.4299
# 5 20.0760 15.7967 0.1316 -0.0141 23.0961 0.0095
# 6 -0.0069 -0.0191 -0.0241 11.4299 0.0095 32.2415
#
#
#
# Elastic Compliance Matrix: (Units=1/GPa)
#
#
# Indices 1 2 3 4 5 6 
#
# 1 0.010267 -0.003339 -0.001892 -0.000006 -0.006629 0.000003
# 2 -0.003339 0.019361 -0.002120 -0.000026 -0.010327 0.000021
# 3 -0.001892 -0.002120 0.015355 -0.000018 0.003008 0.000015
# 4 -0.000006 -0.000026 -0.000018 0.045547 0.000057 -0.016147
# 5 -0.006629 -0.010327 0.003008 0.000057 0.056106 -0.000042
# 6 0.000003 0.000021 0.000015 -0.016147 -0.000042 0.036740
#
#
# Mechanical properties :
#
#
# Convention : Reuss Voigt Hill
#
# Bulk Modulus (GPa) = 33.02648 42.29082 37.65865
# Shear Modulus (GPa) = 24.01847 29.57493 26.79670
#
# Velocity S-wave (km/s) = 3.32580 3.69050 3.51289
# Velocity P-wave (km/s) = 5.47332 6.13477 5.81346
#
# Compressibility (1/GPa) = 0.03027873
#
# Stress axis : x y z
#
# Youngs Moduli (GPa) = 97.40355 51.65009 65.12537
#
# Poissons Ratio (x) = 0.17248 0.12323
# Poissons Ratio (y) = 0.32527 0.13809
# Poissons Ratio (z) = 0.18431 0.10952
#
# Static dielectric constant tensor:
#      x y z
#    x 1.798130 0.000000 0.021580 
#    y 0.000000 1.819740 0.000010 
#    z 0.021580 0.000010 1.775160 
# 
# From -- ./inp_files/56869.got.cif
#   From: 2010.05.17/outbox.cif.g08.bks.cpg/sg15_29_cif.got.tgz:56869.got - 2010.06.03 18:47:42.
