data_PCOD9292184
_publ_section_title
;
Structure prediction by ZEFSAII (Michael W. Deem and Ramdas Pophale) SiO2 
 PCOD9292184
Probable space group: C 2/C
;
_chemical_formula_sum "Si O2"
_cell_formula_units_Z 56
_cell_length_a 15.440223
_cell_length_b 14.381624
_cell_length_c 11.009978
_cell_angle_alpha 90.000000
_cell_angle_beta 77.128345
_cell_angle_gamma 90.000000
_cell_volume 2383.391207
_symmetry_space_group_name_H-M "C 2/C"
_symmetry_group_IT_number 15
_symmetry_cell_setting 'monoclinic'
loop_
_space_group_symop_operation_xyz
x,y,z
-x,y,1/2-z
-x,-y,-z
x,-y,1/2+z
1/2+x,1/2+y,z
1/2-x,1/2+y,1/2-z
1/2-x,1/2-y,-z
1/2+x,1/2-y,1/2+z
loop_
_atom_site_type_symbol
_atom_site_label
_atom_site_fract_x
_atom_site_fract_y
_atom_site_fract_z
Si Si1 0.770847 0.064971 0.302259
Si Si2 0.185597 0.857918 0.262579
Si Si3 0.425607 0.320567 0.631722
Si Si4 0.082099 0.728824 0.126783
Si Si5 0.360802 0.823635 0.344216
Si Si6 0.895861 0.537671 0.310076
Si Si7 0.614361 0.350148 0.527226
O O1 0.840443 0.115105 0.187746
O O2 0.670730 0.069055 0.278936
O O3 0.804369 0.106739 0.420255
O O4 0.787821 0.955064 0.303015
O O5 0.157975 0.784104 0.173138
O O6 0.262556 0.814995 0.321300
O O7 0.112757 0.878560 0.388463
O O8 0.431548 0.281652 0.493942
O O9 0.416060 0.229751 0.721426
O O10 0.519629 0.373579 0.616926
O O11 0.110693 0.622470 0.093518
O O12 0.000000 0.728868 0.250000
O O13 0.376815 0.761339 0.457361
O O14 0.373832 0.933062 0.356447
O O15 0.000000 0.532787 0.250000
#
# Coordination Sequence:
#
# PCOD9292184 Si02
#       7
#     8   8   8   8   8   8   8
#     4  10  24  41  68  99 129 174 223 263 329 391
#     4  11  24  41  64  98 134 175 218 270 325 389
#     4  11  23  43  69  96 134 174 217 269 326 389
#     4  11  23  42  63  98 136 171 215 269 330 387
#     4  10  22  43  67  95 126 175 227 266 322 389
#     4  10  22  44  65  94 136 165 218 273 323 388
#     4  11  22  43  68  97 134 175 215 272 324 388
#
# _framework density 23.495933999999998
#
# number of rings (size 3 to 8) (size 9 to 14) (size 15 to 20)
#    0.000    1.429    1.429    4.714    2.000    4.000 
#   10.286    2.143    0.000    0.000    0.000    0.000 
#    0.000    0.000    0.000    0.000    0.000    0.000 
#
# Total GULP energy -156355.253214 kJ/mol
# GULP energy per Si atom -5584.116186 kJ/mol
# Density = 2.344246 g / cm^3
# Si number density = 23.495934 Si / 1000 Ang^3
#
#
#
# Elastic Constant Matrix: (Units=GPa)
#
#
# Indices 1 2 3 4 5 6 
#
# 1 124.3211 34.8648 9.9725 0.0000 5.5106 0.0000
# 2 34.8648 78.0332 8.8007 0.0000 10.8210 0.0000
# 3 9.9725 8.8007 51.9355 0.0000 -1.5570 0.0000
# 4 0.0000 0.0000 0.0000 9.9814 0.0000 0.3301
# 5 5.5106 10.8210 -1.5570 0.0000 23.5209 0.0000
# 6 0.0000 0.0000 0.0000 0.3301 0.0000 29.3990
#
#
#
# Elastic Compliance Matrix: (Units=1/GPa)
#
#
# Indices 1 2 3 4 5 6 
#
# 1 0.009261 -0.003952 -0.001121 0.000000 -0.000426 0.000000
# 2 -0.003952 0.015710 -0.002096 0.000000 -0.006441 0.000000
# 3 -0.001121 -0.002096 0.019901 0.000000 0.002545 0.000000
# 4 0.000000 0.000000 0.000000 0.100223 0.000000 -0.001125
# 5 -0.000426 -0.006441 0.002545 0.000000 0.045747 0.000000
# 6 0.000000 0.000000 0.000000 -0.001125 0.000000 0.034027
#
#
# Mechanical properties :
#
#
# Convention : Reuss Voigt Hill
#
# Bulk Modulus (GPa) = 32.75145 40.17398 36.46272
# Shear Modulus (GPa) = 20.04913 25.95705 23.00309
#
# Velocity S-wave (km/s) = 2.92430 3.32738 3.13233
# Velocity P-wave (km/s) = 5.03702 5.64777 5.35111
#
# Compressibility (1/GPa) = 0.03053299
#
# Stress axis : x y z
#
# Youngs Moduli (GPa) = 107.98129 63.65197 50.24752
#
# Poissons Ratio (x) = 0.25157 0.05634
# Poissons Ratio (y) = 0.42676 0.10534
# Poissons Ratio (z) = 0.12108 0.13344
#
# Static dielectric constant tensor:
#      x y z
#    x 2.004550 0.000000 -0.061320 
#    y 0.000000 1.862930 0.000000 
#    z -0.061320 0.000000 1.909820 
# 
# From -- ./inp_files/97025.got.cif
#   From: 2010.05.17/outbox.cif.g08.bks.cpg/sg15_49_cif.got.tgz:97025.got - 2010.06.03 18:47:42.
