data_PCOD9292150
_publ_section_title
;
Structure prediction by ZEFSAII (Michael W. Deem and Ramdas Pophale) SiO2 
 PCOD9292150
Probable space group: C 2/C
;
_chemical_formula_sum "Si O2"
_cell_formula_units_Z 48
_cell_length_a 23.888443
_cell_length_b 10.739933
_cell_length_c 18.329328
_cell_angle_alpha 90.000000
_cell_angle_beta 23.370451
_cell_angle_gamma 90.000000
_cell_volume 1865.392694
_symmetry_space_group_name_H-M "C 2/C"
_symmetry_group_IT_number 15
_symmetry_cell_setting 'monoclinic'
loop_
_space_group_symop_operation_xyz
x,y,z
-x,y,1/2-z
-x,-y,-z
x,-y,1/2+z
1/2+x,1/2+y,z
1/2-x,1/2+y,1/2-z
1/2-x,1/2-y,-z
1/2+x,1/2-y,1/2+z
loop_
_atom_site_type_symbol
_atom_site_label
_atom_site_fract_x
_atom_site_fract_y
_atom_site_fract_z
Si Si1 0.852211 0.546726 0.048000
Si Si2 0.841454 0.465428 0.299342
Si Si3 0.556733 0.366454 0.955716
Si Si4 0.957246 0.037644 0.882813
Si Si5 0.664515 0.140714 0.059451
Si Si6 0.971618 0.235516 0.158185
O O1 0.723297 0.611173 0.244009
O O2 0.802085 0.429997 0.057995
O O3 0.996250 0.503569 0.917714
O O4 0.925166 0.668986 0.923495
O O5 0.710167 0.511950 0.410389
O O6 0.825093 0.528114 0.396719
O O7 0.830998 0.317358 0.322907
O O8 0.494161 0.274667 0.970060
O O9 0.500000 0.500000 0.000000
O O10 0.514583 0.356426 0.090595
O O11 0.000000 0.068137 0.750000
O O12 0.029784 0.904317 0.812618
O O13 0.500000 0.173775 0.250000
O O14 0.750000 0.250000 0.000000
#
# Coordination Sequence:
#
# PCOD9292150 Si02
#       6
#     8   8   8   8   8   8
#     4   9  21  42  75 101 140 187 254 298 359 450
#     4   9  22  40  70 108 134 185 250 291 373 435
#     4  10  22  43  67 103 148 192 241 306 366 430
#     4  11  24  38  68 108 151 192 240 306 371 442
#     4  10  22  44  70 107 149 197 241 305 377 452
#     4   9  21  41  73 104 143 190 247 308 359 427
#
# _framework density 25.731849
#
# number of rings (size 3 to 8) (size 9 to 14) (size 15 to 20)
#    1.000    1.333    0.000    1.000    7.000    2.000 
#    0.000    5.000   11.000    0.000    0.000    0.000 
#    0.000    0.000    0.000    0.000    0.000    0.500 
#
# Total GULP energy -133616.045928 kJ/mol
# GULP energy per Si atom -5567.335247 kJ/mol
# Density = 2.567328 g / cm^3
# Si number density = 25.731849 Si / 1000 Ang^3
#
#
#
# Elastic Constant Matrix: (Units=GPa)
#
#
# Indices 1 2 3 4 5 6 
#
# 1 110.9714 61.7269 36.5751 0.0000 3.4467 0.0000
# 2 61.7269 115.1721 18.5620 0.0000 12.4022 0.0000
# 3 36.5751 18.5620 73.9591 0.0000 -16.8655 0.0000
# 4 0.0000 0.0000 0.0000 25.8776 0.0000 -2.6189
# 5 3.4467 12.4022 -16.8655 0.0000 60.9965 0.0000
# 6 0.0000 0.0000 0.0000 -2.6189 0.0000 14.6246
#
#
#
# Elastic Compliance Matrix: (Units=1/GPa)
#
#
# Indices 1 2 3 4 5 6 
#
# 1 0.014788 -0.006873 -0.005827 0.000000 -0.001049 0.000000
# 2 -0.006873 0.012658 -0.000295 0.000000 -0.002267 0.000000
# 3 -0.005827 -0.000295 0.017680 0.000000 0.005278 0.000000
# 4 0.000000 0.000000 0.000000 0.039357 0.000000 0.007048
# 5 -0.001049 -0.002267 0.005278 0.000000 0.018374 0.000000
# 6 0.000000 0.000000 0.000000 0.007048 0.000000 0.069640
#
#
# Mechanical properties :
#
#
# Convention : Reuss Voigt Hill
#
# Bulk Modulus (GPa) = 52.25908 59.31451 55.78679
# Shear Modulus (GPa) = 24.40623 32.51565 28.46094
#
# Velocity S-wave (km/s) = 3.08309 3.55862 3.32935
# Velocity P-wave (km/s) = 5.74692 6.32346 6.04207
#
# Compressibility (1/GPa) = 0.01913543
#
# Stress axis : x y z
#
# Youngs Moduli (GPa) = 67.62327 79.00094 56.56035
#
# Poissons Ratio (x) = 0.54301 0.32959
# Poissons Ratio (y) = 0.46480 0.01667
# Poissons Ratio (z) = 0.39406 0.02328
#
# Static dielectric constant tensor:
#      x y z
#    x 2.128120 0.000000 -0.027570 
#    y 0.000000 2.027210 0.000000 
#    z -0.027570 0.000000 2.170080 
# 
# From -- ./inp_files/219251.got.cif
#   From: 2010.05.17/outbox.cif.g08.bks.cpg/sg15_110_cif.got.tgz:219251.got - 2010.06.03 18:47:42.
