data_PCOD9292820
_publ_section_title
;
Structure prediction by ZEFSAII (Michael W. Deem and Ramdas Pophale) SiO2 
 PCOD9292820
Probable space group: C 2/C
;
_chemical_formula_sum "Si O2"
_cell_formula_units_Z 36
_cell_length_a 22.824873
_cell_length_b 14.021931
_cell_length_c 8.530713
_cell_angle_alpha 90.000000
_cell_angle_beta 34.276020
_cell_angle_gamma 90.000000
_cell_volume 1537.619737
_symmetry_space_group_name_H-M "C 2/C"
_symmetry_group_IT_number 15
_symmetry_cell_setting 'monoclinic'
loop_
_space_group_symop_operation_xyz
x,y,z
-x,y,1/2-z
-x,-y,-z
x,-y,1/2+z
1/2+x,1/2+y,z
1/2-x,1/2+y,1/2-z
1/2-x,1/2-y,-z
1/2+x,1/2-y,1/2+z
loop_
_atom_site_type_symbol
_atom_site_label
_atom_site_fract_x
_atom_site_fract_y
_atom_site_fract_z
Si Si1 0.652562 0.075092 0.963902
Si Si2 0.216288 0.044024 0.118081
Si Si3 0.873185 0.732928 0.262168
Si Si4 0.089863 0.077484 0.674203
Si Si5 0.500000 0.095151 0.750000
O O1 0.743691 0.052343 0.887088
O O2 0.695155 0.081081 0.694151
O O3 0.608772 0.174275 0.117217
O O4 0.579219 0.982763 0.148816
O O5 0.125876 0.012123 0.198013
O O6 0.182430 0.104258 0.344309
O O7 0.750000 0.750000 0.500000
O O8 0.926340 0.834727 0.174005
O O9 0.930035 0.664722 0.010975
O O10 0.000000 0.055676 0.750000
#
# Coordination Sequence:
#
# PCOD9292820 Si02
#       5
#     8   8   8   8   4
#     4  11  22  43  71 100 139 184 230 287 359 424
#     4  10  22  44  68  94 142 186 229 291 365 409
#     4  12  25  45  67 104 149 177 241 297 355 413
#     4  11  24  42  67 101 136 191 238 293 347 439
#     4  12  26  44  76 108 142 194 234 292 362 434
#
# _framework density 23.412811000000001
#
# number of rings (size 3 to 8) (size 9 to 14) (size 15 to 20)
#    0.000    0.889    4.444    2.667    1.556    2.667 
#    2.000    0.000    0.000    0.000    0.000    0.000 
#    0.000    0.000    0.000    0.000    0.000    0.000 
#
# Total GULP energy -100398.817901 kJ/mol
# GULP energy per Si atom -5577.712106 kJ/mol
# Density = 2.335952 g / cm^3
# Si number density = 23.412811 Si / 1000 Ang^3
#
#
#
# Elastic Constant Matrix: (Units=GPa)
#
#
# Indices 1 2 3 4 5 6 
#
# 1 103.3715 15.6065 6.7610 0.0000 -8.0739 0.0000
# 2 15.6065 100.4760 31.6130 0.0000 4.3630 0.0000
# 3 6.7610 31.6130 104.3536 0.0000 19.5399 0.0000
# 4 0.0000 0.0000 0.0000 20.7873 0.0000 4.4843
# 5 -8.0739 4.3630 19.5399 0.0000 32.2365 0.0000
# 6 0.0000 0.0000 0.0000 4.4843 0.0000 33.3763
#
#
#
# Elastic Compliance Matrix: (Units=1/GPa)
#
#
# Indices 1 2 3 4 5 6 
#
# 1 0.010203 -0.001466 -0.000826 0.000000 0.003255 0.000000
# 2 -0.001466 0.011222 -0.003329 0.000000 0.000132 0.000000
# 3 -0.000826 -0.003329 0.011956 0.000000 -0.007004 0.000000
# 4 0.000000 0.000000 0.000000 0.049542 0.000000 -0.006656
# 5 0.003255 0.000132 -0.007004 0.000000 0.036063 0.000000
# 6 0.000000 0.000000 0.000000 -0.006656 0.000000 0.030856
#
#
# Mechanical properties :
#
#
# Convention : Reuss Voigt Hill
#
# Bulk Modulus (GPa) = 45.17099 46.24021 45.70560
# Shear Modulus (GPa) = 29.67950 34.22806 31.95378
#
# Velocity S-wave (km/s) = 3.56429 3.82768 3.69833
# Velocity P-wave (km/s) = 6.02279 6.27118 6.14824
#
# Compressibility (1/GPa) = 0.02213810
#
# Stress axis : x y z
#
# Youngs Moduli (GPa) = 98.00576 89.10937 83.63756
#
# Poissons Ratio (x) = 0.13065 0.06912
# Poissons Ratio (y) = 0.14370 0.27846
# Poissons Ratio (z) = 0.08099 0.29668
#
# Static dielectric constant tensor:
#      x y z
#    x 1.947960 0.000000 -0.105220 
#    y 0.000000 1.892320 0.000000 
#    z -0.105220 0.000000 2.068110 
# 
# From -- ./inp_files/37471.got.cif
#   From: 2010.05.17/outbox.cif.g08.bks.cpg/sg15_19_cif.got.tgz:37471.got - 2010.06.03 18:47:42.
