data_PCOD9292259
_publ_section_title
;
Structure prediction by ZEFSAII (Michael W. Deem and Ramdas Pophale) SiO2 
 PCOD9292259
Probable space group: C 2/C
;
_chemical_formula_sum "Si O2"
_cell_formula_units_Z 56
_cell_length_a 15.673807
_cell_length_b 8.709972
_cell_length_c 25.384863
_cell_angle_alpha 90.000000
_cell_angle_beta 130.834681
_cell_angle_gamma 90.000000
_cell_volume 2621.996284
_symmetry_space_group_name_H-M "C 2/C"
_symmetry_group_IT_number 15
_symmetry_cell_setting 'monoclinic'
loop_
_space_group_symop_operation_xyz
x,y,z
-x,y,1/2-z
-x,-y,-z
x,-y,1/2+z
1/2+x,1/2+y,z
1/2-x,1/2+y,1/2-z
1/2-x,1/2-y,-z
1/2+x,1/2-y,1/2+z
loop_
_atom_site_type_symbol
_atom_site_label
_atom_site_fract_x
_atom_site_fract_y
_atom_site_fract_z
Si Si1 0.167361 0.021996 0.259646
Si Si2 0.164398 0.662858 0.258022
Si Si3 0.316271 0.021170 0.922129
Si Si4 0.500000 0.500000 0.000000
Si Si5 0.000000 0.226230 0.250000
Si Si6 0.943846 0.543613 0.647093
Si Si7 0.971079 0.311237 0.047083
Si Si8 0.256065 0.342455 0.915301
O O1 0.143537 0.843283 0.238085
O O2 0.236961 0.028625 0.342404
O O3 0.241727 0.096720 0.243743
O O4 0.058401 0.120714 0.230026
O O5 0.211634 0.653709 0.336421
O O6 0.050842 0.563985 0.204707
O O7 0.424497 0.098684 0.937503
O O8 0.261860 0.162567 0.931834
O O9 0.359733 0.882027 0.974787
O O10 0.517758 0.365195 0.962597
O O11 0.377589 0.420213 0.966723
O O12 0.081297 0.342162 0.314505
O O13 0.973274 0.644963 0.608608
O O14 0.838161 0.436696 0.592050
#
# Coordination Sequence:
#
# PCOD9292259 Si02
#       8
#     8   8   8   4   4   8   8   8
#     4  11  25  42  69 102 134 181 232 282 351 418
#     4  11  23  45  73  99 136 184 226 284 357 417
#     4   9  21  43  65  91 134 176 239 276 339 407
#     4  10  24  42  66  96 132 186 238 274 342 408
#     4  12  28  40  64 110 142 174 228 292 338 430
#     4  12  24  45  69 102 145 179 229 290 353 405
#     4  10  22  43  68  97 131 184 230 290 334 415
#     4  10  23  42  69  96 138 180 229 289 345 410
#
# _framework density 21.357772000000001
#
# number of rings (size 3 to 8) (size 9 to 14) (size 15 to 20)
#    0.000    1.429    2.857    0.857   10.000    1.143 
#    2.571    0.000    0.000    0.000    0.000    0.000 
#    0.000    0.000    0.000    0.000    0.000    0.000 
#
# Total GULP energy -155962.525990 kJ/mol
# GULP energy per Si atom -5570.090214 kJ/mol
# Density = 2.130916 g / cm^3
# Si number density = 21.357772 Si / 1000 Ang^3
#
#
#
# Elastic Constant Matrix: (Units=GPa)
#
#
# Indices 1 2 3 4 5 6 
#
# 1 58.9916 48.6946 -8.2731 0.0000 7.8846 0.0000
# 2 48.6946 89.8312 14.4123 0.0000 -9.5054 0.0000
# 3 -8.2731 14.4123 42.3811 0.0000 -1.5303 0.0000
# 4 0.0000 0.0000 0.0000 25.8847 0.0000 -7.6917
# 5 7.8846 -9.5054 -1.5303 0.0000 25.1051 0.0000
# 6 0.0000 0.0000 0.0000 -7.6917 0.0000 32.6195
#
#
#
# Elastic Compliance Matrix: (Units=1/GPa)
#
#
# Indices 1 2 3 4 5 6 
#
# 1 0.052389 -0.034771 0.021028 0.000000 -0.028337 0.000000
# 2 -0.034771 0.035316 -0.017960 0.000000 0.023197 0.000000
# 3 0.021028 -0.017960 0.033397 0.000000 -0.011368 0.000000
# 4 0.000000 0.000000 0.000000 0.041544 0.000000 0.009796
# 5 -0.028337 0.023197 -0.011368 0.000000 0.056822 0.000000
# 6 0.000000 0.000000 0.000000 0.009796 0.000000 0.032966
#
#
# Mechanical properties :
#
#
# Convention : Reuss Voigt Hill
#
# Bulk Modulus (GPa) = 17.33170 33.43015 25.38093
# Shear Modulus (GPa) = 14.92214 25.81320 20.36767
#
# Velocity S-wave (km/s) = 2.64611 3.48028 3.09146
# Velocity P-wave (km/s) = 4.17953 5.64236 4.96511
#
# Compressibility (1/GPa) = 0.05769774
#
# Stress axis : x y z
#
# Youngs Moduli (GPa) = 19.08781 28.31574 29.94267
#
# Poissons Ratio (x) = 0.98456 -0.62963
# Poissons Ratio (y) = 0.66370 0.53776
# Poissons Ratio (z) = -0.40138 0.50854
#
# Static dielectric constant tensor:
#      x y z
#    x 1.771180 0.000000 0.012820 
#    y 0.000000 1.757620 0.000000 
#    z 0.012820 0.000000 1.787190 
# 
# From -- ./inp_files/312969.got.cif
#   From: 2010.05.17/outbox.cif.g08.bks.cpg/sg15_157_cif.got.tgz:312969.got - 2010.06.03 18:47:42.
