data_PCOD9292436
_publ_section_title
;
Structure prediction by ZEFSAII (Michael W. Deem and Ramdas Pophale) SiO2 
 PCOD9292436
Probable space group: C 2/C
;
_chemical_formula_sum "Si O2"
_cell_formula_units_Z 44
_cell_length_a 25.351096
_cell_length_b 5.842210
_cell_length_c 14.125713
_cell_angle_alpha 90.000000
_cell_angle_beta 66.385126
_cell_angle_gamma 90.000000
_cell_volume 1916.913100
_symmetry_space_group_name_H-M "C 2/C"
_symmetry_group_IT_number 15
_symmetry_cell_setting 'monoclinic'
loop_
_space_group_symop_operation_xyz
x,y,z
-x,y,1/2-z
-x,-y,-z
x,-y,1/2+z
1/2+x,1/2+y,z
1/2-x,1/2+y,1/2-z
1/2-x,1/2-y,-z
1/2+x,1/2-y,1/2+z
loop_
_atom_site_type_symbol
_atom_site_label
_atom_site_fract_x
_atom_site_fract_y
_atom_site_fract_z
Si Si1 0.143087 0.469459 0.696712
Si Si2 0.446744 0.025424 0.411753
Si Si3 0.884221 0.766400 0.611681
Si Si4 0.500000 0.651567 0.250000
Si Si5 0.057708 0.854563 0.341271
Si Si6 0.758755 0.876392 0.689119
O O1 0.102635 0.457963 0.633908
O O2 0.132485 0.694303 0.769075
O O3 0.115947 0.282057 0.785754
O O4 0.210547 0.417941 0.643072
O O5 0.412977 0.059653 0.533172
O O6 0.500161 0.202780 0.381411
O O7 0.480135 0.800448 0.353397
O O8 0.824651 0.850317 0.609060
O O9 0.930589 0.969421 0.583327
O O10 0.550678 0.495120 0.249181
O O11 0.745991 0.620780 0.746904
#
# Coordination Sequence:
#
# PCOD9292436 Si02
#       6
#     8   8   8   4   8   8
#     4  11  22  43  66  93 136 173 217 279 339 400
#     4  12  24  41  65 100 130 174 225 269 343 407
#     4  11  25  41  68  97 130 173 228 277 331 410
#     4  12  22  40  62  92 132 174 210 274 344 394
#     4  12  21  42  63  93 130 173 216 273 337 403
#     4  10  22  43  71  97 135 182 226 282 344 396
#
# _framework density 22.953571
#
# number of rings (size 3 to 8) (size 9 to 14) (size 15 to 20)
#    0.000    0.727    7.273    0.545    0.000    5.091 
#    0.000    0.000    0.000    6.545    0.000    0.000 
#    0.000    0.000    0.000    0.000    0.000    0.000 
#
# Total GULP energy -122514.459957 kJ/mol
# GULP energy per Si atom -5568.839089 kJ/mol
# Density = 2.290133 g / cm^3
# Si number density = 22.953571 Si / 1000 Ang^3
#
#
#
# Elastic Constant Matrix: (Units=GPa)
#
#
# Indices 1 2 3 4 5 6 
#
# 1 173.8355 31.2448 20.0617 0.0000 -11.1270 0.0000
# 2 31.2448 77.7152 5.3891 0.0000 -4.6121 0.0000
# 3 20.0617 5.3891 43.2151 0.0000 -1.3472 0.0000
# 4 0.0000 0.0000 0.0000 14.1033 0.0000 6.7598
# 5 -11.1270 -4.6121 -1.3472 0.0000 14.5153 0.0000
# 6 0.0000 0.0000 0.0000 6.7598 0.0000 27.3723
#
#
#
# Elastic Compliance Matrix: (Units=1/GPa)
#
#
# Indices 1 2 3 4 5 6 
#
# 1 0.006743 -0.002274 -0.002716 0.000000 0.004195 0.000000
# 2 -0.002274 0.013980 -0.000605 0.000000 0.002643 0.000000
# 3 -0.002716 -0.000605 0.024476 0.000000 -0.000003 0.000000
# 4 0.000000 0.000000 0.000000 0.080425 0.000000 -0.019862
# 5 0.004195 0.002643 -0.000003 0.000000 0.072948 0.000000
# 6 0.000000 0.000000 0.000000 -0.019862 0.000000 0.041438
#
#
# Mechanical properties :
#
#
# Convention : Reuss Voigt Hill
#
# Bulk Modulus (GPa) = 29.40365 45.35080 37.37722
# Shear Modulus (GPa) = 19.04483 27.06952 23.05718
#
# Velocity S-wave (km/s) = 2.88360 3.43784 3.17284
# Velocity P-wave (km/s) = 4.89129 5.96313 5.45360
#
# Compressibility (1/GPa) = 0.03400939
#
# Stress axis : x y z
#
# Youngs Moduli (GPa) = 148.29773 71.52825 40.85575
#
# Poissons Ratio (x) = 0.16264 0.11097
# Poissons Ratio (y) = 0.33720 0.02474
# Poissons Ratio (z) = 0.40279 0.04331
#
# Static dielectric constant tensor:
#      x y z
#    x 1.847600 0.000000 0.026280 
#    y 0.000000 1.956490 0.000000 
#    z 0.026280 0.000000 1.850980 
# 
# From -- ./inp_files/175369.got.cif
#   From: 2010.05.17/outbox.cif.g08.bks.cpg/sg15_88_cif.got.tgz:175369.got - 2010.06.03 18:47:42.
