data_PCOD9292804
_publ_section_title
;
Structure prediction by ZEFSAII (Michael W. Deem and Ramdas Pophale) SiO2 
 PCOD9292804
Probable space group: C 2/C
;
_chemical_formula_sum "Si O2"
_cell_formula_units_Z 60
_cell_length_a 21.894931
_cell_length_b 20.052310
_cell_length_c 21.552228
_cell_angle_alpha 90.000000
_cell_angle_beta 17.886917
_cell_angle_gamma 90.000000
_cell_volume 2906.267491
_symmetry_space_group_name_H-M "C 2/C"
_symmetry_group_IT_number 15
_symmetry_cell_setting 'monoclinic'
loop_
_space_group_symop_operation_xyz
x,y,z
-x,y,1/2-z
-x,-y,-z
x,-y,1/2+z
1/2+x,1/2+y,z
1/2-x,1/2+y,1/2-z
1/2-x,1/2-y,-z
1/2+x,1/2-y,1/2+z
loop_
_atom_site_type_symbol
_atom_site_label
_atom_site_fract_x
_atom_site_fract_y
_atom_site_fract_z
Si Si1 0.795454 0.195951 0.121971
Si Si2 0.591765 0.854235 0.361094
Si Si3 0.254932 0.374957 0.886540
Si Si4 0.511456 0.700767 0.433822
Si Si5 0.892622 0.972477 0.920226
Si Si6 0.500000 0.902394 0.250000
Si Si7 0.993452 0.884954 0.182956
Si Si8 0.358675 0.851299 0.052395
O O1 0.891698 0.174594 0.095094
O O2 0.585006 0.161188 0.317464
O O3 0.775010 0.275863 0.143778
O O4 0.915225 0.174228 0.945691
O O5 0.428330 0.894534 0.481116
O O6 0.496375 0.779782 0.461316
O O7 0.642060 0.884285 0.379201
O O8 0.801834 0.836148 0.127198
O O9 0.359929 0.311831 0.752267
O O10 0.439527 0.426335 0.709940
O O11 0.141979 0.365271 0.061869
O O12 0.000000 0.980918 0.750000
O O13 0.671057 0.943569 0.122598
O O14 0.892487 0.047291 0.945912
O O15 0.767544 0.889173 0.376814
O O16 0.000000 0.873018 0.250000
#
# Coordination Sequence:
#
# PCOD9292804 Si02
#       8
#     8   8   8   8   8   4   8   8
#     4  11  20  37  61  87 127 162 200 241 298 361
#     4  11  19  35  64  90 125 163 199 237 298 365
#     4  11  21  38  65  94 117 157 205 247 296 357
#     4  11  19  35  62  93 120 165 201 235 294 370
#     4   9  22  43  65  83 114 162 211 244 292 363
#     4  10  22  44  68  82 116 160 202 250 302 352
#     4  11  24  40  61  89 120 158 209 253 293 360
#     4  11  20  38  60  90 124 165 198 242 301 359
#
# _framework density 20.645036999999999
#
# number of rings (size 3 to 8) (size 9 to 14) (size 15 to 20)
#    0.000    1.333    5.333    2.400    0.000    4.267 
#    0.000    2.000    1.467    0.000    0.000    0.000 
#    0.000    0.000    0.000    0.000    0.000    0.000 
#
# Total GULP energy -167032.520773 kJ/mol
# GULP energy per Si atom -5567.750692 kJ/mol
# Density = 2.059805 g / cm^3
# Si number density = 20.645037 Si / 1000 Ang^3
#
#
#
# Elastic Constant Matrix: (Units=GPa)
#
#
# Indices 1 2 3 4 5 6 
#
# 1 119.1417 33.4555 43.4977 0.0573 -19.5560 0.0002
# 2 33.4555 19.6613 2.9789 0.0402 -5.4983 0.0019
# 3 43.4977 2.9789 122.6234 0.1529 -20.3248 0.0780
# 4 0.0573 0.0402 0.1529 14.7461 0.0014 0.6336
# 5 -19.5560 -5.4983 -20.3248 0.0014 44.5569 -0.0117
# 6 0.0002 0.0019 0.0780 0.6336 -0.0117 33.6150
#
#
#
# Elastic Compliance Matrix: (Units=1/GPa)
#
#
# Indices 1 2 3 4 5 6 
#
# 1 0.020116 -0.032747 -0.006000 0.000072 0.002051 0.000015
# 2 -0.032747 0.105994 0.009549 -0.000260 0.003063 -0.000022
# 3 -0.006000 0.009549 0.010613 -0.000112 0.003386 -0.000022
# 4 0.000072 -0.000260 -0.000112 0.067871 -0.000054 -0.001279
# 5 0.002051 0.003063 0.003386 -0.000054 0.025266 0.000002
# 6 0.000015 -0.000022 -0.000022 -0.001279 0.000002 0.029773
#
#
# Mechanical properties :
#
#
# Convention : Reuss Voigt Hill
#
# Bulk Modulus (GPa) = 12.76702 46.81005 29.78853
# Shear Modulus (GPa) = 14.52908 30.68321 22.60614
#
# Velocity S-wave (km/s) = 2.65572 3.85934 3.31266
# Velocity P-wave (km/s) = 3.94985 6.52552 5.39368
#
# Compressibility (1/GPa) = 0.07832681
#
# Stress axis : x y z
#
# Youngs Moduli (GPa) = 49.71137 9.43452 94.22467
#
# Poissons Ratio (x) = 0.30895 0.56538
# Poissons Ratio (y) = 1.62790 -0.89978
# Poissons Ratio (z) = 0.29829 -0.09009
#
# Static dielectric constant tensor:
#      x y z
#    x 1.779920 -0.000020 -0.024260 
#    y -0.000020 1.765020 0.000050 
#    z -0.024260 0.000050 1.822830 
# 
# From -- ./inp_files/253514.got.cif
#   From: 2010.05.17/outbox.cif.g08.bks.cpg/sg15_127_cif.got.tgz:253514.got - 2010.06.03 18:47:42.
