data_PCOD9292443
_publ_section_title
;
Structure prediction by ZEFSAII (Michael W. Deem and Ramdas Pophale) SiO2 
 PCOD9292443
Probable space group: C 2/C
;
_chemical_formula_sum "Si O2"
_cell_formula_units_Z 32
_cell_length_a 19.619207
_cell_length_b 8.017395
_cell_length_c 8.431282
_cell_angle_alpha 90.000000
_cell_angle_beta 120.104580
_cell_angle_gamma 90.000000
_cell_volume 1147.308854
_symmetry_space_group_name_H-M "C 2/C"
_symmetry_group_IT_number 15
_symmetry_cell_setting 'monoclinic'
loop_
_space_group_symop_operation_xyz
x,y,z
-x,y,1/2-z
-x,-y,-z
x,-y,1/2+z
1/2+x,1/2+y,z
1/2-x,1/2+y,1/2-z
1/2-x,1/2-y,-z
1/2+x,1/2-y,1/2+z
loop_
_atom_site_type_symbol
_atom_site_label
_atom_site_fract_x
_atom_site_fract_y
_atom_site_fract_z
Si Si1 0.674122 0.850413 0.321969
Si Si2 0.306348 0.476308 0.100919
Si Si3 0.099567 0.831662 0.012278
Si Si4 0.969127 0.670862 0.037817
O O1 0.711457 0.663881 0.351725
O O2 0.726457 0.016786 0.403732
O O3 0.618128 0.818213 0.410410
O O4 0.622744 0.846429 0.103100
O O5 0.336115 0.354328 0.271259
O O6 0.381002 0.506686 0.072295
O O7 0.013626 0.810537 0.983913
O O8 0.000000 0.686190 0.250000
O O9 0.000000 0.500000 0.000000
#
# Coordination Sequence:
#
# PCOD9292443 Si02
#       4
#     8   8   8   8
#     4   9  22  47  64 101 146 171 233 286 347 412
#     4   9  22  43  68 100 141 174 231 290 341 410
#     4  10  22  43  72 100 136 185 232 283 348 416
#     4  12  27  46  69  98 137 186 232 287 355 418
#
# _framework density 27.891356999999999
#
# number of rings (size 3 to 8) (size 9 to 14) (size 15 to 20)
#    1.500    0.500    0.000    2.250    3.500    5.000 
#    0.000    3.750    0.000    0.000    0.000    0.000 
#    0.000    0.000    0.000    0.000    0.000    0.000 
#
# Total GULP energy -89217.315581 kJ/mol
# GULP energy per Si atom -5576.082224 kJ/mol
# Density = 2.782788 g / cm^3
# Si number density = 27.891357 Si / 1000 Ang^3
#
#
#
# Elastic Constant Matrix: (Units=GPa)
#
#
# Indices 1 2 3 4 5 6 
#
# 1 53.5910 -9.1320 43.0388 0.0000 -14.9650 0.0000
# 2 -9.1320 71.1009 36.7771 0.0000 0.6333 0.0000
# 3 43.0388 36.7771 167.6461 0.0000 5.3426 0.0000
# 4 0.0000 0.0000 0.0000 45.6077 0.0000 0.4570
# 5 -14.9650 0.6333 5.3426 0.0000 55.5995 0.0000
# 6 0.0000 0.0000 0.0000 0.4570 0.0000 19.0788
#
#
#
# Elastic Compliance Matrix: (Units=1/GPa)
#
#
# Indices 1 2 3 4 5 6 
#
# 1 0.031095 0.009242 -0.010305 0.000000 0.009254 0.000000
# 2 0.009242 0.018613 -0.006548 0.000000 0.002905 0.000000
# 3 -0.010305 -0.006548 0.010164 0.000000 -0.003676 0.000000
# 4 0.000000 0.000000 0.000000 0.021931 0.000000 -0.000525
# 5 0.009254 0.002905 -0.003676 0.000000 0.020797 0.000000
# 6 0.000000 0.000000 0.000000 -0.000525 0.000000 0.052427
#
#
# Mechanical properties :
#
#
# Convention : Reuss Voigt Hill
#
# Bulk Modulus (GPa) = 22.39723 48.18955 35.29339
# Shear Modulus (GPa) = 27.00760 38.83413 32.92086
#
# Velocity S-wave (km/s) = 3.11515 3.73545 3.43931
# Velocity P-wave (km/s) = 4.58110 5.99332 5.33415
#
# Compressibility (1/GPa) = 0.04464838
#
# Stress axis : x y z
#
# Youngs Moduli (GPa) = 32.15960 53.72666 98.38467
#
# Poissons Ratio (x) = -0.49652 1.01387
# Poissons Ratio (y) = -0.29721 0.64425
# Poissons Ratio (z) = 0.33141 0.35182
#
# Static dielectric constant tensor:
#      x y z
#    x 2.489470 0.000000 0.347850 
#    y 0.000000 2.185860 0.000000 
#    z 0.347850 0.000000 2.625650 
# 
# From -- ./inp_files/59668.got.cif
#   From: 2010.05.17/outbox.cif.g08.bks.cpg/sg15_30_cif.got.tgz:59668.got - 2010.06.03 18:47:42.
