data_PCOD9292442
_publ_section_title
;
Structure prediction by ZEFSAII (Michael W. Deem and Ramdas Pophale) SiO2 
 PCOD9292442
Probable space group: C 2/C
;
_chemical_formula_sum "Si O2"
_cell_formula_units_Z 64
_cell_length_a 24.772952
_cell_length_b 11.348033
_cell_length_c 14.715298
_cell_angle_alpha 90.000000
_cell_angle_beta 140.782278
_cell_angle_gamma 90.000000
_cell_volume 2615.587661
_symmetry_space_group_name_H-M "C 2/C"
_symmetry_group_IT_number 15
_symmetry_cell_setting 'monoclinic'
loop_
_space_group_symop_operation_xyz
x,y,z
-x,y,1/2-z
-x,-y,-z
x,-y,1/2+z
1/2+x,1/2+y,z
1/2-x,1/2+y,1/2-z
1/2-x,1/2-y,-z
1/2+x,1/2-y,1/2+z
loop_
_atom_site_type_symbol
_atom_site_label
_atom_site_fract_x
_atom_site_fract_y
_atom_site_fract_z
Si Si1 0.112296 0.288878 0.784556
Si Si2 0.067743 0.835750 0.904843
Si Si3 0.805132 0.433227 0.455598
Si Si4 0.193350 0.251000 0.713528
Si Si5 0.495336 0.583178 0.848833
Si Si6 0.297162 0.624878 0.069848
Si Si7 0.050891 0.425515 0.992324
Si Si8 0.636637 0.694927 0.160429
O O1 0.169443 0.322331 0.772562
O O2 0.091671 0.150410 0.739422
O O3 0.022600 0.356732 0.659717
O O4 0.157307 0.323630 0.936384
O O5 0.146450 0.888560 0.947275
O O6 0.000000 0.770431 0.750000
O O7 0.014288 0.945764 0.872297
O O8 0.110654 0.766167 0.042794
O O9 0.733973 0.374701 0.297702
O O10 0.768122 0.524943 0.480752
O O11 0.882263 0.480468 0.492676
O O12 0.268377 0.312805 0.755555
O O13 0.500000 0.621438 0.750000
O O14 0.569693 0.632729 0.008272
O O15 0.360099 0.641244 0.236648
O O16 0.250000 0.750000 0.000000
O O17 0.106936 0.330165 0.120763
O O18 0.000000 0.500000 0.000000
#
# Coordination Sequence:
#
# PCOD9292442 Si02
#       8
#     8   8   8   8   8   8   8   8
#     4  11  24  42  73 105 143 184 237 300 356 425
#     4  11  27  44  70 104 143 190 240 289 375 439
#     4  11  26  45  72 107 141 188 248 291 369 432
#     4  11  24  43  71 105 139 189 238 295 368 431
#     4  10  22  43  71  99 142 178 233 298 357 426
#     4  12  27  48  70 102 146 190 239 299 359 435
#     4  10  24  43  72 103 141 187 237 296 362 427
#     4  10  23  45  69 102 145 178 243 299 356 433
#
# _framework density 24.468689000000001
#
# number of rings (size 3 to 8) (size 9 to 14) (size 15 to 20)
#    0.000    1.250    1.250    3.750   12.250    0.500 
#    0.000    0.000    0.000    0.000    0.000    0.000 
#    0.000    0.000    0.000    0.000    0.000    0.000 
#
# Total GULP energy -179035.865079 kJ/mol
# GULP energy per Si atom -5594.870784 kJ/mol
# Density = 2.441300 g / cm^3
# Si number density = 24.468689 Si / 1000 Ang^3
#
#
#
# Elastic Constant Matrix: (Units=GPa)
#
#
# Indices 1 2 3 4 5 6 
#
# 1 158.3305 38.7658 21.6206 0.0000 12.6274 0.0000
# 2 38.7658 58.3458 26.2324 0.0000 13.6330 0.0000
# 3 21.6206 26.2324 128.8506 0.0000 -7.5372 0.0000
# 4 0.0000 0.0000 0.0000 20.2099 0.0000 -4.1317
# 5 12.6274 13.6330 -7.5372 0.0000 33.9419 0.0000
# 6 0.0000 0.0000 0.0000 -4.1317 0.0000 32.5772
#
#
#
# Elastic Compliance Matrix: (Units=1/GPa)
#
#
# Indices 1 2 3 4 5 6 
#
# 1 0.007584 -0.004615 -0.000395 0.000000 -0.001056 0.000000
# 2 -0.004615 0.024482 -0.004746 0.000000 -0.009171 0.000000
# 3 -0.000395 -0.004746 0.009031 0.000000 0.004059 0.000000
# 4 0.000000 0.000000 0.000000 0.050798 0.000000 0.006443
# 5 -0.001056 -0.009171 0.004059 0.000000 0.034440 0.000000
# 6 0.000000 0.000000 0.000000 0.006443 0.000000 0.031513
#
#
# Mechanical properties :
#
#
# Convention : Reuss Voigt Hill
#
# Bulk Modulus (GPa) = 46.32825 57.64049 51.98437
# Shear Modulus (GPa) = 27.09230 34.60634 30.84932
#
# Velocity S-wave (km/s) = 3.33111 3.76481 3.55458
# Velocity P-wave (km/s) = 5.81118 6.51969 6.17561
#
# Compressibility (1/GPa) = 0.02158510
#
# Stress axis : x y z
#
# Youngs Moduli (GPa) = 131.85897 40.84634 110.73108
#
# Poissons Ratio (x) = 0.18849 0.04372
# Poissons Ratio (y) = 0.60849 0.52557
# Poissons Ratio (z) = 0.05206 0.19387
#
# Static dielectric constant tensor:
#      x y z
#    x 1.949500 0.000000 0.004710 
#    y 0.000000 2.046080 0.000000 
#    z 0.004710 0.000000 1.897170 
# 
# From -- ./inp_files/177872.got.cif
#   From: 2010.05.17/outbox.cif.g08.bks.cpg/sg15_89_cif.got.tgz:177872.got - 2010.06.03 18:47:42.
