data_PCOD9292239
_publ_section_title
;
Structure prediction by ZEFSAII (Michael W. Deem and Ramdas Pophale) SiO2 
 PCOD9292239
Probable space group: C 2/C
;
_chemical_formula_sum "Si O2"
_cell_formula_units_Z 48
_cell_length_a 9.870154
_cell_length_b 16.353250
_cell_length_c 15.093103
_cell_angle_alpha 90.000000
_cell_angle_beta 82.394964
_cell_angle_gamma 90.000000
_cell_volume 2414.735395
_symmetry_space_group_name_H-M "C 2/C"
_symmetry_group_IT_number 15
_symmetry_cell_setting 'monoclinic'
loop_
_space_group_symop_operation_xyz
x,y,z
-x,y,1/2-z
-x,-y,-z
x,-y,1/2+z
1/2+x,1/2+y,z
1/2-x,1/2+y,1/2-z
1/2-x,1/2-y,-z
1/2+x,1/2-y,1/2+z
loop_
_atom_site_type_symbol
_atom_site_label
_atom_site_fract_x
_atom_site_fract_y
_atom_site_fract_z
Si Si1 0.648200 0.860153 0.280055
Si Si2 0.921635 0.824489 0.165899
Si Si3 0.379457 0.132744 0.192816
Si Si4 0.644097 0.990587 0.437297
Si Si5 0.413161 0.418390 0.499969
Si Si6 0.884886 0.823664 0.683641
O O1 0.500000 0.865327 0.250000
O O2 0.769160 0.860385 0.196186
O O3 0.652503 0.930012 0.352530
O O4 0.655684 0.771210 0.325975
O O5 0.910586 0.726024 0.159808
O O6 0.986940 0.863914 0.418373
O O7 0.000000 0.842292 0.250000
O O8 0.500000 0.105020 0.250000
O O9 0.246387 0.133101 0.264843
O O10 0.342867 0.078898 0.110587
O O11 0.761390 0.951969 0.489723
O O12 0.500000 0.000000 0.500000
O O13 0.500000 0.500000 0.500000
O O14 0.421134 0.367231 0.589592
O O15 0.000000 0.826450 0.750000
#
# Coordination Sequence:
#
# PCOD9292239 Si02
#       6
#     8   8   8   8   8   8
#     4  10  23  43  68  93 136 176 219 279 342 397
#     4  10  22  45  69  99 131 183 228 276 337 403
#     4  10  22  43  68  93 136 181 223 276 336 399
#     4  12  26  40  64 104 135 175 220 278 343 405
#     4  12  27  41  70 101 133 178 228 281 340 403
#     4  10  23  45  66  96 130 177 226 281 337 398
#
# _framework density 19.877953999999999
#
# number of rings (size 3 to 8) (size 9 to 14) (size 15 to 20)
#    0.000    1.333    1.667    2.500    7.000    1.333 
#    0.000    3.333    0.000    0.000    0.000    0.000 
#    0.000    0.000    0.000    0.000    0.000    0.000 
#
# Total GULP energy -133946.674004 kJ/mol
# GULP energy per Si atom -5581.111417 kJ/mol
# Density = 1.983271 g / cm^3
# Si number density = 19.877954 Si / 1000 Ang^3
#
#
#
# Elastic Constant Matrix: (Units=GPa)
#
#
# Indices 1 2 3 4 5 6 
#
# 1 121.4697 27.5981 38.9134 0.0000 -13.9278 0.0000
# 2 27.5981 60.4405 64.7954 0.0000 -19.0797 0.0000
# 3 38.9134 64.7954 119.9511 0.0000 -24.6527 0.0000
# 4 0.0000 0.0000 0.0000 18.0921 0.0000 -16.6759
# 5 -13.9278 -19.0797 -24.6527 0.0000 30.3565 0.0000
# 6 0.0000 0.0000 0.0000 -16.6759 0.0000 42.5999
#
#
#
# Elastic Compliance Matrix: (Units=1/GPa)
#
#
# Indices 1 2 3 4 5 6 
#
# 1 0.009405 -0.002037 -0.001593 0.000000 0.001741 0.000000
# 2 -0.002037 0.041890 -0.020104 0.000000 0.009068 0.000000
# 3 -0.001593 -0.020104 0.020365 0.000000 0.003172 0.000000
# 4 0.000000 0.000000 0.000000 0.086473 0.000000 0.033850
# 5 0.001741 0.009068 0.003172 0.000000 0.042016 0.000000
# 6 0.000000 0.000000 0.000000 0.033850 0.000000 0.036725
#
#
# Mechanical properties :
#
#
# Convention : Reuss Voigt Hill
#
# Bulk Modulus (GPa) = 41.33475 62.71948 52.02711
# Shear Modulus (GPa) = 17.09944 29.58001 23.33973
#
# Velocity S-wave (km/s) = 2.93613 3.86175 3.43031
# Velocity P-wave (km/s) = 5.68629 7.17669 6.47452
#
# Compressibility (1/GPa) = 0.02419272
#
# Stress axis : x y z
#
# Youngs Moduli (GPa) = 106.32301 23.87187 49.10363
#
# Poissons Ratio (x) = 0.04864 0.07821
# Poissons Ratio (y) = 0.21663 0.98717
# Poissons Ratio (z) = 0.16934 0.47991
#
# Static dielectric constant tensor:
#      x y z
#    x 1.970190 0.000000 0.181140 
#    y 0.000000 1.730520 0.000000 
#    z 0.181140 0.000000 1.812410 
# 
# From -- ./inp_files/87390.got.cif
#   From: 2010.05.17/outbox.cif.g08.bks.cpg/sg15_44_cif.got.tgz:87390.got - 2010.06.03 18:47:42.
