data_PCOD9292151
_publ_section_title
;
Structure prediction by ZEFSAII (Michael W. Deem and Ramdas Pophale) SiO2 
 PCOD9292151
Probable space group: C 2/C
;
_chemical_formula_sum "Si O2"
_cell_formula_units_Z 60
_cell_length_a 27.414791
_cell_length_b 7.640400
_cell_length_c 20.546929
_cell_angle_alpha 90.000000
_cell_angle_beta 147.123999
_cell_angle_gamma 90.000000
_cell_volume 2336.178219
_symmetry_space_group_name_H-M "C 2/C"
_symmetry_group_IT_number 15
_symmetry_cell_setting 'monoclinic'
loop_
_space_group_symop_operation_xyz
x,y,z
-x,y,1/2-z
-x,-y,-z
x,-y,1/2+z
1/2+x,1/2+y,z
1/2-x,1/2+y,1/2-z
1/2-x,1/2-y,-z
1/2+x,1/2-y,1/2+z
loop_
_atom_site_type_symbol
_atom_site_label
_atom_site_fract_x
_atom_site_fract_y
_atom_site_fract_z
Si Si1 0.500000 0.735175 0.750000
Si Si2 0.704936 0.908565 0.186952
Si Si3 0.180399 0.125241 0.885734
Si Si4 0.518963 0.408521 0.590545
Si Si5 0.374527 0.083443 0.271769
Si Si6 0.345157 0.753253 0.927978
Si Si7 0.551432 0.759308 0.943822
Si Si8 0.693452 0.252588 0.847782
O O1 0.587060 0.634715 0.820699
O O2 0.542472 0.832573 0.860558
O O3 0.801344 0.846798 0.317429
O O4 0.664392 0.999418 0.206267
O O5 0.694643 0.053281 0.120897
O O6 0.643403 0.758303 0.086778
O O7 0.165681 0.233878 0.801052
O O8 0.206364 0.920776 0.908404
O O9 0.250000 0.250000 0.000000
O O10 0.500000 0.500000 0.500000
O O11 0.449953 0.256152 0.533705
O O12 0.484037 0.561506 0.599156
O O13 0.619665 0.341383 0.714645
O O14 0.477965 0.129561 0.400517
O O15 0.356538 0.933480 0.196765
O O16 0.291295 0.690095 0.930898
#
# Coordination Sequence:
#
# PCOD9292151 Si02
#       8
#     4   8   8   8   8   8   8   8
#     4  10  24  46  68 108 134 196 252 282 376 440
#     4  11  22  38  63 104 144 183 240 301 369 442
#     4  11  26  48  76 102 147 201 244 308 363 444
#     4  12  22  42  71 103 149 191 238 309 379 442
#     4  10  22  43  67 104 142 181 246 293 377 428
#     4  11  25  37  65 110 141 191 240 301 377 444
#     4  11  22  42  72 100 141 191 235 305 365 444
#     4  11  24  46  67 105 145 187 249 301 364 443
#
# _framework density 25.682973
#
# number of rings (size 3 to 8) (size 9 to 14) (size 15 to 20)
#    0.000    1.067    2.667    5.200    3.733    2.667 
#    0.000    2.667    0.000    0.000    0.000    0.000 
#    0.000    0.000    0.000    0.000    0.000    0.000 
#
# Total GULP energy -167383.436922 kJ/mol
# GULP energy per Si atom -5579.447897 kJ/mol
# Density = 2.562452 g / cm^3
# Si number density = 25.682973 Si / 1000 Ang^3
#
#
#
# Elastic Constant Matrix: (Units=GPa)
#
#
# Indices 1 2 3 4 5 6 
#
# 1 77.5575 -9.7702 30.1320 0.0000 9.5300 0.0000
# 2 -9.7702 115.4068 -0.7246 0.0000 9.2814 0.0000
# 3 30.1320 -0.7246 84.3316 0.0000 7.8603 0.0000
# 4 0.0000 0.0000 0.0000 38.2379 0.0000 -1.6137
# 5 9.5300 9.2814 7.8603 0.0000 33.3151 0.0000
# 6 0.0000 0.0000 0.0000 -1.6137 0.0000 35.8246
#
#
#
# Elastic Compliance Matrix: (Units=1/GPa)
#
#
# Indices 1 2 3 4 5 6 
#
# 1 0.015566 0.001580 -0.005207 0.000000 -0.003664 0.000000
# 2 0.001580 0.009032 -0.000215 0.000000 -0.002917 0.000000
# 3 -0.005207 -0.000215 0.013877 0.000000 -0.001725 0.000000
# 4 0.000000 0.000000 0.000000 0.026202 0.000000 0.001180
# 5 -0.003664 -0.002917 -0.001725 0.000000 0.032284 0.000000
# 6 0.000000 0.000000 0.000000 0.001180 0.000000 0.027967
#
#
# Mechanical properties :
#
#
# Convention : Reuss Voigt Hill
#
# Bulk Modulus (GPa) = 32.47648 35.17450 33.82549
# Shear Modulus (GPa) = 34.99552 38.65278 36.82415
#
# Velocity S-wave (km/s) = 3.69534 3.88364 3.79066
# Velocity P-wave (km/s) = 5.55698 5.81683 5.68839
#
# Compressibility (1/GPa) = 0.03079152
#
# Stress axis : x y z
#
# Youngs Moduli (GPa) = 64.24356 110.71715 72.06060
#
# Poissons Ratio (x) = -0.17491 0.37519
# Poissons Ratio (y) = -0.10149 0.01549
# Poissons Ratio (z) = 0.33449 0.02380
#
# Static dielectric constant tensor:
#      x y z
#    x 2.128330 0.000000 -0.060030 
#    y 0.000000 2.132640 0.000000 
#    z -0.060030 0.000000 2.080690 
# 
# From -- ./inp_files/284331.got.cif
#   From: 2010.05.17/outbox.cif.g08.bks.cpg/sg15_143_cif.got.tgz:284331.got - 2010.06.03 18:47:42.
