data_PCOD9292871
_publ_section_title
;
Structure prediction by ZEFSAII (Michael W. Deem and Ramdas Pophale) SiO2 
 PCOD9292871
Probable space group: C 2/C
;
_chemical_formula_sum "Si O2"
_cell_formula_units_Z 64
_cell_length_a 14.237585
_cell_length_b 16.887679
_cell_length_c 16.291026
_cell_angle_alpha 90.000000
_cell_angle_beta 43.820687
_cell_angle_gamma 90.000000
_cell_volume 2712.152637
_symmetry_space_group_name_H-M "C 2/C"
_symmetry_group_IT_number 15
_symmetry_cell_setting 'monoclinic'
loop_
_space_group_symop_operation_xyz
x,y,z
-x,y,1/2-z
-x,-y,-z
x,-y,1/2+z
1/2+x,1/2+y,z
1/2-x,1/2+y,1/2-z
1/2-x,1/2-y,-z
1/2+x,1/2-y,1/2+z
loop_
_atom_site_type_symbol
_atom_site_label
_atom_site_fract_x
_atom_site_fract_y
_atom_site_fract_z
Si Si1 0.206369 0.777494 0.157835
Si Si2 0.211680 0.702264 0.439946
Si Si3 0.386147 0.030382 0.935164
Si Si4 0.097242 0.136677 0.941294
Si Si5 0.644532 0.603751 0.292506
Si Si6 0.456833 0.721621 0.909702
Si Si7 0.681164 0.000432 0.211869
Si Si8 0.152609 0.947293 0.185364
O O1 0.133054 0.780907 0.115299
O O2 0.214281 0.867278 0.181515
O O3 0.096777 0.738443 0.288546
O O4 0.358704 0.752484 0.043459
O O5 0.250000 0.750000 0.500000
O O6 0.138320 0.622306 0.521550
O O7 0.143511 0.773127 0.430203
O O8 0.314087 0.665285 0.305747
O O9 0.363911 0.006718 0.854265
O O10 0.544358 0.010840 0.852065
O O11 0.268557 0.978478 0.050727
O O12 0.213905 0.073218 0.854174
O O13 0.001743 0.138953 0.921340
O O14 0.002876 0.118499 0.078082
O O15 0.747842 0.581996 0.302485
O O16 0.638962 0.519324 0.254183
O O17 0.000000 0.931613 0.250000
#
# Coordination Sequence:
#
# PCOD9292871 Si02
#       8
#     8   8   8   8   8   8   8   8
#     4  10  22  44  69 104 152 195 249 304 389 458
#     4  11  26  48  71 111 146 198 253 312 392 455
#     4  10  25  45  74 103 150 199 243 315 383 461
#     4  12  26  43  77 104 153 193 257 322 378 461
#     4  11  28  43  74 108 144 191 262 312 377 466
#     4  10  23  41  68 107 143 198 243 310 375 453
#     4  11  24  46  68 111 146 195 248 317 388 449
#     4  11  22  43  71 100 140 194 242 300 376 457
#
# _framework density 23.597491999999999
#
# number of rings (size 3 to 8) (size 9 to 14) (size 15 to 20)
#    0.000    1.250    2.500    1.875    7.000    4.000 
#    0.000    1.250    0.000    0.000    0.000    0.000 
#    0.000    0.000    0.000    0.000    0.000    0.000 
#
# Total GULP energy -178230.426649 kJ/mol
# GULP energy per Si atom -5569.700833 kJ/mol
# Density = 2.354378 g / cm^3
# Si number density = 23.597492 Si / 1000 Ang^3
#
#
#
# Elastic Constant Matrix: (Units=GPa)
#
#
# Indices 1 2 3 4 5 6 
#
# 1 69.4241 12.2165 36.8353 0.0000 -0.2879 0.0000
# 2 12.2165 74.5981 65.9836 0.0000 -24.2562 0.0000
# 3 36.8353 65.9836 213.2325 -0.0001 -19.7545 0.0000
# 4 0.0000 0.0000 -0.0001 20.9937 0.0000 -2.2828
# 5 -0.2879 -24.2562 -19.7545 0.0000 36.1914 0.0000
# 6 0.0000 0.0000 0.0000 -2.2828 0.0000 34.2160
#
#
#
# Elastic Compliance Matrix: (Units=1/GPa)
#
#
# Indices 1 2 3 4 5 6 
#
# 1 0.015964 -0.000883 -0.002662 0.000000 -0.001918 0.000000
# 2 -0.000883 0.022470 -0.005694 0.000000 0.011945 0.000000
# 3 -0.002662 -0.005694 0.006905 0.000000 -0.000068 0.000000
# 4 0.000000 0.000000 0.000000 0.047982 0.000000 0.003201
# 5 -0.001918 0.011945 -0.000068 0.000000 0.035584 0.000000
# 6 0.000000 0.000000 0.000000 0.003201 0.000000 0.029440
#
#
# Mechanical properties :
#
#
# Convention : Reuss Voigt Hill
#
# Bulk Modulus (GPa) = 37.22917 65.25841 51.24379
# Shear Modulus (GPa) = 26.91385 34.42816 30.67100
#
# Velocity S-wave (km/s) = 3.38085 3.82380 3.60913
# Velocity P-wave (km/s) = 5.57236 6.87096 6.25545
#
# Compressibility (1/GPa) = 0.02686066
#
# Stress axis : x y z
#
# Youngs Moduli (GPa) = 62.64019 44.50297 144.81686
#
# Poissons Ratio (x) = 0.03931 0.38552
# Poissons Ratio (y) = 0.05533 0.82461
# Poissons Ratio (z) = 0.16676 0.25341
#
# Static dielectric constant tensor:
#      x y z
#    x 1.959260 0.000000 -0.035950 
#    y 0.000000 1.873100 0.000000 
#    z -0.035950 0.000000 2.069130 
# 
# From -- ./inp_files/206439.got.cif
#   From: 2010.05.17/outbox.cif.g08.bks.cpg/sg15_104_cif.got.tgz:206439.got - 2010.06.03 18:47:42.
