data_PCOD9292083
_publ_section_title
;
Structure prediction by ZEFSAII (Michael W. Deem and Ramdas Pophale) SiO2 
 PCOD9292083
Probable space group: C 2/C
;
_chemical_formula_sum "Si O2"
_cell_formula_units_Z 48
_cell_length_a 17.202438
_cell_length_b 7.571500
_cell_length_c 30.392518
_cell_angle_alpha 90.000000
_cell_angle_beta 32.336140
_cell_angle_gamma 90.000000
_cell_volume 2117.382679
_symmetry_space_group_name_H-M "C 2/C"
_symmetry_group_IT_number 15
_symmetry_cell_setting 'monoclinic'
loop_
_space_group_symop_operation_xyz
x,y,z
-x,y,1/2-z
-x,-y,-z
x,-y,1/2+z
1/2+x,1/2+y,z
1/2-x,1/2+y,1/2-z
1/2-x,1/2-y,-z
1/2+x,1/2-y,1/2+z
loop_
_atom_site_type_symbol
_atom_site_label
_atom_site_fract_x
_atom_site_fract_y
_atom_site_fract_z
Si Si1 0.302242 0.615261 0.764001
Si Si2 0.890707 0.022191 0.512651
Si Si3 0.873435 0.297663 0.238005
Si Si4 0.668059 0.881474 0.678007
Si Si5 0.798982 0.203483 0.427134
Si Si6 0.391534 0.360049 0.418832
O O1 0.187396 0.635309 0.779653
O O2 0.327352 0.408879 0.763388
O O3 0.261392 0.730092 0.825754
O O4 0.454599 0.703903 0.673848
O O5 0.830042 0.220915 0.540026
O O6 0.752475 0.903748 0.592255
O O7 0.940288 0.962602 0.440604
O O8 0.000000 0.000000 0.500000
O O9 0.820974 0.432869 0.300521
O O10 0.048424 0.297995 0.155500
O O11 0.500000 0.841219 0.750000
O O12 0.750000 0.250000 0.500000
O O13 0.832552 0.998491 0.411092
O O14 0.250000 0.250000 0.500000
#
# Coordination Sequence:
#
# PCOD9292083 Si02
#       6
#     8   8   8   8   8   8
#     4  11  24  40  70  97 128 175 230 265 320 406
#     4  11  23  42  64  96 133 166 211 273 336 376
#     4  11  22  42  64  95 128 172 224 269 322 398
#     4  12  24  42  67  96 135 172 214 281 338 375
#     4   9  21  38  64  87 123 174 207 255 330 391
#     4  10  22  43  66  92 127 173 223 259 320 406
#
# _framework density 22.669495999999999
#
# number of rings (size 3 to 8) (size 9 to 14) (size 15 to 20)
#    0.000    1.333    3.333    2.000    7.000    0.667 
#    3.000    0.833    0.000    0.000    0.000    0.000 
#    0.000    0.000    0.000    0.000    0.000    0.000 
#
# Total GULP energy -134108.041484 kJ/mol
# GULP energy per Si atom -5587.835062 kJ/mol
# Density = 2.261790 g / cm^3
# Si number density = 22.669496 Si / 1000 Ang^3
#
#
#
# Elastic Constant Matrix: (Units=GPa)
#
#
# Indices 1 2 3 4 5 6 
#
# 1 96.5992 32.7426 -6.2428 -0.0077 -11.3690 0.0186
# 2 32.7426 81.7182 5.8855 -0.0022 -1.1723 0.0285
# 3 -6.2428 5.8855 36.9411 -0.0056 3.8627 -0.0028
# 4 -0.0077 -0.0022 -0.0056 24.4807 -0.0060 0.2426
# 5 -11.3690 -1.1723 3.8627 -0.0060 40.1569 -0.0040
# 6 0.0186 0.0285 -0.0028 0.2426 -0.0040 44.2899
#
#
#
# Elastic Compliance Matrix: (Units=1/GPa)
#
#
# Indices 1 2 3 4 5 6 
#
# 1 0.012666 -0.005219 0.002640 0.000005 0.003180 -0.000002
# 2 -0.005219 0.014542 -0.003120 -0.000001 -0.000753 -0.000007
# 3 0.002640 -0.003120 0.028229 0.000006 -0.002059 0.000002
# 4 0.000005 -0.000001 0.000006 0.040851 0.000007 -0.000224
# 5 0.003180 -0.000753 -0.002059 0.000007 0.025979 0.000001
# 6 -0.000002 -0.000007 0.000002 -0.000224 0.000001 0.022580
#
#
# Mechanical properties :
#
#
# Convention : Reuss Voigt Hill
#
# Bulk Modulus (GPa) = 22.70829 31.11434 26.91131
# Shear Modulus (GPa) = 29.25252 33.97703 31.61477
#
# Velocity S-wave (km/s) = 3.59610 3.87563 3.73848
# Velocity P-wave (km/s) = 5.22316 5.81226 5.52557
#
# Compressibility (1/GPa) = 0.04403679
#
# Stress axis : x y z
#
# Youngs Moduli (GPa) = 78.95140 68.76432 35.42504
#
# Poissons Ratio (x) = 0.35891 -0.09351
# Poissons Ratio (y) = 0.41208 0.11053
# Poissons Ratio (z) = -0.20840 0.21456
#
# Static dielectric constant tensor:
#      x y z
#    x 1.855200 0.000010 -0.029940 
#    y 0.000010 1.942470 -0.000030 
#    z -0.029940 -0.000030 1.856310 
# 
# From -- ./inp_files/312814.got.cif
#   From: 2010.05.17/outbox.cif.g08.bks.cpg/sg15_157_cif.got.tgz:312814.got - 2010.06.03 18:47:42.
