data_PCOD9292429
_publ_section_title
;
Structure prediction by ZEFSAII (Michael W. Deem and Ramdas Pophale) SiO2 
 PCOD9292429
Probable space group: C 2/C
;
_chemical_formula_sum "Si O2"
_cell_formula_units_Z 44
_cell_length_a 22.449146
_cell_length_b 5.929650
_cell_length_c 13.070065
_cell_angle_alpha 90.000000
_cell_angle_beta 92.089118
_cell_angle_gamma 90.000000
_cell_volume 1738.672862
_symmetry_space_group_name_H-M "C 2/C"
_symmetry_group_IT_number 15
_symmetry_cell_setting 'monoclinic'
loop_
_space_group_symop_operation_xyz
x,y,z
-x,y,1/2-z
-x,-y,-z
x,-y,1/2+z
1/2+x,1/2+y,z
1/2-x,1/2+y,1/2-z
1/2-x,1/2-y,-z
1/2+x,1/2-y,1/2+z
loop_
_atom_site_type_symbol
_atom_site_label
_atom_site_fract_x
_atom_site_fract_y
_atom_site_fract_z
Si Si1 0.000000 0.822438 0.250000
Si Si2 0.191541 0.383105 0.079338
Si Si3 0.896680 0.498622 0.254760
Si Si4 0.670495 0.385608 0.047640
Si Si5 0.311687 0.366402 0.209099
Si Si6 0.081184 0.123126 0.386596
O O1 0.945292 0.680411 0.290000
O O2 0.970530 0.963459 0.156142
O O3 0.131678 0.385029 0.146515
O O4 0.192844 0.627869 0.021643
O O5 0.245787 0.385497 0.163253
O O6 0.192476 0.142361 0.020035
O O7 0.842784 0.625798 0.193611
O O8 0.929981 0.356247 0.170401
O O9 0.683872 0.390380 0.168775
O O10 0.602106 0.380389 0.004209
O O11 0.355779 0.549182 0.162795
#
# Coordination Sequence:
#
# PCOD9292429 Si02
#       6
#     4   8   8   8   8   8
#     4  10  24  46  70  98 134 186 236 294 350 404
#     4  11  24  44  67 102 146 182 222 281 349 411
#     4  10  22  43  71  93 137 188 227 286 349 404
#     4  11  24  41  68 104 140 180 233 278 336 423
#     4  10  23  43  66 101 145 182 220 279 351 410
#     4  11  24  43  71  97 135 182 236 286 344 409
#
# _framework density 25.306660999999998
#
# number of rings (size 3 to 8) (size 9 to 14) (size 15 to 20)
#    0.000    1.455    1.818    2.727    7.636    1.455 
#    0.000    9.091    0.000    0.000    0.000    0.000 
#    0.000    0.000    0.000    0.000    0.000    0.000 
#
# Total GULP energy -122844.250105 kJ/mol
# GULP energy per Si atom -5583.829550 kJ/mol
# Density = 2.524906 g / cm^3
# Si number density = 25.306661 Si / 1000 Ang^3
#
#
#
# Elastic Constant Matrix: (Units=GPa)
#
#
# Indices 1 2 3 4 5 6 
#
# 1 104.9912 46.0092 53.2454 0.0000 38.8116 0.0000
# 2 46.0092 166.6851 52.6821 0.0000 23.9846 0.0000
# 3 53.2454 52.6821 119.2170 0.0000 35.1312 0.0000
# 4 0.0000 0.0000 0.0000 25.9068 0.0000 6.4094
# 5 38.8116 23.9846 35.1312 0.0000 51.3844 0.0000
# 6 0.0000 0.0000 0.0000 6.4094 0.0000 28.6913
#
#
#
# Elastic Compliance Matrix: (Units=1/GPa)
#
#
# Indices 1 2 3 4 5 6 
#
# 1 0.015159 -0.001895 -0.003531 0.000000 -0.008151 0.000000
# 2 -0.001895 0.007296 -0.002249 0.000000 -0.000436 0.000000
# 3 -0.003531 -0.002249 0.012352 0.000000 -0.004728 0.000000
# 4 0.000000 0.000000 0.000000 0.040858 0.000000 -0.009127
# 5 -0.008151 -0.000436 -0.004728 0.000000 0.029054 0.000000
# 6 0.000000 0.000000 0.000000 -0.009127 0.000000 0.036893
#
#
# Mechanical properties :
#
#
# Convention : Reuss Voigt Hill
#
# Bulk Modulus (GPa) = 51.39577 77.19633 64.29605
# Shear Modulus (GPa) = 30.59060 37.12695 33.85878
#
# Velocity S-wave (km/s) = 3.48055 3.83441 3.66175
# Velocity P-wave (km/s) = 6.04198 7.08337 6.58330
#
# Compressibility (1/GPa) = 0.01945685
#
# Stress axis : x y z
#
# Youngs Moduli (GPa) = 65.96708 137.05889 80.95671
#
# Poissons Ratio (x) = 0.25979 0.28584
# Poissons Ratio (y) = 0.12504 0.18208
# Poissons Ratio (z) = 0.23292 0.30825
#
# Static dielectric constant tensor:
#      x y z
#    x 1.978650 0.000000 -0.062330 
#    y 0.000000 2.134000 0.000000 
#    z -0.062330 0.000000 2.026270 
# 
# From -- ./inp_files/175499.got.cif
#   From: 2010.05.17/outbox.cif.g08.bks.cpg/sg15_88_cif.got.tgz:175499.got - 2010.06.03 18:47:42.
