data_PCOD9292624
_publ_section_title
;
Structure prediction by ZEFSAII (Michael W. Deem and Ramdas Pophale) SiO2 
 PCOD9292624
Probable space group: C 2/C
;
_chemical_formula_sum "Si O2"
_cell_formula_units_Z 56
_cell_length_a 8.834313
_cell_length_b 10.627363
_cell_length_c 32.417732
_cell_angle_alpha 90.000000
_cell_angle_beta 55.467927
_cell_angle_gamma 90.000000
_cell_volume 2507.306668
_symmetry_space_group_name_H-M "C 2/C"
_symmetry_group_IT_number 15
_symmetry_cell_setting 'monoclinic'
loop_
_space_group_symop_operation_xyz
x,y,z
-x,y,1/2-z
-x,-y,-z
x,-y,1/2+z
1/2+x,1/2+y,z
1/2-x,1/2+y,1/2-z
1/2-x,1/2-y,-z
1/2+x,1/2-y,1/2+z
loop_
_atom_site_type_symbol
_atom_site_label
_atom_site_fract_x
_atom_site_fract_y
_atom_site_fract_z
Si Si1 0.313779 0.922525 0.875847
Si Si2 0.168087 0.304777 0.342297
Si Si3 0.313221 0.209102 0.758719
Si Si4 0.242379 0.429996 0.815640
Si Si5 0.454161 0.421226 0.135422
Si Si6 0.308034 0.325724 0.889254
Si Si7 0.110156 0.703454 0.055780
O O1 0.257145 0.802446 0.856611
O O2 0.529403 0.939753 0.837496
O O3 0.299371 0.900568 0.927590
O O4 0.201599 0.035836 0.873361
O O5 0.200229 0.300403 0.288152
O O6 0.266727 0.437884 0.334754
O O7 0.947854 0.283217 0.382821
O O8 0.500000 0.156418 0.750000
O O9 0.320386 0.362234 0.763631
O O10 0.148044 0.136210 0.808212
O O11 0.292033 0.325693 0.842077
O O12 0.579579 0.546557 0.118749
O O13 0.568674 0.313846 0.094867
O O14 0.090285 0.329312 0.933523
O O15 0.250000 0.750000 0.000000
#
# Coordination Sequence:
#
# PCOD9292624 Si02
#       7
#     8   8   8   8   8   8   8
#     4  10  23  43  64  96 125 173 213 265 330 377
#     4  11  24  40  63  93 134 173 217 257 313 388
#     4  12  23  40  63  96 131 180 215 259 321 377
#     4  11  22  39  60  87 132 165 213 257 310 374
#     4  11  23  44  65  91 139 165 219 273 314 400
#     4  10  22  44  65  93 129 177 209 269 330 381
#     4  11  23  45  70  98 130 166 219 279 345 400
#
# _framework density 22.334724000000001
#
# number of rings (size 3 to 8) (size 9 to 14) (size 15 to 20)
#    0.000    1.143    4.286    2.571    4.000    1.714 
#    0.000    2.857    0.000    0.000    0.000    0.000 
#    0.000    0.000    0.000    0.000    0.000    0.000 
#
# Total GULP energy -155959.470948 kJ/mol
# GULP energy per Si atom -5569.981105 kJ/mol
# Density = 2.228389 g / cm^3
# Si number density = 22.334724 Si / 1000 Ang^3
#
#
#
# Elastic Constant Matrix: (Units=GPa)
#
#
# Indices 1 2 3 4 5 6 
#
# 1 89.1818 8.8732 24.3450 0.0000 -7.2798 0.0000
# 2 8.8732 76.1711 -2.1524 0.0000 -1.8343 0.0000
# 3 24.3450 -2.1524 76.8479 0.0000 -12.2808 0.0000
# 4 0.0000 0.0000 0.0000 12.7160 0.0000 8.1728
# 5 -7.2798 -1.8343 -12.2808 0.0000 24.3144 0.0000
# 6 0.0000 0.0000 0.0000 8.1728 0.0000 43.0210
#
#
#
# Elastic Compliance Matrix: (Units=1/GPa)
#
#
# Indices 1 2 3 4 5 6 
#
# 1 0.012526 -0.001522 -0.003731 0.000000 0.001751 0.000000
# 2 -0.001522 0.013361 0.001028 0.000000 0.001071 0.000000
# 3 -0.003731 0.001028 0.015292 0.000000 0.006684 0.000000
# 4 0.000000 0.000000 0.000000 0.089579 0.000000 -0.017017
# 5 0.001751 0.001071 0.006684 0.000000 0.045109 0.000000
# 6 0.000000 0.000000 0.000000 -0.017017 0.000000 0.026477
#
#
# Mechanical properties :
#
#
# Convention : Reuss Voigt Hill
#
# Bulk Modulus (GPa) = 30.55614 33.81471 32.18543
# Shear Modulus (GPa) = 22.55267 30.08595 26.31931
#
# Velocity S-wave (km/s) = 3.18112 3.67420 3.43651
# Velocity P-wave (km/s) = 5.21569 5.75956 5.49435
#
# Compressibility (1/GPa) = 0.03272665
#
# Stress axis : x y z
#
# Youngs Moduli (GPa) = 79.83437 74.84742 65.39534
#
# Poissons Ratio (x) = 0.11395 0.24399
# Poissons Ratio (y) = 0.12154 -0.06721
# Poissons Ratio (z) = 0.29786 -0.07692
#
# Static dielectric constant tensor:
#      x y z
#    x 1.945540 0.000000 -0.042880 
#    y 0.000000 2.035610 0.000000 
#    z -0.042880 0.000000 1.804710 
# 
# From -- ./inp_files/307401.got.cif
#   From: 2010.05.17/outbox.cif.g08.bks.cpg/sg15_154_cif.got.tgz:307401.got - 2010.06.03 18:47:42.
