data_PCOD9292093
_publ_section_title
;
Structure prediction by ZEFSAII (Michael W. Deem and Ramdas Pophale) SiO2 
 PCOD9292093
Probable space group: C 2/C
;
_chemical_formula_sum "Si O2"
_cell_formula_units_Z 40
_cell_length_a 11.071952
_cell_length_b 8.577566
_cell_length_c 16.905472
_cell_angle_alpha 90.000000
_cell_angle_beta 83.424014
_cell_angle_gamma 90.000000
_cell_volume 1594.956470
_symmetry_space_group_name_H-M "C 2/C"
_symmetry_group_IT_number 15
_symmetry_cell_setting 'monoclinic'
loop_
_space_group_symop_operation_xyz
x,y,z
-x,y,1/2-z
-x,-y,-z
x,-y,1/2+z
1/2+x,1/2+y,z
1/2-x,1/2+y,1/2-z
1/2-x,1/2-y,-z
1/2+x,1/2-y,1/2+z
loop_
_atom_site_type_symbol
_atom_site_label
_atom_site_fract_x
_atom_site_fract_y
_atom_site_fract_z
Si Si1 0.438995 0.329591 0.521788
Si Si2 0.360937 0.437567 0.750071
Si Si3 0.266349 0.344421 0.402020
Si Si4 0.147982 0.364095 0.974799
Si Si5 0.115664 0.262752 0.799657
O O1 0.500000 0.500000 0.500000
O O2 0.382146 0.288655 0.441108
O O3 0.333169 0.294287 0.594137
O O4 0.535740 0.194727 0.534540
O O5 0.500000 0.372141 0.750000
O O6 0.319346 0.548531 0.827999
O O7 0.245326 0.322855 0.753975
O O8 0.375911 0.577334 0.686431
O O9 0.204357 0.466588 0.467954
O O10 0.112311 0.338626 0.885919
O O11 0.250000 0.250000 0.000000
O O12 0.000000 0.295107 0.750000
#
# Coordination Sequence:
#
# PCOD9292093 Si02
#       5
#     8   8   8   8   8
#     4  11  21  38  64  94 130 171 213 272 335 393
#     4  10  22  43  66  94 130 174 223 275 328 403
#     4  10  23  40  62  95 131 171 220 270 330 403
#     4  11  22  43  64  95 136 170 219 277 335 397
#     4  10  23  44  66  93 132 176 221 273 335 400
#
# _framework density 25.079053999999999
#
# number of rings (size 3 to 8) (size 9 to 14) (size 15 to 20)
#    0.000    1.600    2.000    3.000    0.000    4.000 
#   10.800    0.000    0.000    0.000    0.000    0.000 
#    0.000    0.000    0.000    0.000    0.000    0.000 
#
# Total GULP energy -111396.883887 kJ/mol
# GULP energy per Si atom -5569.844194 kJ/mol
# Density = 2.502197 g / cm^3
# Si number density = 25.079054 Si / 1000 Ang^3
#
#
#
# Elastic Constant Matrix: (Units=GPa)
#
#
# Indices 1 2 3 4 5 6 
#
# 1 206.3204 37.8803 28.3610 0.0000 -19.0202 0.0000
# 2 37.8803 83.8559 8.9174 0.0000 -6.9731 0.0000
# 3 28.3610 8.9174 74.0104 0.0000 -15.3199 0.0000
# 4 0.0000 0.0000 0.0000 18.4843 0.0000 -13.0898
# 5 -19.0202 -6.9731 -15.3199 0.0000 39.8700 0.0000
# 6 0.0000 0.0000 0.0000 -13.0898 0.0000 43.3421
#
#
#
# Elastic Compliance Matrix: (Units=1/GPa)
#
#
# Indices 1 2 3 4 5 6 
#
# 1 0.005625 -0.002236 -0.001534 0.000000 0.001703 0.000000
# 2 -0.002236 0.013075 -0.000506 0.000000 0.001025 0.000000
# 3 -0.001534 -0.000506 0.015199 0.000000 0.005020 0.000000
# 4 0.000000 0.000000 0.000000 0.068818 0.000000 0.020784
# 5 0.001703 0.001025 0.005020 0.000000 0.028002 0.000000
# 6 0.000000 0.000000 0.000000 0.020784 0.000000 0.029349
#
#
# Mechanical properties :
#
#
# Convention : Reuss Voigt Hill
#
# Bulk Modulus (GPa) = 39.45234 57.16713 48.30973
# Shear Modulus (GPa) = 28.23739 39.60780 33.92259
#
# Velocity S-wave (km/s) = 3.35914 3.97837 3.68180
# Velocity P-wave (km/s) = 5.55071 6.62929 6.11383
#
# Compressibility (1/GPa) = 0.02534704
#
# Stress axis : x y z
#
# Youngs Moduli (GPa) = 177.76982 76.48444 65.79189
#
# Poissons Ratio (x) = 0.17105 0.10090
# Poissons Ratio (y) = 0.39756 0.03330
# Poissons Ratio (z) = 0.27263 0.03871
#
# Static dielectric constant tensor:
#      x y z
#    x 2.055620 0.000000 -0.103540 
#    y 0.000000 1.977950 0.000000 
#    z -0.103540 0.000000 2.115580 
# 
# From -- ./inp_files/235752.got.cif
#   From: 2010.05.17/outbox.cif.g08.bks.cpg/sg15_118_cif.got.tgz:235752.got - 2010.06.03 18:47:42.
