data_PCOD9292125
_publ_section_title
;
Structure prediction by ZEFSAII (Michael W. Deem and Ramdas Pophale) SiO2 
 PCOD9292125
Probable space group: C 2/C
;
_chemical_formula_sum "Si O2"
_cell_formula_units_Z 44
_cell_length_a 5.480675
_cell_length_b 23.142459
_cell_length_c 14.648479
_cell_angle_alpha 90.000000
_cell_angle_beta 84.381015
_cell_angle_gamma 90.000000
_cell_volume 1849.031354
_symmetry_space_group_name_H-M "C 2/C"
_symmetry_group_IT_number 15
_symmetry_cell_setting 'monoclinic'
loop_
_space_group_symop_operation_xyz
x,y,z
-x,y,1/2-z
-x,-y,-z
x,-y,1/2+z
1/2+x,1/2+y,z
1/2-x,1/2+y,1/2-z
1/2-x,1/2-y,-z
1/2+x,1/2-y,1/2+z
loop_
_atom_site_type_symbol
_atom_site_label
_atom_site_fract_x
_atom_site_fract_y
_atom_site_fract_z
Si Si1 0.500000 0.899670 0.250000
Si Si2 0.276937 0.819609 0.497482
Si Si3 0.500000 0.482120 0.750000
Si Si4 0.348276 0.925343 0.598520
Si Si5 0.790624 0.522078 0.903066
Si Si6 0.205763 0.195698 0.565243
Si Si7 0.500000 0.325827 0.250000
O O1 0.504770 0.941180 0.160166
O O2 0.754246 0.863212 0.239507
O O3 0.250000 0.750000 0.500000
O O4 0.337091 0.856639 0.584828
O O5 0.524934 0.830482 0.430583
O O6 0.012864 0.841327 0.471350
O O7 0.707771 0.443089 0.695193
O O8 0.582801 0.519897 0.833737
O O9 0.245717 0.952518 0.505484
O O10 0.611769 0.956467 0.591421
O O11 0.250000 0.250000 0.500000
O O12 0.081631 0.213193 0.663449
#
# Coordination Sequence:
#
# PCOD9292125 Si02
#       7
#     4   8   4   8   8   8   4
#     4  12  24  42  66 102 143 175 244 286 356 450
#     4  10  23  45  70  96 133 183 235 293 353 423
#     4  12  23  44  64 105 145 190 242 291 370 452
#     4  11  24  42  69 100 143 190 238 299 368 432
#     4  11  24  42  65 103 144 192 234 300 366 441
#     4  10  22  43  66  98 137 174 240 293 352 422
#     4  12  23  38  70 101 132 193 228 299 360 416
#
# _framework density 23.796243
#
# number of rings (size 3 to 8) (size 9 to 14) (size 15 to 20)
#    0.000    1.091    1.818    4.364    2.545    0.000 
#    0.000    7.273    0.000    0.000    0.000    0.000 
#    0.000    0.000    0.000    0.000    0.000    0.000 
#
# Total GULP energy -122638.752934 kJ/mol
# GULP energy per Si atom -5574.488770 kJ/mol
# Density = 2.374208 g / cm^3
# Si number density = 23.796243 Si / 1000 Ang^3
#
#
#
# Elastic Constant Matrix: (Units=GPa)
#
#
# Indices 1 2 3 4 5 6 
#
# 1 159.4713 19.2661 26.3767 0.0000 -5.1199 0.0000
# 2 19.2661 95.8941 23.6492 0.0000 -0.0741 0.0000
# 3 26.3767 23.6492 126.7031 0.0000 -14.6612 0.0000
# 4 0.0000 0.0000 0.0000 31.4767 0.0000 6.7467
# 5 -5.1199 -0.0741 -14.6612 0.0000 47.2144 0.0000
# 6 0.0000 0.0000 0.0000 6.7467 0.0000 18.3627
#
#
#
# Elastic Compliance Matrix: (Units=1/GPa)
#
#
# Indices 1 2 3 4 5 6 
#
# 1 0.006596 -0.001045 -0.001136 0.000000 0.000361 0.000000
# 2 -0.001045 0.011115 -0.001938 0.000000 -0.000698 0.000000
# 3 -0.001136 -0.001938 0.008792 0.000000 0.002604 0.000000
# 4 0.000000 0.000000 0.000000 0.034485 0.000000 -0.012670
# 5 0.000361 -0.000698 0.002604 0.000000 0.022027 0.000000
# 6 0.000000 0.000000 0.000000 -0.012670 0.000000 0.059113
#
#
# Mechanical properties :
#
#
# Convention : Reuss Voigt Hill
#
# Bulk Modulus (GPa) = 54.74746 57.85027 56.29887
# Shear Modulus (GPa) = 31.95781 40.26252 36.11017
#
# Velocity S-wave (km/s) = 3.66864 4.11782 3.89970
# Velocity P-wave (km/s) = 6.40328 6.85361 6.63227
#
# Compressibility (1/GPa) = 0.01826569
#
# Stress axis : x y z
#
# Youngs Moduli (GPa) = 151.59559 89.96475 113.73875
#
# Poissons Ratio (x) = 0.09399 0.12926
# Poissons Ratio (y) = 0.15838 0.22042
# Poissons Ratio (z) = 0.17229 0.17435
#
# Static dielectric constant tensor:
#      x y z
#    x 2.066570 0.000000 0.086870 
#    y 0.000000 2.032330 0.000000 
#    z 0.086870 0.000000 1.983660 
# 
# From -- ./inp_files/129439.got.cif
#   From: 2010.05.17/outbox.cif.g08.bks.cpg/sg15_65_cif.got.tgz:129439.got - 2010.06.03 18:47:42.
