data_PCOD9292653
_publ_section_title
;
Structure prediction by ZEFSAII (Michael W. Deem and Ramdas Pophale) SiO2 
 PCOD9292653
Probable space group: C 2/C
;
_chemical_formula_sum "Si O2"
_cell_formula_units_Z 48
_cell_length_a 14.437835
_cell_length_b 23.964780
_cell_length_c 8.449520
_cell_angle_alpha 90.000000
_cell_angle_beta 41.014441
_cell_angle_gamma 90.000000
_cell_volume 1918.564323
_symmetry_space_group_name_H-M "C 2/C"
_symmetry_group_IT_number 15
_symmetry_cell_setting 'monoclinic'
loop_
_space_group_symop_operation_xyz
x,y,z
-x,y,1/2-z
-x,-y,-z
x,-y,1/2+z
1/2+x,1/2+y,z
1/2-x,1/2+y,1/2-z
1/2-x,1/2-y,-z
1/2+x,1/2-y,1/2+z
loop_
_atom_site_type_symbol
_atom_site_label
_atom_site_fract_x
_atom_site_fract_y
_atom_site_fract_z
Si Si1 0.109396 0.384265 0.469246
Si Si2 0.213334 0.793257 0.684979
Si Si3 0.827386 0.964609 0.603884
Si Si4 0.655994 0.907289 0.081098
Si Si5 0.120430 0.926133 0.296879
Si Si6 0.463092 0.769604 0.609955
O O1 0.137479 0.426244 0.287226
O O2 0.271446 0.375612 0.316752
O O3 0.045544 0.328122 0.479386
O O4 0.000000 0.400643 0.750000
O O5 0.250000 0.750000 0.500000
O O6 0.244820 0.854107 0.574716
O O7 0.312559 0.779805 0.714019
O O8 0.048790 0.781731 0.927268
O O9 0.803146 0.955738 0.451328
O O10 0.956327 0.920849 0.470335
O O11 0.884071 0.026651 0.561339
O O12 0.704420 0.950068 0.883844
O O13 0.500000 0.887312 0.250000
O O14 0.500000 0.762619 0.750000
#
# Coordination Sequence:
#
# PCOD9292653 Si02
#       6
#     8   8   8   8   8   8
#     4  11  23  41  68  95 136 175 224 280 346 406
#     4  12  23  46  68  98 138 182 232 289 348 414
#     4  10  23  42  70  97 138 174 226 280 344 410
#     4  12  23  42  65  96 133 173 223 280 339 405
#     4  10  22  44  66 101 135 177 222 282 342 415
#     4  11  25  44  69  97 137 181 231 287 348 414
#
# _framework density 25.018709000000001
#
# number of rings (size 3 to 8) (size 9 to 14) (size 15 to 20)
#    0.000    1.000    3.333    3.000    2.333    4.000 
#    6.000    3.333    0.000    0.000    0.000    0.000 
#    0.000    0.000    0.000    0.000    0.000    0.000 
#
# Total GULP energy -133687.664320 kJ/mol
# GULP energy per Si atom -5570.319347 kJ/mol
# Density = 2.496177 g / cm^3
# Si number density = 25.018709 Si / 1000 Ang^3
#
#
#
# Elastic Constant Matrix: (Units=GPa)
#
#
# Indices 1 2 3 4 5 6 
#
# 1 72.1056 1.7644 19.9720 0.0000 2.6458 0.0000
# 2 1.7644 24.5359 6.5371 0.0000 -0.4731 0.0000
# 3 19.9720 6.5371 127.9789 0.0000 10.8255 0.0000
# 4 0.0000 0.0000 0.0000 38.8666 0.0000 -1.3845
# 5 2.6458 -0.4731 10.8255 0.0000 47.6707 0.0000
# 6 0.0000 0.0000 0.0000 -1.3845 0.0000 24.4587
#
#
#
# Elastic Compliance Matrix: (Units=1/GPa)
#
#
# Indices 1 2 3 4 5 6 
#
# 1 0.014504 -0.000459 -0.002214 0.000000 -0.000307 0.000000
# 2 -0.000459 0.041372 -0.002119 0.000000 0.000917 0.000000
# 3 -0.002214 -0.002119 0.008421 0.000000 -0.001810 0.000000
# 4 0.000000 0.000000 0.000000 0.025781 0.000000 0.001459
# 5 -0.000307 0.000917 -0.001810 0.000000 0.021414 0.000000
# 6 0.000000 0.000000 0.000000 0.001459 0.000000 0.040968
#
#
# Mechanical properties :
#
#
# Convention : Reuss Voigt Hill
#
# Bulk Modulus (GPa) = 18.27746 31.24081 24.75914
# Shear Modulus (GPa) = 27.73428 35.28899 31.51163
#
# Velocity S-wave (km/s) = 3.33309 3.75974 3.55283
# Velocity P-wave (km/s) = 4.70468 5.60015 5.17183
#
# Compressibility (1/GPa) = 0.05471220
#
# Stress axis : x y z
#
# Youngs Moduli (GPa) = 68.94506 24.17103 118.75491
#
# Poissons Ratio (x) = 0.01109 0.26294
# Poissons Ratio (y) = 0.03165 0.25167
# Poissons Ratio (z) = 0.15265 0.05122
#
# Static dielectric constant tensor:
#      x y z
#    x 2.215700 0.000000 0.038880 
#    y 0.000000 1.991610 0.000000 
#    z 0.038880 0.000000 1.998980 
# 
# From -- ./inp_files/43792.got.cif
#   From: 2010.05.17/outbox.cif.g08.bks.cpg/sg15_22_cif.got.tgz:43792.got - 2010.06.03 18:47:42.
