data_PCOD9292075
_publ_section_title
;
Structure prediction by ZEFSAII (Michael W. Deem and Ramdas Pophale) SiO2 
 PCOD9292075
Probable space group: C 2/C
;
_chemical_formula_sum "Si O2"
_cell_formula_units_Z 52
_cell_length_a 6.461406
_cell_length_b 26.189801
_cell_length_c 18.034139
_cell_angle_alpha 90.000000
_cell_angle_beta 120.511560
_cell_angle_gamma 90.000000
_cell_volume 2629.198673
_symmetry_space_group_name_H-M "C 2/C"
_symmetry_group_IT_number 15
_symmetry_cell_setting 'monoclinic'
loop_
_space_group_symop_operation_xyz
x,y,z
-x,y,1/2-z
-x,-y,-z
x,-y,1/2+z
1/2+x,1/2+y,z
1/2-x,1/2+y,1/2-z
1/2-x,1/2-y,-z
1/2+x,1/2-y,1/2+z
loop_
_atom_site_type_symbol
_atom_site_label
_atom_site_fract_x
_atom_site_fract_y
_atom_site_fract_z
Si Si1 0.812431 0.315000 0.076212
Si Si2 0.000000 0.254555 0.250000
Si Si3 0.699196 0.408758 0.850207
Si Si4 0.901972 0.922492 0.492112
Si Si5 0.144864 0.244305 0.061362
Si Si6 0.415446 0.178646 0.306663
Si Si7 0.118029 0.522036 0.445977
O O1 0.856675 0.288410 0.164002
O O2 0.734902 0.373564 0.065478
O O3 0.056594 0.298035 0.078817
O O4 0.592991 0.290050 0.990243
O O5 0.808448 0.215668 0.249829
O O6 0.500000 0.407986 0.750000
O O7 0.841798 0.355636 0.863255
O O8 0.889381 0.453025 0.865745
O O9 0.608908 0.415843 0.918992
O O10 0.174116 0.934134 0.514422
O O11 0.754486 0.972669 0.440194
O O12 0.358429 0.214461 0.138794
O O13 0.250000 0.250000 0.000000
O O14 0.500000 0.146528 0.250000
O O15 0.000000 0.500000 0.500000
#
# Coordination Sequence:
#
# PCOD9292075 Si02
#       7
#     8   4   8   8   8   8   8
#     4  11  24  38  62  90 125 173 218 263 322 396
#     4  12  24  42  54  92 136 166 226 266 322 390
#     4  11  24  36  65  98 126 162 213 272 332 388
#     4  10  22  43  66  90 127 167 212 267 324 399
#     4  11  22  37  60  87 124 172 215 258 322 388
#     4  12  24  39  59  91 133 172 210 277 324 381
#     4   9  21  44  66  89 120 159 207 268 331 392
#
# _framework density 19.777889999999999
#
# number of rings (size 3 to 8) (size 9 to 14) (size 15 to 20)
#    0.000    1.231    3.846    1.846    6.462    1.231 
#    0.000    4.615    0.000    0.000    0.000    0.000 
#    0.000    0.000    0.000    0.000    0.000    0.000 
#
# Total GULP energy -144795.761415 kJ/mol
# GULP energy per Si atom -5569.067747 kJ/mol
# Density = 1.973287 g / cm^3
# Si number density = 19.777890 Si / 1000 Ang^3
#
#
#
# Elastic Constant Matrix: (Units=GPa)
#
#
# Indices 1 2 3 4 5 6 
#
# 1 117.1061 37.0552 39.9020 0.0000 6.1167 0.0000
# 2 37.0552 101.5125 20.8497 0.0000 11.9498 0.0000
# 3 39.9020 20.8497 47.1475 0.0000 10.7785 0.0000
# 4 0.0000 0.0000 0.0000 29.1943 0.0000 9.5757
# 5 6.1167 11.9498 10.7785 0.0000 39.8828 0.0000
# 6 0.0000 0.0000 0.0000 9.5757 0.0000 39.1112
#
#
#
# Elastic Compliance Matrix: (Units=1/GPa)
#
#
# Indices 1 2 3 4 5 6 
#
# 1 0.012706 -0.002793 -0.009874 0.000000 0.001557 0.000000
# 2 -0.002793 0.011614 -0.002211 0.000000 -0.002454 0.000000
# 3 -0.009874 -0.002211 0.032025 0.000000 -0.006478 0.000000
# 4 0.000000 0.000000 0.000000 0.037244 0.000000 -0.009119
# 5 0.001557 -0.002454 -0.006478 0.000000 0.027321 0.000000
# 6 0.000000 0.000000 0.000000 -0.009119 0.000000 0.027801
#
#
# Mechanical properties :
#
#
# Convention : Reuss Voigt Hill
#
# Bulk Modulus (GPa) = 37.60996 51.26444 44.43720
# Shear Modulus (GPa) = 26.69078 32.83494 29.76286
#
# Velocity S-wave (km/s) = 3.67758 4.07896 3.88345
# Velocity P-wave (km/s) = 6.09017 6.93975 6.52880
#
# Compressibility (1/GPa) = 0.02658870
#
# Stress axis : x y z
#
# Youngs Moduli (GPa) = 78.70084 86.10597 31.22513
#
# Poissons Ratio (x) = 0.24053 0.30833
# Poissons Ratio (y) = 0.21984 0.06903
# Poissons Ratio (z) = 0.77711 0.19035
#
# Static dielectric constant tensor:
#      x y z
#    x 1.772750 0.000000 -0.037590 
#    y 0.000000 1.721830 0.000000 
#    z -0.037590 0.000000 1.683600 
# 
# From -- ./inp_files/186291.got.cif
#   From: 2010.05.17/outbox.cif.g08.bks.cpg/sg15_94_cif.got.tgz:186291.got - 2010.06.03 18:47:42.
