data_PCOD9292993
_publ_section_title
;
Structure prediction by ZEFSAII (Michael W. Deem and Ramdas Pophale) SiO2 
 PCOD9292993
Probable space group: C 2/C
;
_chemical_formula_sum "Si O2"
_cell_formula_units_Z 52
_cell_length_a 10.044251
_cell_length_b 18.542648
_cell_length_c 15.864213
_cell_angle_alpha 90.000000
_cell_angle_beta 122.345259
_cell_angle_gamma 90.000000
_cell_volume 2496.215302
_symmetry_space_group_name_H-M "C 2/C"
_symmetry_group_IT_number 15
_symmetry_cell_setting 'monoclinic'
loop_
_space_group_symop_operation_xyz
x,y,z
-x,y,1/2-z
-x,-y,-z
x,-y,1/2+z
1/2+x,1/2+y,z
1/2-x,1/2+y,1/2-z
1/2-x,1/2-y,-z
1/2+x,1/2-y,1/2+z
loop_
_atom_site_type_symbol
_atom_site_label
_atom_site_fract_x
_atom_site_fract_y
_atom_site_fract_z
Si Si1 0.630529 0.992266 0.724989
Si Si2 0.552803 0.821470 0.953580
Si Si3 0.875955 0.061896 0.934510
Si Si4 0.650055 0.336006 0.534481
Si Si5 0.740530 0.159216 0.236771
Si Si6 0.920932 0.616397 0.577910
Si Si7 0.000000 0.734559 0.750000
O O1 0.500000 0.965912 0.750000
O O2 0.764382 0.034205 0.822363
O O3 0.538276 0.050332 0.638044
O O4 0.708065 0.924938 0.703588
O O5 0.702189 0.865166 0.969166
O O6 0.432950 0.807506 0.836229
O O7 0.625551 0.748456 0.013960
O O8 0.456506 0.856132 0.997018
O O9 0.755653 0.087761 0.966303
O O10 0.988404 0.128101 0.951419
O O11 0.000000 0.000000 0.000000
O O12 0.692165 0.346856 0.646220
O O13 0.857933 0.211322 0.225839
O O14 0.955282 0.680862 0.657344
#
# Coordination Sequence:
#
# PCOD9292993 Si02
#       7
#     8   8   8   8   8   8   4
#     4  10  22  44  70  98 138 188 224 286 357 415
#     4  11  26  42  70  99 139 181 228 292 352 419
#     4  11  22  40  73  97 134 183 232 281 347 421
#     4  11  24  44  66 102 134 181 232 286 353 412
#     4  12  25  42  68 101 142 175 235 293 347 412
#     4  11  24  47  71 102 139 187 236 286 355 423
#     4  12  24  44  74 104 134 186 238 288 340 416
#
# _framework density 20.831537999999998
#
# number of rings (size 3 to 8) (size 9 to 14) (size 15 to 20)
#    0.000    0.923    5.385    2.308    4.308    1.846 
#    2.769    0.000    0.000    0.000    0.000    0.000 
#    0.000    0.000    0.000    0.000    0.000    0.000 
#
# Total GULP energy -145169.700694 kJ/mol
# GULP energy per Si atom -5583.450027 kJ/mol
# Density = 2.078412 g / cm^3
# Si number density = 20.831538 Si / 1000 Ang^3
#
#
#
# Elastic Constant Matrix: (Units=GPa)
#
#
# Indices 1 2 3 4 5 6 
#
# 1 110.4354 54.0078 51.3782 0.0000 22.4626 0.0000
# 2 54.0078 99.6188 22.9985 0.0000 -4.0768 0.0000
# 3 51.3782 22.9985 68.3098 0.0000 13.2001 0.0000
# 4 0.0000 0.0000 0.0000 21.8948 0.0000 14.8513
# 5 22.4626 -4.0768 13.2001 0.0000 34.1954 0.0000
# 6 0.0000 0.0000 0.0000 14.8513 0.0000 41.7840
#
#
#
# Elastic Compliance Matrix: (Units=1/GPa)
#
#
# Indices 1 2 3 4 5 6 
#
# 1 0.020454 -0.009152 -0.010261 0.000000 -0.010566 0.000000
# 2 -0.009152 0.015259 0.000252 0.000000 0.007734 0.000000
# 3 -0.010261 0.000252 0.022653 0.000000 -0.001974 0.000000
# 4 0.000000 0.000000 0.000000 0.060182 0.000000 -0.021391
# 5 -0.010566 0.007734 -0.001974 0.000000 0.037869 0.000000
# 6 0.000000 0.000000 0.000000 -0.021391 0.000000 0.031536
#
#
# Mechanical properties :
#
#
# Convention : Reuss Voigt Hill
#
# Bulk Modulus (GPa) = 49.89159 59.45922 54.67540
# Shear Modulus (GPa) = 21.46331 29.57348 25.51840
#
# Velocity S-wave (km/s) = 3.21335 3.77191 3.50378
# Velocity P-wave (km/s) = 6.14569 6.89743 6.53239
#
# Compressibility (1/GPa) = 0.02004346
#
# Stress axis : x y z
#
# Youngs Moduli (GPa) = 48.89051 65.53717 44.14366
#
# Poissons Ratio (x) = 0.59983 0.45295
# Poissons Ratio (y) = 0.44747 -0.01113
# Poissons Ratio (z) = 0.50166 -0.01653
#
# Static dielectric constant tensor:
#      x y z
#    x 1.778570 0.000000 0.010280 
#    y 0.000000 1.798030 0.000000 
#    z 0.010280 0.000000 1.718680 
# 
# From -- ./inp_files/191141.got.cif
#   From: 2010.05.17/outbox.cif.g08.bks.cpg/sg15_96_cif.got.tgz:191141.got - 2010.06.03 18:47:42.
