data_PCOD9292687
_publ_section_title
;
Structure prediction by ZEFSAII (Michael W. Deem and Ramdas Pophale) SiO2 
 PCOD9292687
Probable space group: C 2/C
;
_chemical_formula_sum "Si O2"
_cell_formula_units_Z 36
_cell_length_a 8.294164
_cell_length_b 10.499725
_cell_length_c 19.824746
_cell_angle_alpha 90.000000
_cell_angle_beta 59.490949
_cell_angle_gamma 90.000000
_cell_volume 1487.435506
_symmetry_space_group_name_H-M "C 2/C"
_symmetry_group_IT_number 15
_symmetry_cell_setting 'monoclinic'
loop_
_space_group_symop_operation_xyz
x,y,z
-x,y,1/2-z
-x,-y,-z
x,-y,1/2+z
1/2+x,1/2+y,z
1/2-x,1/2+y,1/2-z
1/2-x,1/2-y,-z
1/2+x,1/2-y,1/2+z
loop_
_atom_site_type_symbol
_atom_site_label
_atom_site_fract_x
_atom_site_fract_y
_atom_site_fract_z
Si Si1 0.500000 0.698749 0.250000
Si Si2 0.734309 0.983770 0.866741
Si Si3 0.971847 0.722674 0.462303
Si Si4 0.107579 0.750446 0.870744
Si Si5 0.545900 0.487500 0.411673
O O1 0.674922 0.603357 0.209443
O O2 0.492759 0.766902 0.179805
O O3 0.537533 0.915961 0.924391
O O4 0.757601 0.630300 0.654854
O O5 0.865776 0.976348 0.904787
O O6 0.750000 0.750000 0.500000
O O7 0.009347 0.731393 0.534845
O O8 0.078131 0.836052 0.399324
O O9 0.182333 0.895564 0.863207
O O10 0.500000 0.500000 0.500000
#
# Coordination Sequence:
#
# PCOD9292687 Si02
#       5
#     4   8   8   8   8
#     4  10  26  44  60  96 134 184 216 268 346 404
#     4  11  23  45  67  94 139 171 228 285 334 408
#     4  11  22  42  70 104 129 172 224 289 343 392
#     4  10  22  44  66  94 132 173 223 276 333 401
#     4   9  21  38  64  99 128 166 213 273 340 390
#
# _framework density 24.202732000000001
#
# number of rings (size 3 to 8) (size 9 to 14) (size 15 to 20)
#    0.000    1.778    2.222    0.667    0.000   11.556 
#   12.000    0.000    0.000    1.333    0.000    0.000 
#    0.000    0.000    0.000    0.000    0.000    0.000 
#
# Total GULP energy -100295.570538 kJ/mol
# GULP energy per Si atom -5571.976141 kJ/mol
# Density = 2.414765 g / cm^3
# Si number density = 24.202732 Si / 1000 Ang^3
#
#
#
# Elastic Constant Matrix: (Units=GPa)
#
#
# Indices 1 2 3 4 5 6 
#
# 1 76.8648 31.2347 46.1633 0.0000 20.3623 0.0000
# 2 31.2347 118.4825 15.7564 0.0000 1.6301 0.0000
# 3 46.1633 15.7564 77.2731 0.0000 23.8375 0.0000
# 4 0.0000 0.0000 0.0000 -8.2407 0.0000 -3.6240
# 5 20.3623 1.6301 23.8375 0.0000 40.2003 0.0000
# 6 0.0000 0.0000 0.0000 -3.6240 0.0000 31.1131
#
#
#
# Elastic Compliance Matrix: (Units=1/GPa)
#
#
# Indices 1 2 3 4 5 6 
#
# 1 0.022846 -0.004457 -0.011291 0.000000 -0.004696 0.000000
# 2 -0.004457 0.009569 0.000165 0.000000 0.001772 0.000000
# 3 -0.011291 0.000165 0.021896 0.000000 -0.007271 0.000000
# 4 0.000000 0.000000 0.000000 -0.115436 0.000000 -0.013446
# 5 -0.004696 0.001772 -0.007271 0.000000 0.031494 0.000000
# 6 0.000000 0.000000 0.000000 -0.013446 0.000000 0.030575
#
#
# Mechanical properties :
#
#
# Convention : Reuss Voigt Hill
#
# Bulk Modulus (GPa) = 43.20600 50.99213 47.09906
# Shear Modulus (GPa) = 125.55357 24.57893 75.06625
#
# Velocity S-wave (km/s) = 7.21030 3.19022 5.57521
# Velocity P-wave (km/s) = 9.33854 5.88935 7.80682
#
# Compressibility (1/GPa) = 0.02314494
#
# Stress axis : x y z
#
# Youngs Moduli (GPa) = 43.77148 104.50815 45.67093
#
# Poissons Ratio (x) = 0.46575 0.51566
# Poissons Ratio (y) = 0.19507 -0.00752
# Poissons Ratio (z) = 0.49422 -0.01722
#
# Static dielectric constant tensor:
#      x y z
#    x 1.954820 0.000000 -0.019220 
#    y 0.000000 2.054820 0.000000 
#    z -0.019220 0.000000 1.948830 
# 
# From -- ./inp_files/229750.got.cif
#   From: 2010.05.17/outbox.cif.g08.bks.cpg/sg15_115_cif.got.tgz:229750.got - 2010.06.03 18:47:42.
