data_PCOD9292893
_publ_section_title
;
Structure prediction by ZEFSAII (Michael W. Deem and Ramdas Pophale) SiO2 
 PCOD9292893
Probable space group: C 2/C
;
_chemical_formula_sum "Si O2"
_cell_formula_units_Z 48
_cell_length_a 8.790451
_cell_length_b 11.492027
_cell_length_c 21.661647
_cell_angle_alpha 90.000000
_cell_angle_beta 68.836383
_cell_angle_gamma 90.000000
_cell_volume 2040.670599
_symmetry_space_group_name_H-M "C 2/C"
_symmetry_group_IT_number 15
_symmetry_cell_setting 'monoclinic'
loop_
_space_group_symop_operation_xyz
x,y,z
-x,y,1/2-z
-x,-y,-z
x,-y,1/2+z
1/2+x,1/2+y,z
1/2-x,1/2+y,1/2-z
1/2-x,1/2-y,-z
1/2+x,1/2-y,1/2+z
loop_
_atom_site_type_symbol
_atom_site_label
_atom_site_fract_x
_atom_site_fract_y
_atom_site_fract_z
Si Si1 0.586794 0.034728 0.049953
Si Si2 0.066276 0.130310 0.489242
Si Si3 0.868331 0.724149 0.119189
Si Si4 0.483014 0.089678 0.669988
Si Si5 0.005035 0.841981 0.642205
Si Si6 0.288764 0.442140 0.211184
O O1 0.749928 0.107082 0.014717
O O2 0.486426 0.115556 0.112397
O O3 0.577714 0.916815 0.090644
O O4 0.500000 0.000000 0.000000
O O5 0.957431 0.207585 0.550189
O O6 0.054663 0.168966 0.419980
O O7 0.000000 0.000000 0.500000
O O8 0.700099 0.667212 0.120168
O O9 0.851105 0.816158 0.177599
O O10 0.453073 0.227010 0.686564
O O11 0.298142 0.046779 0.709556
O O12 0.627809 0.040739 0.691931
O O13 0.923060 0.959487 0.679812
#
# Coordination Sequence:
#
# PCOD9292893 Si02
#       6
#     8   8   8   8   8   8
#     4  12  25  42  66 102 143 176 226 291 349 408
#     4  12  21  42  69  96 133 180 225 274 338 416
#     4  11  24  39  66 101 139 170 223 288 347 407
#     4  10  23  43  68  97 132 184 231 282 346 417
#     4  11  21  43  70  96 129 182 229 276 345 416
#     4  10  22  44  69  96 133 181 236 280 342 421
#
# _framework density 23.521678000000001
#
# number of rings (size 3 to 8) (size 9 to 14) (size 15 to 20)
#    0.000    1.000    3.333    4.000    2.333    0.000 
#    0.000    0.000    0.000    0.000    0.000    0.000 
#    0.000    0.000    0.000    0.000    0.000    0.000 
#
# Total GULP energy -133839.018867 kJ/mol
# GULP energy per Si atom -5576.625786 kJ/mol
# Density = 2.346814 g / cm^3
# Si number density = 23.521678 Si / 1000 Ang^3
#
#
#
# Elastic Constant Matrix: (Units=GPa)
#
#
# Indices 1 2 3 4 5 6 
#
# 1 113.6838 49.6919 25.7264 0.0000 -30.6944 0.0000
# 2 49.6919 73.5665 11.6661 0.0000 -16.4137 0.0000
# 3 25.7264 11.6661 72.6661 0.0000 -20.2262 0.0000
# 4 0.0000 0.0000 0.0000 -0.9156 0.0000 -3.9781
# 5 -30.6944 -16.4137 -20.2262 0.0000 38.9903 0.0000
# 6 0.0000 0.0000 0.0000 -3.9781 0.0000 43.2262
#
#
#
# Elastic Compliance Matrix: (Units=1/GPa)
#
#
# Indices 1 2 3 4 5 6 
#
# 1 0.014665 -0.008000 -0.001907 0.000000 0.007188 0.000000
# 2 -0.008000 0.019402 0.000278 0.000000 0.002014 0.000000
# 3 -0.001907 0.000278 0.016371 0.000000 0.007108 0.000000
# 4 0.000000 0.000000 0.000000 -0.780236 0.000000 -0.071805
# 5 0.007188 0.002014 0.007108 0.000000 0.035841 0.000000
# 6 0.000000 0.000000 0.000000 -0.071805 0.000000 0.016526
#
#
# Mechanical properties :
#
#
# Convention : Reuss Voigt Hill
#
# Bulk Modulus (GPa) = 32.07145 48.23168 40.15156
# Shear Modulus (GPa) = -7.71868 27.78230 10.03181
#
# Velocity S-wave (km/s) = -1.81346 3.44049 2.06741
# Velocity P-wave (km/s) = 3.04624 6.02764 4.77556
#
# Compressibility (1/GPa) = 0.03118038
#
# Stress axis : x y z
#
# Youngs Moduli (GPa) = 68.18743 51.54078 61.08523
#
# Poissons Ratio (x) = 0.41232 0.11649
# Poissons Ratio (y) = 0.54549 -0.01698
# Poissons Ratio (z) = 0.13003 -0.01433
#
# Static dielectric constant tensor:
#      x y z
#    x 2.021100 0.000000 -0.169400 
#    y 0.000000 2.140230 0.000000 
#    z -0.169400 0.000000 2.695150 
# 
# From -- ./inp_files/263483.got.cif
#   From: 2010.05.17/outbox.cif.g08.bks.cpg/sg15_132_cif.got.tgz:263483.got - 2010.06.03 18:47:42.
