data_PCOD9292193
_publ_section_title
;
Structure prediction by ZEFSAII (Michael W. Deem and Ramdas Pophale) SiO2 
 PCOD9292193
Probable space group: C 2/C
;
_chemical_formula_sum "Si O2"
_cell_formula_units_Z 40
_cell_length_a 6.513082
_cell_length_b 16.609190
_cell_length_c 17.358008
_cell_angle_alpha 90.000000
_cell_angle_beta 88.440496
_cell_angle_gamma 90.000000
_cell_volume 1877.042003
_symmetry_space_group_name_H-M "C 2/C"
_symmetry_group_IT_number 15
_symmetry_cell_setting 'monoclinic'
loop_
_space_group_symop_operation_xyz
x,y,z
-x,y,1/2-z
-x,-y,-z
x,-y,1/2+z
1/2+x,1/2+y,z
1/2-x,1/2+y,1/2-z
1/2-x,1/2-y,-z
1/2+x,1/2-y,1/2+z
loop_
_atom_site_type_symbol
_atom_site_label
_atom_site_fract_x
_atom_site_fract_y
_atom_site_fract_z
Si Si1 0.378350 0.325036 0.966748
Si Si2 0.428261 0.777461 0.162682
Si Si3 0.422452 0.609902 0.878110
Si Si4 0.854015 0.565136 0.825295
Si Si5 0.398548 0.029881 0.079424
O O1 0.529941 0.293288 0.898099
O O2 0.216663 0.387290 0.931740
O O3 0.250000 0.250000 0.000000
O O4 0.496797 0.365215 0.037639
O O5 0.500000 0.758644 0.250000
O O6 0.200140 0.815057 0.158186
O O7 0.568205 0.853408 0.132736
O O8 0.613581 0.579349 0.825689
O O9 0.268804 0.535286 0.890878
O O10 0.000000 0.567945 0.750000
O O11 0.912683 0.481060 0.863907
O O12 0.500000 0.000000 0.000000
#
# Coordination Sequence:
#
# PCOD9292193 Si02
#       5
#     8   8   8   8   8
#     4  12  22  43  66 100 135 175 223 275 341 403
#     4  10  23  41  64  99 135 172 227 276 345 410
#     4  11  22  44  72  91 133 186 223 281 333 408
#     4  10  22  43  67  96 130 178 232 271 338 406
#     4  11  23  41  66  97 133 171 230 279 325 410
#
# _framework density 21.310127000000001
#
# number of rings (size 3 to 8) (size 9 to 14) (size 15 to 20)
#    0.000    1.200    4.000    2.400    0.000    7.200 
#    3.600    0.000    0.000    0.000    0.000    0.000 
#    0.000    0.000    0.000    0.000    0.000    0.000 
#
# Total GULP energy -111578.891659 kJ/mol
# GULP energy per Si atom -5578.944583 kJ/mol
# Density = 2.126162 g / cm^3
# Si number density = 21.310127 Si / 1000 Ang^3
#
#
#
# Elastic Constant Matrix: (Units=GPa)
#
#
# Indices 1 2 3 4 5 6 
#
# 1 154.3895 46.5985 61.9083 0.0000 -16.9028 0.0000
# 2 46.5985 94.5952 42.4120 0.0000 -0.7564 0.0000
# 3 61.9083 42.4120 115.3341 0.0000 -2.1504 0.0000
# 4 0.0000 0.0000 0.0000 30.2850 0.0000 5.1577
# 5 -16.9028 -0.7564 -2.1504 0.0000 41.6416 0.0000
# 6 0.0000 0.0000 0.0000 5.1577 0.0000 35.3970
#
#
#
# Elastic Compliance Matrix: (Units=1/GPa)
#
#
# Indices 1 2 3 4 5 6 
#
# 1 0.009259 -0.002795 -0.003877 0.000000 0.003507 0.000000
# 2 -0.002795 0.013502 -0.003485 0.000000 -0.001069 0.000000
# 3 -0.003877 -0.003485 0.012014 0.000000 -0.001017 0.000000
# 4 0.000000 0.000000 0.000000 0.033860 0.000000 -0.004934
# 5 0.003507 -0.001069 -0.001017 0.000000 0.025366 0.000000
# 6 0.000000 0.000000 0.000000 -0.004934 0.000000 0.028970
#
#
# Mechanical properties :
#
#
# Convention : Reuss Voigt Hill
#
# Bulk Modulus (GPa) = 69.14691 74.01736 71.58214
# Shear Modulus (GPa) = 33.75969 35.69137 34.72553
#
# Velocity S-wave (km/s) = 3.98453 4.09694 4.04113
# Velocity P-wave (km/s) = 7.32714 7.56232 7.44566
#
# Compressibility (1/GPa) = 0.01446196
#
# Stress axis : x y z
#
# Youngs Moduli (GPa) = 107.99916 74.06285 83.23590
#
# Poissons Ratio (x) = 0.20700 0.32270
# Poissons Ratio (y) = 0.30185 0.29006
# Poissons Ratio (z) = 0.41871 0.25810
#
# Static dielectric constant tensor:
#      x y z
#    x 1.810840 0.000000 0.050530 
#    y 0.000000 1.797170 0.000000 
#    z 0.050530 0.000000 1.901240 
# 
# From -- ./inp_files/184262.got.cif
#   From: 2010.05.17/outbox.cif.g08.bks.cpg/sg15_93_cif.got.tgz:184262.got - 2010.06.03 18:47:42.
