data_PCOD9292062
_publ_section_title
;
Structure prediction by ZEFSAII (Michael W. Deem and Ramdas Pophale) SiO2 
 PCOD9292062
Probable space group: C 2/C
;
_chemical_formula_sum "Si O2"
_cell_formula_units_Z 40
_cell_length_a 16.478430
_cell_length_b 15.873816
_cell_length_c 11.954426
_cell_angle_alpha 90.000000
_cell_angle_beta 149.238910
_cell_angle_gamma 90.000000
_cell_volume 1599.326317
_symmetry_space_group_name_H-M "C 2/C"
_symmetry_group_IT_number 15
_symmetry_cell_setting 'monoclinic'
loop_
_space_group_symop_operation_xyz
x,y,z
-x,y,1/2-z
-x,-y,-z
x,-y,1/2+z
1/2+x,1/2+y,z
1/2-x,1/2+y,1/2-z
1/2-x,1/2-y,-z
1/2+x,1/2-y,1/2+z
loop_
_atom_site_type_symbol
_atom_site_label
_atom_site_fract_x
_atom_site_fract_y
_atom_site_fract_z
Si Si1 0.395090 0.083985 0.900707
Si Si2 0.677689 0.685002 0.001409
Si Si3 0.500000 0.709883 0.250000
Si Si4 0.310736 0.490997 0.504169
Si Si5 0.675277 0.734182 0.256057
Si Si6 0.000000 0.525696 0.250000
O O1 0.414315 0.174608 0.864816
O O2 0.223271 0.056237 0.652551
O O3 0.422332 0.086768 0.064520
O O4 0.500000 0.000000 0.000000
O O5 0.500000 0.682279 0.750000
O O6 0.731451 0.589056 0.056086
O O7 0.750000 0.750000 0.000000
O O8 0.693072 0.706603 0.149766
O O9 0.578730 0.675102 0.227965
O O10 0.653635 0.754814 0.484357
O O11 0.500000 0.482858 0.750000
O O12 0.153829 0.467609 0.395293
#
# Coordination Sequence:
#
# PCOD9292062 Si02
#       6
#     8   8   4   8   8   4
#     4  10  24  41  70  99 133 178 228 287 350 417
#     4  11  24  40  70  99 133 174 229 288 344 410
#     4  10  26  45  64  98 135 186 228 276 348 417
#     4  10  24  44  65 104 133 179 231 283 354 412
#     4  11  24  44  69  97 138 180 231 283 344 421
#     4  10  22  43  66 100 135 176 222 284 354 413
#
# _framework density 25.010529999999999
#
# number of rings (size 3 to 8) (size 9 to 14) (size 15 to 20)
#    0.000    1.600    0.000    2.400   15.400    5.600 
#    7.200    0.000    0.000    0.000    0.000    0.000 
#    0.000    0.000    0.000    0.000    0.000    0.000 
#
# Total GULP energy -111356.041022 kJ/mol
# GULP energy per Si atom -5567.802051 kJ/mol
# Density = 2.495360 g / cm^3
# Si number density = 25.010530 Si / 1000 Ang^3
#
#
#
# Elastic Constant Matrix: (Units=GPa)
#
#
# Indices 1 2 3 4 5 6 
#
# 1 153.2848 45.2765 76.2544 0.0000 -12.0515 0.0000
# 2 45.2765 108.8418 29.6973 0.0000 -2.0139 0.0000
# 3 76.2544 29.6973 181.4323 0.0000 -7.8856 0.0000
# 4 0.0000 0.0000 0.0000 19.8561 0.0000 17.1913
# 5 -12.0515 -2.0139 -7.8856 0.0000 53.7696 0.0000
# 6 0.0000 0.0000 0.0000 17.1913 0.0000 18.3184
#
#
#
# Elastic Compliance Matrix: (Units=1/GPa)
#
#
# Indices 1 2 3 4 5 6 
#
# 1 0.009129 -0.002869 -0.003304 0.000000 0.001454 0.000000
# 2 -0.002869 0.010520 -0.000530 0.000000 -0.000327 0.000000
# 3 -0.003304 -0.000530 0.006999 0.000000 0.000266 0.000000
# 4 0.000000 0.000000 0.000000 0.268636 0.000000 -0.252107
# 5 0.001454 -0.000327 0.000266 0.000000 0.018951 0.000000
# 6 0.000000 0.000000 0.000000 -0.252107 0.000000 0.291186
#
#
# Mechanical properties :
#
#
# Convention : Reuss Voigt Hill
#
# Bulk Modulus (GPa) = 75.52435 82.89058 79.20746
# Shear Modulus (GPa) = 8.02259 37.87751 22.95005
#
# Velocity S-wave (km/s) = 1.79294 3.89583 3.03250
# Velocity P-wave (km/s) = 5.87782 7.31101 6.63324
#
# Compressibility (1/GPa) = 0.01324076
#
# Stress axis : x y z
#
# Youngs Moduli (GPa) = 109.53699 95.05865 142.88284
#
# Poissons Ratio (x) = 0.27275 0.47210
# Poissons Ratio (y) = 0.31429 0.07576
# Poissons Ratio (z) = 0.36192 0.05040
#
# Static dielectric constant tensor:
#      x y z
#    x 2.204090 0.000000 0.007750 
#    y 0.000000 2.227780 0.000000 
#    z 0.007750 0.000000 1.962670 
# 
# From -- ./inp_files/30221.got.cif
#   From: 2010.05.17/outbox.cif.g08.bks.cpg/sg15_16_cif.got.tgz:30221.got - 2010.06.03 18:47:42.
