data_PCOD9292981
_publ_section_title
;
Structure prediction by ZEFSAII (Michael W. Deem and Ramdas Pophale) SiO2 
 PCOD9292981
Probable space group: C 2/C
;
_chemical_formula_sum "Si O2"
_cell_formula_units_Z 40
_cell_length_a 8.685604
_cell_length_b 15.763761
_cell_length_c 13.666569
_cell_angle_alpha 90.000000
_cell_angle_beta 73.187203
_cell_angle_gamma 90.000000
_cell_volume 1791.211923
_symmetry_space_group_name_H-M "C 2/C"
_symmetry_group_IT_number 15
_symmetry_cell_setting 'monoclinic'
loop_
_space_group_symop_operation_xyz
x,y,z
-x,y,1/2-z
-x,-y,-z
x,-y,1/2+z
1/2+x,1/2+y,z
1/2-x,1/2+y,1/2-z
1/2-x,1/2-y,-z
1/2+x,1/2-y,1/2+z
loop_
_atom_site_type_symbol
_atom_site_label
_atom_site_fract_x
_atom_site_fract_y
_atom_site_fract_z
Si Si1 0.500000 0.766400 0.750000
Si Si2 0.079523 0.866382 0.065790
Si Si3 0.254592 0.137582 0.197612
Si Si4 0.074783 0.761705 0.577110
Si Si5 0.957382 0.399805 0.003245
Si Si6 0.000000 0.005308 0.750000
O O1 0.471449 0.708552 0.850284
O O2 0.663475 0.820296 0.724679
O O3 0.268830 0.885297 0.018582
O O4 0.012353 0.944278 0.144369
O O5 0.010801 0.833913 0.974315
O O6 0.128768 0.200354 0.170097
O O7 0.412991 0.127504 0.101657
O O8 0.160467 0.050860 0.228103
O O9 0.250000 0.750000 0.500000
O O10 0.991499 0.669193 0.584446
O O11 0.000000 0.500000 0.000000
#
# Coordination Sequence:
#
# PCOD9292981 Si02
#       6
#     4   8   8   8   8   4
#     4  11  24  44  68  99 134 180 217 300 334 404
#     4  11  23  44  72  95 140 178 231 270 356 392
#     4  11  25  46  67  96 141 171 235 268 357 394
#     4  10  22  44  70  97 129 189 224 272 329 435
#     4  11  22  44  69 101 131 183 229 276 323 429
#     4  11  26  44  64 107 134 176 211 308 330 398
#
# _framework density 22.331249
#
# number of rings (size 3 to 8) (size 9 to 14) (size 15 to 20)
#    0.000    1.200    6.000    0.600    2.800    0.800 
#    7.200    0.000    0.000    0.000    0.000    0.000 
#    0.000    0.000    0.000    0.000    0.000    0.000 
#
# Total GULP energy -111437.191562 kJ/mol
# GULP energy per Si atom -5571.859578 kJ/mol
# Density = 2.228042 g / cm^3
# Si number density = 22.331249 Si / 1000 Ang^3
#
#
#
# Elastic Constant Matrix: (Units=GPa)
#
#
# Indices 1 2 3 4 5 6 
#
# 1 177.7486 77.6581 42.1714 0.0000 -5.8023 0.0000
# 2 77.6581 146.4146 14.3452 0.0000 2.1642 0.0000
# 3 42.1714 14.3452 42.9575 0.0000 -29.1932 0.0000
# 4 0.0000 0.0000 0.0000 0.4402 0.0000 -6.2518
# 5 -5.8023 2.1642 -29.1932 0.0000 46.6798 0.0000
# 6 0.0000 0.0000 0.0000 -6.2518 0.0000 22.1191
#
#
#
# Elastic Compliance Matrix: (Units=1/GPa)
#
#
# Indices 1 2 3 4 5 6 
#
# 1 0.010423 -0.004085 -0.013668 0.000000 -0.007063 0.000000
# 2 -0.004085 0.008936 0.000695 0.000000 -0.000488 0.000000
# 3 -0.013668 0.000695 0.061371 0.000000 0.036650 0.000000
# 4 0.000000 0.000000 0.000000 -0.753661 0.000000 -0.213017
# 5 -0.007063 -0.000488 0.036650 0.000000 0.043488 0.000000
# 6 0.000000 0.000000 0.000000 -0.213017 0.000000 -0.014998
#
#
# Mechanical properties :
#
#
# Convention : Reuss Voigt Hill
#
# Bulk Modulus (GPa) = 21.45280 70.60781 46.03031
# Shear Modulus (GPa) = -8.40635 29.37754 10.48559
#
# Velocity S-wave (km/s) = -1.94231 3.63097 2.16926
# Velocity P-wave (km/s) = 2.14416 7.01894 5.18956
#
# Compressibility (1/GPa) = 0.04661396
#
# Stress axis : x y z
#
# Youngs Moduli (GPa) = 95.94519 111.91232 16.29434
#
# Poissons Ratio (x) = 0.45712 0.22270
# Poissons Ratio (y) = 0.39190 -0.01132
# Poissons Ratio (z) = 1.31134 -0.07773
#
# Static dielectric constant tensor:
#      x y z
#    x 1.793650 0.000000 0.043230 
#    y 0.000000 1.916800 0.000000 
#    z 0.043230 0.000000 1.948810 
# 
# From -- ./inp_files/133127.got.cif
#   From: 2010.05.17/outbox.cif.g08.bks.cpg/sg15_67_cif.got.tgz:133127.got - 2010.06.03 18:47:42.
