data_PCOD9292188
_publ_section_title
;
Structure prediction by ZEFSAII (Michael W. Deem and Ramdas Pophale) SiO2 
 PCOD9292188
Probable space group: C 2/C
;
_chemical_formula_sum "Si O2"
_cell_formula_units_Z 48
_cell_length_a 14.953139
_cell_length_b 18.931941
_cell_length_c 12.780562
_cell_angle_alpha 90.000000
_cell_angle_beta 40.873426
_cell_angle_gamma 90.000000
_cell_volume 2367.632184
_symmetry_space_group_name_H-M "C 2/C"
_symmetry_group_IT_number 15
_symmetry_cell_setting 'monoclinic'
loop_
_space_group_symop_operation_xyz
x,y,z
-x,y,1/2-z
-x,-y,-z
x,-y,1/2+z
1/2+x,1/2+y,z
1/2-x,1/2+y,1/2-z
1/2-x,1/2-y,-z
1/2+x,1/2-y,1/2+z
loop_
_atom_site_type_symbol
_atom_site_label
_atom_site_fract_x
_atom_site_fract_y
_atom_site_fract_z
Si Si1 0.877494 0.435276 0.994807
Si Si2 0.846572 0.624752 0.157032
Si Si3 0.500000 0.411572 0.750000
Si Si4 0.500000 0.936242 0.250000
Si Si5 0.361427 0.493095 0.687538
Si Si6 0.232779 0.665770 0.509998
Si Si7 0.651578 0.193885 0.135413
O O1 0.741992 0.445627 0.184325
O O2 0.845474 0.381422 0.928158
O O3 0.001006 0.403489 0.954346
O O4 0.933175 0.509180 0.894360
O O5 0.740493 0.562243 0.276406
O O6 0.813858 0.649756 0.068976
O O7 0.822358 0.683932 0.265326
O O8 0.415962 0.459444 0.746046
O O9 0.617429 0.364075 0.595010
O O10 0.378096 0.881272 0.327556
O O11 0.500000 0.500000 0.500000
O O12 0.250000 0.750000 0.500000
O O13 0.500000 0.220950 0.250000
O O14 0.750000 0.250000 0.000000
#
# Coordination Sequence:
#
# PCOD9292188 Si02
#       7
#     8   8   4   4   8   8   8
#     4  11  22  43  72 103 129 183 236 285 338 409
#     4  10  22  43  67  95 134 175 239 270 333 426
#     4  10  23  44  56  95 140 162 220 278 343 392
#     4  12  21  42  78  95 136 186 226 292 323 412
#     4  11  25  38  65 101 136 170 218 290 343 402
#     4  11  25  44  65  99 140 184 226 279 344 418
#     4  10  23  44  66  97 139 172 227 286 346 407
#
# _framework density 20.273420000000002
#
# number of rings (size 3 to 8) (size 9 to 14) (size 15 to 20)
#    0.000    1.333    5.833    1.000    4.667    1.333 
#   21.000    0.000    0.000    0.000    0.000    0.000 
#    0.000    0.000    0.000    0.000    0.000    0.000 
#
# Total GULP energy -133809.904539 kJ/mol
# GULP energy per Si atom -5575.412689 kJ/mol
# Density = 2.022728 g / cm^3
# Si number density = 20.273420 Si / 1000 Ang^3
#
#
#
# Elastic Constant Matrix: (Units=GPa)
#
#
# Indices 1 2 3 4 5 6 
#
# 1 83.6914 23.7038 21.8544 -0.0002 -6.0559 0.0000
# 2 23.7038 99.7394 41.3326 -0.0001 -12.6931 0.0000
# 3 21.8544 41.3326 126.9863 -0.0003 -28.5160 0.0001
# 4 -0.0002 -0.0001 -0.0003 30.8922 0.0002 -11.2161
# 5 -6.0559 -12.6931 -28.5160 0.0002 39.4061 0.0000
# 6 0.0000 0.0000 0.0001 -11.2161 0.0000 2.6596
#
#
#
# Elastic Compliance Matrix: (Units=1/GPa)
#
#
# Indices 1 2 3 4 5 6 
#
# 1 0.013032 -0.002498 -0.001386 0.000000 0.000195 -0.000001
# 2 -0.002498 0.012116 -0.003252 0.000000 0.001165 0.000000
# 3 -0.001386 -0.003252 0.010614 0.000000 0.006420 0.000001
# 4 0.000000 0.000000 0.000000 -0.060949 0.000000 -0.257028
# 5 0.000195 0.001165 0.006420 0.000000 0.030428 0.000002
# 6 -0.000001 0.000000 0.000001 -0.257028 0.000002 -0.707929
#
#
# Mechanical properties :
#
#
# Convention : Reuss Voigt Hill
#
# Bulk Modulus (GPa) = 46.53386 53.79987 50.16686
# Shear Modulus (GPa) = -7.33942 29.49334 11.07696
#
# Velocity S-wave (km/s) = -1.90475 3.81829 2.34001
# Velocity P-wave (km/s) = 4.26210 6.78483 5.66566
#
# Compressibility (1/GPa) = 0.02148973
#
# Stress axis : x y z
#
# Youngs Moduli (GPa) = 76.73303 82.53733 94.21954
#
# Poissons Ratio (x) = 0.20618 0.13058
# Poissons Ratio (y) = 0.19168 0.30639
# Poissons Ratio (z) = 0.10635 0.26840
#
# Static dielectric constant tensor:
#      x y z
#    x 1.705770 0.000000 0.037170 
#    y 0.000000 1.772650 0.000000 
#    z 0.037170 0.000000 1.723820 
# 
# From -- ./inp_files/100000.got.cif
#   From: 2010.05.17/outbox.cif.g08.bks.cpg/sg15_50_cif.got.tgz:100000.got - 2010.06.03 18:47:42.
