data_PCOD9292634
_publ_section_title
;
Structure prediction by ZEFSAII (Michael W. Deem and Ramdas Pophale) SiO2 
 PCOD9292634
Probable space group: C 2/C
;
_chemical_formula_sum "Si O2"
_cell_formula_units_Z 32
_cell_length_a 6.725688
_cell_length_b 25.751527
_cell_length_c 9.183408
_cell_angle_alpha 90.000000
_cell_angle_beta 109.881745
_cell_angle_gamma 90.000000
_cell_volume 1495.734806
_symmetry_space_group_name_H-M "C 2/C"
_symmetry_group_IT_number 15
_symmetry_cell_setting 'monoclinic'
loop_
_space_group_symop_operation_xyz
x,y,z
-x,y,1/2-z
-x,-y,-z
x,-y,1/2+z
1/2+x,1/2+y,z
1/2-x,1/2+y,1/2-z
1/2-x,1/2-y,-z
1/2+x,1/2-y,1/2+z
loop_
_atom_site_type_symbol
_atom_site_label
_atom_site_fract_x
_atom_site_fract_y
_atom_site_fract_z
Si Si1 0.505566 0.749755 0.912068
Si Si2 0.267045 0.521749 0.399220
Si Si3 0.608932 0.064525 0.054672
Si Si4 0.681740 0.832525 0.413790
O O1 0.500000 0.772280 0.750000
O O2 0.387778 0.693915 0.892221
O O3 0.750000 0.750000 0.000000
O O4 0.404847 0.787529 0.004045
O O5 0.500000 0.500000 0.500000
O O6 0.763466 0.540042 0.275057
O O7 0.127838 0.473319 0.421077
O O8 0.138993 0.566906 0.457615
O O9 0.709771 0.117816 0.023968
O O10 0.500000 0.844434 0.250000
#
# Coordination Sequence:
#
# PCOD9292634 Si02
#       4
#     8   8   8   8
#     4  11  24  48  72 102 144 187 234 302 368 435
#     4  10  22  44  65  95 138 183 231 288 343 412
#     4  10  24  42  67  99 138 183 236 291 346 422
#     4  11  25  44  71 106 140 183 243 299 359 435
#
# _framework density 21.394165999999998
#
# number of rings (size 3 to 8) (size 9 to 14) (size 15 to 20)
#    0.000    1.500    2.500    0.750   10.500    2.000 
#    4.500    0.000    0.000    0.000    0.000    0.000 
#    0.000    0.000    0.000    0.000    0.000    0.000 
#
# Total GULP energy -89068.189314 kJ/mol
# GULP energy per Si atom -5566.761832 kJ/mol
# Density = 2.134547 g / cm^3
# Si number density = 21.394166 Si / 1000 Ang^3
#
#
#
# Elastic Constant Matrix: (Units=GPa)
#
#
# Indices 1 2 3 4 5 6 
#
# 1 106.9318 13.2958 45.6033 0.0000 4.0702 0.0000
# 2 13.2958 76.0605 26.0225 0.0000 -7.5444 0.0000
# 3 45.6033 26.0225 152.2261 0.0000 3.2429 0.0000
# 4 0.0000 0.0000 0.0000 38.6853 0.0000 89.2774
# 5 4.0702 -7.5444 3.2429 0.0000 36.7182 0.0000
# 6 0.0000 0.0000 0.0000 89.2774 0.0000 1479.1556
#
#
#
# Elastic Compliance Matrix: (Units=1/GPa)
#
#
# Indices 1 2 3 4 5 6 
#
# 1 0.010815 -0.000958 -0.003052 0.000000 -0.001126 0.000000
# 2 -0.000958 0.014407 -0.002245 0.000000 0.003265 0.000000
# 3 -0.003052 -0.002245 0.007885 0.000000 -0.000819 0.000000
# 4 0.000000 0.000000 0.000000 0.030033 0.000000 -0.001813
# 5 -0.001126 0.003265 -0.000819 0.000000 0.028102 0.000000
# 6 0.000000 0.000000 0.000000 -0.001813 0.000000 0.000785
#
#
# Mechanical properties :
#
#
# Convention : Reuss Voigt Hill
#
# Bulk Modulus (GPa) = 48.55336 56.11794 52.33565
# Shear Modulus (GPa) = 44.88144 327.59829 186.23987
#
# Velocity S-wave (km/s) = 4.58518 12.38780 9.34027
# Velocity P-wave (km/s) = 7.12571 15.19531 11.86746
#
# Compressibility (1/GPa) = 0.02059590
#
# Stress axis : x y z
#
# Youngs Moduli (GPa) = 92.46027 69.41109 126.82536
#
# Poissons Ratio (x) = 0.06650 0.38711
# Poissons Ratio (y) = 0.08858 0.28477
# Poissons Ratio (z) = 0.28222 0.15585
#
# Static dielectric constant tensor:
#      x y z
#    x 2.026110 0.000000 -0.000500 
#    y 0.000000 1.821700 0.000000 
#    z -0.000500 0.000000 1.746140 
# 
# From -- ./inp_files/72315.got.cif
#   From: 2010.05.17/outbox.cif.g08.bks.cpg/sg15_37_cif.got.tgz:72315.got - 2010.06.03 18:47:42.
