data_PCOD9292383
_publ_section_title
;
Structure prediction by ZEFSAII (Michael W. Deem and Ramdas Pophale) SiO2 
 PCOD9292383
Probable space group: C 2/C
;
_chemical_formula_sum "Si O2"
_cell_formula_units_Z 56
_cell_length_a 15.457320
_cell_length_b 11.213163
_cell_length_c 15.118308
_cell_angle_alpha 90.000000
_cell_angle_beta 96.798374
_cell_angle_gamma 90.000000
_cell_volume 2601.963227
_symmetry_space_group_name_H-M "C 2/C"
_symmetry_group_IT_number 15
_symmetry_cell_setting 'monoclinic'
loop_
_space_group_symop_operation_xyz
x,y,z
-x,y,1/2-z
-x,-y,-z
x,-y,1/2+z
1/2+x,1/2+y,z
1/2-x,1/2+y,1/2-z
1/2-x,1/2-y,-z
1/2+x,1/2-y,1/2+z
loop_
_atom_site_type_symbol
_atom_site_label
_atom_site_fract_x
_atom_site_fract_y
_atom_site_fract_z
Si Si1 0.678654 0.872884 0.422656
Si Si2 0.712874 0.096185 0.312420
Si Si3 0.598005 0.635871 0.082914
Si Si4 0.073052 0.005144 0.890602
Si Si5 0.750479 0.623431 0.382669
Si Si6 0.548384 0.235378 0.339633
Si Si7 0.499088 0.142592 0.982648
O O1 0.739705 0.763641 0.402062
O O2 0.706405 0.925663 0.521955
O O3 0.580812 0.830929 0.429838
O O4 0.684693 0.969103 0.347122
O O5 0.812511 0.118309 0.353856
O O6 0.704108 0.104311 0.205590
O O7 0.646452 0.186383 0.352214
O O8 0.512419 0.577120 0.116557
O O9 0.580414 0.777459 0.065105
O O10 0.599065 0.561040 0.990415
O O11 0.054365 0.123443 0.833705
O O12 0.155129 0.933473 0.865199
O O13 0.500000 0.181475 0.250000
O O14 0.493867 0.200689 0.419516
O O15 0.500000 0.000000 0.000000
#
# Coordination Sequence:
#
# PCOD9292383 Si02
#       7
#     8   8   8   8   8   8   8
#     4  11  24  48  71 101 144 182 235 283 359 424
#     4  12  26  44  71 109 140 180 240 300 345 418
#     4  10  23  43  70 102 137 180 241 287 342 417
#     4  10  22  43  70  98 137 187 230 285 352 416
#     4  11  25  43  74 102 139 188 230 291 354 415
#     4  11  26  43  68 102 140 182 239 289 355 420
#     4  11  22  45  71  94 141 192 220 285 361 415
#
# _framework density 21.522210000000001
#
# number of rings (size 3 to 8) (size 9 to 14) (size 15 to 20)
#    0.000    1.143    4.286    0.857    4.000    3.429 
#    2.571    0.000    0.000    0.000    0.000    0.000 
#    0.000    0.000    0.000    0.000    0.000    0.000 
#
# Total GULP energy -156347.420257 kJ/mol
# GULP energy per Si atom -5583.836438 kJ/mol
# Density = 2.147322 g / cm^3
# Si number density = 21.522210 Si / 1000 Ang^3
#
#
#
# Elastic Constant Matrix: (Units=GPa)
#
#
# Indices 1 2 3 4 5 6 
#
# 1 71.8777 22.2506 26.1427 0.0000 -5.2268 0.0000
# 2 22.2506 93.3627 22.3525 0.0000 -9.2779 0.0000
# 3 26.1427 22.3525 97.2108 0.0000 -12.6093 0.0000
# 4 0.0000 0.0000 0.0000 18.2338 0.0000 -0.2766
# 5 -5.2268 -9.2779 -12.6093 0.0000 30.3948 0.0000
# 6 0.0000 0.0000 0.0000 -0.2766 0.0000 5.3852
#
#
#
# Elastic Compliance Matrix: (Units=1/GPa)
#
#
# Indices 1 2 3 4 5 6 
#
# 1 0.016170 -0.002949 -0.003621 0.000000 0.000378 0.000000
# 2 -0.002949 0.012057 -0.001657 0.000000 0.002486 0.000000
# 3 -0.003621 -0.001657 0.012149 0.000000 0.003912 0.000000
# 4 0.000000 0.000000 0.000000 0.054886 0.000000 0.002819
# 5 0.000378 0.002486 0.003912 0.000000 0.035347 0.000000
# 6 0.000000 0.000000 0.000000 0.002819 0.000000 0.185838
#
#
# Mechanical properties :
#
#
# Convention : Reuss Voigt Hill
#
# Bulk Modulus (GPa) = 41.80283 44.88255 43.34269
# Shear Modulus (GPa) = 14.66809 23.58313 19.12561
#
# Velocity S-wave (km/s) = 2.61345 3.31381 2.98425
# Velocity P-wave (km/s) = 5.34529 5.96164 5.66186
#
# Compressibility (1/GPa) = 0.02392183
#
# Stress axis : x y z
#
# Youngs Moduli (GPa) = 61.84246 82.93594 82.30999
#
# Poissons Ratio (x) = 0.24459 0.29808
# Poissons Ratio (y) = 0.18238 0.13638
# Poissons Ratio (z) = 0.22396 0.13742
#
# Static dielectric constant tensor:
#      x y z
#    x 1.800800 0.000000 0.028960 
#    y 0.000000 1.764880 0.000000 
#    z 0.028960 0.000000 1.808070 
# 
# From -- ./inp_files/152627.got.cif
#   From: 2010.05.17/outbox.cif.g08.bks.cpg/sg15_77_cif.got.tgz:152627.got - 2010.06.03 18:47:42.
