data_PCOD9292258
_publ_section_title
;
Structure prediction by ZEFSAII (Michael W. Deem and Ramdas Pophale) SiO2 
 PCOD9292258
Probable space group: C 2/C
;
_chemical_formula_sum "Si O2"
_cell_formula_units_Z 40
_cell_length_a 16.654709
_cell_length_b 10.323849
_cell_length_c 14.535689
_cell_angle_alpha 90.000000
_cell_angle_beta 142.722207
_cell_angle_gamma 90.000000
_cell_volume 1513.761926
_symmetry_space_group_name_H-M "C 2/C"
_symmetry_group_IT_number 15
_symmetry_cell_setting 'monoclinic'
loop_
_space_group_symop_operation_xyz
x,y,z
-x,y,1/2-z
-x,-y,-z
x,-y,1/2+z
1/2+x,1/2+y,z
1/2-x,1/2+y,1/2-z
1/2-x,1/2-y,-z
1/2+x,1/2-y,1/2+z
loop_
_atom_site_type_symbol
_atom_site_label
_atom_site_fract_x
_atom_site_fract_y
_atom_site_fract_z
Si Si1 0.482776 0.474431 0.092097
Si Si2 0.268885 0.987384 0.421104
Si Si3 0.701258 0.045155 0.350873
Si Si4 0.138189 0.248040 0.095362
Si Si5 0.491089 0.176598 0.638657
O O1 0.612039 0.500503 0.267482
O O2 0.500000 0.500000 0.000000
O O3 0.339830 0.537215 0.982578
O O4 0.454214 0.318818 0.066727
O O5 0.307232 0.913556 0.550606
O O6 0.319045 0.893314 0.386207
O O7 0.343156 0.124708 0.486499
O O8 0.734311 0.154066 0.305066
O O9 0.577384 0.956254 0.218479
O O10 0.060232 0.244409 0.120385
O O11 0.500000 0.231226 0.750000
#
# Coordination Sequence:
#
# PCOD9292258 Si02
#       5
#     8   8   8   8   8
#     4  10  23  39  62  93 136 171 216 268 333 381
#     4  11  21  39  67  97 129 167 224 275 321 389
#     4   9  22  40  65  97 131 167 216 274 330 385
#     4  10  23  37  68  92 135 168 218 262 339 384
#     4  10  22  43  68  97 131 175 220 269 328 403
#
# _framework density 26.424236000000001
#
# number of rings (size 3 to 8) (size 9 to 14) (size 15 to 20)
#    1.200    0.800    0.000    3.000    2.800    1.600 
#    3.600    2.000    0.000    6.000    0.000    0.000 
#    0.000    0.000    0.000    0.000    0.000    0.000 
#
# Total GULP energy -111754.689662 kJ/mol
# GULP energy per Si atom -5587.734483 kJ/mol
# Density = 2.636409 g / cm^3
# Si number density = 26.424236 Si / 1000 Ang^3
#
#
#
# Elastic Constant Matrix: (Units=GPa)
#
#
# Indices 1 2 3 4 5 6 
#
# 1 138.2024 20.5625 6.6198 0.0000 -4.2271 0.0000
# 2 20.5625 86.3343 14.7075 0.0000 -1.7874 0.0000
# 3 6.6198 14.7075 84.4761 0.0000 26.0650 0.0000
# 4 0.0000 0.0000 0.0000 10.3039 0.0000 -1.0205
# 5 -4.2271 -1.7874 26.0650 0.0000 43.7163 0.0000
# 6 0.0000 0.0000 0.0000 -1.0205 0.0000 51.4501
#
#
#
# Elastic Compliance Matrix: (Units=1/GPa)
#
#
# Indices 1 2 3 4 5 6 
#
# 1 0.007545 -0.001670 -0.000618 0.000000 0.001030 0.000000
# 2 -0.001670 0.012469 -0.002632 0.000000 0.001917 0.000000
# 3 -0.000618 -0.002632 0.015190 0.000000 -0.009224 0.000000
# 4 0.000000 0.000000 0.000000 0.097242 0.000000 0.001929
# 5 0.001030 0.001917 -0.009224 0.000000 0.028553 0.000000
# 6 0.000000 0.000000 0.000000 0.001929 0.000000 0.019475
#
#
# Mechanical properties :
#
#
# Convention : Reuss Voigt Hill
#
# Bulk Modulus (GPa) = 39.42567 43.64358 41.53462
# Shear Modulus (GPa) = 25.15485 38.90226 32.02856
#
# Velocity S-wave (km/s) = 3.08873 3.84111 3.48529
# Velocity P-wave (km/s) = 5.26052 6.01868 5.65233
#
# Compressibility (1/GPa) = 0.02536419
#
# Stress axis : x y z
#
# Youngs Moduli (GPa) = 132.53070 80.20060 65.83089
#
# Poissons Ratio (x) = 0.13397 0.04070
# Poissons Ratio (y) = 0.22139 0.17323
# Poissons Ratio (z) = 0.08193 0.21105
#
# Static dielectric constant tensor:
#      x y z
#    x 2.097150 0.000000 0.020170 
#    y 0.000000 2.157190 0.000000 
#    z 0.020170 0.000000 2.066300 
# 
# From -- ./inp_files/161169.got.cif
#   From: 2010.05.17/outbox.cif.g08.bks.cpg/sg15_81_cif.got.tgz:161169.got - 2010.06.03 18:47:42.
