data_PCOD9292873
_publ_section_title
;
Structure prediction by ZEFSAII (Michael W. Deem and Ramdas Pophale) SiO2 
 PCOD9292873
Probable space group: C 2/C
;
_chemical_formula_sum "Si O2"
_cell_formula_units_Z 40
_cell_length_a 27.847989
_cell_length_b 5.090777
_cell_length_c 23.184558
_cell_angle_alpha 90.000000
_cell_angle_beta 153.437372
_cell_angle_gamma 90.000000
_cell_volume 1469.789004
_symmetry_space_group_name_H-M "C 2/C"
_symmetry_group_IT_number 15
_symmetry_cell_setting 'monoclinic'
loop_
_space_group_symop_operation_xyz
x,y,z
-x,y,1/2-z
-x,-y,-z
x,-y,1/2+z
1/2+x,1/2+y,z
1/2-x,1/2+y,1/2-z
1/2-x,1/2-y,-z
1/2+x,1/2-y,1/2+z
loop_
_atom_site_type_symbol
_atom_site_label
_atom_site_fract_x
_atom_site_fract_y
_atom_site_fract_z
Si Si1 0.107349 0.883517 0.883551
Si Si2 0.827468 0.438934 0.336493
Si Si3 0.787786 0.992252 0.123516
Si Si4 0.471743 0.336404 0.911172
Si Si5 0.875179 0.845196 0.995589
O O1 0.165510 0.006579 0.890782
O O2 0.000000 0.731399 0.750000
O O3 0.188804 0.698056 0.007289
O O4 0.064648 0.114409 0.879659
O O5 0.754981 0.694869 0.255821
O O6 0.911064 0.415131 0.374075
O O7 0.887258 0.383396 0.461350
O O8 0.878964 0.074155 0.266896
O O9 0.740716 0.725599 0.101059
O O10 0.500000 0.500000 0.000000
O O11 0.579811 0.406161 0.991588
#
# Coordination Sequence:
#
# PCOD9292873 Si02
#       5
#     8   8   8   8   8
#     4  11  24  44  72 103 141 192 249 313 386 461
#     4  11  23  44  73 105 150 200 249 313 384 448
#     4  11  23  46  69 102 145 191 244 316 385 449
#     4  10  22  44  69 107 142 195 252 312 381 463
#     4  11  23  43  70 100 146 189 254 305 384 457
#
# _framework density 27.214793
#
# number of rings (size 3 to 8) (size 9 to 14) (size 15 to 20)
#    0.000    1.200    4.000    1.800    0.000    0.800 
#   10.800    3.000    0.000    0.000    0.000    0.000 
#    0.000    0.000    0.000    0.000    0.000    0.000 
#
# Total GULP energy -111426.927270 kJ/mol
# GULP energy per Si atom -5571.346364 kJ/mol
# Density = 2.715285 g / cm^3
# Si number density = 27.214793 Si / 1000 Ang^3
#
#
#
# Elastic Constant Matrix: (Units=GPa)
#
#
# Indices 1 2 3 4 5 6 
#
# 1 257.9243 50.0416 64.1449 0.0007 -7.1365 0.0002
# 2 50.0416 142.5929 83.4811 -0.0014 18.7447 -0.0039
# 3 64.1449 83.4811 185.1892 -0.0029 -9.8159 -0.0021
# 4 0.0007 -0.0014 -0.0029 50.4577 -0.0015 9.6286
# 5 -7.1365 18.7447 -9.8159 -0.0015 50.9859 -0.0018
# 6 0.0002 -0.0039 -0.0021 9.6286 -0.0018 14.3983
#
#
#
# Elastic Compliance Matrix: (Units=1/GPa)
#
#
# Indices 1 2 3 4 5 6 
#
# 1 0.004350 -0.001053 -0.000989 0.000000 0.000806 0.000000
# 2 -0.001053 0.010857 -0.004798 0.000000 -0.005063 0.000002
# 3 -0.000989 -0.004798 0.008074 0.000000 0.003180 0.000000
# 4 0.000000 0.000000 0.000000 0.022718 0.000000 -0.015192
# 5 0.000806 -0.005063 0.003180 0.000000 0.022199 0.000002
# 6 0.000000 0.000002 0.000000 -0.015192 0.000002 0.079612
#
#
# Mechanical properties :
#
#
# Convention : Reuss Voigt Hill
#
# Bulk Modulus (GPa) = 104.16433 109.00463 106.58448
# Shear Modulus (GPa) = 30.36015 49.03765 39.69890
#
# Velocity S-wave (km/s) = 3.34365 4.24945 3.82347
# Velocity P-wave (km/s) = 7.29826 8.01359 7.66427
#
# Compressibility (1/GPa) = 0.00960022
#
# Stress axis : x y z
#
# Youngs Moduli (GPa) = 229.89824 92.10711 123.85804
#
# Poissons Ratio (x) = 0.09702 0.12251
# Poissons Ratio (y) = 0.24216 0.59423
# Poissons Ratio (z) = 0.22740 0.44190
#
# Static dielectric constant tensor:
#      x y z
#    x 2.160350 -0.000010 0.052770 
#    y -0.000010 2.224040 -0.000010 
#    z 0.052770 -0.000010 2.162450 
# 
# From -- ./inp_files/284120.got.cif
#   From: 2010.05.17/outbox.cif.g08.bks.cpg/sg15_143_cif.got.tgz:284120.got - 2010.06.03 18:47:42.
