data_PCOD9292794
_publ_section_title
;
Structure prediction by ZEFSAII (Michael W. Deem and Ramdas Pophale) SiO2 
 PCOD9292794
Probable space group: C 2/C
;
_chemical_formula_sum "Si O2"
_cell_formula_units_Z 28
_cell_length_a 24.103479
_cell_length_b 6.895000
_cell_length_c 15.794476
_cell_angle_alpha 90.000000
_cell_angle_beta 27.848062
_cell_angle_gamma 90.000000
_cell_volume 1226.183838
_symmetry_space_group_name_H-M "C 2/C"
_symmetry_group_IT_number 15
_symmetry_cell_setting 'monoclinic'
loop_
_space_group_symop_operation_xyz
x,y,z
-x,y,1/2-z
-x,-y,-z
x,-y,1/2+z
1/2+x,1/2+y,z
1/2-x,1/2+y,1/2-z
1/2-x,1/2-y,-z
1/2+x,1/2-y,1/2+z
loop_
_atom_site_type_symbol
_atom_site_label
_atom_site_fract_x
_atom_site_fract_y
_atom_site_fract_z
Si Si1 0.883344 0.557122 0.452540
Si Si2 0.056711 0.301061 0.455616
Si Si3 0.862828 0.002125 0.786592
Si Si4 0.000000 0.819107 0.750000
O O1 0.863244 0.654132 0.570025
O O2 0.772432 0.567530 0.540017
O O3 0.923060 0.331671 0.410557
O O4 0.000000 0.643436 0.250000
O O5 0.124582 0.187076 0.290667
O O6 0.000000 0.500000 0.500000
O O7 0.950173 0.163140 0.630784
O O8 0.910625 0.940007 0.813303
#
# Coordination Sequence:
#
# PCOD9292794 Si02
#       4
#     8   8   8   4
#     4  10  24  44  69 103 138 179 228 289 338 414
#     4  11  24  45  65 104 135 184 236 278 345 406
#     4  11  25  44  72  97 143 185 224 290 346 406
#     4  10  22  44  68 104 136 180 234 274 344 412
#
# _framework density 22.835076000000001
#
# number of rings (size 3 to 8) (size 9 to 14) (size 15 to 20)
#    0.857    0.571    2.857    0.857    6.000    1.143 
#    0.000    0.000    0.000    0.000    0.000    0.000 
#    0.000    0.000    0.000    0.000    0.000    0.000 
#
# Total GULP energy -78302.473400 kJ/mol
# GULP energy per Si atom -5593.033814 kJ/mol
# Density = 2.278310 g / cm^3
# Si number density = 22.835076 Si / 1000 Ang^3
#
#
#
# Elastic Constant Matrix: (Units=GPa)
#
#
# Indices 1 2 3 4 5 6 
#
# 1 191.2252 41.2046 43.0244 -0.0001 -20.8225 0.0000
# 2 41.2046 98.5460 8.5346 -0.0010 2.4239 0.0007
# 3 43.0244 8.5346 61.6557 -0.0010 -21.5757 0.0002
# 4 -0.0001 -0.0010 -0.0010 2.5297 0.0003 5.6296
# 5 -20.8225 2.4239 -21.5757 0.0003 40.6008 0.0000
# 6 0.0000 0.0007 0.0002 5.6296 0.0000 45.9687
#
#
#
# Elastic Compliance Matrix: (Units=1/GPa)
#
#
# Indices 1 2 3 4 5 6 
#
# 1 0.006820 -0.002559 -0.003842 -0.000004 0.001609 0.000000
# 2 -0.002559 0.011325 -0.000587 0.000007 -0.002300 -0.000001
# 3 -0.003842 -0.000587 0.022486 0.000011 0.010014 -0.000001
# 4 -0.000004 0.000007 0.000011 0.543399 0.000000 -0.066548
# 5 0.001609 -0.002300 0.010014 0.000000 0.030914 0.000000
# 6 0.000000 -0.000001 -0.000001 -0.066548 0.000000 0.029904
#
#
# Mechanical properties :
#
#
# Convention : Reuss Voigt Hill
#
# Bulk Modulus (GPa) = 37.51645 59.66157 48.58901
# Shear Modulus (GPa) = 7.48829 35.06405 21.27617
#
# Velocity S-wave (km/s) = 1.81285 3.92284 3.05574
# Velocity P-wave (km/s) = 4.56584 6.83389 5.81158
#
# Compressibility (1/GPa) = 0.02665498
#
# Stress axis : x y z
#
# Youngs Moduli (GPa) = 146.61848 88.30182 44.47264
#
# Poissons Ratio (x) = 0.22593 0.17087
# Poissons Ratio (y) = 0.37514 0.02611
# Poissons Ratio (z) = 0.56334 0.05185
#
# Static dielectric constant tensor:
#      x y z
#    x 1.833630 0.000000 0.019190 
#    y 0.000000 1.877990 0.000000 
#    z 0.019190 0.000000 1.818990 
# 
# From -- ./inp_files/115850.got.cif
#   From: 2010.05.17/outbox.cif.g08.bks.cpg/sg15_58_cif.got.tgz:115850.got - 2010.06.03 18:47:42.
