data_PCOD9292317
_publ_section_title
;
Structure prediction by ZEFSAII (Michael W. Deem and Ramdas Pophale) SiO2 
 PCOD9292317
Probable space group: C 2/C
;
_chemical_formula_sum "Si O2"
_cell_formula_units_Z 52
_cell_length_a 15.903480
_cell_length_b 24.622131
_cell_length_c 5.332959
_cell_angle_alpha 90.000000
_cell_angle_beta 97.004616
_cell_angle_gamma 90.000000
_cell_volume 2072.680979
_symmetry_space_group_name_H-M "C 2/C"
_symmetry_group_IT_number 15
_symmetry_cell_setting 'monoclinic'
loop_
_space_group_symop_operation_xyz
x,y,z
-x,y,1/2-z
-x,-y,-z
x,-y,1/2+z
1/2+x,1/2+y,z
1/2-x,1/2+y,1/2-z
1/2-x,1/2-y,-z
1/2+x,1/2-y,1/2+z
loop_
_atom_site_type_symbol
_atom_site_label
_atom_site_fract_x
_atom_site_fract_y
_atom_site_fract_z
Si Si1 0.881225 0.303311 0.966928
Si Si2 0.031072 0.856308 0.012848
Si Si3 0.203311 0.143910 0.335216
Si Si4 0.809572 0.021249 0.068313
Si Si5 0.000000 0.621213 0.750000
Si Si6 0.612841 0.268131 0.528354
Si Si7 0.388530 0.023588 0.634142
O O1 0.797980 0.340997 0.940834
O O2 0.877563 0.267031 0.716701
O O3 0.877665 0.268705 0.221718
O O4 0.966087 0.339348 0.020403
O O5 0.000000 0.885107 0.250000
O O6 0.129951 0.844607 0.015912
O O7 0.000000 0.885499 0.750000
O O8 0.976076 0.800481 0.995649
O O9 0.192514 0.079950 0.299346
O O10 0.178974 0.182447 0.093694
O O11 0.711126 0.013902 0.945244
O O12 0.847692 0.017191 0.800362
O O13 0.920965 0.580454 0.760969
O O14 0.419539 0.018135 0.359164
#
# Coordination Sequence:
#
# PCOD9292317 Si02
#       7
#     8   8   8   8   4   8   8
#     4  12  28  43  69 106 148 190 241 297 346 422
#     4  10  23  42  71  93 131 181 237 284 355 419
#     4  11  24  49  75 106 140 193 248 289 369 443
#     4  10  23  43  70 106 143 179 235 309 365 422
#     4  12  26  44  66 108 150 192 238 304 346 416
#     4  11  26  46  68  99 142 195 238 295 357 430
#     4  10  22  43  69  96 140 194 246 283 354 430
#
# _framework density 25.088277000000001
#
# number of rings (size 3 to 8) (size 9 to 14) (size 15 to 20)
#    0.000    1.231    1.538    3.231    5.385    9.846 
#    0.000    0.000    0.000   12.000    0.000    0.000 
#    0.000    0.000    0.000    0.000    0.000    0.000 
#
# Total GULP energy -145132.705800 kJ/mol
# GULP energy per Si atom -5582.027146 kJ/mol
# Density = 2.503117 g / cm^3
# Si number density = 25.088277 Si / 1000 Ang^3
#
#
#
# Elastic Constant Matrix: (Units=GPa)
#
#
# Indices 1 2 3 4 5 6 
#
# 1 83.6277 4.0021 28.9777 0.0000 -1.6085 0.0000
# 2 4.0021 99.1373 51.9388 0.0000 15.9852 0.0000
# 3 28.9777 51.9388 202.1675 0.0000 1.8138 0.0000
# 4 0.0000 0.0000 0.0000 19.9045 0.0000 12.2538
# 5 -1.6085 15.9852 1.8138 0.0000 17.0374 0.0000
# 6 0.0000 0.0000 0.0000 12.2538 0.0000 33.2594
#
#
#
# Elastic Compliance Matrix: (Units=1/GPa)
#
#
# Indices 1 2 3 4 5 6 
#
# 1 0.012622 0.000306 -0.001898 0.000000 0.001106 0.000000
# 2 0.000306 0.013965 -0.003518 0.000000 -0.012699 0.000000
# 3 -0.001898 -0.003518 0.006100 0.000000 0.002472 0.000000
# 4 0.000000 0.000000 0.000000 0.064978 0.000000 -0.023940
# 5 0.001106 -0.012699 0.002472 0.000000 0.070451 0.000000
# 6 0.000000 0.000000 0.000000 -0.023940 0.000000 0.038887
#
#
# Mechanical properties :
#
#
# Convention : Reuss Voigt Hill
#
# Bulk Modulus (GPa) = 44.50613 61.64107 53.07360
# Shear Modulus (GPa) = 22.25076 34.04118 28.14597
#
# Velocity S-wave (km/s) = 2.98132 3.68755 3.35308
# Velocity P-wave (km/s) = 5.44328 6.53863 6.01594
#
# Compressibility (1/GPa) = 0.02246881
#
# Stress axis : x y z
#
# Youngs Moduli (GPa) = 79.22685 71.60578 163.93449
#
# Poissons Ratio (x) = -0.02194 0.31112
# Poissons Ratio (y) = -0.02427 0.57669
# Poissons Ratio (z) = 0.15036 0.25190
#
# Static dielectric constant tensor:
#      x y z
#    x 2.053840 0.000000 -0.035070 
#    y 0.000000 2.042840 0.000000 
#    z -0.035070 0.000000 2.078400 
# 
# From -- ./inp_files/11306.got.cif
#   From: 2010.05.17/outbox.cif.g08.bks.cpg/sg15_6_cif.got.tgz:11306.got - 2010.06.03 18:47:42.
