data_PCOD9292580
_publ_section_title
;
Structure prediction by ZEFSAII (Michael W. Deem and Ramdas Pophale) SiO2 
 PCOD9292580
Probable space group: C 2/C
;
_chemical_formula_sum "Si O2"
_cell_formula_units_Z 52
_cell_length_a 27.432107
_cell_length_b 7.146820
_cell_length_c 13.841231
_cell_angle_alpha 90.000000
_cell_angle_beta 136.121394
_cell_angle_gamma 90.000000
_cell_volume 1880.888856
_symmetry_space_group_name_H-M "C 2/C"
_symmetry_group_IT_number 15
_symmetry_cell_setting 'monoclinic'
loop_
_space_group_symop_operation_xyz
x,y,z
-x,y,1/2-z
-x,-y,-z
x,-y,1/2+z
1/2+x,1/2+y,z
1/2-x,1/2+y,1/2-z
1/2-x,1/2-y,-z
1/2+x,1/2-y,1/2+z
loop_
_atom_site_type_symbol
_atom_site_label
_atom_site_fract_x
_atom_site_fract_y
_atom_site_fract_z
Si Si1 0.500000 0.000000 0.500000
Si Si2 0.696818 0.800647 0.313996
Si Si3 0.000000 0.151882 0.750000
Si Si4 0.356028 0.180754 0.265188
Si Si5 0.150949 0.778088 0.023383
Si Si6 0.250000 0.250000 0.000000
Si Si7 0.146687 0.771692 0.527125
Si Si8 0.441779 0.302660 0.774754
O O1 0.568819 0.902038 0.649625
O O2 0.509234 0.184113 0.584812
O O3 0.667592 0.801170 0.162406
O O4 0.724428 0.772679 0.576878
O O5 0.633891 0.707612 0.281183
O O6 0.701516 0.021814 0.352724
O O7 0.972868 0.007845 0.794961
O O8 0.934705 0.268941 0.614979
O O9 0.348602 0.205339 0.367652
O O10 0.323019 0.340886 0.155100
O O11 0.082368 0.722655 0.864467
O O12 0.149769 0.002799 0.031751
O O13 0.202141 0.300304 0.029985
#
# Coordination Sequence:
#
# PCOD9292580 Si02
#       8
#     4   8   4   8   8   4   8   8
#     4  10  22  44  64 108 138 198 228 308 364 466
#     4  11  22  43  66 110 135 196 236 313 356 458
#     4  10  24  48  68 114 140 204 242 324 366 478
#     4  11  25  43  74 100 155 182 257 298 392 429
#     4  11  21  45  68 106 137 199 239 314 352 465
#     4  12  24  46  68 114 136 208 234 330 354 476
#     4  11  25  43  74 101 150 183 260 295 392 429
#     4  10  23  40  72  97 151 183 251 289 392 427
#
# _framework density 27.646502000000002
#
# number of rings (size 3 to 8) (size 9 to 14) (size 15 to 20)
#    0.000    1.231    3.077    2.308    0.000    8.000 
#   11.077    1.538    0.000    0.000    0.000    0.000 
#    0.000    0.000    0.000    0.000    0.000    0.000 
#
# Total GULP energy -144853.766751 kJ/mol
# GULP energy per Si atom -5571.298721 kJ/mol
# Density = 2.758358 g / cm^3
# Si number density = 27.646502 Si / 1000 Ang^3
#
#
#
# Elastic Constant Matrix: (Units=GPa)
#
#
# Indices 1 2 3 4 5 6 
#
# 1 100.6761 22.6432 -2.5622 0.0000 -13.8229 0.0000
# 2 22.6432 111.0125 19.3158 0.0000 3.4853 0.0000
# 3 -2.5622 19.3158 179.6812 0.0000 -11.0640 0.0000
# 4 0.0000 0.0000 0.0000 -9.5596 0.0000 49.9733
# 5 -13.8229 3.4853 -11.0640 0.0000 47.2747 0.0000
# 6 0.0000 0.0000 0.0000 49.9733 0.0000 -54.8071
#
#
#
# Elastic Compliance Matrix: (Units=1/GPa)
#
#
# Indices 1 2 3 4 5 6 
#
# 1 0.010990 -0.002464 0.000640 0.000000 0.003545 0.000000
# 2 -0.002464 0.009772 -0.001192 0.000000 -0.001720 0.000000
# 3 0.000640 -0.001192 0.005803 0.000000 0.001633 0.000000
# 4 0.000000 0.000000 0.000000 0.027773 0.000000 0.025324
# 5 0.003545 -0.001720 0.001633 0.000000 0.022698 0.000000
# 6 0.000000 0.000000 0.000000 0.025324 0.000000 0.004844
#
#
# Mechanical properties :
#
#
# Convention : Reuss Voigt Hill
#
# Bulk Modulus (GPa) = 48.70112 52.24040 50.47076
# Shear Modulus (GPa) = 52.76640 20.04646 36.40643
#
# Velocity S-wave (km/s) = 4.37350 2.69569 3.63279
# Velocity P-wave (km/s) = 6.56942 5.35031 5.99096
#
# Compressibility (1/GPa) = 0.02053341
#
# Stress axis : x y z
#
# Youngs Moduli (GPa) = 90.99103 102.33370 172.31911
#
# Poissons Ratio (x) = 0.25218 -0.11027
# Poissons Ratio (y) = 0.22423 0.20532
# Poissons Ratio (z) = -0.05823 0.12193
#
# Static dielectric constant tensor:
#      x y z
#    x 2.119880 0.000000 0.224480 
#    y 0.000000 2.183760 0.000000 
#    z 0.224480 0.000000 1.800850 
# 
# From -- ./inp_files/224296.got.cif
#   From: 2010.05.17/outbox.cif.g08.bks.cpg/sg15_113_cif.got.tgz:224296.got - 2010.06.03 18:47:42.
