data_PCOD9292249
_publ_section_title
;
Structure prediction by ZEFSAII (Michael W. Deem and Ramdas Pophale) SiO2 
 PCOD9292249
Probable space group: C 2/C
;
_chemical_formula_sum "Si O2"
_cell_formula_units_Z 52
_cell_length_a 14.547267
_cell_length_b 11.342580
_cell_length_c 15.608394
_cell_angle_alpha 90.000000
_cell_angle_beta 110.862061
_cell_angle_gamma 90.000000
_cell_volume 2406.595651
_symmetry_space_group_name_H-M "C 2/C"
_symmetry_group_IT_number 15
_symmetry_cell_setting 'monoclinic'
loop_
_space_group_symop_operation_xyz
x,y,z
-x,y,1/2-z
-x,-y,-z
x,-y,1/2+z
1/2+x,1/2+y,z
1/2-x,1/2+y,1/2-z
1/2-x,1/2-y,-z
1/2+x,1/2-y,1/2+z
loop_
_atom_site_type_symbol
_atom_site_label
_atom_site_fract_x
_atom_site_fract_y
_atom_site_fract_z
Si Si1 0.138688 0.457783 0.118765
Si Si2 0.052814 0.850753 0.938787
Si Si3 0.409098 0.909402 0.068861
Si Si4 0.832564 0.576476 0.193012
Si Si5 0.665371 0.333453 0.343733
Si Si6 0.500000 0.520508 0.250000
Si Si7 0.136754 0.904522 0.525415
O O1 0.161063 0.540918 0.206652
O O2 0.222988 0.358813 0.148088
O O3 0.026979 0.416249 0.094928
O O4 0.141227 0.524550 0.028249
O O5 0.110761 0.730209 0.941716
O O6 0.006786 0.898424 0.835359
O O7 0.962135 0.842183 0.974528
O O8 0.116455 0.958645 0.996183
O O9 0.380472 0.978352 0.146128
O O10 0.876223 0.706594 0.195119
O O11 0.721609 0.593258 0.123214
O O12 0.595050 0.435567 0.283283
O O13 0.665807 0.343839 0.446469
#
# Coordination Sequence:
#
# PCOD9292249 Si02
#       7
#     8   8   8   8   8   4   8
#     4  11  26  43  65 101 133 179 225 280 349 398
#     4  10  23  43  68  96 138 177 228 283 338 413
#     4  11  26  44  65 102 139 174 227 286 342 403
#     4  12  25  42  72  99 136 180 230 281 354 399
#     4  11  24  45  67 101 138 175 232 286 333 424
#     4  10  24  42  70  98 132 180 232 272 348 414
#     4  10  22  43  68  96 132 186 223 279 348 397
#
# _framework density 21.607285999999998
#
# number of rings (size 3 to 8) (size 9 to 14) (size 15 to 20)
#    0.000    1.231    1.538    2.769    8.615    4.308 
#    2.769    0.000    0.000    0.000    0.000    0.000 
#    0.000    0.000    0.000    0.000    0.000    0.000 
#
# Total GULP energy -145433.301903 kJ/mol
# GULP energy per Si atom -5593.588535 kJ/mol
# Density = 2.155811 g / cm^3
# Si number density = 21.607286 Si / 1000 Ang^3
#
#
#
# Elastic Constant Matrix: (Units=GPa)
#
#
# Indices 1 2 3 4 5 6 
#
# 1 64.4089 22.2217 5.2649 0.0000 -4.4866 0.0000
# 2 22.2217 108.8128 7.0445 0.0000 -3.7371 0.0000
# 3 5.2649 7.0445 84.0047 0.0000 8.6978 0.0000
# 4 0.0000 0.0000 0.0000 9.2136 0.0000 -6.7628
# 5 -4.4866 -3.7371 8.6978 0.0000 23.0822 0.0000
# 6 0.0000 0.0000 0.0000 -6.7628 0.0000 13.3034
#
#
#
# Elastic Compliance Matrix: (Units=1/GPa)
#
#
# Indices 1 2 3 4 5 6 
#
# 1 0.016972 -0.003284 -0.001118 0.000000 0.003189 0.000000
# 2 -0.003284 0.009953 -0.000759 0.000000 0.001259 0.000000
# 3 -0.001118 -0.000759 0.012563 0.000000 -0.005074 0.000000
# 4 0.000000 0.000000 0.000000 0.173140 0.000000 0.088016
# 5 0.003189 0.001259 -0.005074 0.000000 0.046059 0.000000
# 6 0.000000 0.000000 0.000000 0.088016 0.000000 0.119912
#
#
# Mechanical properties :
#
#
# Convention : Reuss Voigt Hill
#
# Bulk Modulus (GPa) = 34.28750 36.25429 35.27089
# Shear Modulus (GPa) = 12.54246 23.96619 18.25433
#
# Velocity S-wave (km/s) = 2.41192 3.33404 2.90974
# Velocity P-wave (km/s) = 4.86409 5.62461 5.25812
#
# Compressibility (1/GPa) = 0.02916515
#
# Stress axis : x y z
#
# Youngs Moduli (GPa) = 58.91911 100.47036 79.59713
#
# Poissons Ratio (x) = 0.32996 0.08903
# Poissons Ratio (y) = 0.19350 0.06043
# Poissons Ratio (z) = 0.06590 0.07628
#
# Static dielectric constant tensor:
#      x y z
#    x 1.799790 0.000000 0.011620 
#    y 0.000000 1.802380 0.000000 
#    z 0.011620 0.000000 1.750250 
# 
# From -- ./inp_files/152705.got.cif
#   From: 2010.05.17/outbox.cif.g08.bks.cpg/sg15_77_cif.got.tgz:152705.got - 2010.06.03 18:47:42.
