data_PCOD9292155
_publ_section_title
;
Structure prediction by ZEFSAII (Michael W. Deem and Ramdas Pophale) SiO2 
 PCOD9292155
Probable space group: C 2/C
;
_chemical_formula_sum "Si O2"
_cell_formula_units_Z 36
_cell_length_a 5.239300
_cell_length_b 23.887154
_cell_length_c 11.360904
_cell_angle_alpha 90.000000
_cell_angle_beta 99.997176
_cell_angle_gamma 90.000000
_cell_volume 1400.250702
_symmetry_space_group_name_H-M "C 2/C"
_symmetry_group_IT_number 15
_symmetry_cell_setting 'monoclinic'
loop_
_space_group_symop_operation_xyz
x,y,z
-x,y,1/2-z
-x,-y,-z
x,-y,1/2+z
1/2+x,1/2+y,z
1/2-x,1/2+y,1/2-z
1/2-x,1/2-y,-z
1/2+x,1/2-y,1/2+z
loop_
_atom_site_type_symbol
_atom_site_label
_atom_site_fract_x
_atom_site_fract_y
_atom_site_fract_z
Si Si1 0.063719 0.872677 0.378947
Si Si2 0.790579 0.164348 0.060186
Si Si3 0.265863 0.967408 0.546835
Si Si4 0.500000 0.423275 0.750000
Si Si5 0.414068 0.228981 0.879133
O O1 0.252486 0.908426 0.476022
O O2 0.163189 0.809894 0.365820
O O3 0.000000 0.900293 0.250000
O O4 0.810723 0.866889 0.437073
O O5 0.811012 0.116642 0.158007
O O6 0.039476 0.204472 0.106768
O O7 0.563439 0.207144 0.010220
O O8 0.203041 0.955342 0.680238
O O9 0.500000 0.000000 0.500000
O O10 0.000000 0.000000 0.500000
O O11 0.500000 0.217915 0.750000
#
# Coordination Sequence:
#
# PCOD9292155 Si02
#       5
#     8   8   8   4   8
#     4  11  24  43  69 103 145 198 257 321 393 463
#     4  10  22  43  67 108 147 197 252 312 388 469
#     4  11  29  53  79 113 152 205 269 338 404 467
#     4  10  24  50  78 112 152 204 264 328 398 490
#     4  11  21  39  70 102 153 196 250 311 385 467
#
# _framework density 25.709681
#
# number of rings (size 3 to 8) (size 9 to 14) (size 15 to 20)
#    0.000    1.333    3.333    0.667    7.778    0.889 
#    4.000    0.000    0.000    0.000    0.000    0.000 
#    0.000    0.000    0.000    0.000    0.000    0.000 
#
# Total GULP energy -100240.777482 kJ/mol
# GULP energy per Si atom -5568.932082 kJ/mol
# Density = 2.565116 g / cm^3
# Si number density = 25.709681 Si / 1000 Ang^3
#
#
#
# Elastic Constant Matrix: (Units=GPa)
#
#
# Indices 1 2 3 4 5 6 
#
# 1 104.4573 40.3413 49.3225 0.0000 -25.2059 0.0000
# 2 40.3413 101.3160 46.8311 0.0000 -23.0689 0.0000
# 3 49.3225 46.8311 188.0247 0.0000 -38.6116 0.0000
# 4 0.0000 0.0000 0.0000 68.2575 0.0000 -3.2268
# 5 -25.2059 -23.0689 -38.6116 0.0000 40.0059 0.0000
# 6 0.0000 0.0000 0.0000 -3.2268 0.0000 26.5923
#
#
#
# Elastic Compliance Matrix: (Units=1/GPa)
#
#
# Indices 1 2 3 4 5 6 
#
# 1 0.012689 -0.003283 -0.001569 0.000000 0.004588 0.000000
# 2 -0.003283 0.012752 -0.001534 0.000000 0.003805 0.000000
# 3 -0.001569 -0.001534 0.007143 0.000000 0.005021 0.000000
# 4 0.000000 0.000000 0.000000 0.014735 0.000000 0.001788
# 5 0.004588 0.003805 0.005021 0.000000 0.034927 0.000000
# 6 0.000000 0.000000 0.000000 0.001788 0.000000 0.037822
#
#
# Mechanical properties :
#
#
# Convention : Reuss Voigt Hill
#
# Bulk Modulus (GPa) = 50.46942 74.08752 62.27847
# Shear Modulus (GPa) = 35.85684 44.12469 39.99077
#
# Velocity S-wave (km/s) = 3.73860 4.14728 3.94823
# Velocity P-wave (km/s) = 6.18945 7.19811 6.71275
#
# Compressibility (1/GPa) = 0.01981398
#
# Stress axis : x y z
#
# Youngs Moduli (GPa) = 78.80968 78.41607 139.99429
#
# Poissons Ratio (x) = 0.25741 0.21963
# Poissons Ratio (y) = 0.25870 0.21472
# Poissons Ratio (z) = 0.12364 0.12027
#
# Static dielectric constant tensor:
#      x y z
#    x 2.187290 0.000000 0.017080 
#    y 0.000000 2.291980 0.000000 
#    z 0.017080 0.000000 2.161010 
# 
# From -- ./inp_files/72630.got.cif
#   From: 2010.05.17/outbox.cif.g08.bks.cpg/sg15_37_cif.got.tgz:72630.got - 2010.06.03 18:47:42.
