data_PCOD9292366
_publ_section_title
;
Structure prediction by ZEFSAII (Michael W. Deem and Ramdas Pophale) SiO2 
 PCOD9292366
Probable space group: C 2/C
;
_chemical_formula_sum "Si O2"
_cell_formula_units_Z 52
_cell_length_a 11.697668
_cell_length_b 11.154258
_cell_length_c 18.180807
_cell_angle_alpha 90.000000
_cell_angle_beta 116.751375
_cell_angle_gamma 90.000000
_cell_volume 2118.307960
_symmetry_space_group_name_H-M "C 2/C"
_symmetry_group_IT_number 15
_symmetry_cell_setting 'monoclinic'
loop_
_space_group_symop_operation_xyz
x,y,z
-x,y,1/2-z
-x,-y,-z
x,-y,1/2+z
1/2+x,1/2+y,z
1/2-x,1/2+y,1/2-z
1/2-x,1/2-y,-z
1/2+x,1/2-y,1/2+z
loop_
_atom_site_type_symbol
_atom_site_label
_atom_site_fract_x
_atom_site_fract_y
_atom_site_fract_z
Si Si1 0.500000 0.310197 0.750000
Si Si2 0.737695 0.642798 0.395224
Si Si3 0.500000 0.893243 0.750000
Si Si4 0.124437 0.868926 0.500776
Si Si5 0.500000 0.000000 0.000000
Si Si6 0.170194 0.115763 0.545100
Si Si7 0.197249 0.196142 0.867854
Si Si8 0.408601 0.898775 0.330093
O O1 0.379298 0.389383 0.691149
O O2 0.543116 0.220555 0.697496
O O3 0.762512 0.784171 0.387092
O O4 0.690664 0.639056 0.465294
O O5 0.868340 0.568002 0.429493
O O6 0.600485 0.801471 0.817218
O O7 0.574226 0.984604 0.716841
O O8 0.132766 0.879644 0.414895
O O9 0.182741 0.747524 0.549423
O O10 0.978751 0.873686 0.480805
O O11 0.202704 0.976150 0.562080
O O12 0.504571 0.078871 0.926177
O O13 0.266387 0.132122 0.819864
#
# Coordination Sequence:
#
# PCOD9292366 Si02
#       8
#     4   8   4   8   4   8   8   8
#     4  11  26  46  69 112 158 203 260 351 398 480
#     4  11  24  42  75 108 155 204 269 323 414 477
#     4  11  30  48  77 116 160 209 266 347 408 486
#     4  10  23  43  72 109 148 197 266 320 386 487
#     4  12  26  46  82 114 148 220 268 322 402 514
#     4  10  22  43  70 109 149 205 260 322 383 496
#     4  11  25  47  72 110 157 201 258 332 402 473
#     4  11  27  48  75 112 156 210 269 329 415 475
#
# _framework density 24.547895
#
# number of rings (size 3 to 8) (size 9 to 14) (size 15 to 20)
#    0.000    1.231    0.000    4.615   15.077    0.000 
#    2.769    1.538    0.000    0.000    0.000    0.000 
#    0.000    0.000    0.000    0.000    0.000    0.000 
#
# Total GULP energy -144917.147152 kJ/mol
# GULP energy per Si atom -5573.736429 kJ/mol
# Density = 2.449202 g / cm^3
# Si number density = 24.547895 Si / 1000 Ang^3
#
#
#
# Elastic Constant Matrix: (Units=GPa)
#
#
# Indices 1 2 3 4 5 6 
#
# 1 136.9017 57.6664 38.0316 0.0000 -9.9281 0.0000
# 2 57.6664 85.8503 26.5842 0.0000 0.0606 0.0000
# 3 38.0316 26.5842 102.2111 0.0000 17.7376 0.0000
# 4 0.0000 0.0000 0.0000 29.9758 0.0000 -1.1997
# 5 -9.9281 0.0606 17.7376 0.0000 33.7518 0.0000
# 6 0.0000 0.0000 0.0000 -1.1997 0.0000 32.1413
#
#
#
# Elastic Compliance Matrix: (Units=1/GPa)
#
#
# Indices 1 2 3 4 5 6 
#
# 1 0.011416 -0.006611 -0.003425 0.000000 0.005170 0.000000
# 2 -0.006611 0.016606 -0.001669 0.000000 -0.001097 0.000000
# 3 -0.003425 -0.001669 0.012837 0.000000 -0.007751 0.000000
# 4 0.000000 0.000000 0.000000 0.033410 0.000000 0.001247
# 5 0.005170 -0.001097 -0.007751 0.000000 0.035224 0.000000
# 6 0.000000 0.000000 0.000000 0.001247 0.000000 0.031159
#
#
# Mechanical properties :
#
#
# Convention : Reuss Voigt Hill
#
# Bulk Modulus (GPa) = 57.30982 63.28083 60.29533
# Shear Modulus (GPa) = 29.43256 32.68583 31.05920
#
# Velocity S-wave (km/s) = 3.46639 3.65295 3.56089
# Velocity P-wave (km/s) = 6.27837 6.60504 6.44378
#
# Compressibility (1/GPa) = 0.01744902
#
# Stress axis : x y z
#
# Youngs Moduli (GPa) = 87.59843 60.21782 77.89745
#
# Poissons Ratio (x) = 0.39810 0.26683
# Poissons Ratio (y) = 0.57911 0.13000
# Poissons Ratio (z) = 0.30006 0.10049
#
# Static dielectric constant tensor:
#      x y z
#    x 1.900840 0.000000 -0.018100 
#    y 0.000000 2.077450 0.000000 
#    z -0.018100 0.000000 1.922940 
# 
# From -- ./inp_files/237709.got.cif
#   From: 2010.05.17/outbox.cif.g08.bks.cpg/sg15_119_cif.got.tgz:237709.got - 2010.06.03 18:47:42.
