data_PCOD9292203
_publ_section_title
;
Structure prediction by ZEFSAII (Michael W. Deem and Ramdas Pophale) SiO2 
 PCOD9292203
Probable space group: C 2/C
;
_chemical_formula_sum "Si O2"
_cell_formula_units_Z 40
_cell_length_a 29.015180
_cell_length_b 7.662734
_cell_length_c 14.328911
_cell_angle_alpha 90.000000
_cell_angle_beta 146.334740
_cell_angle_gamma 90.000000
_cell_volume 1766.031049
_symmetry_space_group_name_H-M "C 2/C"
_symmetry_group_IT_number 15
_symmetry_cell_setting 'monoclinic'
loop_
_space_group_symop_operation_xyz
x,y,z
-x,y,1/2-z
-x,-y,-z
x,-y,1/2+z
1/2+x,1/2+y,z
1/2-x,1/2+y,1/2-z
1/2-x,1/2-y,-z
1/2+x,1/2-y,1/2+z
loop_
_atom_site_type_symbol
_atom_site_label
_atom_site_fract_x
_atom_site_fract_y
_atom_site_fract_z
Si Si1 0.379971 0.099382 0.975362
Si Si2 0.938205 0.548895 0.283770
Si Si3 0.330313 0.326473 0.190378
Si Si4 0.215239 0.761780 0.181885
Si Si5 0.840432 0.809576 0.614498
O O1 0.324172 0.927562 0.872326
O O2 0.314658 0.246150 0.836012
O O3 0.404694 0.112700 0.125671
O O4 0.463362 0.074259 0.057450
O O5 0.898895 0.677187 0.292961
O O6 0.904578 0.350656 0.236952
O O7 0.304328 0.353074 0.253137
O O8 0.360205 0.507674 0.196241
O O9 0.250000 0.250000 0.000000
O O10 0.172312 0.839267 0.017643
O O11 0.750000 0.750000 0.500000
#
# Coordination Sequence:
#
# PCOD9292203 Si02
#       5
#     8   8   8   8   8
#     4  10  22  43  67  98 137 175 225 277 337 400
#     4  10  23  44  66 100 140 178 217 285 336 396
#     4  12  21  41  69 101 135 177 230 275 337 404
#     4  11  23  42  69  98 133 178 229 274 339 402
#     4  11  23  43  67  96 139 181 220 274 344 400
#
# _framework density 22.649659
#
# number of rings (size 3 to 8) (size 9 to 14) (size 15 to 20)
#    0.000    1.200    4.000    2.400    0.000    0.800 
#    3.600    3.000    0.000    0.000    0.000    0.000 
#    0.000    0.000    0.000    0.000    0.000    0.000 
#
# Total GULP energy -111941.585670 kJ/mol
# GULP energy per Si atom -5597.079283 kJ/mol
# Density = 2.259811 g / cm^3
# Si number density = 22.649659 Si / 1000 Ang^3
#
#
#
# Elastic Constant Matrix: (Units=GPa)
#
#
# Indices 1 2 3 4 5 6 
#
# 1 157.2496 66.6817 68.1645 0.0000 5.5317 0.0000
# 2 66.6817 98.5169 55.6552 0.0000 -4.4682 0.0000
# 3 68.1645 55.6552 111.9771 0.0000 22.8295 0.0000
# 4 0.0000 0.0000 0.0000 26.3438 0.0000 4.5999
# 5 5.5317 -4.4682 22.8295 0.0000 53.7668 0.0000
# 6 0.0000 0.0000 0.0000 4.5999 0.0000 41.4003
#
#
#
# Elastic Compliance Matrix: (Units=1/GPa)
#
#
# Indices 1 2 3 4 5 6 
#
# 1 0.009946 -0.004554 -0.003838 0.000000 0.000228 0.000000
# 2 -0.004554 0.017291 -0.006799 0.000000 0.004792 0.000000
# 3 -0.003838 -0.006799 0.016072 0.000000 -0.006994 0.000000
# 4 0.000000 0.000000 0.000000 0.038711 0.000000 -0.004301
# 5 0.000228 0.004792 -0.006994 0.000000 0.021943 0.000000
# 6 0.000000 0.000000 0.000000 -0.004301 0.000000 0.024632
#
#
# Mechanical properties :
#
#
# Convention : Reuss Voigt Hill
#
# Bulk Modulus (GPa) = 77.35152 83.19406 80.27279
# Shear Modulus (GPa) = 30.62131 36.11831 33.36981
#
# Velocity S-wave (km/s) = 3.68088 3.99764 3.84253
# Velocity P-wave (km/s) = 7.23123 7.62356 7.42999
#
# Compressibility (1/GPa) = 0.01292799
#
# Stress axis : x y z
#
# Youngs Moduli (GPa) = 100.54561 57.83332 62.22080
#
# Poissons Ratio (x) = 0.26335 0.23878
# Poissons Ratio (y) = 0.45784 0.42305
# Poissons Ratio (z) = 0.38585 0.39322
#
# Static dielectric constant tensor:
#      x y z
#    x 1.856670 0.000000 -0.007640 
#    y 0.000000 1.886150 0.000000 
#    z -0.007640 0.000000 1.857300 
# 
# From -- ./inp_files/181277.got.cif
#   From: 2010.05.17/outbox.cif.g08.bks.cpg/sg15_91_cif.got.tgz:181277.got - 2010.06.03 18:47:42.
