data_PCOD9292736
_publ_section_title
;
Structure prediction by ZEFSAII (Michael W. Deem and Ramdas Pophale) SiO2 
 PCOD9292736
Probable space group: C 2/C
;
_chemical_formula_sum "Si O2"
_cell_formula_units_Z 52
_cell_length_a 8.097331
_cell_length_b 20.720816
_cell_length_c 16.637591
_cell_angle_alpha 90.000000
_cell_angle_beta 114.631282
_cell_angle_gamma 90.000000
_cell_volume 2537.506878
_symmetry_space_group_name_H-M "C 2/C"
_symmetry_group_IT_number 15
_symmetry_cell_setting 'monoclinic'
loop_
_space_group_symop_operation_xyz
x,y,z
-x,y,1/2-z
-x,-y,-z
x,-y,1/2+z
1/2+x,1/2+y,z
1/2-x,1/2+y,1/2-z
1/2-x,1/2-y,-z
1/2+x,1/2-y,1/2+z
loop_
_atom_site_type_symbol
_atom_site_label
_atom_site_fract_x
_atom_site_fract_y
_atom_site_fract_z
Si Si1 0.500000 0.638988 0.250000
Si Si2 0.905562 0.640150 0.809113
Si Si3 0.782437 0.727379 0.217878
Si Si4 0.660172 0.927544 0.032766
Si Si5 0.153915 0.189250 0.016646
Si Si6 0.760914 0.067899 0.070577
Si Si7 0.762446 0.813513 0.449996
O O1 0.671311 0.685066 0.260762
O O2 0.407171 0.592339 0.164750
O O3 0.751298 0.695880 0.772932
O O4 0.861105 0.595242 0.877596
O O5 0.000000 0.605426 0.750000
O O6 0.078649 0.683912 0.865389
O O7 0.679889 0.701288 0.116501
O O8 0.000000 0.715886 0.250000
O O9 0.777420 0.992849 0.051613
O O10 0.755631 0.874020 0.999024
O O11 0.456401 0.932261 0.954326
O O12 0.250000 0.250000 0.000000
O O13 0.949915 0.191008 0.942759
O O14 0.776475 0.120453 0.003202
O O15 0.750000 0.750000 0.500000
#
# Coordination Sequence:
#
# PCOD9292736 Si02
#       7
#     4   8   8   8   8   8   8
#     4  12  22  46  66  98 136 172 222 278 336 398
#     4  11  23  41  63  95 131 169 217 275 342 387
#     4  12  25  39  66 103 133 171 221 283 336 393
#     4  10  23  44  66  94 129 176 222 274 326 406
#     4  12  22  39  63  97 127 167 225 269 325 395
#     4  10  22  44  67  89 135 176 217 269 336 393
#     4  11  21  41  65  91 126 174 216 266 331 393
#
# _framework density 20.492554999999999
#
# number of rings (size 3 to 8) (size 9 to 14) (size 15 to 20)
#    0.000    0.923    5.385    1.846    2.154    0.615 
#    4.154    3.846    0.000    0.000    0.000    0.000 
#    0.000    0.000    0.000    0.000    0.000    0.000 
#
# Total GULP energy -144813.269987 kJ/mol
# GULP energy per Si atom -5569.741153 kJ/mol
# Density = 2.044591 g / cm^3
# Si number density = 20.492555 Si / 1000 Ang^3
#
#
#
# Elastic Constant Matrix: (Units=GPa)
#
#
# Indices 1 2 3 4 5 6 
#
# 1 79.0562 28.6299 11.1125 0.0000 20.7280 0.0000
# 2 28.6299 126.8712 4.7696 0.0000 -1.0176 0.0000
# 3 11.1125 4.7696 49.6131 0.0000 9.1976 0.0000
# 4 0.0000 0.0000 0.0000 22.1401 0.0000 -0.0412
# 5 20.7280 -1.0176 9.1976 0.0000 38.6315 0.0000
# 6 0.0000 0.0000 0.0000 -0.0412 0.0000 35.0920
#
#
#
# Elastic Compliance Matrix: (Units=1/GPa)
#
#
# Indices 1 2 3 4 5 6 
#
# 1 0.016477 -0.003721 -0.001753 0.000000 -0.008522 0.000000
# 2 -0.003721 0.008757 -0.000441 0.000000 0.002332 0.000000
# 3 -0.001753 -0.000441 0.021362 0.000000 -0.004157 0.000000
# 4 0.000000 0.000000 0.000000 0.045167 0.000000 0.000053
# 5 -0.008522 0.002332 -0.004157 0.000000 0.031509 0.000000
# 6 0.000000 0.000000 0.000000 0.000053 0.000000 0.028497
#
#
# Mechanical properties :
#
#
# Convention : Reuss Voigt Hill
#
# Bulk Modulus (GPa) = 28.76327 38.28495 33.52411
# Shear Modulus (GPa) = 28.54093 33.24129 30.89111
#
# Velocity S-wave (km/s) = 3.73600 4.03192 3.88678
# Velocity P-wave (km/s) = 5.71635 6.35595 6.04462
#
# Compressibility (1/GPa) = 0.03476657
#
# Stress axis : x y z
#
# Youngs Moduli (GPa) = 60.68905 114.19550 46.81284
#
# Poissons Ratio (x) = 0.42489 0.08207
# Poissons Ratio (y) = 0.22581 0.02063
# Poissons Ratio (z) = 0.10640 0.05034
#
# Static dielectric constant tensor:
#      x y z
#    x 1.815560 0.000000 -0.070930 
#    y 0.000000 1.762080 0.000000 
#    z -0.070930 0.000000 1.977000 
# 
# From -- ./inp_files/191128.got.cif
#   From: 2010.05.17/outbox.cif.g08.bks.cpg/sg15_96_cif.got.tgz:191128.got - 2010.06.03 18:47:42.
