data_PCOD9292575
_publ_section_title
;
Structure prediction by ZEFSAII (Michael W. Deem and Ramdas Pophale) SiO2 
 PCOD9292575
Probable space group: C 2/C
;
_chemical_formula_sum "Si O2"
_cell_formula_units_Z 56
_cell_length_a 9.837646
_cell_length_b 21.986559
_cell_length_c 18.285036
_cell_angle_alpha 90.000000
_cell_angle_beta 141.263490
_cell_angle_gamma 90.000000
_cell_volume 2474.788444
_symmetry_space_group_name_H-M "C 2/C"
_symmetry_group_IT_number 15
_symmetry_cell_setting 'monoclinic'
loop_
_space_group_symop_operation_xyz
x,y,z
-x,y,1/2-z
-x,-y,-z
x,-y,1/2+z
1/2+x,1/2+y,z
1/2-x,1/2+y,1/2-z
1/2-x,1/2-y,-z
1/2+x,1/2-y,1/2+z
loop_
_atom_site_type_symbol
_atom_site_label
_atom_site_fract_x
_atom_site_fract_y
_atom_site_fract_z
Si Si1 0.934755 0.590974 0.975385
Si Si2 0.817901 0.334747 0.029146
Si Si3 0.211589 0.017306 0.302294
Si Si4 0.412079 0.542291 0.899532
Si Si5 0.500000 0.872285 0.250000
Si Si6 0.729272 0.347194 0.507793
Si Si7 0.500000 0.802319 0.750000
Si Si8 0.537536 0.273053 0.543742
O O1 0.075430 0.557688 0.096507
O O2 0.823331 0.649973 0.965609
O O3 0.104816 0.606518 0.982553
O O4 0.762779 0.544698 0.868879
O O5 0.971161 0.332410 0.165168
O O6 0.876077 0.280618 0.997442
O O7 0.575179 0.328876 0.958574
O O8 0.159263 0.998749 0.198463
O O9 0.000000 0.046976 0.250000
O O10 0.207345 0.583891 0.834651
O O11 0.500000 0.500000 0.000000
O O12 0.599940 0.590073 0.958455
O O13 0.922258 0.341605 0.648058
O O14 0.570218 0.294119 0.472878
O O15 0.282398 0.764573 0.675452
#
# Coordination Sequence:
#
# PCOD9292575 Si02
#       8
#     8   8   8   8   4   8   4   8
#     4  11  25  42  68 100 142 180 229 283 350 409
#     4  11  23  45  71 102 137 180 230 292 343 422
#     4  11  25  43  63 100 141 184 228 285 347 408
#     4  12  27  39  71  97 134 185 236 283 337 414
#     4  12  24  45  68  98 138 188 231 280 352 414
#     4  10  22  44  64 100 134 179 226 282 343 411
#     4   8  20  43  66  96 134 170 227 276 336 412
#     4   9  22  46  69  99 137 170 238 282 346 415
#
# _framework density 22.628195999999999
#
# number of rings (size 3 to 8) (size 9 to 14) (size 15 to 20)
#    0.857    0.571    4.286    0.000    6.000    1.714 
#    9.000    0.000    0.000    0.000    0.000    0.000 
#    0.000    0.000    0.000    0.000    0.000    0.000 
#
# Total GULP energy -156210.374530 kJ/mol
# GULP energy per Si atom -5578.941947 kJ/mol
# Density = 2.257669 g / cm^3
# Si number density = 22.628196 Si / 1000 Ang^3
#
#
#
# Elastic Constant Matrix: (Units=GPa)
#
#
# Indices 1 2 3 4 5 6 
#
# 1 101.3721 15.6171 24.2975 0.0000 3.4338 -0.0001
# 2 15.6171 35.9014 20.6448 0.0000 -9.1767 -0.0002
# 3 24.2975 20.6448 107.8463 -0.0005 -4.9868 -0.0007
# 4 0.0000 0.0000 -0.0005 21.6220 -0.0002 -10.6059
# 5 3.4338 -9.1767 -4.9868 -0.0002 45.6498 -0.0003
# 6 -0.0001 -0.0002 -0.0007 -10.6059 -0.0003 18.5552
#
#
#
# Elastic Compliance Matrix: (Units=1/GPa)
#
#
# Indices 1 2 3 4 5 6 
#
# 1 0.011004 -0.004259 -0.001750 0.000000 -0.001875 0.000000
# 2 -0.004259 0.034478 -0.005332 0.000000 0.006669 0.000000
# 3 -0.001750 -0.005332 0.010698 0.000001 0.000228 0.000001
# 4 0.000000 0.000000 0.000001 0.064268 0.000001 0.036735
# 5 -0.001875 0.006669 0.000228 0.000001 0.023412 0.000001
# 6 0.000000 0.000000 0.000001 0.036735 0.000001 0.074891
#
#
# Mechanical properties :
#
#
# Convention : Reuss Voigt Hill
#
# Bulk Modulus (GPa) = 29.85444 40.69318 35.27381
# Shear Modulus (GPa) = 19.79414 29.46943 24.63179
#
# Velocity S-wave (km/s) = 2.96084 3.61270 3.30289
# Velocity P-wave (km/s) = 4.99108 5.95185 5.49251
#
# Compressibility (1/GPa) = 0.03349585
#
# Stress axis : x y z
#
# Youngs Moduli (GPa) = 90.87657 29.00431 93.47466
#
# Poissons Ratio (x) = 0.12354 0.16363
# Poissons Ratio (y) = 0.38708 0.49840
# Poissons Ratio (z) = 0.15908 0.15465
#
# Static dielectric constant tensor:
#      x y z
#    x 1.825060 0.000000 -0.271310 
#    y 0.000000 1.929000 -0.000010 
#    z -0.271310 -0.000010 1.021830 
# 
# From -- ./inp_files/193934.got.cif
#   From: 2010.05.17/outbox.cif.g08.bks.cpg/sg15_97_cif.got.tgz:193934.got - 2010.06.03 18:47:42.
