data_PCOD9292357
_publ_section_title
;
Structure prediction by ZEFSAII (Michael W. Deem and Ramdas Pophale) SiO2 
 PCOD9292357
Probable space group: C 2/C
;
_chemical_formula_sum "Si O2"
_cell_formula_units_Z 56
_cell_length_a 14.530153
_cell_length_b 15.011346
_cell_length_c 10.579914
_cell_angle_alpha 90.000000
_cell_angle_beta 103.770677
_cell_angle_gamma 90.000000
_cell_volume 2241.329863
_symmetry_space_group_name_H-M "C 2/C"
_symmetry_group_IT_number 15
_symmetry_cell_setting 'monoclinic'
loop_
_space_group_symop_operation_xyz
x,y,z
-x,y,1/2-z
-x,-y,-z
x,-y,1/2+z
1/2+x,1/2+y,z
1/2-x,1/2+y,1/2-z
1/2-x,1/2-y,-z
1/2+x,1/2-y,1/2+z
loop_
_atom_site_type_symbol
_atom_site_label
_atom_site_fract_x
_atom_site_fract_y
_atom_site_fract_z
Si Si1 0.835770 0.704862 0.454950
Si Si2 0.273817 0.987885 0.931274
Si Si3 0.449755 0.962398 0.357594
Si Si4 0.904435 0.993527 0.297707
Si Si5 0.034711 0.748596 0.630181
Si Si6 0.391624 0.705202 0.746669
Si Si7 0.169762 0.872723 0.540001
O O1 0.750000 0.750000 0.500000
O O2 0.823338 0.602723 0.493227
O O3 0.938724 0.748285 0.515451
O O4 0.833954 0.719671 0.302971
O O5 0.174559 0.971748 0.827896
O O6 0.340562 0.016438 0.838399
O O7 0.260330 0.065226 0.032201
O O8 0.500000 0.000012 0.250000
O O9 0.450619 0.856230 0.351255
O O10 0.500000 0.000000 0.500000
O O11 0.898738 0.050496 0.423382
O O12 0.000000 0.996673 0.250000
O O13 0.887581 0.888974 0.320455
O O14 0.000000 0.789734 0.750000
O O15 0.132064 0.793689 0.618537
O O16 0.500000 0.731323 0.750000
O O17 0.348906 0.675108 0.599424
#
# Coordination Sequence:
#
# PCOD9292357 Si02
#       7
#     8   8   8   8   8   8   8
#     4  12  26  45  74 104 152 194 257 300 384 461
#     4  11  27  46  75 109 142 209 249 317 378 465
#     4  11  26  50  78 109 155 202 259 315 385 464
#     4  10  24  44  72 109 157 197 249 313 391 452
#     4  11  26  47  76 108 152 201 246 317 383 446
#     4  10  22  43  70 104 140 200 246 309 371 459
#     4  11  24  45  74 109 151 185 260 308 381 448
#
# _framework density 24.985167000000001
#
# number of rings (size 3 to 8) (size 9 to 14) (size 15 to 20)
#    0.000    1.143    2.857    1.286    6.000   12.000 
#    0.000    0.000    0.000    0.000    0.000    0.000 
#    0.000    0.000    0.000    0.000    0.000    0.000 
#
# Total GULP energy -156276.390410 kJ/mol
# GULP energy per Si atom -5581.299657 kJ/mol
# Density = 2.492830 g / cm^3
# Si number density = 24.985167 Si / 1000 Ang^3
#
#
#
# Elastic Constant Matrix: (Units=GPa)
#
#
# Indices 1 2 3 4 5 6 
#
# 1 97.2839 12.4011 30.0011 0.0000 -13.1385 0.0000
# 2 12.4011 74.1858 19.4387 0.0000 -15.8188 0.0000
# 3 30.0011 19.4387 98.8686 0.0000 -27.9424 0.0000
# 4 0.0000 0.0000 0.0000 33.6922 0.0000 -20.1516
# 5 -13.1385 -15.8188 -27.9424 0.0000 43.2416 0.0000
# 6 0.0000 0.0000 0.0000 -20.1516 0.0000 41.0567
#
#
#
# Elastic Compliance Matrix: (Units=1/GPa)
#
#
# Indices 1 2 3 4 5 6 
#
# 1 0.011471 -0.000876 -0.002954 0.000000 0.001256 0.000000
# 2 -0.000876 0.014915 -0.001468 0.000000 0.004242 0.000000
# 3 -0.002954 -0.001468 0.013328 0.000000 0.007178 0.000000
# 4 0.000000 0.000000 0.000000 0.042015 0.000000 0.020622
# 5 0.001256 0.004242 0.007178 0.000000 0.029698 0.000000
# 6 0.000000 0.000000 0.000000 0.020622 0.000000 0.034478
#
#
# Mechanical properties :
#
#
# Convention : Reuss Voigt Hill
#
# Bulk Modulus (GPa) = 34.34089 43.78004 39.06046
# Shear Modulus (GPa) = 30.08310 37.49791 33.79050
#
# Velocity S-wave (km/s) = 3.47369 3.87823 3.68152
# Velocity P-wave (km/s) = 5.46471 6.13308 5.80852
#
# Compressibility (1/GPa) = 0.02911980
#
# Stress axis : x y z
#
# Youngs Moduli (GPa) = 87.17341 67.04591 75.03018
#
# Poissons Ratio (x) = 0.05871 0.22161
# Poissons Ratio (y) = 0.07634 0.11014
# Poissons Ratio (z) = 0.25748 0.09842
#
# Static dielectric constant tensor:
#      x y z
#    x 2.050990 0.000000 0.129100 
#    y 0.000000 1.992250 0.000000 
#    z 0.129100 0.000000 2.131950 
# 
# From -- ./inp_files/97058.got.cif
#   From: 2010.05.17/outbox.cif.g08.bks.cpg/sg15_49_cif.got.tgz:97058.got - 2010.06.03 18:47:42.
