data_PCOD9292444
_publ_section_title
;
Structure prediction by ZEFSAII (Michael W. Deem and Ramdas Pophale) SiO2 
 PCOD9292444
Probable space group: C 2/C
;
_chemical_formula_sum "Si O2"
_cell_formula_units_Z 56
_cell_length_a 14.052361
_cell_length_b 16.299664
_cell_length_c 21.334324
_cell_angle_alpha 90.000000
_cell_angle_beta 148.751622
_cell_angle_gamma 90.000000
_cell_volume 2534.919405
_symmetry_space_group_name_H-M "C 2/C"
_symmetry_group_IT_number 15
_symmetry_cell_setting 'monoclinic'
loop_
_space_group_symop_operation_xyz
x,y,z
-x,y,1/2-z
-x,-y,-z
x,-y,1/2+z
1/2+x,1/2+y,z
1/2-x,1/2+y,1/2-z
1/2-x,1/2-y,-z
1/2+x,1/2-y,1/2+z
loop_
_atom_site_type_symbol
_atom_site_label
_atom_site_fract_x
_atom_site_fract_y
_atom_site_fract_z
Si Si1 0.416906 0.131195 0.953077
Si Si2 0.500000 0.395775 0.250000
Si Si3 0.014587 0.939079 0.110795
Si Si4 0.629820 0.990810 0.380368
Si Si5 0.332585 0.340939 0.536754
Si Si6 0.500000 0.287201 0.750000
Si Si7 0.368213 0.981985 0.834399
Si Si8 0.622605 0.301998 0.072146
O O1 0.209070 0.139393 0.862900
O O2 0.393655 0.073505 0.878745
O O3 0.497655 0.221631 0.996913
O O4 0.573577 0.080552 0.078984
O O5 0.487028 0.432302 0.171230
O O6 0.167210 0.009878 0.192500
O O7 0.086277 0.859235 0.112129
O O8 0.819332 0.964571 0.972044
O O9 0.500000 0.968371 0.250000
O O10 0.680778 0.910113 0.448203
O O11 0.506340 0.042735 0.357456
O O12 0.250000 0.250000 0.500000
O O13 0.453436 0.346931 0.666184
O O14 0.418598 0.347120 0.516579
O O15 0.666692 0.229991 0.818403
#
# Coordination Sequence:
#
# PCOD9292444 Si02
#       8
#     8   4   8   8   8   4   8   8
#     4  10  22  44  72 104 137 185 238 301 348 424
#     4  10  22  47  72 102 141 188 246 290 350 421
#     4  11  26  45  72 106 142 195 240 290 360 436
#     4  12  26  46  69  99 150 187 233 293 362 436
#     4  10  24  41  70 103 137 182 231 292 363 423
#     4  10  24  43  72 110 139 180 236 310 360 425
#     4  10  22  43  72 101 138 181 240 297 352 414
#     4  11  25  43  70 107 145 187 237 289 371 430
#
# _framework density 22.091432999999999
#
# number of rings (size 3 to 8) (size 9 to 14) (size 15 to 20)
#    0.000    1.429    1.429    2.571   14.000    3.429 
#    1.286    0.000    0.000    0.000    0.000    0.000 
#    0.000    0.000    0.000    0.000    0.000    0.000 
#
# Total GULP energy -155941.833444 kJ/mol
# GULP energy per Si atom -5569.351194 kJ/mol
# Density = 2.204115 g / cm^3
# Si number density = 22.091433 Si / 1000 Ang^3
#
#
#
# Elastic Constant Matrix: (Units=GPa)
#
#
# Indices 1 2 3 4 5 6 
#
# 1 99.2984 30.0690 51.8544 -0.0006 15.4665 0.0003
# 2 30.0690 32.6079 26.2211 -0.0032 9.3994 0.0017
# 3 51.8544 26.2211 154.6021 -0.0016 7.5610 0.0021
# 4 -0.0006 -0.0032 -0.0016 6.5809 -0.0003 8.8687
# 5 15.4665 9.3994 7.5610 -0.0003 59.9277 0.0003
# 6 0.0003 0.0017 0.0021 8.8687 0.0003 14.3350
#
#
#
# Elastic Compliance Matrix: (Units=1/GPa)
#
#
# Indices 1 2 3 4 5 6 
#
# 1 0.015378 -0.011091 -0.003188 -0.000042 -0.001827 0.000027
# 2 -0.011091 0.044961 -0.003724 0.000157 -0.003720 -0.000102
# 3 -0.003188 -0.003724 0.008150 0.000005 0.000378 -0.000004
# 4 -0.000042 0.000157 0.000005 0.914085 -0.000007 -0.565524
# 5 -0.001827 -0.003720 0.000378 -0.000007 0.017694 0.000004
# 6 0.000027 -0.000102 -0.000004 -0.565524 0.000004 0.419636
#
#
# Mechanical properties :
#
#
# Convention : Reuss Voigt Hill
#
# Bulk Modulus (GPa) = 30.78286 55.86638 43.32462
# Shear Modulus (GPa) = 3.40892 28.05964 15.73428
#
# Velocity S-wave (km/s) = 1.24356 3.56780 2.67167
# Velocity P-wave (km/s) = 4.00331 6.50506 5.40103
#
# Compressibility (1/GPa) = 0.03248561
#
# Stress axis : x y z
#
# Youngs Moduli (GPa) = 65.02659 22.24125 122.69354
#
# Poissons Ratio (x) = 0.24668 0.39109
# Poissons Ratio (y) = 0.72121 0.45688
# Poissons Ratio (z) = 0.20727 0.08282
#
# Static dielectric constant tensor:
#      x y z
#    x 1.909510 0.000000 0.038100 
#    y 0.000000 1.799760 0.000000 
#    z 0.038100 0.000000 1.973780 
# 
# From -- ./inp_files/245209.got.cif
#   From: 2010.05.17/outbox.cif.g08.bks.cpg/sg15_123_cif.got.tgz:245209.got - 2010.06.03 18:47:42.
