data_PCOD9292143
_publ_section_title
;
Structure prediction by ZEFSAII (Michael W. Deem and Ramdas Pophale) SiO2 
 PCOD9292143
Probable space group: C 2/C
;
_chemical_formula_sum "Si O2"
_cell_formula_units_Z 40
_cell_length_a 27.827744
_cell_length_b 5.425887
_cell_length_c 13.304539
_cell_angle_alpha 90.000000
_cell_angle_beta 48.945126
_cell_angle_gamma 90.000000
_cell_volume 1514.839145
_symmetry_space_group_name_H-M "C 2/C"
_symmetry_group_IT_number 15
_symmetry_cell_setting 'monoclinic'
loop_
_space_group_symop_operation_xyz
x,y,z
-x,y,1/2-z
-x,-y,-z
x,-y,1/2+z
1/2+x,1/2+y,z
1/2-x,1/2+y,1/2-z
1/2-x,1/2-y,-z
1/2+x,1/2-y,1/2+z
loop_
_atom_site_type_symbol
_atom_site_label
_atom_site_fract_x
_atom_site_fract_y
_atom_site_fract_z
Si Si1 0.978380 0.819498 0.119956
Si Si2 0.885270 0.151553 0.037862
Si Si3 0.754030 0.797376 0.679563
Si Si4 0.363926 0.032907 0.757761
Si Si5 0.428341 0.722863 0.342177
O O1 0.929304 0.616662 0.151426
O O2 0.943063 0.982528 0.252187
O O3 0.045898 0.723557 0.069121
O O4 0.000000 0.000000 0.000000
O O5 0.827273 0.220180 0.044393
O O6 0.864023 0.242007 0.177312
O O7 0.901300 0.870125 0.985554
O O8 0.742186 0.539573 0.752606
O O9 0.698118 0.868642 0.679507
O O10 0.374876 0.134992 0.853964
O O11 0.500000 0.828283 0.250000
#
# Coordination Sequence:
#
# PCOD9292143 Si02
#       5
#     8   8   8   8   8
#     4  11  21  40  67  95 136 179 233 285 352 406
#     4  10  22  43  67 101 140 180 228 292 347 416
#     4  10  23  44  71 103 139 190 238 283 354 427
#     4  11  23  42  73  97 140 189 227 287 357 416
#     4  10  24  41  63 105 137 173 241 288 345 421
#
# _framework density 26.405442000000001
#
# number of rings (size 3 to 8) (size 9 to 14) (size 15 to 20)
#    0.000    1.600    2.000    1.800    2.800    3.200 
#   14.400    1.000    0.000    0.000    0.000    0.000 
#    0.000    0.000    0.000    0.000    0.000    0.000 
#
# Total GULP energy -111794.585038 kJ/mol
# GULP energy per Si atom -5589.729252 kJ/mol
# Density = 2.634534 g / cm^3
# Si number density = 26.405442 Si / 1000 Ang^3
#
#
#
# Elastic Constant Matrix: (Units=GPa)
#
#
# Indices 1 2 3 4 5 6 
#
# 1 227.9229 68.8041 52.6293 -0.0004 -50.8008 0.0003
# 2 68.8041 116.2875 38.6224 -0.0001 3.1679 -0.0006
# 3 52.6293 38.6224 71.7839 0.0000 -22.3045 -0.0001
# 4 -0.0004 -0.0001 0.0000 56.0146 -0.0001 0.8411
# 5 -50.8008 3.1679 -22.3045 -0.0001 62.0746 0.0000
# 6 0.0003 -0.0006 -0.0001 0.8411 0.0000 51.7014
#
#
#
# Elastic Compliance Matrix: (Units=1/GPa)
#
#
# Indices 1 2 3 4 5 6 
#
# 1 0.007118 -0.003894 -0.001409 0.000000 0.005518 0.000000
# 2 -0.003894 0.013079 -0.006056 0.000000 -0.006030 0.000000
# 3 -0.001409 -0.006056 0.020217 0.000000 0.006420 0.000000
# 4 0.000000 0.000000 0.000000 0.017857 0.000000 -0.000291
# 5 0.005518 -0.006030 0.006420 0.000000 0.023240 0.000000
# 6 0.000000 0.000000 0.000000 -0.000291 0.000000 0.019347
#
#
# Mechanical properties :
#
#
# Convention : Reuss Voigt Hill
#
# Bulk Modulus (GPa) = 56.50924 81.78956 69.14940
# Shear Modulus (GPa) = 38.61797 51.02071 44.81934
#
# Velocity S-wave (km/s) = 3.82841 4.40045 4.12436
# Velocity P-wave (km/s) = 6.40230 7.54058 6.99463
#
# Compressibility (1/GPa) = 0.01769622
#
# Stress axis : x y z
#
# Youngs Moduli (GPa) = 140.48627 76.45953 49.46356
#
# Poissons Ratio (x) = 0.29772 0.06971
# Poissons Ratio (y) = 0.54703 0.29954
# Poissons Ratio (z) = 0.19798 0.46302
#
# Static dielectric constant tensor:
#      x y z
#    x 2.131530 0.000000 -0.020610 
#    y 0.000000 2.155290 0.000000 
#    z -0.020610 0.000000 2.090980 
# 
# From -- ./inp_files/220802.got.cif
#   From: 2010.05.17/outbox.cif.g08.bks.cpg/sg15_111_cif.got.tgz:220802.got - 2010.06.03 18:47:42.
