data_PCOD9292356
_publ_section_title
;
Structure prediction by ZEFSAII (Michael W. Deem and Ramdas Pophale) SiO2 
 PCOD9292356
Probable space group: C 2/C
;
_chemical_formula_sum "Si O2"
_cell_formula_units_Z 60
_cell_length_a 21.145562
_cell_length_b 8.797747
_cell_length_c 23.799302
_cell_angle_alpha 90.000000
_cell_angle_beta 142.664265
_cell_angle_gamma 90.000000
_cell_volume 2685.187181
_symmetry_space_group_name_H-M "C 2/C"
_symmetry_group_IT_number 15
_symmetry_cell_setting 'monoclinic'
loop_
_space_group_symop_operation_xyz
x,y,z
-x,y,1/2-z
-x,-y,-z
x,-y,1/2+z
1/2+x,1/2+y,z
1/2-x,1/2+y,1/2-z
1/2-x,1/2-y,-z
1/2+x,1/2-y,1/2+z
loop_
_atom_site_type_symbol
_atom_site_label
_atom_site_fract_x
_atom_site_fract_y
_atom_site_fract_z
Si Si1 0.242363 0.458942 0.908873
Si Si2 0.636720 0.988656 0.645154
Si Si3 0.118814 0.913393 0.780990
Si Si4 0.448109 0.925856 0.093186
Si Si5 0.000000 0.477770 0.750000
Si Si6 0.385939 0.380356 0.594545
Si Si7 0.306430 0.869329 0.427323
Si Si8 0.756796 0.185812 0.814090
O O1 0.300490 0.307486 0.931047
O O2 0.264328 0.582942 0.875414
O O3 0.119470 0.414542 0.829912
O O4 0.296338 0.518442 0.003979
O O5 0.539301 0.030254 0.615066
O O6 0.629526 0.077620 0.581776
O O7 0.731451 0.067395 0.746672
O O8 0.656721 0.810601 0.644547
O O9 0.999467 0.954373 0.817674
O O10 0.162689 0.800536 0.764623
O O11 0.192423 0.059370 0.836763
O O12 0.133199 0.837198 0.853364
O O13 0.398684 0.759303 0.060153
O O14 0.493810 0.933522 0.187688
O O15 0.360039 0.048302 0.017473
#
# Coordination Sequence:
#
# PCOD9292356 Si02
#       8
#     8   8   8   8   4   8   8   8
#     4  12  26  46  68 105 141 190 234 295 357 423
#     4  11  23  44  75 101 142 184 238 289 355 423
#     4  10  22  43  70 104 137 187 237 290 348 423
#     4  12  24  45  72 107 140 188 235 294 355 423
#     4  12  26  44  74  98 142 182 238 290 356 420
#     4  11  22  42  74 104 142 181 240 287 352 428
#     4  11  27  44  68 102 148 189 239 289 355 418
#     4  11  22  45  71 102 137 186 234 288 354 423
#
# _framework density 22.344811
#
# number of rings (size 3 to 8) (size 9 to 14) (size 15 to 20)
#    0.000    0.800    2.667    5.200    0.000    5.867 
#    2.400    1.333    0.000    0.800    0.000    0.000 
#    0.000    0.000    0.000    0.000    0.000    0.000 
#
# Total GULP energy -167430.495865 kJ/mol
# GULP energy per Si atom -5581.016529 kJ/mol
# Density = 2.229395 g / cm^3
# Si number density = 22.344811 Si / 1000 Ang^3
#
#
#
# Elastic Constant Matrix: (Units=GPa)
#
#
# Indices 1 2 3 4 5 6 
#
# 1 123.4066 55.1748 30.8961 0.0000 -10.5836 0.0000
# 2 55.1748 99.7742 44.1694 0.0000 -2.1877 0.0000
# 3 30.8961 44.1694 116.1244 0.0000 -12.0469 0.0000
# 4 0.0000 0.0000 0.0000 12.0314 0.0000 7.3784
# 5 -10.5836 -2.1877 -12.0469 0.0000 27.9852 0.0000
# 6 0.0000 0.0000 0.0000 7.3784 0.0000 11.1134
#
#
#
# Elastic Compliance Matrix: (Units=1/GPa)
#
#
# Indices 1 2 3 4 5 6 
#
# 1 0.011152 -0.005941 -0.000333 0.000000 0.003610 0.000000
# 2 -0.005941 0.015248 -0.004531 0.000000 -0.003005 0.000000
# 3 -0.000333 -0.004531 0.010859 0.000000 0.004194 0.000000
# 4 0.000000 0.000000 0.000000 0.140197 0.000000 -0.093079
# 5 0.003610 -0.003005 0.004194 0.000000 0.038669 0.000000
# 6 0.000000 0.000000 0.000000 -0.093079 0.000000 0.151778
#
#
# Mechanical properties :
#
#
# Convention : Reuss Voigt Hill
#
# Bulk Modulus (GPa) = 63.90008 66.64287 65.27147
# Shear Modulus (GPa) = 12.66698 24.16367 18.41532
#
# Velocity S-wave (km/s) = 2.38352 3.29203 2.87390
# Velocity P-wave (km/s) = 6.01949 6.65879 6.34719
#
# Compressibility (1/GPa) = 0.01564943
#
# Stress axis : x y z
#
# Youngs Moduli (GPa) = 89.66770 65.58406 92.09330
#
# Poissons Ratio (x) = 0.38961 0.03068
# Poissons Ratio (y) = 0.53268 0.41726
# Poissons Ratio (z) = 0.02987 0.29715
#
# Static dielectric constant tensor:
#      x y z
#    x 1.878490 0.000000 0.043450 
#    y 0.000000 1.818730 0.000000 
#    z 0.043450 0.000000 1.848240 
# 
# From -- ./inp_files/279718.got.cif
#   From: 2010.05.17/outbox.cif.g08.bks.cpg/sg15_140_cif.got.tgz:279718.got - 2010.06.03 18:47:42.
