data_PCOD9292353
_publ_section_title
;
Structure prediction by ZEFSAII (Michael W. Deem and Ramdas Pophale) SiO2 
 PCOD9292353
Probable space group: C 2/C
;
_chemical_formula_sum "Si O2"
_cell_formula_units_Z 32
_cell_length_a 7.322744
_cell_length_b 16.969542
_cell_length_c 9.466200
_cell_angle_alpha 90.000000
_cell_angle_beta 93.139481
_cell_angle_gamma 90.000000
_cell_volume 1174.538769
_symmetry_space_group_name_H-M "C 2/C"
_symmetry_group_IT_number 15
_symmetry_cell_setting 'monoclinic'
loop_
_space_group_symop_operation_xyz
x,y,z
-x,y,1/2-z
-x,-y,-z
x,-y,1/2+z
1/2+x,1/2+y,z
1/2-x,1/2+y,1/2-z
1/2-x,1/2-y,-z
1/2+x,1/2-y,1/2+z
loop_
_atom_site_type_symbol
_atom_site_label
_atom_site_fract_x
_atom_site_fract_y
_atom_site_fract_z
Si Si1 0.252592 0.550437 0.897699
Si Si2 0.175954 0.919792 0.403565
Si Si3 0.547533 0.200962 0.012098
Si Si4 0.241809 0.243815 0.199935
O O1 0.264239 0.531971 0.733174
O O2 0.462535 0.577092 0.937685
O O3 0.120562 0.621672 0.939885
O O4 0.219873 0.468786 0.974037
O O5 0.203873 0.832913 0.341519
O O6 0.456055 0.257183 0.886269
O O7 0.805203 0.268088 0.865365
O O8 0.373694 0.189379 0.110497
#
# Coordination Sequence:
#
# PCOD9292353 Si02
#       4
#     8   8   8   8
#     4  10  22  43  70 102 146 199 243 304 377 448
#     4  10  23  43  67 105 149 189 249 306 369 449
#     4  10  22  43  72 102 144 192 243 304 377 440
#     4  10  23  43  69 109 147 185 249 315 369 453
#
# _framework density 27.244737000000001
#
# number of rings (size 3 to 8) (size 9 to 14) (size 15 to 20)
#    0.000    2.000    0.000    3.000    0.000   12.000 
#    0.000   10.000    0.000    1.500    0.000    0.000 
#    0.000    0.000    0.000    0.000    0.000    0.000 
#
# Total GULP energy -89303.775080 kJ/mol
# GULP energy per Si atom -5581.485943 kJ/mol
# Density = 2.718273 g / cm^3
# Si number density = 27.244737 Si / 1000 Ang^3
#
#
#
# Elastic Constant Matrix: (Units=GPa)
#
#
# Indices 1 2 3 4 5 6 
#
# 1 212.3095 54.2294 69.9489 0.0000 -1.1573 0.0000
# 2 54.2294 120.6180 62.7625 0.0000 -5.2608 0.0000
# 3 69.9489 62.7625 173.6741 0.0000 27.8112 0.0000
# 4 0.0000 0.0000 0.0000 34.9509 0.0000 -1.6541
# 5 -1.1573 -5.2608 27.8112 0.0000 37.9152 0.0000
# 6 0.0000 0.0000 0.0000 -1.6541 0.0000 37.9542
#
#
#
# Elastic Compliance Matrix: (Units=1/GPa)
#
#
# Indices 1 2 3 4 5 6 
#
# 1 0.005760 -0.001476 -0.002019 0.000000 0.001452 0.000000
# 2 -0.001476 0.011375 -0.004263 0.000000 0.004660 0.000000
# 3 -0.002019 -0.004263 0.009310 0.000000 -0.007482 0.000000
# 4 0.000000 0.000000 0.000000 0.028671 0.000000 0.001250
# 5 0.001452 0.004660 -0.007482 0.000000 0.032554 0.000000
# 6 0.000000 0.000000 0.000000 0.001250 0.000000 0.026402
#
#
# Mechanical properties :
#
#
# Convention : Reuss Voigt Hill
#
# Bulk Modulus (GPa) = 91.49122 97.83147 94.66134
# Shear Modulus (GPa) = 37.52894 43.47478 40.50186
#
# Velocity S-wave (km/s) = 3.71546 3.99897 3.85982
# Velocity P-wave (km/s) = 7.21529 7.57025 7.39490
#
# Compressibility (1/GPa) = 0.01093001
#
# Stress axis : x y z
#
# Youngs Moduli (GPa) = 173.60402 87.90855 107.41421
#
# Poissons Ratio (x) = 0.12973 0.21689
# Poissons Ratio (y) = 0.25620 0.45788
# Poissons Ratio (z) = 0.35055 0.37473
#
# Static dielectric constant tensor:
#      x y z
#    x 2.354240 0.000000 -0.017630 
#    y 0.000000 2.251590 0.000000 
#    z -0.017630 0.000000 2.260070 
# 
# From -- ./inp_files/77230.got.cif
#   From: 2010.05.17/outbox.cif.g08.bks.cpg/sg15_39_cif.got.tgz:77230.got - 2010.06.03 18:47:42.
