data_PCOD9292635
_publ_section_title
;
Structure prediction by ZEFSAII (Michael W. Deem and Ramdas Pophale) SiO2 
 PCOD9292635
Probable space group: C 2/C
;
_chemical_formula_sum "Si O2"
_cell_formula_units_Z 32
_cell_length_a 4.870977
_cell_length_b 13.333399
_cell_length_c 24.614612
_cell_angle_alpha 90.000000
_cell_angle_beta 116.325808
_cell_angle_gamma 90.000000
_cell_volume 1432.837477
_symmetry_space_group_name_H-M "C 2/C"
_symmetry_group_IT_number 15
_symmetry_cell_setting 'monoclinic'
loop_
_space_group_symop_operation_xyz
x,y,z
-x,y,1/2-z
-x,-y,-z
x,-y,1/2+z
1/2+x,1/2+y,z
1/2-x,1/2+y,1/2-z
1/2-x,1/2-y,-z
1/2+x,1/2-y,1/2+z
loop_
_atom_site_type_symbol
_atom_site_label
_atom_site_fract_x
_atom_site_fract_y
_atom_site_fract_z
Si Si1 0.783064 0.799510 0.929130
Si Si2 0.659476 0.670702 0.192175
Si Si3 0.000000 0.342810 0.250000
Si Si4 0.000000 0.994591 0.250000
Si Si5 0.932985 0.383029 0.994520
O O1 0.774807 0.823301 0.865344
O O2 0.503495 0.837081 0.941071
O O3 0.083233 0.858034 0.978164
O O4 0.851893 0.682508 0.946758
O O5 0.458544 0.763871 0.196879
O O6 0.486256 0.571410 0.198042
O O7 0.000000 0.673700 0.250000
O O8 0.760321 0.418692 0.254732
O O9 0.000000 0.500000 0.000000
#
# Coordination Sequence:
#
# PCOD9292635 Si02
#       5
#     8   8   4   4   8
#     4  10  24  40  67  93 131 166 218 270 325 386
#     4  11  25  42  67  99 138 175 216 273 334 400
#     4  11  24  43  62  92 134 177 222 259 318 396
#     4  11  24  41  60  90 132 177 220 261 320 396
#     4  10  22  44  65  96 124 170 221 273 323 379
#
# _framework density 22.333307999999999
#
# number of rings (size 3 to 8) (size 9 to 14) (size 15 to 20)
#    0.000    1.500    2.500    0.750    7.000    4.000 
#    0.000    0.000    0.000    0.000    0.000    0.000 
#    0.000    0.000    0.000    0.000    0.000    0.000 
#
# Total GULP energy -89340.399313 kJ/mol
# GULP energy per Si atom -5583.774957 kJ/mol
# Density = 2.228248 g / cm^3
# Si number density = 22.333308 Si / 1000 Ang^3
#
#
#
# Elastic Constant Matrix: (Units=GPa)
#
#
# Indices 1 2 3 4 5 6 
#
# 1 110.0948 25.2698 0.1615 0.0000 -18.9163 0.0000
# 2 25.2698 177.1683 -6.6073 0.0000 0.8892 0.0000
# 3 0.1615 -6.6073 63.9965 0.0000 -20.6815 0.0000
# 4 0.0000 0.0000 0.0000 11.5591 0.0000 -17.9931
# 5 -18.9163 0.8892 -20.6815 0.0000 34.0451 0.0000
# 6 0.0000 0.0000 0.0000 -17.9931 0.0000 41.5194
#
#
#
# Elastic Compliance Matrix: (Units=1/GPa)
#
#
# Indices 1 2 3 4 5 6 
#
# 1 0.010672 -0.001478 0.002176 0.000000 0.007290 0.000000
# 2 -0.001478 0.005873 0.000367 0.000000 -0.000751 0.000000
# 3 0.002176 0.000367 0.019965 0.000000 0.013328 0.000000
# 4 0.000000 0.000000 0.000000 0.265852 0.000000 0.115211
# 5 0.007290 -0.000751 0.013328 0.000000 0.041539 0.000000
# 6 0.000000 0.000000 0.000000 0.115211 0.000000 0.074014
#
#
# Mechanical properties :
#
#
# Convention : Reuss Voigt Hill
#
# Bulk Modulus (GPa) = 25.87858 43.21196 34.54527
# Shear Modulus (GPa) = 11.66418 39.58711 25.62564
#
# Velocity S-wave (km/s) = 2.28782 4.21474 3.39103
# Velocity P-wave (km/s) = 4.31178 6.56324 5.55281
#
# Compressibility (1/GPa) = 0.03864200
#
# Stress axis : x y z
#
# Youngs Moduli (GPa) = 93.70669 170.28353 50.08643
#
# Poissons Ratio (x) = 0.25160 -0.10901
# Poissons Ratio (y) = 0.13845 -0.01840
# Poissons Ratio (z) = -0.20395 -0.06254
#
# Static dielectric constant tensor:
#      x y z
#    x 1.829070 0.000000 0.063540 
#    y 0.000000 1.807860 0.000000 
#    z 0.063540 0.000000 1.846200 
# 
# From -- ./inp_files/226251.got.cif
#   From: 2010.05.17/outbox.cif.g08.bks.cpg/sg15_114_cif.got.tgz:226251.got - 2010.06.03 18:47:42.
