data_PCOD9292781
_publ_section_title
;
Structure prediction by ZEFSAII (Michael W. Deem and Ramdas Pophale) SiO2 
 PCOD9292781
Probable space group: C 2/C
;
_chemical_formula_sum "Si O2"
_cell_formula_units_Z 36
_cell_length_a 8.209665
_cell_length_b 18.675275
_cell_length_c 13.776816
_cell_angle_alpha 90.000000
_cell_angle_beta 131.778101
_cell_angle_gamma 90.000000
_cell_volume 1575.155095
_symmetry_space_group_name_H-M "C 2/C"
_symmetry_group_IT_number 15
_symmetry_cell_setting 'monoclinic'
loop_
_space_group_symop_operation_xyz
x,y,z
-x,y,1/2-z
-x,-y,-z
x,-y,1/2+z
1/2+x,1/2+y,z
1/2-x,1/2+y,1/2-z
1/2-x,1/2-y,-z
1/2+x,1/2-y,1/2+z
loop_
_atom_site_type_symbol
_atom_site_label
_atom_site_fract_x
_atom_site_fract_y
_atom_site_fract_z
Si Si1 0.500000 0.050657 0.750000
Si Si2 0.470287 0.578460 0.942451
Si Si3 0.904445 0.294875 0.822597
Si Si4 0.418978 0.056167 0.046670
Si Si5 0.520938 0.720699 0.448438
O O1 0.722298 0.090096 0.806408
O O2 0.572081 0.996502 0.860078
O O3 0.500000 0.500000 0.000000
O O4 0.668932 0.585475 0.944319
O O5 0.492033 0.635881 0.037166
O O6 0.663303 0.265002 0.704932
O O7 0.000000 0.293359 0.750000
O O8 0.925629 0.376316 0.870094
O O9 0.010583 0.251738 0.954667
O O10 0.500000 0.000000 0.000000
O O11 0.750000 0.750000 0.500000
#
# Coordination Sequence:
#
# PCOD9292781 Si02
#       5
#     4   8   8   8   8
#     4  10  22  44  68 100 152 186 264 328 388 480
#     4  10  23  45  70 103 149 194 261 327 396 470
#     4  12  25  50  76 109 161 208 264 336 406 485
#     4  11  24  45  75 110 149 209 263 333 409 482
#     4  12  28  47  75 114 157 211 264 332 408 490
#
# _framework density 22.854894000000002
#
# number of rings (size 3 to 8) (size 9 to 14) (size 15 to 20)
#    0.000    0.889    3.333    2.667    9.333    0.889 
#    4.000    0.000    0.000    0.000    0.000    0.000 
#    0.000    0.000    0.000    0.000    0.000    0.000 
#
# Total GULP energy -100301.387378 kJ/mol
# GULP energy per Si atom -5572.299299 kJ/mol
# Density = 2.280288 g / cm^3
# Si number density = 22.854894 Si / 1000 Ang^3
#
#
#
# Elastic Constant Matrix: (Units=GPa)
#
#
# Indices 1 2 3 4 5 6 
#
# 1 131.0643 42.6206 63.4305 0.0000 14.2546 0.0000
# 2 42.6206 101.3155 31.2380 0.0000 -14.6491 0.0000
# 3 63.4305 31.2380 120.1309 0.0000 24.8237 0.0000
# 4 0.0000 0.0000 0.0000 46.3981 0.0000 -12.1664
# 5 14.2546 -14.6491 24.8237 0.0000 45.2435 0.0000
# 6 0.0000 0.0000 0.0000 -12.1664 0.0000 9.1997
#
#
#
# Elastic Compliance Matrix: (Units=1/GPa)
#
#
# Indices 1 2 3 4 5 6 
#
# 1 0.011257 -0.003665 -0.004526 0.000000 -0.002250 0.000000
# 2 -0.003665 0.013375 -0.003018 0.000000 0.007142 0.000000
# 3 -0.004526 -0.003018 0.012865 0.000000 -0.006610 0.000000
# 4 0.000000 0.000000 0.000000 0.032994 0.000000 0.043634
# 5 -0.002250 0.007142 -0.006610 0.000000 0.028751 0.000000
# 6 0.000000 0.000000 0.000000 0.043634 0.000000 0.166404
#
#
# Mechanical properties :
#
#
# Convention : Reuss Voigt Hill
#
# Bulk Modulus (GPa) = 66.32230 69.67655 67.99943
# Shear Modulus (GPa) = 17.05958 34.51638 25.78798
#
# Velocity S-wave (km/s) = 2.73505 3.89040 3.36271
# Velocity P-wave (km/s) = 6.24947 7.12270 6.70033
#
# Compressibility (1/GPa) = 0.01507788
#
# Stress axis : x y z
#
# Youngs Moduli (GPa) = 88.83555 74.76433 77.73324
#
# Poissons Ratio (x) = 0.27405 0.35178
# Poissons Ratio (y) = 0.32562 0.23463
# Poissons Ratio (z) = 0.40203 0.22567
#
# Static dielectric constant tensor:
#      x y z
#    x 1.360660 0.000000 0.413660 
#    y 0.000000 1.836230 0.000000 
#    z 0.413660 0.000000 1.709310 
# 
# From -- ./inp_files/134668.got.cif
#   From: 2010.05.17/outbox.cif.g08.bks.cpg/sg15_68_cif.got.tgz:134668.got - 2010.06.03 18:47:42.
