data_PCOD9292301
_publ_section_title
;
Structure prediction by ZEFSAII (Michael W. Deem and Ramdas Pophale) SiO2 
 PCOD9292301
Probable space group: C 2/C
;
_chemical_formula_sum "Si O2"
_cell_formula_units_Z 32
_cell_length_a 17.646455
_cell_length_b 14.452902
_cell_length_c 12.551979
_cell_angle_alpha 90.000000
_cell_angle_beta 25.210798
_cell_angle_gamma 90.000000
_cell_volume 1363.587973
_symmetry_space_group_name_H-M "C 2/C"
_symmetry_group_IT_number 15
_symmetry_cell_setting 'monoclinic'
loop_
_space_group_symop_operation_xyz
x,y,z
-x,y,1/2-z
-x,-y,-z
x,-y,1/2+z
1/2+x,1/2+y,z
1/2-x,1/2+y,1/2-z
1/2-x,1/2-y,-z
1/2+x,1/2-y,1/2+z
loop_
_atom_site_type_symbol
_atom_site_label
_atom_site_fract_x
_atom_site_fract_y
_atom_site_fract_z
Si Si1 0.752204 0.633946 0.581699
Si Si2 0.368219 0.707061 0.095129
Si Si3 0.956940 0.520491 0.174787
Si Si4 0.488001 0.177506 0.649720
O O1 0.829353 0.724915 0.543918
O O2 0.823311 0.604408 0.374400
O O3 0.855596 0.553038 0.513063
O O4 0.541681 0.645051 0.854018
O O5 0.407703 0.767465 0.152218
O O6 0.187863 0.656371 0.356368
O O7 0.889187 0.419420 0.297303
O O8 0.000000 0.500000 0.000000
O O9 0.500000 0.227034 0.750000
#
# Coordination Sequence:
#
# PCOD9292301 Si02
#       4
#     8   8   8   8
#     4  10  22  43  69  93 131 168 222 268 326 387
#     4  10  23  41  69  98 125 173 228 266 318 393
#     4  11  22  40  64  91 135 166 206 270 340 376
#     4  11  21  41  65  94 134 173 215 270 329 385
#
# _framework density 23.467499
#
# number of rings (size 3 to 8) (size 9 to 14) (size 15 to 20)
#    0.000    1.500    5.000    0.750    0.000    5.000 
#    0.000    0.000   11.000    0.000    0.000    0.000 
#    0.000    0.000    0.000    0.000    0.000    0.000 
#
# Total GULP energy -89209.522804 kJ/mol
# GULP energy per Si atom -5575.595175 kJ/mol
# Density = 2.341409 g / cm^3
# Si number density = 23.467499 Si / 1000 Ang^3
#
#
#
# Elastic Constant Matrix: (Units=GPa)
#
#
# Indices 1 2 3 4 5 6 
#
# 1 90.2260 35.7477 40.6317 -0.0026 30.7348 0.0001
# 2 35.7477 101.1228 39.0974 -0.0020 3.9158 0.0002
# 3 40.6317 39.0974 152.0894 -0.0034 -0.3318 0.0005
# 4 -0.0026 -0.0020 -0.0034 -19.6283 0.0020 -7.2170
# 5 30.7348 3.9158 -0.3318 0.0020 46.9676 -0.0001
# 6 0.0001 0.0002 0.0005 -7.2170 -0.0001 39.5867
#
#
#
# Elastic Compliance Matrix: (Units=1/GPa)
#
#
# Indices 1 2 3 4 5 6 
#
# 1 0.018701 -0.004674 -0.003820 -0.000002 -0.011875 0.000000
# 2 -0.004674 0.012190 -0.001881 0.000000 0.002029 0.000000
# 3 -0.003820 -0.001881 0.008085 0.000000 0.002714 0.000000
# 4 -0.000002 0.000000 0.000000 -0.047746 0.000004 -0.008705
# 5 -0.011875 0.002029 0.002714 0.000004 0.028912 0.000001
# 6 0.000000 0.000000 0.000000 -0.008705 0.000001 0.023674
#
#
# Mechanical properties :
#
#
# Convention : Reuss Voigt Hill
#
# Bulk Modulus (GPa) = 54.86732 63.82133 59.34432
# Shear Modulus (GPa) = 70.78165 28.58262 49.68213
#
# Velocity S-wave (km/s) = 5.49791 3.49372 4.60615
# Velocity P-wave (km/s) = 7.98333 6.59769 7.32336
#
# Compressibility (1/GPa) = 0.01822579
#
# Stress axis : x y z
#
# Youngs Moduli (GPa) = 53.47444 82.03636 123.68499
#
# Poissons Ratio (x) = 0.38343 0.47252
# Poissons Ratio (y) = 0.24993 0.23259
# Poissons Ratio (z) = 0.20429 0.15427
#
# Static dielectric constant tensor:
#      x y z
#    x 2.044300 0.000000 0.071440 
#    y 0.000000 1.898090 0.000000 
#    z 0.071440 0.000000 1.874840 
# 
# From -- ./inp_files/56351.got.cif
#   From: 2010.05.17/outbox.cif.g08.bks.cpg/sg15_29_cif.got.tgz:56351.got - 2010.06.03 18:47:42.
