data_PCOD9292104
_publ_section_title
;
Structure prediction by ZEFSAII (Michael W. Deem and Ramdas Pophale) SiO2 
 PCOD9292104
Probable space group: C 2/C
;
_chemical_formula_sum "Si O2"
_cell_formula_units_Z 48
_cell_length_a 20.774308
_cell_length_b 8.321079
_cell_length_c 21.608060
_cell_angle_alpha 90.000000
_cell_angle_beta 141.796074
_cell_angle_gamma 90.000000
_cell_volume 2310.123399
_symmetry_space_group_name_H-M "C 2/C"
_symmetry_group_IT_number 15
_symmetry_cell_setting 'monoclinic'
loop_
_space_group_symop_operation_xyz
x,y,z
-x,y,1/2-z
-x,-y,-z
x,-y,1/2+z
1/2+x,1/2+y,z
1/2-x,1/2+y,1/2-z
1/2-x,1/2-y,-z
1/2+x,1/2-y,1/2+z
loop_
_atom_site_type_symbol
_atom_site_label
_atom_site_fract_x
_atom_site_fract_y
_atom_site_fract_z
Si Si1 0.139365 0.471617 0.663269
Si Si2 0.079979 0.084935 0.258716
Si Si3 0.229173 0.081201 0.951293
Si Si4 0.907897 0.355897 0.499343
Si Si5 0.602149 0.484701 0.968053
Si Si6 0.741055 0.297790 0.160316
O O1 0.124578 0.595512 0.594703
O O2 0.201328 0.552866 0.765201
O O3 0.203246 0.323543 0.684191
O O4 0.025836 0.411826 0.597215
O O5 0.173564 0.205600 0.316119
O O6 0.000000 0.147730 0.250000
O O7 0.135130 0.927558 0.330322
O O8 0.011043 0.049082 0.146418
O O9 0.250000 0.250000 0.000000
O O10 0.333057 0.049452 0.990786
O O11 0.185919 0.973693 0.974804
O O12 0.896702 0.165927 0.504201
O O13 0.640612 0.358479 0.047341
#
# Coordination Sequence:
#
# PCOD9292104 Si02
#       6
#     8   8   8   8   8   8
#     4  11  26  41  64  95 133 180 220 269 329 395
#     4  10  23  41  65  98 132 168 217 277 333 392
#     4   9  19  42  70  97 130 166 212 276 330 389
#     4  10  22  43  66  95 130 171 224 267 326 402
#     4  10  24  41  70  95 128 175 219 279 337 379
#     4  12  26  43  65  95 136 177 225 273 331 399
#
# _framework density 20.778112
#
# number of rings (size 3 to 8) (size 9 to 14) (size 15 to 20)
#    0.000    1.667    1.667    1.000    7.000    7.333 
#    0.000    1.667    0.000    0.000    0.000    0.000 
#    0.000    0.000    0.000    0.000    0.000    0.000 
#
# Total GULP energy -134029.334840 kJ/mol
# GULP energy per Si atom -5584.555618 kJ/mol
# Density = 2.073082 g / cm^3
# Si number density = 20.778112 Si / 1000 Ang^3
#
#
#
# Elastic Constant Matrix: (Units=GPa)
#
#
# Indices 1 2 3 4 5 6 
#
# 1 101.3301 23.9289 19.1299 0.0000 23.8090 0.0000
# 2 23.9289 71.8709 42.4169 0.0000 3.3561 0.0000
# 3 19.1299 42.4169 98.5616 0.0000 9.2438 0.0000
# 4 0.0000 0.0000 0.0000 24.3206 0.0000 1.4180
# 5 23.8090 3.3561 9.2438 0.0000 19.9098 0.0000
# 6 0.0000 0.0000 0.0000 1.4180 0.0000 28.2448
#
#
#
# Elastic Compliance Matrix: (Units=1/GPa)
#
#
# Indices 1 2 3 4 5 6 
#
# 1 0.014895 -0.004562 0.000701 0.000000 -0.017368 0.000000
# 2 -0.004562 0.020055 -0.008302 0.000000 0.005929 0.000000
# 3 0.000701 -0.008302 0.014146 0.000000 -0.006007 0.000000
# 4 0.000000 0.000000 0.000000 0.041238 0.000000 -0.002070
# 5 -0.017368 0.005929 -0.006007 0.000000 0.072786 0.000000
# 6 0.000000 0.000000 0.000000 -0.002070 0.000000 0.035509
#
#
# Mechanical properties :
#
#
# Convention : Reuss Voigt Hill
#
# Bulk Modulus (GPa) = 40.36941 49.19045 44.77993
# Shear Modulus (GPa) = 21.62539 26.91415 24.26977
#
# Velocity S-wave (km/s) = 3.22961 3.60295 3.42137
# Velocity P-wave (km/s) = 5.77738 6.40577 6.09967
#
# Compressibility (1/GPa) = 0.02477123
#
# Stress axis : x y z
#
# Youngs Moduli (GPa) = 67.13884 49.86220 70.69198
#
# Poissons Ratio (x) = 0.22746 -0.04957
# Poissons Ratio (y) = 0.30628 0.58686
# Poissons Ratio (z) = -0.04708 0.41394
#
# Static dielectric constant tensor:
#      x y z
#    x 1.762140 0.000000 -0.015060 
#    y 0.000000 1.739110 0.000000 
#    z -0.015060 0.000000 1.732690 
# 
# From -- ./inp_files/252021.got.cif
#   From: 2010.05.17/outbox.cif.g08.bks.cpg/sg15_127_cif.got.tgz:252021.got - 2010.06.03 18:47:42.
