data_PCOD9292819
_publ_section_title
;
Structure prediction by ZEFSAII (Michael W. Deem and Ramdas Pophale) SiO2 
 PCOD9292819
Probable space group: C 2/C
;
_chemical_formula_sum "Si O2"
_cell_formula_units_Z 52
_cell_length_a 10.841999
_cell_length_b 23.044064
_cell_length_c 11.941173
_cell_angle_alpha 90.000000
_cell_angle_beta 126.215877
_cell_angle_gamma 90.000000
_cell_volume 2407.018878
_symmetry_space_group_name_H-M "C 2/C"
_symmetry_group_IT_number 15
_symmetry_cell_setting 'monoclinic'
loop_
_space_group_symop_operation_xyz
x,y,z
-x,y,1/2-z
-x,-y,-z
x,-y,1/2+z
1/2+x,1/2+y,z
1/2-x,1/2+y,1/2-z
1/2-x,1/2-y,-z
1/2+x,1/2-y,1/2+z
loop_
_atom_site_type_symbol
_atom_site_label
_atom_site_fract_x
_atom_site_fract_y
_atom_site_fract_z
Si Si1 0.890278 0.215876 0.783736
Si Si2 0.619713 0.859495 0.081618
Si Si3 0.801960 0.669211 0.330347
Si Si4 0.924289 0.879522 0.972726
Si Si5 0.329111 0.543091 0.615757
Si Si6 0.500000 0.115667 0.750000
Si Si7 0.296993 0.584840 0.031734
O O1 0.751830 0.187633 0.639257
O O2 0.827534 0.261839 0.839359
O O3 0.000000 0.244514 0.750000
O O4 0.984452 0.165350 0.897807
O O5 0.703091 0.921347 0.116774
O O6 0.557077 0.849257 0.173216
O O7 0.474417 0.856084 0.923450
O O8 0.698842 0.653171 0.169317
O O9 0.722967 0.639735 0.396142
O O10 0.052627 0.907904 0.962139
O O11 0.836162 0.928337 0.996541
O O12 0.500000 0.554392 0.750000
O O13 0.302964 0.474765 0.602953
O O14 0.353041 0.081486 0.626479
#
# Coordination Sequence:
#
# PCOD9292819 Si02
#       7
#     8   8   8   8   8   4   8
#     4  12  24  47  73  96 137 181 230 279 340 411
#     4  11  23  46  66 102 136 176 229 277 347 397
#     4  11  28  40  67 104 139 174 228 287 331 406
#     4  12  23  45  70 104 132 184 229 274 351 397
#     4  12  23  43  73  96 138 181 230 283 334 413
#     4  10  22  44  68  94 134 178 220 274 338 414
#     4  11  25  45  68 100 139 177 231 278 345 406
#
# _framework density 21.603487000000001
#
# number of rings (size 3 to 8) (size 9 to 14) (size 15 to 20)
#    0.000    0.615    4.615    2.769    2.154    6.769 
#    2.769    0.000    1.692    0.000    0.000    0.000 
#    0.000    0.000    0.000    0.000    0.000    0.000 
#
# Total GULP energy -145310.661081 kJ/mol
# GULP energy per Si atom -5588.871580 kJ/mol
# Density = 2.155432 g / cm^3
# Si number density = 21.603487 Si / 1000 Ang^3
#
#
#
# Elastic Constant Matrix: (Units=GPa)
#
#
# Indices 1 2 3 4 5 6 
#
# 1 85.8862 20.9486 10.0778 0.0000 -1.2560 0.0000
# 2 20.9486 78.4144 -5.9609 0.0000 -11.0161 0.0000
# 3 10.0778 -5.9609 84.6754 0.0000 28.1646 0.0000
# 4 0.0000 0.0000 0.0000 -280.6512 0.0000 -66.6475
# 5 -1.2560 -11.0161 28.1646 0.0000 39.0737 0.0000
# 6 0.0000 0.0000 0.0000 -66.6475 0.0000 5.6587
#
#
#
# Elastic Compliance Matrix: (Units=1/GPa)
#
#
# Indices 1 2 3 4 5 6 
#
# 1 0.012736 -0.003428 -0.002067 0.000000 0.000933 0.000000
# 2 -0.003428 0.014212 0.000148 0.000000 0.003790 0.000000
# 3 -0.002067 0.000148 0.015882 0.000000 -0.011473 0.000000
# 4 0.000000 0.000000 0.000000 -0.000938 0.000000 -0.011053
# 5 0.000933 0.003790 -0.011473 0.000000 0.034961 0.000000
# 6 0.000000 0.000000 0.000000 -0.011053 0.000000 0.046542
#
#
# Mechanical properties :
#
#
# Convention : Reuss Voigt Hill
#
# Bulk Modulus (GPa) = 31.11928 33.23412 32.17670
# Shear Modulus (GPa) = 34.52969 -32.25638 1.13665
#
# Velocity S-wave (km/s) = 4.00226 -3.86827 0.72614
# Velocity P-wave (km/s) = 5.98276 2.12938 3.95343
#
# Compressibility (1/GPa) = 0.03213442
#
# Stress axis : x y z
#
# Youngs Moduli (GPa) = 78.51878 70.36117 62.96289
#
# Poissons Ratio (x) = 0.24123 0.13017
# Poissons Ratio (y) = 0.26920 -0.00931
# Poissons Ratio (z) = 0.16234 -0.01041
#
# Static dielectric constant tensor:
#      x y z
#    x 1.788840 0.000000 -0.014030 
#    y 0.000000 1.752690 0.000000 
#    z -0.014030 0.000000 1.798870 
# 
# From -- ./inp_files/91316.got.cif
#   From: 2010.05.17/outbox.cif.g08.bks.cpg/sg15_46_cif.got.tgz:91316.got - 2010.06.03 18:47:42.
