data_PCOD9292847
_publ_section_title
;
Structure prediction by ZEFSAII (Michael W. Deem and Ramdas Pophale) SiO2 
 PCOD9292847
Probable space group: C 2/C
;
_chemical_formula_sum "Si O2"
_cell_formula_units_Z 56
_cell_length_a 14.435899
_cell_length_b 16.105184
_cell_length_c 11.192679
_cell_angle_alpha 90.000000
_cell_angle_beta 86.801549
_cell_angle_gamma 90.000000
_cell_volume 2598.163843
_symmetry_space_group_name_H-M "C 2/C"
_symmetry_group_IT_number 15
_symmetry_cell_setting 'monoclinic'
loop_
_space_group_symop_operation_xyz
x,y,z
-x,y,1/2-z
-x,-y,-z
x,-y,1/2+z
1/2+x,1/2+y,z
1/2-x,1/2+y,1/2-z
1/2-x,1/2-y,-z
1/2+x,1/2-y,1/2+z
loop_
_atom_site_type_symbol
_atom_site_label
_atom_site_fract_x
_atom_site_fract_y
_atom_site_fract_z
Si Si1 0.905319 0.815900 0.885238
Si Si2 0.732456 0.957615 0.566099
Si Si3 0.461547 0.094079 0.506031
Si Si4 0.500000 0.824277 0.250000
Si Si5 0.942300 0.914645 0.496324
Si Si6 0.882250 0.283694 0.611677
Si Si7 0.500000 0.336588 0.250000
Si Si8 0.748309 0.569441 0.169037
O O1 0.856026 0.896022 0.833906
O O2 0.919678 0.738238 0.798450
O O3 0.854384 0.776494 0.004028
O O4 0.004547 0.846716 0.927386
O O5 0.640118 0.904052 0.546270
O O6 0.834822 0.919986 0.538523
O O7 0.732146 0.979624 0.708613
O O8 0.727900 0.025249 0.458616
O O9 0.463190 0.121349 0.643729
O O10 0.532651 0.157326 0.437455
O O11 0.500000 0.000000 0.500000
O O12 0.956302 0.888930 0.358882
O O13 0.000000 0.000000 0.500000
O O14 0.919608 0.221943 0.707321
O O15 0.806224 0.345627 0.666444
#
# Coordination Sequence:
#
# PCOD9292847 Si02
#       8
#     8   8   8   4   8   8   4   8
#     4  10  22  44  68  98 137 184 231 282 349 413
#     4  12  28  41  71 105 139 178 233 287 349 402
#     4  11  24  44  69 101 138 180 233 285 342 415
#     4  10  24  42  72  96 136 186 224 286 352 408
#     4  11  24  44  69 101 138 180 233 285 342 415
#     4  10  22  44  68  98 137 184 231 282 349 413
#     4  10  24  42  72  96 136 186 224 286 352 408
#     4  12  25  43  69 103 142 184 233 289 339 415
#
# _framework density 21.553682999999999
#
# number of rings (size 3 to 8) (size 9 to 14) (size 15 to 20)
#    0.000    1.143    2.857    2.143    4.000    2.286 
#    0.000    7.857    0.000    0.000    0.000    0.000 
#    0.000    0.000    0.000    0.000    0.000    0.000 
#
# Total GULP energy -156367.722725 kJ/mol
# GULP energy per Si atom -5584.561526 kJ/mol
# Density = 2.150463 g / cm^3
# Si number density = 21.553683 Si / 1000 Ang^3
#
#
#
# Elastic Constant Matrix: (Units=GPa)
#
#
# Indices 1 2 3 4 5 6 
#
# 1 94.3521 -0.5567 12.4811 0.0000 12.5296 0.0000
# 2 -0.5567 75.7430 48.4833 0.0000 12.0453 0.0000
# 3 12.4811 48.4833 143.8516 0.0000 22.5427 0.0000
# 4 0.0000 0.0000 0.0000 37.1526 0.0000 -3.7841
# 5 12.5296 12.0453 22.5427 0.0000 16.5928 0.0000
# 6 0.0000 0.0000 0.0000 -3.7841 0.0000 28.0101
#
#
#
# Elastic Compliance Matrix: (Units=1/GPa)
#
#
# Indices 1 2 3 4 5 6 
#
# 1 0.011976 0.001730 -0.000011 0.000000 -0.010285 0.000000
# 2 0.001730 0.017525 -0.004902 0.000000 -0.007369 0.000000
# 3 -0.000011 -0.004902 0.010222 0.000000 -0.010321 0.000000
# 4 0.000000 0.000000 0.000000 0.027292 0.000000 0.003687
# 5 -0.010285 -0.007369 -0.010321 0.000000 0.087405 0.000000
# 6 0.000000 0.000000 0.000000 0.003687 0.000000 0.036199
#
#
# Mechanical properties :
#
#
# Convention : Reuss Voigt Hill
#
# Bulk Modulus (GPa) = 29.97699 48.30689 39.14194
# Shear Modulus (GPa) = 24.02661 33.25372 28.64016
#
# Velocity S-wave (km/s) = 3.34238 3.93215 3.64920
# Velocity P-wave (km/s) = 5.36970 6.56329 5.99627
#
# Compressibility (1/GPa) = 0.03335891
#
# Stress axis : x y z
#
# Youngs Moduli (GPa) = 83.50010 57.06184 97.82790
#
# Poissons Ratio (x) = -0.09874 0.00103
# Poissons Ratio (y) = -0.14449 0.47954
# Poissons Ratio (z) = 0.00088 0.27971
#
# Static dielectric constant tensor:
#      x y z
#    x 1.832550 0.000000 0.018480 
#    y 0.000000 1.764780 0.000000 
#    z 0.018480 0.000000 1.821920 
# 
# From -- ./inp_files/97091.got.cif
#   From: 2010.05.17/outbox.cif.g08.bks.cpg/sg15_49_cif.got.tgz:97091.got - 2010.06.03 18:47:42.
