data_PCOD9292838
_publ_section_title
;
Structure prediction by ZEFSAII (Michael W. Deem and Ramdas Pophale) SiO2 
 PCOD9292838
Probable space group: C 2/C
;
_chemical_formula_sum "Si O2"
_cell_formula_units_Z 40
_cell_length_a 23.358792
_cell_length_b 13.701469
_cell_length_c 11.666641
_cell_angle_alpha 90.000000
_cell_angle_beta 151.898109
_cell_angle_gamma 90.000000
_cell_volume 1758.822657
_symmetry_space_group_name_H-M "C 2/C"
_symmetry_group_IT_number 15
_symmetry_cell_setting 'monoclinic'
loop_
_space_group_symop_operation_xyz
x,y,z
-x,y,1/2-z
-x,-y,-z
x,-y,1/2+z
1/2+x,1/2+y,z
1/2-x,1/2+y,1/2-z
1/2-x,1/2-y,-z
1/2+x,1/2-y,1/2+z
loop_
_atom_site_type_symbol
_atom_site_label
_atom_site_fract_x
_atom_site_fract_y
_atom_site_fract_z
Si Si1 0.874135 0.632027 0.963299
Si Si2 0.614452 0.793746 0.265499
Si Si3 0.203788 0.581882 0.123459
Si Si4 0.523871 0.391898 0.493447
Si Si5 0.791791 0.805662 0.961793
O O1 0.799692 0.724763 0.876008
O O2 0.000000 0.643393 0.250000
O O3 0.896411 0.640278 0.867506
O O4 0.817156 0.532728 0.907628
O O5 0.750000 0.750000 0.500000
O O6 0.615983 0.860902 0.380922
O O7 0.531566 0.696977 0.100435
O O8 0.343393 0.600850 0.330586
O O9 0.195904 0.618849 0.240366
O O10 0.500000 0.500000 0.500000
O O11 0.417200 0.359574 0.217944
O O12 0.750000 0.750000 0.000000
#
# Coordination Sequence:
#
# PCOD9292838 Si02
#       5
#     8   8   8   8   8
#     4  12  24  45  71  96 137 185 225 291 353 418
#     4  10  22  44  68  96 139 172 224 289 348 400
#     4  11  26  43  70 102 138 182 230 290 351 415
#     4  11  23  45  72 102 136 179 233 290 347 416
#     4  12  25  44  68 101 139 183 231 284 348 420
#
# _framework density 22.742487000000001
#
# number of rings (size 3 to 8) (size 9 to 14) (size 15 to 20)
#    0.000    0.800    6.000    1.800    8.400    2.400 
#    0.000    0.000    0.000    0.000    0.000    0.000 
#    0.000    0.000    0.000    0.000    0.000    0.000 
#
# Total GULP energy -111789.595959 kJ/mol
# GULP energy per Si atom -5589.479798 kJ/mol
# Density = 2.269072 g / cm^3
# Si number density = 22.742487 Si / 1000 Ang^3
#
#
#
# Elastic Constant Matrix: (Units=GPa)
#
#
# Indices 1 2 3 4 5 6 
#
# 1 71.4321 25.2849 14.2989 0.0000 -19.6861 0.0000
# 2 25.2849 163.8269 21.8843 0.0000 -23.7147 0.0000
# 3 14.2989 21.8843 98.0424 0.0000 -42.2040 0.0000
# 4 0.0000 0.0000 0.0000 15.5110 0.0000 8.3303
# 5 -19.6861 -23.7147 -42.2040 0.0000 27.7103 0.0000
# 6 0.0000 0.0000 0.0000 8.3303 0.0000 37.8637
#
#
#
# Elastic Compliance Matrix: (Units=1/GPa)
#
#
# Indices 1 2 3 4 5 6 
#
# 1 0.019945 -0.000265 0.009153 0.000000 0.027884 0.000000
# 2 -0.000265 0.007275 0.002944 0.000000 0.010521 0.000000
# 3 0.009153 0.002944 0.035110 0.000000 0.062497 0.000000
# 4 0.000000 0.000000 0.000000 0.073109 0.000000 -0.016084
# 5 0.027884 0.010521 0.062497 0.000000 0.160087 0.000000
# 6 0.000000 0.000000 0.000000 -0.016084 0.000000 0.029949
#
#
# Mechanical properties :
#
#
# Convention : Reuss Voigt Hill
#
# Bulk Modulus (GPa) = 11.62850 50.69304 31.16077
# Shear Modulus (GPa) = 15.12971 34.33922 24.73447
#
# Velocity S-wave (km/s) = 2.58207 3.88998 3.30144
# Velocity P-wave (km/s) = 3.74348 6.52030 5.31639
#
# Compressibility (1/GPa) = 0.08599560
#
# Stress axis : x y z
#
# Youngs Moduli (GPa) = 50.13690 137.46430 28.48153
#
# Poissons Ratio (x) = 0.03639 -0.26070
# Poissons Ratio (y) = 0.01327 -0.08385
# Poissons Ratio (z) = -0.45892 -0.40468
#
# Static dielectric constant tensor:
#      x y z
#    x 1.877030 0.000000 -0.020880 
#    y 0.000000 1.907600 0.000000 
#    z -0.020880 0.000000 1.846840 
# 
# From -- ./inp_files/122852.got.cif
#   From: 2010.05.17/outbox.cif.g08.bks.cpg/sg15_62_cif.got.tgz:122852.got - 2010.06.03 18:47:42.
