data_PCOD9292957
_publ_section_title
;
Structure prediction by ZEFSAII (Michael W. Deem and Ramdas Pophale) SiO2 
 PCOD9292957
Probable space group: C 2/C
;
_chemical_formula_sum "Si O2"
_cell_formula_units_Z 28
_cell_length_a 7.163522
_cell_length_b 7.700042
_cell_length_c 19.257328
_cell_angle_alpha 90.000000
_cell_angle_beta 114.986850
_cell_angle_gamma 90.000000
_cell_volume 962.804026
_symmetry_space_group_name_H-M "C 2/C"
_symmetry_group_IT_number 15
_symmetry_cell_setting 'monoclinic'
loop_
_space_group_symop_operation_xyz
x,y,z
-x,y,1/2-z
-x,-y,-z
x,-y,1/2+z
1/2+x,1/2+y,z
1/2-x,1/2+y,1/2-z
1/2-x,1/2-y,-z
1/2+x,1/2-y,1/2+z
loop_
_atom_site_type_symbol
_atom_site_label
_atom_site_fract_x
_atom_site_fract_y
_atom_site_fract_z
Si Si1 0.500000 0.000000 0.000000
Si Si2 0.347907 0.375315 0.935798
Si Si3 0.051829 0.358061 0.681414
Si Si4 0.405000 0.544352 0.145632
O O1 0.784933 0.102630 0.196292
O O2 0.718551 0.089526 0.063059
O O3 0.111062 0.446650 0.899305
O O4 0.407350 0.363060 0.863745
O O5 0.500000 0.500000 0.000000
O O6 0.387208 0.187392 0.970396
O O7 0.984781 0.155470 0.665291
O O8 0.000000 0.423076 0.750000
#
# Coordination Sequence:
#
# PCOD9292957 Si02
#       4
#     4   8   8   8
#     4  10  22  44  70 118 146 186 256 318 392 472
#     4  11  24  46  80 112 156 202 260 329 402 474
#     4  11  28  47  71 112 153 204 271 321 393 483
#     4  11  24  46  75 106 151 202 250 325 396 468
#
# _framework density 29.081724000000001
#
# number of rings (size 3 to 8) (size 9 to 14) (size 15 to 20)
#    0.000    1.143    0.000    4.286    4.000   11.429 
#    0.000    4.286    0.000    0.000    0.000    0.000 
#    0.000    0.000    0.000    0.000    0.000    0.000 
#
# Total GULP energy -78082.261407 kJ/mol
# GULP energy per Si atom -5577.304386 kJ/mol
# Density = 2.901553 g / cm^3
# Si number density = 29.081724 Si / 1000 Ang^3
#
#
#
# Elastic Constant Matrix: (Units=GPa)
#
#
# Indices 1 2 3 4 5 6 
#
# 1 228.8443 37.1741 23.6652 0.0000 -13.5594 0.0000
# 2 37.1741 113.9717 -1.7349 0.0000 3.2938 0.0000
# 3 23.6652 -1.7349 110.9826 0.0000 -12.5412 0.0000
# 4 0.0000 0.0000 0.0000 23.6448 0.0000 6.7599
# 5 -13.5594 3.2938 -12.5412 0.0000 64.7600 0.0000
# 6 0.0000 0.0000 0.0000 6.7599 0.0000 53.1598
#
#
#
# Elastic Compliance Matrix: (Units=1/GPa)
#
#
# Indices 1 2 3 4 5 6 
#
# 1 0.004780 -0.001600 -0.000943 0.000000 0.000900 0.000000
# 2 -0.001600 0.009323 0.000404 0.000000 -0.000731 0.000000
# 3 -0.000943 0.000404 0.009399 0.000000 0.001602 0.000000
# 4 0.000000 0.000000 0.000000 0.043888 0.000000 -0.005581
# 5 0.000900 -0.000731 0.001602 0.000000 0.015977 0.000000
# 6 0.000000 0.000000 0.000000 -0.005581 0.000000 0.019521
#
#
# Mechanical properties :
#
#
# Convention : Reuss Voigt Hill
#
# Bulk Modulus (GPa) = 52.01209 63.55639 57.78424
# Shear Modulus (GPa) = 44.02433 54.62587 49.32510
#
# Velocity S-wave (km/s) = 3.89500 4.33870 4.12282
# Velocity P-wave (km/s) = 6.17670 6.85573 6.52505
#
# Compressibility (1/GPa) = 0.01922630
#
# Stress axis : x y z
#
# Youngs Moduli (GPa) = 209.18678 107.26026 106.39653
#
# Poissons Ratio (x) = 0.17157 0.10030
# Poissons Ratio (y) = 0.33461 -0.04301
# Poissons Ratio (z) = 0.19720 -0.04336
#
# Static dielectric constant tensor:
#      x y z
#    x 2.285030 0.000000 0.046460 
#    y 0.000000 2.119510 0.000000 
#    z 0.046460 0.000000 2.649640 
# 
# From -- ./inp_files/131568.got.cif
#   From: 2010.05.17/outbox.cif.g08.bks.cpg/sg15_66_cif.got.tgz:131568.got - 2010.06.03 18:47:42.
