data_PCOD9292385
_publ_section_title
;
Structure prediction by ZEFSAII (Michael W. Deem and Ramdas Pophale) SiO2 
 PCOD9292385
Probable space group: C 2/C
;
_chemical_formula_sum "Si O2"
_cell_formula_units_Z 40
_cell_length_a 6.881660
_cell_length_b 13.097341
_cell_length_c 21.508709
_cell_angle_alpha 90.000000
_cell_angle_beta 117.053578
_cell_angle_gamma 90.000000
_cell_volume 1726.491362
_symmetry_space_group_name_H-M "C 2/C"
_symmetry_group_IT_number 15
_symmetry_cell_setting 'monoclinic'
loop_
_space_group_symop_operation_xyz
x,y,z
-x,y,1/2-z
-x,-y,-z
x,-y,1/2+z
1/2+x,1/2+y,z
1/2-x,1/2+y,1/2-z
1/2-x,1/2-y,-z
1/2+x,1/2-y,1/2+z
loop_
_atom_site_type_symbol
_atom_site_label
_atom_site_fract_x
_atom_site_fract_y
_atom_site_fract_z
Si Si1 0.041624 0.876409 0.062316
Si Si2 0.341248 0.542703 0.784708
Si Si3 0.000000 0.363381 0.750000
Si Si4 0.124318 0.490554 0.953522
Si Si5 0.112487 0.318107 0.638168
Si Si6 0.000000 0.286201 0.250000
O O1 0.053331 0.927302 0.133076
O O2 0.029360 0.756167 0.072331
O O3 0.265122 0.909761 0.060245
O O4 0.835258 0.918319 0.995009
O O5 0.500000 0.531873 0.750000
O O6 0.206851 0.438495 0.775757
O O7 0.171514 0.634703 0.745394
O O8 0.996458 0.297429 0.687256
O O9 0.951213 0.433866 0.884504
O O10 0.000000 0.500000 0.000000
O O11 0.362608 0.285747 0.684304
#
# Coordination Sequence:
#
# PCOD9292385 Si02
#       6
#     8   8   4   8   8   4
#     4  10  24  45  68 100 138 180 238 288 347 431
#     4  10  22  43  70  98 140 184 229 293 358 420
#     4  11  24  40  66 105 140 178 232 291 364 427
#     4  11  25  46  70  96 135 190 233 289 354 413
#     4  11  24  46  65 103 142 178 233 296 349 432
#     4   9  24  40  64 103 138 174 232 287 360 419
#
# _framework density 23.168374
#
# number of rings (size 3 to 8) (size 9 to 14) (size 15 to 20)
#    0.000    1.600    2.000    0.600    9.800    0.800 
#    0.000    0.000    0.000    0.000    0.000    0.000 
#    0.000    0.000    0.000    0.000    0.000    0.000 
#
# Total GULP energy -111813.891011 kJ/mol
# GULP energy per Si atom -5590.694551 kJ/mol
# Density = 2.311564 g / cm^3
# Si number density = 23.168374 Si / 1000 Ang^3
#
#
#
# Elastic Constant Matrix: (Units=GPa)
#
#
# Indices 1 2 3 4 5 6 
#
# 1 118.0506 50.1894 16.4476 0.0000 -14.2378 0.0000
# 2 50.1894 72.3991 4.4432 0.0000 4.9889 0.0000
# 3 16.4476 4.4432 53.4298 0.0000 0.3895 0.0000
# 4 0.0000 0.0000 0.0000 28.5582 0.0000 3.8029
# 5 -14.2378 4.9889 0.3895 0.0000 47.0876 0.0000
# 6 0.0000 0.0000 0.0000 3.8029 0.0000 40.8815
#
#
#
# Elastic Compliance Matrix: (Units=1/GPa)
#
#
# Indices 1 2 3 4 5 6 
#
# 1 0.013665 -0.009618 -0.003444 0.000000 0.005179 0.000000
# 2 -0.009618 0.020755 0.001272 0.000000 -0.005118 0.000000
# 3 -0.003444 0.001272 0.019680 0.000000 -0.001339 0.000000
# 4 0.000000 0.000000 0.000000 0.035455 0.000000 -0.003298
# 5 0.005179 -0.005118 -0.001339 0.000000 0.023356 0.000000
# 6 0.000000 0.000000 0.000000 -0.003298 0.000000 0.024768
#
#
# Mechanical properties :
#
#
# Convention : Reuss Voigt Hill
#
# Bulk Modulus (GPa) = 32.76669 42.89331 37.83000
# Shear Modulus (GPa) = 29.16586 34.82542 31.99564
#
# Velocity S-wave (km/s) = 3.55190 3.88125 3.72022
# Velocity P-wave (km/s) = 5.56730 6.21606 5.90060
#
# Compressibility (1/GPa) = 0.03051879
#
# Stress axis : x y z
#
# Youngs Moduli (GPa) = 73.18094 48.18198 50.81194
#
# Poissons Ratio (x) = 0.46343 0.17502
# Poissons Ratio (y) = 0.70388 -0.06465
# Poissons Ratio (z) = 0.25206 -0.06130
#
# Static dielectric constant tensor:
#      x y z
#    x 1.858620 0.000000 0.016860 
#    y 0.000000 1.906320 0.000000 
#    z 0.016860 0.000000 1.932440 
# 
# From -- ./inp_files/260232.got.cif
#   From: 2010.05.17/outbox.cif.g08.bks.cpg/sg15_131_cif.got.tgz:260232.got - 2010.06.03 18:47:42.
