data_PCOD9292414
_publ_section_title
;
Structure prediction by ZEFSAII (Michael W. Deem and Ramdas Pophale) SiO2 
 PCOD9292414
Probable space group: C 2/C
;
_chemical_formula_sum "Si O2"
_cell_formula_units_Z 44
_cell_length_a 10.504154
_cell_length_b 16.316251
_cell_length_c 11.283273
_cell_angle_alpha 90.000000
_cell_angle_beta 100.779205
_cell_angle_gamma 90.000000
_cell_volume 1899.700338
_symmetry_space_group_name_H-M "C 2/C"
_symmetry_group_IT_number 15
_symmetry_cell_setting 'monoclinic'
loop_
_space_group_symop_operation_xyz
x,y,z
-x,y,1/2-z
-x,-y,-z
x,-y,1/2+z
1/2+x,1/2+y,z
1/2-x,1/2+y,1/2-z
1/2-x,1/2-y,-z
1/2+x,1/2-y,1/2+z
loop_
_atom_site_type_symbol
_atom_site_label
_atom_site_fract_x
_atom_site_fract_y
_atom_site_fract_z
Si Si1 0.809789 0.810042 0.153852
Si Si2 0.967097 0.772021 0.955130
Si Si3 0.072639 0.611011 0.012067
Si Si4 0.500000 0.967092 0.250000
Si Si5 0.752170 0.000730 0.688383
Si Si6 0.500000 0.173825 0.250000
Si Si7 0.000000 0.893566 0.750000
O O1 0.664679 0.778130 0.101369
O O2 0.875863 0.734857 0.237600
O O3 0.790755 0.903659 0.189563
O O4 0.914145 0.814516 0.064612
O O5 0.006855 0.836330 0.864951
O O6 0.084708 0.707323 0.986000
O O7 0.187346 0.548053 0.064972
O O8 0.995086 0.623288 0.124899
O O9 0.005658 0.577719 0.880254
O O10 0.359056 0.006788 0.232998
O O11 0.876217 0.949692 0.742669
#
# Coordination Sequence:
#
# PCOD9292414 Si02
#       7
#     8   8   8   4   8   4   4
#     4  10  22  43  71 103 147 197 253 309 381 448
#     4  10  23  43  70 100 147 196 251 308 374 452
#     4  11  24  47  77 106 148 203 260 308 369 461
#     4  12  26  46  76 116 150 196 264 314 370 446
#     4  12  27  45  76 109 154 200 251 318 387 454
#     4  10  22  46  75 107 146 210 250 302 390 466
#     4  12  28  48  69 115 156 198 244 324 392 456
#
# _framework density 23.161549000000001
#
# number of rings (size 3 to 8) (size 9 to 14) (size 15 to 20)
#    0.000    1.091    1.818    3.273    2.545    2.909 
#    6.545    0.000    0.000    0.000    0.000    0.000 
#    0.000    0.000    0.000    0.000    0.000    0.000 
#
# Total GULP energy -122513.078378 kJ/mol
# GULP energy per Si atom -5568.776290 kJ/mol
# Density = 2.310883 g / cm^3
# Si number density = 23.161549 Si / 1000 Ang^3
#
#
#
# Elastic Constant Matrix: (Units=GPa)
#
#
# Indices 1 2 3 4 5 6 
#
# 1 96.4947 52.6641 33.3449 0.0000 -14.8681 0.0000
# 2 52.6641 127.1098 37.8089 0.0000 -14.0740 0.0000
# 3 33.3449 37.8089 105.1983 0.0000 -4.7698 0.0000
# 4 0.0000 0.0000 0.0000 5.8337 0.0000 1.7857
# 5 -14.8681 -14.0740 -4.7698 0.0000 15.7964 0.0000
# 6 0.0000 0.0000 0.0000 1.7857 0.0000 40.3469
#
#
#
# Elastic Compliance Matrix: (Units=1/GPa)
#
#
# Indices 1 2 3 4 5 6 
#
# 1 0.015209 -0.004412 -0.002803 0.000000 0.009538 0.000000
# 2 -0.004412 0.010921 -0.002305 0.000000 0.004882 0.000000
# 3 -0.002803 -0.002305 0.011163 0.000000 -0.001322 0.000000
# 4 0.000000 0.000000 0.000000 0.173771 0.000000 -0.007691
# 5 0.009538 0.004882 -0.001322 0.000000 0.076234 0.000000
# 6 0.000000 0.000000 0.000000 -0.007691 0.000000 0.025125
#
#
# Mechanical properties :
#
#
# Convention : Reuss Voigt Hill
#
# Bulk Modulus (GPa) = 54.78363 64.04872 59.41617
# Shear Modulus (GPa) = 14.81269 26.06107 20.43688
#
# Velocity S-wave (km/s) = 2.53165 3.35802 2.97368
# Velocity P-wave (km/s) = 5.67890 6.53821 6.12364
#
# Compressibility (1/GPa) = 0.01825363
#
# Stress axis : x y z
#
# Youngs Moduli (GPa) = 65.74934 91.56363 89.58188
#
# Poissons Ratio (x) = 0.40395 0.25109
# Poissons Ratio (y) = 0.29006 0.20653
# Poissons Ratio (z) = 0.18429 0.21110
#
# Static dielectric constant tensor:
#      x y z
#    x 1.840960 0.000000 0.049830 
#    y 0.000000 1.986320 0.000000 
#    z 0.049830 0.000000 1.953380 
# 
# From -- ./inp_files/87566.got.cif
#   From: 2010.05.17/outbox.cif.g08.bks.cpg/sg15_44_cif.got.tgz:87566.got - 2010.06.03 18:47:42.
