data_PCOD9292036
_publ_section_title
;
Structure prediction by ZEFSAII (Michael W. Deem and Ramdas Pophale) SiO2 
 PCOD9292036
Probable space group: C 2/C
;
_chemical_formula_sum "Si O2"
_cell_formula_units_Z 40
_cell_length_a 8.071477
_cell_length_b 21.689796
_cell_length_c 17.901233
_cell_angle_alpha 90.000000
_cell_angle_beta 36.598316
_cell_angle_gamma 90.000000
_cell_volume 1868.462257
_symmetry_space_group_name_H-M "C 2/C"
_symmetry_group_IT_number 15
_symmetry_cell_setting 'monoclinic'
loop_
_space_group_symop_operation_xyz
x,y,z
-x,y,1/2-z
-x,-y,-z
x,-y,1/2+z
1/2+x,1/2+y,z
1/2-x,1/2+y,1/2-z
1/2-x,1/2-y,-z
1/2+x,1/2-y,1/2+z
loop_
_atom_site_type_symbol
_atom_site_label
_atom_site_fract_x
_atom_site_fract_y
_atom_site_fract_z
Si Si1 0.806814 0.069411 0.670739
Si Si2 0.020739 0.310347 0.020675
Si Si3 0.500000 0.378792 0.750000
Si Si4 0.500000 0.614396 0.750000
Si Si5 0.393829 0.328287 0.024276
Si Si6 0.308503 0.436673 0.671433
O O1 0.500000 0.061132 0.750000
O O2 0.832787 0.075676 0.749607
O O3 0.880691 0.134657 0.606274
O O4 0.949721 0.003103 0.602837
O O5 0.266024 0.338402 0.879156
O O6 0.976023 0.239036 0.016205
O O7 0.120654 0.315061 0.071874
O O8 0.732970 0.346640 0.122132
O O9 0.339038 0.420875 0.747855
O O10 0.551683 0.378609 0.918132
O O11 0.000000 0.437355 0.750000
#
# Coordination Sequence:
#
# PCOD9292036 Si02
#       6
#     8   8   4   4   8   8
#     4  11  23  42  64  93 134 168 213 275 317 377
#     4  10  24  42  71  95 132 169 216 262 332 374
#     4  10  23  46  64  94 133 170 208 278 314 384
#     4  12  25  42  68 102 121 176 218 260 324 392
#     4  10  22  43  65  94 133 170 212 273 317 384
#     4  10  23  41  65  94 125 176 219 259 323 387
#
# _framework density 21.407979000000001
#
# number of rings (size 3 to 8) (size 9 to 14) (size 15 to 20)
#    0.000    1.600    2.000    1.200    5.600    2.400 
#    0.000    3.000    0.000    0.000    0.000    0.000 
#    0.000    0.000    0.000    0.000    0.000    0.000 
#
# Total GULP energy -111387.965305 kJ/mol
# GULP energy per Si atom -5569.398265 kJ/mol
# Density = 2.135925 g / cm^3
# Si number density = 21.407979 Si / 1000 Ang^3
#
#
#
# Elastic Constant Matrix: (Units=GPa)
#
#
# Indices 1 2 3 4 5 6 
#
# 1 122.7573 41.3041 18.2346 -0.0008 26.7490 -0.0001
# 2 41.3041 176.6418 39.8361 0.0005 8.3916 0.0002
# 3 18.2346 39.8361 62.5384 0.0001 8.1452 0.0002
# 4 -0.0008 0.0005 0.0001 24.9936 0.0007 10.5789
# 5 26.7490 8.3916 8.1452 0.0007 34.7028 0.0001
# 6 -0.0001 0.0002 0.0002 10.5789 0.0001 20.3873
#
#
#
# Elastic Compliance Matrix: (Units=1/GPa)
#
#
# Indices 1 2 3 4 5 6 
#
# 1 0.010546 -0.001912 -0.000886 0.000001 -0.007459 0.000000
# 2 -0.001912 0.006971 -0.003977 0.000000 0.000722 0.000000
# 3 -0.000886 -0.003977 0.019153 0.000000 -0.002851 0.000000
# 4 0.000001 0.000000 0.000000 0.051271 -0.000001 -0.026604
# 5 -0.007459 0.000722 -0.002851 -0.000001 0.035060 0.000001
# 6 0.000000 0.000000 0.000000 -0.026604 0.000001 0.062855
#
#
# Mechanical properties :
#
#
# Convention : Reuss Voigt Hill
#
# Bulk Modulus (GPa) = 43.25031 62.29855 52.77443
# Shear Modulus (GPa) = 24.14154 33.52092 28.83123
#
# Velocity S-wave (km/s) = 3.36175 3.96133 3.67379
# Velocity P-wave (km/s) = 5.94266 7.07719 6.53460
#
# Compressibility (1/GPa) = 0.02312122
#
# Stress axis : x y z
#
# Youngs Moduli (GPa) = 94.81955 143.45517 52.21133
#
# Poissons Ratio (x) = 0.27428 0.04624
# Poissons Ratio (y) = 0.18129 0.20763
# Poissons Ratio (z) = 0.08398 0.57049
#
# Static dielectric constant tensor:
#      x y z
#    x 1.899910 0.000000 -0.021320 
#    y 0.000000 1.814310 0.000000 
#    z -0.021320 0.000000 1.775610 
# 
# From -- ./inp_files/77671.got.cif
#   From: 2010.05.17/outbox.cif.g08.bks.cpg/sg15_39_cif.got.tgz:77671.got - 2010.06.03 18:47:42.
