data_PCOD9292476
_publ_section_title
;
Structure prediction by ZEFSAII (Michael W. Deem and Ramdas Pophale) SiO2 
 PCOD9292476
Probable space group: C 2/C
;
_chemical_formula_sum "Si O2"
_cell_formula_units_Z 32
_cell_length_a 24.852485
_cell_length_b 7.613321
_cell_length_c 17.132288
_cell_angle_alpha 90.000000
_cell_angle_beta 23.580614
_cell_angle_gamma 90.000000
_cell_volume 1296.766003
_symmetry_space_group_name_H-M "C 2/C"
_symmetry_group_IT_number 15
_symmetry_cell_setting 'monoclinic'
loop_
_space_group_symop_operation_xyz
x,y,z
-x,y,1/2-z
-x,-y,-z
x,-y,1/2+z
1/2+x,1/2+y,z
1/2-x,1/2+y,1/2-z
1/2-x,1/2-y,-z
1/2+x,1/2-y,1/2+z
loop_
_atom_site_type_symbol
_atom_site_label
_atom_site_fract_x
_atom_site_fract_y
_atom_site_fract_z
Si Si1 0.352111 0.640777 0.312082
Si Si2 0.367723 0.103499 0.473976
Si Si3 0.363912 0.212520 0.647471
Si Si4 0.115147 0.986319 0.009098
O O1 0.250000 0.750000 0.500000
O O2 0.260214 0.498557 0.388972
O O3 0.431935 0.757071 0.140770
O O4 0.463772 0.551433 0.217170
O O5 0.500000 0.051585 0.250000
O O6 0.397556 0.089531 0.527942
O O7 0.344985 0.314527 0.493789
O O8 0.375456 0.398630 0.589499
O O9 0.219259 0.144605 0.869293
#
# Coordination Sequence:
#
# PCOD9292476 Si02
#       4
#     8   8   8   8
#     4  12  27  44  75 107 141 193 243 291 361 428
#     4  10  24  45  69 102 146 182 242 295 355 418
#     4  10  22  43  72  98 144 187 227 301 353 414
#     4  10  24  47  70 101 148 179 244 289 361 425
#
# _framework density 24.676772
#
# number of rings (size 3 to 8) (size 9 to 14) (size 15 to 20)
#    1.500    0.000    2.500    0.750    7.000    1.000 
#    0.000    3.750    0.000    0.000    0.000    0.000 
#    0.000    0.000    0.000    0.000    0.000    0.000 
#
# Total GULP energy -89174.083667 kJ/mol
# GULP energy per Si atom -5573.380229 kJ/mol
# Density = 2.462061 g / cm^3
# Si number density = 24.676772 Si / 1000 Ang^3
#
#
#
# Elastic Constant Matrix: (Units=GPa)
#
#
# Indices 1 2 3 4 5 6 
#
# 1 142.4030 47.5275 24.4186 -0.0001 15.5435 0.0000
# 2 47.5275 102.3795 55.2488 -0.0017 -18.7293 0.0005
# 3 24.4186 55.2488 80.2138 -0.0020 2.4241 0.0004
# 4 -0.0001 -0.0017 -0.0020 38.1474 -0.0001 -6.1842
# 5 15.5435 -18.7293 2.4241 -0.0001 32.6597 0.0001
# 6 0.0000 0.0005 0.0004 -6.1842 0.0001 40.0777
#
#
#
# Elastic Compliance Matrix: (Units=1/GPa)
#
#
# Indices 1 2 3 4 5 6 
#
# 1 0.010283 -0.007974 0.002654 0.000000 -0.009664 0.000000
# 2 -0.007974 0.025579 -0.015784 0.000000 0.019635 0.000000
# 3 0.002654 -0.015784 0.022894 0.000001 -0.012014 0.000000
# 4 0.000000 0.000000 0.000001 0.026887 0.000000 0.004149
# 5 -0.009664 0.019635 -0.012014 0.000000 0.047370 0.000000
# 6 0.000000 0.000000 0.000000 0.004149 0.000000 0.025592
#
#
# Mechanical properties :
#
#
# Convention : Reuss Voigt Hill
#
# Bulk Modulus (GPa) = 60.43175 64.37623 62.40399
# Shear Modulus (GPa) = 24.23310 35.36370 29.79840
#
# Velocity S-wave (km/s) = 3.13712 3.78971 3.47875
# Velocity P-wave (km/s) = 6.13714 6.73005 6.44042
#
# Compressibility (1/GPa) = 0.01654759
#
# Stress axis : x y z
#
# Youngs Moduli (GPa) = 97.24427 39.09412 43.68028
#
# Poissons Ratio (x) = 0.31173 -0.11591
# Poissons Ratio (y) = 0.77541 0.68946
# Poissons Ratio (z) = -0.25806 0.61707
#
# Static dielectric constant tensor:
#      x y z
#    x 1.975300 0.000000 0.059370 
#    y 0.000000 1.980270 0.000000 
#    z 0.059370 0.000000 1.930730 
# 
# From -- ./inp_files/116086.got.cif
#   From: 2010.05.17/outbox.cif.g08.bks.cpg/sg15_59_cif.got.tgz:116086.got - 2010.06.03 18:47:42.
