data_PCOD9292537
_publ_section_title
;
Structure prediction by ZEFSAII (Michael W. Deem and Ramdas Pophale) SiO2 
 PCOD9292537
Probable space group: C 2/C
;
_chemical_formula_sum "Si O2"
_cell_formula_units_Z 48
_cell_length_a 13.537644
_cell_length_b 9.509280
_cell_length_c 27.091228
_cell_angle_alpha 90.000000
_cell_angle_beta 34.195390
_cell_angle_gamma 90.000000
_cell_volume 1960.057159
_symmetry_space_group_name_H-M "C 2/C"
_symmetry_group_IT_number 15
_symmetry_cell_setting 'monoclinic'
loop_
_space_group_symop_operation_xyz
x,y,z
-x,y,1/2-z
-x,-y,-z
x,-y,1/2+z
1/2+x,1/2+y,z
1/2-x,1/2+y,1/2-z
1/2-x,1/2-y,-z
1/2+x,1/2-y,1/2+z
loop_
_atom_site_type_symbol
_atom_site_label
_atom_site_fract_x
_atom_site_fract_y
_atom_site_fract_z
Si Si1 0.309241 0.158295 0.711307
Si Si2 0.532621 0.496751 0.682390
Si Si3 0.842531 0.824667 0.127974
Si Si4 0.030370 0.882312 0.581644
Si Si5 0.152290 0.448996 0.117752
Si Si6 0.214842 0.742502 0.954661
O O1 0.149078 0.074535 0.755031
O O2 0.226935 0.241381 0.792497
O O3 0.398100 0.253377 0.632788
O O4 0.459479 0.064213 0.674817
O O5 0.500000 0.438750 0.750000
O O6 0.567816 0.387106 0.624570
O O7 0.685286 0.612862 0.611505
O O8 0.693391 0.868008 0.151251
O O9 0.933556 0.973448 0.106075
O O10 0.003439 0.739452 0.037442
O O11 0.208669 0.882881 0.478159
O O12 0.208260 0.612347 0.098985
O O13 0.250000 0.750000 0.000000
#
# Coordination Sequence:
#
# PCOD9292537 Si02
#       6
#     8   8   8   8   8   8
#     4  11  24  40  63  92 130 162 208 265 309 369
#     4  11  26  40  63  93 124 169 211 253 312 376
#     4  10  23  40  66  98 120 163 217 259 313 371
#     4  10  22  44  59  92 132 159 203 267 312 372
#     4  11  23  40  69  95 121 166 212 258 323 367
#     4  11  20  42  66  92 127 162 208 264 307 367
#
# _framework density 24.489080999999999
#
# number of rings (size 3 to 8) (size 9 to 14) (size 15 to 20)
#    0.000    1.333    5.000    3.000    9.333    1.333 
#    0.000    0.833    0.000    0.000    0.000    0.000 
#    0.000    0.000    0.000    0.000    0.000    0.000 
#
# Total GULP energy -134386.856413 kJ/mol
# GULP energy per Si atom -5599.452351 kJ/mol
# Density = 2.443334 g / cm^3
# Si number density = 24.489081 Si / 1000 Ang^3
#
#
#
# Elastic Constant Matrix: (Units=GPa)
#
#
# Indices 1 2 3 4 5 6 
#
# 1 79.4785 -3.2976 18.5844 0.0000 7.6762 -0.0001
# 2 -3.2976 51.9429 16.4854 0.0000 -7.0347 -0.0001
# 3 18.5844 16.4854 107.7819 0.0000 -9.9578 0.0000
# 4 0.0000 0.0000 0.0000 29.6256 0.0000 -3.5069
# 5 7.6762 -7.0347 -9.9578 0.0000 49.8820 0.0000
# 6 -0.0001 -0.0001 0.0000 -3.5069 0.0000 22.0555
#
#
#
# Elastic Compliance Matrix: (Units=1/GPa)
#
#
# Indices 1 2 3 4 5 6 
#
# 1 0.013524 0.001409 -0.002772 0.000000 -0.002436 0.000000
# 2 0.001409 0.020638 -0.003210 0.000000 0.002053 0.000000
# 3 -0.002772 -0.003210 0.010437 0.000000 0.002057 0.000000
# 4 0.000000 0.000000 0.000000 0.034402 0.000000 0.005470
# 5 -0.002436 0.002053 0.002057 0.000000 0.021122 0.000000
# 6 0.000000 0.000000 0.000000 0.005470 0.000000 0.046210
#
#
# Mechanical properties :
#
#
# Convention : Reuss Voigt Hill
#
# Bulk Modulus (GPa) = 28.20729 33.63864 30.92296
# Shear Modulus (GPa) = 29.88674 34.14135 32.01404
#
# Velocity S-wave (km/s) = 3.49723 3.73788 3.61955
# Velocity P-wave (km/s) = 5.27738 5.69166 5.48843
#
# Compressibility (1/GPa) = 0.03545183
#
# Stress axis : x y z
#
# Youngs Moduli (GPa) = 73.94260 48.45411 95.81240
#
# Poissons Ratio (x) = -0.06825 0.26563
# Poissons Ratio (y) = -0.10415 0.30754
# Poissons Ratio (z) = 0.20500 0.15553
#
# Static dielectric constant tensor:
#      x y z
#    x 1.976310 0.000000 0.019560 
#    y 0.000000 1.989500 0.000000 
#    z 0.019560 0.000000 1.936140 
# 
# From -- ./inp_files/237422.got.cif
#   From: 2010.05.17/outbox.cif.g08.bks.cpg/sg15_119_cif.got.tgz:237422.got - 2010.06.03 18:47:42.
