data_PCOD9292516
_publ_section_title
;
Structure prediction by ZEFSAII (Michael W. Deem and Ramdas Pophale) SiO2 
 PCOD9292516
Probable space group: C 2/C
;
_chemical_formula_sum "Si O2"
_cell_formula_units_Z 52
_cell_length_a 8.584079
_cell_length_b 23.679162
_cell_length_c 10.238160
_cell_angle_alpha 90.000000
_cell_angle_beta 85.664249
_cell_angle_gamma 90.000000
_cell_volume 2075.091643
_symmetry_space_group_name_H-M "C 2/C"
_symmetry_group_IT_number 15
_symmetry_cell_setting 'monoclinic'
loop_
_space_group_symop_operation_xyz
x,y,z
-x,y,1/2-z
-x,-y,-z
x,-y,1/2+z
1/2+x,1/2+y,z
1/2-x,1/2+y,1/2-z
1/2-x,1/2-y,-z
1/2+x,1/2-y,1/2+z
loop_
_atom_site_type_symbol
_atom_site_label
_atom_site_fract_x
_atom_site_fract_y
_atom_site_fract_z
Si Si1 0.500000 0.952683 0.250000
Si Si2 0.254103 0.818012 0.680793
Si Si3 0.500000 0.742936 0.750000
Si Si4 0.000000 0.268396 0.250000
Si Si5 0.445562 0.362696 0.106545
Si Si6 0.700237 0.398290 0.896222
Si Si7 0.658480 0.519705 0.827702
Si Si8 0.991486 0.641946 0.536686
O O1 0.479064 0.911544 0.373901
O O2 0.669619 0.982685 0.254033
O O3 0.358753 0.785649 0.784374
O O4 0.116989 0.773761 0.669675
O O5 0.194994 0.875903 0.748857
O O6 0.924206 0.864609 0.510576
O O7 0.575415 0.703936 0.859403
O O8 0.930527 0.310110 0.142903
O O9 0.500000 0.376492 0.250000
O O10 0.346516 0.420091 0.095529
O O11 0.140993 0.333113 0.950761
O O12 0.663856 0.463949 0.915370
O O13 0.867558 0.382140 0.942969
O O14 0.500000 0.513002 0.750000
#
# Coordination Sequence:
#
# PCOD9292516 Si02
#       8
#     4   8   4   4   8   8   8   8
#     4  11  28  49  80 106 155 208 247 320 386 462
#     4  12  26  45  71 113 150 199 250 320 380 458
#     4  10  22  43  75 101 149 196 248 304 372 456
#     4  11  28  42  73 103 154 204 247 310 378 466
#     4   9  22  42  72 108 142 192 250 304 370 453
#     4  12  25  46  79 109 151 198 253 326 387 450
#     4  11  26  51  78 113 150 199 265 320 388 461
#     4  11  25  49  71 110 152 198 258 307 388 464
#
# _framework density 25.059132999999999
#
# number of rings (size 3 to 8) (size 9 to 14) (size 15 to 20)
#    0.462    0.615    1.538    3.692    9.692    3.077 
#    5.538    0.000    0.000    0.000    0.000    0.000 
#    0.000    0.000    0.000    0.000    0.000    0.000 
#
# Total GULP energy -144896.236699 kJ/mol
# GULP energy per Si atom -5572.932181 kJ/mol
# Density = 2.500210 g / cm^3
# Si number density = 25.059133 Si / 1000 Ang^3
#
#
#
# Elastic Constant Matrix: (Units=GPa)
#
#
# Indices 1 2 3 4 5 6 
#
# 1 112.4697 11.3024 23.8315 0.0000 0.4812 0.0000
# 2 11.3024 90.5687 31.5676 0.0000 16.9961 0.0000
# 3 23.8315 31.5676 76.2706 0.0000 -3.1440 0.0000
# 4 0.0000 0.0000 0.0000 0.0576 0.0000 2.9056
# 5 0.4812 16.9961 -3.1440 0.0000 42.1121 0.0000
# 6 0.0000 0.0000 0.0000 2.9056 0.0000 37.2387
#
#
#
# Elastic Compliance Matrix: (Units=1/GPa)
#
#
# Indices 1 2 3 4 5 6 
#
# 1 0.009527 -0.000110 -0.002943 0.000000 -0.000284 0.000000
# 2 -0.000110 0.014384 -0.006177 0.000000 -0.006265 0.000000
# 3 -0.002943 -0.006177 0.016743 0.000000 0.003777 0.000000
# 4 0.000000 0.000000 0.000000 -5.914423 0.000000 0.461488
# 5 -0.000284 -0.006265 0.003777 0.000000 0.026560 0.000000
# 6 0.000000 0.000000 0.000000 0.461488 0.000000 -0.009155
#
#
# Mechanical properties :
#
#
# Convention : Reuss Voigt Hill
#
# Bulk Modulus (GPa) = 45.05751 45.85688 45.45719
# Shear Modulus (GPa) = -0.85756 30.05551 14.59897
#
# Velocity S-wave (km/s) = -0.58563 3.46697 2.41629
# Velocity P-wave (km/s) = 4.19073 5.86223 5.09548
#
# Compressibility (1/GPa) = 0.02219386
#
# Stress axis : x y z
#
# Youngs Moduli (GPa) = 104.96312 69.52237 59.72565
#
# Poissons Ratio (x) = 0.00763 0.17578
# Poissons Ratio (y) = 0.01152 0.36894
# Poissons Ratio (z) = 0.30892 0.42946
#
# Static dielectric constant tensor:
#      x y z
#    x 2.055830 0.000000 0.107920 
#    y 0.000000 1.981100 0.000000 
#    z 0.107920 0.000000 2.012390 
# 
# From -- ./inp_files/137546.got.cif
#   From: 2010.05.17/outbox.cif.g08.bks.cpg/sg15_69_cif.got.tgz:137546.got - 2010.06.03 18:47:42.
