data_PCOD9292662
_publ_section_title
;
Structure prediction by ZEFSAII (Michael W. Deem and Ramdas Pophale) SiO2 
 PCOD9292662
Probable space group: C 2/C
;
_chemical_formula_sum "Si O2"
_cell_formula_units_Z 40
_cell_length_a 23.440048
_cell_length_b 6.292669
_cell_length_c 25.625101
_cell_angle_alpha 90.000000
_cell_angle_beta 152.678576
_cell_angle_gamma 90.000000
_cell_volume 1734.820036
_symmetry_space_group_name_H-M "C 2/C"
_symmetry_group_IT_number 15
_symmetry_cell_setting 'monoclinic'
loop_
_space_group_symop_operation_xyz
x,y,z
-x,y,1/2-z
-x,-y,-z
x,-y,1/2+z
1/2+x,1/2+y,z
1/2-x,1/2+y,1/2-z
1/2-x,1/2-y,-z
1/2+x,1/2-y,1/2+z
loop_
_atom_site_type_symbol
_atom_site_label
_atom_site_fract_x
_atom_site_fract_y
_atom_site_fract_z
Si Si1 0.986980 0.965573 0.316622
Si Si2 0.136220 0.103040 0.105526
Si Si3 0.301483 0.574156 0.581480
Si Si4 0.348450 0.203180 0.773219
Si Si5 0.578350 0.099541 0.467897
O O1 0.895135 0.840803 0.202446
O O2 0.103613 0.056142 0.378077
O O3 0.034335 0.807078 0.399594
O O4 0.905338 0.148590 0.275331
O O5 0.184291 0.161900 0.202084
O O6 0.230869 0.931228 0.159305
O O7 0.131136 0.309276 0.064743
O O8 0.000000 0.000000 0.000000
O O9 0.250000 0.750000 0.500000
O O10 0.183728 0.489220 0.517800
O O11 0.460515 0.047644 0.880814
#
# Coordination Sequence:
#
# PCOD9292662 Si02
#       5
#     8   8   8   8   8
#     4  10  22  44  66 106 139 180 237 286 355 435
#     4  12  26  45  68 103 142 189 241 292 363 418
#     4   9  21  41  72  99 140 181 229 291 356 414
#     4  12  27  43  70 102 139 186 240 297 351 435
#     4  11  23  44  70  99 140 186 232 296 358 420
#
# _framework density 23.057148999999999
#
# number of rings (size 3 to 8) (size 9 to 14) (size 15 to 20)
#    0.000    1.200    2.000    3.000    5.600    0.800 
#    0.000   18.000    0.000    0.000    0.000    0.000 
#    0.000    0.000    0.000    0.000    0.000    0.000 
#
# Total GULP energy -111825.326134 kJ/mol
# GULP energy per Si atom -5591.266307 kJ/mol
# Density = 2.300467 g / cm^3
# Si number density = 23.057149 Si / 1000 Ang^3
#
#
#
# Elastic Constant Matrix: (Units=GPa)
#
#
# Indices 1 2 3 4 5 6 
#
# 1 130.0895 37.0052 37.3082 0.0000 20.3916 0.0000
# 2 37.0052 50.3636 25.3735 0.0001 14.6274 0.0027
# 3 37.3082 25.3735 95.0535 -0.0001 9.9663 0.0001
# 4 0.0000 0.0001 -0.0001 41.9586 -0.0004 5.4258
# 5 20.3916 14.6274 9.9663 -0.0004 40.1755 -0.0003
# 6 0.0000 0.0027 0.0001 5.4258 -0.0003 33.6710
#
#
#
# Elastic Compliance Matrix: (Units=1/GPa)
#
#
# Indices 1 2 3 4 5 6 
#
# 1 0.010376 -0.005718 -0.002271 0.000000 -0.002621 0.000000
# 2 -0.005718 0.028195 -0.004630 0.000000 -0.006214 -0.000002
# 3 -0.002271 -0.004630 0.012680 0.000000 -0.000307 0.000000
# 4 0.000000 0.000000 0.000000 0.024340 0.000000 -0.003922
# 5 -0.002621 -0.006214 -0.000307 0.000000 0.028560 0.000001
# 6 0.000000 -0.000002 0.000000 -0.003922 0.000001 0.030331
#
#
# Mechanical properties :
#
#
# Convention : Reuss Voigt Hill
#
# Bulk Modulus (GPa) = 38.44525 52.76451 45.60488
# Shear Modulus (GPa) = 29.69263 34.88234 32.28748
#
# Velocity S-wave (km/s) = 3.59246 3.89378 3.74615
# Velocity P-wave (km/s) = 5.82390 6.56881 6.20754
#
# Compressibility (1/GPa) = 0.02601102
#
# Stress axis : x y z
#
# Youngs Moduli (GPa) = 96.37770 35.46747 78.86411
#
# Poissons Ratio (x) = 0.20281 0.17912
# Poissons Ratio (y) = 0.55111 0.36517
# Poissons Ratio (z) = 0.21890 0.16423
#
# Static dielectric constant tensor:
#      x y z
#    x 1.881590 0.000000 0.021700 
#    y 0.000000 2.030780 0.000000 
#    z 0.021700 0.000000 1.857530 
# 
# From -- ./inp_files/301794.got.cif
#   From: 2010.05.17/outbox.cif.g08.bks.cpg/sg15_151_cif.got.tgz:301794.got - 2010.06.03 18:47:42.
