data_PCOD9292457
_publ_section_title
;
Structure prediction by ZEFSAII (Michael W. Deem and Ramdas Pophale) SiO2 
 PCOD9292457
Probable space group: C 2/C
;
_chemical_formula_sum "Si O2"
_cell_formula_units_Z 24
_cell_length_a 13.713415
_cell_length_b 6.382634
_cell_length_c 13.582850
_cell_angle_alpha 90.000000
_cell_angle_beta 124.797387
_cell_angle_gamma 90.000000
_cell_volume 976.275316
_symmetry_space_group_name_H-M "C 2/C"
_symmetry_group_IT_number 15
_symmetry_cell_setting 'monoclinic'
loop_
_space_group_symop_operation_xyz
x,y,z
-x,y,1/2-z
-x,-y,-z
x,-y,1/2+z
1/2+x,1/2+y,z
1/2-x,1/2+y,1/2-z
1/2-x,1/2-y,-z
1/2+x,1/2-y,1/2+z
loop_
_atom_site_type_symbol
_atom_site_label
_atom_site_fract_x
_atom_site_fract_y
_atom_site_fract_z
Si Si1 0.189930 0.620033 0.052292
Si Si2 0.777651 0.267054 0.715470
Si Si3 0.552582 0.854338 0.183418
O O1 0.174807 0.753741 0.144202
O O2 0.269184 0.421946 0.133214
O O3 0.250000 0.750000 0.000000
O O4 0.060074 0.560059 0.939852
O O5 0.861366 0.456558 0.730145
O O6 0.636777 0.284848 0.662369
O O7 0.500000 0.744635 0.250000
#
# Coordination Sequence:
#
# PCOD9292457 Si02
#       3
#     8   8   8
#     4  11  23  47  74 106 147 191 240 301 360 433
#     4  10  22  43  72 106 140 189 238 293 362 423
#     4  11  23  46  71 105 148 186 243 297 360 435
#
# _framework density 24.58323
#
# number of rings (size 3 to 8) (size 9 to 14) (size 15 to 20)
#    0.000    1.333    3.333    4.000    0.000    1.333 
#   12.000   13.333    0.000    0.000    0.000    0.000 
#    0.000    0.000    0.000    0.000    0.000    0.000 
#
# Total GULP energy -66804.098959 kJ/mol
# GULP energy per Si atom -5567.008247 kJ/mol
# Density = 2.452728 g / cm^3
# Si number density = 24.583230 Si / 1000 Ang^3
#
#
#
# Elastic Constant Matrix: (Units=GPa)
#
#
# Indices 1 2 3 4 5 6 
#
# 1 142.6239 27.2755 25.1708 0.0000 -1.7144 0.0000
# 2 27.2755 89.5408 45.6784 0.0000 33.2476 0.0000
# 3 25.1708 45.6784 139.7192 0.0000 30.6422 0.0000
# 4 0.0000 0.0000 0.0000 58.9363 0.0000 -4.4554
# 5 -1.7144 33.2476 30.6422 0.0000 47.8874 0.0000
# 6 0.0000 0.0000 0.0000 -4.4554 0.0000 37.4854
#
#
#
# Elastic Compliance Matrix: (Units=1/GPa)
#
#
# Indices 1 2 3 4 5 6 
#
# 1 0.007805 -0.002935 -0.001111 0.000000 0.003028 0.000000
# 2 -0.002935 0.017364 -0.002886 0.000000 -0.010314 0.000000
# 3 -0.001111 -0.002886 0.009155 0.000000 -0.003894 0.000000
# 4 0.000000 0.000000 0.000000 0.017121 0.000000 0.002035
# 5 0.003028 -0.010314 -0.003894 0.000000 0.030643 0.000000
# 6 0.000000 0.000000 0.000000 0.002035 0.000000 0.026919
#
#
# Mechanical properties :
#
#
# Convention : Reuss Voigt Hill
#
# Bulk Modulus (GPa) = 48.87509 63.12592 56.00051
# Shear Modulus (GPa) = 38.55283 47.11244 42.83263
#
# Velocity S-wave (km/s) = 3.96442 4.38247 4.17868
# Velocity P-wave (km/s) = 6.39376 7.16535 6.79052
#
# Compressibility (1/GPa) = 0.02046032
#
# Stress axis : x y z
#
# Youngs Moduli (GPa) = 128.11950 57.58926 109.23207
#
# Poissons Ratio (x) = 0.16905 0.12131
# Poissons Ratio (y) = 0.37608 0.31525
# Poissons Ratio (z) = 0.14228 0.16621
#
# Static dielectric constant tensor:
#      x y z
#    x 1.993760 0.000000 0.005110 
#    y 0.000000 2.128830 0.000000 
#    z 0.005110 0.000000 1.971050 
# 
# From -- ./inp_files/92911.got.cif
#   From: 2010.05.17/outbox.cif.g08.bks.cpg/sg15_47_cif.got.tgz:92911.got - 2010.06.03 18:47:42.
