data_PCOD9292399
_publ_section_title
;
Structure prediction by ZEFSAII (Michael W. Deem and Ramdas Pophale) SiO2 
 PCOD9292399
Probable space group: C 2/C
;
_chemical_formula_sum "Si O2"
_cell_formula_units_Z 44
_cell_length_a 7.813122
_cell_length_b 18.071096
_cell_length_c 14.788559
_cell_angle_alpha 90.000000
_cell_angle_beta 73.977419
_cell_angle_gamma 90.000000
_cell_volume 2006.908064
_symmetry_space_group_name_H-M "C 2/C"
_symmetry_group_IT_number 15
_symmetry_cell_setting 'monoclinic'
loop_
_space_group_symop_operation_xyz
x,y,z
-x,y,1/2-z
-x,-y,-z
x,-y,1/2+z
1/2+x,1/2+y,z
1/2-x,1/2+y,1/2-z
1/2-x,1/2-y,-z
1/2+x,1/2-y,1/2+z
loop_
_atom_site_type_symbol
_atom_site_label
_atom_site_fract_x
_atom_site_fract_y
_atom_site_fract_z
Si Si1 0.872369 0.273377 0.182628
Si Si2 0.062763 0.413124 0.085486
Si Si3 0.782959 0.887716 0.676989
Si Si4 0.500000 0.645119 0.750000
Si Si5 0.433933 0.466180 0.105621
Si Si6 0.434956 0.067215 0.125500
O O1 0.860742 0.191667 0.143160
O O2 0.675068 0.303677 0.234169
O O3 0.000000 0.267087 0.250000
O O4 0.968969 0.335135 0.109226
O O5 0.245676 0.425856 0.112281
O O6 0.934026 0.478617 0.141154
O O7 0.102091 0.423860 0.974058
O O8 0.687513 0.887500 0.788479
O O9 0.634805 0.908475 0.623479
O O10 0.911940 0.957351 0.662621
O O11 0.470353 0.592783 0.842911
O O12 0.500000 0.500000 0.000000
#
# Coordination Sequence:
#
# PCOD9292399 Si02
#       6
#     8   8   8   4   8   8
#     4  12  26  46  66 104 139 182 223 287 351 408
#     4  10  22  43  71 101 137 176 237 285 342 410
#     4  10  23  43  67  99 139 177 228 278 353 407
#     4  12  26  46  74  96 144 180 232 286 340 418
#     4  11  26  44  69 106 134 184 236 284 339 416
#     4   9  20  41  73  97 127 185 230 282 338 418
#
# _framework density 21.924272999999999
#
# number of rings (size 3 to 8) (size 9 to 14) (size 15 to 20)
#    0.000    1.455    1.818    2.182   14.000    0.727 
#    3.273    1.818    0.000    0.000    0.000    0.000 
#    0.000    0.000    0.000    0.000    0.000    0.000 
#
# Total GULP energy -122886.088914 kJ/mol
# GULP energy per Si atom -5585.731314 kJ/mol
# Density = 2.187437 g / cm^3
# Si number density = 21.924273 Si / 1000 Ang^3
#
#
#
# Elastic Constant Matrix: (Units=GPa)
#
#
# Indices 1 2 3 4 5 6 
#
# 1 88.6896 46.4103 13.2167 0.0000 10.8436 0.0000
# 2 46.4103 137.4557 11.4270 0.0000 8.5129 0.0000
# 3 13.2167 11.4270 37.9807 0.0000 16.5423 0.0000
# 4 0.0000 0.0000 0.0000 10.4415 0.0000 0.2084
# 5 10.8436 8.5129 16.5423 0.0000 29.4559 0.0000
# 6 0.0000 0.0000 0.0000 0.2084 0.0000 28.7484
#
#
#
# Elastic Compliance Matrix: (Units=1/GPa)
#
#
# Indices 1 2 3 4 5 6 
#
# 1 0.014297 -0.004459 -0.002518 0.000000 -0.002560 0.000000
# 2 -0.004459 0.008884 -0.000950 0.000000 -0.000392 0.000000
# 3 -0.002518 -0.000950 0.035700 0.000000 -0.018847 0.000000
# 4 0.000000 0.000000 0.000000 0.095786 0.000000 -0.000694
# 5 -0.002560 -0.000392 -0.018847 0.000000 0.045590 0.000000
# 6 0.000000 0.000000 0.000000 -0.000694 0.000000 0.034790
#
#
# Mechanical properties :
#
#
# Convention : Reuss Voigt Hill
#
# Bulk Modulus (GPa) = 23.24212 45.13710 34.18961
# Shear Modulus (GPa) = 18.85056 26.60063 22.72559
#
# Velocity S-wave (km/s) = 2.93542 3.48702 3.22304
# Velocity P-wave (km/s) = 4.70245 6.06999 5.42945
#
# Compressibility (1/GPa) = 0.04302533
#
# Stress axis : x y z
#
# Youngs Moduli (GPa) = 69.94418 112.56188 28.01094
#
# Poissons Ratio (x) = 0.50195 0.07055
# Poissons Ratio (y) = 0.31190 0.02662
# Poissons Ratio (z) = 0.17615 0.10696
#
# Static dielectric constant tensor:
#      x y z
#    x 1.856000 0.000000 -0.016030 
#    y 0.000000 1.796570 0.000000 
#    z -0.016030 0.000000 1.846490 
# 
# From -- ./inp_files/134317.got.cif
#   From: 2010.05.17/outbox.cif.g08.bks.cpg/sg15_68_cif.got.tgz:134317.got - 2010.06.03 18:47:42.
