data_PCOD9292825
_publ_section_title
;
Structure prediction by ZEFSAII (Michael W. Deem and Ramdas Pophale) SiO2 
 PCOD9292825
Probable space group: C 2/C
;
_chemical_formula_sum "Si O2"
_cell_formula_units_Z 52
_cell_length_a 11.557215
_cell_length_b 8.674524
_cell_length_c 28.362040
_cell_angle_alpha 90.000000
_cell_angle_beta 117.771098
_cell_angle_gamma 90.000000
_cell_volume 2515.876619
_symmetry_space_group_name_H-M "C 2/C"
_symmetry_group_IT_number 15
_symmetry_cell_setting 'monoclinic'
loop_
_space_group_symop_operation_xyz
x,y,z
-x,y,1/2-z
-x,-y,-z
x,-y,1/2+z
1/2+x,1/2+y,z
1/2-x,1/2+y,1/2-z
1/2-x,1/2-y,-z
1/2+x,1/2-y,1/2+z
loop_
_atom_site_type_symbol
_atom_site_label
_atom_site_fract_x
_atom_site_fract_y
_atom_site_fract_z
Si Si1 0.062436 0.886906 0.080881
Si Si2 0.766488 0.883346 0.041569
Si Si3 0.884195 0.723864 0.311579
Si Si4 0.281396 0.898296 0.288825
Si Si5 0.884217 0.688864 0.503084
Si Si6 0.352850 0.727073 0.395090
Si Si7 0.500000 0.608845 0.750000
O O1 0.094243 0.778934 0.131423
O O2 0.912685 0.942523 0.059784
O O3 0.146395 0.043213 0.097527
O O4 0.081063 0.789649 0.036711
O O5 0.749739 0.806831 0.089302
O O6 0.750000 0.750000 0.000000
O O7 0.654932 0.012712 0.015700
O O8 0.754365 0.807143 0.265482
O O9 0.876956 0.541335 0.304655
O O10 0.991559 0.788138 0.295430
O O11 0.324510 0.777179 0.336522
O O12 0.139954 0.972091 0.276962
O O13 0.750000 0.750000 0.500000
O O14 0.005921 0.708363 0.561317
#
# Coordination Sequence:
#
# PCOD9292825 Si02
#       7
#     8   8   8   8   8   8   4
#     4  12  25  45  68  98 139 178 225 281 334 402
#     4  12  25  42  69  96 137 181 222 278 337 393
#     4  10  22  44  69  94 131 172 219 274 337 392
#     4  10  22  44  68  95 130 171 220 274 333 401
#     4  12  25  46  65 101 140 179 229 272 333 405
#     4  12  24  44  69  98 138 178 227 277 338 398
#     4   8  22  44  68  90 136 158 224 274 334 390
#
# _framework density 20.66874
#
# number of rings (size 3 to 8) (size 9 to 14) (size 15 to 20)
#    0.923    0.000    3.077    4.615    2.154    0.000 
#    2.769    0.769    0.000    0.000    0.000    0.000 
#    0.000    0.000    0.000    0.000    0.000    0.000 
#
# Total GULP energy -145114.803877 kJ/mol
# GULP energy per Si atom -5581.338611 kJ/mol
# Density = 2.062170 g / cm^3
# Si number density = 20.668740 Si / 1000 Ang^3
#
#
#
# Elastic Constant Matrix: (Units=GPa)
#
#
# Indices 1 2 3 4 5 6 
#
# 1 81.2507 -1.8105 12.3563 0.0000 -4.2693 0.0000
# 2 -1.8105 76.8640 -7.9199 0.0000 9.7680 0.0000
# 3 12.3563 -7.9199 92.1429 0.0000 13.0077 0.0000
# 4 0.0000 0.0000 0.0000 31.5217 0.0000 3.2966
# 5 -4.2693 9.7680 13.0077 0.0000 15.0174 0.0000
# 6 0.0000 0.0000 0.0000 3.2966 0.0000 20.5212
#
#
#
# Elastic Compliance Matrix: (Units=1/GPa)
#
#
# Indices 1 2 3 4 5 6 
#
# 1 0.013057 -0.000820 -0.002758 0.000000 0.006634 0.000000
# 2 -0.000820 0.014934 0.003187 0.000000 -0.012708 0.000000
# 3 -0.002758 0.003187 0.013558 0.000000 -0.014601 0.000000
# 4 0.000000 0.000000 0.000000 0.032266 0.000000 -0.005183
# 5 0.006634 -0.012708 -0.014601 0.000000 0.089388 0.000000
# 6 0.000000 0.000000 0.000000 -0.005183 0.000000 0.049563
#
#
# Mechanical properties :
#
#
# Convention : Reuss Voigt Hill
#
# Bulk Modulus (GPa) = 24.52863 28.38993 26.45928
# Shear Modulus (GPa) = 22.01323 29.92083 25.96703
#
# Velocity S-wave (km/s) = 3.26705 3.80891 3.54834
# Velocity P-wave (km/s) = 5.11124 5.75406 5.44215
#
# Compressibility (1/GPa) = 0.04076868
#
# Stress axis : x y z
#
# Youngs Moduli (GPa) = 76.58526 66.96112 73.75890
#
# Poissons Ratio (x) = 0.05489 0.20343
# Poissons Ratio (y) = 0.06278 -0.23510
# Poissons Ratio (z) = 0.21122 -0.21344
#
# Static dielectric constant tensor:
#      x y z
#    x 1.764460 0.000000 0.026180 
#    y 0.000000 1.745470 0.000000 
#    z 0.026180 0.000000 1.717130 
# 
# From -- ./inp_files/291127.got.cif
#   From: 2010.05.17/outbox.cif.g08.bks.cpg/sg15_146_cif.got.tgz:291127.got - 2010.06.03 18:47:42.
