data_PCOD9292365
_publ_section_title
;
Structure prediction by ZEFSAII (Michael W. Deem and Ramdas Pophale) SiO2 
 PCOD9292365
Probable space group: C 2/C
;
_chemical_formula_sum "Si O2"
_cell_formula_units_Z 44
_cell_length_a 12.625042
_cell_length_b 17.701773
_cell_length_c 8.974168
_cell_angle_alpha 90.000000
_cell_angle_beta 65.237759
_cell_angle_gamma 90.000000
_cell_volume 1821.190309
_symmetry_space_group_name_H-M "C 2/C"
_symmetry_group_IT_number 15
_symmetry_cell_setting 'monoclinic'
loop_
_space_group_symop_operation_xyz
x,y,z
-x,y,1/2-z
-x,-y,-z
x,-y,1/2+z
1/2+x,1/2+y,z
1/2-x,1/2+y,1/2-z
1/2-x,1/2-y,-z
1/2+x,1/2-y,1/2+z
loop_
_atom_site_type_symbol
_atom_site_label
_atom_site_fract_x
_atom_site_fract_y
_atom_site_fract_z
Si Si1 0.869850 0.619367 0.635680
Si Si2 0.000000 0.874611 0.250000
Si Si3 0.313657 0.078206 0.339608
Si Si4 0.351508 0.705193 0.084603
Si Si5 0.500000 0.624715 0.250000
Si Si6 0.000000 0.500000 0.000000
Si Si7 0.652595 0.446296 0.414252
O O1 0.853715 0.568280 0.489660
O O2 0.856450 0.705119 0.596228
O O3 0.993098 0.582690 0.595588
O O4 0.769488 0.600785 0.811262
O O5 0.068472 0.925131 0.328390
O O6 0.910171 0.823139 0.396319
O O7 0.275108 0.164425 0.332220
O O8 0.193268 0.032242 0.393341
O O9 0.405992 0.039867 0.177708
O O10 0.430131 0.674927 0.173254
O O11 0.408256 0.576517 0.398135
#
# Coordination Sequence:
#
# PCOD9292365 Si02
#       7
#     8   4   8   8   4   4   8
#     4  11  24  48  69 105 136 196 242 302 355 441
#     4  10  22  43  70 109 138 190 226 303 366 452
#     4  11  24  43  72 105 137 190 238 305 346 448
#     4  11  25  42  76 103 148 180 245 302 376 422
#     4  10  26  45  66 109 142 190 226 311 362 444
#     4  10  26  44  70 100 146 188 246 290 364 426
#     4  10  24  43  69 104 143 182 243 283 377 426
#
# _framework density 24.160022000000001
#
# number of rings (size 3 to 8) (size 9 to 14) (size 15 to 20)
#    0.000    1.455    1.818    1.091    7.636    6.545 
#    6.545    0.000    0.000    0.000    0.000    0.000 
#    0.000    0.000    0.000    0.000    0.000    0.000 
#
# Total GULP energy -122746.436645 kJ/mol
# GULP energy per Si atom -5579.383484 kJ/mol
# Density = 2.410503 g / cm^3
# Si number density = 24.160022 Si / 1000 Ang^3
#
#
#
# Elastic Constant Matrix: (Units=GPa)
#
#
# Indices 1 2 3 4 5 6 
#
# 1 47.2839 3.2543 45.8204 0.0000 -0.7833 0.0000
# 2 3.2543 147.7493 72.6676 0.0000 -14.4399 0.0000
# 3 45.8204 72.6676 203.1268 0.0000 -20.3356 0.0000
# 4 0.0000 0.0000 0.0000 17.4108 0.0000 2.4293
# 5 -0.7833 -14.4399 -20.3356 0.0000 47.1251 0.0000
# 6 0.0000 0.0000 0.0000 2.4293 0.0000 23.3411
#
#
#
# Elastic Compliance Matrix: (Units=1/GPa)
#
#
# Indices 1 2 3 4 5 6 
#
# 1 0.028309 0.002942 -0.007630 0.000000 -0.001921 0.000000
# 2 0.002942 0.008597 -0.003627 0.000000 0.001118 0.000000
# 3 -0.007630 -0.003627 0.008171 0.000000 0.002288 0.000000
# 4 0.000000 0.000000 0.000000 0.058282 0.000000 -0.006066
# 5 -0.001921 0.001118 0.002288 0.000000 0.022518 0.000000
# 6 0.000000 0.000000 0.000000 -0.006066 0.000000 0.043474
#
#
# Mechanical properties :
#
#
# Convention : Reuss Voigt Hill
#
# Bulk Modulus (GPa) = 35.15606 71.29386 53.22496
# Shear Modulus (GPa) = 25.58021 36.00323 30.79172
#
# Velocity S-wave (km/s) = 3.25742 3.86450 3.57387
# Velocity P-wave (km/s) = 5.36010 7.03460 6.25365
#
# Compressibility (1/GPa) = 0.02844459
#
# Stress axis : x y z
#
# Youngs Moduli (GPa) = 35.32465 116.32558 122.38632
#
# Poissons Ratio (x) = -0.34219 0.93386
# Poissons Ratio (y) = -0.10391 0.44390
# Poissons Ratio (z) = 0.26954 0.42192
#
# Static dielectric constant tensor:
#      x y z
#    x 1.501270 0.000000 -0.008640 
#    y 0.000000 1.721950 0.000000 
#    z -0.008640 0.000000 1.873360 
# 
# From -- ./inp_files/39579.got.cif
#   From: 2010.05.17/outbox.cif.g08.bks.cpg/sg15_20_cif.got.tgz:39579.got - 2010.06.03 18:47:42.
