data_PCOD9292583
_publ_section_title
;
Structure prediction by ZEFSAII (Michael W. Deem and Ramdas Pophale) SiO2 
 PCOD9292583
Probable space group: C 2/C
;
_chemical_formula_sum "Si O2"
_cell_formula_units_Z 48
_cell_length_a 28.582094
_cell_length_b 11.451328
_cell_length_c 23.076337
_cell_angle_alpha 90.000000
_cell_angle_beta 17.703253
_cell_angle_gamma 90.000000
_cell_volume 2296.755875
_symmetry_space_group_name_H-M "C 2/C"
_symmetry_group_IT_number 15
_symmetry_cell_setting 'monoclinic'
loop_
_space_group_symop_operation_xyz
x,y,z
-x,y,1/2-z
-x,-y,-z
x,-y,1/2+z
1/2+x,1/2+y,z
1/2-x,1/2+y,1/2-z
1/2-x,1/2-y,-z
1/2+x,1/2-y,1/2+z
loop_
_atom_site_type_symbol
_atom_site_label
_atom_site_fract_x
_atom_site_fract_y
_atom_site_fract_z
Si Si1 0.678113 0.932222 0.229329
Si Si2 0.171932 0.510472 0.044753
Si Si3 0.167452 0.753535 0.536533
Si Si4 0.804221 0.191594 0.811435
Si Si5 0.573422 0.868241 0.479302
Si Si6 0.330348 0.587604 0.972271
O O1 0.657533 0.895075 0.319632
O O2 0.529949 0.014076 0.387454
O O3 0.726047 0.820343 0.134839
O O4 0.815614 0.020594 0.050739
O O5 0.146841 0.382973 0.046426
O O6 0.000000 0.565673 0.250000
O O7 0.298434 0.575221 0.856384
O O8 0.233729 0.517792 0.037586
O O9 0.250000 0.750000 0.500000
O O10 0.000000 0.806751 0.750000
O O11 0.958402 0.257041 0.608783
O O12 0.690455 0.164017 0.892320
O O13 0.736690 0.285738 0.936483
O O14 0.500000 0.597271 0.750000
#
# Coordination Sequence:
#
# PCOD9292583 Si02
#       6
#     8   8   8   8   8   8
#     4  10  22  44  64  87 128 176 205 257 311 381
#     4  11  22  38  63 100 129 162 202 264 322 372
#     4  11  24  40  64  96 127 163 210 258 322 376
#     4  11  22  41  64  97 126 165 214 257 313 375
#     4  10  24  44  67  89 128 173 215 255 311 374
#     4  11  21  38  66  94 127 162 208 264 320 366
#
# _framework density 20.899044
#
# number of rings (size 3 to 8) (size 9 to 14) (size 15 to 20)
#    0.000    1.333    1.667    4.500    2.333    1.333 
#    6.000    0.833    0.000    0.000    0.000    0.000 
#    0.000    0.000    0.000    0.000    0.000    0.000 
#
# Total GULP energy -133821.694490 kJ/mol
# GULP energy per Si atom -5575.903937 kJ/mol
# Density = 2.085148 g / cm^3
# Si number density = 20.899044 Si / 1000 Ang^3
#
#
#
# Elastic Constant Matrix: (Units=GPa)
#
#
# Indices 1 2 3 4 5 6 
#
# 1 83.7990 1.7668 27.0877 0.0005 1.0666 -0.0002
# 2 1.7668 72.8132 -1.3905 0.0005 17.8561 -0.0002
# 3 27.0877 -1.3905 71.8379 0.0011 19.1344 -0.0003
# 4 0.0005 0.0005 0.0011 28.8033 -0.0002 9.4241
# 5 1.0666 17.8561 19.1344 -0.0002 31.2417 0.0001
# 6 -0.0002 -0.0002 -0.0003 9.4241 0.0001 26.3083
#
#
#
# Elastic Compliance Matrix: (Units=1/GPa)
#
#
# Indices 1 2 3 4 5 6 
#
# 1 0.014002 -0.001533 -0.006471 0.000000 0.004361 0.000000
# 2 -0.001533 0.016812 0.004121 -0.000001 -0.012081 0.000000
# 3 -0.006471 0.004121 0.020324 -0.000001 -0.014582 0.000001
# 4 0.000000 -0.000001 -0.000001 0.039328 0.000001 -0.014088
# 5 0.004361 -0.012081 -0.014582 0.000001 0.047695 -0.000001
# 6 0.000000 0.000000 0.000001 -0.014088 -0.000001 0.043057
#
#
# Mechanical properties :
#
#
# Convention : Reuss Voigt Hill
#
# Bulk Modulus (GPa) = 23.05588 31.48646 27.27117
# Shear Modulus (GPa) = 24.57709 30.66974 27.62341
#
# Velocity S-wave (km/s) = 3.43299 3.83498 3.63954
# Velocity P-wave (km/s) = 5.17396 5.89136 5.54428
#
# Compressibility (1/GPa) = 0.04337289
#
# Stress axis : x y z
#
# Youngs Moduli (GPa) = 71.41914 59.48038 49.20273
#
# Poissons Ratio (x) = 0.09118 0.31839
# Poissons Ratio (y) = 0.10948 -0.20277
# Poissons Ratio (z) = 0.46215 -0.24513
#
# Static dielectric constant tensor:
#      x y z
#    x 1.731740 0.000000 -0.018620 
#    y 0.000000 1.894490 0.000000 
#    z -0.018620 0.000000 1.759120 
# 
# From -- ./inp_files/257579.got.cif
#   From: 2010.05.17/outbox.cif.g08.bks.cpg/sg15_129_cif.got.tgz:257579.got - 2010.06.03 18:47:42.
