data_PCOD9292449
_publ_section_title
;
Structure prediction by ZEFSAII (Michael W. Deem and Ramdas Pophale) SiO2 
 PCOD9292449
Probable space group: C 2/C
;
_chemical_formula_sum "Si O2"
_cell_formula_units_Z 40
_cell_length_a 19.089721
_cell_length_b 4.926361
_cell_length_c 17.269337
_cell_angle_alpha 90.000000
_cell_angle_beta 62.420870
_cell_angle_gamma 90.000000
_cell_volume 1439.519800
_symmetry_space_group_name_H-M "C 2/C"
_symmetry_group_IT_number 15
_symmetry_cell_setting 'monoclinic'
loop_
_space_group_symop_operation_xyz
x,y,z
-x,y,1/2-z
-x,-y,-z
x,-y,1/2+z
1/2+x,1/2+y,z
1/2-x,1/2+y,1/2-z
1/2-x,1/2-y,-z
1/2+x,1/2-y,1/2+z
loop_
_atom_site_type_symbol
_atom_site_label
_atom_site_fract_x
_atom_site_fract_y
_atom_site_fract_z
Si Si1 0.857357 0.907815 0.678853
Si Si2 0.261409 0.424803 0.094364
Si Si3 0.113072 0.769542 0.191864
Si Si4 0.503600 0.777209 0.874793
Si Si5 0.640288 0.078787 0.963519
O O1 0.938655 0.405171 0.719657
O O2 0.938253 0.068270 0.612280
O O3 0.782095 0.049782 0.675988
O O4 0.863895 0.627294 0.627618
O O5 0.177998 0.565260 0.126300
O O6 0.326211 0.631810 0.027310
O O7 0.291785 0.135455 0.052579
O O8 0.056665 0.875642 0.153384
O O9 0.146415 0.014488 0.228534
O O10 0.445678 0.958866 0.955707
#
# Coordination Sequence:
#
# PCOD9292449 Si02
#       5
#     8   8   8   8   8
#     4   8  20  41  70 102 142 187 248 293 365 441
#     4  10  23  41  69 101 141 189 247 293 364 441
#     4   9  20  42  70 108 148 192 243 304 373 438
#     4   9  19  43  72 104 150 194 240 306 378 440
#     4  10  22  43  72 103 140 190 247 298 362 448
#
# _framework density 27.787042
#
# number of rings (size 3 to 8) (size 9 to 14) (size 15 to 20)
#    2.400    0.400    0.000    0.600    0.000    4.000 
#    3.600    2.000    0.000    7.200    0.000    0.000 
#    0.000    1.600    0.000    0.000    0.000    0.000 
#
# Total GULP energy -111558.863935 kJ/mol
# GULP energy per Si atom -5577.943197 kJ/mol
# Density = 2.772380 g / cm^3
# Si number density = 27.787042 Si / 1000 Ang^3
#
#
#
# Elastic Constant Matrix: (Units=GPa)
#
#
# Indices 1 2 3 4 5 6 
#
# 1 120.0338 16.0217 30.9657 0.0026 -8.2054 -0.0016
# 2 16.0217 103.4789 25.5742 0.0266 -5.1969 0.0577
# 3 30.9657 25.5742 96.9340 0.0108 -20.4356 0.0171
# 4 0.0026 0.0266 0.0108 31.6481 -0.0076 5.3477
# 5 -8.2054 -5.1969 -20.4356 -0.0076 68.3344 -0.0136
# 6 -0.0016 0.0577 0.0171 5.3477 -0.0136 28.9500
#
#
#
# Elastic Compliance Matrix: (Units=1/GPa)
#
#
# Indices 1 2 3 4 5 6 
#
# 1 0.009136 -0.000742 -0.002672 0.000000 0.000242 0.000004
# 2 -0.000742 0.010398 -0.002517 -0.000005 -0.000051 -0.000018
# 3 -0.002672 -0.002517 0.012515 -0.000001 0.003230 -0.000001
# 4 0.000000 -0.000005 -0.000001 0.032615 0.000002 -0.006025
# 5 0.000242 -0.000051 0.003230 0.000002 0.015625 0.000005
# 6 0.000004 -0.000018 -0.000001 -0.006025 0.000005 0.035655
#
#
# Mechanical properties :
#
#
# Convention : Reuss Voigt Hill
#
# Bulk Modulus (GPa) = 49.53645 51.72999 50.63322
# Shear Modulus (GPa) = 37.16489 42.31217 39.73853
#
# Velocity S-wave (km/s) = 3.66114 3.90645 3.78578
# Velocity P-wave (km/s) = 5.97811 6.24533 6.11318
#
# Compressibility (1/GPa) = 0.02018716
#
# Stress axis : x y z
#
# Youngs Moduli (GPa) = 109.45960 96.17019 79.90477
#
# Poissons Ratio (x) = 0.07136 0.21348
# Poissons Ratio (y) = 0.08123 0.20113
# Poissons Ratio (z) = 0.29245 0.24207
#
# Static dielectric constant tensor:
#      x y z
#    x 2.144900 0.000010 0.043760 
#    y 0.000010 2.147370 0.000010 
#    z 0.043760 0.000010 2.343280 
# 
# From -- ./inp_files/208308.got.cif
#   From: 2010.05.17/outbox.cif.g08.bks.cpg/sg15_105_cif.got.tgz:208308.got - 2010.06.03 18:47:42.
