data_PCOD9292919
_publ_section_title
;
Structure prediction by ZEFSAII (Michael W. Deem and Ramdas Pophale) SiO2 
 PCOD9292919
Probable space group: C 2/C
;
_chemical_formula_sum "Si O2"
_cell_formula_units_Z 48
_cell_length_a 14.237762
_cell_length_b 18.015045
_cell_length_c 14.216888
_cell_angle_alpha 90.000000
_cell_angle_beta 141.247409
_cell_angle_gamma 90.000000
_cell_volume 2282.586947
_symmetry_space_group_name_H-M "C 2/C"
_symmetry_group_IT_number 15
_symmetry_cell_setting 'monoclinic'
loop_
_space_group_symop_operation_xyz
x,y,z
-x,y,1/2-z
-x,-y,-z
x,-y,1/2+z
1/2+x,1/2+y,z
1/2-x,1/2+y,1/2-z
1/2-x,1/2-y,-z
1/2+x,1/2-y,1/2+z
loop_
_atom_site_type_symbol
_atom_site_label
_atom_site_fract_x
_atom_site_fract_y
_atom_site_fract_z
Si Si1 0.299640 0.651114 0.961179
Si Si2 0.035098 0.669336 0.478600
Si Si3 0.500000 0.895304 0.750000
Si Si4 0.000000 0.500000 0.000000
Si Si5 0.775856 0.504407 0.005810
Si Si6 0.500000 0.752599 0.250000
Si Si7 0.139714 0.189063 0.686774
Si Si8 0.000000 0.888845 0.250000
O O1 0.141497 0.696073 0.830737
O O2 0.348774 0.633983 0.892855
O O3 0.272640 0.576079 0.997728
O O4 0.426039 0.700245 0.112376
O O5 0.997341 0.591853 0.498038
O O6 0.197850 0.695536 0.639209
O O7 0.034624 0.653943 0.366663
O O8 0.913775 0.733357 0.398506
O O9 0.360932 0.951288 0.655928
O O10 0.111103 0.498402 0.993559
O O11 0.640485 0.556954 0.870515
O O12 0.026748 0.160560 0.678407
#
# Coordination Sequence:
#
# PCOD9292919 Si02
#       8
#     8   8   4   4   8   4   8   4
#     4  11  25  44  71 104 141 192 235 303 364 440
#     4  11  26  46  74 102 147 190 248 299 363 439
#     4  10  22  44  70 100 126 206 236 292 356 438
#     4  10  24  50  70 104 136 200 238 300 352 460
#     4  11  25  44  75 102 148 191 247 303 373 435
#     4  10  24  44  68 104 142 180 248 292 368 436
#     4  12  27  46  72 109 145 192 242 304 369 433
#     4  12  26  48  70 112 152 186 248 314 354 438
#
# _framework density 21.028772
#
# number of rings (size 3 to 8) (size 9 to 14) (size 15 to 20)
#    0.000    1.000    3.333    2.500   14.000    2.000 
#    3.000    0.000    0.000    0.000    0.000    0.000 
#    0.000    0.000    0.000    0.000    0.000    0.000 
#
# Total GULP energy -133642.512328 kJ/mol
# GULP energy per Si atom -5568.438014 kJ/mol
# Density = 2.098091 g / cm^3
# Si number density = 21.028772 Si / 1000 Ang^3
#
#
#
# Elastic Constant Matrix: (Units=GPa)
#
#
# Indices 1 2 3 4 5 6 
#
# 1 102.8501 43.3089 43.8114 0.0000 -9.2142 0.0001
# 2 43.3089 126.6277 36.4638 0.0000 4.0687 0.0001
# 3 43.8114 36.4638 89.5045 0.0000 3.8572 0.0002
# 4 0.0000 0.0000 0.0000 21.8843 0.0000 -8.4603
# 5 -9.2142 4.0687 3.8572 0.0000 16.9501 0.0001
# 6 0.0001 0.0001 0.0002 -8.4603 0.0001 30.5618
#
#
#
# Elastic Compliance Matrix: (Units=1/GPa)
#
#
# Indices 1 2 3 4 5 6 
#
# 1 0.014823 -0.003608 -0.006232 0.000000 0.010342 0.000000
# 2 -0.003608 0.009855 -0.002083 0.000000 -0.003853 0.000000
# 3 -0.006232 -0.002083 0.015346 0.000000 -0.006380 0.000000
# 4 0.000000 0.000000 0.000000 0.051171 0.000000 0.014166
# 5 0.010342 -0.003853 -0.006380 0.000000 0.066995 0.000000
# 6 0.000000 0.000000 0.000000 0.014166 0.000000 0.036642
#
#
# Mechanical properties :
#
#
# Convention : Reuss Voigt Hill
#
# Bulk Modulus (GPa) = 61.80505 62.90561 62.35533
# Shear Modulus (GPa) = 22.31444 26.90577 24.61011
#
# Velocity S-wave (km/s) = 3.26105 3.58085 3.42469
# Velocity P-wave (km/s) = 6.60558 6.86117 6.73459
#
# Compressibility (1/GPa) = 0.01617991
#
# Stress axis : x y z
#
# Youngs Moduli (GPa) = 67.46253 101.47575 65.16165
#
# Poissons Ratio (x) = 0.36608 0.40607
# Poissons Ratio (y) = 0.24338 0.13572
# Poissons Ratio (z) = 0.42041 0.21136
#
# Static dielectric constant tensor:
#      x y z
#    x 1.755010 0.000000 -0.000400 
#    y 0.000000 1.737510 0.000000 
#    z -0.000400 0.000000 1.794290 
# 
# From -- ./inp_files/155316.got.cif
#   From: 2010.05.17/outbox.cif.g08.bks.cpg/sg15_78_cif.got.tgz:155316.got - 2010.06.03 18:47:42.
