data_PCOD9292861
_publ_section_title
;
Structure prediction by ZEFSAII (Michael W. Deem and Ramdas Pophale) SiO2 
 PCOD9292861
Probable space group: C 2/C
;
_chemical_formula_sum "Si O2"
_cell_formula_units_Z 56
_cell_length_a 16.568140
_cell_length_b 12.503009
_cell_length_c 13.707475
_cell_angle_alpha 90.000000
_cell_angle_beta 55.132620
_cell_angle_gamma 90.000000
_cell_volume 2329.766668
_symmetry_space_group_name_H-M "C 2/C"
_symmetry_group_IT_number 15
_symmetry_cell_setting 'monoclinic'
loop_
_space_group_symop_operation_xyz
x,y,z
-x,y,1/2-z
-x,-y,-z
x,-y,1/2+z
1/2+x,1/2+y,z
1/2-x,1/2+y,1/2-z
1/2-x,1/2-y,-z
1/2+x,1/2-y,1/2+z
loop_
_atom_site_type_symbol
_atom_site_label
_atom_site_fract_x
_atom_site_fract_y
_atom_site_fract_z
Si Si1 0.774612 0.157938 0.216463
Si Si2 0.629740 0.662306 0.747443
Si Si3 0.787551 0.492901 0.400048
Si Si4 0.839958 0.928886 0.852796
Si Si5 0.132608 0.721484 0.594810
Si Si6 0.919998 0.342071 0.878071
Si Si7 0.991962 0.232001 0.011917
O O1 0.722678 0.270485 0.226030
O O2 0.730016 0.062416 0.182530
O O3 0.755241 0.115078 0.338591
O O4 0.890988 0.173647 0.114505
O O5 0.630364 0.540304 0.714098
O O6 0.604802 0.734098 0.667346
O O7 0.555141 0.663712 0.890407
O O8 0.686314 0.454513 0.517368
O O9 0.859930 0.391403 0.353852
O O10 0.827420 0.581545 0.447775
O O11 0.901591 0.821056 0.816282
O O12 0.250000 0.750000 0.500000
O O13 0.062771 0.725535 0.548581
O O14 0.000000 0.394612 0.750000
O O15 0.959149 0.324169 0.958495
#
# Coordination Sequence:
#
# PCOD9292861 Si02
#       7
#     8   8   8   8   8   8   8
#     4  11  25  43  74 106 133 191 239 282 360 423
#     4  10  22  44  69 100 144 177 231 297 346 415
#     4  10  22  46  71  96 146 180 229 299 350 417
#     4  11  24  40  67  97 134 186 230 274 352 419
#     4  10  24  45  64  94 142 185 225 288 357 405
#     4   9  20  42  69 104 131 178 233 287 347 414
#     4  11  23  44  70 102 142 183 238 290 347 429
#
# _framework density 24.036740999999999
#
# number of rings (size 3 to 8) (size 9 to 14) (size 15 to 20)
#    0.000    1.714    0.000    3.429    6.000    4.000 
#   12.857    1.429    0.000    0.000    0.000    0.000 
#    0.000    0.000    0.000    0.000    0.000    0.000 
#
# Total GULP energy -155968.101693 kJ/mol
# GULP energy per Si atom -5570.289346 kJ/mol
# Density = 2.398203 g / cm^3
# Si number density = 24.036741 Si / 1000 Ang^3
#
#
#
# Elastic Constant Matrix: (Units=GPa)
#
#
# Indices 1 2 3 4 5 6 
#
# 1 122.6078 46.8524 20.2873 0.0000 15.3887 0.0000
# 2 46.8524 150.8383 34.0735 0.0000 -1.0620 0.0000
# 3 20.2873 34.0735 42.9147 0.0000 3.3821 0.0000
# 4 0.0000 0.0000 0.0000 310.7216 0.0000 -462.2849
# 5 15.3887 -1.0620 3.3821 0.0000 42.0398 0.0000
# 6 0.0000 0.0000 0.0000 -462.2849 0.0000 759.4041
#
#
#
# Elastic Compliance Matrix: (Units=1/GPa)
#
#
# Indices 1 2 3 4 5 6 
#
# 1 0.009982 -0.002586 -0.002388 0.000000 -0.003527 0.000000
# 2 -0.002586 0.008771 -0.005870 0.000000 0.001640 0.000000
# 3 -0.002388 -0.005870 0.029220 0.000000 -0.001625 0.000000
# 4 0.000000 0.000000 0.000000 0.034122 0.000000 0.020771
# 5 -0.003527 0.001640 -0.001625 0.000000 0.025250 0.000000
# 6 0.000000 0.000000 0.000000 0.020771 0.000000 0.013961
#
#
# Mechanical properties :
#
#
# Convention : Reuss Voigt Hill
#
# Bulk Modulus (GPa) = 38.04563 57.64304 47.84434
# Shear Modulus (GPa) = 32.94784 236.77627 134.86205
#
# Velocity S-wave (km/s) = 3.70635 9.93579 7.49856
# Velocity P-wave (km/s) = 5.84624 12.47637 9.74264
#
# Compressibility (1/GPa) = 0.02628423
#
# Stress axis : x y z
#
# Youngs Moduli (GPa) = 100.17962 114.01843 34.22340
#
# Poissons Ratio (x) = 0.29486 0.08171
# Poissons Ratio (y) = 0.25907 0.20090
# Poissons Ratio (z) = 0.23919 0.66933
#
# Static dielectric constant tensor:
#      x y z
#    x 2.067430 0.000000 -0.101470 
#    y 0.000000 1.929940 0.000000 
#    z -0.101470 0.000000 2.055140 
# 
# From -- ./inp_files/161221.got.cif
#   From: 2010.05.17/outbox.cif.g08.bks.cpg/sg15_81_cif.got.tgz:161221.got - 2010.06.03 18:47:42.
