data_PCOD9292675
_publ_section_title
;
Structure prediction by ZEFSAII (Michael W. Deem and Ramdas Pophale) SiO2 
 PCOD9292675
Probable space group: C 2/C
;
_chemical_formula_sum "Si O2"
_cell_formula_units_Z 60
_cell_length_a 16.368965
_cell_length_b 9.529281
_cell_length_c 15.361655
_cell_angle_alpha 90.000000
_cell_angle_beta 99.558262
_cell_angle_gamma 90.000000
_cell_volume 2362.914034
_symmetry_space_group_name_H-M "C 2/C"
_symmetry_group_IT_number 15
_symmetry_cell_setting 'monoclinic'
loop_
_space_group_symop_operation_xyz
x,y,z
-x,y,1/2-z
-x,-y,-z
x,-y,1/2+z
1/2+x,1/2+y,z
1/2-x,1/2+y,1/2-z
1/2-x,1/2-y,-z
1/2+x,1/2-y,1/2+z
loop_
_atom_site_type_symbol
_atom_site_label
_atom_site_fract_x
_atom_site_fract_y
_atom_site_fract_z
Si Si1 0.784958 0.942267 0.068459
Si Si2 0.639789 0.829134 0.130895
Si Si3 0.191285 0.616317 0.923869
Si Si4 0.500000 0.423894 0.750000
Si Si5 0.094448 0.444055 0.765866
Si Si6 0.950639 0.817549 0.136916
Si Si7 0.523733 0.837348 0.492677
Si Si8 0.818892 0.158238 0.212555
O O1 0.697466 0.865568 0.059925
O O2 0.868409 0.858779 0.069155
O O3 0.799033 0.009388 0.167636
O O4 0.766781 0.058251 0.992989
O O5 0.692745 0.710944 0.192162
O O6 0.630146 0.972208 0.188180
O O7 0.548317 0.782372 0.085098
O O8 0.147509 0.499435 0.856265
O O9 0.220444 0.731905 0.860256
O O10 0.115677 0.672673 0.970486
O O11 0.505284 0.537055 0.829163
O O12 0.581286 0.331645 0.773606
O O13 0.082758 0.277870 0.787209
O O14 0.000000 0.496541 0.750000
O O15 0.010442 0.730486 0.084676
O O16 0.500000 0.000000 0.500000
#
# Coordination Sequence:
#
# PCOD9292675 Si02
#       8
#     8   8   8   4   8   8   8   8
#     4  11  25  43  61  98 136 173 215 275 345 396
#     4  11  23  39  66  93 128 168 225 270 322 402
#     4  11  22  41  70  92 130 171 226 272 326 399
#     4  10  22  44  66  90 126 172 220 266 328 386
#     4  11  20  37  67  96 122 173 222 271 327 380
#     4  11  24  40  67  95 141 169 215 281 336 396
#     4  12  21  40  64 100 126 170 221 273 321 399
#     4  10  24  45  65  90 128 177 215 270 329 396
#
# _framework density 25.392375000000001
#
# number of rings (size 3 to 8) (size 9 to 14) (size 15 to 20)
#    0.000    1.067    4.667    1.200    3.733    2.133 
#    4.800    6.000    0.000    0.000    0.000    0.000 
#    0.000    0.000    0.000    0.000    0.000    0.000 
#
# Total GULP energy -167661.748513 kJ/mol
# GULP energy per Si atom -5588.724950 kJ/mol
# Density = 2.533458 g / cm^3
# Si number density = 25.392375 Si / 1000 Ang^3
#
#
#
# Elastic Constant Matrix: (Units=GPa)
#
#
# Indices 1 2 3 4 5 6 
#
# 1 66.6003 -12.6943 0.0247 0.0000 10.3387 0.0000
# 2 -12.6943 51.8760 15.1472 0.0000 8.0539 0.0000
# 3 0.0247 15.1472 86.8704 0.0000 17.4950 0.0000
# 4 0.0000 0.0000 0.0000 40.5016 0.0000 19.7744
# 5 10.3387 8.0539 17.4950 0.0000 38.3612 0.0000
# 6 0.0000 0.0000 0.0000 19.7744 0.0000 27.5047
#
#
#
# Elastic Compliance Matrix: (Units=1/GPa)
#
#
# Indices 1 2 3 4 5 6 
#
# 1 0.016838 0.004922 0.000285 0.000000 -0.005702 0.000000
# 2 0.004922 0.022051 -0.002914 0.000000 -0.004627 0.000000
# 3 0.000285 -0.002914 0.013116 0.000000 -0.005447 0.000000
# 4 0.000000 0.000000 0.000000 0.038045 0.000000 -0.027352
# 5 -0.005702 -0.004627 -0.005447 0.000000 0.031060 0.000000
# 6 0.000000 0.000000 0.000000 -0.027352 0.000000 0.056022
#
#
# Mechanical properties :
#
#
# Convention : Reuss Voigt Hill
#
# Bulk Modulus (GPa) = 17.67059 23.36687 20.51873
# Shear Modulus (GPa) = 26.12200 34.79810 30.46005
#
# Velocity S-wave (km/s) = 3.21087 3.70593 3.46725
# Velocity P-wave (km/s) = 4.55196 5.24730 4.91195
#
# Compressibility (1/GPa) = 0.05659119
#
# Stress axis : x y z
#
# Youngs Moduli (GPa) = 59.38905 45.35028 76.24018
#
# Poissons Ratio (x) = -0.22323 -0.02174
# Poissons Ratio (y) = -0.29233 0.22220
# Poissons Ratio (z) = -0.01694 0.13217
#
# Static dielectric constant tensor:
#      x y z
#    x 1.947960 0.000000 0.014290 
#    y 0.000000 2.057380 0.000000 
#    z 0.014290 0.000000 2.086550 
# 
# From -- ./inp_files/160949.got.cif
#   From: 2010.05.17/outbox.cif.g08.bks.cpg/sg15_81_cif.got.tgz:160949.got - 2010.06.03 18:47:42.
