data_PCOD9292377
_publ_section_title
;
Structure prediction by ZEFSAII (Michael W. Deem and Ramdas Pophale) SiO2 
 PCOD9292377
Probable space group: C 2/C
;
_chemical_formula_sum "Si O2"
_cell_formula_units_Z 52
_cell_length_a 23.533985
_cell_length_b 8.262571
_cell_length_c 18.425642
_cell_angle_alpha 90.000000
_cell_angle_beta 142.690468
_cell_angle_gamma 90.000000
_cell_volume 2171.663058
_symmetry_space_group_name_H-M "C 2/C"
_symmetry_group_IT_number 15
_symmetry_cell_setting 'monoclinic'
loop_
_space_group_symop_operation_xyz
x,y,z
-x,y,1/2-z
-x,-y,-z
x,-y,1/2+z
1/2+x,1/2+y,z
1/2-x,1/2+y,1/2-z
1/2-x,1/2-y,-z
1/2+x,1/2-y,1/2+z
loop_
_atom_site_type_symbol
_atom_site_label
_atom_site_fract_x
_atom_site_fract_y
_atom_site_fract_z
Si Si1 0.588964 0.390526 0.517346
Si Si2 0.324087 0.397142 0.622428
Si Si3 0.000000 0.672658 0.750000
Si Si4 0.142100 0.418272 0.677938
Si Si5 0.218824 0.101836 0.574455
Si Si6 0.370669 0.433603 0.310503
Si Si7 0.939627 0.456417 0.550999
O O1 0.617917 0.552080 0.503220
O O2 0.480496 0.394938 0.425629
O O3 0.641926 0.414305 0.648301
O O4 0.601973 0.226326 0.485151
O O5 0.414817 0.286152 0.693453
O O6 0.248679 0.282133 0.585361
O O7 0.280713 0.472583 0.505929
O O8 0.350412 0.527904 0.707656
O O9 0.958085 0.559186 0.642689
O O10 0.210172 0.525720 0.796264
O O11 0.176464 0.232928 0.714388
O O12 0.125244 0.465106 0.577384
O O13 0.041890 0.439512 0.616806
#
# Coordination Sequence:
#
# PCOD9292377 Si02
#       7
#     8   8   4   8   8   8   8
#     4  10  23  42  68  99 134 176 235 282 341 406
#     4  11  25  43  69  99 149 176 230 280 351 408
#     4  12  24  44  76 100 132 200 228 282 342 424
#     4  10  22  43  70  97 136 179 231 285 340 408
#     4  11  24  45  64 103 137 180 218 293 344 404
#     4  10  23  42  70  99 131 186 228 280 339 426
#     4  10  23  43  69  97 133 181 237 279 333 427
#
# _framework density 23.944782
#
# number of rings (size 3 to 8) (size 9 to 14) (size 15 to 20)
#    0.000    1.538    1.538    1.846    8.615    5.538 
#    8.308    0.000    0.000    0.000    0.000    0.000 
#    0.000    0.000    0.000    0.000    0.000    0.000 
#
# Total GULP energy -145266.959792 kJ/mol
# GULP energy per Si atom -5587.190761 kJ/mol
# Density = 2.389028 g / cm^3
# Si number density = 23.944782 Si / 1000 Ang^3
#
#
#
# Elastic Constant Matrix: (Units=GPa)
#
#
# Indices 1 2 3 4 5 6 
#
# 1 86.8982 38.1477 26.2315 0.0000 -3.7317 0.0000
# 2 38.1477 80.6831 43.4123 0.0000 -15.3800 0.0000
# 3 26.2315 43.4123 156.0588 0.0000 -42.1162 0.0000
# 4 0.0000 0.0000 0.0000 26.1984 0.0000 -12.2779
# 5 -3.7317 -15.3800 -42.1162 0.0000 40.0429 0.0000
# 6 0.0000 0.0000 0.0000 -12.2779 0.0000 35.4187
#
#
#
# Elastic Compliance Matrix: (Units=1/GPa)
#
#
# Indices 1 2 3 4 5 6 
#
# 1 0.014762 -0.006776 -0.001295 0.000000 -0.002589 0.000000
# 2 -0.006776 0.017787 -0.002982 0.000000 0.003064 0.000000
# 3 -0.001295 -0.002982 0.009933 0.000000 0.009181 0.000000
# 4 0.000000 0.000000 0.000000 0.045574 0.000000 0.015798
# 5 -0.002589 0.003064 0.009181 0.000000 0.035565 0.000000
# 6 0.000000 0.000000 0.000000 0.015798 0.000000 0.033710
#
#
# Mechanical properties :
#
#
# Convention : Reuss Voigt Hill
#
# Bulk Modulus (GPa) = 49.08055 59.91369 54.49712
# Shear Modulus (GPa) = 26.84858 34.72191 30.78525
#
# Velocity S-wave (km/s) = 3.35217 3.81213 3.58952
# Velocity P-wave (km/s) = 5.96025 6.66726 6.32364
#
# Compressibility (1/GPa) = 0.02037467
#
# Stress axis : x y z
#
# Youngs Moduli (GPa) = 67.74018 56.22190 100.67687
#
# Poissons Ratio (x) = 0.38099 0.13038
# Poissons Ratio (y) = 0.45904 0.30022
# Poissons Ratio (z) = 0.08772 0.16765
#
# Static dielectric constant tensor:
#      x y z
#    x 1.966460 0.000000 0.027560 
#    y 0.000000 1.934020 0.000000 
#    z 0.027560 0.000000 1.932640 
# 
# From -- ./inp_files/221934.got.cif
#   From: 2010.05.17/outbox.cif.g08.bks.cpg/sg15_111_cif.got.tgz:221934.got - 2010.06.03 18:47:42.
