data_PCOD9292144
_publ_section_title
;
Structure prediction by ZEFSAII (Michael W. Deem and Ramdas Pophale) SiO2 
 PCOD9292144
Probable space group: C 2/C
;
_chemical_formula_sum "Si O2"
_cell_formula_units_Z 64
_cell_length_a 16.004028
_cell_length_b 28.520648
_cell_length_c 9.102755
_cell_angle_alpha 90.000000
_cell_angle_beta 47.825526
_cell_angle_gamma 90.000000
_cell_volume 3079.218980
_symmetry_space_group_name_H-M "C 2/C"
_symmetry_group_IT_number 15
_symmetry_cell_setting 'monoclinic'
loop_
_space_group_symop_operation_xyz
x,y,z
-x,y,1/2-z
-x,-y,-z
x,-y,1/2+z
1/2+x,1/2+y,z
1/2-x,1/2+y,1/2-z
1/2-x,1/2-y,-z
1/2+x,1/2-y,1/2+z
loop_
_atom_site_type_symbol
_atom_site_label
_atom_site_fract_x
_atom_site_fract_y
_atom_site_fract_z
Si Si1 0.128344 0.965457 0.632922
Si Si2 0.912848 0.131689 0.465983
Si Si3 0.780628 0.044046 0.156078
Si Si4 0.423103 0.370704 0.468897
Si Si5 0.263338 0.199171 0.673069
Si Si6 0.224844 0.693051 0.194487
Si Si7 0.988462 0.355077 0.938945
Si Si8 0.974638 0.550043 0.953597
O O1 0.138611 0.913007 0.556939
O O2 0.151621 0.967603 0.776679
O O3 0.000000 0.980816 0.750000
O O4 0.216988 0.999193 0.449711
O O5 0.822933 0.166187 0.639972
O O6 0.991300 0.113655 0.506280
O O7 0.000000 0.155289 0.250000
O O8 0.657044 0.058658 0.353125
O O9 0.849160 0.085903 0.997929
O O10 0.500000 0.349547 0.250000
O O11 0.329667 0.335060 0.638523
O O12 0.233001 0.253304 0.734374
O O13 0.256054 0.191815 0.505211
O O14 0.387933 0.182470 0.572294
O O15 0.104611 0.668212 0.359516
O O16 0.964525 0.404508 0.047290
O O17 0.000000 0.364521 0.750000
O O18 0.000000 0.547593 0.750000
O O19 0.000000 0.500000 0.000000
#
# Coordination Sequence:
#
# PCOD9292144 Si02
#       8
#     8   8   8   8   8   8   8   8
#     4  11  24  41  63  95 131 169 211 265 324 392
#     4  11  24  42  64  96 139 169 212 267 333 391
#     4  12  25  42  65  93 132 172 217 269 322 388
#     4  12  23  40  68  99 130 171 217 268 325 392
#     4  10  23  40  72  96 133 172 215 279 325 390
#     4  10  22  43  67 102 127 169 223 273 326 388
#     4  10  23  43  69 100 132 171 228 272 329 393
#     4  12  27  46  66  94 132 179 225 273 327 393
#
# _framework density 20.784490999999999
#
# number of rings (size 3 to 8) (size 9 to 14) (size 15 to 20)
#    0.000    1.000    5.000    1.875    7.000    0.500 
#    0.000    1.250    0.000    0.000    0.000    0.000 
#    0.000    0.000    0.000    0.000    0.000    0.000 
#
# Total GULP energy -178814.977713 kJ/mol
# GULP energy per Si atom -5587.968054 kJ/mol
# Density = 2.073718 g / cm^3
# Si number density = 20.784491 Si / 1000 Ang^3
#
#
#
# Elastic Constant Matrix: (Units=GPa)
#
#
# Indices 1 2 3 4 5 6 
#
# 1 40.2268 14.4317 10.6749 0.0000 -10.0585 0.0000
# 2 14.4317 122.7024 42.3868 0.0000 -3.1803 0.0000
# 3 10.6749 42.3868 89.5253 0.0000 -17.2881 0.0000
# 4 0.0000 0.0000 0.0000 30.2036 0.0000 -4.0697
# 5 -10.0585 -3.1803 -17.2881 0.0000 26.8188 0.0000
# 6 0.0000 0.0000 0.0000 -4.0697 0.0000 25.6722
#
#
#
# Elastic Compliance Matrix: (Units=1/GPa)
#
#
# Indices 1 2 3 4 5 6 
#
# 1 0.028554 -0.003116 0.000077 0.000000 0.010389 0.000000
# 2 -0.003116 0.010186 -0.005075 0.000000 -0.003232 0.000000
# 3 0.000077 -0.005075 0.015366 0.000000 0.009332 0.000000
# 4 0.000000 0.000000 0.000000 0.033831 0.000000 0.005363
# 5 0.010389 -0.003232 0.009332 0.000000 0.046816 0.000000
# 6 0.000000 0.000000 0.000000 0.005363 0.000000 0.039803
#
#
# Mechanical properties :
#
#
# Convention : Reuss Voigt Hill
#
# Bulk Modulus (GPa) = 26.40098 43.04906 34.72502
# Shear Modulus (GPa) = 24.58084 28.86965 26.72524
#
# Velocity S-wave (km/s) = 3.44270 3.73097 3.58973
# Velocity P-wave (km/s) = 5.34161 6.27035 5.82452
#
# Compressibility (1/GPa) = 0.03787739
#
# Stress axis : x y z
#
# Youngs Moduli (GPa) = 35.02110 98.17716 65.07898
#
# Poissons Ratio (x) = 0.30588 -0.00498
# Poissons Ratio (y) = 0.10911 0.33029
# Poissons Ratio (z) = -0.00268 0.49827
#
# Static dielectric constant tensor:
#      x y z
#    x 1.755630 0.000000 -0.014220 
#    y 0.000000 1.745470 0.000000 
#    z -0.014220 0.000000 1.729280 
# 
# From -- ./inp_files/52801.got.cif
#   From: 2010.05.17/outbox.cif.g08.bks.cpg/sg15_27_cif.got.tgz:52801.got - 2010.06.03 18:47:42.
