data_PCOD9292676
_publ_section_title
;
Structure prediction by ZEFSAII (Michael W. Deem and Ramdas Pophale) SiO2 
 PCOD9292676
Probable space group: C 2/C
;
_chemical_formula_sum "Si O2"
_cell_formula_units_Z 52
_cell_length_a 23.710936
_cell_length_b 7.240950
_cell_length_c 18.271183
_cell_angle_alpha 90.000000
_cell_angle_beta 122.346107
_cell_angle_gamma 90.000000
_cell_volume 2650.214596
_symmetry_space_group_name_H-M "C 2/C"
_symmetry_group_IT_number 15
_symmetry_cell_setting 'monoclinic'
loop_
_space_group_symop_operation_xyz
x,y,z
-x,y,1/2-z
-x,-y,-z
x,-y,1/2+z
1/2+x,1/2+y,z
1/2-x,1/2+y,1/2-z
1/2-x,1/2-y,-z
1/2+x,1/2-y,1/2+z
loop_
_atom_site_type_symbol
_atom_site_label
_atom_site_fract_x
_atom_site_fract_y
_atom_site_fract_z
Si Si1 0.028082 0.292945 0.021554
Si Si2 0.940116 0.965846 0.559885
Si Si3 0.708468 0.436148 0.988468
Si Si4 0.270724 0.938133 0.676301
Si Si5 0.657696 0.285718 0.703004
Si Si6 0.141413 0.113449 0.801615
Si Si7 0.500000 0.563996 0.750000
O O1 0.094619 0.293948 0.116618
O O2 0.972386 0.167971 0.022712
O O3 0.000000 0.500000 0.000000
O O4 0.048623 0.175934 0.962722
O O5 0.863565 0.911365 0.522068
O O6 0.978683 0.949463 0.663674
O O7 0.688631 0.546513 0.901268
O O8 0.750000 0.250000 0.000000
O O9 0.751951 0.544187 0.078172
O O10 0.206551 0.883149 0.678921
O O11 0.324375 0.775887 0.719143
O O12 0.301355 0.127269 0.727261
O O13 0.633831 0.437147 0.744359
O O14 0.068188 0.171168 0.778820
#
# Coordination Sequence:
#
# PCOD9292676 Si02
#       7
#     8   8   8   8   8   8   4
#     4  11  25  42  67  98 128 171 224 272 329 390
#     4  10  23  44  67  90 136 169 215 276 323 387
#     4  11  23  44  67  97 136 178 214 267 340 395
#     4  12  25  42  68 100 132 175 220 272 330 393
#     4  12  24  42  68  99 131 170 226 272 324 393
#     4  11  24  44  67  95 133 171 218 271 327 391
#     4  10  22  44  66  90 130 176 204 266 328 378
#
# _framework density 19.621054000000001
#
# number of rings (size 3 to 8) (size 9 to 14) (size 15 to 20)
#    0.000    0.923    6.154    0.462    2.154    2.462 
#    5.538    1.538    0.000    0.000    0.000    0.000 
#    0.000    0.000    0.000    0.000    0.000    0.000 
#
# Total GULP energy -145160.451508 kJ/mol
# GULP energy per Si atom -5583.094289 kJ/mol
# Density = 1.957640 g / cm^3
# Si number density = 19.621054 Si / 1000 Ang^3
#
#
#
# Elastic Constant Matrix: (Units=GPa)
#
#
# Indices 1 2 3 4 5 6 
#
# 1 109.4792 50.3071 17.6858 0.0000 8.0847 0.0000
# 2 50.3071 88.9108 42.9920 0.0001 10.0164 0.0000
# 3 17.6858 42.9920 95.1853 0.0000 -0.3596 0.0000
# 4 0.0000 0.0001 0.0000 8.0718 0.0000 -11.4112
# 5 8.0847 10.0164 -0.3596 0.0000 30.7397 0.0000
# 6 0.0000 0.0000 0.0000 -11.4112 0.0000 23.7793
#
#
#
# Elastic Compliance Matrix: (Units=1/GPa)
#
#
# Indices 1 2 3 4 5 6 
#
# 1 0.012455 -0.007463 0.001053 0.000000 -0.000832 0.000000
# 2 -0.007463 0.019595 -0.007481 0.000000 -0.004510 0.000000
# 3 0.001053 -0.007481 0.013698 0.000000 0.002321 0.000000
# 4 0.000000 0.000000 0.000000 0.385241 0.000000 0.184870
# 5 -0.000832 -0.004510 0.002321 0.000000 0.034247 0.000000
# 6 0.000000 0.000000 0.000000 0.184870 0.000000 0.130769
#
#
# Mechanical properties :
#
#
# Convention : Reuss Voigt Hill
#
# Bulk Modulus (GPa) = 55.65736 57.28277 56.47006
# Shear Modulus (GPa) = 7.93937 24.69085 16.31511
#
# Velocity S-wave (km/s) = 2.01374 3.55122 2.88672
# Velocity P-wave (km/s) = 5.81675 6.78770 6.32089
#
# Compressibility (1/GPa) = 0.01796708
#
# Stress axis : x y z
#
# Youngs Moduli (GPa) = 80.29173 51.03322 73.00477
#
# Poissons Ratio (x) = 0.38084 -0.07690
# Poissons Ratio (y) = 0.59919 0.54614
# Poissons Ratio (z) = -0.08458 0.38177
#
# Static dielectric constant tensor:
#      x y z
#    x 1.702490 0.000000 -0.004630 
#    y 0.000000 1.656610 0.000000 
#    z -0.004630 0.000000 1.701270 
# 
# From -- ./inp_files/256812.got.cif
#   From: 2010.05.17/outbox.cif.g08.bks.cpg/sg15_129_cif.got.tgz:256812.got - 2010.06.03 18:47:42.
