data_PCOD9292950
_publ_section_title
;
Structure prediction by ZEFSAII (Michael W. Deem and Ramdas Pophale) SiO2 
 PCOD9292950
Probable space group: C 2/C
;
_chemical_formula_sum "Si O2"
_cell_formula_units_Z 36
_cell_length_a 23.243468
_cell_length_b 7.442922
_cell_length_c 19.829189
_cell_angle_alpha 90.000000
_cell_angle_beta 156.182036
_cell_angle_gamma 90.000000
_cell_volume 1385.320408
_symmetry_space_group_name_H-M "C 2/C"
_symmetry_group_IT_number 15
_symmetry_cell_setting 'monoclinic'
loop_
_space_group_symop_operation_xyz
x,y,z
-x,y,1/2-z
-x,-y,-z
x,-y,1/2+z
1/2+x,1/2+y,z
1/2-x,1/2+y,1/2-z
1/2-x,1/2-y,-z
1/2+x,1/2-y,1/2+z
loop_
_atom_site_type_symbol
_atom_site_label
_atom_site_fract_x
_atom_site_fract_y
_atom_site_fract_z
Si Si1 0.575782 0.346170 0.261867
Si Si2 0.698708 0.773565 0.099382
Si Si3 0.011114 0.762400 0.674955
Si Si4 0.250000 0.750000 0.000000
Si Si5 0.887972 0.382355 0.920447
O O1 0.500000 0.290632 0.250000
O O2 0.712993 0.260800 0.375264
O O3 0.607269 0.562188 0.301212
O O4 0.451934 0.319991 0.073945
O O5 0.778266 0.692838 0.249100
O O6 0.678342 0.982447 0.095844
O O7 0.866958 0.757271 0.561687
O O8 0.973810 0.761357 0.556948
O O9 0.129253 0.622865 0.825856
O O10 0.000000 0.500000 0.000000
#
# Coordination Sequence:
#
# PCOD9292950 Si02
#       5
#     8   8   8   4   8
#     4  12  26  49  73 108 146 190 238 301 366 425
#     4  12  28  49  74 106 149 190 243 300 360 434
#     4  11  25  44  76 104 141 187 242 291 357 425
#     4  10  22  44  70 106 136 186 236 290 342 434
#     4  12  28  47  74 108 143 193 240 298 360 429
#
# _framework density 25.986767
#
# number of rings (size 3 to 8) (size 9 to 14) (size 15 to 20)
#    0.000    0.444    4.444    3.333    9.333    1.778 
#    8.000    0.000    0.000    0.000    0.000    0.000 
#    0.000    0.000    0.000    0.000    0.000    0.000 
#
# Total GULP energy -100371.391275 kJ/mol
# GULP energy per Si atom -5576.188404 kJ/mol
# Density = 2.592762 g / cm^3
# Si number density = 25.986767 Si / 1000 Ang^3
#
#
#
# Elastic Constant Matrix: (Units=GPa)
#
#
# Indices 1 2 3 4 5 6 
#
# 1 124.6925 10.2042 42.2183 0.0000 25.9398 0.0000
# 2 10.2042 64.1907 -14.0598 0.0000 2.3471 0.0000
# 3 42.2183 -14.0598 120.5352 0.0000 2.8834 0.0000
# 4 0.0000 0.0000 0.0000 13.6206 0.0000 4.5335
# 5 25.9398 2.3471 2.8834 0.0000 66.0555 0.0000
# 6 0.0000 0.0000 0.0000 4.5335 0.0000 20.3960
#
#
#
# Elastic Compliance Matrix: (Units=1/GPa)
#
#
# Indices 1 2 3 4 5 6 
#
# 1 0.010278 -0.002323 -0.003780 0.000000 -0.003789 0.000000
# 2 -0.002323 0.016540 0.002738 0.000000 0.000205 0.000000
# 3 -0.003780 0.002738 0.009917 0.000000 0.000954 0.000000
# 4 0.000000 0.000000 0.000000 0.079284 0.000000 -0.017623
# 5 -0.003789 0.000205 0.000954 0.000000 0.016578 0.000000
# 6 0.000000 0.000000 0.000000 -0.017623 0.000000 0.052946
#
#
# Mechanical properties :
#
#
# Convention : Reuss Voigt Hill
#
# Bulk Modulus (GPa) = 33.32869 42.90487 38.11678
# Shear Modulus (GPa) = 24.71876 38.08478 31.40177
#
# Velocity S-wave (km/s) = 3.08751 3.83240 3.47994
# Velocity P-wave (km/s) = 5.05602 6.01075 5.55394
#
# Compressibility (1/GPa) = 0.03000418
#
# Stress axis : x y z
#
# Youngs Moduli (GPa) = 97.29593 60.45888 100.83725
#
# Poissons Ratio (x) = 0.14047 0.38119
# Poissons Ratio (y) = 0.22605 -0.27611
# Poissons Ratio (z) = 0.36781 -0.16555
#
# Static dielectric constant tensor:
#      x y z
#    x 1.989920 0.000000 0.003040 
#    y 0.000000 1.913270 0.000000 
#    z 0.003040 0.000000 1.724910 
# 
# From -- ./inp_files/214199.got.cif
#   From: 2010.05.17/outbox.cif.g08.bks.cpg/sg15_108_cif.got.tgz:214199.got - 2010.06.03 18:47:42.
