data_PCOD9292342
_publ_section_title
;
Structure prediction by ZEFSAII (Michael W. Deem and Ramdas Pophale) SiO2 
 PCOD9292342
Probable space group: C 2/C
;
_chemical_formula_sum "Si O2"
_cell_formula_units_Z 64
_cell_length_a 14.605627
_cell_length_b 21.965306
_cell_length_c 16.609215
_cell_angle_alpha 90.000000
_cell_angle_beta 34.514096
_cell_angle_gamma 90.000000
_cell_volume 3019.187034
_symmetry_space_group_name_H-M "C 2/C"
_symmetry_group_IT_number 15
_symmetry_cell_setting 'monoclinic'
loop_
_space_group_symop_operation_xyz
x,y,z
-x,y,1/2-z
-x,-y,-z
x,-y,1/2+z
1/2+x,1/2+y,z
1/2-x,1/2+y,1/2-z
1/2-x,1/2-y,-z
1/2+x,1/2-y,1/2+z
loop_
_atom_site_type_symbol
_atom_site_label
_atom_site_fract_x
_atom_site_fract_y
_atom_site_fract_z
Si Si1 0.979315 0.676549 0.967842
Si Si2 0.828193 0.735640 0.357829
Si Si3 0.030900 0.087843 0.060344
Si Si4 0.016505 0.045496 0.892737
Si Si5 0.834333 0.447354 0.916968
Si Si6 0.231814 0.869197 0.136824
Si Si7 0.859348 0.584909 0.918988
Si Si8 0.684698 0.295085 0.797674
O O1 0.847745 0.702708 0.126581
O O2 0.896743 0.633065 0.961853
O O3 0.112761 0.637201 0.918682
O O4 0.079077 0.734157 0.860291
O O5 0.750000 0.750000 0.500000
O O6 0.849580 0.803022 0.304927
O O7 0.726661 0.702048 0.362889
O O8 0.000000 0.706247 0.250000
O O9 0.918544 0.145865 0.148069
O O10 0.941862 0.025294 0.149174
O O11 0.189484 0.097646 0.998503
O O12 0.073723 0.073017 0.936188
O O13 0.100597 0.084053 0.763514
O O14 0.821856 0.048094 0.027900
O O15 0.850355 0.513249 0.949675
O O16 0.000000 0.438319 0.750000
O O17 0.795328 0.393135 0.005878
O O18 0.000000 0.589402 0.750000
#
# Coordination Sequence:
#
# PCOD9292342 Si02
#       8
#     8   8   8   8   8   8   8   8
#     4  11  27  46  70  99 137 186 232 291 349 408
#     4  11  24  42  66  97 136 179 219 272 335 412
#     4  10  24  43  72  96 138 176 236 286 345 416
#     4  10  22  43  70 100 133 189 220 284 355 412
#     4  10  23  40  67 103 142 177 225 282 344 418
#     4  11  24  40  69 102 137 179 229 277 346 421
#     4  10  23  46  69  99 135 180 233 289 348 405
#     4  11  27  46  68 101 137 180 233 291 345 415
#
# _framework density 21.197759999999999
#
# number of rings (size 3 to 8) (size 9 to 14) (size 15 to 20)
#    0.000    1.500    0.000    3.375   12.250    3.000 
#    0.000    0.000    0.000    0.000    0.000    0.000 
#    0.000    0.000    0.000    0.000    0.000    0.000 
#
# Total GULP energy -178936.798118 kJ/mol
# GULP energy per Si atom -5591.774941 kJ/mol
# Density = 2.114951 g / cm^3
# Si number density = 21.197760 Si / 1000 Ang^3
#
#
#
# Elastic Constant Matrix: (Units=GPa)
#
#
# Indices 1 2 3 4 5 6 
#
# 1 100.6335 29.2268 11.6111 0.0029 -19.5098 -0.0017
# 2 29.2268 82.4886 18.7935 0.0068 -10.5557 -0.0041
# 3 11.6111 18.7935 80.5934 0.0028 -11.9704 -0.0070
# 4 0.0029 0.0068 0.0028 18.2907 -0.0037 5.7285
# 5 -19.5098 -10.5557 -11.9704 -0.0037 25.8356 -0.0010
# 6 -0.0017 -0.0041 -0.0070 5.7285 -0.0010 7.9532
#
#
#
# Elastic Compliance Matrix: (Units=1/GPa)
#
#
# Indices 1 2 3 4 5 6 
#
# 1 0.012484 -0.003431 0.000208 0.000000 0.008122 0.000002
# 2 -0.003431 0.014171 -0.002508 -0.000007 0.002037 0.000010
# 3 0.000208 -0.002508 0.013782 -0.000005 0.005518 0.000015
# 4 0.000000 -0.000007 -0.000005 0.070599 0.000003 -0.050851
# 5 0.008122 0.002037 0.005518 0.000003 0.048229 0.000011
# 6 0.000002 0.000010 0.000015 -0.050851 0.000011 0.162363
#
#
# Mechanical properties :
#
#
# Convention : Reuss Voigt Hill
#
# Bulk Modulus (GPa) = 34.51243 42.55317 38.53280
# Shear Modulus (GPa) = 14.58798 24.02149 19.30474
#
# Velocity S-wave (km/s) = 2.62617 3.36997 3.02105
# Velocity P-wave (km/s) = 5.05096 5.93803 5.51237
#
# Compressibility (1/GPa) = 0.02897507
#
# Stress axis : x y z
#
# Youngs Moduli (GPa) = 80.10119 70.56870 72.55644
#
# Poissons Ratio (x) = 0.24215 -0.01508
# Poissons Ratio (y) = 0.27486 0.18194
# Poissons Ratio (z) = -0.01665 0.17696
#
# Static dielectric constant tensor:
#      x y z
#    x 1.779300 0.000000 0.019660 
#    y 0.000000 1.769220 0.000000 
#    z 0.019660 0.000000 1.765900 
# 
# From -- ./inp_files/207338.got.cif
#   From: 2010.05.17/outbox.cif.g08.bks.cpg/sg15_104_cif.got.tgz:207338.got - 2010.06.03 18:47:42.
