data_PCOD9292425
_publ_section_title
;
Structure prediction by ZEFSAII (Michael W. Deem and Ramdas Pophale) SiO2 
 PCOD9292425
Probable space group: C 2/C
;
_chemical_formula_sum "Si O2"
_cell_formula_units_Z 48
_cell_length_a 18.046442
_cell_length_b 5.171783
_cell_length_c 22.262492
_cell_angle_alpha 90.000000
_cell_angle_beta 106.894835
_cell_angle_gamma 90.000000
_cell_volume 1988.130491
_symmetry_space_group_name_H-M "C 2/C"
_symmetry_group_IT_number 15
_symmetry_cell_setting 'monoclinic'
loop_
_space_group_symop_operation_xyz
x,y,z
-x,y,1/2-z
-x,-y,-z
x,-y,1/2+z
1/2+x,1/2+y,z
1/2-x,1/2+y,1/2-z
1/2-x,1/2-y,-z
1/2+x,1/2-y,1/2+z
loop_
_atom_site_type_symbol
_atom_site_label
_atom_site_fract_x
_atom_site_fract_y
_atom_site_fract_z
Si Si1 0.315898 0.266699 0.313769
Si Si2 0.907031 0.272312 0.373725
Si Si3 0.289462 0.979283 0.567670
Si Si4 0.680422 0.411872 0.318815
Si Si5 0.129488 0.133999 0.004825
Si Si6 0.428629 0.630094 0.124937
O O1 0.347687 0.550544 0.337017
O O2 0.316770 0.252482 0.241851
O O3 0.373150 0.054287 0.354772
O O4 0.232967 0.165118 0.317714
O O5 0.915515 0.217088 0.446683
O O6 0.987327 0.250356 0.357349
O O7 0.355868 0.176823 0.602371
O O8 0.287293 0.751751 0.617254
O O9 0.200098 0.062611 0.538431
O O10 0.322082 0.867677 0.512866
O O11 0.593702 0.476847 0.320199
O O12 0.077750 0.037743 0.937637
#
# Coordination Sequence:
#
# PCOD9292425 Si02
#       6
#     8   8   8   8   8   8
#     4  12  28  49  75 106 144 198 250 308 360 448
#     4  12  28  47  74 113 152 193 241 305 383 444
#     4  10  22  43  73 106 143 191 250 307 354 447
#     4  11  26  48  73 104 138 197 255 302 369 429
#     4  10  22  43  71 110 141 201 241 303 365 441
#     4  11  26  44  73 108 153 191 243 307 378 446
#
# _framework density 24.143284999999999
#
# number of rings (size 3 to 8) (size 9 to 14) (size 15 to 20)
#    0.000    1.000    1.667    3.000   11.667    1.333 
#    0.000    0.000    0.000    0.000    0.000    0.000 
#    0.000    0.000    0.000    0.000    0.000    0.000 
#
# Total GULP energy -134285.849273 kJ/mol
# GULP energy per Si atom -5595.243720 kJ/mol
# Density = 2.408833 g / cm^3
# Si number density = 24.143285 Si / 1000 Ang^3
#
#
#
# Elastic Constant Matrix: (Units=GPa)
#
#
# Indices 1 2 3 4 5 6 
#
# 1 123.6306 -5.6311 26.6414 0.0000 -40.2124 0.0001
# 2 -5.6311 41.2705 7.2005 -0.0002 -8.2651 0.0003
# 3 26.6414 7.2005 104.1167 0.0000 -45.3058 0.0000
# 4 0.0000 -0.0002 0.0000 35.2783 0.0000 -6.9246
# 5 -40.2124 -8.2651 -45.3058 0.0000 35.5326 -0.0001
# 6 0.0001 0.0003 0.0000 -6.9246 -0.0001 20.3760
#
#
#
# Elastic Compliance Matrix: (Units=1/GPa)
#
#
# Indices 1 2 3 4 5 6 
#
# 1 0.017286 0.007407 0.009720 0.000000 0.033678 0.000000
# 2 0.007407 0.028745 0.006007 0.000000 0.022728 0.000000
# 3 0.009720 0.006007 0.027173 0.000000 0.047044 0.000000
# 4 0.000000 0.000000 0.000000 0.030372 0.000000 0.010322
# 5 0.033678 0.022728 0.047044 0.000000 0.131527 0.000000
# 6 0.000000 0.000000 0.000000 0.010322 0.000000 0.052585
#
#
# Mechanical properties :
#
#
# Convention : Reuss Voigt Hill
#
# Bulk Modulus (GPa) = 8.37027 36.15994 22.26510
# Shear Modulus (GPa) = 17.77819 34.29119 26.03469
#
# Velocity S-wave (km/s) = 2.71654 3.77280 3.28737
# Velocity P-wave (km/s) = 3.64882 5.82996 4.86325
#
# Compressibility (1/GPa) = 0.11947053
#
# Stress axis : x y z
#
# Youngs Moduli (GPa) = 57.85083 34.78901 36.80137
#
# Poissons Ratio (x) = -0.25770 -0.35769
# Poissons Ratio (y) = -0.42852 -0.22105
# Poissons Ratio (z) = -0.56229 -0.20896
#
# Static dielectric constant tensor:
#      x y z
#    x 1.897700 0.000000 0.020000 
#    y 0.000000 2.022300 0.000000 
#    z 0.020000 0.000000 1.956240 
# 
# From -- ./inp_files/275711.got.cif
#   From: 2010.05.17/outbox.cif.g08.bks.cpg/sg15_138_cif.got.tgz:275711.got - 2010.06.03 18:47:42.
