data_PCOD9292490
_publ_section_title
;
Structure prediction by ZEFSAII (Michael W. Deem and Ramdas Pophale) SiO2 
 PCOD9292490
Probable space group: C 2/C
;
_chemical_formula_sum "Si O2"
_cell_formula_units_Z 40
_cell_length_a 4.868112
_cell_length_b 17.848121
_cell_length_c 18.174674
_cell_angle_alpha 90.000000
_cell_angle_beta 113.025051
_cell_angle_gamma 90.000000
_cell_volume 1453.332969
_symmetry_space_group_name_H-M "C 2/C"
_symmetry_group_IT_number 15
_symmetry_cell_setting 'monoclinic'
loop_
_space_group_symop_operation_xyz
x,y,z
-x,y,1/2-z
-x,-y,-z
x,-y,1/2+z
1/2+x,1/2+y,z
1/2-x,1/2+y,1/2-z
1/2-x,1/2-y,-z
1/2+x,1/2-y,1/2+z
loop_
_atom_site_type_symbol
_atom_site_label
_atom_site_fract_x
_atom_site_fract_y
_atom_site_fract_z
Si Si1 0.756097 0.566140 0.463218
Si Si2 0.500000 0.173477 0.250000
Si Si3 0.948399 0.944692 0.141504
Si Si4 0.002289 0.715992 0.083434
Si Si5 0.500000 0.565544 0.250000
Si Si6 0.874481 0.354665 0.112323
O O1 0.488662 0.513807 0.407924
O O2 0.195267 0.619446 0.617489
O O3 0.000000 0.500000 0.500000
O O4 0.900791 0.631680 0.428751
O O5 0.452817 0.215722 0.166998
O O6 0.784117 0.119820 0.270541
O O7 0.246459 0.895519 0.171186
O O8 0.812381 0.002507 0.187246
O O9 0.294170 0.768452 0.105067
O O10 0.750000 0.750000 0.000000
O O11 0.335717 0.610409 0.973685
#
# Coordination Sequence:
#
# PCOD9292490 Si02
#       6
#     8   4   8   8   4   8
#     4  10  22  43  73 112 149 204 264 322 386 484
#     4  12  30  51  78 121 160 218 278 342 414 505
#     4  11  24  46  74 110 149 208 267 336 393 485
#     4  12  27  50  82 117 170 215 269 338 419 488
#     4  12  26  49  82 111 158 214 284 344 412 479
#     4  11  25  44  73 114 155 200 260 326 413 477
#
# _framework density 27.522940999999999
#
# number of rings (size 3 to 8) (size 9 to 14) (size 15 to 20)
#    0.000    0.800    2.000    4.800    5.600    4.000 
#    0.000    2.000    0.000    0.000    0.000    0.000 
#    0.000    0.000    0.000    0.000    0.000    0.000 
#
# Total GULP energy -111465.329875 kJ/mol
# GULP energy per Si atom -5573.266494 kJ/mol
# Density = 2.746030 g / cm^3
# Si number density = 27.522941 Si / 1000 Ang^3
#
#
#
# Elastic Constant Matrix: (Units=GPa)
#
#
# Indices 1 2 3 4 5 6 
#
# 1 130.8898 62.1120 41.6615 0.0000 -2.7190 0.0000
# 2 62.1120 219.4158 76.2894 0.0000 -5.4595 0.0000
# 3 41.6615 76.2894 120.8823 0.0000 -5.7668 0.0000
# 4 0.0000 0.0000 0.0000 39.6724 0.0000 -17.8004
# 5 -2.7190 -5.4595 -5.7668 0.0000 28.6279 0.0000
# 6 0.0000 0.0000 0.0000 -17.8004 0.0000 -32.4887
#
#
#
# Elastic Compliance Matrix: (Units=1/GPa)
#
#
# Indices 1 2 3 4 5 6 
#
# 1 0.009171 -0.001917 -0.001946 0.000000 0.000114 0.000000
# 2 -0.001917 0.006243 -0.003263 0.000000 0.000351 0.000000
# 3 -0.001946 -0.003263 0.011070 0.000000 0.001423 0.000000
# 4 0.000000 0.000000 0.000000 0.020233 0.000000 -0.011085
# 5 0.000114 0.000351 0.001423 0.000000 0.035295 0.000000
# 6 0.000000 0.000000 0.000000 -0.011085 0.000000 -0.024706
#
#
# Mechanical properties :
#
#
# Convention : Reuss Voigt Hill
#
# Bulk Modulus (GPa) = 81.73893 92.36818 87.05356
# Shear Modulus (GPa) = 66.10659 26.57063 46.33861
#
# Velocity S-wave (km/s) = 4.90621 3.11046 4.10766
# Velocity P-wave (km/s) = 7.86495 6.82153 7.36175
#
# Compressibility (1/GPa) = 0.01223407
#
# Stress axis : x y z
#
# Youngs Moduli (GPa) = 109.03579 160.16944 90.33301
#
# Poissons Ratio (x) = 0.30703 0.17576
# Poissons Ratio (y) = 0.20901 0.29474
# Poissons Ratio (z) = 0.21215 0.52261
#
# Static dielectric constant tensor:
#      x y z
#    x 2.215240 0.000000 -0.192320 
#    y 0.000000 2.042320 0.000000 
#    z -0.192320 0.000000 3.583910 
# 
# From -- ./inp_files/184729.got.cif
#   From: 2010.05.17/outbox.cif.g08.bks.cpg/sg15_93_cif.got.tgz:184729.got - 2010.06.03 18:47:42.
