data_PCOD9292992
_publ_section_title
;
Structure prediction by ZEFSAII (Michael W. Deem and Ramdas Pophale) SiO2 
 PCOD9292992
Probable space group: C 2/C
;
_chemical_formula_sum "Si O2"
_cell_formula_units_Z 28
_cell_length_a 16.021994
_cell_length_b 13.671151
_cell_length_c 10.298954
_cell_angle_alpha 90.000000
_cell_angle_beta 35.227184
_cell_angle_gamma 90.000000
_cell_volume 1301.232892
_symmetry_space_group_name_H-M "C 2/C"
_symmetry_group_IT_number 15
_symmetry_cell_setting 'monoclinic'
loop_
_space_group_symop_operation_xyz
x,y,z
-x,y,1/2-z
-x,-y,-z
x,-y,1/2+z
1/2+x,1/2+y,z
1/2-x,1/2+y,1/2-z
1/2-x,1/2-y,-z
1/2+x,1/2-y,1/2+z
loop_
_atom_site_type_symbol
_atom_site_label
_atom_site_fract_x
_atom_site_fract_y
_atom_site_fract_z
Si Si1 0.158731 0.478561 0.235294
Si Si2 0.276697 0.724480 0.619180
Si Si3 0.167117 0.178431 0.504255
Si Si4 0.000000 0.352929 0.250000
O O1 0.255236 0.390643 0.173765
O O2 0.000000 0.500000 0.500000
O O3 0.119581 0.427786 0.148720
O O4 0.247729 0.576424 0.107769
O O5 0.250000 0.750000 0.500000
O O6 0.430855 0.779221 0.443091
O O7 0.173969 0.776341 0.851819
O O8 0.250000 0.250000 0.500000
O O9 0.000000 0.165436 0.750000
#
# Coordination Sequence:
#
# PCOD9292992 Si02
#       4
#     8   8   8   4
#     4  11  23  44  72 100 142 189 242 288 367 420
#     4  10  24  44  69  98 139 186 239 282 351 432
#     4  12  28  46  71 111 147 183 238 308 362 418
#     4  10  22  44  70  98 136 194 234 292 342 440
#
# _framework density 21.518053999999999
#
# number of rings (size 3 to 8) (size 9 to 14) (size 15 to 20)
#    0.000    1.143    2.857    1.714   12.000    0.000 
#    0.000    7.143    0.000    0.000    0.000    0.000 
#    0.000    0.000    0.000    0.000    0.000    0.000 
#
# Total GULP energy -78005.686624 kJ/mol
# GULP energy per Si atom -5571.834759 kJ/mol
# Density = 2.146908 g / cm^3
# Si number density = 21.518054 Si / 1000 Ang^3
#
#
#
# Elastic Constant Matrix: (Units=GPa)
#
#
# Indices 1 2 3 4 5 6 
#
# 1 84.1482 61.6604 43.7890 0.0000 -5.1012 0.0000
# 2 61.6604 251.2681 100.2649 0.0000 -16.8618 0.0000
# 3 43.7890 100.2649 187.2668 0.0000 -13.3510 0.0000
# 4 0.0000 0.0000 0.0000 41.4240 0.0000 -8.7626
# 5 -5.1012 -16.8618 -13.3510 0.0000 33.6590 0.0000
# 6 0.0000 0.0000 0.0000 -8.7626 0.0000 33.2764
#
#
#
# Elastic Compliance Matrix: (Units=1/GPa)
#
#
# Indices 1 2 3 4 5 6 
#
# 1 0.015034 -0.002905 -0.001956 0.000000 0.000047 0.000000
# 2 -0.002905 0.005698 -0.002263 0.000000 0.001516 0.000000
# 3 -0.001956 -0.002263 0.007108 0.000000 0.001389 0.000000
# 4 0.000000 0.000000 0.000000 0.025565 0.000000 0.006732
# 5 0.000047 0.001516 0.001389 0.000000 0.031027 0.000000
# 6 0.000000 0.000000 0.000000 0.006732 0.000000 0.031824
#
#
# Mechanical properties :
#
#
# Convention : Reuss Voigt Hill
#
# Bulk Modulus (GPa) = 73.58541 103.79017 88.68779
# Shear Modulus (GPa) = 37.02738 42.80314 39.91526
#
# Velocity S-wave (km/s) = 4.15270 4.46485 4.31160
# Velocity P-wave (km/s) = 7.56733 8.65555 8.12967
#
# Compressibility (1/GPa) = 0.01358965
#
# Stress axis : x y z
#
# Youngs Moduli (GPa) = 66.51732 175.51284 140.68300
#
# Poissons Ratio (x) = 0.50993 0.27524
# Poissons Ratio (y) = 0.19326 0.31838
# Poissons Ratio (z) = 0.13014 0.39720
#
# Static dielectric constant tensor:
#      x y z
#    x 2.022960 0.000000 -0.087740 
#    y 0.000000 1.782970 0.000000 
#    z -0.087740 0.000000 1.890360 
# 
# From -- ./inp_files/27731.got.cif
#   From: 2010.05.17/outbox.cif.g08.bks.cpg/sg15_14_cif.got.tgz:27731.got - 2010.06.03 18:47:42.
