data_PCOD9292917
_publ_section_title
;
Structure prediction by ZEFSAII (Michael W. Deem and Ramdas Pophale) SiO2 
 PCOD9292917
Probable space group: C 2/C
;
_chemical_formula_sum "Si O2"
_cell_formula_units_Z 36
_cell_length_a 7.871098
_cell_length_b 21.103417
_cell_length_c 17.359283
_cell_angle_alpha 90.000000
_cell_angle_beta 32.452111
_cell_angle_gamma 90.000000
_cell_volume 1547.269974
_symmetry_space_group_name_H-M "C 2/C"
_symmetry_group_IT_number 15
_symmetry_cell_setting 'monoclinic'
loop_
_space_group_symop_operation_xyz
x,y,z
-x,y,1/2-z
-x,-y,-z
x,-y,1/2+z
1/2+x,1/2+y,z
1/2-x,1/2+y,1/2-z
1/2-x,1/2-y,-z
1/2+x,1/2-y,1/2+z
loop_
_atom_site_type_symbol
_atom_site_label
_atom_site_fract_x
_atom_site_fract_y
_atom_site_fract_z
Si Si1 0.812621 0.491669 0.932804
Si Si2 0.914547 0.077721 0.696754
Si Si3 0.000000 0.613362 0.250000
Si Si4 0.650443 0.711144 0.845761
Si Si5 0.911374 0.232290 0.094002
O O1 0.992686 0.431820 0.826703
O O2 0.060087 0.548966 0.832635
O O3 0.500000 0.500000 0.000000
O O4 0.667475 0.474306 0.070881
O O5 0.941448 0.138009 0.631035
O O6 0.000000 0.097371 0.750000
O O7 0.305651 0.658821 0.134855
O O8 0.683241 0.738900 0.747105
O O9 0.000000 0.710885 0.750000
O O10 0.449702 0.747767 0.988254
O O11 0.250000 0.250000 0.000000
#
# Coordination Sequence:
#
# PCOD9292917 Si02
#       5
#     8   8   4   8   8
#     4  12  24  46  75 106 145 196 247 300 371 449
#     4  12  26  43  71 110 148 190 244 310 368 442
#     4  12  24  42  74 104 138 192 246 288 370 442
#     4  10  22  44  69  99 139 192 241 295 366 433
#     4  10  24  42  69 103 141 186 245 301 357 438
#
# _framework density 23.266787000000001
#
# number of rings (size 3 to 8) (size 9 to 14) (size 15 to 20)
#    0.000    0.889    4.444    2.000    4.667    2.667 
#    0.000    3.333    0.000    0.000    0.000    0.000 
#    0.000    0.000    0.000    0.000    0.000    0.000 
#
# Total GULP energy -100542.011499 kJ/mol
# GULP energy per Si atom -5585.667306 kJ/mol
# Density = 2.321383 g / cm^3
# Si number density = 23.266787 Si / 1000 Ang^3
#
#
#
# Elastic Constant Matrix: (Units=GPa)
#
#
# Indices 1 2 3 4 5 6 
#
# 1 125.8488 25.4065 57.4215 -0.0004 29.1518 0.0002
# 2 25.4065 73.0507 31.9596 0.0011 4.8110 -0.0002
# 3 57.4215 31.9596 171.5026 -0.0042 18.7881 -0.0003
# 4 -0.0004 0.0011 -0.0042 47.9123 -0.0003 3.1733
# 5 29.1518 4.8110 18.7881 -0.0003 48.8782 0.0000
# 6 0.0002 -0.0002 -0.0003 3.1733 0.0000 35.5882
#
#
#
# Elastic Compliance Matrix: (Units=1/GPa)
#
#
# Indices 1 2 3 4 5 6 
#
# 1 0.010810 -0.002267 -0.002625 0.000000 -0.005215 0.000000
# 2 -0.002267 0.015388 -0.002183 -0.000001 0.000677 0.000000
# 3 -0.002625 -0.002183 0.007226 0.000001 -0.000997 0.000000
# 4 0.000000 -0.000001 0.000001 0.020995 0.000000 -0.001872
# 5 -0.005215 0.000677 -0.000997 0.000000 0.023886 0.000000
# 6 0.000000 0.000000 0.000000 -0.001872 0.000000 0.028266
#
#
# Mechanical properties :
#
#
# Convention : Reuss Voigt Hill
#
# Bulk Modulus (GPa) = 51.88705 66.66415 59.27560
# Shear Modulus (GPa) = 39.32495 43.51670 41.42082
#
# Velocity S-wave (km/s) = 4.11563 4.32943 4.22388
# Velocity P-wave (km/s) = 6.70328 7.32845 7.02282
#
# Compressibility (1/GPa) = 0.01927263
#
# Stress axis : x y z
#
# Youngs Moduli (GPa) = 92.50994 64.98560 138.39393
#
# Poissons Ratio (x) = 0.14735 0.36334
# Poissons Ratio (y) = 0.20976 0.30205
# Poissons Ratio (z) = 0.24288 0.14183
#
# Static dielectric constant tensor:
#      x y z
#    x 1.908850 0.000000 0.008320 
#    y 0.000000 1.879330 0.000000 
#    z 0.008320 0.000000 1.924810 
# 
# From -- ./inp_files/77592.got.cif
#   From: 2010.05.17/outbox.cif.g08.bks.cpg/sg15_39_cif.got.tgz:77592.got - 2010.06.03 18:47:42.
