data_PCOD9292461
_publ_section_title
;
Structure prediction by ZEFSAII (Michael W. Deem and Ramdas Pophale) SiO2 
 PCOD9292461
Probable space group: C 2/C
;
_chemical_formula_sum "Si O2"
_cell_formula_units_Z 32
_cell_length_a 8.237747
_cell_length_b 21.593978
_cell_length_c 11.717010
_cell_angle_alpha 90.000000
_cell_angle_beta 142.198854
_cell_angle_gamma 90.000000
_cell_volume 1277.508277
_symmetry_space_group_name_H-M "C 2/C"
_symmetry_group_IT_number 15
_symmetry_cell_setting 'monoclinic'
loop_
_space_group_symop_operation_xyz
x,y,z
-x,y,1/2-z
-x,-y,-z
x,-y,1/2+z
1/2+x,1/2+y,z
1/2-x,1/2+y,1/2-z
1/2-x,1/2-y,-z
1/2+x,1/2-y,1/2+z
loop_
_atom_site_type_symbol
_atom_site_label
_atom_site_fract_x
_atom_site_fract_y
_atom_site_fract_z
Si Si1 0.774029 0.493033 0.718753
Si Si2 0.150458 0.684752 0.489536
Si Si3 0.672336 0.627224 0.697464
Si Si4 0.904901 0.136718 0.319022
O O1 0.798972 0.559951 0.791172
O O2 0.362101 0.362734 0.457275
O O3 0.717901 0.432649 0.762195
O O4 0.000000 0.483527 0.750000
O O5 0.250000 0.750000 0.500000
O O6 0.363433 0.633419 0.564948
O O7 0.647999 0.825389 0.714668
O O8 0.173764 0.676656 0.639772
O O9 0.500000 0.500000 0.500000
O O10 0.000000 0.158915 0.250000
#
# Coordination Sequence:
#
# PCOD9292461 Si02
#       4
#     8   8   8   8
#     4  10  22  43  72 109 153 197 241 307 388 457
#     4  11  26  46  75 101 139 207 254 298 371 447
#     4  10  25  44  73 105 142 192 251 303 366 444
#     4  11  25  43  74 112 152 188 242 313 380 446
#
# _framework density 25.048759
#
# number of rings (size 3 to 8) (size 9 to 14) (size 15 to 20)
#    0.000    1.500    0.000    3.750   17.500    1.000 
#    0.000    2.500    0.000    0.000    0.000    0.000 
#    0.000    0.000    0.000    0.000    0.000    0.000 
#
# Total GULP energy -89522.506926 kJ/mol
# GULP energy per Si atom -5595.156683 kJ/mol
# Density = 2.499175 g / cm^3
# Si number density = 25.048759 Si / 1000 Ang^3
#
#
#
# Elastic Constant Matrix: (Units=GPa)
#
#
# Indices 1 2 3 4 5 6 
#
# 1 82.1548 12.1174 2.5260 0.0000 -6.6937 0.0000
# 2 12.1174 117.3875 17.3136 0.0000 -13.0902 0.0000
# 3 2.5260 17.3136 100.0184 0.0000 -19.3961 0.0000
# 4 0.0000 0.0000 0.0000 29.4214 0.0000 2.1232
# 5 -6.6937 -13.0902 -19.3961 0.0000 55.6596 0.0000
# 6 0.0000 0.0000 0.0000 2.1232 0.0000 40.9889
#
#
#
# Elastic Compliance Matrix: (Units=1/GPa)
#
#
# Indices 1 2 3 4 5 6 
#
# 1 0.012443 -0.001163 0.000133 0.000000 0.001269 0.000000
# 2 -0.001163 0.008992 -0.001227 0.000000 0.001547 0.000000
# 3 0.000133 -0.001227 0.010890 0.000000 0.003522 0.000000
# 4 0.000000 0.000000 0.000000 0.034116 0.000000 -0.001767
# 5 0.001269 0.001547 0.003522 0.000000 0.019710 0.000000
# 6 0.000000 0.000000 0.000000 -0.001767 0.000000 0.024488
#
#
# Mechanical properties :
#
#
# Convention : Reuss Voigt Hill
#
# Bulk Modulus (GPa) = 35.95501 40.38607 38.17054
# Shear Modulus (GPa) = 40.18492 43.05422 41.61957
#
# Velocity S-wave (km/s) = 4.00968 4.15036 4.08062
# Velocity P-wave (km/s) = 5.98514 6.25502 6.12157
#
# Compressibility (1/GPa) = 0.02781254
#
# Stress axis : x y z
#
# Youngs Moduli (GPa) = 80.36688 111.20573 91.82469
#
# Poissons Ratio (x) = 0.12928 -0.01223
# Poissons Ratio (y) = 0.09343 0.11268
# Poissons Ratio (z) = -0.01070 0.13647
#
# Static dielectric constant tensor:
#      x y z
#    x 2.045070 0.000000 -0.063780 
#    y 0.000000 2.055800 0.000000 
#    z -0.063780 0.000000 1.958280 
# 
# From -- ./inp_files/190106.got.cif
#   From: 2010.05.17/outbox.cif.g08.bks.cpg/sg15_96_cif.got.tgz:190106.got - 2010.06.03 18:47:42.
