data_PCOD9292343
_publ_section_title
;
Structure prediction by ZEFSAII (Michael W. Deem and Ramdas Pophale) SiO2 
 PCOD9292343
Probable space group: C 2/C
;
_chemical_formula_sum "Si O2"
_cell_formula_units_Z 60
_cell_length_a 15.952040
_cell_length_b 11.213946
_cell_length_c 19.168149
_cell_angle_alpha 90.000000
_cell_angle_beta 133.049529
_cell_angle_gamma 90.000000
_cell_volume 2505.716538
_symmetry_space_group_name_H-M "C 2/C"
_symmetry_group_IT_number 15
_symmetry_cell_setting 'monoclinic'
loop_
_space_group_symop_operation_xyz
x,y,z
-x,y,1/2-z
-x,-y,-z
x,-y,1/2+z
1/2+x,1/2+y,z
1/2-x,1/2+y,1/2-z
1/2-x,1/2-y,-z
1/2+x,1/2-y,1/2+z
loop_
_atom_site_type_symbol
_atom_site_label
_atom_site_fract_x
_atom_site_fract_y
_atom_site_fract_z
Si Si1 0.455921 0.772377 0.903698
Si Si2 0.366909 0.978525 0.928939
Si Si3 0.935085 0.799664 0.637560
Si Si4 0.856124 0.312231 0.598612
Si Si5 0.500000 0.388692 0.250000
Si Si6 0.711708 0.940056 0.462846
Si Si7 0.063381 0.883634 0.573917
Si Si8 0.334355 0.550432 0.770981
O O1 0.366054 0.845664 0.898654
O O2 0.528387 0.832472 0.882870
O O3 0.376367 0.671053 0.827781
O O4 0.554851 0.712187 0.007724
O O5 0.285287 0.056698 0.835369
O O6 0.329428 0.985556 0.985815
O O7 0.500000 0.000000 0.000000
O O8 0.839002 0.896545 0.556650
O O9 0.863926 0.674431 0.601181
O O10 0.000000 0.808424 0.750000
O O11 0.013721 0.809791 0.612827
O O12 0.750000 0.250000 0.500000
O O13 0.809578 0.442260 0.596760
O O14 0.900236 0.204262 0.672264
O O15 0.560802 0.468738 0.225160
O O16 0.168585 0.949351 0.671275
O O17 0.000000 0.000000 0.500000
#
# Coordination Sequence:
#
# PCOD9292343 Si02
#       8
#     8   8   8   8   4   8   8   8
#     4  10  23  45  65 103 136 179 237 288 360 418
#     4  12  23  43  65  95 142 182 224 290 362 420
#     4  11  25  45  72 100 141 187 239 291 356 438
#     4  11  24  44  71 101 141 182 237 300 352 422
#     4  10  24  44  70 102 128 180 240 288 354 418
#     4  11  25  44  67 102 138 188 230 291 361 425
#     4  10  22  43  70 100 134 177 232 295 350 420
#     4  10  24  42  70  99 134 181 234 288 345 428
#
# _framework density 23.945246999999998
#
# number of rings (size 3 to 8) (size 9 to 14) (size 15 to 20)
#    0.000    1.333    2.667    1.600    9.333    1.067 
#    4.800    0.000    0.000    0.000    0.000    0.000 
#    0.000    0.000    0.000    0.000    0.000    0.000 
#
# Total GULP energy -167145.943305 kJ/mol
# GULP energy per Si atom -5571.531444 kJ/mol
# Density = 2.389075 g / cm^3
# Si number density = 23.945247 Si / 1000 Ang^3
#
#
#
# Elastic Constant Matrix: (Units=GPa)
#
#
# Indices 1 2 3 4 5 6 
#
# 1 23.3817 5.5180 21.2620 0.0000 -6.7933 0.0000
# 2 5.5180 81.4298 41.7728 0.0000 11.3146 0.0000
# 3 21.2620 41.7728 162.7838 0.0000 11.2474 0.0000
# 4 0.0000 0.0000 0.0000 22.2471 0.0000 7.0047
# 5 -6.7933 11.3146 11.2474 0.0000 33.3209 0.0000
# 6 0.0000 0.0000 0.0000 7.0047 0.0000 22.9021
#
#
#
# Elastic Compliance Matrix: (Units=1/GPa)
#
#
# Indices 1 2 3 4 5 6 
#
# 1 0.054241 -0.001743 -0.007620 0.000000 0.014222 0.000000
# 2 -0.001743 0.014649 -0.003239 0.000000 -0.004236 0.000000
# 3 -0.007620 -0.003239 0.008192 0.000000 -0.003219 0.000000
# 4 0.000000 0.000000 0.000000 0.049740 0.000000 -0.015213
# 5 0.014222 -0.004236 -0.003219 0.000000 0.035436 0.000000
# 6 0.000000 0.000000 0.000000 -0.015213 0.000000 0.048317
#
#
# Mechanical properties :
#
#
# Convention : Reuss Voigt Hill
#
# Bulk Modulus (GPa) = 19.27572 44.96677 32.12125
# Shear Modulus (GPa) = 19.75731 28.96353 24.36042
#
# Velocity S-wave (km/s) = 2.87558 3.48166 3.19303
# Velocity P-wave (km/s) = 4.36951 5.91459 5.19976
#
# Compressibility (1/GPa) = 0.05187872
#
# Stress axis : x y z
#
# Youngs Moduli (GPa) = 18.43610 68.26553 122.07092
#
# Poissons Ratio (x) = 0.11897 0.93021
# Poissons Ratio (y) = 0.03213 0.39536
# Poissons Ratio (z) = 0.14049 0.22110
#
# Static dielectric constant tensor:
#      x y z
#    x 1.851920 0.000000 -0.042560 
#    y 0.000000 1.630370 0.000000 
#    z -0.042560 0.000000 2.086750 
# 
# From -- ./inp_files/248800.got.cif
#   From: 2010.05.17/outbox.cif.g08.bks.cpg/sg15_125_cif.got.tgz:248800.got - 2010.06.03 18:47:42.
