data_PCOD9292287
_publ_section_title
;
Structure prediction by ZEFSAII (Michael W. Deem and Ramdas Pophale) SiO2 
 PCOD9292287
Probable space group: C 2/C
;
_chemical_formula_sum "Si O2"
_cell_formula_units_Z 48
_cell_length_a 15.950597
_cell_length_b 21.029521
_cell_length_c 14.758114
_cell_angle_alpha 90.000000
_cell_angle_beta 156.602586
_cell_angle_gamma 90.000000
_cell_volume 1965.821791
_symmetry_space_group_name_H-M "C 2/C"
_symmetry_group_IT_number 15
_symmetry_cell_setting 'monoclinic'
loop_
_space_group_symop_operation_xyz
x,y,z
-x,y,1/2-z
-x,-y,-z
x,-y,1/2+z
1/2+x,1/2+y,z
1/2-x,1/2+y,1/2-z
1/2-x,1/2-y,-z
1/2+x,1/2-y,1/2+z
loop_
_atom_site_type_symbol
_atom_site_label
_atom_site_fract_x
_atom_site_fract_y
_atom_site_fract_z
Si Si1 0.395429 0.199423 0.898936
Si Si2 0.526488 0.620632 0.441486
Si Si3 0.364385 0.277949 0.043617
Si Si4 0.111812 0.533746 0.764649
Si Si5 0.120675 0.660338 0.963801
Si Si6 0.217148 0.604331 0.303015
O O1 0.195175 0.166470 0.655592
O O2 0.367103 0.256851 0.939395
O O3 0.548275 0.210938 0.965560
O O4 0.513685 0.146543 0.076731
O O5 0.657797 0.566472 0.518250
O O6 0.383805 0.599240 0.385800
O O7 0.369947 0.654483 0.215340
O O8 0.317547 0.353856 0.985675
O O9 0.129427 0.235955 0.830736
O O10 0.135441 0.465830 0.742932
O O11 0.000000 0.521648 0.750000
O O12 0.961952 0.591177 0.582200
O O13 0.000000 0.670288 0.750000
#
# Coordination Sequence:
#
# PCOD9292287 Si02
#       6
#     8   8   8   8   8   8
#     4  10  23  41  68 100 142 186 238 294 350 410
#     4  10  22  43  69 103 137 187 238 288 361 428
#     4  12  24  43  68 101 148 193 239 285 343 416
#     4  10  23  40  65 104 144 181 233 295 355 420
#     4   9  21  44  72 102 137 178 231 300 363 422
#     4  11  24  42  66 100 144 192 237 286 348 421
#
# _framework density 24.417269999999998
#
# number of rings (size 3 to 8) (size 9 to 14) (size 15 to 20)
#    0.000    1.667    1.667    1.500    2.333   13.333 
#    6.000    0.000    0.000    4.000    4.333    0.000 
#    0.000    0.000    0.000    0.000    0.000    0.000 
#
# Total GULP energy -133923.618395 kJ/mol
# GULP energy per Si atom -5580.150766 kJ/mol
# Density = 2.436169 g / cm^3
# Si number density = 24.417270 Si / 1000 Ang^3
#
#
#
# Elastic Constant Matrix: (Units=GPa)
#
#
# Indices 1 2 3 4 5 6 
#
# 1 132.0301 53.5061 42.5507 0.0000 -0.1527 0.0000
# 2 53.5061 123.7596 42.5602 0.0000 -1.7536 0.0000
# 3 42.5507 42.5602 158.8216 -0.0003 -23.6393 -0.0003
# 4 0.0000 0.0000 -0.0003 19.4547 0.0000 -3.7858
# 5 -0.1527 -1.7536 -23.6393 0.0000 54.3562 -0.0001
# 6 0.0000 0.0000 -0.0003 -3.7858 -0.0001 23.9073
#
#
#
# Elastic Compliance Matrix: (Units=1/GPa)
#
#
# Indices 1 2 3 4 5 6 
#
# 1 0.009573 -0.003553 -0.001738 0.000000 -0.000844 0.000000
# 2 -0.003553 0.010252 -0.001869 0.000000 -0.000492 0.000000
# 3 -0.001738 -0.001869 0.007755 0.000000 0.003307 0.000000
# 4 0.000000 0.000000 0.000000 0.053036 0.000000 0.008398
# 5 -0.000844 -0.000492 0.003307 0.000000 0.019817 0.000000
# 6 0.000000 0.000000 0.000000 0.008398 0.000000 0.043158
#
#
# Mechanical properties :
#
#
# Convention : Reuss Voigt Hill
#
# Bulk Modulus (GPa) = 75.41198 76.87172 76.14185
# Shear Modulus (GPa) = 30.80121 37.94326 34.37223
#
# Velocity S-wave (km/s) = 3.55555 3.94630 3.75601
# Velocity P-wave (km/s) = 6.91430 7.23292 7.07541
#
# Compressibility (1/GPa) = 0.01326049
#
# Stress axis : x y z
#
# Youngs Moduli (GPa) = 104.45885 97.54281 128.94749
#
# Poissons Ratio (x) = 0.34657 0.22414
# Poissons Ratio (y) = 0.37115 0.24095
# Poissons Ratio (z) = 0.18158 0.18226
#
# Static dielectric constant tensor:
#      x y z
#    x 2.014520 0.000000 0.036130 
#    y 0.000000 1.932560 0.000000 
#    z 0.036130 0.000000 2.075590 
# 
# From -- ./inp_files/212211.got.cif
#   From: 2010.05.17/outbox.cif.g08.bks.cpg/sg15_107_cif.got.tgz:212211.got - 2010.06.03 18:47:42.
