data_PCOD9292759
_publ_section_title
;
Structure prediction by ZEFSAII (Michael W. Deem and Ramdas Pophale) SiO2 
 PCOD9292759
Probable space group: C 2/C
;
_chemical_formula_sum "Si O2"
_cell_formula_units_Z 52
_cell_length_a 21.872938
_cell_length_b 13.827146
_cell_length_c 6.938805
_cell_angle_alpha 90.000000
_cell_angle_beta 86.080863
_cell_angle_gamma 90.000000
_cell_volume 2093.666812
_symmetry_space_group_name_H-M "C 2/C"
_symmetry_group_IT_number 15
_symmetry_cell_setting 'monoclinic'
loop_
_space_group_symop_operation_xyz
x,y,z
-x,y,1/2-z
-x,-y,-z
x,-y,1/2+z
1/2+x,1/2+y,z
1/2-x,1/2+y,1/2-z
1/2-x,1/2-y,-z
1/2+x,1/2-y,1/2+z
loop_
_atom_site_type_symbol
_atom_site_label
_atom_site_fract_x
_atom_site_fract_y
_atom_site_fract_z
Si Si1 0.903722 0.000034 0.036923
Si Si2 0.689097 0.520566 0.691850
Si Si3 0.253956 0.783395 0.272486
Si Si4 0.192604 0.402792 0.752119
Si Si5 0.633228 0.097613 0.644732
Si Si6 0.004442 0.164424 0.972892
Si Si7 0.500000 0.158389 0.750000
O O1 0.887906 0.987720 0.289645
O O2 0.932933 0.893269 0.003339
O O3 0.827119 0.017467 0.055592
O O4 0.951901 0.087941 0.044372
O O5 0.708883 0.628848 0.736827
O O6 0.749599 0.455454 0.660615
O O7 0.250000 0.750000 0.500000
O O8 0.226531 0.691635 0.162667
O O9 0.322449 0.829510 0.243768
O O10 0.159335 0.487959 0.643306
O O11 0.143149 0.369900 0.921858
O O12 0.563412 0.100755 0.725659
O O13 0.000000 0.179291 0.750000
O O14 0.998526 0.266217 0.075030
#
# Coordination Sequence:
#
# PCOD9292759 Si02
#       7
#     8   8   8   8   8   8   4
#     4  11  22  39  64 100 146 173 234 286 369 439
#     4  11  21  37  68 102 130 186 222 295 372 423
#     4   9  20  38  66  97 132 178 229 292 362 418
#     4  10  22  44  67  96 142 176 234 304 350 427
#     4  10  24  46  67 103 134 183 249 284 365 425
#     4  11  25  44  64 105 144 190 235 298 354 428
#     4  12  28  46  76  98 142 196 252 292 342 432
#
# _framework density 24.836808000000001
#
# number of rings (size 3 to 8) (size 9 to 14) (size 15 to 20)
#    0.000    1.538    1.538    3.692   10.769    0.615 
#    5.538    2.308    0.000    0.000    0.000    0.000 
#    0.000    0.000    0.000    0.000    0.000    0.000 
#
# Total GULP energy -145224.313111 kJ/mol
# GULP energy per Si atom -5585.550504 kJ/mol
# Density = 2.478028 g / cm^3
# Si number density = 24.836808 Si / 1000 Ang^3
#
#
#
# Elastic Constant Matrix: (Units=GPa)
#
#
# Indices 1 2 3 4 5 6 
#
# 1 163.2006 62.5468 46.6971 0.0000 -23.0712 0.0000
# 2 62.5468 157.8865 21.8309 0.0000 0.0106 0.0000
# 3 46.6971 21.8309 127.3104 0.0000 -13.7835 0.0000
# 4 0.0000 0.0000 0.0000 40.4450 0.0000 -0.3583
# 5 -23.0712 0.0106 -13.7835 0.0000 42.7749 0.0000
# 6 0.0000 0.0000 0.0000 -0.3583 0.0000 22.9927
#
#
#
# Elastic Compliance Matrix: (Units=1/GPa)
#
#
# Indices 1 2 3 4 5 6 
#
# 1 0.008463 -0.003054 -0.002162 0.000000 0.003869 0.000000
# 2 -0.003054 0.007595 -0.000374 0.000000 -0.001770 0.000000
# 3 -0.002162 -0.000374 0.008896 0.000000 0.001701 0.000000
# 4 0.000000 0.000000 0.000000 0.024728 0.000000 0.000385
# 5 0.003869 -0.001770 0.001701 0.000000 0.026013 0.000000
# 6 0.000000 0.000000 0.000000 0.000385 0.000000 0.043498
#
#
# Mechanical properties :
#
#
# Convention : Reuss Voigt Hill
#
# Bulk Modulus (GPa) = 72.59311 78.94969 75.77140
# Shear Modulus (GPa) = 37.04640 42.39736 39.72188
#
# Velocity S-wave (km/s) = 3.86630 4.13611 4.00348
# Velocity P-wave (km/s) = 7.01588 7.39367 7.20725
#
# Compressibility (1/GPa) = 0.01377541
#
# Stress axis : x y z
#
# Youngs Moduli (GPa) = 118.15537 131.65931 112.41041
#
# Poissons Ratio (x) = 0.40211 0.24300
# Poissons Ratio (y) = 0.36086 0.04202
# Poissons Ratio (z) = 0.25542 0.04921
#
# Static dielectric constant tensor:
#      x y z
#    x 1.886820 0.000000 0.001140 
#    y 0.000000 1.919190 0.000000 
#    z 0.001140 0.000000 2.425530 
# 
# From -- ./inp_files/55352.got.cif
#   From: 2010.05.17/outbox.cif.g08.bks.cpg/sg15_28_cif.got.tgz:55352.got - 2010.06.03 18:47:42.
