data_PCOD9292413
_publ_section_title
;
Structure prediction by ZEFSAII (Michael W. Deem and Ramdas Pophale) SiO2 
 PCOD9292413
Probable space group: C 2/C
;
_chemical_formula_sum "Si O2"
_cell_formula_units_Z 40
_cell_length_a 7.064118
_cell_length_b 14.282830
_cell_length_c 18.618304
_cell_angle_alpha 90.000000
_cell_angle_beta 124.962320
_cell_angle_gamma 90.000000
_cell_volume 1539.489371
_symmetry_space_group_name_H-M "C 2/C"
_symmetry_group_IT_number 15
_symmetry_cell_setting 'monoclinic'
loop_
_space_group_symop_operation_xyz
x,y,z
-x,y,1/2-z
-x,-y,-z
x,-y,1/2+z
1/2+x,1/2+y,z
1/2-x,1/2+y,1/2-z
1/2-x,1/2-y,-z
1/2+x,1/2-y,1/2+z
loop_
_atom_site_type_symbol
_atom_site_label
_atom_site_fract_x
_atom_site_fract_y
_atom_site_fract_z
Si Si1 0.720419 0.288696 0.254670
Si Si2 0.257858 0.779134 0.099149
Si Si3 0.433221 0.927714 0.921293
Si Si4 0.914753 0.908385 0.944811
Si Si5 0.776945 0.563409 0.242531
O O1 0.500000 0.323497 0.250000
O O2 0.967916 0.300192 0.347465
O O3 0.712583 0.319445 0.170143
O O4 0.699244 0.175870 0.243908
O O5 0.186569 0.669870 0.082922
O O6 0.088878 0.827841 0.006281
O O7 0.663034 0.894778 0.926326
O O8 0.277480 0.973985 0.823430
O O9 0.500000 0.000000 0.000000
O O10 0.910813 0.936967 0.860471
O O11 0.000000 0.000000 0.000000
O O12 0.000000 0.523168 0.250000
#
# Coordination Sequence:
#
# PCOD9292413 Si02
#       5
#     8   8   8   8   8
#     4   9  19  41  73 105 136 186 243 300 367 427
#     4  10  22  43  71 103 146 189 238 300 363 429
#     4  10  22  44  69 107 143 183 246 299 351 429
#     4  11  24  44  65 102 147 193 238 288 362 436
#     4   8  18  40  65  93 143 189 221 292 361 413
#
# _framework density 25.98264
#
# number of rings (size 3 to 8) (size 9 to 14) (size 15 to 20)
#    0.000    2.400    0.000    1.800    2.800    0.800 
#   14.400    2.000    0.000    0.000    0.000    0.000 
#    0.000    0.000    0.000    0.000    0.000    0.000 
#
# Total GULP energy -111778.471653 kJ/mol
# GULP energy per Si atom -5588.923583 kJ/mol
# Density = 2.592350 g / cm^3
# Si number density = 25.982640 Si / 1000 Ang^3
#
#
#
# Elastic Constant Matrix: (Units=GPa)
#
#
# Indices 1 2 3 4 5 6 
#
# 1 175.9494 32.3920 81.9331 0.0000 5.5336 0.0000
# 2 32.3920 100.6576 69.3353 0.0000 9.5393 0.0000
# 3 81.9331 69.3353 297.9159 0.0000 -1.6710 0.0000
# 4 0.0000 0.0000 0.0000 31.9684 0.0000 10.4047
# 5 5.5336 9.5393 -1.6710 0.0000 43.9634 0.0000
# 6 0.0000 0.0000 0.0000 10.4047 0.0000 21.9143
#
#
#
# Elastic Compliance Matrix: (Units=1/GPa)
#
#
# Indices 1 2 3 4 5 6 
#
# 1 0.006629 -0.000964 -0.001602 0.000000 -0.000686 0.000000
# 2 -0.000964 0.012294 -0.002611 0.000000 -0.002645 0.000000
# 3 -0.001602 -0.002611 0.004410 0.000000 0.000936 0.000000
# 4 0.000000 0.000000 0.000000 0.036998 0.000000 -0.017566
# 5 -0.000686 -0.002645 0.000936 0.000000 0.023442 0.000000
# 6 0.000000 0.000000 0.000000 -0.017566 0.000000 0.053973
#
#
# Mechanical properties :
#
#
# Convention : Reuss Voigt Hill
#
# Bulk Modulus (GPa) = 77.05475 104.64931 90.85203
# Shear Modulus (GPa) = 32.80246 45.62671 39.21458
#
# Velocity S-wave (km/s) = 3.55699 4.19507 3.88914
# Velocity P-wave (km/s) = 6.82570 7.98930 7.43031
#
# Compressibility (1/GPa) = 0.01297779
#
# Stress axis : x y z
#
# Youngs Moduli (GPa) = 150.85761 81.33948 226.74403
#
# Poissons Ratio (x) = 0.07844 0.36335
# Poissons Ratio (y) = 0.14548 0.59201
# Poissons Ratio (z) = 0.24174 0.21237
#
# Static dielectric constant tensor:
#      x y z
#    x 2.262510 0.000000 -0.029110 
#    y 0.000000 2.077650 0.000000 
#    z -0.029110 0.000000 2.070150 
# 
# From -- ./inp_files/197470.got.cif
#   From: 2010.05.17/outbox.cif.g08.bks.cpg/sg15_99_cif.got.tgz:197470.got - 2010.06.03 18:47:42.
