data_PCOD9292492
_publ_section_title
;
Structure prediction by ZEFSAII (Michael W. Deem and Ramdas Pophale) SiO2 
 PCOD9292492
Probable space group: C 2/C
;
_chemical_formula_sum "Si O2"
_cell_formula_units_Z 36
_cell_length_a 12.519911
_cell_length_b 13.646078
_cell_length_c 8.459786
_cell_angle_alpha 90.000000
_cell_angle_beta 78.943696
_cell_angle_gamma 90.000000
_cell_volume 1418.508263
_symmetry_space_group_name_H-M "C 2/C"
_symmetry_group_IT_number 15
_symmetry_cell_setting 'monoclinic'
loop_
_space_group_symop_operation_xyz
x,y,z
-x,y,1/2-z
-x,-y,-z
x,-y,1/2+z
1/2+x,1/2+y,z
1/2-x,1/2+y,1/2-z
1/2-x,1/2-y,-z
1/2+x,1/2-y,1/2+z
loop_
_atom_site_type_symbol
_atom_site_label
_atom_site_fract_x
_atom_site_fract_y
_atom_site_fract_z
Si Si1 0.000000 0.829386 0.750000
Si Si2 0.878808 0.628511 0.222266
Si Si3 0.657711 0.449777 0.930626
Si Si4 0.669761 0.640765 0.767720
Si Si5 0.395471 0.138643 0.862434
O O1 0.082539 0.890344 0.831234
O O2 0.067922 0.751924 0.624002
O O3 0.782599 0.575355 0.345660
O O4 0.862803 0.746368 0.233981
O O5 0.000000 0.611628 0.250000
O O6 0.867644 0.598109 0.041694
O O7 0.630786 0.564339 0.913408
O O8 0.641568 0.411520 0.111375
O O9 0.798505 0.641659 0.766052
O O10 0.500000 0.092000 0.750000
#
# Coordination Sequence:
#
# PCOD9292492 Si02
#       5
#     4   8   8   8   8
#     4  10  24  44  70  96 140 172 232 270 342 396
#     4  12  24  45  72 103 136 179 225 281 342 400
#     4  12  27  44  68 104 137 180 228 280 336 407
#     4  12  26  44  69 101 140 178 229 277 340 401
#     4  10  22  43  73  95 137 178 224 273 339 398
#
# _framework density 25.378771
#
# number of rings (size 3 to 8) (size 9 to 14) (size 15 to 20)
#    0.667    0.000    2.222    5.333    4.667    1.778 
#    0.000    4.444    0.000    0.000    0.000    0.000 
#    0.000    0.000    0.000    0.000    0.000    0.000 
#
# Total GULP energy -100915.981178 kJ/mol
# GULP energy per Si atom -5606.443399 kJ/mol
# Density = 2.532101 g / cm^3
# Si number density = 25.378771 Si / 1000 Ang^3
#
#
#
# Elastic Constant Matrix: (Units=GPa)
#
#
# Indices 1 2 3 4 5 6 
#
# 1 126.9763 28.1137 31.4437 0.0000 39.5992 0.0000
# 2 28.1137 188.3158 32.6340 0.0000 0.8332 0.0000
# 3 31.4437 32.6340 131.8994 0.0000 8.6690 0.0000
# 4 0.0000 0.0000 0.0000 40.8359 0.0000 4.6450
# 5 39.5992 0.8332 8.6690 0.0000 42.5588 0.0000
# 6 0.0000 0.0000 0.0000 4.6450 0.0000 -12.9272
#
#
#
# Elastic Compliance Matrix: (Units=1/GPa)
#
#
# Indices 1 2 3 4 5 6 
#
# 1 0.011996 -0.001432 -0.001798 0.000000 -0.010767 0.000000
# 2 -0.001432 0.005720 -0.001170 0.000000 0.001458 0.000000
# 3 -0.001798 -0.001170 0.008299 0.000000 0.000005 0.000000
# 4 0.000000 0.000000 0.000000 0.023527 0.000000 0.008454
# 5 -0.010767 0.001458 0.000005 0.000000 0.033486 0.000000
# 6 0.000000 0.000000 0.000000 0.008454 0.000000 -0.074319
#
#
# Mechanical properties :
#
#
# Convention : Reuss Voigt Hill
#
# Bulk Modulus (GPa) = 58.08386 70.17493 64.12940
# Shear Modulus (GPa) = 215.09400 37.76018 126.42709
#
# Velocity S-wave (km/s) = 9.21615 3.86147 7.06571
# Velocity P-wave (km/s) = 11.66990 6.89872 9.58590
#
# Compressibility (1/GPa) = 0.01721649
#
# Stress axis : x y z
#
# Youngs Moduli (GPa) = 83.36446 174.81809 120.49346
#
# Poissons Ratio (x) = 0.25028 0.21662
# Poissons Ratio (y) = 0.11935 0.14096
# Poissons Ratio (z) = 0.14987 0.20451
#
# Static dielectric constant tensor:
#      x y z
#    x 2.000200 0.000000 -0.070840 
#    y 0.000000 2.017100 0.000000 
#    z -0.070840 0.000000 1.933520 
# 
# From -- ./inp_files/38351.got.cif
#   From: 2010.05.17/outbox.cif.g08.bks.cpg/sg15_20_cif.got.tgz:38351.got - 2010.06.03 18:47:42.
