data_PCOD9292097
_publ_section_title
;
Structure prediction by ZEFSAII (Michael W. Deem and Ramdas Pophale) SiO2 
 PCOD9292097
Probable space group: C 2/C
;
_chemical_formula_sum "Si O2"
_cell_formula_units_Z 56
_cell_length_a 27.004466
_cell_length_b 9.235230
_cell_length_c 10.646568
_cell_angle_alpha 90.000000
_cell_angle_beta 62.682437
_cell_angle_gamma 90.000000
_cell_volume 2359.059725
_symmetry_space_group_name_H-M "C 2/C"
_symmetry_group_IT_number 15
_symmetry_cell_setting 'monoclinic'
loop_
_space_group_symop_operation_xyz
x,y,z
-x,y,1/2-z
-x,-y,-z
x,-y,1/2+z
1/2+x,1/2+y,z
1/2-x,1/2+y,1/2-z
1/2-x,1/2-y,-z
1/2+x,1/2-y,1/2+z
loop_
_atom_site_type_symbol
_atom_site_label
_atom_site_fract_x
_atom_site_fract_y
_atom_site_fract_z
Si Si1 0.230141 0.430484 0.092756
Si Si2 0.912177 0.823986 0.298599
Si Si3 0.476035 0.638018 0.958933
Si Si4 0.310379 0.545521 0.801854
Si Si5 0.940263 0.431651 0.099018
Si Si6 0.750526 0.818693 0.737325
Si Si7 0.877378 0.482836 0.919720
O O1 0.242824 0.278803 0.143800
O O2 0.213995 0.549660 0.218845
O O3 0.180917 0.440647 0.046334
O O4 0.285485 0.484599 0.959649
O O5 0.935866 0.907677 0.391541
O O6 0.873169 0.908838 0.249524
O O7 0.876533 0.689026 0.391604
O O8 0.969261 0.781077 0.162235
O O9 0.500000 0.500000 0.000000
O O10 0.444767 0.758641 0.075789
O O11 0.270530 0.684863 0.823249
O O12 0.303763 0.423389 0.702795
O O13 0.919558 0.460882 0.263512
O O14 0.900149 0.493772 0.034760
O O15 0.000000 0.500000 0.000000
#
# Coordination Sequence:
#
# PCOD9292097 Si02
#       7
#     8   8   8   8   8   8   8
#     4  11  24  42  65  99 137 182 235 285 347 426
#     4  10  22  43  66  94 135 181 220 292 356 403
#     4  10  23  45  67  95 133 171 236 287 351 417
#     4  11  23  43  66  96 139 181 226 287 352 418
#     4  11  23  45  71  99 137 180 231 289 353 415
#     4  10  24  40  64  94 136 176 235 280 343 418
#     4  11  24  41  73 101 139 184 230 287 352 414
#
# _framework density 23.738271999999998
#
# number of rings (size 3 to 8) (size 9 to 14) (size 15 to 20)
#    0.000    1.429    2.857    1.286    4.000    4.571 
#    7.714    0.000    0.000    0.000    0.000    0.000 
#    0.000    0.000    0.000    0.000    0.000    0.000 
#
# Total GULP energy -156036.527077 kJ/mol
# GULP energy per Si atom -5572.733110 kJ/mol
# Density = 2.368424 g / cm^3
# Si number density = 23.738272 Si / 1000 Ang^3
#
#
#
# Elastic Constant Matrix: (Units=GPa)
#
#
# Indices 1 2 3 4 5 6 
#
# 1 110.7079 41.0534 19.9862 0.0000 21.0604 0.0000
# 2 41.0534 111.7154 27.2691 0.0000 23.6147 0.0000
# 3 19.9862 27.2691 59.7121 0.0000 8.2642 0.0000
# 4 0.0000 0.0000 0.0000 33.2089 0.0000 12.5018
# 5 21.0604 23.6147 8.2642 0.0000 33.1783 0.0000
# 6 0.0000 0.0000 0.0000 12.5018 0.0000 43.5750
#
#
#
# Elastic Compliance Matrix: (Units=1/GPa)
#
#
# Indices 1 2 3 4 5 6 
#
# 1 0.011275 -0.002670 -0.001892 0.000000 -0.004785 0.000000
# 2 -0.002670 0.012130 -0.003817 0.000000 -0.005988 0.000000
# 3 -0.001892 -0.003817 0.019245 0.000000 -0.000876 0.000000
# 4 0.000000 0.000000 0.000000 0.033759 0.000000 -0.009685
# 5 -0.004785 -0.005988 -0.000876 0.000000 0.037658 0.000000
# 6 0.000000 0.000000 0.000000 -0.009685 0.000000 0.025728
#
#
# Mechanical properties :
#
#
# Convention : Reuss Voigt Hill
#
# Bulk Modulus (GPa) = 38.62338 50.97252 44.79795
# Shear Modulus (GPa) = 30.26961 34.91421 32.59191
#
# Velocity S-wave (km/s) = 3.57478 3.83926 3.70938
# Velocity P-wave (km/s) = 5.77448 6.41658 6.10398
#
# Compressibility (1/GPa) = 0.02589106
#
# Stress axis : x y z
#
# Youngs Moduli (GPa) = 88.69372 82.44073 51.96234
#
# Poissons Ratio (x) = 0.22011 0.09832
# Poissons Ratio (y) = 0.23680 0.19834
# Poissons Ratio (z) = 0.16783 0.31468
#
# Static dielectric constant tensor:
#      x y z
#    x 1.899150 0.000000 0.016430 
#    y 0.000000 1.908590 0.000000 
#    z 0.016430 0.000000 2.016240 
# 
# From -- ./inp_files/121856.got.cif
#   From: 2010.05.17/outbox.cif.g08.bks.cpg/sg15_61_cif.got.tgz:121856.got - 2010.06.03 18:47:42.
