data_PCOD9292501
_publ_section_title
;
Structure prediction by ZEFSAII (Michael W. Deem and Ramdas Pophale) SiO2 
 PCOD9292501
Probable space group: C 2/C
;
_chemical_formula_sum "Si O2"
_cell_formula_units_Z 64
_cell_length_a 31.640043
_cell_length_b 10.962358
_cell_length_c 8.870338
_cell_angle_alpha 90.000000
_cell_angle_beta 88.011233
_cell_angle_gamma 90.000000
_cell_volume 3074.818876
_symmetry_space_group_name_H-M "C 2/C"
_symmetry_group_IT_number 15
_symmetry_cell_setting 'monoclinic'
loop_
_space_group_symop_operation_xyz
x,y,z
-x,y,1/2-z
-x,-y,-z
x,-y,1/2+z
1/2+x,1/2+y,z
1/2-x,1/2+y,1/2-z
1/2-x,1/2-y,-z
1/2+x,1/2-y,1/2+z
loop_
_atom_site_type_symbol
_atom_site_label
_atom_site_fract_x
_atom_site_fract_y
_atom_site_fract_z
Si Si1 0.898042 0.332716 0.434352
Si Si2 0.466843 0.654408 0.526340
Si Si3 0.720783 0.055192 0.309934
Si Si4 0.131624 0.442101 0.366384
Si Si5 0.644355 0.712548 0.572019
Si Si6 0.554343 0.402394 0.123859
Si Si7 0.720151 0.449418 0.964425
Si Si8 0.822073 0.788842 0.090140
O O1 0.941934 0.269376 0.467403
O O2 0.894447 0.384564 0.267091
O O3 0.889192 0.440319 0.554587
O O4 0.859954 0.235546 0.467651
O O5 0.456038 0.541588 0.418087
O O6 0.450329 0.620294 0.696699
O O7 0.517012 0.670077 0.541996
O O8 0.744113 0.094002 0.155820
O O9 0.709703 0.173539 0.411639
O O10 0.676997 0.984109 0.294565
O O11 0.754473 0.967895 0.384985
O O12 0.138407 0.343396 0.496798
O O13 0.600568 0.638556 0.567578
O O14 0.681771 0.643096 0.481821
O O15 0.657647 0.718698 0.745342
O O16 0.700391 0.582235 0.929856
#
# Coordination Sequence:
#
# PCOD9292501 Si02
#       8
#     8   8   8   8   8   8   8   8
#     4  11  23  45  70  97 133 181 222 275 344 400
#     4  10  22  43  74 101 142 172 218 279 343 412
#     4  11  24  42  60  88 127 173 230 282 342 394
#     4  11  26  43  69  94 134 183 226 279 335 404
#     4  12  25  41  65  96 133 175 227 280 339 404
#     4  10  23  42  70 107 136 174 218 280 346 405
#     4  12  25  38  63  94 126 173 230 283 340 403
#     4  11  23  42  62  89 131 171 225 286 337 404
#
# _framework density 20.814233999999999
#
# number of rings (size 3 to 8) (size 9 to 14) (size 15 to 20)
#    0.000    1.000    2.500    4.875    5.250    1.000 
#    0.000    0.625    0.000    0.000    0.000    0.000 
#    0.000    0.000    0.000    0.000    0.000    0.000 
#
# Total GULP energy -179050.931998 kJ/mol
# GULP energy per Si atom -5595.341625 kJ/mol
# Density = 2.076686 g / cm^3
# Si number density = 20.814234 Si / 1000 Ang^3
#
#
#
# Elastic Constant Matrix: (Units=GPa)
#
#
# Indices 1 2 3 4 5 6 
#
# 1 86.9400 37.2418 26.6212 0.0000 25.3901 0.0000
# 2 37.2418 56.8843 5.8669 0.0000 22.1810 0.0000
# 3 26.6212 5.8669 56.7053 0.0000 21.6298 0.0000
# 4 0.0000 0.0000 0.0000 20.9645 0.0000 14.0906
# 5 25.3901 22.1810 21.6298 0.0000 21.5853 0.0000
# 6 0.0000 0.0000 0.0000 14.0906 0.0000 35.7182
#
#
#
# Elastic Compliance Matrix: (Units=1/GPa)
#
#
# Indices 1 2 3 4 5 6 
#
# 1 0.019283 -0.008531 -0.004633 0.000000 -0.009274 0.000000
# 2 -0.008531 0.041579 0.019705 0.000000 -0.052438 0.000000
# 3 -0.004633 0.019705 0.037905 0.000000 -0.052782 0.000000
# 4 0.000000 0.000000 0.000000 0.064910 0.000000 -0.025607
# 5 -0.009274 -0.052438 -0.052782 0.000000 0.164013 0.000000
# 6 0.000000 0.000000 0.000000 -0.025607 0.000000 0.038099
#
#
# Mechanical properties :
#
#
# Convention : Reuss Voigt Hill
#
# Bulk Modulus (GPa) = 8.94048 37.77660 23.35854
# Shear Modulus (GPa) = 12.82087 24.37360 18.59723
#
# Velocity S-wave (km/s) = 2.48456 3.42571 2.99237
# Velocity P-wave (km/s) = 3.54054 5.81688 4.81516
#
# Compressibility (1/GPa) = 0.11185079
#
# Stress axis : x y z
#
# Youngs Moduli (GPa) = 51.85823 24.05032 26.38206
#
# Poissons Ratio (x) = 0.20516 0.12222
# Poissons Ratio (y) = 0.44238 -0.51986
# Poissons Ratio (z) = 0.24025 -0.47391
#
# Static dielectric constant tensor:
#      x y z
#    x 1.736050 0.000000 -0.026650 
#    y 0.000000 1.730670 0.000000 
#    z -0.026650 0.000000 1.808490 
# 
# From -- ./inp_files/69389.got.cif
#   From: 2010.05.17/outbox.cif.g08.bks.cpg/sg15_35_cif.got.tgz:69389.got - 2010.06.03 18:47:42.
