data_PCOD9292049
_publ_section_title
;
Structure prediction by ZEFSAII (Michael W. Deem and Ramdas Pophale) SiO2 
 PCOD9292049
Probable space group: C 2/C
;
_chemical_formula_sum "Si O2"
_cell_formula_units_Z 64
_cell_length_a 30.603437
_cell_length_b 8.997809
_cell_length_c 15.211246
_cell_angle_alpha 90.000000
_cell_angle_beta 46.289350
_cell_angle_gamma 90.000000
_cell_volume 3027.702282
_symmetry_space_group_name_H-M "C 2/C"
_symmetry_group_IT_number 15
_symmetry_cell_setting 'monoclinic'
loop_
_space_group_symop_operation_xyz
x,y,z
-x,y,1/2-z
-x,-y,-z
x,-y,1/2+z
1/2+x,1/2+y,z
1/2-x,1/2+y,1/2-z
1/2-x,1/2-y,-z
1/2+x,1/2-y,1/2+z
loop_
_atom_site_type_symbol
_atom_site_label
_atom_site_fract_x
_atom_site_fract_y
_atom_site_fract_z
Si Si1 0.942792 0.806216 0.245785
Si Si2 0.942969 0.288721 0.387201
Si Si3 0.710266 0.484054 0.295861
Si Si4 0.201377 0.174019 0.132010
Si Si5 0.658230 0.080349 0.805978
Si Si6 0.886074 0.755923 0.141133
Si Si7 0.633630 0.455012 0.572968
Si Si8 0.570182 0.140116 0.079085
O O1 0.914495 0.815296 0.190167
O O2 0.907348 0.687870 0.356208
O O3 0.010429 0.740112 0.145492
O O4 0.927580 0.956573 0.319354
O O5 0.936673 0.227765 0.494669
O O6 0.883969 0.215098 0.425025
O O7 0.943687 0.465865 0.395449
O O8 0.000000 0.247084 0.250000
O O9 0.718667 0.599281 0.202559
O O10 0.774900 0.441797 0.246723
O O11 0.673298 0.346228 0.305398
O O12 0.669120 0.522652 0.439665
O O13 0.159749 0.311638 0.220577
O O14 0.171617 0.052073 0.109650
O O15 0.250000 0.250000 0.000000
O O16 0.631064 0.917464 0.825750
O O17 0.617392 0.158072 0.936380
#
# Coordination Sequence:
#
# PCOD9292049 Si02
#       8
#     8   8   8   8   8   8   8   8
#     4  11  22  45  64  99 138 175 238 281 349 425
#     4  10  22  43  65  96 131 178 222 289 337 406
#     4  11  23  48  66 102 144 178 236 289 356 422
#     4  12  25  43  69 103 135 185 237 284 354 424
#     4  11  24  41  70  99 139 185 226 293 346 418
#     4  10  24  41  70  98 132 181 227 284 350 413
#     4  11  25  43  71  98 141 185 231 289 351 427
#     4  10  24  42  69  97 138 181 223 294 349 408
#
# _framework density 21.138141000000001
#
# number of rings (size 3 to 8) (size 9 to 14) (size 15 to 20)
#    0.000    1.250    3.750    1.500    7.000    3.000 
#    0.000    3.125    0.000    0.000    0.000    0.000 
#    0.000    0.000    0.000    0.000    0.000    0.000 
#
# Total GULP energy -178416.632039 kJ/mol
# GULP energy per Si atom -5575.519751 kJ/mol
# Density = 2.109003 g / cm^3
# Si number density = 21.138141 Si / 1000 Ang^3
#
#
#
# Elastic Constant Matrix: (Units=GPa)
#
#
# Indices 1 2 3 4 5 6 
#
# 1 58.7049 17.5604 33.7120 0.0000 18.6486 0.0000
# 2 17.5604 69.2501 48.9936 0.0001 -0.0265 0.0000
# 3 33.7120 48.9936 176.0062 0.0000 14.8861 0.0000
# 4 0.0000 0.0001 0.0000 31.5143 0.0000 1.5237
# 5 18.6486 -0.0265 14.8861 0.0000 35.0954 0.0000
# 6 0.0000 0.0000 0.0000 1.5237 0.0000 23.6301
#
#
#
# Elastic Compliance Matrix: (Units=1/GPa)
#
#
# Indices 1 2 3 4 5 6 
#
# 1 0.023249 -0.004272 -0.002301 0.000000 -0.011381 0.000000
# 2 -0.004272 0.018934 -0.004818 0.000000 0.004328 0.000000
# 3 -0.002301 -0.004818 0.007634 0.000000 -0.002019 0.000000
# 4 0.000000 0.000000 0.000000 0.031831 0.000000 -0.002052
# 5 -0.011381 0.004328 -0.002019 0.000000 0.035401 0.000000
# 6 0.000000 0.000000 0.000000 -0.002052 0.000000 0.042451
#
#
# Mechanical properties :
#
#
# Convention : Reuss Voigt Hill
#
# Bulk Modulus (GPa) = 36.98939 56.05480 46.52209
# Shear Modulus (GPa) = 26.13760 31.62766 28.88263
#
# Velocity S-wave (km/s) = 3.52022 3.87232 3.70046
# Velocity P-wave (km/s) = 5.83605 6.82415 6.34935
#
# Compressibility (1/GPa) = 0.02703478
#
# Stress axis : x y z
#
# Youngs Moduli (GPa) = 43.01245 52.81431 130.98472
#
# Poissons Ratio (x) = 0.22560 0.30146
# Poissons Ratio (y) = 0.18373 0.63115
# Poissons Ratio (z) = 0.09899 0.25448
#
# Static dielectric constant tensor:
#      x y z
#    x 1.782470 0.000000 0.004150 
#    y 0.000000 1.804770 0.000000 
#    z 0.004150 0.000000 1.762750 
# 
# From -- ./inp_files/181121.got.cif
#   From: 2010.05.17/outbox.cif.g08.bks.cpg/sg15_91_cif.got.tgz:181121.got - 2010.06.03 18:47:42.
