data_PCOD9292300
_publ_section_title
;
Structure prediction by ZEFSAII (Michael W. Deem and Ramdas Pophale) SiO2 
 PCOD9292300
Probable space group: C 2/C
;
_chemical_formula_sum "Si O2"
_cell_formula_units_Z 60
_cell_length_a 11.447658
_cell_length_b 27.620910
_cell_length_c 9.020976
_cell_angle_alpha 90.000000
_cell_angle_beta 92.706938
_cell_angle_gamma 90.000000
_cell_volume 2849.202287
_symmetry_space_group_name_H-M "C 2/C"
_symmetry_group_IT_number 15
_symmetry_cell_setting 'monoclinic'
loop_
_space_group_symop_operation_xyz
x,y,z
-x,y,1/2-z
-x,-y,-z
x,-y,1/2+z
1/2+x,1/2+y,z
1/2-x,1/2+y,1/2-z
1/2-x,1/2-y,-z
1/2+x,1/2-y,1/2+z
loop_
_atom_site_type_symbol
_atom_site_label
_atom_site_fract_x
_atom_site_fract_y
_atom_site_fract_z
Si Si1 0.000000 0.859229 0.250000
Si Si2 0.631685 0.158758 0.953699
Si Si3 0.233645 0.538471 0.367418
Si Si4 0.513923 0.587980 0.078766
Si Si5 0.246367 0.941976 0.966430
Si Si6 0.627087 0.131720 0.462135
Si Si7 0.762161 0.806719 0.192331
Si Si8 0.633926 0.789426 0.736966
O O1 0.016511 0.885505 0.414481
O O2 0.882909 0.827949 0.262704
O O3 0.657727 0.180781 0.796766
O O4 0.709586 0.110768 0.981722
O O5 0.498350 0.143922 0.977121
O O6 0.664007 0.201634 0.069327
O O7 0.366739 0.557303 0.402633
O O8 0.219837 0.483659 0.417169
O O9 0.205632 0.545351 0.193110
O O10 0.153852 0.575462 0.455682
O O11 0.500000 0.611302 0.250000
O O12 0.394064 0.558183 0.057560
O O13 0.728054 0.161996 0.549109
O O14 0.634010 0.156287 0.301636
O O15 0.783198 0.749539 0.180797
O O16 0.500000 0.772800 0.750000
#
# Coordination Sequence:
#
# PCOD9292300 Si02
#       8
#     4   8   8   8   8   8   8   8
#     4  12  22  38  76 100 132 176 220 290 336 394
#     4  11  24  43  65  94 135 174 214 270 331 399
#     4  11  24  41  66  96 131 175 221 276 332 395
#     4  10  23  43  64 102 138 176 224 280 345 393
#     4  11  24  41  66  96 131 175 221 276 332 395
#     4  11  24  43  65  94 135 174 214 270 331 399
#     4  12  23  42  68  99 128 169 226 269 331 399
#     4  10  22  43  69  93 128 174 217 270 336 395
#
# _framework density 21.058527000000002
#
# number of rings (size 3 to 8) (size 9 to 14) (size 15 to 20)
#    0.000    1.067    4.667    1.600    3.733    0.533 
#    0.000    0.000    2.933    0.000    0.000    0.000 
#    0.000    0.000    0.000    0.000    0.000    0.000 
#
# Total GULP energy -167211.275426 kJ/mol
# GULP energy per Si atom -5573.709181 kJ/mol
# Density = 2.101060 g / cm^3
# Si number density = 21.058527 Si / 1000 Ang^3
#
#
#
# Elastic Constant Matrix: (Units=GPa)
#
#
# Indices 1 2 3 4 5 6 
#
# 1 53.2939 3.0717 -3.9881 0.0000 -7.0184 0.0000
# 2 3.0717 57.3290 18.2860 0.0000 -14.2525 0.0000
# 3 -3.9881 18.2860 74.9159 0.0000 -6.1283 0.0000
# 4 0.0000 0.0000 0.0000 22.2135 0.0000 4.9431
# 5 -7.0184 -14.2525 -6.1283 0.0000 24.9390 0.0000
# 6 0.0000 0.0000 0.0000 4.9431 0.0000 2.7404
#
#
#
# Elastic Compliance Matrix: (Units=1/GPa)
#
#
# Indices 1 2 3 4 5 6 
#
# 1 0.019657 -0.000090 0.001548 0.000000 0.005861 0.000000
# 2 -0.000090 0.021642 -0.004365 0.000000 0.011270 0.000000
# 3 0.001548 -0.004365 0.014622 0.000000 0.001534 0.000000
# 4 0.000000 0.000000 0.000000 0.075205 0.000000 -0.135655
# 5 0.005861 0.011270 0.001534 0.000000 0.048565 0.000000
# 6 0.000000 0.000000 0.000000 -0.135655 0.000000 0.609607
#
#
# Mechanical properties :
#
#
# Convention : Reuss Voigt Hill
#
# Bulk Modulus (GPa) = 19.95777 24.47531 22.21654
# Shear Modulus (GPa) = 6.15904 21.18986 13.67445
#
# Velocity S-wave (km/s) = 1.71204 3.17556 2.55101
# Velocity P-wave (km/s) = 3.66142 5.00933 4.38744
#
# Compressibility (1/GPa) = 0.05010580
#
# Stress axis : x y z
#
# Youngs Moduli (GPa) = 50.87318 46.20571 68.39146
#
# Poissons Ratio (x) = 0.00415 -0.10585
# Poissons Ratio (y) = 0.00457 0.29856
# Poissons Ratio (z) = -0.07874 0.20171
#
# Static dielectric constant tensor:
#      x y z
#    x 1.743270 0.000000 0.010230 
#    y 0.000000 1.728500 0.000000 
#    z 0.010230 0.000000 1.809320 
# 
# From -- ./inp_files/34293.got.cif
#   From: 2010.05.17/outbox.cif.g08.bks.cpg/sg15_18_cif.got.tgz:34293.got - 2010.06.03 18:47:42.
