data_PCOD9292724
_publ_section_title
;
Structure prediction by ZEFSAII (Michael W. Deem and Ramdas Pophale) SiO2 
 PCOD9292724
Probable space group: C 2/C
;
_chemical_formula_sum "Si O2"
_cell_formula_units_Z 32
_cell_length_a 21.370107
_cell_length_b 5.713470
_cell_length_c 12.008623
_cell_angle_alpha 90.000000
_cell_angle_beta 65.405640
_cell_angle_gamma 90.000000
_cell_volume 1333.202452
_symmetry_space_group_name_H-M "C 2/C"
_symmetry_group_IT_number 15
_symmetry_cell_setting 'monoclinic'
loop_
_space_group_symop_operation_xyz
x,y,z
-x,y,1/2-z
-x,-y,-z
x,-y,1/2+z
1/2+x,1/2+y,z
1/2-x,1/2+y,1/2-z
1/2-x,1/2-y,-z
1/2+x,1/2-y,1/2+z
loop_
_atom_site_type_symbol
_atom_site_label
_atom_site_fract_x
_atom_site_fract_y
_atom_site_fract_z
Si Si1 0.031216 0.309854 0.560888
Si Si2 0.838277 0.325816 0.151060
Si Si3 0.397821 0.219557 0.273328
Si Si4 0.726452 0.556817 0.105905
O O1 0.093558 0.198065 0.445134
O O2 0.069864 0.409915 0.642477
O O3 0.000000 0.500000 0.500000
O O4 0.965391 0.177139 0.660177
O O5 0.862427 0.542460 0.212016
O O6 0.789309 0.175737 0.264371
O O7 0.343719 0.410594 0.357388
O O8 0.292263 0.101929 0.580480
O O9 0.750000 0.750000 0.000000
#
# Coordination Sequence:
#
# PCOD9292724 Si02
#       4
#     8   8   8   8
#     4   9  21  42  71  97 134 186 236 293 356 424
#     4  11  23  42  66 100 143 184 235 295 359 429
#     4  10  22  44  67 100 142 184 234 300 357 427
#     4  12  26  40  68 105 141 191 240 290 364 427
#
# _framework density 24.002354
#
# number of rings (size 3 to 8) (size 9 to 14) (size 15 to 20)
#    0.000    1.500    2.500    1.500    3.500    3.000 
#    0.000   22.500    0.000    0.000    0.000    0.000 
#    0.000    0.000    0.000    0.000    0.000    0.000 
#
# Total GULP energy -89252.067747 kJ/mol
# GULP energy per Si atom -5578.254234 kJ/mol
# Density = 2.394772 g / cm^3
# Si number density = 24.002354 Si / 1000 Ang^3
#
#
#
# Elastic Constant Matrix: (Units=GPa)
#
#
# Indices 1 2 3 4 5 6 
#
# 1 148.7787 35.7690 71.1340 0.0000 -14.9688 0.0000
# 2 35.7690 35.8293 45.1680 0.0000 -9.6680 0.0000
# 3 71.1340 45.1680 182.9674 0.0000 -34.6207 0.0000
# 4 0.0000 0.0000 0.0000 39.3908 0.0000 8.4876
# 5 -14.9688 -9.6680 -34.6207 0.0000 53.0402 0.0000
# 6 0.0000 0.0000 0.0000 8.4876 0.0000 38.1899
#
#
#
# Elastic Compliance Matrix: (Units=1/GPa)
#
#
# Indices 1 2 3 4 5 6 
#
# 1 0.009287 -0.006846 -0.001895 0.000000 0.000136 0.000000
# 2 -0.006846 0.045611 -0.008432 0.000000 0.000878 0.000000
# 3 -0.001895 -0.008432 0.009004 0.000000 0.003805 0.000000
# 4 0.000000 0.000000 0.000000 0.026663 0.000000 -0.005926
# 5 0.000136 0.000878 0.003805 0.000000 0.021536 0.000000
# 6 0.000000 0.000000 0.000000 -0.005926 0.000000 0.027502
#
#
# Mechanical properties :
#
#
# Convention : Reuss Voigt Hill
#
# Bulk Modulus (GPa) = 33.83366 74.63528 54.23447
# Shear Modulus (GPa) = 27.20339 40.49114 33.84726
#
# Velocity S-wave (km/s) = 3.37020 4.11172 3.75929
# Velocity P-wave (km/s) = 5.41026 7.32831 6.44108
#
# Compressibility (1/GPa) = 0.02955637
#
# Stress axis : x y z
#
# Youngs Moduli (GPa) = 107.67865 21.92446 111.06541
#
# Poissons Ratio (x) = 0.15009 0.21044
# Poissons Ratio (y) = 0.73715 0.93651
# Poissons Ratio (z) = 0.20403 0.18487
#
# Static dielectric constant tensor:
#      x y z
#    x 1.951050 0.000000 -0.044240 
#    y 0.000000 1.990390 0.000000 
#    z -0.044240 0.000000 1.965090 
# 
# From -- ./inp_files/175086.got.cif
#   From: 2010.05.17/outbox.cif.g08.bks.cpg/sg15_88_cif.got.tgz:175086.got - 2010.06.03 18:47:42.
