data_PCOD9292571
_publ_section_title
;
Structure prediction by ZEFSAII (Michael W. Deem and Ramdas Pophale) SiO2 
 PCOD9292571
Probable space group: C 2/C
;
_chemical_formula_sum "Si O2"
_cell_formula_units_Z 48
_cell_length_a 8.967627
_cell_length_b 17.732805
_cell_length_c 12.347479
_cell_angle_alpha 90.000000
_cell_angle_beta 104.547309
_cell_angle_gamma 90.000000
_cell_volume 1900.561662
_symmetry_space_group_name_H-M "C 2/C"
_symmetry_group_IT_number 15
_symmetry_cell_setting 'monoclinic'
loop_
_space_group_symop_operation_xyz
x,y,z
-x,y,1/2-z
-x,-y,-z
x,-y,1/2+z
1/2+x,1/2+y,z
1/2-x,1/2+y,1/2-z
1/2-x,1/2-y,-z
1/2+x,1/2-y,1/2+z
loop_
_atom_site_type_symbol
_atom_site_label
_atom_site_fract_x
_atom_site_fract_y
_atom_site_fract_z
Si Si1 0.113434 0.222886 0.364471
Si Si2 0.241211 0.933880 0.968470
Si Si3 0.527303 0.097150 0.377519
Si Si4 0.434756 0.258210 0.045771
Si Si5 0.327504 0.412589 0.084278
Si Si6 0.814630 0.376500 0.208382
O O1 0.190722 0.148958 0.423584
O O2 0.216977 0.289851 0.334975
O O3 0.000000 0.198045 0.250000
O O4 0.012335 0.255546 0.443945
O O5 0.399678 0.941693 0.929983
O O6 0.124643 0.000073 0.912673
O O7 0.267538 0.930374 0.101544
O O8 0.500000 0.070028 0.250000
O O9 0.508445 0.188434 0.372790
O O10 0.692356 0.088297 0.467505
O O11 0.448574 0.345825 0.083124
O O12 0.250000 0.250000 0.000000
O O13 0.258106 0.395153 0.189632
O O14 0.000000 0.378984 0.250000
#
# Coordination Sequence:
#
# PCOD9292571 Si02
#       6
#     8   8   8   8   8   8
#     4  11  24  43  71  95 136 183 232 280 342 416
#     4  12  26  41  68 106 132 183 229 284 346 414
#     4  11  24  39  70 100 134 174 239 281 333 410
#     4  10  22  44  63  97 130 178 225 276 342 403
#     4  11  26  42  67 102 144 176 218 293 359 393
#     4  11  22  44  69  95 137 178 229 281 336 413
#
# _framework density 25.255692
#
# number of rings (size 3 to 8) (size 9 to 14) (size 15 to 20)
#    0.000    1.000    3.333    4.000    9.333    0.667 
#    0.000    0.833    0.000    0.000    0.000    0.000 
#    0.000    0.000    0.000    0.000    0.000    0.000 
#
# Total GULP energy -134435.365261 kJ/mol
# GULP energy per Si atom -5601.473553 kJ/mol
# Density = 2.519821 g / cm^3
# Si number density = 25.255692 Si / 1000 Ang^3
#
#
#
# Elastic Constant Matrix: (Units=GPa)
#
#
# Indices 1 2 3 4 5 6 
#
# 1 62.5475 19.4180 34.9504 0.0000 -11.7814 0.0000
# 2 19.4180 157.8102 38.7356 0.0000 0.5704 0.0000
# 3 34.9504 38.7356 192.2923 0.0000 -13.4463 0.0000
# 4 0.0000 0.0000 0.0000 30.6234 0.0000 8.0945
# 5 -11.7814 0.5704 -13.4463 0.0000 21.2839 0.0000
# 6 0.0000 0.0000 0.0000 8.0945 0.0000 27.4933
#
#
#
# Elastic Compliance Matrix: (Units=1/GPa)
#
#
# Indices 1 2 3 4 5 6 
#
# 1 0.019755 -0.001835 -0.002566 0.000000 0.009363 0.000000
# 2 -0.001835 0.006860 -0.001185 0.000000 -0.001948 0.000000
# 3 -0.002566 -0.001185 0.006077 0.000000 0.002450 0.000000
# 4 0.000000 0.000000 0.000000 0.035410 0.000000 -0.010425
# 5 0.009363 -0.001948 0.002450 0.000000 0.053767 0.000000
# 6 0.000000 0.000000 0.000000 -0.010425 0.000000 0.039442
#
#
# Mechanical properties :
#
#
# Convention : Reuss Voigt Hill
#
# Bulk Modulus (GPa) = 46.46665 66.53977 56.50321
# Shear Modulus (GPa) = 27.83089 37.18318 32.50704
#
# Velocity S-wave (km/s) = 3.32319 3.84118 3.59153
# Velocity P-wave (km/s) = 5.75875 6.78797 6.29443
#
# Compressibility (1/GPa) = 0.02152081
#
# Stress axis : x y z
#
# Youngs Moduli (GPa) = 50.61994 145.76600 164.55907
#
# Poissons Ratio (x) = 0.26744 0.42231
# Poissons Ratio (y) = 0.09287 0.19495
# Poissons Ratio (z) = 0.12991 0.17269
#
# Static dielectric constant tensor:
#      x y z
#    x 2.041120 0.000000 0.054720 
#    y 0.000000 2.095960 0.000000 
#    z 0.054720 0.000000 1.933220 
# 
# From -- ./inp_files/87456.got.cif
#   From: 2010.05.17/outbox.cif.g08.bks.cpg/sg15_44_cif.got.tgz:87456.got - 2010.06.03 18:47:42.
