data_PCOD9292199
_publ_section_title
;
Structure prediction by ZEFSAII (Michael W. Deem and Ramdas Pophale) SiO2 
 PCOD9292199
Probable space group: C 2/C
;
_chemical_formula_sum "Si O2"
_cell_formula_units_Z 24
_cell_length_a 8.304099
_cell_length_b 14.403869
_cell_length_c 7.880664
_cell_angle_alpha 90.000000
_cell_angle_beta 96.242139
_cell_angle_gamma 90.000000
_cell_volume 937.026801
_symmetry_space_group_name_H-M "C 2/C"
_symmetry_group_IT_number 15
_symmetry_cell_setting 'monoclinic'
loop_
_space_group_symop_operation_xyz
x,y,z
-x,y,1/2-z
-x,-y,-z
x,-y,1/2+z
1/2+x,1/2+y,z
1/2-x,1/2+y,1/2-z
1/2-x,1/2-y,-z
1/2+x,1/2-y,1/2+z
loop_
_atom_site_type_symbol
_atom_site_label
_atom_site_fract_x
_atom_site_fract_y
_atom_site_fract_z
Si Si1 0.684253 0.976001 0.480075
Si Si2 0.690390 0.697774 0.318713
Si Si3 0.315797 0.630700 0.677496
O O1 0.754844 0.905722 0.629834
O O2 0.706732 0.921293 0.307115
O O3 0.500000 0.000000 0.500000
O O4 0.781464 0.072765 0.504643
O O5 0.500000 0.702053 0.250000
O O6 0.750000 0.750000 0.500000
O O7 0.777856 0.760713 0.187198
O O8 0.500000 0.617015 0.750000
#
# Coordination Sequence:
#
# PCOD9292199 Si02
#       3
#     8   8   8
#     4  11  23  43  67  95 133 182 230 280 336 404
#     4  10  22  43  67  97 135 177 225 278 335 406
#     4  11  23  40  64  98 135 177 224 278 337 402
#
# _framework density 25.612931
#
# number of rings (size 3 to 8) (size 9 to 14) (size 15 to 20)
#    0.000    1.333    0.000    7.000    0.000    5.333 
#    0.000   10.000    0.000    0.000    0.000    0.000 
#    0.000    0.000    0.000    0.000    0.000    0.000 
#
# Total GULP energy -67173.434355 kJ/mol
# GULP energy per Si atom -5597.786196 kJ/mol
# Density = 2.555463 g / cm^3
# Si number density = 25.612931 Si / 1000 Ang^3
#
#
#
# Elastic Constant Matrix: (Units=GPa)
#
#
# Indices 1 2 3 4 5 6 
#
# 1 166.3618 -0.5316 12.3811 0.0000 43.2684 0.0000
# 2 -0.5316 144.0254 26.4261 0.0000 17.5576 0.0000
# 3 12.3811 26.4261 140.7255 0.0000 15.5089 0.0000
# 4 0.0000 0.0000 0.0000 46.5479 0.0000 8.9715
# 5 43.2684 17.5576 15.5089 0.0000 50.3053 0.0000
# 6 0.0000 0.0000 0.0000 8.9715 0.0000 49.1204
#
#
#
# Elastic Compliance Matrix: (Units=1/GPa)
#
#
# Indices 1 2 3 4 5 6 
#
# 1 0.007852 0.000903 -0.000084 0.000000 -0.007043 0.000000
# 2 0.000903 0.007531 -0.001158 0.000000 -0.003048 0.000000
# 3 -0.000084 -0.001158 0.007534 0.000000 -0.001846 0.000000
# 4 0.000000 0.000000 0.000000 0.022267 0.000000 -0.004067
# 5 -0.007043 -0.003048 -0.001846 0.000000 0.027569 0.000000
# 6 0.000000 0.000000 0.000000 -0.004067 0.000000 0.021101
#
#
# Mechanical properties :
#
#
# Convention : Reuss Voigt Hill
#
# Bulk Modulus (GPa) = 44.96620 58.62933 51.79776
# Shear Modulus (GPa) = 49.04618 56.71717 52.88168
#
# Velocity S-wave (km/s) = 4.38070 4.71084 4.54877
# Velocity P-wave (km/s) = 6.57127 7.24773 6.91777
#
# Compressibility (1/GPa) = 0.02223893
#
# Stress axis : x y z
#
# Youngs Moduli (GPa) = 127.35836 132.79254 132.72619
#
# Poissons Ratio (x) = -0.11991 0.01118
# Poissons Ratio (y) = -0.11500 0.15365
# Poissons Ratio (z) = 0.01073 0.15373
#
# Static dielectric constant tensor:
#      x y z
#    x 1.924660 0.000000 -0.066650 
#    y 0.000000 2.006590 0.000000 
#    z -0.066650 0.000000 2.087460 
# 
# From -- ./inp_files/21000.got.cif
#   From: 2010.05.17/outbox.cif.g08.bks.cpg/sg15_11_cif.got.tgz:21000.got - 2010.06.03 18:47:42.
