data_PCOD9292520
_publ_section_title
;
Structure prediction by ZEFSAII (Michael W. Deem and Ramdas Pophale) SiO2 
 PCOD9292520
Probable space group: C 2/C
;
_chemical_formula_sum "Si O2"
_cell_formula_units_Z 56
_cell_length_a 25.236035
_cell_length_b 9.196249
_cell_length_c 20.772526
_cell_angle_alpha 90.000000
_cell_angle_beta 25.039909
_cell_angle_gamma 90.000000
_cell_volume 2040.410493
_symmetry_space_group_name_H-M "C 2/C"
_symmetry_group_IT_number 15
_symmetry_cell_setting 'monoclinic'
loop_
_space_group_symop_operation_xyz
x,y,z
-x,y,1/2-z
-x,-y,-z
x,-y,1/2+z
1/2+x,1/2+y,z
1/2-x,1/2+y,1/2-z
1/2-x,1/2-y,-z
1/2+x,1/2-y,1/2+z
loop_
_atom_site_type_symbol
_atom_site_label
_atom_site_fract_x
_atom_site_fract_y
_atom_site_fract_z
Si Si1 0.526976 0.896038 0.049721
Si Si2 0.318346 0.048760 0.366205
Si Si3 0.944417 0.835901 0.240526
Si Si4 0.276459 0.611996 0.424238
Si Si5 0.290015 0.476131 0.230896
Si Si6 0.682580 0.663931 0.935488
Si Si7 0.484721 0.287632 0.472359
O O1 0.577908 0.016746 0.796259
O O2 0.655451 0.987603 0.907018
O O3 0.553985 0.747544 0.060805
O O4 0.503570 0.843419 0.002076
O O5 0.331692 0.220159 0.352666
O O6 0.329195 0.992882 0.427809
O O7 0.194058 0.969363 0.473458
O O8 0.892755 0.001233 0.294006
O O9 0.000000 0.811269 0.250000
O O10 0.035930 0.788393 0.081506
O O11 0.250000 0.750000 0.500000
O O12 0.264106 0.701320 0.372305
O O13 0.273366 0.397650 0.180678
O O14 0.382392 0.373257 0.169142
O O15 0.372725 0.616723 0.123799
#
# Coordination Sequence:
#
# PCOD9292520 Si02
#       7
#     8   8   8   8   8   8   8
#     4  11  23  43  78 116 158 207 260 328 407 470
#     4  11  26  48  74 116 162 199 270 322 393 485
#     4  12  28  48  78 113 158 210 256 338 408 468
#     4  10  25  50  75 107 150 205 269 323 379 494
#     4  10  22  43  75 108 150 201 254 328 397 459
#     4  10  23  44  76 107 150 206 255 320 386 467
#     4  10  24  45  72 113 157 198 269 324 386 487
#
# _framework density 27.445456
#
# number of rings (size 3 to 8) (size 9 to 14) (size 15 to 20)
#    0.000    1.429    0.000    3.000    6.000   10.286 
#    5.143    0.000    0.000    0.000    0.000    0.000 
#    0.000    0.000    0.000    0.000    0.000    0.000 
#
# Total GULP energy -156553.686604 kJ/mol
# GULP energy per Si atom -5591.203093 kJ/mol
# Density = 2.738299 g / cm^3
# Si number density = 27.445456 Si / 1000 Ang^3
#
#
#
# Elastic Constant Matrix: (Units=GPa)
#
#
# Indices 1 2 3 4 5 6 
#
# 1 140.8195 65.8762 46.5620 0.0000 15.1121 -0.0001
# 2 65.8762 177.8930 48.7572 0.0008 9.1056 -0.0003
# 3 46.5620 48.7572 144.0676 0.0003 13.0378 -0.0001
# 4 0.0000 0.0008 0.0003 58.7660 -0.0001 2.3304
# 5 15.1121 9.1056 13.0378 -0.0001 37.5413 0.0000
# 6 -0.0001 -0.0003 -0.0001 2.3304 0.0000 50.4229
#
#
#
# Elastic Compliance Matrix: (Units=1/GPa)
#
#
# Indices 1 2 3 4 5 6 
#
# 1 0.009281 -0.002812 -0.001829 0.000000 -0.002419 0.000000
# 2 -0.002812 0.007071 -0.001478 0.000000 -0.000070 0.000000
# 3 -0.001829 -0.001478 0.008191 0.000000 -0.001750 0.000000
# 4 0.000000 0.000000 0.000000 0.017048 0.000000 -0.000788
# 5 -0.002419 -0.000070 -0.001750 0.000000 0.028236 0.000000
# 6 0.000000 0.000000 0.000000 -0.000788 0.000000 0.019869
#
#
# Mechanical properties :
#
#
# Convention : Reuss Voigt Hill
#
# Bulk Modulus (GPa) = 81.26532 87.24119 84.25326
# Shear Modulus (GPa) = 47.15421 49.45170 48.30295
#
# Velocity S-wave (km/s) = 4.14950 4.24939 4.19974
# Velocity P-wave (km/s) = 7.25478 7.47880 7.36764
#
# Compressibility (1/GPa) = 0.01230537
#
# Stress axis : x y z
#
# Youngs Moduli (GPa) = 107.74684 141.41706 122.08633
#
# Poissons Ratio (x) = 0.39763 0.22331
# Poissons Ratio (y) = 0.30296 0.18045
# Poissons Ratio (z) = 0.19708 0.20903
#
# Static dielectric constant tensor:
#      x y z
#    x 2.251350 0.000000 -0.028500 
#    y 0.000000 2.194660 0.000000 
#    z -0.028500 0.000000 2.102440 
# 
# From -- ./inp_files/257385.got.cif
#   From: 2010.05.17/outbox.cif.g08.bks.cpg/sg15_129_cif.got.tgz:257385.got - 2010.06.03 18:47:42.
