data_PCOD9292879
_publ_section_title
;
Structure prediction by ZEFSAII (Michael W. Deem and Ramdas Pophale) SiO2 
 PCOD9292879
Probable space group: C 2/C
;
_chemical_formula_sum "Si O2"
_cell_formula_units_Z 32
_cell_length_a 4.937200
_cell_length_b 13.517102
_cell_length_c 17.103343
_cell_angle_alpha 90.000000
_cell_angle_beta 85.390569
_cell_angle_gamma 90.000000
_cell_volume 1137.727842
_symmetry_space_group_name_H-M "C 2/C"
_symmetry_group_IT_number 15
_symmetry_cell_setting 'monoclinic'
loop_
_space_group_symop_operation_xyz
x,y,z
-x,y,1/2-z
-x,-y,-z
x,-y,1/2+z
1/2+x,1/2+y,z
1/2-x,1/2+y,1/2-z
1/2-x,1/2-y,-z
1/2+x,1/2-y,1/2+z
loop_
_atom_site_type_symbol
_atom_site_label
_atom_site_fract_x
_atom_site_fract_y
_atom_site_fract_z
Si Si1 0.361096 0.606666 0.491455
Si Si2 0.489971 0.308952 0.359560
Si Si3 0.847847 0.881326 0.671972
Si Si4 0.016064 0.422833 0.136513
O O1 0.500000 0.500000 0.500000
O O2 0.493855 0.687890 0.546121
O O3 0.420983 0.629708 0.400929
O O4 0.073287 0.592921 0.541964
O O5 0.348791 0.212691 0.331441
O O6 0.793763 0.338420 0.328997
O O7 0.295648 0.401638 0.341987
O O8 0.000000 0.889189 0.750000
O O9 0.651237 0.974977 0.658980
#
# Coordination Sequence:
#
# PCOD9292879 Si02
#       4
#     8   8   8   8
#     4   8  19  42  66  97 123 174 220 262 318 384
#     4  10  22  44  69  93 127 174 218 265 320 387
#     4  11  23  41  66 100 133 170 216 271 329 382
#     4   9  23  43  70  90 131 167 225 262 318 382
#
# _framework density 28.126235000000001
#
# number of rings (size 3 to 8) (size 9 to 14) (size 15 to 20)
#    1.500    1.000    0.000    0.750    0.000    9.000 
#    0.000    2.500    0.000    0.000    0.000    0.000 
#    0.000    0.000    0.000    0.000    0.000    0.000 
#
# Total GULP energy -89666.379623 kJ/mol
# GULP energy per Si atom -5604.148726 kJ/mol
# Density = 2.806222 g / cm^3
# Si number density = 28.126235 Si / 1000 Ang^3
#
#
#
# Elastic Constant Matrix: (Units=GPa)
#
#
# Indices 1 2 3 4 5 6 
#
# 1 133.3312 28.9955 32.5577 0.0000 17.1465 0.0000
# 2 28.9955 159.8389 34.6901 0.0000 31.8773 0.0000
# 3 32.5577 34.6901 231.2185 0.0000 9.8249 0.0000
# 4 0.0000 0.0000 0.0000 21.4217 0.0000 22.6561
# 5 17.1465 31.8773 9.8249 0.0000 38.1779 0.0000
# 6 0.0000 0.0000 0.0000 22.6561 0.0000 37.5161
#
#
#
# Elastic Compliance Matrix: (Units=1/GPa)
#
#
# Indices 1 2 3 4 5 6 
#
# 1 0.008253 -0.000724 -0.000932 0.000000 -0.002862 0.000000
# 2 -0.000724 0.007747 -0.000808 0.000000 -0.005935 0.000000
# 3 -0.000932 -0.000808 0.004581 0.000000 -0.000086 0.000000
# 4 0.000000 0.000000 0.000000 0.129207 0.000000 -0.078029
# 5 -0.002862 -0.005935 -0.000086 0.000000 0.032456 0.000000
# 6 0.000000 0.000000 0.000000 -0.078029 0.000000 0.073777
#
#
# Mechanical properties :
#
#
# Convention : Reuss Voigt Hill
#
# Bulk Modulus (GPa) = 63.88627 79.65279 71.76953
# Shear Modulus (GPa) = 18.78520 47.96615 33.37567
#
# Velocity S-wave (km/s) = 2.58716 4.13411 3.44850
# Velocity P-wave (km/s) = 5.62920 7.15326 6.43650
#
# Compressibility (1/GPa) = 0.01565282
#
# Stress axis : x y z
#
# Youngs Moduli (GPa) = 121.16468 129.08735 218.29253
#
# Poissons Ratio (x) = 0.09347 0.20342
# Poissons Ratio (y) = 0.08773 0.17640
# Poissons Ratio (z) = 0.11291 0.10432
#
# Static dielectric constant tensor:
#      x y z
#    x 2.120490 0.000000 -0.017260 
#    y 0.000000 2.182230 0.000000 
#    z -0.017260 0.000000 2.246730 
# 
# From -- ./inp_files/183869.got.cif
#   From: 2010.05.17/outbox.cif.g08.bks.cpg/sg15_92_cif.got.tgz:183869.got - 2010.06.03 18:47:42.
