data_PCOD9292270
_publ_section_title
;
Structure prediction by ZEFSAII (Michael W. Deem and Ramdas Pophale) SiO2 
 PCOD9292270
Probable space group: C 2/C
;
_chemical_formula_sum "Si O2"
_cell_formula_units_Z 48
_cell_length_a 12.775209
_cell_length_b 18.302134
_cell_length_c 12.473593
_cell_angle_alpha 90.000000
_cell_angle_beta 51.121472
_cell_angle_gamma 90.000000
_cell_volume 2270.428848
_symmetry_space_group_name_H-M "C 2/C"
_symmetry_group_IT_number 15
_symmetry_cell_setting 'monoclinic'
loop_
_space_group_symop_operation_xyz
x,y,z
-x,y,1/2-z
-x,-y,-z
x,-y,1/2+z
1/2+x,1/2+y,z
1/2-x,1/2+y,1/2-z
1/2-x,1/2-y,-z
1/2+x,1/2-y,1/2+z
loop_
_atom_site_type_symbol
_atom_site_label
_atom_site_fract_x
_atom_site_fract_y
_atom_site_fract_z
Si Si1 0.000000 0.966317 0.250000
Si Si2 0.380288 0.943622 0.594978
Si Si3 0.932433 0.293347 0.677753
Si Si4 0.812056 0.907512 0.964178
Si Si5 0.783273 0.923272 0.233719
Si Si6 0.639734 0.218674 0.865266
Si Si7 0.500000 0.717740 0.250000
O O1 0.081920 0.918598 0.282664
O O2 0.100605 0.020642 0.122158
O O3 0.413358 0.876383 0.649859
O O4 0.324008 0.914474 0.517450
O O5 0.500000 0.000000 0.500000
O O6 0.263994 0.993237 0.723052
O O7 0.784315 0.258136 0.775200
O O8 0.000000 0.290036 0.750000
O O9 0.035890 0.258713 0.524963
O O10 0.890096 0.836213 0.872906
O O11 0.796999 0.904524 0.100710
O O12 0.675648 0.866850 0.351126
O O13 0.569449 0.235507 0.797668
#
# Coordination Sequence:
#
# PCOD9292270 Si02
#       7
#     4   8   8   8   8   8   4
#     4   9  22  42  62  98 139 178 240 284 353 422
#     4  11  24  45  68 103 138 180 239 294 360 414
#     4  12  28  50  73 103 147 193 237 294 361 431
#     4  10  22  43  68  98 139 185 233 293 353 426
#     4  11  24  40  71 100 136 186 234 296 353 422
#     4  12  27  47  73 105 143 189 239 297 353 431
#     4  11  24  46  70 102 145 184 240 286 363 430
#
# _framework density 21.141380000000002
#
# number of rings (size 3 to 8) (size 9 to 14) (size 15 to 20)
#    0.000    1.000    3.333    2.000    5.833    1.333 
#    6.000    0.000    0.000    0.000    0.000    0.000 
#    0.000    0.000    0.000    0.000    0.000    0.000 
#
# Total GULP energy -134267.602596 kJ/mol
# GULP energy per Si atom -5594.483442 kJ/mol
# Density = 2.109326 g / cm^3
# Si number density = 21.141380 Si / 1000 Ang^3
#
#
#
# Elastic Constant Matrix: (Units=GPa)
#
#
# Indices 1 2 3 4 5 6 
#
# 1 189.0002 42.4506 64.5917 0.0000 17.2406 0.0000
# 2 42.4506 77.4049 21.0033 0.0000 -3.9820 0.0000
# 3 64.5917 21.0033 113.8970 0.0000 7.3849 0.0000
# 4 0.0000 0.0000 0.0000 21.4490 0.0000 -0.1387
# 5 17.2406 -3.9820 7.3849 0.0000 36.7619 0.0000
# 6 0.0000 0.0000 0.0000 -0.1387 0.0000 30.2509
#
#
#
# Elastic Compliance Matrix: (Units=1/GPa)
#
#
# Indices 1 2 3 4 5 6 
#
# 1 0.007508 -0.003350 -0.003433 0.000000 -0.003194 0.000000
# 2 -0.003350 0.015242 -0.001134 0.000000 0.003450 0.000000
# 3 -0.003433 -0.001134 0.010983 0.000000 -0.000719 0.000000
# 4 0.000000 0.000000 0.000000 0.046624 0.000000 0.000214
# 5 -0.003194 0.003450 -0.000719 0.000000 0.029218 0.000000
# 6 0.000000 0.000000 0.000000 0.000214 0.000000 0.033058
#
#
# Mechanical properties :
#
#
# Convention : Reuss Voigt Hill
#
# Bulk Modulus (GPa) = 55.87519 70.71035 63.29277
# Shear Modulus (GPa) = 30.40741 34.50945 32.45843
#
# Velocity S-wave (km/s) = 3.79659 4.04458 3.92255
# Velocity P-wave (km/s) = 6.76058 7.43845 7.10760
#
# Compressibility (1/GPa) = 0.01789703
#
# Stress axis : x y z
#
# Youngs Moduli (GPa) = 133.18826 65.60889 91.05381
#
# Poissons Ratio (x) = 0.21982 0.31258
# Poissons Ratio (y) = 0.44624 0.10328
# Poissons Ratio (z) = 0.45723 0.07442
#
# Static dielectric constant tensor:
#      x y z
#    x 1.751200 0.000000 -0.047420 
#    y 0.000000 1.760250 0.000000 
#    z -0.047420 0.000000 1.757390 
# 
# From -- ./inp_files/88809.got.cif
#   From: 2010.05.17/outbox.cif.g08.bks.cpg/sg15_45_cif.got.tgz:88809.got - 2010.06.03 18:47:42.
