data_PCOD9292531
_publ_section_title
;
Structure prediction by ZEFSAII (Michael W. Deem and Ramdas Pophale) SiO2 
 PCOD9292531
Probable space group: C 2/C
;
_chemical_formula_sum "Si O2"
_cell_formula_units_Z 40
_cell_length_a 20.556646
_cell_length_b 8.360079
_cell_length_c 8.802029
_cell_angle_alpha 90.000000
_cell_angle_beta 89.704083
_cell_angle_gamma 90.000000
_cell_volume 1512.654143
_symmetry_space_group_name_H-M "C 2/C"
_symmetry_group_IT_number 15
_symmetry_cell_setting 'monoclinic'
loop_
_space_group_symop_operation_xyz
x,y,z
-x,y,1/2-z
-x,-y,-z
x,-y,1/2+z
1/2+x,1/2+y,z
1/2-x,1/2+y,1/2-z
1/2-x,1/2-y,-z
1/2+x,1/2-y,1/2+z
loop_
_atom_site_type_symbol
_atom_site_label
_atom_site_fract_x
_atom_site_fract_y
_atom_site_fract_z
Si Si1 0.445769 0.283914 0.965844
Si Si2 0.000000 0.036745 0.750000
Si Si3 0.000000 0.449208 0.250000
Si Si4 0.632176 0.005336 0.120294
Si Si5 0.181844 0.183195 0.558568
Si Si6 0.774265 0.888400 0.113084
O O1 0.465283 0.358050 0.123830
O O2 0.448492 0.425419 0.840936
O O3 0.500632 0.162834 0.899026
O O4 0.385534 0.163433 0.959247
O O5 0.929403 0.528989 0.266247
O O6 0.634530 0.169570 0.025422
O O7 0.706692 0.973978 0.173155
O O8 0.250000 0.250000 0.500000
O O9 0.187500 0.165790 0.738875
O O10 0.179286 0.013004 0.476611
O O11 0.750000 0.750000 0.000000
#
# Coordination Sequence:
#
# PCOD9292531 Si02
#       6
#     8   4   4   8   8   8
#     4   8  16  31  64 104 155 207 251 320 383 476
#     4   9  14  30  62 104 163 202 264 305 387 466
#     4   7  16  36  68 102 147 206 240 317 385 480
#     4   9  19  40  71 110 152 199 253 316 406 464
#     4  10  22  43  78 107 147 199 259 326 389 468
#     4  11  22  42  78 108 147 195 267 328 391 461
#
# _framework density 26.443587000000001
#
# number of rings (size 3 to 8) (size 9 to 14) (size 15 to 20)
#    1.200    1.600    0.000    2.400    0.000    0.000 
#    0.000    6.000   26.400   13.200    0.000    0.000 
#    0.000    0.000    0.000    0.000    0.000    0.000 
#
# Total GULP energy -111755.170679 kJ/mol
# GULP energy per Si atom -5587.758534 kJ/mol
# Density = 2.638340 g / cm^3
# Si number density = 26.443587 Si / 1000 Ang^3
#
#
#
# Elastic Constant Matrix: (Units=GPa)
#
#
# Indices 1 2 3 4 5 6 
#
# 1 142.8304 43.5698 35.2489 0.0000 -30.6874 0.0000
# 2 43.5698 186.2860 71.4450 0.0000 -3.7853 0.0000
# 3 35.2489 71.4450 131.9144 0.0000 -3.0838 0.0000
# 4 0.0000 0.0000 0.0000 55.3770 0.0000 -17.7791
# 5 -30.6874 -3.7853 -3.0838 0.0000 40.4570 0.0000
# 6 0.0000 0.0000 0.0000 -17.7791 0.0000 48.5850
#
#
#
# Elastic Compliance Matrix: (Units=1/GPa)
#
#
# Indices 1 2 3 4 5 6 
#
# 1 0.009279 -0.001442 -0.001540 0.000000 0.006786 0.000000
# 2 -0.001442 0.007005 -0.003425 0.000000 -0.000699 0.000000
# 3 -0.001540 -0.003425 0.009830 0.000000 -0.000739 0.000000
# 4 0.000000 0.000000 0.000000 0.020462 0.000000 0.007488
# 5 0.006786 -0.000699 -0.000739 0.000000 0.029743 0.000000
# 6 0.000000 0.000000 0.000000 0.007488 0.000000 0.023323
#
#
# Mechanical properties :
#
#
# Convention : Reuss Voigt Hill
#
# Bulk Modulus (GPa) = 75.18542 84.61757 79.90150
# Shear Modulus (GPa) = 42.77600 49.60160 46.18880
#
# Velocity S-wave (km/s) = 4.02634 4.33569 4.18388
# Velocity P-wave (km/s) = 7.07880 7.55864 7.32265
#
# Compressibility (1/GPa) = 0.01330045
#
# Stress axis : x y z
#
# Youngs Moduli (GPa) = 107.76804 142.76395 101.73195
#
# Poissons Ratio (x) = 0.20583 0.15667
# Poissons Ratio (y) = 0.15538 0.34841
# Poissons Ratio (z) = 0.16596 0.48893
#
# Static dielectric constant tensor:
#      x y z
#    x 2.091140 0.000000 -0.052590 
#    y 0.000000 2.191500 0.000000 
#    z -0.052590 0.000000 2.046550 
# 
# From -- ./inp_files/59980.got.cif
#   From: 2010.05.17/outbox.cif.g08.bks.cpg/sg15_30_cif.got.tgz:59980.got - 2010.06.03 18:47:42.
