data_PCOD9292995
_publ_section_title
;
Structure prediction by ZEFSAII (Michael W. Deem and Ramdas Pophale) SiO2 
 PCOD9292995
Probable space group: C 2/C
;
_chemical_formula_sum "Si O2"
_cell_formula_units_Z 52
_cell_length_a 10.913749
_cell_length_b 17.981446
_cell_length_c 12.556366
_cell_angle_alpha 90.000000
_cell_angle_beta 108.346766
_cell_angle_gamma 90.000000
_cell_volume 2338.869707
_symmetry_space_group_name_H-M "C 2/C"
_symmetry_group_IT_number 15
_symmetry_cell_setting 'monoclinic'
loop_
_space_group_symop_operation_xyz
x,y,z
-x,y,1/2-z
-x,-y,-z
x,-y,1/2+z
1/2+x,1/2+y,z
1/2-x,1/2+y,1/2-z
1/2-x,1/2-y,-z
1/2+x,1/2-y,1/2+z
loop_
_atom_site_type_symbol
_atom_site_label
_atom_site_fract_x
_atom_site_fract_y
_atom_site_fract_z
Si Si1 0.000000 0.944242 0.750000
Si Si2 0.309332 0.173475 0.201561
Si Si3 0.370491 0.574555 0.833358
Si Si4 0.500000 0.293347 0.250000
Si Si5 0.410062 0.903567 0.135258
Si Si6 0.500000 0.958890 0.750000
Si Si7 0.859338 0.716418 0.455214
Si Si8 0.977114 0.141957 0.449329
O O1 0.039176 0.890392 0.857626
O O2 0.892622 0.000386 0.769871
O O3 0.402681 0.233164 0.168220
O O4 0.379716 0.094630 0.224760
O O5 0.308389 0.202471 0.322999
O O6 0.170947 0.159103 0.114466
O O7 0.397942 0.647716 0.770594
O O8 0.233103 0.582788 0.854770
O O9 0.486335 0.581445 0.951292
O O10 0.500000 0.863426 0.250000
O O11 0.405511 0.858173 0.026047
O O12 0.478344 0.983799 0.147303
O O13 0.750000 0.750000 0.500000
O O14 0.963764 0.781538 0.492041
#
# Coordination Sequence:
#
# PCOD9292995 Si02
#       8
#     4   8   8   4   8   4   8   8
#     4  11  26  40  70  99 144 180 224 293 346 410
#     4  11  24  45  66 101 141 181 235 289 352 419
#     4  11  23  47  67 105 139 181 234 284 350 427
#     4  10  22  44  70  98 146 172 230 292 344 418
#     4  10  24  44  70  96 138 184 231 289 346 415
#     4   9  24  46  66  93 140 180 224 287 340 426
#     4  12  24  41  70 101 138 178 237 295 347 415
#     4  12  25  42  71 103 137 184 234 286 350 415
#
# _framework density 22.232961
#
# number of rings (size 3 to 8) (size 9 to 14) (size 15 to 20)
#    0.462    0.615    3.077    2.308    5.385    1.231 
#    0.000    0.000    0.000    0.000    0.000    0.000 
#    0.000    0.000    0.000    0.000    0.000    0.000 
#
# Total GULP energy -145024.764602 kJ/mol
# GULP energy per Si atom -5577.875562 kJ/mol
# Density = 2.218236 g / cm^3
# Si number density = 22.232961 Si / 1000 Ang^3
#
#
#
# Elastic Constant Matrix: (Units=GPa)
#
#
# Indices 1 2 3 4 5 6 
#
# 1 78.3194 20.5046 29.5919 0.0000 26.9546 0.0000
# 2 20.5046 115.2890 17.2855 0.0000 2.9726 0.0000
# 3 29.5919 17.2855 66.7538 0.0000 18.5108 0.0000
# 4 0.0000 0.0000 0.0000-3134.0624 0.0000 1182.6970
# 5 26.9546 2.9726 18.5108 0.0000 43.0709 0.0000
# 6 0.0000 0.0000 0.0000 1182.6970 0.0000 -413.0582
#
#
#
# Elastic Compliance Matrix: (Units=1/GPa)
#
#
# Indices 1 2 3 4 5 6 
#
# 1 0.018440 -0.002288 -0.005024 0.000000 -0.009223 0.000000
# 2 -0.002288 0.009315 -0.001835 0.000000 0.001578 0.000000
# 3 -0.005024 -0.001835 0.019046 0.000000 -0.004914 0.000000
# 4 0.000000 0.000000 0.000000 0.003963 0.000000 0.011348
# 5 -0.009223 0.001578 -0.004914 0.000000 0.030992 0.000000
# 6 0.000000 0.000000 0.000000 0.011348 0.000000 0.030071
#
#
# Mechanical properties :
#
#
# Convention : Reuss Voigt Hill
#
# Bulk Modulus (GPa) = 35.08185 43.90289 39.49237
# Shear Modulus (GPa) = 35.81014 -687.94458 -326.06722
#
# Velocity S-wave (km/s) = 4.01768 -17.60958 -12.12344
# Velocity P-wave (km/s) = 6.11030 19.84120 13.34799
#
# Compressibility (1/GPa) = 0.02850477
#
# Stress axis : x y z
#
# Youngs Moduli (GPa) = 54.23035 107.34971 52.50536
#
# Poissons Ratio (x) = 0.24567 0.26380
# Poissons Ratio (y) = 0.12411 0.09636
# Poissons Ratio (z) = 0.27247 0.19701
#
# Static dielectric constant tensor:
#      x y z
#    x 1.719630 0.000000 0.157790 
#    y 0.000000 1.849000 0.000000 
#    z 0.157790 0.000000 1.626680 
# 
# From -- ./inp_files/145821.got.cif
#   From: 2010.05.17/outbox.cif.g08.bks.cpg/sg15_73_cif.got.tgz:145821.got - 2010.06.03 18:47:42.
