data_PCOD9292738
_publ_section_title
;
Structure prediction by ZEFSAII (Michael W. Deem and Ramdas Pophale) SiO2 
 PCOD9292738
Probable space group: C 2/C
;
_chemical_formula_sum "Si O2"
_cell_formula_units_Z 60
_cell_length_a 8.417969
_cell_length_b 22.724117
_cell_length_c 20.446804
_cell_angle_alpha 90.000000
_cell_angle_beta 44.868767
_cell_angle_gamma 90.000000
_cell_volume 2759.356186
_symmetry_space_group_name_H-M "C 2/C"
_symmetry_group_IT_number 15
_symmetry_cell_setting 'monoclinic'
loop_
_space_group_symop_operation_xyz
x,y,z
-x,y,1/2-z
-x,-y,-z
x,-y,1/2+z
1/2+x,1/2+y,z
1/2-x,1/2+y,1/2-z
1/2-x,1/2-y,-z
1/2+x,1/2-y,1/2+z
loop_
_atom_site_type_symbol
_atom_site_label
_atom_site_fract_x
_atom_site_fract_y
_atom_site_fract_z
Si Si1 0.500000 0.282615 0.750000
Si Si2 0.008639 0.093877 0.678801
Si Si3 0.482460 0.096324 0.953295
Si Si4 0.954964 0.950262 0.960429
Si Si5 0.068953 0.846370 0.023519
Si Si6 0.679766 0.530822 0.255637
Si Si7 0.836610 0.288900 0.415092
Si Si8 0.418092 0.868509 0.619775
O O1 0.505367 0.243395 0.682897
O O2 0.716391 0.324532 0.693636
O O3 0.268186 0.071904 0.605928
O O4 0.995580 0.127423 0.615000
O O5 0.000000 0.128831 0.750000
O O6 0.828712 0.040673 0.735350
O O7 0.452190 0.151993 0.912150
O O8 0.309273 0.047970 0.978827
O O9 0.397688 0.116216 0.049152
O O10 0.090983 0.951802 0.853199
O O11 0.013632 0.891059 0.981141
O O12 0.000000 0.000000 0.000000
O O13 0.893761 0.795858 0.059501
O O14 0.336461 0.839053 0.944343
O O15 0.500000 0.542686 0.250000
O O16 0.887245 0.571935 0.172572
O O17 0.750000 0.250000 0.500000
#
# Coordination Sequence:
#
# PCOD9292738 Si02
#       8
#     4   8   8   8   8   8   8   8
#     4  12  24  44  76  94 134 176 236 286 362 402
#     4  10  23  41  63  98 135 183 226 274 339 427
#     4  10  22  44  67  90 139 180 229 283 353 412
#     4  11  21  39  62  95 136 179 219 277 347 406
#     4  10  25  44  68  97 144 175 233 284 351 416
#     4  11  21  38  66  96 137 172 229 272 339 414
#     4  11  25  47  71 100 137 183 230 304 359 410
#     4  11  22  44  72 102 130 181 232 291 338 424
#
# _framework density 21.744201
#
# number of rings (size 3 to 8) (size 9 to 14) (size 15 to 20)
#    0.000    1.333    4.667    0.000    3.733    3.733 
#    0.000    0.000    0.000    0.000    0.000    0.000 
#    0.000    0.000    0.000    0.000    0.000    0.000 
#
# Total GULP energy -167359.786250 kJ/mol
# GULP energy per Si atom -5578.659542 kJ/mol
# Density = 2.169471 g / cm^3
# Si number density = 21.744201 Si / 1000 Ang^3
#
#
#
# Elastic Constant Matrix: (Units=GPa)
#
#
# Indices 1 2 3 4 5 6 
#
# 1 100.0363 17.2115 34.7835 0.0000 13.7938 0.0000
# 2 17.2115 49.0174 40.1130 0.0000 1.8763 0.0000
# 3 34.7835 40.1130 121.3156 0.0000 35.7614 0.0000
# 4 0.0000 0.0000 0.0000 25.8030 0.0000 5.6567
# 5 13.7938 1.8763 35.7614 0.0000 47.6238 0.0000
# 6 0.0000 0.0000 0.0000 5.6567 0.0000 28.5706
#
#
#
# Elastic Compliance Matrix: (Units=1/GPa)
#
#
# Indices 1 2 3 4 5 6 
#
# 1 0.011314 -0.002278 -0.001992 0.000000 -0.001691 0.000000
# 2 -0.002278 0.030683 -0.011983 0.000000 0.008449 0.000000
# 3 -0.001992 -0.011983 0.016011 0.000000 -0.010974 0.000000
# 4 0.000000 0.000000 0.000000 0.040514 0.000000 -0.008021
# 5 -0.001691 0.008449 -0.010974 0.000000 0.029395 0.000000
# 6 0.000000 0.000000 0.000000 -0.008021 0.000000 0.036589
#
#
# Mechanical properties :
#
#
# Convention : Reuss Voigt Hill
#
# Bulk Modulus (GPa) = 39.21118 50.50947 44.86032
# Shear Modulus (GPa) = 24.32922 32.28357 28.30639
#
# Velocity S-wave (km/s) = 3.34860 3.85736 3.61195
# Velocity P-wave (km/s) = 5.74656 6.56645 6.17014
#
# Compressibility (1/GPa) = 0.02550293
#
# Stress axis : x y z
#
# Youngs Moduli (GPa) = 88.38455 32.59083 62.45580
#
# Poissons Ratio (x) = 0.07423 0.12444
# Poissons Ratio (y) = 0.20130 0.74841
# Poissons Ratio (z) = 0.17610 0.39054
#
# Static dielectric constant tensor:
#      x y z
#    x 1.784310 0.000000 -0.025890 
#    y 0.000000 1.799950 0.000000 
#    z -0.025890 0.000000 1.816950 
# 
# From -- ./inp_files/234558.got.cif
#   From: 2010.05.17/outbox.cif.g08.bks.cpg/sg15_118_cif.got.tgz:234558.got - 2010.06.03 18:47:42.
