data_PCOD9292401
_publ_section_title
;
Structure prediction by ZEFSAII (Michael W. Deem and Ramdas Pophale) SiO2 
 PCOD9292401
Probable space group: C 2/C
;
_chemical_formula_sum "Si O2"
_cell_formula_units_Z 44
_cell_length_a 22.061239
_cell_length_b 5.272280
_cell_length_c 19.600784
_cell_angle_alpha 90.000000
_cell_angle_beta 48.817138
_cell_angle_gamma 90.000000
_cell_volume 1715.824597
_symmetry_space_group_name_H-M "C 2/C"
_symmetry_group_IT_number 15
_symmetry_cell_setting 'monoclinic'
loop_
_space_group_symop_operation_xyz
x,y,z
-x,y,1/2-z
-x,-y,-z
x,-y,1/2+z
1/2+x,1/2+y,z
1/2-x,1/2+y,1/2-z
1/2-x,1/2-y,-z
1/2+x,1/2-y,1/2+z
loop_
_atom_site_type_symbol
_atom_site_label
_atom_site_fract_x
_atom_site_fract_y
_atom_site_fract_z
Si Si1 0.709731 0.824308 0.807832
Si Si2 0.677716 0.062417 0.580970
Si Si3 0.430216 0.693071 0.052890
Si Si4 0.045056 0.574940 0.365416
Si Si5 0.000000 0.457273 0.250000
Si Si6 0.711207 0.783451 0.423646
O O1 0.739689 0.075976 0.744888
O O2 0.620164 0.774137 0.843160
O O3 0.718092 0.951881 0.876617
O O4 0.750000 0.250000 0.500000
O O5 0.587736 0.169979 0.664351
O O6 0.672061 0.858107 0.524295
O O7 0.711210 0.887323 0.617875
O O8 0.464729 0.894830 0.971006
O O9 0.500000 0.500000 0.000000
O O10 0.426793 0.794684 0.132198
O O11 0.348979 0.615195 0.076793
O O12 0.024871 0.603448 0.301326
#
# Coordination Sequence:
#
# PCOD9292401 Si02
#       6
#     8   8   8   8   4   8
#     4  11  26  45  73 109 150 197 257 318 380 465
#     4  11  26  46  74 103 153 201 254 321 395 464
#     4  10  22  43  71 101 141 191 250 313 385 461
#     4  10  24  42  68 104 141 193 252 309 386 459
#     4  12  24  48  70 106 150 194 258 328 386 470
#     4  10  24  46  71 107 141 199 253 319 385 470
#
# _framework density 25.643647000000001
#
# number of rings (size 3 to 8) (size 9 to 14) (size 15 to 20)
#    0.000    1.455    1.818    1.091   12.727    0.000 
#    0.000    4.545    0.000    0.000    0.000    0.000 
#    0.000    0.000    0.000    0.000    0.000    0.000 
#
# Total GULP energy -122530.499133 kJ/mol
# GULP energy per Si atom -5569.568142 kJ/mol
# Density = 2.558528 g / cm^3
# Si number density = 25.643647 Si / 1000 Ang^3
#
#
#
# Elastic Constant Matrix: (Units=GPa)
#
#
# Indices 1 2 3 4 5 6 
#
# 1 188.2577 33.1485 55.5678 -0.0223 9.0233 0.0025
# 2 33.1485 46.6460 14.0276 -0.1196 -10.1087 0.0468
# 3 55.5678 14.0276 117.5545 -0.0125 -11.7590 0.0008
# 4 -0.0223 -0.1196 -0.0125 47.9560 -0.0099 -10.5974
# 5 9.0233 -10.1087 -11.7590 -0.0099 74.1475 0.0003
# 6 0.0025 0.0468 0.0008 -10.5974 0.0003 31.6961
#
#
#
# Elastic Compliance Matrix: (Units=1/GPa)
#
#
# Indices 1 2 3 4 5 6 
#
# 1 0.007097 -0.004565 -0.003006 -0.000009 -0.001963 0.000003
# 2 -0.004565 0.025698 -0.000511 0.000059 0.003978 -0.000018
# 3 -0.003006 -0.000511 0.010180 0.000001 0.001911 0.000001
# 4 -0.000009 0.000059 0.000001 0.022516 0.000012 0.007528
# 5 -0.001963 0.003978 0.001911 0.000012 0.014571 -0.000002
# 6 0.000003 -0.000018 0.000001 0.007528 -0.000002 0.034067
#
#
# Mechanical properties :
#
#
# Convention : Reuss Voigt Hill
#
# Bulk Modulus (GPa) = 37.29837 61.99400 49.64618
# Shear Modulus (GPa) = 35.91199 47.40755 41.65977
#
# Velocity S-wave (km/s) = 3.74628 4.30432 4.03496
# Velocity P-wave (km/s) = 5.76969 6.99504 6.41170
#
# Compressibility (1/GPa) = 0.02681082
#
# Stress axis : x y z
#
# Youngs Moduli (GPa) = 140.90249 38.91384 98.23284
#
# Poissons Ratio (x) = 0.17763 0.29533
# Poissons Ratio (y) = 0.64319 0.05018
# Poissons Ratio (z) = 0.42361 0.01988
#
# Static dielectric constant tensor:
#      x y z
#    x 2.242610 -0.000230 -0.189260 
#    y -0.000230 2.159350 0.000110 
#    z -0.189260 0.000110 2.258360 
# 
# From -- ./inp_files/253956.got.cif
#   From: 2010.05.17/outbox.cif.g08.bks.cpg/sg15_127_cif.got.tgz:253956.got - 2010.06.03 18:47:42.
