data_PCOD9292771
_publ_section_title
;
Structure prediction by ZEFSAII (Michael W. Deem and Ramdas Pophale) SiO2 
 PCOD9292771
Probable space group: C 2/C
;
_chemical_formula_sum "Si O2"
_cell_formula_units_Z 60
_cell_length_a 5.197299
_cell_length_b 18.363205
_cell_length_c 25.059988
_cell_angle_alpha 90.000000
_cell_angle_beta 99.849800
_cell_angle_gamma 90.000000
_cell_volume 2356.447194
_symmetry_space_group_name_H-M "C 2/C"
_symmetry_group_IT_number 15
_symmetry_cell_setting 'monoclinic'
loop_
_space_group_symop_operation_xyz
x,y,z
-x,y,1/2-z
-x,-y,-z
x,-y,1/2+z
1/2+x,1/2+y,z
1/2-x,1/2+y,1/2-z
1/2-x,1/2-y,-z
1/2+x,1/2-y,1/2+z
loop_
_atom_site_type_symbol
_atom_site_label
_atom_site_fract_x
_atom_site_fract_y
_atom_site_fract_z
Si Si1 0.806321 0.175309 0.032977
Si Si2 0.637808 0.390009 0.451850
Si Si3 0.380657 0.036316 0.425725
Si Si4 0.000000 0.279220 0.250000
Si Si5 0.829096 0.687509 0.191358
Si Si6 0.314362 0.532482 0.356561
Si Si7 0.739272 0.121908 0.836749
Si Si8 0.136977 0.720428 0.607871
O O1 0.602012 0.116685 0.048263
O O2 0.964478 0.208664 0.088509
O O3 0.750000 0.250000 0.000000
O O4 0.972011 0.125128 0.998269
O O5 0.793183 0.465948 0.457319
O O6 0.460904 0.384128 0.391054
O O7 0.810744 0.319169 0.446174
O O8 0.651530 0.020606 0.405683
O O9 0.124850 0.039894 0.377434
O O10 0.932154 0.225466 0.295706
O O11 0.774237 0.331438 0.218280
O O12 0.795187 0.606332 0.171449
O O13 0.889729 0.742976 0.145016
O O14 0.000000 0.690141 0.250000
O O15 0.232907 0.462302 0.319599
O O16 0.496848 0.156742 0.861526
#
# Coordination Sequence:
#
# PCOD9292771 Si02
#       8
#     8   8   8   4   8   8   8   8
#     4  12  25  41  69 105 137 192 234 301 349 420
#     4  11  23  43  69  96 141 184 239 283 359 417
#     4  11  26  48  69 104 141 195 235 295 347 430
#     4  10  24  44  70 104 138 176 238 286 364 414
#     4  11  25  41  72 101 139 182 231 295 355 418
#     4  11  25  46  75 102 144 186 239 291 358 418
#     4  10  22  44  67  99 136 186 224 295 345 432
#     4  11  22  44  66 102 137 180 237 289 356 420
#
# _framework density 25.462060999999999
#
# number of rings (size 3 to 8) (size 9 to 14) (size 15 to 20)
#    0.000    1.067    4.000    1.600    4.667    1.067 
#    0.000    2.667    0.000    0.000    0.000    0.000 
#    0.000    0.000    0.000    0.000    0.000    0.000 
#
# Total GULP energy -167528.823090 kJ/mol
# GULP energy per Si atom -5584.294103 kJ/mol
# Density = 2.540411 g / cm^3
# Si number density = 25.462061 Si / 1000 Ang^3
#
#
#
# Elastic Constant Matrix: (Units=GPa)
#
#
# Indices 1 2 3 4 5 6 
#
# 1 52.1881 13.7766 8.8532 0.0000 14.0080 0.0000
# 2 13.7766 180.0996 44.8217 0.0000 20.6995 0.0000
# 3 8.8532 44.8217 77.8565 0.0000 20.3399 0.0000
# 4 0.0000 0.0000 0.0000 58.0991 0.0000 -2.0517
# 5 14.0080 20.6995 20.3399 0.0000 45.0646 0.0000
# 6 0.0000 0.0000 0.0000 -2.0517 0.0000 37.3511
#
#
#
# Elastic Compliance Matrix: (Units=1/GPa)
#
#
# Indices 1 2 3 4 5 6 
#
# 1 0.021052 -0.000834 -0.000345 0.000000 -0.006005 0.000000
# 2 -0.000834 0.006601 -0.003379 0.000000 -0.001247 0.000000
# 3 -0.000345 -0.003379 0.016320 0.000000 -0.005707 0.000000
# 4 0.000000 0.000000 0.000000 0.017245 0.000000 0.000947
# 5 -0.006005 -0.001247 -0.005707 0.000000 0.027206 0.000000
# 6 0.000000 0.000000 0.000000 0.000947 0.000000 0.026825
#
#
# Mechanical properties :
#
#
# Convention : Reuss Voigt Hill
#
# Bulk Modulus (GPa) = 28.68981 49.44970 39.06976
# Shear Modulus (GPa) = 36.76918 44.28247 40.52583
#
# Velocity S-wave (km/s) = 3.80422 4.17484 3.99383
# Velocity P-wave (km/s) = 5.53067 6.53469 6.05353
#
# Compressibility (1/GPa) = 0.03485558
#
# Stress axis : x y z
#
# Youngs Moduli (GPa) = 47.50137 151.49989 61.27609
#
# Poissons Ratio (x) = 0.12641 0.02112
# Poissons Ratio (y) = 0.03964 0.20707
# Poissons Ratio (z) = 0.01637 0.51196
#
# Static dielectric constant tensor:
#      x y z
#    x 2.236360 0.000000 0.071020 
#    y 0.000000 1.981690 0.000000 
#    z 0.071020 0.000000 2.193920 
# 
# From -- ./inp_files/286066.got.cif
#   From: 2010.05.17/outbox.cif.g08.bks.cpg/sg15_144_cif.got.tgz:286066.got - 2010.06.03 18:47:42.
