data_PCOD9292728
_publ_section_title
;
Structure prediction by ZEFSAII (Michael W. Deem and Ramdas Pophale) SiO2 
 PCOD9292728
Probable space group: C 2/C
;
_chemical_formula_sum "Si O2"
_cell_formula_units_Z 40
_cell_length_a 21.237948
_cell_length_b 5.166600
_cell_length_c 28.236759
_cell_angle_alpha 90.000000
_cell_angle_beta 29.027279
_cell_angle_gamma 90.000000
_cell_volume 1503.406020
_symmetry_space_group_name_H-M "C 2/C"
_symmetry_group_IT_number 15
_symmetry_cell_setting 'monoclinic'
loop_
_space_group_symop_operation_xyz
x,y,z
-x,y,1/2-z
-x,-y,-z
x,-y,1/2+z
1/2+x,1/2+y,z
1/2-x,1/2+y,1/2-z
1/2-x,1/2-y,-z
1/2+x,1/2-y,1/2+z
loop_
_atom_site_type_symbol
_atom_site_label
_atom_site_fract_x
_atom_site_fract_y
_atom_site_fract_z
Si Si1 0.812941 0.656219 0.228207
Si Si2 0.298425 0.454843 0.329820
Si Si3 0.297002 0.039225 0.507301
Si Si4 0.953980 0.310427 0.328637
Si Si5 0.070290 0.750523 0.435970
O O1 0.793557 0.364252 0.222896
O O2 0.931355 0.762295 0.119682
O O3 0.809088 0.722928 0.285297
O O4 0.223995 0.357727 0.425665
O O5 0.441723 0.578474 0.239149
O O6 0.211699 0.687168 0.364685
O O7 0.250000 0.250000 0.500000
O O8 0.191024 0.805650 0.582078
O O9 0.432196 0.943127 0.394488
O O10 0.000000 0.460346 0.250000
O O11 0.000000 0.500000 0.500000
O O12 0.000000 0.000000 0.500000
#
# Coordination Sequence:
#
# PCOD9292728 Si02
#       5
#     8   8   8   8   8
#     4  10  22  45  67 101 143 184 241 296 353 432
#     4  10  23  43  70 101 138 199 228 295 385 417
#     4  10  22  44  67 103 137 175 244 297 354 441
#     4   9  21  44  65  95 138 176 232 292 355 437
#     4  11  24  44  68 103 146 184 247 301 347 434
#
# _framework density 26.606249999999999
#
# number of rings (size 3 to 8) (size 9 to 14) (size 15 to 20)
#    0.000    2.000    0.000    2.400    2.800    4.000 
#   39.600    0.000    0.000    0.000    0.000    0.000 
#    0.000    0.000    0.000    0.000    0.000    0.000 
#
# Total GULP energy -111636.563709 kJ/mol
# GULP energy per Si atom -5581.828185 kJ/mol
# Density = 2.654569 g / cm^3
# Si number density = 26.606250 Si / 1000 Ang^3
#
#
#
# Elastic Constant Matrix: (Units=GPa)
#
#
# Indices 1 2 3 4 5 6 
#
# 1 100.8810 13.6462 71.0089 0.1520 49.0218 -0.5434
# 2 13.6462 98.1371 46.7902 -0.0852 11.8789 -0.7462
# 3 71.0089 46.7902 245.5929 0.0236 63.6106 -0.1170
# 4 0.1520 -0.0852 0.0236 61.7128 0.0207 8.5833
# 5 49.0218 11.8789 63.6106 0.0207 77.5463 -0.0103
# 6 -0.5434 -0.7462 -0.1170 8.5833 -0.0103 32.2941
#
#
#
# Elastic Compliance Matrix: (Units=1/GPa)
#
#
# Indices 1 2 3 4 5 6 
#
# 1 0.015390 -0.000039 -0.002443 -0.000071 -0.007719 0.000266
# 2 -0.000039 0.011210 -0.002141 -0.000019 0.000064 0.000256
# 3 -0.002443 -0.002141 0.005969 0.000012 -0.003024 -0.000073
# 4 -0.000071 -0.000019 0.000012 0.016826 0.000033 -0.004474
# 5 -0.007719 0.000064 -0.003024 0.000033 0.020246 -0.000142
# 6 0.000266 0.000256 -0.000073 -0.004474 -0.000142 0.032165
#
#
# Mechanical properties :
#
#
# Convention : Reuss Voigt Hill
#
# Bulk Modulus (GPa) = 42.87427 78.61131 60.74279
# Shear Modulus (GPa) = 42.07809 55.18838 48.63323
#
# Velocity S-wave (km/s) = 3.98114 4.55935 4.28002
# Velocity P-wave (km/s) = 6.10589 7.57147 6.87783
#
# Compressibility (1/GPa) = 0.02332401
#
# Stress axis : x y z
#
# Youngs Moduli (GPa) = 64.97742 89.20456 167.52536
#
# Poissons Ratio (x) = 0.00348 0.40924
# Poissons Ratio (y) = 0.00253 0.35864
# Poissons Ratio (z) = 0.15873 0.19097
#
# Static dielectric constant tensor:
#      x y z
#    x 2.365320 -0.000830 -0.007970 
#    y -0.000830 2.085040 0.000020 
#    z -0.007970 0.000020 2.136930 
# 
# From -- ./inp_files/318266.got.cif
#   From: 2010.05.17/outbox.cif.g08.bks.cpg/sg15_160_cif.got.tgz:318266.got - 2010.06.03 18:47:42.
