data_PCOD9292388
_publ_section_title
;
Structure prediction by ZEFSAII (Michael W. Deem and Ramdas Pophale) SiO2 
 PCOD9292388
Probable space group: C 2/C
;
_chemical_formula_sum "Si O2"
_cell_formula_units_Z 44
_cell_length_a 14.469419
_cell_length_b 28.345425
_cell_length_c 5.542771
_cell_angle_alpha 90.000000
_cell_angle_beta 118.703658
_cell_angle_gamma 90.000000
_cell_volume 1993.966185
_symmetry_space_group_name_H-M "C 2/C"
_symmetry_group_IT_number 15
_symmetry_cell_setting 'monoclinic'
loop_
_space_group_symop_operation_xyz
x,y,z
-x,y,1/2-z
-x,-y,-z
x,-y,1/2+z
1/2+x,1/2+y,z
1/2-x,1/2+y,1/2-z
1/2-x,1/2-y,-z
1/2+x,1/2-y,1/2+z
loop_
_atom_site_type_symbol
_atom_site_label
_atom_site_fract_x
_atom_site_fract_y
_atom_site_fract_z
Si Si1 0.000000 0.665418 0.250000
Si Si2 0.900685 0.132740 0.991853
Si Si3 0.500000 0.557309 0.750000
Si Si4 0.268869 0.194687 0.014669
Si Si5 0.724365 0.111229 0.131837
Si Si6 0.226808 0.976702 0.557072
Si Si7 0.500000 0.889204 0.250000
O O1 0.888187 0.690412 0.064700
O O2 0.983786 0.636732 0.475063
O O3 0.823584 0.168659 0.753312
O O4 0.956629 0.093260 0.898542
O O5 0.824176 0.106419 0.083978
O O6 0.000000 0.157312 0.250000
O O7 0.399576 0.525073 0.571513
O O8 0.271921 0.165420 0.271375
O O9 0.250000 0.250000 0.000000
O O10 0.737858 0.077747 0.379563
O O11 0.618924 0.092254 0.870860
O O12 0.262882 0.998098 0.349370
#
# Coordination Sequence:
#
# PCOD9292388 Si02
#       7
#     4   8   4   8   8   8   4
#     4  10  22  43  70  99 136 188 244 281 349 430
#     4  12  22  42  70 103 148 188 234 303 372 426
#     4  12  24  41  66 102 149 193 230 296 365 442
#     4  11  25  45  70 102 143 190 244 298 367 439
#     4  11  24  45  69 100 141 187 244 300 365 426
#     4  12  26  42  70 104 143 191 244 295 365 446
#     4  10  22  44  74  95 131 193 232 293 352 428
#
# _framework density 22.066573000000002
#
# number of rings (size 3 to 8) (size 9 to 14) (size 15 to 20)
#    0.000    0.727    5.455    1.636    0.000    2.909 
#    6.545    0.909    0.000    0.000    0.000    0.000 
#    0.000    0.000    0.000    0.000    0.000    0.000 
#
# Total GULP energy -122653.875481 kJ/mol
# GULP energy per Si atom -5575.176158 kJ/mol
# Density = 2.201635 g / cm^3
# Si number density = 22.066573 Si / 1000 Ang^3
#
#
#
# Elastic Constant Matrix: (Units=GPa)
#
#
# Indices 1 2 3 4 5 6 
#
# 1 116.4694 8.6149 35.4100 0.0000 12.1231 0.0000
# 2 8.6149 80.5710 27.4633 0.0000 -15.8488 0.0000
# 3 35.4100 27.4633 113.9374 0.0000 17.4962 0.0000
# 4 0.0000 0.0000 0.0000 17.3999 0.0000 0.4589
# 5 12.1231 -15.8488 17.4962 0.0000 57.9733 0.0000
# 6 0.0000 0.0000 0.0000 0.4589 0.0000 18.4736
#
#
#
# Elastic Compliance Matrix: (Units=1/GPa)
#
#
# Indices 1 2 3 4 5 6 
#
# 1 0.009564 -0.000360 -0.002688 0.000000 -0.001287 0.000000
# 2 -0.000360 0.015013 -0.004350 0.000000 0.005492 0.000000
# 3 -0.002688 -0.004350 0.011280 0.000000 -0.004031 0.000000
# 4 0.000000 0.000000 0.000000 0.057509 0.000000 -0.001429
# 5 -0.001287 0.005492 -0.004031 0.000000 0.020237 0.000000
# 6 0.000000 0.000000 0.000000 -0.001429 0.000000 0.054167
#
#
# Mechanical properties :
#
#
# Convention : Reuss Voigt Hill
#
# Bulk Modulus (GPa) = 47.48153 50.43937 48.96045
# Shear Modulus (GPa) = 26.37329 34.73531 30.55430
#
# Velocity S-wave (km/s) = 3.46087 3.97182 3.72511
# Velocity P-wave (km/s) = 6.12652 6.62882 6.38261
#
# Compressibility (1/GPa) = 0.02106082
#
# Stress axis : x y z
#
# Youngs Moduli (GPa) = 104.56182 66.60838 88.65393
#
# Poissons Ratio (x) = 0.02395 0.23830
# Poissons Ratio (y) = 0.03759 0.38568
# Poissons Ratio (z) = 0.28106 0.28978
#
# Static dielectric constant tensor:
#      x y z
#    x 1.923280 0.000000 0.076830 
#    y 0.000000 1.803720 0.000000 
#    z 0.076830 0.000000 1.903000 
# 
# From -- ./inp_files/8331.got.cif
#   From: 2010.05.17/outbox.cif.g08.bks.cpg/sg15_5_cif.got.tgz:8331.got - 2010.06.03 18:47:42.
