data_PCOD9292374
_publ_section_title
;
Structure prediction by ZEFSAII (Michael W. Deem and Ramdas Pophale) SiO2 
 PCOD9292374
Probable space group: C 2/C
;
_chemical_formula_sum "Si O2"
_cell_formula_units_Z 40
_cell_length_a 13.100643
_cell_length_b 24.486440
_cell_length_c 8.680697
_cell_angle_alpha 90.000000
_cell_angle_beta 42.177618
_cell_angle_gamma 90.000000
_cell_volume 1869.710404
_symmetry_space_group_name_H-M "C 2/C"
_symmetry_group_IT_number 15
_symmetry_cell_setting 'monoclinic'
loop_
_space_group_symop_operation_xyz
x,y,z
-x,y,1/2-z
-x,-y,-z
x,-y,1/2+z
1/2+x,1/2+y,z
1/2-x,1/2+y,1/2-z
1/2-x,1/2-y,-z
1/2+x,1/2-y,1/2+z
loop_
_atom_site_type_symbol
_atom_site_label
_atom_site_fract_x
_atom_site_fract_y
_atom_site_fract_z
Si Si1 0.412088 0.847440 0.618873
Si Si2 0.651316 0.460598 0.176103
Si Si3 0.244132 0.652881 0.885988
Si Si4 0.345952 0.035288 0.165899
Si Si5 0.370763 0.735713 0.495397
O O1 0.577885 0.860135 0.503180
O O2 0.366354 0.903016 0.582362
O O3 0.425391 0.793570 0.502458
O O4 0.292840 0.835162 0.892366
O O5 0.500000 0.473550 0.250000
O O6 0.646070 0.399520 0.249496
O O7 0.709081 0.504492 0.233279
O O8 0.791844 0.457493 0.900791
O O9 0.311493 0.700925 0.706031
O O10 0.500000 0.000000 0.000000
O O11 0.250000 0.750000 0.500000
O O12 0.500000 0.706243 0.250000
#
# Coordination Sequence:
#
# PCOD9292374 Si02
#       5
#     8   8   8   8   8
#     4  10  22  43  70  97 130 181 229 264 324 415
#     4  11  24  42  67 102 139 169 221 284 334 388
#     4  10  22  44  68  94 134 181 227 267 329 405
#     4  11  22  42  72  99 129 179 225 268 328 410
#     4  12  25  42  65 100 138 169 220 284 337 390
#
# _framework density 21.393688999999998
#
# number of rings (size 3 to 8) (size 9 to 14) (size 15 to 20)
#    0.000    1.200    4.000    1.800    0.000    6.400 
#    3.600    2.000    0.000    0.000    0.000    0.000 
#    0.000    0.000    0.000    0.000    0.000    0.000 
#
# Total GULP energy -111654.049423 kJ/mol
# GULP energy per Si atom -5582.702471 kJ/mol
# Density = 2.134500 g / cm^3
# Si number density = 21.393689 Si / 1000 Ang^3
#
#
#
# Elastic Constant Matrix: (Units=GPa)
#
#
# Indices 1 2 3 4 5 6 
#
# 1 100.0345 40.9840 3.7960 0.0000 -5.0989 0.0000
# 2 40.9840 122.7313 33.9506 0.0000 8.7093 0.0000
# 3 3.7960 33.9506 85.2934 0.0000 -3.7168 0.0000
# 4 0.0000 0.0000 0.0000 27.2239 0.0000 4.9219
# 5 -5.0989 8.7093 -3.7168 0.0000 24.9063 0.0000
# 6 0.0000 0.0000 0.0000 4.9219 0.0000 32.3666
#
#
#
# Elastic Compliance Matrix: (Units=1/GPa)
#
#
# Indices 1 2 3 4 5 6 
#
# 1 0.012124 -0.004791 0.001559 0.000000 0.004390 0.000000
# 2 -0.004791 0.011415 -0.004577 0.000000 -0.005656 0.000000
# 3 0.001559 -0.004577 0.013649 0.000000 0.003957 0.000000
# 4 0.000000 0.000000 0.000000 0.037771 0.000000 -0.005744
# 5 0.004390 -0.005656 0.003957 0.000000 0.043617 0.000000
# 6 0.000000 0.000000 0.000000 -0.005744 0.000000 0.031769
#
#
# Mechanical properties :
#
#
# Convention : Reuss Voigt Hill
#
# Bulk Modulus (GPa) = 46.36153 51.72449 49.04301
# Shear Modulus (GPa) = 28.87581 32.18796 30.53188
#
# Velocity S-wave (km/s) = 3.67786 3.88307 3.78185
# Velocity P-wave (km/s) = 6.30502 6.65839 6.48411
#
# Compressibility (1/GPa) = 0.02156961
#
# Stress axis : x y z
#
# Youngs Moduli (GPa) = 82.47950 87.60118 73.26471
#
# Poissons Ratio (x) = 0.41974 -0.11422
# Poissons Ratio (y) = 0.39520 0.33534
# Poissons Ratio (z) = -0.12858 0.40095
#
# Static dielectric constant tensor:
#      x y z
#    x 1.763080 0.000000 -0.014140 
#    y 0.000000 1.838990 0.000000 
#    z -0.014140 0.000000 1.847860 
# 
# From -- ./inp_files/41920.got.cif
#   From: 2010.05.17/outbox.cif.g08.bks.cpg/sg15_21_cif.got.tgz:41920.got - 2010.06.03 18:47:42.
