data_PCOD9292267
_publ_section_title
;
Structure prediction by ZEFSAII (Michael W. Deem and Ramdas Pophale) SiO2 
 PCOD9292267
Probable space group: C 2/C
;
_chemical_formula_sum "Si O2"
_cell_formula_units_Z 40
_cell_length_a 24.992645
_cell_length_b 7.596044
_cell_length_c 14.406648
_cell_angle_alpha 90.000000
_cell_angle_beta 140.138061
_cell_angle_gamma 90.000000
_cell_volume 1752.991964
_symmetry_space_group_name_H-M "C 2/C"
_symmetry_group_IT_number 15
_symmetry_cell_setting 'monoclinic'
loop_
_space_group_symop_operation_xyz
x,y,z
-x,y,1/2-z
-x,-y,-z
x,-y,1/2+z
1/2+x,1/2+y,z
1/2-x,1/2+y,1/2-z
1/2-x,1/2-y,-z
1/2+x,1/2-y,1/2+z
loop_
_atom_site_type_symbol
_atom_site_label
_atom_site_fract_x
_atom_site_fract_y
_atom_site_fract_z
Si Si1 0.333976 0.189514 0.056993
Si Si2 0.054927 0.024621 0.705582
Si Si3 0.616214 0.586270 0.586402
Si Si4 0.280115 0.234038 0.775818
Si Si5 0.336084 0.826263 0.155117
O O1 0.403425 0.336689 0.169908
O O2 0.360280 0.001123 0.132564
O O3 0.250000 0.250000 0.000000
O O4 0.310681 0.178152 0.918137
O O5 0.073724 0.113822 0.629647
O O6 0.100489 0.835748 0.768279
O O7 0.957722 0.975140 0.578852
O O8 0.681107 0.426674 0.685307
O O9 0.679400 0.735787 0.637198
O O10 0.317054 0.128270 0.737487
O O11 0.250000 0.750000 0.000000
#
# Coordination Sequence:
#
# PCOD9292267 Si02
#       5
#     8   8   8   8   8
#     4  12  21  41  70  97 139 182 223 281 350 400
#     4  10  23  44  67 100 138 178 220 291 340 399
#     4  10  22  43  68  98 136 174 228 281 344 402
#     4  11  23  42  69  98 132 180 229 276 345 410
#     4  11  23  43  68 100 136 177 231 277 341 413
#
# _framework density 22.818131999999999
#
# number of rings (size 3 to 8) (size 9 to 14) (size 15 to 20)
#    0.000    1.200    4.000    2.400    0.000    0.800 
#    3.600    3.000    4.400    0.000    0.000    0.000 
#    0.000    0.000    0.000    0.000    0.000    0.000 
#
# Total GULP energy -111883.954119 kJ/mol
# GULP energy per Si atom -5594.197706 kJ/mol
# Density = 2.276620 g / cm^3
# Si number density = 22.818132 Si / 1000 Ang^3
#
#
#
# Elastic Constant Matrix: (Units=GPa)
#
#
# Indices 1 2 3 4 5 6 
#
# 1 94.9444 39.7978 66.3832 0.0000 -22.7571 0.0000
# 2 39.7978 92.2778 55.3144 0.0000 -2.0355 0.0000
# 3 66.3832 55.3144 166.0778 0.0000 12.5918 0.0000
# 4 0.0000 0.0000 0.0000 46.8137 0.0000 1.6019
# 5 -22.7571 -2.0355 12.5918 0.0000 59.3552 0.0000
# 6 0.0000 0.0000 0.0000 1.6019 0.0000 26.0656
#
#
#
# Elastic Compliance Matrix: (Units=1/GPa)
#
#
# Indices 1 2 3 4 5 6 
#
# 1 0.019148 -0.003852 -0.007030 0.000000 0.008701 0.000000
# 2 -0.003852 0.014438 -0.003247 0.000000 -0.000293 0.000000
# 3 -0.007030 -0.003247 0.010291 0.000000 -0.004990 0.000000
# 4 0.000000 0.000000 0.000000 0.021406 0.000000 -0.001316
# 5 0.008701 -0.000293 -0.004990 0.000000 0.021232 0.000000
# 6 0.000000 0.000000 0.000000 -0.001316 0.000000 0.038446
#
#
# Mechanical properties :
#
#
# Convention : Reuss Voigt Hill
#
# Bulk Modulus (GPa) = 64.02609 75.14341 69.58475
# Shear Modulus (GPa) = 31.56041 39.23389 35.39715
#
# Velocity S-wave (km/s) = 3.72308 4.15108 3.94289
# Velocity P-wave (km/s) = 6.82656 7.48186 7.16171
#
# Compressibility (1/GPa) = 0.01561863
#
# Stress axis : x y z
#
# Youngs Moduli (GPa) = 52.22419 69.26180 97.17067
#
# Poissons Ratio (x) = 0.26680 0.68316
# Poissons Ratio (y) = 0.20117 0.31550
# Poissons Ratio (z) = 0.36716 0.22488
#
# Static dielectric constant tensor:
#      x y z
#    x 1.975180 0.000000 -0.026800 
#    y 0.000000 1.867500 0.000000 
#    z -0.026800 0.000000 1.846080 
# 
# From -- ./inp_files/172135.got.cif
#   From: 2010.05.17/outbox.cif.g08.bks.cpg/sg15_87_cif.got.tgz:172135.got - 2010.06.03 18:47:42.
