data_PCOD9292904
_publ_section_title
;
Structure prediction by ZEFSAII (Michael W. Deem and Ramdas Pophale) SiO2 
 PCOD9292904
Probable space group: C 2/C
;
_chemical_formula_sum "Si O2"
_cell_formula_units_Z 48
_cell_length_a 7.721933
_cell_length_b 12.180482
_cell_length_c 27.166695
_cell_angle_alpha 90.000000
_cell_angle_beta 44.060246
_cell_angle_gamma 90.000000
_cell_volume 1776.932654
_symmetry_space_group_name_H-M "C 2/C"
_symmetry_group_IT_number 15
_symmetry_cell_setting 'monoclinic'
loop_
_space_group_symop_operation_xyz
x,y,z
-x,y,1/2-z
-x,-y,-z
x,-y,1/2+z
1/2+x,1/2+y,z
1/2-x,1/2+y,1/2-z
1/2-x,1/2-y,-z
1/2+x,1/2-y,1/2+z
loop_
_atom_site_type_symbol
_atom_site_label
_atom_site_fract_x
_atom_site_fract_y
_atom_site_fract_z
Si Si1 0.122937 0.073520 0.773841
Si Si2 0.282823 0.110857 0.324093
Si Si3 0.099879 0.710808 0.675121
Si Si4 0.852948 0.391551 0.077890
Si Si5 0.747321 0.968905 0.079492
Si Si6 0.756742 0.364725 0.572135
O O1 0.223103 0.986210 0.794627
O O2 0.346830 0.148883 0.708878
O O3 0.000000 0.022260 0.750000
O O4 0.906376 0.144220 0.845146
O O5 0.500000 0.170779 0.250000
O O6 0.352551 0.062844 0.363014
O O7 0.020115 0.170489 0.388283
O O8 0.294594 0.628052 0.609537
O O9 0.227045 0.824304 0.633630
O O10 0.000000 0.721895 0.750000
O O11 0.771443 0.504729 0.067238
O O12 0.053954 0.430616 0.077449
O O13 0.012226 0.321405 0.006362
O O14 0.000000 0.000000 0.000000
#
# Coordination Sequence:
#
# PCOD9292904 Si02
#       6
#     8   8   8   8   8   8
#     4  11  20  39  70  92 131 184 221 272 345 396
#     4  11  20  40  68  97 133 179 231 271 331 418
#     4  12  25  45  66 102 140 173 229 297 336 391
#     4  10  22  44  69  97 137 185 223 270 349 416
#     4  12  22  42  73  98 134 187 223 274 348 408
#     4  10  25  42  68 100 138 177 227 281 339 411
#
# _framework density 27.012843
#
# number of rings (size 3 to 8) (size 9 to 14) (size 15 to 20)
#    0.000    1.000    6.667    0.000    0.000    5.333 
#    0.000    3.333    0.000    0.000    0.000    0.000 
#    0.000    0.000    0.000    0.000    0.000    0.000 
#
# Total GULP energy -133832.768390 kJ/mol
# GULP energy per Si atom -5576.365350 kJ/mol
# Density = 2.695136 g / cm^3
# Si number density = 27.012843 Si / 1000 Ang^3
#
#
#
# Elastic Constant Matrix: (Units=GPa)
#
#
# Indices 1 2 3 4 5 6 
#
# 1 73.5554 4.3351 35.2239 0.0010 15.1186 -0.0017
# 2 4.3351 45.5821 59.1245 0.0003 -5.4475 -0.0003
# 3 35.2239 59.1245 296.3607 -0.0001 -10.0560 -0.0004
# 4 0.0010 0.0003 -0.0001 51.7495 -0.0011 1.3811
# 5 15.1186 -5.4475 -10.0560 -0.0011 50.7726 0.0018
# 6 -0.0017 -0.0003 -0.0004 1.3811 0.0018 3.0908
#
#
#
# Elastic Compliance Matrix: (Units=1/GPa)
#
#
# Indices 1 2 3 4 5 6 
#
# 1 0.015621 0.000735 -0.002173 -0.000001 -0.005003 0.000011
# 2 0.000735 0.029839 -0.005979 0.000000 0.001798 0.000001
# 3 -0.002173 -0.005979 0.004858 0.000000 0.000968 -0.000002
# 4 -0.000001 0.000000 0.000000 0.019557 0.000001 -0.008739
# 5 -0.005003 0.001798 0.000968 0.000001 0.021570 -0.000016
# 6 0.000011 0.000001 -0.000002 -0.008739 -0.000016 0.327440
#
#
# Mechanical properties :
#
#
# Convention : Reuss Voigt Hill
#
# Bulk Modulus (GPa) = 28.18189 68.09614 48.13902
# Shear Modulus (GPa) = 11.22213 42.24357 26.73285
#
# Velocity S-wave (km/s) = 2.04044 3.95882 3.14926
# Velocity P-wave (km/s) = 4.00083 6.79411 5.57524
#
# Compressibility (1/GPa) = 0.03548378
#
# Stress axis : x y z
#
# Youngs Moduli (GPa) = 64.01727 33.51293 205.83474
#
# Poissons Ratio (x) = -0.02464 0.44728
# Poissons Ratio (y) = -0.04706 1.23075
# Poissons Ratio (z) = 0.13911 0.20038
#
# Static dielectric constant tensor:
#      x y z
#    x 2.320830 0.000000 0.033790 
#    y 0.000000 2.259750 0.000000 
#    z 0.033790 0.000000 2.110470 
# 
# From -- ./inp_files/189951.got.cif
#   From: 2010.05.17/outbox.cif.g08.bks.cpg/sg15_95_cif.got.tgz:189951.got - 2010.06.03 18:47:42.
