data_PCOD9292908
_publ_section_title
;
Structure prediction by ZEFSAII (Michael W. Deem and Ramdas Pophale) SiO2 
 PCOD9292908
Probable space group: C 2/C
;
_chemical_formula_sum "Si O2"
_cell_formula_units_Z 36
_cell_length_a 12.637518
_cell_length_b 12.905335
_cell_length_c 14.537409
_cell_angle_alpha 90.000000
_cell_angle_beta 143.210031
_cell_angle_gamma 90.000000
_cell_volume 1419.908490
_symmetry_space_group_name_H-M "C 2/C"
_symmetry_group_IT_number 15
_symmetry_cell_setting 'monoclinic'
loop_
_space_group_symop_operation_xyz
x,y,z
-x,y,1/2-z
-x,-y,-z
x,-y,1/2+z
1/2+x,1/2+y,z
1/2-x,1/2+y,1/2-z
1/2-x,1/2-y,-z
1/2+x,1/2-y,1/2+z
loop_
_atom_site_type_symbol
_atom_site_label
_atom_site_fract_x
_atom_site_fract_y
_atom_site_fract_z
Si Si1 0.013965 0.076197 0.922260
Si Si2 0.638802 0.862991 0.770495
Si Si3 0.500000 0.438998 0.750000
Si Si4 0.824356 0.698502 0.413298
Si Si5 0.161585 0.605287 0.743521
O O1 0.807907 0.101613 0.763288
O O2 0.082889 0.013555 0.883940
O O3 0.162046 0.157464 0.054741
O O4 0.000000 0.000000 0.000000
O O5 0.500000 0.825938 0.750000
O O6 0.624066 0.820272 0.657312
O O7 0.622934 0.989003 0.749246
O O8 0.347674 0.370224 0.688025
O O9 0.764004 0.817598 0.384720
O O10 0.984772 0.661394 0.587805
#
# Coordination Sequence:
#
# PCOD9292908 Si02
#       5
#     8   8   4   8   8
#     4  10  22  44  69  98 142 178 222 279 343 403
#     4  11  24  46  70 100 139 179 229 285 340 406
#     4  12  24  42  76 100 138 178 232 278 350 402
#     4  12  26  44  68 105 135 184 229 282 343 410
#     4  11  25  45  68 100 142 176 232 278 345 406
#
# _framework density 25.353746999999998
#
# number of rings (size 3 to 8) (size 9 to 14) (size 15 to 20)
#    0.000    0.889    4.444    3.333    7.778    0.889 
#    2.000    2.222    0.000    0.000    0.000    0.000 
#    0.000    0.000    0.000    0.000    0.000    0.000 
#
# Total GULP energy -100785.285905 kJ/mol
# GULP energy per Si atom -5599.182550 kJ/mol
# Density = 2.529604 g / cm^3
# Si number density = 25.353747 Si / 1000 Ang^3
#
#
#
# Elastic Constant Matrix: (Units=GPa)
#
#
# Indices 1 2 3 4 5 6 
#
# 1 128.2355 -5.4601 35.3702 0.0003 10.4694 0.0002
# 2 -5.4601 91.5724 28.6127 0.0002 -6.3445 0.0002
# 3 35.3702 28.6127 113.7254 0.0003 21.0466 0.0003
# 4 0.0003 0.0002 0.0003 47.0808 0.0003 5.4916
# 5 10.4694 -6.3445 21.0466 0.0003 41.8266 0.0002
# 6 0.0002 0.0002 0.0003 5.4916 0.0002 8.3261
#
#
#
# Elastic Compliance Matrix: (Units=1/GPa)
#
#
# Indices 1 2 3 4 5 6 
#
# 1 0.008719 0.001420 -0.002983 0.000000 -0.000466 0.000000
# 2 0.001420 0.012607 -0.004302 0.000000 0.003722 0.000000
# 3 -0.002983 -0.004302 0.011893 0.000000 -0.005891 0.000000
# 4 0.000000 0.000000 0.000000 0.023010 0.000000 -0.015177
# 5 -0.000466 0.003722 -0.005891 0.000000 0.027554 -0.000001
# 6 0.000000 0.000000 0.000000 -0.015177 -0.000001 0.130114
#
#
# Mechanical properties :
#
#
# Convention : Reuss Voigt Hill
#
# Bulk Modulus (GPa) = 46.53506 50.06432 48.29969
# Shear Modulus (GPa) = 21.47846 37.78074 29.62960
#
# Velocity S-wave (km/s) = 2.91374 3.86443 3.42226
# Velocity P-wave (km/s) = 5.45106 6.30087 5.89130
#
# Compressibility (1/GPa) = 0.02148917
#
# Stress axis : x y z
#
# Youngs Moduli (GPa) = 114.68727 79.32059 84.08090
#
# Poissons Ratio (x) = -0.11260 0.25079
# Poissons Ratio (y) = -0.16281 0.36173
# Poissons Ratio (z) = 0.34208 0.34125
#
# Static dielectric constant tensor:
#      x y z
#    x 1.994060 0.000000 0.042220 
#    y 0.000000 2.071840 0.000000 
#    z 0.042220 0.000000 1.975940 
# 
# From -- ./inp_files/37539.got.cif
#   From: 2010.05.17/outbox.cif.g08.bks.cpg/sg15_19_cif.got.tgz:37539.got - 2010.06.03 18:47:42.
