data_PCOD9292777
_publ_section_title
;
Structure prediction by ZEFSAII (Michael W. Deem and Ramdas Pophale) SiO2 
 PCOD9292777
Probable space group: C 2/C
;
_chemical_formula_sum "Si O2"
_cell_formula_units_Z 48
_cell_length_a 21.986368
_cell_length_b 13.115505
_cell_length_c 19.236374
_cell_angle_alpha 90.000000
_cell_angle_beta 160.252567
_cell_angle_gamma 90.000000
_cell_volume 1874.205479
_symmetry_space_group_name_H-M "C 2/C"
_symmetry_group_IT_number 15
_symmetry_cell_setting 'monoclinic'
loop_
_space_group_symop_operation_xyz
x,y,z
-x,y,1/2-z
-x,-y,-z
x,-y,1/2+z
1/2+x,1/2+y,z
1/2-x,1/2+y,1/2-z
1/2-x,1/2-y,-z
1/2+x,1/2-y,1/2+z
loop_
_atom_site_type_symbol
_atom_site_label
_atom_site_fract_x
_atom_site_fract_y
_atom_site_fract_z
Si Si1 0.693703 0.881806 0.097302
Si Si2 0.838360 0.888547 0.395587
Si Si3 0.682880 0.444260 0.846832
Si Si4 0.750000 0.250000 0.000000
Si Si5 0.180500 0.323450 0.826429
Si Si6 0.500000 0.682081 0.750000
Si Si7 0.010935 0.676767 0.903106
O O1 0.803836 0.926203 0.280667
O O2 0.744411 0.762726 0.144640
O O3 0.746438 0.940491 0.083357
O O4 0.479566 0.888652 0.877668
O O5 0.645109 0.880072 0.224277
O O6 0.984430 0.942515 0.600918
O O7 0.915011 0.772934 0.474938
O O8 0.711528 0.374582 0.945226
O O9 0.819690 0.387316 0.940141
O O10 0.581264 0.224148 0.765543
O O11 0.086922 0.258544 0.787303
O O12 0.348558 0.377486 0.044148
#
# Coordination Sequence:
#
# PCOD9292777 Si02
#       7
#     8   8   8   4   8   4   8
#     4  11  23  43  64 105 136 191 234 297 361 446
#     4  11  22  41  67  97 143 186 235 291 372 432
#     4  11  25  42  68 102 140 185 241 308 363 433
#     4  10  22  44  68 100 138 178 244 298 372 418
#     4   9  19  38  67  84 135 178 231 287 356 413
#     4   8  16  38  58  88 116 176 218 282 340 400
#     4  11  22  41  70  98 135 197 230 308 368 427
#
# _framework density 25.610852999999999
#
# number of rings (size 3 to 8) (size 9 to 14) (size 15 to 20)
#    0.000    1.667    3.333    2.000    2.333    0.667 
#   24.000    0.000    0.000    0.000    0.000    0.000 
#    0.000    0.000    0.000    0.000    0.000    0.000 
#
# Total GULP energy -133724.001540 kJ/mol
# GULP energy per Si atom -5571.833398 kJ/mol
# Density = 2.555256 g / cm^3
# Si number density = 25.610853 Si / 1000 Ang^3
#
#
#
# Elastic Constant Matrix: (Units=GPa)
#
#
# Indices 1 2 3 4 5 6 
#
# 1 60.1654 11.8478 32.7584 0.0014 -4.1244 0.0012
# 2 11.8478 90.0646 33.8073 0.0053 -8.6612 0.0019
# 3 32.7584 33.8073 172.5639 0.0072 -15.2559 0.0037
# 4 0.0014 0.0053 0.0072 8.7440 0.0047 7.7007
# 5 -4.1244 -8.6612 -15.2559 0.0047 48.6728 0.0024
# 6 0.0012 0.0019 0.0037 7.7007 0.0024 34.0031
#
#
#
# Elastic Compliance Matrix: (Units=1/GPa)
#
#
# Indices 1 2 3 4 5 6 
#
# 1 0.018664 -0.001191 -0.003280 0.000001 0.000342 0.000000
# 2 -0.001191 0.012159 -0.002030 -0.000007 0.001426 0.000001
# 3 -0.003280 -0.002030 0.006951 -0.000005 0.001540 0.000001
# 4 0.000001 -0.000007 -0.000005 0.142857 -0.000015 -0.032353
# 5 0.000342 0.001426 0.001540 -0.000015 0.021311 0.000002
# 6 0.000000 0.000001 0.000001 -0.032353 0.000002 0.036736
#
#
# Mechanical properties :
#
#
# Convention : Reuss Voigt Hill
#
# Bulk Modulus (GPa) = 40.36604 53.29122 46.82863
# Shear Modulus (GPa) = 19.23533 34.57599 26.90566
#
# Velocity S-wave (km/s) = 2.74352 3.67829 3.24475
# Velocity P-wave (km/s) = 5.08246 6.23643 5.68878
#
# Compressibility (1/GPa) = 0.02477330
#
# Stress axis : x y z
#
# Youngs Moduli (GPa) = 53.57771 82.24376 143.85790
#
# Poissons Ratio (x) = 0.09798 0.47179
# Poissons Ratio (y) = 0.06383 0.29200
# Poissons Ratio (z) = 0.17571 0.16694
#
# Static dielectric constant tensor:
#      x y z
#    x 2.019390 0.000000 0.045650 
#    y 0.000000 2.058620 0.000000 
#    z 0.045650 0.000000 2.012680 
# 
# From -- ./inp_files/255753.got.cif
#   From: 2010.05.17/outbox.cif.g08.bks.cpg/sg15_128_cif.got.tgz:255753.got - 2010.06.03 18:47:42.
