data_PCOD9292690
_publ_section_title
;
Structure prediction by ZEFSAII (Michael W. Deem and Ramdas Pophale) SiO2 
 PCOD9292690
Probable space group: C 2/C
;
_chemical_formula_sum "Si O2"
_cell_formula_units_Z 36
_cell_length_a 11.390369
_cell_length_b 9.407240
_cell_length_c 27.508395
_cell_angle_alpha 90.000000
_cell_angle_beta 34.202922
_cell_angle_gamma 90.000000
_cell_volume 1656.908784
_symmetry_space_group_name_H-M "C 2/C"
_symmetry_group_IT_number 15
_symmetry_cell_setting 'monoclinic'
loop_
_space_group_symop_operation_xyz
x,y,z
-x,y,1/2-z
-x,-y,-z
x,-y,1/2+z
1/2+x,1/2+y,z
1/2-x,1/2+y,1/2-z
1/2-x,1/2-y,-z
1/2+x,1/2-y,1/2+z
loop_
_atom_site_type_symbol
_atom_site_label
_atom_site_fract_x
_atom_site_fract_y
_atom_site_fract_z
Si Si1 0.000000 0.055491 0.250000
Si Si2 0.617343 0.350191 0.510157
Si Si3 0.432332 0.646913 0.919446
Si Si4 0.834827 0.323712 0.337843
Si Si5 0.318554 0.899246 0.087272
O O1 0.046281 0.174057 0.192030
O O2 0.209653 0.962575 0.173012
O O3 0.750000 0.250000 0.500000
O O4 0.569792 0.494741 0.553602
O O5 0.746768 0.384992 0.417167
O O6 0.423826 0.252562 0.560400
O O7 0.647551 0.712069 0.864882
O O8 0.375558 0.619588 0.883073
O O9 0.250000 0.750000 0.000000
O O10 0.000000 0.413579 0.250000
O O11 0.500000 0.000000 0.000000
#
# Coordination Sequence:
#
# PCOD9292690 Si02
#       5
#     4   8   8   8   8
#     4  10  22  44  66  94 140 182 224 286 358 418
#     4  12  24  42  72 100 134 186 234 284 356 430
#     4  12  24  44  73  98 140 184 235 297 354 423
#     4  10  23  44  65  98 140 175 227 286 357 420
#     4  12  22  45  67 101 139 184 238 287 360 425
#
# _framework density 21.727207
#
# number of rings (size 3 to 8) (size 9 to 14) (size 15 to 20)
#    0.667    0.000    6.667    0.667    0.000    1.778 
#    2.000    0.000    0.000    0.000    0.000    0.000 
#    0.000    0.000    0.000    0.000    0.000    0.000 
#
# Total GULP energy -100305.112068 kJ/mol
# GULP energy per Si atom -5572.506226 kJ/mol
# Density = 2.167775 g / cm^3
# Si number density = 21.727207 Si / 1000 Ang^3
#
#
#
# Elastic Constant Matrix: (Units=GPa)
#
#
# Indices 1 2 3 4 5 6 
#
# 1 123.5389 19.4189 40.3850 0.0000 0.4193 0.0000
# 2 19.4189 120.1046 32.5582 0.0001 -2.4396 0.0000
# 3 40.3850 32.5582 98.9880 0.0001 -20.6701 0.0001
# 4 0.0000 0.0001 0.0001 13.9453 0.0000 7.7511
# 5 0.4193 -2.4396 -20.6701 0.0000 22.3947 0.0000
# 6 0.0000 0.0000 0.0001 7.7511 0.0000 39.0197
#
#
#
# Elastic Compliance Matrix: (Units=1/GPa)
#
#
# Indices 1 2 3 4 5 6 
#
# 1 0.009748 -0.000360 -0.004837 0.000000 -0.004687 0.000000
# 2 -0.000360 0.009243 -0.003322 0.000000 -0.002052 0.000000
# 3 -0.004837 -0.003322 0.016242 0.000000 0.014720 0.000000
# 4 0.000000 0.000000 0.000000 0.080609 0.000000 -0.016013
# 5 -0.004687 -0.002052 0.014720 0.000000 0.058104 0.000000
# 6 0.000000 0.000000 0.000000 -0.016013 0.000000 0.028809
#
#
# Mechanical properties :
#
#
# Convention : Reuss Voigt Hill
#
# Bulk Modulus (GPa) = 54.95955 58.59506 56.77730
# Shear Modulus (GPa) = 22.13770 31.75656 26.94713
#
# Velocity S-wave (km/s) = 3.19547 3.82724 3.52554
# Velocity P-wave (km/s) = 6.24219 6.82330 6.53920
#
# Compressibility (1/GPa) = 0.01819520
#
# Stress axis : x y z
#
# Youngs Moduli (GPa) = 102.58032 108.18898 61.56835
#
# Poissons Ratio (x) = 0.03895 0.29783
# Poissons Ratio (y) = 0.03693 0.20452
# Poissons Ratio (z) = 0.49622 0.35938
#
# Static dielectric constant tensor:
#      x y z
#    x 1.883090 0.000000 0.003700 
#    y 0.000000 2.064040 0.000000 
#    z 0.003700 0.000000 1.886250 
# 
# From -- ./inp_files/290992.got.cif
#   From: 2010.05.17/outbox.cif.g08.bks.cpg/sg15_146_cif.got.tgz:290992.got - 2010.06.03 18:47:42.
