data_PCOD9292166
_publ_section_title
;
Structure prediction by ZEFSAII (Michael W. Deem and Ramdas Pophale) SiO2 
 PCOD9292166
Probable space group: C 2/C
;
_chemical_formula_sum "Si O2"
_cell_formula_units_Z 40
_cell_length_a 8.841080
_cell_length_b 24.640166
_cell_length_c 16.799587
_cell_angle_alpha 90.000000
_cell_angle_beta 33.308790
_cell_angle_gamma 90.000000
_cell_volume 2009.737622
_symmetry_space_group_name_H-M "C 2/C"
_symmetry_group_IT_number 15
_symmetry_cell_setting 'monoclinic'
loop_
_space_group_symop_operation_xyz
x,y,z
-x,y,1/2-z
-x,-y,-z
x,-y,1/2+z
1/2+x,1/2+y,z
1/2-x,1/2+y,1/2-z
1/2-x,1/2-y,-z
1/2+x,1/2-y,1/2+z
loop_
_atom_site_type_symbol
_atom_site_label
_atom_site_fract_x
_atom_site_fract_y
_atom_site_fract_z
Si Si1 0.711870 0.903938 0.971409
Si Si2 0.807930 0.501315 0.901452
Si Si3 0.635086 0.897256 0.816737
Si Si4 0.522483 0.213537 0.559887
Si Si5 0.453515 0.224219 0.138209
O O1 0.638714 0.906964 0.910378
O O2 0.038279 0.896839 0.845008
O O3 0.654839 0.960574 0.038859
O O4 0.553583 0.849763 0.069724
O O5 0.000000 0.527148 0.750000
O O6 0.943536 0.443051 0.861987
O O7 0.500000 0.500000 0.000000
O O8 0.532690 0.837608 0.838621
O O9 0.750000 0.250000 0.500000
O O10 0.612902 0.217822 0.426959
O O11 0.240215 0.239644 0.718949
O O12 0.750000 0.250000 0.000000
#
# Coordination Sequence:
#
# PCOD9292166 Si02
#       5
#     8   8   8   8   8
#     4  10  22  43  67  92 127 175 218 262 324 398
#     4  12  25  42  65  98 130 165 219 274 327 380
#     4  10  22  44  67  89 132 176 212 262 331 393
#     4  11  22  41  67  96 128 172 220 262 324 390
#     4  11  24  41  65  98 133 172 216 268 324 387
#
# _framework density 19.903096000000001
#
# number of rings (size 3 to 8) (size 9 to 14) (size 15 to 20)
#    0.000    1.200    4.000    1.800    0.000    6.400 
#    0.000    2.000    0.000    0.000    0.000    0.000 
#    0.000    0.000    0.000    0.000    0.000    0.000 
#
# Total GULP energy -111446.495008 kJ/mol
# GULP energy per Si atom -5572.324750 kJ/mol
# Density = 1.985780 g / cm^3
# Si number density = 19.903096 Si / 1000 Ang^3
#
#
#
# Elastic Constant Matrix: (Units=GPa)
#
#
# Indices 1 2 3 4 5 6 
#
# 1 62.2516 39.8735 10.3256 -0.0001 -7.6165 0.0001
# 2 39.8735 165.5969 48.1774 0.0000 0.4274 0.0000
# 3 10.3256 48.1774 105.0944 -0.0002 -2.1504 0.0001
# 4 -0.0001 0.0000 -0.0002 34.8369 0.0001 -0.6480
# 5 -7.6165 0.4274 -2.1504 0.0001 30.2315 -0.0001
# 6 0.0001 0.0000 0.0001 -0.6480 -0.0001 33.5236
#
#
#
# Elastic Compliance Matrix: (Units=1/GPa)
#
#
# Indices 1 2 3 4 5 6 
#
# 1 0.019747 -0.004885 0.000403 0.000000 0.005073 0.000000
# 2 -0.004885 0.008180 -0.003302 0.000000 -0.001581 0.000000
# 3 0.000403 -0.003302 0.011008 0.000000 0.000931 0.000000
# 4 0.000000 0.000000 0.000000 0.028716 0.000000 0.000555
# 5 0.005073 -0.001581 0.000931 0.000000 0.034445 0.000000
# 6 0.000000 0.000000 0.000000 0.000555 0.000000 0.029840
#
#
# Mechanical properties :
#
#
# Convention : Reuss Voigt Hill
#
# Bulk Modulus (GPa) = 42.79614 58.85510 50.82562
# Shear Modulus (GPa) = 32.19724 35.35617 33.77671
#
# Velocity S-wave (km/s) = 4.02643 4.21933 4.12401
# Velocity P-wave (km/s) = 6.57001 7.30561 6.94756
#
# Compressibility (1/GPa) = 0.02336659
#
# Stress axis : x y z
#
# Youngs Moduli (GPa) = 50.64158 122.25219 90.83894
#
# Poissons Ratio (x) = 0.59721 -0.03662
# Poissons Ratio (y) = 0.24739 0.29997
# Poissons Ratio (z) = -0.02041 0.40370
#
# Static dielectric constant tensor:
#      x y z
#    x 0.955350 0.000020 -0.449660 
#    y 0.000020 0.879040 0.000010 
#    z -0.449660 0.000010 1.364860 
# 
# From -- ./inp_files/23448.got.cif
#   From: 2010.05.17/outbox.cif.g08.bks.cpg/sg15_12_cif.got.tgz:23448.got - 2010.06.03 18:47:42.
