data_PCOD9292623
_publ_section_title
;
Structure prediction by ZEFSAII (Michael W. Deem and Ramdas Pophale) SiO2 
 PCOD9292623
Probable space group: C 2/C
;
_chemical_formula_sum "Si O2"
_cell_formula_units_Z 36
_cell_length_a 9.494299
_cell_length_b 8.667248
_cell_length_c 19.547387
_cell_angle_alpha 90.000000
_cell_angle_beta 93.793490
_cell_angle_gamma 90.000000
_cell_volume 1605.019276
_symmetry_space_group_name_H-M "C 2/C"
_symmetry_group_IT_number 15
_symmetry_cell_setting 'monoclinic'
loop_
_space_group_symop_operation_xyz
x,y,z
-x,y,1/2-z
-x,-y,-z
x,-y,1/2+z
1/2+x,1/2+y,z
1/2-x,1/2+y,1/2-z
1/2-x,1/2-y,-z
1/2+x,1/2-y,1/2+z
loop_
_atom_site_type_symbol
_atom_site_label
_atom_site_fract_x
_atom_site_fract_y
_atom_site_fract_z
Si Si1 0.646684 0.590140 0.728771
Si Si2 0.500000 0.101716 0.250000
Si Si3 0.287294 0.418099 0.531433
Si Si4 0.389144 0.411436 0.907546
Si Si5 0.123624 0.435580 0.146771
O O1 0.500000 0.515135 0.750000
O O2 0.619819 0.773236 0.733854
O O3 0.657397 0.530378 0.652694
O O4 0.766831 0.556858 0.786792
O O5 0.484733 0.998171 0.181425
O O6 0.250000 0.250000 0.500000
O O7 0.444347 0.425947 0.569111
O O8 0.297549 0.543970 0.471011
O O9 0.173772 0.461380 0.585278
O O10 0.374798 0.238279 0.879901
#
# Coordination Sequence:
#
# PCOD9292623 Si02
#       5
#     8   4   8   8   8
#     4  10  22  44  65  92 134 166 210 269 327 378
#     4  10  24  36  62  98 128 160 210 260 320 382
#     4  11  25  45  66  92 134 176 216 267 322 385
#     4  11  25  43  68  96 130 173 218 265 327 385
#     4  12  24  42  68  99 128 169 219 269 322 387
#
# _framework density 22.429638000000001
#
# number of rings (size 3 to 8) (size 9 to 14) (size 15 to 20)
#    0.667    0.444    2.222    3.333    1.556    6.222 
#    0.000    0.000    0.000    0.000    0.000    0.000 
#    0.000    0.000    0.000    0.000    0.000    0.000 
#
# Total GULP energy -100498.247943 kJ/mol
# GULP energy per Si atom -5583.235997 kJ/mol
# Density = 2.237859 g / cm^3
# Si number density = 22.429638 Si / 1000 Ang^3
#
#
#
# Elastic Constant Matrix: (Units=GPa)
#
#
# Indices 1 2 3 4 5 6 
#
# 1 58.7866 28.3244 55.8662 0.0000 -11.5496 0.0000
# 2 28.3244 174.8922 90.5948 0.0000 -21.7555 0.0000
# 3 55.8662 90.5948 188.3772 0.0000 -29.7246 0.0000
# 4 0.0000 0.0000 0.0000 39.0389 0.0000 -16.5649
# 5 -11.5496 -21.7555 -29.7246 0.0000 50.2248 0.0000
# 6 0.0000 0.0000 0.0000 -16.5649 0.0000 19.1926
#
#
#
# Elastic Compliance Matrix: (Units=1/GPa)
#
#
# Indices 1 2 3 4 5 6 
#
# 1 0.023783 -0.000184 -0.006744 0.000000 0.001398 0.000000
# 2 -0.000184 0.007688 -0.003446 0.000000 0.001248 0.000000
# 3 -0.006744 -0.003446 0.009359 0.000000 0.002496 0.000000
# 4 0.000000 0.000000 0.000000 0.040417 0.000000 0.034884
# 5 0.001398 0.001248 0.002496 0.000000 0.022250 0.000000
# 6 0.000000 0.000000 0.000000 0.034884 0.000000 0.082211
#
#
# Mechanical properties :
#
#
# Convention : Reuss Voigt Hill
#
# Bulk Modulus (GPa) = 49.79483 85.73633 67.76558
# Shear Modulus (GPa) = 23.45755 38.17595 30.81675
#
# Velocity S-wave (km/s) = 3.23743 4.13004 3.71068
# Velocity P-wave (km/s) = 6.01858 7.81349 6.97402
#
# Compressibility (1/GPa) = 0.02008240
#
# Stress axis : x y z
#
# Youngs Moduli (GPa) = 42.04653 130.07670 106.84458
#
# Poissons Ratio (x) = 0.02400 0.72056
# Poissons Ratio (y) = 0.00776 0.36813
# Poissons Ratio (z) = 0.28356 0.44818
#
# Static dielectric constant tensor:
#      x y z
#    x 1.937060 0.000000 -0.000300 
#    y 0.000000 1.825460 0.000000 
#    z -0.000300 0.000000 1.792670 
# 
# From -- ./inp_files/235536.got.cif
#   From: 2010.05.17/outbox.cif.g08.bks.cpg/sg15_118_cif.got.tgz:235536.got - 2010.06.03 18:47:42.
