data_PCOD9292080
_publ_section_title
;
Structure prediction by ZEFSAII (Michael W. Deem and Ramdas Pophale) SiO2 
 PCOD9292080
Probable space group: C 2/C
;
_chemical_formula_sum "Si O2"
_cell_formula_units_Z 36
_cell_length_a 12.389014
_cell_length_b 18.798286
_cell_length_c 7.544451
_cell_angle_alpha 90.000000
_cell_angle_beta 57.134327
_cell_angle_gamma 90.000000
_cell_volume 1475.820573
_symmetry_space_group_name_H-M "C 2/C"
_symmetry_group_IT_number 15
_symmetry_cell_setting 'monoclinic'
loop_
_space_group_symop_operation_xyz
x,y,z
-x,y,1/2-z
-x,-y,-z
x,-y,1/2+z
1/2+x,1/2+y,z
1/2-x,1/2+y,1/2-z
1/2-x,1/2-y,-z
1/2+x,1/2-y,1/2+z
loop_
_atom_site_type_symbol
_atom_site_label
_atom_site_fract_x
_atom_site_fract_y
_atom_site_fract_z
Si Si1 0.000000 0.418929 0.250000
Si Si2 0.272380 0.548360 0.442823
Si Si3 0.901279 0.324340 0.003130
Si Si4 0.419382 0.329577 0.638611
Si Si5 0.646625 0.401069 0.242830
O O1 0.041277 0.370675 0.382861
O O2 0.879467 0.465424 0.423224
O O3 0.312317 0.611084 0.274082
O O4 0.354404 0.477579 0.347309
O O5 0.303097 0.578732 0.606400
O O6 0.876231 0.246643 0.108834
O O7 0.763056 0.354167 0.063989
O O8 0.000000 0.322034 0.750000
O O9 0.500000 0.320131 0.750000
O O10 0.515103 0.362375 0.408426
#
# Coordination Sequence:
#
# PCOD9292080 Si02
#       5
#     4   8   8   8   8
#     4  10  24  42  66  92 136 166 210 268 314 386
#     4  10  23  40  66  93 127 174 207 266 323 371
#     4  11  25  40  67  98 127 171 213 263 319 377
#     4  10  22  43  66  91 132 170 213 262 321 378
#     4  10  24  40  65  95 128 169 214 263 318 380
#
# _framework density 24.393208000000001
#
# number of rings (size 3 to 8) (size 9 to 14) (size 15 to 20)
#    0.000    1.778    1.111    0.667    7.778    7.111 
#    0.000    0.000    0.000    0.000    0.000    0.000 
#    0.000    0.000    0.000    0.000    0.000    0.000 
#
# Total GULP energy -100786.913075 kJ/mol
# GULP energy per Si atom -5599.272949 kJ/mol
# Density = 2.433769 g / cm^3
# Si number density = 24.393208 Si / 1000 Ang^3
#
#
#
# Elastic Constant Matrix: (Units=GPa)
#
#
# Indices 1 2 3 4 5 6 
#
# 1 33.2686 -2.7096 35.6876 0.0000 -4.9575 0.0000
# 2 -2.7096 100.7102 39.0907 0.0000 -12.2708 0.0000
# 3 35.6876 39.0907 138.5359 0.0000 -5.1568 0.0000
# 4 0.0000 0.0000 0.0000 31.9619 0.0000 -0.8851
# 5 -4.9575 -12.2708 -5.1568 0.0000 56.7722 0.0000
# 6 0.0000 0.0000 0.0000 -0.8851 0.0000 34.3283
#
#
#
# Elastic Compliance Matrix: (Units=1/GPa)
#
#
# Indices 1 2 3 4 5 6 
#
# 1 0.045934 0.007064 -0.013666 0.000000 0.004297 0.000000
# 2 0.007064 0.012500 -0.005241 0.000000 0.002843 0.000000
# 3 -0.013666 -0.005241 0.012172 0.000000 -0.001221 0.000000
# 4 0.000000 0.000000 0.000000 0.031310 0.000000 0.000807
# 5 0.004297 0.002843 -0.001221 0.000000 0.018493 0.000000
# 6 0.000000 0.000000 0.000000 0.000807 0.000000 0.029151
#
#
# Mechanical properties :
#
#
# Convention : Reuss Voigt Hill
#
# Bulk Modulus (GPa) = 21.31309 46.29468 33.80389
# Shear Modulus (GPa) = 26.47095 37.97553 32.22324
#
# Velocity S-wave (km/s) = 3.29778 3.94992 3.63849
# Velocity P-wave (km/s) = 4.82252 6.31048 5.61600
#
# Compressibility (1/GPa) = 0.04691952
#
# Stress axis : x y z
#
# Youngs Moduli (GPa) = 21.77055 79.99875 82.15428
#
# Poissons Ratio (x) = -0.56509 1.12272
# Poissons Ratio (y) = -0.15378 0.43057
# Poissons Ratio (z) = 0.29752 0.41928
#
# Static dielectric constant tensor:
#      x y z
#    x 2.074280 0.000000 -0.009420 
#    y 0.000000 2.026850 0.000000 
#    z -0.009420 0.000000 1.925150 
# 
# From -- ./inp_files/28993.got.cif
#   From: 2010.05.17/outbox.cif.g08.bks.cpg/sg15_15_cif.got.tgz:28993.got - 2010.06.03 18:47:42.
