data_PCOD9292162
_publ_section_title
;
Structure prediction by ZEFSAII (Michael W. Deem and Ramdas Pophale) SiO2 
 PCOD9292162
Probable space group: C 2/C
;
_chemical_formula_sum "Si O2"
_cell_formula_units_Z 40
_cell_length_a 25.651020
_cell_length_b 8.860820
_cell_length_c 17.482176
_cell_angle_alpha 90.000000
_cell_angle_beta 151.888199
_cell_angle_gamma 90.000000
_cell_volume 1872.291163
_symmetry_space_group_name_H-M "C 2/C"
_symmetry_group_IT_number 15
_symmetry_cell_setting 'monoclinic'
loop_
_space_group_symop_operation_xyz
x,y,z
-x,y,1/2-z
-x,-y,-z
x,-y,1/2+z
1/2+x,1/2+y,z
1/2-x,1/2+y,1/2-z
1/2-x,1/2-y,-z
1/2+x,1/2-y,1/2+z
loop_
_atom_site_type_symbol
_atom_site_label
_atom_site_fract_x
_atom_site_fract_y
_atom_site_fract_z
Si Si1 0.893474 0.128717 0.074701
Si Si2 0.756523 0.430735 0.510059
Si Si3 0.218381 0.574595 0.119606
Si Si4 0.060193 0.925337 0.505585
Si Si5 0.999482 0.620190 0.157617
O O1 0.000000 0.207084 0.250000
O O2 0.810122 0.256323 0.941115
O O3 0.830829 0.010464 0.047990
O O4 0.943634 0.039536 0.069103
O O5 0.750000 0.250000 0.500000
O O6 0.739046 0.490941 0.401731
O O7 0.882663 0.462115 0.700295
O O8 0.310933 0.583650 0.303913
O O9 0.105614 0.486499 0.994593
O O10 0.012918 0.766985 0.412412
O O11 0.000000 0.000000 0.500000
O O12 0.000000 0.661364 0.250000
#
# Coordination Sequence:
#
# PCOD9292162 Si02
#       5
#     8   8   8   8   8
#     4  12  24  42  66  94 126 166 210 257 309 372
#     4  11  22  41  68  94 123 166 210 253 308 377
#     4  11  24  42  64  96 128 160 206 262 313 366
#     4  12  25  42  63  93 128 166 209 260 313 367
#     4  10  22  43  67  91 124 168 209 250 310 380
#
# _framework density 21.364197000000001
#
# number of rings (size 3 to 8) (size 9 to 14) (size 15 to 20)
#    0.000    0.800    0.000   10.200    0.000    3.200 
#    0.000    3.000    0.000    0.000    0.000    0.000 
#    0.000    0.000    0.000    0.000    0.000    0.000 
#
# Total GULP energy -111888.376957 kJ/mol
# GULP energy per Si atom -5594.418848 kJ/mol
# Density = 2.131557 g / cm^3
# Si number density = 21.364197 Si / 1000 Ang^3
#
#
#
# Elastic Constant Matrix: (Units=GPa)
#
#
# Indices 1 2 3 4 5 6 
#
# 1 73.7590 3.5275 -1.3369 0.0000 17.1097 0.0000
# 2 3.5275 73.8459 -5.0427 0.0000 2.7300 0.0000
# 3 -1.3369 -5.0427 135.8215 0.0000 1.8857 0.0000
# 4 0.0000 0.0000 0.0000 43.6029 0.0000 7.2439
# 5 17.1097 2.7300 1.8857 0.0000 20.2055 0.0000
# 6 0.0000 0.0000 0.0000 7.2439 0.0000 30.3982
#
#
#
# Elastic Compliance Matrix: (Units=1/GPa)
#
#
# Indices 1 2 3 4 5 6 
#
# 1 0.016895 -0.000254 0.000355 0.000000 -0.014305 0.000000
# 2 -0.000254 0.013652 0.000528 0.000000 -0.001679 0.000000
# 3 0.000355 0.000528 0.007400 0.000000 -0.001063 0.000000
# 4 0.000000 0.000000 0.000000 0.023880 0.000000 -0.005691
# 5 -0.014305 -0.001679 -0.001063 0.000000 0.061931 0.000000
# 6 0.000000 0.000000 0.000000 -0.005691 0.000000 0.034253
#
#
# Mechanical properties :
#
#
# Convention : Reuss Voigt Hill
#
# Bulk Modulus (GPa) = 25.50672 30.85802 28.18237
# Shear Modulus (GPa) = 29.44298 37.92655 33.68476
#
# Velocity S-wave (km/s) = 3.71637 4.21793 3.97507
# Velocity P-wave (km/s) = 5.51181 6.18032 5.85562
#
# Compressibility (1/GPa) = 0.03920536
#
# Stress axis : x y z
#
# Youngs Moduli (GPa) = 59.19083 73.24970 135.12689
#
# Poissons Ratio (x) = 0.01860 -0.04803
# Poissons Ratio (y) = 0.01503 -0.07130
# Poissons Ratio (z) = -0.02104 -0.03865
#
# Static dielectric constant tensor:
#      x y z
#    x 1.760520 0.000000 0.031490 
#    y 0.000000 1.528590 0.000000 
#    z 0.031490 0.000000 1.779870 
# 
# From -- ./inp_files/180988.got.cif
#   From: 2010.05.17/outbox.cif.g08.bks.cpg/sg15_91_cif.got.tgz:180988.got - 2010.06.03 18:47:42.
