data_PCOD9292785
_publ_section_title
;
Structure prediction by ZEFSAII (Michael W. Deem and Ramdas Pophale) SiO2 
 PCOD9292785
Probable space group: C 2/C
;
_chemical_formula_sum "Si O2"
_cell_formula_units_Z 40
_cell_length_a 26.094721
_cell_length_b 10.402127
_cell_length_c 8.822514
_cell_angle_alpha 90.000000
_cell_angle_beta 46.067482
_cell_angle_gamma 90.000000
_cell_volume 1724.624806
_symmetry_space_group_name_H-M "C 2/C"
_symmetry_group_IT_number 15
_symmetry_cell_setting 'monoclinic'
loop_
_space_group_symop_operation_xyz
x,y,z
-x,y,1/2-z
-x,-y,-z
x,-y,1/2+z
1/2+x,1/2+y,z
1/2-x,1/2+y,1/2-z
1/2-x,1/2-y,-z
1/2+x,1/2-y,1/2+z
loop_
_atom_site_type_symbol
_atom_site_label
_atom_site_fract_x
_atom_site_fract_y
_atom_site_fract_z
Si Si1 0.787234 0.230224 0.085204
Si Si2 0.567413 0.860091 0.818779
Si Si3 0.081429 0.978145 0.891134
Si Si4 0.500000 0.682620 0.750000
Si Si5 0.000000 0.571742 0.750000
Si Si6 0.179930 0.070151 0.918232
O O1 0.741681 0.322976 0.290017
O O2 0.789992 0.078517 0.128482
O O3 0.750000 0.250000 0.000000
O O4 0.863261 0.298515 0.898625
O O5 0.505114 0.767630 0.887025
O O6 0.548216 0.991054 0.770139
O O7 0.556952 0.863883 0.019860
O O8 0.127217 0.910332 0.668755
O O9 0.133493 0.084774 0.857102
O O10 0.067150 0.903207 0.077045
O O11 0.000000 0.000000 0.000000
#
# Coordination Sequence:
#
# PCOD9292785 Si02
#       6
#     8   8   8   4   4   8
#     4  12  27  48  70 104 152 187 241 290 356 444
#     4  10  22  44  68 101 142 181 238 291 358 424
#     4  12  22  45  73 104 139 179 244 308 361 418
#     4  11  22  42  69 102 138 177 235 310 354 425
#     4   9  22  42  71 102 134 189 233 292 360 425
#     4  12  27  48  74 107 143 198 238 296 368 434
#
# _framework density 23.193451
#
# number of rings (size 3 to 8) (size 9 to 14) (size 15 to 20)
#    0.000    0.800    6.000    0.000    2.800    2.400 
#    7.200    0.000    0.000    0.000    0.000    0.000 
#    0.000    0.000    0.000    0.000    0.000    0.000 
#
# Total GULP energy -111347.405014 kJ/mol
# GULP energy per Si atom -5567.370251 kJ/mol
# Density = 2.314066 g / cm^3
# Si number density = 23.193451 Si / 1000 Ang^3
#
#
#
# Elastic Constant Matrix: (Units=GPa)
#
#
# Indices 1 2 3 4 5 6 
#
# 1 62.3321 18.9554 11.7072 0.0000 0.7787 0.0000
# 2 18.9554 112.7919 63.7376 0.0000 -11.3682 0.0000
# 3 11.7072 63.7376 195.0069 0.0000 1.6824 0.0000
# 4 0.0000 0.0000 0.0000 -33.1632 0.0000 56.8618
# 5 0.7787 -11.3682 1.6824 0.0000 38.1904 0.0000
# 6 0.0000 0.0000 0.0000 56.8618 0.0000 -21.9419
#
#
#
# Elastic Compliance Matrix: (Units=1/GPa)
#
#
# Indices 1 2 3 4 5 6 
#
# 1 0.016963 -0.002949 -0.000044 0.000000 -0.001222 0.000000
# 2 -0.002949 0.011846 -0.003727 0.000000 0.003750 0.000000
# 3 -0.000044 -0.003727 0.006361 0.000000 -0.001389 0.000000
# 4 0.000000 0.000000 0.000000 0.008757 0.000000 0.022694
# 5 -0.001222 0.003750 -0.001389 0.000000 0.027387 0.000000
# 6 0.000000 0.000000 0.000000 0.022694 0.000000 0.013236
#
#
# Mechanical properties :
#
#
# Convention : Reuss Voigt Hill
#
# Bulk Modulus (GPa) = 46.01999 62.10349 54.06174
# Shear Modulus (GPa) = 47.51357 14.99911 31.25634
#
# Velocity S-wave (km/s) = 4.53103 2.54578 3.67500
# Velocity P-wave (km/s) = 6.87448 5.95615 6.43173
#
# Compressibility (1/GPa) = 0.02172969
#
# Stress axis : x y z
#
# Youngs Moduli (GPa) = 58.95029 84.41948 157.21269
#
# Poissons Ratio (x) = 0.24896 0.00691
# Poissons Ratio (y) = 0.17385 0.58593
# Poissons Ratio (z) = 0.00259 0.31463
#
# Static dielectric constant tensor:
#      x y z
#    x 1.922070 0.000000 -0.056750 
#    y 0.000000 2.022450 0.000000 
#    z -0.056750 0.000000 1.842630 
# 
# From -- ./inp_files/68962.got.cif
#   From: 2010.05.17/outbox.cif.g08.bks.cpg/sg15_35_cif.got.tgz:68962.got - 2010.06.03 18:47:42.
