data_PCOD9292713
_publ_section_title
;
Structure prediction by ZEFSAII (Michael W. Deem and Ramdas Pophale) SiO2 
 PCOD9292713
Probable space group: C 2/C
;
_chemical_formula_sum "Si O2"
_cell_formula_units_Z 36
_cell_length_a 21.097230
_cell_length_b 9.507734
_cell_length_c 17.109188
_cell_angle_alpha 90.000000
_cell_angle_beta 27.189367
_cell_angle_gamma 90.000000
_cell_volume 1568.137897
_symmetry_space_group_name_H-M "C 2/C"
_symmetry_group_IT_number 15
_symmetry_cell_setting 'monoclinic'
loop_
_space_group_symop_operation_xyz
x,y,z
-x,y,1/2-z
-x,-y,-z
x,-y,1/2+z
1/2+x,1/2+y,z
1/2-x,1/2+y,1/2-z
1/2-x,1/2-y,-z
1/2+x,1/2-y,1/2+z
loop_
_atom_site_type_symbol
_atom_site_label
_atom_site_fract_x
_atom_site_fract_y
_atom_site_fract_z
Si Si1 0.500000 0.768317 0.750000
Si Si2 0.347857 0.574299 0.314295
Si Si3 0.908318 0.563275 0.485330
Si Si4 0.880817 0.643080 0.683263
Si Si5 0.652577 0.514868 0.515997
O O1 0.483328 0.868313 0.693968
O O2 0.625658 0.666449 0.585450
O O3 0.232670 0.471323 0.405182
O O4 0.343185 0.717962 0.271435
O O5 0.324078 0.585104 0.433773
O O6 0.504730 0.517115 0.138110
O O7 0.885296 0.661336 0.585490
O O8 0.973198 0.418760 0.446939
O O9 0.770433 0.520905 0.825358
#
# Coordination Sequence:
#
# PCOD9292713 Si02
#       5
#     4   8   8   8   8
#     4  10  24  46  64  98 132 180 216 272 324 406
#     4  10  22  44  66  98 128 175 219 278 322 398
#     4  11  25  41  67  96 136 175 217 271 335 387
#     4  11  24  42  64 102 131 174 221 275 326 393
#     4  10  24  43  70  96 129 177 222 270 332 386
#
# _framework density 22.957166999999998
#
# number of rings (size 3 to 8) (size 9 to 14) (size 15 to 20)
#    0.000    1.778    0.000    3.333    3.111   12.444 
#   12.000    0.000    0.000    0.000    0.000    0.000 
#    0.000    0.000    0.000    0.000    0.000    0.000 
#
# Total GULP energy -100593.655154 kJ/mol
# GULP energy per Si atom -5588.536397 kJ/mol
# Density = 2.290492 g / cm^3
# Si number density = 22.957167 Si / 1000 Ang^3
#
#
#
# Elastic Constant Matrix: (Units=GPa)
#
#
# Indices 1 2 3 4 5 6 
#
# 1 114.1909 31.2360 58.0230 0.0000 -5.0682 0.0000
# 2 31.2360 82.3429 9.8843 0.0000 6.1690 0.0000
# 3 58.0230 9.8843 73.9908 0.0000 4.8363 0.0000
# 4 0.0000 0.0000 0.0000 28.3225 0.0000 -5.1459
# 5 -5.0682 6.1690 4.8363 0.0000 45.6497 0.0000
# 6 0.0000 0.0000 0.0000 -5.1459 0.0000 7.5164
#
#
#
# Elastic Compliance Matrix: (Units=1/GPa)
#
#
# Indices 1 2 3 4 5 6 
#
# 1 0.016821 -0.005143 -0.012760 0.000000 0.003914 0.000000
# 2 -0.005143 0.014018 0.002338 0.000000 -0.002713 0.000000
# 3 -0.012760 0.002338 0.023485 0.000000 -0.004221 0.000000
# 4 0.000000 0.000000 0.000000 0.040323 0.000000 0.027606
# 5 0.003914 -0.002713 -0.004221 0.000000 0.023154 0.000000
# 6 0.000000 0.000000 0.000000 0.027606 0.000000 0.151943
#
#
# Mechanical properties :
#
#
# Convention : Reuss Voigt Hill
#
# Bulk Modulus (GPa) = 43.11459 52.09014 47.60237
# Shear Modulus (GPa) = 16.20184 27.72314 21.96249
#
# Velocity S-wave (km/s) = 2.65946 3.47883 3.09637
# Velocity P-wave (km/s) = 5.31522 6.23504 5.79341
#
# Compressibility (1/GPa) = 0.02319401
#
# Stress axis : x y z
#
# Youngs Moduli (GPa) = 59.44799 71.33791 42.58003
#
# Poissons Ratio (x) = 0.36686 0.54333
# Poissons Ratio (y) = 0.30572 -0.09953
# Poissons Ratio (z) = 0.75856 -0.16675
#
# Static dielectric constant tensor:
#      x y z
#    x 1.839400 0.000000 0.000110 
#    y 0.000000 1.893240 0.000000 
#    z 0.000110 0.000000 1.861930 
# 
# From -- ./inp_files/214196.got.cif
#   From: 2010.05.17/outbox.cif.g08.bks.cpg/sg15_108_cif.got.tgz:214196.got - 2010.06.03 18:47:42.
