data_PCOD9292236
_publ_section_title
;
Structure prediction by ZEFSAII (Michael W. Deem and Ramdas Pophale) SiO2 
 PCOD9292236
Probable space group: C 2/C
;
_chemical_formula_sum "Si O2"
_cell_formula_units_Z 52
_cell_length_a 8.372571
_cell_length_b 22.234687
_cell_length_c 15.078257
_cell_angle_alpha 90.000000
_cell_angle_beta 118.599901
_cell_angle_gamma 90.000000
_cell_volume 2464.492521
_symmetry_space_group_name_H-M "C 2/C"
_symmetry_group_IT_number 15
_symmetry_cell_setting 'monoclinic'
loop_
_space_group_symop_operation_xyz
x,y,z
-x,y,1/2-z
-x,-y,-z
x,-y,1/2+z
1/2+x,1/2+y,z
1/2-x,1/2+y,1/2-z
1/2-x,1/2-y,-z
1/2+x,1/2-y,1/2+z
loop_
_atom_site_type_symbol
_atom_site_label
_atom_site_fract_x
_atom_site_fract_y
_atom_site_fract_z
Si Si1 0.869870 0.231691 0.894608
Si Si2 0.185323 0.396963 0.350674
Si Si3 0.856139 0.845584 0.634887
Si Si4 0.848765 0.155881 0.436910
Si Si5 0.172722 0.456874 0.543030
Si Si6 0.500000 0.209532 0.250000
Si Si7 0.455929 0.456178 0.070557
O O1 0.743406 0.172841 0.868207
O O2 0.767054 0.287229 0.912670
O O3 0.909027 0.250932 0.803730
O O4 0.061359 0.213283 0.990216
O O5 0.169489 0.425754 0.444424
O O6 0.353229 0.430125 0.347036
O O7 0.000000 0.404948 0.250000
O O8 0.717116 0.900144 0.617359
O O9 0.000000 0.832441 0.750000
O O10 0.991332 0.861582 0.590051
O O11 0.661283 0.171178 0.338787
O O12 0.840011 0.100446 0.502979
O O13 0.339926 0.502280 0.602814
O O14 0.000000 0.500000 0.500000
O O15 0.500000 0.500000 0.000000
#
# Coordination Sequence:
#
# PCOD9292236 Si02
#       7
#     8   8   8   8   8   4   8
#     4  11  24  43  67  99 136 173 216 283 335 398
#     4  10  22  43  68  92 128 181 217 270 342 395
#     4  12  23  42  71  99 132 177 226 272 331 409
#     4  11  23  44  67  94 136 179 213 280 337 386
#     4  11  25  43  66  99 130 176 224 277 334 396
#     4  12  26  40  64 108 130 174 230 268 340 408
#     4   9  19  43  63  85 133 169 218 273 325 386
#
# _framework density 21.099678999999998
#
# number of rings (size 3 to 8) (size 9 to 14) (size 15 to 20)
#    0.000    1.231    6.154    1.385    2.154    1.231 
#   11.077    0.000    0.000    0.000    0.000    0.000 
#    0.000    0.000    0.000    0.000    0.000    0.000 
#
# Total GULP energy -145113.897476 kJ/mol
# GULP energy per Si atom -5581.303749 kJ/mol
# Density = 2.105166 g / cm^3
# Si number density = 21.099679 Si / 1000 Ang^3
#
#
#
# Elastic Constant Matrix: (Units=GPa)
#
#
# Indices 1 2 3 4 5 6 
#
# 1 56.4148 48.8269 20.0827 0.0000 19.1712 0.0000
# 2 48.8269 154.8725 46.4780 0.0000 39.4030 0.0000
# 3 20.0827 46.4780 125.1855 0.0000 46.2655 0.0000
# 4 0.0000 0.0000 0.0000 8.0814 0.0000 9.2784
# 5 19.1712 39.4030 46.2655 0.0000 40.4795 0.0000
# 6 0.0000 0.0000 0.0000 9.2784 0.0000 37.8423
#
#
#
# Elastic Compliance Matrix: (Units=1/GPa)
#
#
# Indices 1 2 3 4 5 6 
#
# 1 0.025343 -0.006571 0.000772 0.000000 -0.006489 0.000000
# 2 -0.006571 0.010288 -0.000371 0.000000 -0.006478 0.000000
# 3 0.000772 -0.000371 0.013857 0.000000 -0.015842 0.000000
# 4 0.000000 0.000000 0.000000 0.172223 0.000000 -0.042227
# 5 -0.006489 -0.006478 -0.015842 0.000000 0.052189 0.000000
# 6 0.000000 0.000000 0.000000 -0.042227 0.000000 0.036779
#
#
# Mechanical properties :
#
#
# Convention : Reuss Voigt Hill
#
# Bulk Modulus (GPa) = 26.91954 63.02757 44.97356
# Shear Modulus (GPa) = 14.90752 32.01966 23.46359
#
# Velocity S-wave (km/s) = 2.66094 3.89979 3.33834
# Velocity P-wave (km/s) = 4.71453 7.08619 6.01834
#
# Compressibility (1/GPa) = 0.03714774
#
# Stress axis : x y z
#
# Youngs Moduli (GPa) = 39.45855 97.19952 72.16652
#
# Poissons Ratio (x) = 0.63867 -0.05572
# Poissons Ratio (y) = 0.25927 0.02681
# Poissons Ratio (z) = -0.03046 0.03611
#
# Static dielectric constant tensor:
#      x y z
#    x 1.806380 0.000000 -0.032400 
#    y 0.000000 1.755750 0.000000 
#    z -0.032400 0.000000 1.778620 
# 
# From -- ./inp_files/135975.got.cif
#   From: 2010.05.17/outbox.cif.g08.bks.cpg/sg15_68_cif.got.tgz:135975.got - 2010.06.03 18:47:42.
