data_PCOD9292710
_publ_section_title
;
Structure prediction by ZEFSAII (Michael W. Deem and Ramdas Pophale) SiO2 
 PCOD9292710
Probable space group: C 2/C
;
_chemical_formula_sum "Si O2"
_cell_formula_units_Z 32
_cell_length_a 25.857213
_cell_length_b 5.647802
_cell_length_c 22.471935
_cell_angle_alpha 90.000000
_cell_angle_beta 157.092037
_cell_angle_gamma 90.000000
_cell_volume 1277.416345
_symmetry_space_group_name_H-M "C 2/C"
_symmetry_group_IT_number 15
_symmetry_cell_setting 'monoclinic'
loop_
_space_group_symop_operation_xyz
x,y,z
-x,y,1/2-z
-x,-y,-z
x,-y,1/2+z
1/2+x,1/2+y,z
1/2-x,1/2+y,1/2-z
1/2-x,1/2-y,-z
1/2+x,1/2-y,1/2+z
loop_
_atom_site_type_symbol
_atom_site_label
_atom_site_fract_x
_atom_site_fract_y
_atom_site_fract_z
Si Si1 0.528312 0.275965 0.709396
Si Si2 0.384989 0.785395 0.677799
Si Si3 0.636183 0.023429 0.060580
Si Si4 0.912013 0.805867 0.372247
O O1 0.500000 0.284643 0.750000
O O2 0.581032 0.538801 0.753324
O O3 0.623272 0.046586 0.801439
O O4 0.406923 0.204828 0.537120
O O5 0.500000 0.808627 0.750000
O O6 0.250000 0.750000 0.500000
O O7 0.778195 0.905251 0.200891
O O8 0.642512 0.142519 0.132015
O O9 0.516369 0.836654 0.942349
O O10 0.000000 0.000000 0.500000
#
# Coordination Sequence:
#
# PCOD9292710 Si02
#       4
#     8   8   8   8
#     4  10  24  45  73 109 148 191 244 306 376 455
#     4  10  22  44  66  97 144 190 238 289 357 446
#     4  11  25  45  76 107 146 197 251 323 376 460
#     4  11  24  47  71 105 146 195 259 312 384 445
#
# _framework density 25.050566
#
# number of rings (size 3 to 8) (size 9 to 14) (size 15 to 20)
#    0.000    1.500    2.500    0.750    3.500    4.000 
#    9.000    0.000    0.000    0.000    0.000    0.000 
#    0.000    0.000    0.000    0.000    0.000    0.000 
#
# Total GULP energy -89436.201381 kJ/mol
# GULP energy per Si atom -5589.762586 kJ/mol
# Density = 2.499355 g / cm^3
# Si number density = 25.050566 Si / 1000 Ang^3
#
#
#
# Elastic Constant Matrix: (Units=GPa)
#
#
# Indices 1 2 3 4 5 6 
#
# 1 124.9075 55.0078 72.4955 0.0001 11.7884 0.0000
# 2 55.0078 185.7084 32.7728 0.0002 -4.1336 0.0001
# 3 72.4955 32.7728 138.0565 -0.0004 5.4697 -0.0001
# 4 0.0001 0.0002 -0.0004 56.0221 0.0001 -22.1834
# 5 11.7884 -4.1336 5.4697 0.0001 43.1066 0.0000
# 6 0.0000 0.0001 -0.0001 -22.1834 0.0000 45.8486
#
#
#
# Elastic Compliance Matrix: (Units=1/GPa)
#
#
# Indices 1 2 3 4 5 6 
#
# 1 0.013083 -0.002873 -0.006066 0.000000 -0.003084 0.000000
# 2 -0.002873 0.006273 -0.000035 0.000000 0.001392 0.000000
# 3 -0.006066 -0.000035 0.010424 0.000000 0.000333 0.000000
# 4 0.000000 0.000000 0.000000 0.022080 0.000000 0.010683
# 5 -0.003084 0.001392 0.000333 0.000000 0.024133 0.000000
# 6 0.000000 0.000000 0.000000 0.010683 0.000000 0.026980
#
#
# Mechanical properties :
#
#
# Convention : Reuss Voigt Hill
#
# Bulk Modulus (GPa) = 84.52574 85.46938 84.99756
# Shear Modulus (GPa) = 40.04299 48.22189 44.13244
#
# Velocity S-wave (km/s) = 4.00245 4.39222 4.20186
# Velocity P-wave (km/s) = 7.42797 7.74048 7.58583
#
# Compressibility (1/GPa) = 0.01183072
#
# Stress axis : x y z
#
# Youngs Moduli (GPa) = 76.43577 159.40987 95.93389
#
# Poissons Ratio (x) = 0.45805 0.58191
# Poissons Ratio (y) = 0.21963 0.00340
# Poissons Ratio (z) = 0.46364 0.00565
#
# Static dielectric constant tensor:
#      x y z
#    x 2.243380 0.000000 0.017690 
#    y 0.000000 2.045060 0.000000 
#    z 0.017690 0.000000 1.945580 
# 
# From -- ./inp_files/303981.got.cif
#   From: 2010.05.17/outbox.cif.g08.bks.cpg/sg15_152_cif.got.tgz:303981.got - 2010.06.03 18:47:42.
