data_PCOD9292084
_publ_section_title
;
Structure prediction by ZEFSAII (Michael W. Deem and Ramdas Pophale) SiO2 
 PCOD9292084
Probable space group: C 2/C
;
_chemical_formula_sum "Si O2"
_cell_formula_units_Z 52
_cell_length_a 22.725661
_cell_length_b 6.886035
_cell_length_c 23.032708
_cell_angle_alpha 90.000000
_cell_angle_beta 32.880988
_cell_angle_gamma 90.000000
_cell_volume 1956.803633
_symmetry_space_group_name_H-M "C 2/C"
_symmetry_group_IT_number 15
_symmetry_cell_setting 'monoclinic'
loop_
_space_group_symop_operation_xyz
x,y,z
-x,y,1/2-z
-x,-y,-z
x,-y,1/2+z
1/2+x,1/2+y,z
1/2-x,1/2+y,1/2-z
1/2-x,1/2-y,-z
1/2+x,1/2-y,1/2+z
loop_
_atom_site_type_symbol
_atom_site_label
_atom_site_fract_x
_atom_site_fract_y
_atom_site_fract_z
Si Si1 0.914910 0.202773 0.961251
Si Si2 0.605737 0.134804 0.223742
Si Si3 0.105054 0.943068 0.831101
Si Si4 0.000000 0.718959 0.750000
Si Si5 0.838024 0.033924 0.916016
Si Si6 0.222608 0.450450 0.903532
Si Si7 0.734952 0.907206 0.203125
O O1 0.826496 0.108964 0.990742
O O2 0.000083 0.301072 0.846821
O O3 0.124980 0.215427 0.655046
O O4 0.861952 0.380081 0.039872
O O5 0.488063 0.458149 0.432945
O O6 0.578508 0.922346 0.220080
O O7 0.695404 0.087948 0.198439
O O8 0.159137 0.993937 0.723435
O O9 0.187696 0.031110 0.809292
O O10 0.128110 0.711820 0.813710
O O11 0.927880 0.867025 0.846599
O O12 0.740155 0.947704 0.958423
O O13 0.201405 0.246687 0.890438
#
# Coordination Sequence:
#
# PCOD9292084 Si02
#       7
#     8   8   8   4   8   8   8
#     4  12  22  41  67  99 127 178 216 265 324 384
#     4  12  21  38  70  93 128 178 215 256 332 386
#     4  10  22  43  68  86 133 171 211 273 321 379
#     4  12  18  38  66  94 128 176 212 254 328 386
#     4  12  21  41  65  95 139 171 208 271 324 383
#     4  10  24  40  66  99 132 167 217 275 318 385
#     4  10  22  43  66  92 129 171 213 273 325 378
#
# _framework density 26.573948000000001
#
# number of rings (size 3 to 8) (size 9 to 14) (size 15 to 20)
#    0.923    0.000    6.154    2.308    0.000    0.615 
#    0.000    6.923    0.000    0.000    0.000    0.000 
#    0.000    0.000    0.000    0.000    0.000    0.000 
#
# Total GULP energy -145492.764043 kJ/mol
# GULP energy per Si atom -5595.875540 kJ/mol
# Density = 2.651346 g / cm^3
# Si number density = 26.573948 Si / 1000 Ang^3
#
#
#
# Elastic Constant Matrix: (Units=GPa)
#
#
# Indices 1 2 3 4 5 6 
#
# 1 152.2902 30.6165 3.3208 0.0003 -7.2041 0.0000
# 2 30.6165 121.2597 24.4999 0.0063 -2.0221 -0.0023
# 3 3.3208 24.4999 54.1494 -0.0018 -9.8543 0.0030
# 4 0.0003 0.0063 -0.0018 59.1258 0.0055 -5.2740
# 5 -7.2041 -2.0221 -9.8543 0.0055 20.7818 -0.0036
# 6 0.0000 -0.0023 0.0030 -5.2740 -0.0036 47.2711
#
#
#
# Elastic Compliance Matrix: (Units=1/GPa)
#
#
# Indices 1 2 3 4 5 6 
#
# 1 0.007061 -0.001926 0.000930 0.000000 0.002701 0.000000
# 2 -0.001926 0.009627 -0.004584 -0.000001 -0.001905 0.000001
# 3 0.000930 -0.004584 0.022395 0.000000 0.010495 -0.000001
# 4 0.000000 -0.000001 0.000000 0.017083 -0.000004 0.001906
# 5 0.002701 -0.001905 0.010495 -0.000004 0.053847 0.000003
# 6 0.000000 0.000001 -0.000001 0.001906 0.000003 0.021367
#
#
# Mechanical properties :
#
#
# Convention : Reuss Voigt Hill
#
# Bulk Modulus (GPa) = 35.81329 49.39707 42.60518
# Shear Modulus (GPa) = 32.92756 43.38654 38.15705
#
# Velocity S-wave (km/s) = 3.52389 4.04502 3.79341
# Velocity P-wave (km/s) = 5.48299 6.35965 5.93752
#
# Compressibility (1/GPa) = 0.02792259
#
# Stress axis : x y z
#
# Youngs Moduli (GPa) = 141.62188 103.86947 44.65353
#
# Poissons Ratio (x) = 0.20002 -0.04152
# Poissons Ratio (y) = 0.27271 0.20471
# Poissons Ratio (z) = -0.13168 0.47619
#
# Static dielectric constant tensor:
#      x y z
#    x 2.071100 -0.000010 -0.042040 
#    y -0.000010 2.088980 0.000010 
#    z -0.042040 0.000010 2.132980 
# 
# From -- ./inp_files/279516.got.cif
#   From: 2010.05.17/outbox.cif.g08.bks.cpg/sg15_140_cif.got.tgz:279516.got - 2010.06.03 18:47:42.
