data_PCOD9292796
_publ_section_title
;
Structure prediction by ZEFSAII (Michael W. Deem and Ramdas Pophale) SiO2 
 PCOD9292796
Probable space group: C 2/C
;
_chemical_formula_sum "Si O2"
_cell_formula_units_Z 40
_cell_length_a 22.140408
_cell_length_b 7.240122
_cell_length_c 17.730085
_cell_angle_alpha 90.000000
_cell_angle_beta 31.986243
_cell_angle_gamma 90.000000
_cell_volume 1505.515073
_symmetry_space_group_name_H-M "C 2/C"
_symmetry_group_IT_number 15
_symmetry_cell_setting 'monoclinic'
loop_
_space_group_symop_operation_xyz
x,y,z
-x,y,1/2-z
-x,-y,-z
x,-y,1/2+z
1/2+x,1/2+y,z
1/2-x,1/2+y,1/2-z
1/2-x,1/2-y,-z
1/2+x,1/2-y,1/2+z
loop_
_atom_site_type_symbol
_atom_site_label
_atom_site_fract_x
_atom_site_fract_y
_atom_site_fract_z
Si Si1 0.311808 0.921171 0.236019
Si Si2 0.549088 0.390234 0.611654
Si Si3 0.658011 0.491513 0.769771
Si Si4 0.190663 0.227327 0.484225
Si Si5 0.973529 0.467041 0.916942
O O1 0.302684 0.719235 0.280753
O O2 0.392267 0.039751 0.206490
O O3 0.193900 0.972387 0.318624
O O4 0.402715 0.914967 0.068029
O O5 0.500000 0.392554 0.750000
O O6 0.465454 0.487154 0.638215
O O7 0.663913 0.512754 0.496373
O O8 0.554241 0.176884 0.579517
O O9 0.732207 0.643140 0.649717
O O10 0.250000 0.250000 0.500000
O O11 0.068530 0.327388 0.602293
#
# Coordination Sequence:
#
# PCOD9292796 Si02
#       5
#     8   8   8   8   8
#     4   9  20  44  68  97 139 181 233 290 352 415
#     4  11  23  44  69 102 145 186 239 289 351 422
#     4  10  22  44  68 104 139 186 233 291 353 422
#     4  11  23  44  69 104 146 184 235 294 350 422
#     4   9  22  44  66  99 137 185 235 294 347 412
#
# _framework density 26.568981000000001
#
# number of rings (size 3 to 8) (size 9 to 14) (size 15 to 20)
#    0.000    2.000    2.000    0.000    2.800    1.600 
#   14.400    9.000    0.000    0.000    0.000    0.000 
#    0.000    0.000    0.000    0.000    0.000    0.000 
#
# Total GULP energy -111782.749467 kJ/mol
# GULP energy per Si atom -5589.137473 kJ/mol
# Density = 2.650851 g / cm^3
# Si number density = 26.568981 Si / 1000 Ang^3
#
#
#
# Elastic Constant Matrix: (Units=GPa)
#
#
# Indices 1 2 3 4 5 6 
#
# 1 220.8284 64.7603 41.6658 -0.0018 -31.2034 0.0015
# 2 64.7603 186.8696 38.1053 -0.0017 -8.9716 0.0023
# 3 41.6658 38.1053 93.8507 -0.0013 -9.3149 0.0016
# 4 -0.0018 -0.0017 -0.0013 13.0250 0.0011 -20.4873
# 5 -31.2034 -8.9716 -9.3149 0.0011 45.0025 -0.0008
# 6 0.0015 0.0023 0.0016 -20.4873 -0.0008 58.6970
#
#
#
# Elastic Compliance Matrix: (Units=1/GPa)
#
#
# Indices 1 2 3 4 5 6 
#
# 1 0.005746 -0.001502 -0.001608 0.000000 0.003352 0.000000
# 2 -0.001502 0.006248 -0.001888 0.000000 -0.000187 0.000000
# 3 -0.001608 -0.001888 0.012239 0.000001 0.001042 0.000000
# 4 0.000000 0.000000 0.000001 0.170235 -0.000003 0.059418
# 5 0.003352 -0.000187 0.001042 -0.000003 0.024723 -0.000001
# 6 0.000000 0.000000 0.000000 0.059418 -0.000001 0.037776
#
#
# Mechanical properties :
#
#
# Convention : Reuss Voigt Hill
#
# Bulk Modulus (GPa) = 70.24835 87.84572 79.04704
# Shear Modulus (GPa) = 18.40190 47.14608 32.77399
#
# Velocity S-wave (km/s) = 2.63460 4.21703 3.51599
# Velocity P-wave (km/s) = 5.97932 7.53964 6.80435
#
# Compressibility (1/GPa) = 0.01423521
#
# Stress axis : x y z
#
# Youngs Moduli (GPa) = 174.03195 160.04883 81.70357
#
# Poissons Ratio (x) = 0.24046 0.13141
# Poissons Ratio (y) = 0.26147 0.15429
# Poissons Ratio (z) = 0.27990 0.30223
#
# Static dielectric constant tensor:
#      x y z
#    x 2.106140 0.000000 0.062760 
#    y 0.000000 1.955720 0.000000 
#    z 0.062760 0.000000 2.382040 
# 
# From -- ./inp_files/254190.got.cif
#   From: 2010.05.17/outbox.cif.g08.bks.cpg/sg15_128_cif.got.tgz:254190.got - 2010.06.03 18:47:42.
