data_PCOD9292743
_publ_section_title
;
Structure prediction by ZEFSAII (Michael W. Deem and Ramdas Pophale) SiO2 
 PCOD9292743
Probable space group: C 2/C
;
_chemical_formula_sum "Si O2"
_cell_formula_units_Z 56
_cell_length_a 9.380049
_cell_length_b 22.845011
_cell_length_c 17.608154
_cell_angle_alpha 90.000000
_cell_angle_beta 48.594641
_cell_angle_gamma 90.000000
_cell_volume 2830.088821
_symmetry_space_group_name_H-M "C 2/C"
_symmetry_group_IT_number 15
_symmetry_cell_setting 'monoclinic'
loop_
_space_group_symop_operation_xyz
x,y,z
-x,y,1/2-z
-x,-y,-z
x,-y,1/2+z
1/2+x,1/2+y,z
1/2-x,1/2+y,1/2-z
1/2-x,1/2-y,-z
1/2+x,1/2-y,1/2+z
loop_
_atom_site_type_symbol
_atom_site_label
_atom_site_fract_x
_atom_site_fract_y
_atom_site_fract_z
Si Si1 0.539711 0.347576 0.823425
Si Si2 0.600127 0.565577 0.012130
Si Si3 0.963158 0.353893 0.681760
Si Si4 0.919907 0.708087 0.663616
Si Si5 0.703912 0.668379 0.883546
Si Si6 0.421659 0.772575 0.991671
Si Si7 0.323669 0.972038 0.867538
O O1 0.500000 0.355257 0.750000
O O2 0.395582 0.384762 0.924709
O O3 0.551611 0.278046 0.834527
O O4 0.747546 0.373490 0.766119
O O5 0.391570 0.535574 0.089745
O O6 0.622137 0.604092 0.927351
O O7 0.773908 0.520054 0.949174
O O8 0.973667 0.316434 0.602347
O O9 0.105177 0.408733 0.628370
O O10 0.000000 0.321551 0.750000
O O11 0.759967 0.684071 0.777423
O O12 0.878623 0.699842 0.589008
O O13 0.110667 0.678229 0.629181
O O14 0.551366 0.716450 0.961964
O O15 0.250000 0.750000 0.000000
O O16 0.500000 0.990416 0.750000
#
# Coordination Sequence:
#
# PCOD9292743 Si02
#       7
#     8   8   8   8   8   8   8
#     4  12  21  38  64  94 127 169 210 263 325 392
#     4  11  23  40  70  93 124 169 224 271 320 379
#     4  11  21  40  63  90 126 170 218 264 317 394
#     4  11  23  40  57  98 135 168 207 264 323 394
#     4  11  23  39  63  95 127 169 214 261 324 388
#     4  12  23  34  62  93 131 171 209 256 328 397
#     4  10  22  44  67  93 119 168 227 272 318 383
#
# _framework density 19.787364
#
# number of rings (size 3 to 8) (size 9 to 14) (size 15 to 20)
#    0.000    0.857    7.143    2.143    4.000    0.000 
#    0.000    0.714    6.286    0.000    0.000    0.000 
#    0.000    0.000    0.000    0.000    0.000    0.000 
#
# Total GULP energy -156087.375767 kJ/mol
# GULP energy per Si atom -5574.549135 kJ/mol
# Density = 1.974233 g / cm^3
# Si number density = 19.787364 Si / 1000 Ang^3
#
#
#
# Elastic Constant Matrix: (Units=GPa)
#
#
# Indices 1 2 3 4 5 6 
#
# 1 65.8203 -4.9871 34.0658 0.0000 14.2667 0.0000
# 2 -4.9871 66.6813 25.1463 0.0000 -0.6955 0.0000
# 3 34.0658 25.1463 96.9988 0.0000 7.3745 0.0000
# 4 0.0000 0.0000 0.0000 35.3983 0.0000 -6.6001
# 5 14.2667 -0.6955 7.3745 0.0000 42.9960 0.0000
# 6 0.0000 0.0000 0.0000 -6.6001 0.0000 16.3699
#
#
#
# Elastic Compliance Matrix: (Units=1/GPa)
#
#
# Indices 1 2 3 4 5 6 
#
# 1 0.020928 0.004569 -0.008118 0.000000 -0.005478 0.000000
# 2 0.004569 0.017664 -0.006171 0.000000 -0.000172 0.000000
# 3 -0.008118 -0.006171 0.014755 0.000000 0.000063 0.000000
# 4 0.000000 0.000000 0.000000 0.030546 0.000000 0.012316
# 5 -0.005478 -0.000172 0.000063 0.000000 0.025062 0.000000
# 6 0.000000 0.000000 0.000000 0.012316 0.000000 0.066053
#
#
# Mechanical properties :
#
#
# Convention : Reuss Voigt Hill
#
# Bulk Modulus (GPa) = 29.49137 37.55007 33.52072
# Shear Modulus (GPa) = 24.30129 30.63787 27.46958
#
# Velocity S-wave (km/s) = 3.50826 3.93918 3.72995
# Velocity P-wave (km/s) = 5.59884 6.30139 5.96048
#
# Compressibility (1/GPa) = 0.03390823
#
# Stress axis : x y z
#
# Youngs Moduli (GPa) = 47.78291 56.61295 67.77172
#
# Poissons Ratio (x) = -0.25869 0.55017
# Poissons Ratio (y) = -0.21834 0.41821
# Poissons Ratio (z) = 0.38790 0.34935
#
# Static dielectric constant tensor:
#      x y z
#    x 4.914630 0.000000 -1.799230 
#    y 0.000000 1.783680 0.000000 
#    z -1.799230 0.000000 2.794620 
# 
# From -- ./inp_files/193204.got.cif
#   From: 2010.05.17/outbox.cif.g08.bks.cpg/sg15_97_cif.got.tgz:193204.got - 2010.06.03 18:47:42.
