data_PCOD9292647
_publ_section_title
;
Structure prediction by ZEFSAII (Michael W. Deem and Ramdas Pophale) SiO2 
 PCOD9292647
Probable space group: C 2/C
;
_chemical_formula_sum "Si O2"
_cell_formula_units_Z 28
_cell_length_a 19.309996
_cell_length_b 10.159701
_cell_length_c 10.700680
_cell_angle_alpha 90.000000
_cell_angle_beta 148.090424
_cell_angle_gamma 90.000000
_cell_volume 1109.648406
_symmetry_space_group_name_H-M "C 2/C"
_symmetry_group_IT_number 15
_symmetry_cell_setting 'monoclinic'
loop_
_space_group_symop_operation_xyz
x,y,z
-x,y,1/2-z
-x,-y,-z
x,-y,1/2+z
1/2+x,1/2+y,z
1/2-x,1/2+y,1/2-z
1/2-x,1/2-y,-z
1/2+x,1/2-y,1/2+z
loop_
_atom_site_type_symbol
_atom_site_label
_atom_site_fract_x
_atom_site_fract_y
_atom_site_fract_z
Si Si1 0.113920 0.046878 0.822854
Si Si2 0.933264 0.208405 0.394740
Si Si3 0.500000 0.867230 0.250000
Si Si4 0.639442 0.026190 0.644708
O O1 0.000000 0.016620 0.750000
O O2 0.062205 0.177727 0.674405
O O3 0.120505 0.933367 0.727602
O O4 0.246512 0.043652 0.104149
O O5 0.843655 0.315569 0.328318
O O6 0.961883 0.275805 0.306306
O O7 0.615273 0.962656 0.473574
O O8 0.500000 0.000000 0.500000
#
# Coordination Sequence:
#
# PCOD9292647 Si02
#       4
#     8   8   4   8
#     4  11  24  43  72 103 137 189 229 290 361 415
#     4  10  23  46  68 100 140 177 239 291 345 430
#     4  10  22  44  66 100 136 178 230 296 346 420
#     4  10  24  43  68 100 138 184 233 287 352 417
#
# _framework density 25.233218000000001
#
# number of rings (size 3 to 8) (size 9 to 14) (size 15 to 20)
#    0.000    1.714    1.429    0.857    2.000   16.000 
#    0.000    0.000    0.000    0.000    0.000    0.000 
#    0.000    0.000    0.000    0.000    0.000    0.000 
#
# Total GULP energy -78320.594991 kJ/mol
# GULP energy per Si atom -5594.328214 kJ/mol
# Density = 2.517579 g / cm^3
# Si number density = 25.233218 Si / 1000 Ang^3
#
#
#
# Elastic Constant Matrix: (Units=GPa)
#
#
# Indices 1 2 3 4 5 6 
#
# 1 74.5489 28.9695 52.6484 0.0000 13.5043 0.0000
# 2 28.9695 92.0485 44.7041 0.0000 -25.7494 0.0000
# 3 52.6484 44.7041 249.9929 0.0000 -13.7716 0.0000
# 4 0.0000 0.0000 0.0000 36.6394 0.0000 -42.4691
# 5 13.5043 -25.7494 -13.7716 0.0000 39.6006 0.0000
# 6 0.0000 0.0000 0.0000 -42.4691 0.0000 22.7071
#
#
#
# Elastic Compliance Matrix: (Units=1/GPa)
#
#
# Indices 1 2 3 4 5 6 
#
# 1 0.022619 -0.009484 -0.003907 0.000000 -0.015239 0.000000
# 2 -0.009484 0.018243 -0.000442 0.000000 0.014943 0.000000
# 3 -0.003907 -0.000442 0.005056 0.000000 0.002804 0.000000
# 4 0.000000 0.000000 0.000000 -0.023370 0.000000 -0.043708
# 5 -0.015239 0.014943 0.002804 0.000000 0.041140 0.000000
# 6 0.000000 0.000000 0.000000 -0.043708 0.000000 -0.037708
#
#
# Mechanical properties :
#
#
# Convention : Reuss Voigt Hill
#
# Bulk Modulus (GPa) = 54.78575 74.35937 64.57256
# Shear Modulus (GPa) = 83.70770 39.14064 61.42417
#
# Velocity S-wave (km/s) = 5.76590 3.94274 4.93917
# Velocity P-wave (km/s) = 8.12935 7.08941 7.62713
#
# Compressibility (1/GPa) = 0.01825292
#
# Stress axis : x y z
#
# Youngs Moduli (GPa) = 44.20978 54.81460 197.76921
#
# Poissons Ratio (x) = 0.51987 0.77272
# Poissons Ratio (y) = 0.41929 0.08737
# Poissons Ratio (z) = 0.17273 0.02421
#
# Static dielectric constant tensor:
#      x y z
#    x 2.036710 0.000000 0.013060 
#    y 0.000000 2.111340 0.000000 
#    z 0.013060 0.000000 1.986230 
# 
# From -- ./inp_files/83507.got.cif
#   From: 2010.05.17/outbox.cif.g08.bks.cpg/sg15_42_cif.got.tgz:83507.got - 2010.06.03 18:47:42.
