data_PCOD9292189
_publ_section_title
;
Structure prediction by ZEFSAII (Michael W. Deem and Ramdas Pophale) SiO2 
 PCOD9292189
Probable space group: C 2/C
;
_chemical_formula_sum "Si O2"
_cell_formula_units_Z 40
_cell_length_a 16.285977
_cell_length_b 7.332470
_cell_length_c 15.062076
_cell_angle_alpha 90.000000
_cell_angle_beta 64.756301
_cell_angle_gamma 90.000000
_cell_volume 1626.891172
_symmetry_space_group_name_H-M "C 2/C"
_symmetry_group_IT_number 15
_symmetry_cell_setting 'monoclinic'
loop_
_space_group_symop_operation_xyz
x,y,z
-x,y,1/2-z
-x,-y,-z
x,-y,1/2+z
1/2+x,1/2+y,z
1/2-x,1/2+y,1/2-z
1/2-x,1/2-y,-z
1/2+x,1/2-y,1/2+z
loop_
_atom_site_type_symbol
_atom_site_label
_atom_site_fract_x
_atom_site_fract_y
_atom_site_fract_z
Si Si1 0.900915 0.544452 0.501221
Si Si2 0.896183 0.706751 0.833235
Si Si3 0.908723 0.958153 0.432271
Si Si4 0.617227 0.549096 0.858029
Si Si5 0.792643 0.657719 0.711341
O O1 0.889591 0.407347 0.426021
O O2 0.887437 0.747406 0.464150
O O3 0.828959 0.534512 0.614559
O O4 0.000000 0.500000 0.500000
O O5 0.832909 0.612558 0.789426
O O6 0.000000 0.702445 0.750000
O O7 0.869959 0.915575 0.871716
O O8 0.016629 0.952134 0.367505
O O9 0.891431 0.069921 0.531967
O O10 0.685650 0.674871 0.772975
O O11 0.661185 0.351418 0.826870
#
# Coordination Sequence:
#
# PCOD9292189 Si02
#       5
#     8   8   8   8   8
#     4  11  23  44  72 101 141 184 235 289 355 423
#     4  12  23  45  69 106 140 185 242 289 350 428
#     4  10  23  45  68  96 137 189 228 285 359 421
#     4  10  22  43  67  95 136 182 227 287 357 411
#     4  11  25  43  67 105 138 182 240 291 352 423
#
# _framework density 24.586770000000001
#
# number of rings (size 3 to 8) (size 9 to 14) (size 15 to 20)
#    0.000    1.200    4.000    2.400    5.600    1.600 
#    3.600    2.000    0.000    0.000    0.000    0.000 
#    0.000    0.000    0.000    0.000    0.000    0.000 
#
# Total GULP energy -111868.929635 kJ/mol
# GULP energy per Si atom -5593.446482 kJ/mol
# Density = 2.453081 g / cm^3
# Si number density = 24.586770 Si / 1000 Ang^3
#
#
#
# Elastic Constant Matrix: (Units=GPa)
#
#
# Indices 1 2 3 4 5 6 
#
# 1 72.8891 11.1270 71.6890 0.0000 -5.2123 0.0000
# 2 11.1270 112.1926 67.2692 0.0000 20.9470 0.0000
# 3 71.6890 67.2692 160.0389 0.0000 11.4727 0.0000
# 4 0.0000 0.0000 0.0000 47.2483 0.0000 12.5023
# 5 -5.2123 20.9470 11.4727 0.0000 31.6323 0.0000
# 6 0.0000 0.0000 0.0000 12.5023 0.0000 24.2050
#
#
#
# Elastic Compliance Matrix: (Units=1/GPa)
#
#
# Indices 1 2 3 4 5 6 
#
# 1 0.028693 0.005166 -0.015521 0.000000 0.006937 0.000000
# 2 0.005166 0.014179 -0.007866 0.000000 -0.005685 0.000000
# 3 -0.015521 -0.007866 0.016753 0.000000 -0.003425 0.000000
# 4 0.000000 0.000000 0.000000 0.024515 0.000000 -0.012663
# 5 0.006937 -0.005685 -0.003425 0.000000 0.037763 0.000000
# 6 0.000000 0.000000 0.000000 -0.012663 0.000000 0.047854
#
#
# Mechanical properties :
#
#
# Convention : Reuss Voigt Hill
#
# Bulk Modulus (GPa) = 43.13899 71.69898 57.41898
# Shear Modulus (GPa) = 23.37230 33.61948 28.49589
#
# Velocity S-wave (km/s) = 3.08653 3.70182 3.40809
# Velocity P-wave (km/s) = 5.50327 6.89175 6.23627
#
# Compressibility (1/GPa) = 0.02318089
#
# Stress axis : x y z
#
# Youngs Moduli (GPa) = 34.85194 70.52773 59.69026
#
# Poissons Ratio (x) = -0.36432 0.92648
# Poissons Ratio (y) = -0.18003 0.46953
# Poissons Ratio (z) = 0.54095 0.55478
#
# Static dielectric constant tensor:
#      x y z
#    x 1.965980 0.000000 -0.008140 
#    y 0.000000 2.024470 0.000000 
#    z -0.008140 0.000000 1.937210 
# 
# From -- ./inp_files/150595.got.cif
#   From: 2010.05.17/outbox.cif.g08.bks.cpg/sg15_76_cif.got.tgz:150595.got - 2010.06.03 18:47:42.
