data_PCOD9292310
_publ_section_title
;
Structure prediction by ZEFSAII (Michael W. Deem and Ramdas Pophale) SiO2 
 PCOD9292310
Probable space group: C 2/C
;
_chemical_formula_sum "Si O2"
_cell_formula_units_Z 60
_cell_length_a 9.898315
_cell_length_b 26.739379
_cell_length_c 11.703858
_cell_angle_alpha 90.000000
_cell_angle_beta 109.794811
_cell_angle_gamma 90.000000
_cell_volume 2914.676649
_symmetry_space_group_name_H-M "C 2/C"
_symmetry_group_IT_number 15
_symmetry_cell_setting 'monoclinic'
loop_
_space_group_symop_operation_xyz
x,y,z
-x,y,1/2-z
-x,-y,-z
x,-y,1/2+z
1/2+x,1/2+y,z
1/2-x,1/2+y,1/2-z
1/2-x,1/2-y,-z
1/2+x,1/2-y,1/2+z
loop_
_atom_site_type_symbol
_atom_site_label
_atom_site_fract_x
_atom_site_fract_y
_atom_site_fract_z
Si Si1 0.804688 0.536681 0.017844
Si Si2 0.190557 0.199291 0.038083
Si Si3 0.153199 0.644642 0.815510
Si Si4 0.240653 0.390278 0.788131
Si Si5 0.365615 0.705932 0.023319
Si Si6 0.159946 0.885697 0.339287
Si Si7 0.500000 0.642462 0.250000
Si Si8 0.111485 0.571529 0.013855
O O1 0.802974 0.564574 0.140046
O O2 0.953000 0.553709 0.001475
O O3 0.678853 0.562577 0.911175
O O4 0.800796 0.477298 0.002904
O O5 0.181887 0.159155 0.934400
O O6 0.250000 0.250000 0.000000
O O7 0.277238 0.165325 0.158358
O O8 0.031970 0.214355 0.038166
O O9 0.218273 0.618833 0.722458
O O10 0.000000 0.672617 0.750000
O O11 0.289409 0.674365 0.902600
O O12 0.112546 0.607614 0.906159
O O13 0.411898 0.390183 0.814634
O O14 0.169710 0.401484 0.645163
O O15 0.386343 0.676301 0.148392
O O16 0.250000 0.750000 0.000000
O O17 0.000000 0.881536 0.250000
#
# Coordination Sequence:
#
# PCOD9292310 Si02
#       8
#     8   8   8   8   8   8   4   8
#     4  10  24  41  69  97 136 176 224 286 342 407
#     4  10  24  46  69  97 138 180 228 285 348 416
#     4  12  25  42  69  96 139 182 225 281 347 410
#     4  10  22  43  69  95 136 177 222 283 349 406
#     4  11  25  42  68  99 136 180 227 285 343 412
#     4  11  23  46  64  96 136 178 222 280 342 411
#     4  10  22  46  64  94 142 172 224 290 340 416
#     4  11  23  43  67 102 133 174 233 285 342 408
#
# _framework density 20.585473
#
# number of rings (size 3 to 8) (size 9 to 14) (size 15 to 20)
#    0.000    1.333    4.000    0.400    4.667    1.067 
#    3.600    1.333    0.000    0.000    0.000    0.000 
#    0.000    0.000    0.000    0.000    0.000    0.000 
#
# Total GULP energy -167184.251194 kJ/mol
# GULP energy per Si atom -5572.808373 kJ/mol
# Density = 2.053862 g / cm^3
# Si number density = 20.585473 Si / 1000 Ang^3
#
#
#
# Elastic Constant Matrix: (Units=GPa)
#
#
# Indices 1 2 3 4 5 6 
#
# 1 80.0881 23.9591 26.6599 0.0000 -13.8600 0.0000
# 2 23.9591 84.6559 21.9649 0.0000 -0.2432 0.0000
# 3 26.6599 21.9649 62.7892 0.0000 -6.8596 0.0000
# 4 0.0000 0.0000 0.0000 11.3204 0.0000 -0.1780
# 5 -13.8600 -0.2432 -6.8596 0.0000 38.1600 0.0000
# 6 0.0000 0.0000 0.0000 -0.1780 0.0000 32.7755
#
#
#
# Elastic Compliance Matrix: (Units=1/GPa)
#
#
# Indices 1 2 3 4 5 6 
#
# 1 0.015992 -0.003176 -0.005148 0.000000 0.004863 0.000000
# 2 -0.003176 0.013644 -0.003612 0.000000 -0.001716 0.000000
# 3 -0.005148 -0.003612 0.019553 0.000000 0.001622 0.000000
# 4 0.000000 0.000000 0.000000 0.088343 0.000000 0.000480
# 5 0.004863 -0.001716 0.001622 0.000000 0.028252 0.000000
# 6 0.000000 0.000000 0.000000 0.000480 0.000000 0.030513
#
#
# Mechanical properties :
#
#
# Convention : Reuss Voigt Hill
#
# Bulk Modulus (GPa) = 39.49957 41.41124 40.45540
# Shear Modulus (GPa) = 21.87166 26.78113 24.32639
#
# Velocity S-wave (km/s) = 3.26311 3.61081 3.44135
# Velocity P-wave (km/s) = 5.78160 6.12734 5.95698
#
# Compressibility (1/GPa) = 0.02531673
#
# Stress axis : x y z
#
# Youngs Moduli (GPa) = 62.53317 73.29425 51.14430
#
# Poissons Ratio (x) = 0.23281 0.26327
# Poissons Ratio (y) = 0.19863 0.18471
# Poissons Ratio (z) = 0.32189 0.26471
#
# Static dielectric constant tensor:
#      x y z
#    x 1.746290 0.000000 -0.028570 
#    y 0.000000 1.836090 0.000000 
#    z -0.028570 0.000000 1.792080 
# 
# From -- ./inp_files/82660.got.cif
#   From: 2010.05.17/outbox.cif.g08.bks.cpg/sg15_42_cif.got.tgz:82660.got - 2010.06.03 18:47:42.
