data_PCOD9292608
_publ_section_title
;
Structure prediction by ZEFSAII (Michael W. Deem and Ramdas Pophale) SiO2 
 PCOD9292608
Probable space group: C 2/C
;
_chemical_formula_sum "Si O2"
_cell_formula_units_Z 48
_cell_length_a 23.876491
_cell_length_b 7.537618
_cell_length_c 12.384934
_cell_angle_alpha 90.000000
_cell_angle_beta 110.776372
_cell_angle_gamma 90.000000
_cell_volume 2083.996305
_symmetry_space_group_name_H-M "C 2/C"
_symmetry_group_IT_number 15
_symmetry_cell_setting 'monoclinic'
loop_
_space_group_symop_operation_xyz
x,y,z
-x,y,1/2-z
-x,-y,-z
x,-y,1/2+z
1/2+x,1/2+y,z
1/2-x,1/2+y,1/2-z
1/2-x,1/2-y,-z
1/2+x,1/2-y,1/2+z
loop_
_atom_site_type_symbol
_atom_site_label
_atom_site_fract_x
_atom_site_fract_y
_atom_site_fract_z
Si Si1 0.110041 0.988413 0.370307
Si Si2 0.762850 0.138330 0.614900
Si Si3 0.943363 0.304331 0.817699
Si Si4 0.098450 0.656308 0.768866
Si Si5 0.954365 0.835049 0.981660
Si Si6 0.321037 0.074218 0.301481
O O1 0.176628 0.968440 0.369733
O O2 0.068711 0.872946 0.259860
O O3 0.099619 0.902636 0.479662
O O4 0.095117 0.195671 0.357203
O O5 0.750000 0.250000 0.500000
O O6 0.708977 0.013889 0.616062
O O7 0.778582 0.278934 0.719682
O O8 0.935827 0.473390 0.734728
O O9 0.004278 0.300410 0.924038
O O10 0.886306 0.334731 0.858301
O O11 0.163328 0.581825 0.775022
O O12 0.069967 0.751025 0.644039
O O13 0.000000 0.000000 0.000000
#
# Coordination Sequence:
#
# PCOD9292608 Si02
#       6
#     8   8   8   8   8   8
#     4  11  23  43  65  97 137 170 223 278 330 398
#     4  11  22  44  69  98 132 179 224 282 344 400
#     4   9  22  43  64  96 133 175 221 269 331 397
#     4  10  22  44  64  99 131 177 215 273 337 396
#     4  12  23  42  68  97 135 179 219 274 336 402
#     4   9  22  42  69  95 136 170 221 284 334 395
#
# _framework density 23.03267
#
# number of rings (size 3 to 8) (size 9 to 14) (size 15 to 20)
#    1.000    0.667    1.667    3.000    0.000    0.000 
#   12.000    1.667    0.000    0.000    0.000    0.000 
#    0.000    0.000    0.000    0.000    0.000    0.000 
#
# Total GULP energy -134043.469804 kJ/mol
# GULP energy per Si atom -5585.144575 kJ/mol
# Density = 2.298025 g / cm^3
# Si number density = 23.032670 Si / 1000 Ang^3
#
#
#
# Elastic Constant Matrix: (Units=GPa)
#
#
# Indices 1 2 3 4 5 6 
#
# 1 86.3994 8.6202 10.9673 0.0000 -28.5337 0.0000
# 2 8.6202 102.0169 0.6543 0.0000 -3.8024 0.0000
# 3 10.9673 0.6543 31.1041 0.0000 -12.3323 0.0000
# 4 0.0000 0.0000 0.0000 18.4889 0.0000 -11.5082
# 5 -28.5337 -3.8024 -12.3323 0.0000 25.8119 0.0000
# 6 0.0000 0.0000 0.0000 -11.5082 0.0000 26.8523
#
#
#
# Elastic Compliance Matrix: (Units=1/GPa)
#
#
# Indices 1 2 3 4 5 6 
#
# 1 0.018385 -0.000778 0.001908 0.000000 0.021120 0.000000
# 2 -0.000778 0.009895 0.000374 0.000000 0.000776 0.000000
# 3 0.001908 0.000374 0.039882 0.000000 0.021219 0.000000
# 4 0.000000 0.000000 0.000000 0.073763 0.000000 0.031613
# 5 0.021120 0.000776 0.021219 0.000000 0.072341 0.000000
# 6 0.000000 0.000000 0.000000 0.031613 0.000000 0.050789
#
#
# Mechanical properties :
#
#
# Convention : Reuss Voigt Hill
#
# Bulk Modulus (GPa) = 14.05128 28.88932 21.47030
# Shear Modulus (GPa) = 17.49649 27.51587 22.50618
#
# Velocity S-wave (km/s) = 2.75914 3.46011 3.12932
# Velocity P-wave (km/s) = 4.03291 5.34165 4.73273
#
# Compressibility (1/GPa) = 0.07116791
#
# Stress axis : x y z
#
# Youngs Moduli (GPa) = 54.39329 101.06532 25.07366
#
# Poissons Ratio (x) = 0.07868 -0.04783
# Poissons Ratio (y) = 0.04235 -0.00937
# Poissons Ratio (z) = -0.10377 -0.03779
#
# Static dielectric constant tensor:
#      x y z
#    x 1.957390 0.000000 -0.019240 
#    y 0.000000 1.882250 0.000000 
#    z -0.019240 0.000000 1.845480 
# 
# From -- ./inp_files/116382.got.cif
#   From: 2010.05.17/outbox.cif.g08.bks.cpg/sg15_59_cif.got.tgz:116382.got - 2010.06.03 18:47:42.
