data_PCOD9292529
_publ_section_title
;
Structure prediction by ZEFSAII (Michael W. Deem and Ramdas Pophale) SiO2 
 PCOD9292529
Probable space group: C 2/C
;
_chemical_formula_sum "Si O2"
_cell_formula_units_Z 48
_cell_length_a 8.984915
_cell_length_b 28.368814
_cell_length_c 11.459279
_cell_angle_alpha 90.000000
_cell_angle_beta 53.833782
_cell_angle_gamma 90.000000
_cell_volume 2358.044062
_symmetry_space_group_name_H-M "C 2/C"
_symmetry_group_IT_number 15
_symmetry_cell_setting 'monoclinic'
loop_
_space_group_symop_operation_xyz
x,y,z
-x,y,1/2-z
-x,-y,-z
x,-y,1/2+z
1/2+x,1/2+y,z
1/2-x,1/2+y,1/2-z
1/2-x,1/2-y,-z
1/2+x,1/2-y,1/2+z
loop_
_atom_site_type_symbol
_atom_site_label
_atom_site_fract_x
_atom_site_fract_y
_atom_site_fract_z
Si Si1 0.000000 0.265730 0.750000
Si Si2 0.026697 0.449477 0.543512
Si Si3 0.763083 0.029828 0.133797
Si Si4 0.825438 0.306610 0.067443
Si Si5 0.862403 0.072815 0.573259
Si Si6 0.000000 0.880237 0.250000
Si Si7 0.581431 0.870050 0.085039
O O1 0.812986 0.234042 0.817771
O O2 0.070044 0.293889 0.602453
O O3 0.870938 0.445485 0.713789
O O4 0.997367 0.408993 0.465490
O O5 0.000000 0.500000 0.500000
O O6 0.216248 0.451958 0.526118
O O7 0.732806 0.973347 0.151657
O O8 0.966820 0.046562 0.066938
O O9 0.671885 0.347956 0.125401
O O10 0.992486 0.322300 0.075479
O O11 0.918088 0.092699 0.674648
O O12 0.789319 0.113763 0.520639
O O13 0.500000 0.876040 0.250000
#
# Coordination Sequence:
#
# PCOD9292529 Si02
#       7
#     4   8   8   8   8   4   8
#     4   9  22  48  76 104 124 168 208 264 352 424
#     4  11  22  39  59  85 129 177 228 276 320 371
#     4  10  24  38  57  85 124 191 230 275 315 365
#     4  10  22  43  76  98 131 165 212 266 334 421
#     4  11  23  38  57  91 131 173 235 268 322 376
#     4  11  22  36  68  92 130 176 214 276 330 398
#     4  12  23  39  63  96 127 170 220 268 324 385
#
# _framework density 20.355853
#
# number of rings (size 3 to 8) (size 9 to 14) (size 15 to 20)
#    0.000    1.333    3.333    2.000    2.333    3.333 
#    0.000    0.833    0.000    0.000    0.000    0.000 
#    0.000    0.000    0.000    0.000    0.000    0.000 
#
# Total GULP energy -133615.575712 kJ/mol
# GULP energy per Si atom -5567.315655 kJ/mol
# Density = 2.030952 g / cm^3
# Si number density = 20.355853 Si / 1000 Ang^3
#
#
#
# Elastic Constant Matrix: (Units=GPa)
#
#
# Indices 1 2 3 4 5 6 
#
# 1 116.4247 44.6583 46.5945 0.0000 8.1443 0.0000
# 2 44.6583 63.9078 47.3657 0.0000 9.2005 0.0000
# 3 46.5945 47.3657 107.7533 0.0000 3.1808 0.0000
# 4 0.0000 0.0000 0.0000 30.2597 0.0000 4.7033
# 5 8.1443 9.2005 3.1808 0.0000 37.7878 0.0000
# 6 0.0000 0.0000 0.0000 4.7033 0.0000 44.1952
#
#
#
# Elastic Compliance Matrix: (Units=1/GPa)
#
#
# Indices 1 2 3 4 5 6 
#
# 1 0.012113 -0.006652 -0.002290 0.000000 -0.000798 0.000000
# 2 -0.006652 0.027766 -0.009194 0.000000 -0.004553 0.000000
# 3 -0.002290 -0.009194 0.014267 0.000000 0.001531 0.000000
# 4 0.000000 0.000000 0.000000 0.033603 0.000000 -0.003576
# 5 -0.000798 -0.004553 0.001531 0.000000 0.027615 0.000000
# 6 0.000000 0.000000 0.000000 -0.003576 0.000000 0.023007
#
#
# Mechanical properties :
#
#
# Convention : Reuss Voigt Hill
#
# Bulk Modulus (GPa) = 55.95100 62.81363 59.38231
# Shear Modulus (GPa) = 27.68493 32.41302 30.04897
#
# Velocity S-wave (km/s) = 3.69188 3.99472 3.84628
# Velocity P-wave (km/s) = 6.76162 7.22508 6.99719
#
# Compressibility (1/GPa) = 0.01787278
#
# Stress axis : x y z
#
# Youngs Moduli (GPa) = 82.55315 36.01531 70.09106
#
# Poissons Ratio (x) = 0.23959 0.16053
# Poissons Ratio (y) = 0.54918 0.64443
# Poissons Ratio (z) = 0.18907 0.33113
#
# Static dielectric constant tensor:
#      x y z
#    x 1.868020 0.000000 -0.066650 
#    y 0.000000 1.770870 0.000000 
#    z -0.066650 0.000000 1.759280 
# 
# From -- ./inp_files/80569.got.cif
#   From: 2010.05.17/outbox.cif.g08.bks.cpg/sg15_41_cif.got.tgz:80569.got - 2010.06.03 18:47:42.
