data_PCOD9292463
_publ_section_title
;
Structure prediction by ZEFSAII (Michael W. Deem and Ramdas Pophale) SiO2 
 PCOD9292463
Probable space group: C 2/C
;
_chemical_formula_sum "Si O2"
_cell_formula_units_Z 20
_cell_length_a 4.984813
_cell_length_b 14.701089
_cell_length_c 9.348030
_cell_angle_alpha 90.000000
_cell_angle_beta 88.357837
_cell_angle_gamma 90.000000
_cell_volume 684.762664
_symmetry_space_group_name_H-M "C 2/C"
_symmetry_group_IT_number 15
_symmetry_cell_setting 'monoclinic'
loop_
_space_group_symop_operation_xyz
x,y,z
-x,y,1/2-z
-x,-y,-z
x,-y,1/2+z
1/2+x,1/2+y,z
1/2-x,1/2+y,1/2-z
1/2-x,1/2-y,-z
1/2+x,1/2-y,1/2+z
loop_
_atom_site_type_symbol
_atom_site_label
_atom_site_fract_x
_atom_site_fract_y
_atom_site_fract_z
Si Si1 0.426302 0.800939 0.112643
Si Si2 0.000000 0.054962 0.750000
Si Si3 0.659940 0.928650 0.899598
O O1 0.500000 0.740352 0.250000
O O2 0.240998 0.876581 0.200623
O O3 0.250000 0.750000 0.000000
O O4 0.656789 0.844255 0.008370
O O5 0.057800 0.976231 0.632004
O O6 0.500000 0.915973 0.750000
O O7 0.500000 0.000000 0.000000
#
# Coordination Sequence:
#
# PCOD9292463 Si02
#       3
#     8   4   8
#     4  11  27  49  74 112 152 197 250 305 381 445
#     4  10  22  46  82 106 150 194 250 314 360 440
#     4  10  22  43  72 112 144 194 254 302 368 445
#
# _framework density 29.207201999999999
#
# number of rings (size 3 to 8) (size 9 to 14) (size 15 to 20)
#    0.000    1.600    0.000    4.800    2.800   16.000 
#   10.800    0.000    4.400    0.000    0.000    0.000 
#    0.000    0.000    0.000    0.000    0.000    0.000 
#
# Total GULP energy -55721.060619 kJ/mol
# GULP energy per Si atom -5572.106062 kJ/mol
# Density = 2.914072 g / cm^3
# Si number density = 29.207202 Si / 1000 Ang^3
#
#
#
# Elastic Constant Matrix: (Units=GPa)
#
#
# Indices 1 2 3 4 5 6 
#
# 1 107.5309 20.5539 78.9106 0.0000 -18.9615 0.0000
# 2 20.5539 100.2401 49.5475 0.0000 2.2865 0.0000
# 3 78.9106 49.5475 354.8777 0.0000 36.4031 0.0000
# 4 0.0000 0.0000 0.0000 36.8243 0.0000 -17.1689
# 5 -18.9615 2.2865 36.4031 0.0000 83.0122 0.0000
# 6 0.0000 0.0000 0.0000 -17.1689 0.0000 30.8062
#
#
#
# Elastic Compliance Matrix: (Units=1/GPa)
#
#
# Indices 1 2 3 4 5 6 
#
# 1 0.012506 -0.001151 -0.003054 0.000000 0.004228 0.000000
# 2 -0.001151 0.010833 -0.001255 0.000000 -0.000011 0.000000
# 3 -0.003054 -0.001255 0.003916 0.000000 -0.002380 0.000000
# 4 0.000000 0.000000 0.000000 0.036690 0.000000 0.020448
# 5 0.004228 -0.000011 -0.002380 0.000000 0.014056 0.000000
# 6 0.000000 0.000000 0.000000 0.020448 0.000000 0.043857
#
#
# Mechanical properties :
#
#
# Convention : Reuss Voigt Hill
#
# Bulk Modulus (GPa) = 61.22018 95.63032 78.42525
# Shear Modulus (GPa) = 36.17318 57.70431 46.93874
#
# Velocity S-wave (km/s) = 3.52305 4.44969 4.01321
# Velocity P-wave (km/s) = 6.12824 7.69499 6.95587
#
# Compressibility (1/GPa) = 0.01633448
#
# Stress axis : x y z
#
# Youngs Moduli (GPa) = 79.96052 92.31159 255.33915
#
# Poissons Ratio (x) = 0.10628 0.77975
# Poissons Ratio (y) = 0.09206 0.32054
# Poissons Ratio (z) = 0.24418 0.11588
#
# Static dielectric constant tensor:
#      x y z
#    x 2.407340 0.000000 0.125800 
#    y 0.000000 2.511620 0.000000 
#    z 0.125800 0.000000 2.244180 
# 
# From -- ./inp_files/19003.got.cif
#   From: 2010.05.17/outbox.cif.g08.bks.cpg/sg15_10_cif.got.tgz:19003.got - 2010.06.03 18:47:42.
