data_PCOD9292405
_publ_section_title
;
Structure prediction by ZEFSAII (Michael W. Deem and Ramdas Pophale) SiO2 
 PCOD9292405
Probable space group: C 2/C
;
_chemical_formula_sum "Si O2"
_cell_formula_units_Z 32
_cell_length_a 7.842513
_cell_length_b 17.459309
_cell_length_c 12.362851
_cell_angle_alpha 90.000000
_cell_angle_beta 126.604968
_cell_angle_gamma 90.000000
_cell_volume 1358.907145
_symmetry_space_group_name_H-M "C 2/C"
_symmetry_group_IT_number 15
_symmetry_cell_setting 'monoclinic'
loop_
_space_group_symop_operation_xyz
x,y,z
-x,y,1/2-z
-x,-y,-z
x,-y,1/2+z
1/2+x,1/2+y,z
1/2-x,1/2+y,1/2-z
1/2-x,1/2-y,-z
1/2+x,1/2-y,1/2+z
loop_
_atom_site_type_symbol
_atom_site_label
_atom_site_fract_x
_atom_site_fract_y
_atom_site_fract_z
Si Si1 0.046317 0.124158 0.564887
Si Si2 0.807454 0.486382 0.598633
Si Si3 0.709682 0.386141 0.900127
Si Si4 0.488500 0.776261 0.623919
O O1 0.167878 0.043661 0.622232
O O2 0.110758 0.153824 0.469798
O O3 0.103905 0.192317 0.665005
O O4 0.807722 0.092289 0.474545
O O5 0.819231 0.538764 0.495247
O O6 0.000000 0.471723 0.750000
O O7 0.500000 0.404928 0.750000
O O8 0.879802 0.334081 0.902438
O O9 0.500000 0.803113 0.750000
O O10 0.250000 0.750000 0.500000
#
# Coordination Sequence:
#
# PCOD9292405 Si02
#       4
#     8   8   8   8
#     4   9  22  44  67 102 140 177 245 289 358 421
#     4   9  21  42  77 103 135 179 247 295 361 422
#     4  10  22  43  71 102 140 190 236 296 362 426
#     4  12  27  42  66 105 149 187 237 294 359 431
#
# _framework density 23.548333
#
# number of rings (size 3 to 8) (size 9 to 14) (size 15 to 20)
#    1.500    0.500    0.000    2.250    3.500    5.000 
#    0.000    2.500    0.000    0.000    0.000    0.000 
#    0.000    0.000    0.000    0.000    0.000    0.000 
#
# Total GULP energy -89173.531444 kJ/mol
# GULP energy per Si atom -5573.345715 kJ/mol
# Density = 2.349474 g / cm^3
# Si number density = 23.548333 Si / 1000 Ang^3
#
#
#
# Elastic Constant Matrix: (Units=GPa)
#
#
# Indices 1 2 3 4 5 6 
#
# 1 86.2620 78.7888 48.9391 0.0000 8.3864 0.0000
# 2 78.7888 163.6783 68.5448 0.0000 -4.5973 0.0000
# 3 48.9391 68.5448 105.9717 0.0000 12.4745 0.0000
# 4 0.0000 0.0000 0.0000 -1.4879 0.0000 9.6011
# 5 8.3864 -4.5973 12.4745 0.0000 31.2903 0.0000
# 6 0.0000 0.0000 0.0000 9.6011 0.0000 14.2187
#
#
#
# Elastic Compliance Matrix: (Units=1/GPa)
#
#
# Indices 1 2 3 4 5 6 
#
# 1 0.023254 -0.009845 -0.003638 0.000000 -0.006229 0.000000
# 2 -0.009845 0.012943 -0.004574 0.000000 0.006364 0.000000
# 3 -0.003638 -0.004574 0.014731 0.000000 -0.005570 0.000000
# 4 0.000000 0.000000 0.000000 -0.125455 0.000000 0.084713
# 5 -0.006229 0.006364 -0.005570 0.000000 0.036784 0.000000
# 6 0.000000 0.000000 0.000000 0.084713 0.000000 0.013129
#
#
# Mechanical properties :
#
#
# Convention : Reuss Voigt Hill
#
# Bulk Modulus (GPa) = 67.50599 83.16193 75.33396
# Shear Modulus (GPa) = 304.16650 19.44683 161.80667
#
# Velocity S-wave (km/s) = 11.37749 2.87684 8.29830
# Velocity P-wave (km/s) = 14.18893 6.81374 11.12997
#
# Compressibility (1/GPa) = 0.01481350
#
# Stress axis : x y z
#
# Youngs Moduli (GPa) = 43.00262 77.26120 67.88470
#
# Poissons Ratio (x) = 0.76066 0.24695
# Poissons Ratio (y) = 0.42338 0.31053
# Poissons Ratio (z) = 0.15643 0.35342
#
# Static dielectric constant tensor:
#      x y z
#    x 3.131720 0.000000 0.499170 
#    y 0.000000 1.890450 0.000000 
#    z 0.499170 0.000000 2.044350 
# 
# From -- ./inp_files/76535.got.cif
#   From: 2010.05.17/outbox.cif.g08.bks.cpg/sg15_39_cif.got.tgz:76535.got - 2010.06.03 18:47:42.
