data_PCOD9292187
_publ_section_title
;
Structure prediction by ZEFSAII (Michael W. Deem and Ramdas Pophale) SiO2 
 PCOD9292187
Probable space group: C 2/C
;
_chemical_formula_sum "Si O2"
_cell_formula_units_Z 56
_cell_length_a 15.276605
_cell_length_b 19.740373
_cell_length_c 9.140226
_cell_angle_alpha 90.000000
_cell_angle_beta 65.052801
_cell_angle_gamma 90.000000
_cell_volume 2499.201386
_symmetry_space_group_name_H-M "C 2/C"
_symmetry_group_IT_number 15
_symmetry_cell_setting 'monoclinic'
loop_
_space_group_symop_operation_xyz
x,y,z
-x,y,1/2-z
-x,-y,-z
x,-y,1/2+z
1/2+x,1/2+y,z
1/2-x,1/2+y,1/2-z
1/2-x,1/2-y,-z
1/2+x,1/2-y,1/2+z
loop_
_atom_site_type_symbol
_atom_site_label
_atom_site_fract_x
_atom_site_fract_y
_atom_site_fract_z
Si Si1 0.500000 0.700223 0.750000
Si Si2 0.202688 0.382103 0.942379
Si Si3 0.496673 0.927207 0.076265
Si Si4 0.885877 0.048911 0.167730
Si Si5 0.292011 0.876192 0.225101
Si Si6 0.133907 0.926544 0.139292
Si Si7 0.000000 0.838587 0.750000
Si Si8 0.135947 0.235625 0.919424
O O1 0.416428 0.645911 0.852780
O O2 0.552322 0.739294 0.849325
O O3 0.286684 0.421941 0.803888
O O4 0.196416 0.301313 0.926637
O O5 0.210244 0.403024 0.106990
O O6 0.097691 0.397794 0.955132
O O7 0.500000 0.933556 0.250000
O O8 0.405356 0.878604 0.107109
O O9 0.500000 0.000000 0.000000
O O10 0.958140 0.109394 0.158745
O O11 0.917345 0.976885 0.210888
O O12 0.865860 0.037208 0.013896
O O13 0.238504 0.917992 0.137397
O O14 0.220526 0.812168 0.293746
O O15 0.079243 0.794871 0.602747
#
# Coordination Sequence:
#
# PCOD9292187 Si02
#       8
#     4   8   8   8   8   8   4   8
#     4  10  23  46  64 100 139 182 220 282 344 400
#     4  11  24  43  68  97 134 178 230 278 343 406
#     4  10  23  42  66  93 127 172 227 278 332 392
#     4  12  25  41  66 105 132 182 220 280 346 406
#     4  10  22  43  67  95 131 176 220 286 332 392
#     4  11  24  42  68  98 144 171 228 280 344 413
#     4  12  25  40  72  98 135 176 230 270 342 418
#     4  11  24  44  69  99 138 176 226 280 333 423
#
# _framework density 22.407157000000002
#
# number of rings (size 3 to 8) (size 9 to 14) (size 15 to 20)
#    0.000    1.143    2.857    2.571    5.000    4.571 
#    3.857    1.429    0.000    0.000    0.000    0.000 
#    0.000    0.000    0.000    0.000    0.000    0.000 
#
# Total GULP energy -156081.508446 kJ/mol
# GULP energy per Si atom -5574.339587 kJ/mol
# Density = 2.235616 g / cm^3
# Si number density = 22.407157 Si / 1000 Ang^3
#
#
#
# Elastic Constant Matrix: (Units=GPa)
#
#
# Indices 1 2 3 4 5 6 
#
# 1 148.2800 21.1019 31.5697 0.0000 2.9484 0.0000
# 2 21.1019 45.1285 13.0155 0.0000 -2.3619 0.0000
# 3 31.5697 13.0155 39.6388 0.0000 13.6005 0.0000
# 4 0.0000 0.0000 0.0000 -2.7904 0.0000 -16.6776
# 5 2.9484 -2.3619 13.6005 0.0000 51.8894 0.0000
# 6 0.0000 0.0000 0.0000 -16.6776 0.0000 24.6522
#
#
#
# Elastic Compliance Matrix: (Units=1/GPa)
#
#
# Indices 1 2 3 4 5 6 
#
# 1 0.008367 -0.002014 -0.006382 0.000000 0.001106 0.000000
# 2 -0.002014 0.025568 -0.007944 0.000000 0.003360 0.000000
# 3 -0.006382 -0.007944 0.036172 0.000000 -0.009480 0.000000
# 4 0.000000 0.000000 0.000000 -0.071058 0.000000 -0.048072
# 5 0.001106 0.003360 -0.009480 0.000000 0.021847 0.000000
# 6 0.000000 0.000000 0.000000 -0.048072 0.000000 0.008043
#
#
# Mechanical properties :
#
#
# Convention : Reuss Voigt Hill
#
# Bulk Modulus (GPa) = 26.71916 40.49127 33.60522
# Shear Modulus (GPa) = 67.48091 25.90759 46.69425
#
# Velocity S-wave (km/s) = 5.49374 3.40401 4.56993
# Velocity P-wave (km/s) = 7.22439 5.79307 6.54796
#
# Compressibility (1/GPa) = 0.03742633
#
# Stress axis : x y z
#
# Youngs Moduli (GPa) = 119.51093 39.11175 27.64578
#
# Poissons Ratio (x) = 0.07877 0.17644
# Poissons Ratio (y) = 0.24070 0.21962
# Poissons Ratio (z) = 0.76274 0.31071
#
# Static dielectric constant tensor:
#      x y z
#    x 1.880230 0.000000 -0.029810 
#    y 0.000000 1.704730 0.000000 
#    z -0.029810 0.000000 1.833370 
# 
# From -- ./inp_files/42559.got.cif
#   From: 2010.05.17/outbox.cif.g08.bks.cpg/sg15_22_cif.got.tgz:42559.got - 2010.06.03 18:47:42.
