data_PCOD9292032
_publ_section_title
;
Structure prediction by ZEFSAII (Michael W. Deem and Ramdas Pophale) SiO2 
 PCOD9292032
Probable space group: C 2/C
;
_chemical_formula_sum "Si O2"
_cell_formula_units_Z 48
_cell_length_a 10.016444
_cell_length_b 13.950755
_cell_length_c 17.309592
_cell_angle_alpha 90.000000
_cell_angle_beta 99.404729
_cell_angle_gamma 90.000000
_cell_volume 2386.277968
_symmetry_space_group_name_H-M "C 2/C"
_symmetry_group_IT_number 15
_symmetry_cell_setting 'monoclinic'
loop_
_space_group_symop_operation_xyz
x,y,z
-x,y,1/2-z
-x,-y,-z
x,-y,1/2+z
1/2+x,1/2+y,z
1/2-x,1/2+y,1/2-z
1/2-x,1/2-y,-z
1/2+x,1/2-y,1/2+z
loop_
_atom_site_type_symbol
_atom_site_label
_atom_site_fract_x
_atom_site_fract_y
_atom_site_fract_z
Si Si1 0.361155 0.039652 0.197723
Si Si2 0.546211 0.772878 0.075452
Si Si3 0.638760 0.050165 0.488093
Si Si4 0.652291 0.316026 0.736133
Si Si5 0.108506 0.082157 0.500347
Si Si6 0.704450 0.156997 0.854081
O O1 0.500000 0.072104 0.250000
O O2 0.356625 0.057938 0.104905
O O3 0.236091 0.090997 0.225327
O O4 0.343167 0.926308 0.207345
O O5 0.640261 0.744859 0.156397
O O6 0.418208 0.830742 0.097320
O O7 0.627240 0.842951 0.024671
O O8 0.472251 0.673317 0.042648
O O9 0.500000 0.000000 0.500000
O O10 0.762463 0.977479 0.523630
O O11 0.500000 0.335289 0.750000
O O12 0.722311 0.254246 0.809531
O O13 0.167227 0.122633 0.586142
O O14 0.000000 0.000000 0.500000
#
# Coordination Sequence:
#
# PCOD9292032 Si02
#       6
#     8   8   8   8   8   8
#     4  11  23  41  66  95 131 167 222 274 329 408
#     4  11  21  43  71  93 131 179 221 274 339 412
#     4  11  24  41  69 101 128 179 227 277 341 410
#     4  10  24  43  64  92 129 178 217 268 343 402
#     4  11  24  40  66 101 134 169 227 285 338 401
#     4  10  22  43  65  94 129 175 221 266 335 414
#
# _framework density 20.115009000000001
#
# number of rings (size 3 to 8) (size 9 to 14) (size 15 to 20)
#    0.000    1.333    3.333    4.000    2.333    4.000 
#    0.000    0.833    0.000    0.000    0.000    0.000 
#    0.000    0.000    0.000    0.000    0.000    0.000 
#
# Total GULP energy -133827.295965 kJ/mol
# GULP energy per Si atom -5576.137332 kJ/mol
# Density = 2.006923 g / cm^3
# Si number density = 20.115009 Si / 1000 Ang^3
#
#
#
# Elastic Constant Matrix: (Units=GPa)
#
#
# Indices 1 2 3 4 5 6 
#
# 1 40.6283 37.9429 -2.4318 0.0000 -9.0669 0.0000
# 2 37.9429 128.4048 27.4401 0.0000 -22.6762 0.0000
# 3 -2.4318 27.4401 46.2494 0.0000 -4.8243 0.0000
# 4 0.0000 0.0000 0.0000 34.4470 0.0000 -8.3956
# 5 -9.0669 -22.6762 -4.8243 0.0000 25.2632 0.0000
# 6 0.0000 0.0000 0.0000 -8.3956 0.0000 42.8625
#
#
#
# Elastic Compliance Matrix: (Units=1/GPa)
#
#
# Indices 1 2 3 4 5 6 
#
# 1 0.037874 -0.012561 0.009882 0.000000 0.004206 0.000000
# 2 -0.012561 0.014553 -0.008573 0.000000 0.006918 0.000000
# 3 0.009882 -0.008573 0.027340 0.000000 0.001072 0.000000
# 4 0.000000 0.000000 0.000000 0.030485 0.000000 0.005971
# 5 0.004206 0.006918 0.001072 0.000000 0.047507 0.000000
# 6 0.000000 0.000000 0.000000 0.005971 0.000000 0.024500
#
#
# Mechanical properties :
#
#
# Convention : Reuss Voigt Hill
#
# Bulk Modulus (GPa) = 17.46301 37.90945 27.68623
# Shear Modulus (GPa) = 22.33631 30.66996 26.50313
#
# Velocity S-wave (km/s) = 3.33593 3.90902 3.63379
# Velocity P-wave (km/s) = 4.85163 6.26587 5.60355
#
# Compressibility (1/GPa) = 0.05726389
#
# Stress axis : x y z
#
# Youngs Moduli (GPa) = 26.40343 68.71294 36.57642
#
# Poissons Ratio (x) = 0.86308 -0.36146
# Poissons Ratio (y) = 0.33165 0.31358
# Poissons Ratio (z) = -0.26093 0.58910
#
# Static dielectric constant tensor:
#      x y z
#    x 1.695970 0.000000 0.011080 
#    y 0.000000 1.771350 0.000000 
#    z 0.011080 0.000000 1.733890 
# 
# From -- ./inp_files/189191.got.cif
#   From: 2010.05.17/outbox.cif.g08.bks.cpg/sg15_95_cif.got.tgz:189191.got - 2010.06.03 18:47:42.
