data_PCOD9292978
_publ_section_title
;
Structure prediction by ZEFSAII (Michael W. Deem and Ramdas Pophale) SiO2 
 PCOD9292978
Probable space group: C 2/C
;
_chemical_formula_sum "Si O2"
_cell_formula_units_Z 48
_cell_length_a 16.341539
_cell_length_b 14.725086
_cell_length_c 15.621288
_cell_angle_alpha 90.000000
_cell_angle_beta 33.627568
_cell_angle_gamma 90.000000
_cell_volume 2081.682568
_symmetry_space_group_name_H-M "C 2/C"
_symmetry_group_IT_number 15
_symmetry_cell_setting 'monoclinic'
loop_
_space_group_symop_operation_xyz
x,y,z
-x,y,1/2-z
-x,-y,-z
x,-y,1/2+z
1/2+x,1/2+y,z
1/2-x,1/2+y,1/2-z
1/2-x,1/2-y,-z
1/2+x,1/2-y,1/2+z
loop_
_atom_site_type_symbol
_atom_site_label
_atom_site_fract_x
_atom_site_fract_y
_atom_site_fract_z
Si Si1 0.767950 0.238291 0.335996
Si Si2 0.989129 0.205693 0.001439
Si Si3 0.808809 0.363980 0.442367
Si Si4 0.079376 0.910969 0.269392
Si Si5 0.063381 0.414531 0.506414
Si Si6 0.500000 0.032835 0.250000
Si Si7 0.500000 0.415990 0.750000
O O1 0.655259 0.305667 0.389509
O O2 0.861573 0.300729 0.319620
O O3 0.670569 0.170918 0.479470
O O4 0.867104 0.189236 0.179894
O O5 0.985523 0.139056 0.924139
O O6 0.976761 0.313656 0.991781
O O7 0.631972 0.360952 0.595250
O O8 0.862374 0.464499 0.380211
O O9 0.000000 0.874725 0.250000
O O10 0.054663 0.017834 0.277253
O O11 0.256947 0.907538 0.133002
O O12 0.000000 0.500000 0.500000
O O13 0.992904 0.420327 0.663823
#
# Coordination Sequence:
#
# PCOD9292978 Si02
#       7
#     8   8   8   8   8   4   4
#     4  11  24  41  68 105 141 189 233 313 366 445
#     4  12  25  44  72 103 146 187 252 295 364 435
#     4  11  22  43  68 101 145 184 239 296 383 431
#     4  10  25  48  72 105 146 192 247 300 369 437
#     4  12  26  48  75 110 147 195 248 308 368 439
#     4  12  24  42  74 100 138 192 236 302 360 442
#     4  10  22  44  70  96 140 194 238 298 360 444
#
# _framework density 23.058268999999999
#
# number of rings (size 3 to 8) (size 9 to 14) (size 15 to 20)
#    0.500    0.333    3.333    4.000    1.167    6.000 
#    0.000    5.000    0.000    0.000    0.000    0.000 
#    0.000    0.000    0.000    0.000    0.000    0.000 
#
# Total GULP energy -133680.694259 kJ/mol
# GULP energy per Si atom -5570.028927 kJ/mol
# Density = 2.300579 g / cm^3
# Si number density = 23.058269 Si / 1000 Ang^3
#
#
#
# Elastic Constant Matrix: (Units=GPa)
#
#
# Indices 1 2 3 4 5 6 
#
# 1 121.3275 26.5693 53.4448 0.0004 18.5210 -0.0002
# 2 26.5693 72.6127 28.9328 0.0005 23.3889 -0.0003
# 3 53.4448 28.9328 162.5352 0.0005 35.8259 -0.0003
# 4 0.0004 0.0005 0.0005 55.7993 -0.0003 8.2945
# 5 18.5210 23.3889 35.8259 -0.0003 45.0824 0.0001
# 6 -0.0002 -0.0003 -0.0003 8.2945 0.0001 33.8492
#
#
#
# Elastic Compliance Matrix: (Units=1/GPa)
#
#
# Indices 1 2 3 4 5 6 
#
# 1 0.010074 -0.002359 -0.002728 0.000000 -0.000747 0.000000
# 2 -0.002359 0.017308 -0.000654 0.000000 -0.007491 0.000000
# 3 -0.002728 -0.000654 0.008298 0.000000 -0.005134 0.000000
# 4 0.000000 0.000000 0.000000 0.018599 0.000000 -0.004557
# 5 -0.000747 -0.007491 -0.005134 0.000000 0.030454 0.000000
# 6 0.000000 0.000000 0.000000 -0.004557 0.000000 0.030660
#
#
# Mechanical properties :
#
#
# Convention : Reuss Voigt Hill
#
# Bulk Modulus (GPa) = 41.32564 63.81879 52.57222
# Shear Modulus (GPa) = 37.05318 43.44808 40.25063
#
# Velocity S-wave (km/s) = 4.01301 4.34553 4.18258
# Velocity P-wave (km/s) = 6.27961 7.27430 6.79518
#
# Compressibility (1/GPa) = 0.02419805
#
# Stress axis : x y z
#
# Youngs Moduli (GPa) = 99.26094 57.77609 120.51659
#
# Poissons Ratio (x) = 0.13627 0.32878
# Poissons Ratio (y) = 0.23411 0.07887
# Poissons Ratio (z) = 0.27080 0.03781
#
# Static dielectric constant tensor:
#      x y z
#    x -8.366840 0.000000 0.675140 
#    y 0.000000 1.868240 0.000000 
#    z 0.675140 0.000000 1.864490 
# 
# From -- ./inp_files/163203.got.cif
#   From: 2010.05.17/outbox.cif.g08.bks.cpg/sg15_82_cif.got.tgz:163203.got - 2010.06.03 18:47:42.
