data_PCOD9292106
_publ_section_title
;
Structure prediction by ZEFSAII (Michael W. Deem and Ramdas Pophale) SiO2 
 PCOD9292106
Probable space group: C 2/C
;
_chemical_formula_sum "Si O2"
_cell_formula_units_Z 36
_cell_length_a 20.018151
_cell_length_b 9.044345
_cell_length_c 16.454267
_cell_angle_alpha 90.000000
_cell_angle_beta 144.026161
_cell_angle_gamma 90.000000
_cell_volume 1749.948401
_symmetry_space_group_name_H-M "C 2/C"
_symmetry_group_IT_number 15
_symmetry_cell_setting 'monoclinic'
loop_
_space_group_symop_operation_xyz
x,y,z
-x,y,1/2-z
-x,-y,-z
x,-y,1/2+z
1/2+x,1/2+y,z
1/2-x,1/2+y,1/2-z
1/2-x,1/2-y,-z
1/2+x,1/2-y,1/2+z
loop_
_atom_site_type_symbol
_atom_site_label
_atom_site_fract_x
_atom_site_fract_y
_atom_site_fract_z
Si Si1 0.990764 0.675261 0.084696
Si Si2 0.332437 0.770526 0.005882
Si Si3 0.182691 0.437185 0.661191
Si Si4 0.500000 0.995790 0.750000
Si Si5 0.092219 0.007421 0.017736
O O1 0.091828 0.666338 0.118502
O O2 0.041960 0.605847 0.217496
O O3 0.889815 0.574878 0.945952
O O4 0.939880 0.835307 0.053146
O O5 0.416019 0.895687 0.120894
O O6 0.250000 0.750000 0.000000
O O7 0.269137 0.841949 0.866123
O O8 0.399807 0.627175 0.038556
O O9 0.283396 0.484718 0.818930
O O10 0.000000 0.000000 0.000000
#
# Coordination Sequence:
#
# PCOD9292106 Si02
#       5
#     8   8   8   4   8
#     4  10  22  43  68  93 136 178 221 279 343 415
#     4  11  24  42  66  97 137 176 213 283 340 410
#     4  10  22  43  66  95 135 179 219 274 352 406
#     4  10  24  44  62  90 134 180 210 270 358 396
#     4  12  24  40  69 106 127 172 240 286 329 412
#
# _framework density 20.572035
#
# number of rings (size 3 to 8) (size 9 to 14) (size 15 to 20)
#    0.000    1.333    2.222    2.667    3.111    0.889 
#    0.000    3.333    0.000    0.000    0.000    0.000 
#    0.000    0.000    0.000    0.000    0.000    0.000 
#
# Total GULP energy -100437.266460 kJ/mol
# GULP energy per Si atom -5579.848137 kJ/mol
# Density = 2.052521 g / cm^3
# Si number density = 20.572035 Si / 1000 Ang^3
#
#
#
# Elastic Constant Matrix: (Units=GPa)
#
#
# Indices 1 2 3 4 5 6 
#
# 1 141.1819 52.4795 17.6329 0.0000 -8.6332 0.0000
# 2 52.4795 103.9370 27.3020 0.0000 -14.4883 0.0000
# 3 17.6329 27.3020 70.2639 0.0000 -7.1371 0.0000
# 4 0.0000 0.0000 0.0000 17.6168 0.0000 -4.8752
# 5 -8.6332 -14.4883 -7.1371 0.0000 30.8252 0.0000
# 6 0.0000 0.0000 0.0000 -4.8752 0.0000 30.3956
#
#
#
# Elastic Compliance Matrix: (Units=1/GPa)
#
#
# Indices 1 2 3 4 5 6 
#
# 1 0.008741 -0.004231 -0.000515 0.000000 0.000340 0.000000
# 2 -0.004231 0.013313 -0.003683 0.000000 0.004220 0.000000
# 3 -0.000515 -0.003683 0.015978 0.000000 0.001824 0.000000
# 4 0.000000 0.000000 0.000000 0.059400 0.000000 0.009527
# 5 0.000340 0.004220 0.001824 0.000000 0.034942 0.000000
# 6 0.000000 0.000000 0.000000 0.009527 0.000000 0.034428
#
#
# Mechanical properties :
#
#
# Convention : Reuss Voigt Hill
#
# Bulk Modulus (GPa) = 47.22641 56.69017 51.95829
# Shear Modulus (GPa) = 26.21698 30.29875 28.25786
#
# Velocity S-wave (km/s) = 3.57375 3.84189 3.71024
# Velocity P-wave (km/s) = 6.32735 6.87727 6.60803
#
# Compressibility (1/GPa) = 0.02117459
#
# Stress axis : x y z
#
# Youngs Moduli (GPa) = 114.40610 75.11521 62.58788
#
# Poissons Ratio (x) = 0.31778 0.03224
# Poissons Ratio (y) = 0.48401 0.23049
# Poissons Ratio (z) = 0.05893 0.27662
#
# Static dielectric constant tensor:
#      x y z
#    x 3.883280 0.000000 1.045250 
#    y 0.000000 1.854220 0.000000 
#    z 1.045250 0.000000 2.282260 
# 
# From -- ./inp_files/109500.got.cif
#   From: 2010.05.17/outbox.cif.g08.bks.cpg/sg15_55_cif.got.tgz:109500.got - 2010.06.03 18:47:42.
