data_PCOD9292998
_publ_section_title
;
Structure prediction by ZEFSAII (Michael W. Deem and Ramdas Pophale) SiO2 
 PCOD9292998
Probable space group: C 2/C
;
_chemical_formula_sum "Si O2"
_cell_formula_units_Z 44
_cell_length_a 14.963014
_cell_length_b 11.305270
_cell_length_c 26.626788
_cell_angle_alpha 90.000000
_cell_angle_beta 150.410504
_cell_angle_gamma 90.000000
_cell_volume 2224.100745
_symmetry_space_group_name_H-M "C 2/C"
_symmetry_group_IT_number 15
_symmetry_cell_setting 'monoclinic'
loop_
_space_group_symop_operation_xyz
x,y,z
-x,y,1/2-z
-x,-y,-z
x,-y,1/2+z
1/2+x,1/2+y,z
1/2-x,1/2+y,1/2-z
1/2-x,1/2-y,-z
1/2+x,1/2-y,1/2+z
loop_
_atom_site_type_symbol
_atom_site_label
_atom_site_fract_x
_atom_site_fract_y
_atom_site_fract_z
Si Si1 0.000000 0.132893 0.750000
Si Si2 0.616509 0.138404 0.424004
Si Si3 0.828032 0.517552 0.452103
Si Si4 0.767457 0.315551 0.702336
Si Si5 0.305140 0.991748 0.137124
Si Si6 0.354186 0.270738 0.498868
O O1 0.851512 0.050462 0.652022
O O2 0.881515 0.218529 0.727158
O O3 0.750000 0.250000 0.500000
O O4 0.635649 0.037880 0.475270
O O5 0.401712 0.164908 0.314778
O O6 0.667626 0.086593 0.394390
O O7 0.802408 0.656983 0.441313
O O8 0.000000 0.500000 0.500000
O O9 0.742610 0.432683 0.655140
O O10 0.567471 0.270851 0.615502
O O11 0.500000 0.943473 0.250000
O O12 0.192335 0.887113 0.056420
O O13 0.250000 0.250000 0.500000
#
# Coordination Sequence:
#
# PCOD9292998 Si02
#       6
#     4   8   8   8   8   8
#     4  12  22  44  70 100 128 180 230 278 334 406
#     4  11  21  43  72 100 128 177 236 275 328 414
#     4  12  26  43  69 100 141 175 226 281 344 401
#     4  11  22  45  75  93 135 182 231 275 330 418
#     4  10  22  44  70  99 134 179 226 278 336 405
#     4  12  26  45  63 105 144 171 219 288 344 395
#
# _framework density 19.783275
#
# number of rings (size 3 to 8) (size 9 to 14) (size 15 to 20)
#    0.000    0.727    8.182    0.545    1.273    1.455 
#    3.273    0.000    0.000    0.000    0.000    0.000 
#    0.000    0.000    0.000    0.000    0.000    0.000 
#
# Total GULP energy -122744.670620 kJ/mol
# GULP energy per Si atom -5579.303210 kJ/mol
# Density = 1.973825 g / cm^3
# Si number density = 19.783275 Si / 1000 Ang^3
#
#
#
# Elastic Constant Matrix: (Units=GPa)
#
#
# Indices 1 2 3 4 5 6 
#
# 1 63.0722 9.9296 32.4853 0.0000 19.4180 0.0000
# 2 9.9296 110.3868 52.2224 -0.0001 9.7245 0.0000
# 3 32.4853 52.2224 159.1318 -0.0003 12.9766 -0.0001
# 4 0.0000 -0.0001 -0.0003 41.0688 -0.0001 -3.2894
# 5 19.4180 9.7245 12.9766 -0.0001 36.7980 0.0000
# 6 0.0000 0.0000 -0.0001 -3.2894 0.0000 22.9758
#
#
#
# Elastic Compliance Matrix: (Units=1/GPa)
#
#
# Indices 1 2 3 4 5 6 
#
# 1 0.020638 0.000736 -0.003656 0.000000 -0.009796 0.000000
# 2 0.000736 0.010847 -0.003547 0.000000 -0.002004 0.000000
# 3 -0.003656 -0.003547 0.008196 0.000000 -0.000024 0.000000
# 4 0.000000 0.000000 0.000000 0.024632 0.000000 0.003526
# 5 -0.009796 -0.002004 -0.000024 0.000000 0.032883 0.000000
# 6 0.000000 0.000000 0.000000 0.003526 0.000000 0.044029
#
#
# Mechanical properties :
#
#
# Convention : Reuss Voigt Hill
#
# Bulk Modulus (GPa) = 37.38525 57.98505 47.68515
# Shear Modulus (GPa) = 30.66107 36.03207 33.34657
#
# Velocity S-wave (km/s) = 3.94108 4.27235 4.11005
# Velocity P-wave (km/s) = 6.29666 7.32878 6.83224
#
# Compressibility (1/GPa) = 0.02674852
#
# Stress axis : x y z
#
# Youngs Moduli (GPa) = 48.45523 92.18930 122.00754
#
# Poissons Ratio (x) = -0.06785 0.44603
# Poissons Ratio (y) = -0.03566 0.43271
# Poissons Ratio (z) = 0.17714 0.32695
#
# Static dielectric constant tensor:
#      x y z
#    x 1.726390 0.000000 -0.055610 
#    y 0.000000 1.631510 0.000000 
#    z -0.055610 0.000000 1.786950 
# 
# From -- ./inp_files/151777.got.cif
#   From: 2010.05.17/outbox.cif.g08.bks.cpg/sg15_76_cif.got.tgz:151777.got - 2010.06.03 18:47:42.
