data_PCOD9292572
_publ_section_title
;
Structure prediction by ZEFSAII (Michael W. Deem and Ramdas Pophale) SiO2 
 PCOD9292572
Probable space group: C 2/C
;
_chemical_formula_sum "Si O2"
_cell_formula_units_Z 32
_cell_length_a 29.872533
_cell_length_b 5.729163
_cell_length_c 9.791256
_cell_angle_alpha 90.000000
_cell_angle_beta 127.940788
_cell_angle_gamma 90.000000
_cell_volume 1321.551405
_symmetry_space_group_name_H-M "C 2/C"
_symmetry_group_IT_number 15
_symmetry_cell_setting 'monoclinic'
loop_
_space_group_symop_operation_xyz
x,y,z
-x,y,1/2-z
-x,-y,-z
x,-y,1/2+z
1/2+x,1/2+y,z
1/2-x,1/2+y,1/2-z
1/2-x,1/2-y,-z
1/2+x,1/2-y,1/2+z
loop_
_atom_site_type_symbol
_atom_site_label
_atom_site_fract_x
_atom_site_fract_y
_atom_site_fract_z
Si Si1 0.935096 0.760209 0.830374
Si Si2 0.229148 0.542611 0.556710
Si Si3 0.328115 0.239048 0.794302
Si Si4 0.543172 0.245187 0.206129
O O1 0.893779 0.770753 0.884151
O O2 0.926323 0.506026 0.745664
O O3 0.923862 0.006763 0.732838
O O4 0.001900 0.757003 0.994792
O O5 0.250000 0.750000 0.500000
O O6 0.287974 0.462349 0.737320
O O7 0.186568 0.593181 0.600035
O O8 0.197864 0.369733 0.393417
O O9 0.500000 0.241056 0.250000
#
# Coordination Sequence:
#
# PCOD9292572 Si02
#       4
#     8   8   8   8
#     4  10  24  40  67  97 128 175 221 271 337 394
#     4  11  24  45  64  99 137 169 233 276 330 409
#     4  11  25  42  69  98 132 184 219 282 338 398
#     4  10  22  44  63  98 132 167 224 276 328 403
#
# _framework density 24.213963
#
# number of rings (size 3 to 8) (size 9 to 14) (size 15 to 20)
#    0.000    1.500    2.500    0.750    7.000    0.000 
#    0.000    0.000    0.000    0.000    0.000    0.000 
#    0.000    0.000    0.000    0.000    0.000    0.000 
#
# Total GULP energy -89300.105650 kJ/mol
# GULP energy per Si atom -5581.256603 kJ/mol
# Density = 2.415885 g / cm^3
# Si number density = 24.213963 Si / 1000 Ang^3
#
#
#
# Elastic Constant Matrix: (Units=GPa)
#
#
# Indices 1 2 3 4 5 6 
#
# 1 162.4935 60.2685 23.6872 0.0000 -24.8379 0.0000
# 2 60.2685 175.1989 20.3685 0.0000 -15.2446 0.0000
# 3 23.6872 20.3685 61.1233 0.0000 -5.8917 0.0000
# 4 0.0000 0.0000 0.0000 9.5706 0.0000 -14.9791
# 5 -24.8379 -15.2446 -5.8917 0.0000 53.9092 0.0000
# 6 0.0000 0.0000 0.0000 -14.9791 0.0000 35.2755
#
#
#
# Elastic Compliance Matrix: (Units=1/GPa)
#
#
# Indices 1 2 3 4 5 6 
#
# 1 0.007661 -0.002170 -0.001986 0.000000 0.002699 0.000000
# 2 -0.002170 0.006671 -0.001311 0.000000 0.000744 0.000000
# 3 -0.001986 -0.001311 0.017628 0.000000 0.000641 0.000000
# 4 0.000000 0.000000 0.000000 0.311531 0.000000 0.132286
# 5 0.002699 0.000744 0.000641 0.000000 0.020074 0.000000
# 6 0.000000 0.000000 0.000000 0.132286 0.000000 0.084521
#
#
# Mechanical properties :
#
#
# Convention : Reuss Voigt Hill
#
# Bulk Modulus (GPa) = 47.55409 67.49600 57.52505
# Shear Modulus (GPa) = 10.72899 39.38383 25.05641
#
# Velocity S-wave (km/s) = 2.10726 4.03735 3.22031
# Velocity P-wave (km/s) = 5.05989 7.04762 6.13480
#
# Compressibility (1/GPa) = 0.02102869
#
# Stress axis : x y z
#
# Youngs Moduli (GPa) = 130.53435 149.89748 56.72662
#
# Poissons Ratio (x) = 0.32522 0.11264
# Poissons Ratio (y) = 0.28321 0.07435
# Poissons Ratio (z) = 0.25919 0.19646
#
# Static dielectric constant tensor:
#      x y z
#    x 1.779730 0.000000 0.148470 
#    y 0.000000 1.978680 0.000000 
#    z 0.148470 0.000000 1.926450 
# 
# From -- ./inp_files/67968.got.cif
#   From: 2010.05.17/outbox.cif.g08.bks.cpg/sg15_34_cif.got.tgz:67968.got - 2010.06.03 18:47:42.
