data_PCOD9292822
_publ_section_title
;
Structure prediction by ZEFSAII (Michael W. Deem and Ramdas Pophale) SiO2 
 PCOD9292822
Probable space group: C 2/C
;
_chemical_formula_sum "Si O2"
_cell_formula_units_Z 52
_cell_length_a 11.069074
_cell_length_b 14.905205
_cell_length_c 23.108755
_cell_angle_alpha 90.000000
_cell_angle_beta 45.492079
_cell_angle_gamma 90.000000
_cell_volume 2718.997679
_symmetry_space_group_name_H-M "C 2/C"
_symmetry_group_IT_number 15
_symmetry_cell_setting 'monoclinic'
loop_
_space_group_symop_operation_xyz
x,y,z
-x,y,1/2-z
-x,-y,-z
x,-y,1/2+z
1/2+x,1/2+y,z
1/2-x,1/2+y,1/2-z
1/2-x,1/2-y,-z
1/2+x,1/2-y,1/2+z
loop_
_atom_site_type_symbol
_atom_site_label
_atom_site_fract_x
_atom_site_fract_y
_atom_site_fract_z
Si Si1 0.675760 0.178829 0.979237
Si Si2 0.017922 0.206910 0.429621
Si Si3 0.000000 0.442594 0.250000
Si Si4 0.308112 0.872266 0.637390
Si Si5 0.823367 0.701303 0.891054
Si Si6 0.090503 0.038198 0.661535
Si Si7 0.714752 0.567960 0.292781
O O1 0.607953 0.230228 0.945589
O O2 0.814758 0.109656 0.909704
O O3 0.750000 0.250000 0.000000
O O4 0.509665 0.129880 0.060630
O O5 0.146148 0.130929 0.366379
O O6 0.954359 0.261742 0.394826
O O7 0.845960 0.171745 0.517803
O O8 0.901778 0.378000 0.327446
O O9 0.867396 0.505317 0.261244
O O10 0.229312 0.784996 0.632338
O O11 0.266264 0.874198 0.719267
O O12 0.220358 0.960383 0.639152
O O13 0.000000 0.076043 0.750000
O O14 0.943059 0.991733 0.674612
#
# Coordination Sequence:
#
# PCOD9292822 Si02
#       7
#     8   8   4   8   8   8   8
#     4  11  26  41  66  98 131 167 212 271 321 373
#     4  10  23  43  67  91 127 170 214 262 320 384
#     4  12  28  38  66 100 130 164 212 274 318 378
#     4  10  22  45  69  91 128 172 212 262 317 391
#     4  10  22  44  68  95 122 173 219 258 319 389
#     4  10  23  43  67  95 123 172 214 257 318 389
#     4  11  25  42  64  96 131 168 210 268 325 374
#
# _framework density 19.124694000000002
#
# number of rings (size 3 to 8) (size 9 to 14) (size 15 to 20)
#    0.000    1.538    1.538    1.385   11.846    3.077 
#    0.000    0.000    0.000    0.000    0.000    0.000 
#    0.000    0.000    0.000    0.000    0.000    0.000 
#
# Total GULP energy -145335.567339 kJ/mol
# GULP energy per Si atom -5589.829513 kJ/mol
# Density = 1.908117 g / cm^3
# Si number density = 19.124694 Si / 1000 Ang^3
#
#
#
# Elastic Constant Matrix: (Units=GPa)
#
#
# Indices 1 2 3 4 5 6 
#
# 1 68.6312 29.6283 59.8438 0.0000 -3.3902 0.0000
# 2 29.6283 70.7922 77.1550 0.0000 4.4892 0.0000
# 3 59.8438 77.1550 140.4155 0.0000 0.1446 0.0000
# 4 0.0000 0.0000 0.0000 51.9305 0.0000 -2.5571
# 5 -3.3902 4.4892 0.1446 0.0000 24.4835 0.0000
# 6 0.0000 0.0000 0.0000 -2.5571 0.0000 26.7088
#
#
#
# Elastic Compliance Matrix: (Units=1/GPa)
#
#
# Indices 1 2 3 4 5 6 
#
# 1 0.023591 0.002250 -0.011294 0.000000 0.002921 0.000000
# 2 0.002250 0.036442 -0.020977 0.000000 -0.006246 0.000000
# 3 -0.011294 -0.020977 0.023459 0.000000 0.002144 0.000000
# 4 0.000000 0.000000 0.000000 0.019348 0.000000 0.001852
# 5 0.002921 -0.006246 0.002144 0.000000 0.042381 0.000000
# 6 0.000000 0.000000 0.000000 0.001852 0.000000 0.037618
#
#
# Mechanical properties :
#
#
# Convention : Reuss Voigt Hill
#
# Bulk Modulus (GPa) = 42.64057 68.12145 55.38101
# Shear Modulus (GPa) = 19.94433 28.17199 24.05816
#
# Velocity S-wave (km/s) = 3.23283 3.84222 3.55063
# Velocity P-wave (km/s) = 6.02324 7.44181 6.76978
#
# Compressibility (1/GPa) = 0.02345185
#
# Stress axis : x y z
#
# Youngs Moduli (GPa) = 42.38855 27.44055 42.62746
#
# Poissons Ratio (x) = -0.06174 0.48142
# Poissons Ratio (y) = -0.09538 0.89419
# Poissons Ratio (z) = 0.47873 0.57561
#
# Static dielectric constant tensor:
#      x y z
#    x 1.621640 0.000000 -0.008600 
#    y 0.000000 1.639310 0.000000 
#    z -0.008600 0.000000 1.672530 
# 
# From -- ./inp_files/269898.got.cif
#   From: 2010.05.17/outbox.cif.g08.bks.cpg/sg15_135_cif.got.tgz:269898.got - 2010.06.03 18:47:42.
