data_PCOD9292060
_publ_section_title
;
Structure prediction by ZEFSAII (Michael W. Deem and Ramdas Pophale) SiO2 
 PCOD9292060
Probable space group: C 2/C
;
_chemical_formula_sum "Si O2"
_cell_formula_units_Z 40
_cell_length_a 15.316922
_cell_length_b 13.461061
_cell_length_c 9.077318
_cell_angle_alpha 90.000000
_cell_angle_beta 55.915399
_cell_angle_gamma 90.000000
_cell_volume 1550.062926
_symmetry_space_group_name_H-M "C 2/C"
_symmetry_group_IT_number 15
_symmetry_cell_setting 'monoclinic'
loop_
_space_group_symop_operation_xyz
x,y,z
-x,y,1/2-z
-x,-y,-z
x,-y,1/2+z
1/2+x,1/2+y,z
1/2-x,1/2+y,1/2-z
1/2-x,1/2-y,-z
1/2+x,1/2-y,1/2+z
loop_
_atom_site_type_symbol
_atom_site_label
_atom_site_fract_x
_atom_site_fract_y
_atom_site_fract_z
Si Si1 0.262032 0.637814 0.554642
Si Si2 0.394905 0.335056 0.425354
Si Si3 0.850660 0.626174 0.331069
Si Si4 0.986654 0.106970 0.435644
Si Si5 0.331653 0.003884 0.102088
O O1 0.250000 0.750000 0.500000
O O2 0.367173 0.641843 0.554446
O O3 0.256053 0.565144 0.414612
O O4 0.192748 0.577384 0.744725
O O5 0.500000 0.381848 0.250000
O O6 0.278998 0.383501 0.542673
O O7 0.377540 0.236157 0.350415
O O8 0.432841 0.321510 0.556822
O O9 0.886910 0.592037 0.137766
O O10 0.891284 0.555931 0.421427
O O11 0.000000 0.102102 0.250000
O O12 0.000000 0.000000 0.500000
#
# Coordination Sequence:
#
# PCOD9292060 Si02
#       5
#     8   8   8   8   8
#     4  11  24  40  71  98 139 180 225 282 355 414
#     4  11  24  40  66  99 131 175 217 270 344 409
#     4  10  23  43  68  91 137 171 221 278 337 401
#     4  12  24  40  64 101 134 165 222 286 346 409
#     4  10  22  43  66 100 129 181 226 278 336 419
#
# _framework density 25.805405
#
# number of rings (size 3 to 8) (size 9 to 14) (size 15 to 20)
#    0.000    1.200    0.000    6.600   11.200    0.000 
#    0.000    1.000    0.000    0.000    0.000    0.000 
#    0.000    0.000    0.000    0.000    0.000    0.000 
#
# Total GULP energy -111502.829360 kJ/mol
# GULP energy per Si atom -5575.141468 kJ/mol
# Density = 2.574667 g / cm^3
# Si number density = 25.805405 Si / 1000 Ang^3
#
#
#
# Elastic Constant Matrix: (Units=GPa)
#
#
# Indices 1 2 3 4 5 6 
#
# 1 156.7567 39.7630 39.1954 0.0000 28.5226 0.0000
# 2 39.7630 105.1977 16.5279 0.0000 35.1778 0.0000
# 3 39.1954 16.5279 113.6695 0.0000 42.8251 0.0000
# 4 0.0000 0.0000 0.0000 31.8796 0.0000 33.9186
# 5 28.5226 35.1778 42.8251 0.0000 53.6520 0.0000
# 6 0.0000 0.0000 0.0000 33.9186 0.0000 25.3985
#
#
#
# Elastic Compliance Matrix: (Units=1/GPa)
#
#
# Indices 1 2 3 4 5 6 
#
# 1 0.007612 -0.002219 -0.001896 0.000000 -0.001079 0.000000
# 2 -0.002219 0.013076 0.002359 0.000000 -0.009277 0.000000
# 3 -0.001896 0.002359 0.013315 0.000000 -0.011167 0.000000
# 4 0.000000 0.000000 0.000000 -0.074531 0.000000 0.099533
# 5 -0.001079 -0.009277 -0.011167 0.000000 0.034208 0.000000
# 6 0.000000 0.000000 0.000000 0.099533 0.000000 -0.093549
#
#
# Mechanical properties :
#
#
# Convention : Reuss Voigt Hill
#
# Bulk Modulus (GPa) = 32.79498 62.95518 47.87508
# Shear Modulus (GPa) = -58.00954 40.86185 -8.57384
#
# Velocity S-wave (km/s) = -4.74641 3.98359 -1.82475
# Velocity P-wave (km/s) = 4.15953 6.75335 3.76205
#
# Compressibility (1/GPa) = 0.03049247
#
# Stress axis : x y z
#
# Youngs Moduli (GPa) = 131.36343 76.47543 75.10117
#
# Poissons Ratio (x) = 0.16968 0.14238
# Poissons Ratio (y) = 0.29146 -0.17715
# Poissons Ratio (z) = 0.24904 -0.18039
#
# Static dielectric constant tensor:
#      x y z
#    x 2.180250 0.000000 -0.134890 
#    y 0.000000 2.051760 0.000000 
#    z -0.134890 0.000000 2.152200 
# 
# From -- ./inp_files/37821.got.cif
#   From: 2010.05.17/outbox.cif.g08.bks.cpg/sg15_19_cif.got.tgz:37821.got - 2010.06.03 18:47:42.
