data_PCOD9292773
_publ_section_title
;
Structure prediction by ZEFSAII (Michael W. Deem and Ramdas Pophale) SiO2 
 PCOD9292773
Probable space group: C 2/C
;
_chemical_formula_sum "Si O2"
_cell_formula_units_Z 36
_cell_length_a 23.121421
_cell_length_b 13.399724
_cell_length_c 14.054636
_cell_angle_alpha 90.000000
_cell_angle_beta 22.355318
_cell_angle_gamma 90.000000
_cell_volume 1656.199110
_symmetry_space_group_name_H-M "C 2/C"
_symmetry_group_IT_number 15
_symmetry_cell_setting 'monoclinic'
loop_
_space_group_symop_operation_xyz
x,y,z
-x,y,1/2-z
-x,-y,-z
x,-y,1/2+z
1/2+x,1/2+y,z
1/2-x,1/2+y,1/2-z
1/2-x,1/2-y,-z
1/2+x,1/2-y,1/2+z
loop_
_atom_site_type_symbol
_atom_site_label
_atom_site_fract_x
_atom_site_fract_y
_atom_site_fract_z
Si Si1 0.000000 0.727612 0.250000
Si Si2 0.601148 0.599055 0.348422
Si Si3 0.244081 0.104307 0.330042
Si Si4 0.335381 0.391079 0.965187
Si Si5 0.019905 0.686911 0.013216
O O1 0.856526 0.800909 0.484344
O O2 0.018379 0.665909 0.318673
O O3 0.500000 0.500000 0.500000
O O4 0.719332 0.591515 0.255270
O O5 0.672031 0.615332 0.137130
O O6 0.497131 0.695205 0.530270
O O7 0.181341 0.005799 0.476767
O O8 0.414858 0.124011 0.103207
O O9 0.500000 0.354351 0.750000
O O10 0.196267 0.333637 0.224667
#
# Coordination Sequence:
#
# PCOD9292773 Si02
#       5
#     4   8   8   8   8
#     4  10  22  44  68 100 136 180 224 282 342 404
#     4  11  24  44  70  97 140 182 216 281 347 404
#     4  11  23  45  69  99 136 179 231 273 340 409
#     4  12  24  44  68 100 142 176 226 279 348 402
#     4  11  26  42  71 106 130 180 233 283 332 411
#
# _framework density 21.736516000000002
#
# number of rings (size 3 to 8) (size 9 to 14) (size 15 to 20)
#    0.000    0.889    3.333    3.333    6.222    2.667 
#    0.000    0.000    0.000    0.000    0.000    0.000 
#    0.000    0.000    0.000    0.000    0.000    0.000 
#
# Total GULP energy -100757.982244 kJ/mol
# GULP energy per Si atom -5597.665680 kJ/mol
# Density = 2.168704 g / cm^3
# Si number density = 21.736516 Si / 1000 Ang^3
#
#
#
# Elastic Constant Matrix: (Units=GPa)
#
#
# Indices 1 2 3 4 5 6 
#
# 1 219.6394 39.5219 66.1266 0.0000 19.8047 0.0000
# 2 39.5219 44.6397 18.9199 -0.0001 -13.2069 0.0001
# 3 66.1266 18.9199 102.9696 -0.0001 -16.0115 0.0001
# 4 0.0000 -0.0001 -0.0001 13.5625 0.0001 4.8440
# 5 19.8047 -13.2069 -16.0115 0.0001 45.0678 0.0000
# 6 0.0000 0.0001 0.0001 4.8440 0.0000 30.2159
#
#
#
# Elastic Compliance Matrix: (Units=1/GPa)
#
#
# Indices 1 2 3 4 5 6 
#
# 1 0.008005 -0.007164 -0.004972 0.000000 -0.007384 0.000000
# 2 -0.007164 0.032259 0.000670 0.000000 0.012840 0.000000
# 3 -0.004972 0.000670 0.013921 0.000000 0.007327 0.000000
# 4 0.000000 0.000000 0.000000 0.078211 0.000000 -0.012538
# 5 -0.007384 0.012840 0.007327 0.000000 0.031799 0.000000
# 6 0.000000 0.000000 0.000000 -0.012538 0.000000 0.035105
#
#
# Mechanical properties :
#
#
# Convention : Reuss Voigt Hill
#
# Bulk Modulus (GPa) = 31.99815 68.48725 50.24270
# Shear Modulus (GPa) = 21.49137 33.94793 27.71965
#
# Velocity S-wave (km/s) = 3.14781 3.95624 3.57495
# Velocity P-wave (km/s) = 5.28814 7.24192 6.34074
#
# Compressibility (1/GPa) = 0.03125181
#
# Stress axis : x y z
#
# Youngs Moduli (GPa) = 124.92399 30.99900 71.83297
#
# Poissons Ratio (x) = 0.22208 0.35719
# Poissons Ratio (y) = 0.89497 -0.04812
# Poissons Ratio (z) = 0.62118 -0.02077
#
# Static dielectric constant tensor:
#      x y z
#    x 1.795410 0.000000 -0.004020 
#    y 0.000000 1.806610 0.000000 
#    z -0.004020 0.000000 1.762930 
# 
# From -- ./inp_files/84393.got.cif
#   From: 2010.05.17/outbox.cif.g08.bks.cpg/sg15_43_cif.got.tgz:84393.got - 2010.06.03 18:47:42.
