data_PCOD9292255
_publ_section_title
;
Structure prediction by ZEFSAII (Michael W. Deem and Ramdas Pophale) SiO2 
 PCOD9292255
Probable space group: C 2/C
;
_chemical_formula_sum "Si O2"
_cell_formula_units_Z 36
_cell_length_a 13.157310
_cell_length_b 5.115839
_cell_length_c 23.646747
_cell_angle_alpha 90.000000
_cell_angle_beta 122.559176
_cell_angle_gamma 90.000000
_cell_volume 1341.524137
_symmetry_space_group_name_H-M "C 2/C"
_symmetry_group_IT_number 15
_symmetry_cell_setting 'monoclinic'
loop_
_space_group_symop_operation_xyz
x,y,z
-x,y,1/2-z
-x,-y,-z
x,-y,1/2+z
1/2+x,1/2+y,z
1/2-x,1/2+y,1/2-z
1/2-x,1/2-y,-z
1/2+x,1/2-y,1/2+z
loop_
_atom_site_type_symbol
_atom_site_label
_atom_site_fract_x
_atom_site_fract_y
_atom_site_fract_z
Si Si1 0.000000 0.481487 0.750000
Si Si2 0.071863 0.301395 0.978656
Si Si3 0.824404 0.377901 0.289474
Si Si4 0.879708 0.214598 0.068209
Si Si5 0.216948 0.154033 0.873295
O O1 0.061013 0.638542 0.716863
O O2 0.108098 0.314547 0.811835
O O3 0.198932 0.249650 0.049274
O O4 0.072608 0.492126 0.924451
O O5 0.000000 0.500000 0.000000
O O6 0.044696 0.011319 0.944148
O O7 0.754899 0.632741 0.250028
O O8 0.816151 0.392209 0.354422
O O9 0.845301 0.101494 0.118805
O O10 0.750000 0.250000 0.000000
#
# Coordination Sequence:
#
# PCOD9292255 Si02
#       5
#     4   8   8   8   8
#     4  10  24  46  70 100 140 184 226 288 350 402
#     4  11  24  43  69 103 136 180 231 286 350 417
#     4  10  24  45  66  99 136 181 232 277 343 415
#     4  10  22  43  68  96 139 178 226 287 344 409
#     4  10  23  45  69 100 138 176 232 277 345 416
#
# _framework density 26.835146999999999
#
# number of rings (size 3 to 8) (size 9 to 14) (size 15 to 20)
#    0.000    1.778    0.000    3.333    3.111   14.222 
#   16.000    0.000    0.000    0.000    0.000    0.000 
#    0.000    0.000    0.000    0.000    0.000    0.000 
#
# Total GULP energy -100454.384621 kJ/mol
# GULP energy per Si atom -5580.799146 kJ/mol
# Density = 2.677407 g / cm^3
# Si number density = 26.835147 Si / 1000 Ang^3
#
#
#
# Elastic Constant Matrix: (Units=GPa)
#
#
# Indices 1 2 3 4 5 6 
#
# 1 178.1738 46.0272 60.1366 0.0001 -13.1812 -0.0001
# 2 46.0272 165.3100 30.1726 0.0001 -7.7022 -0.0001
# 3 60.1366 30.1726 124.6619 0.0000 -26.6890 0.0000
# 4 0.0001 0.0001 0.0000 30.4666 0.0000 5.8351
# 5 -13.1812 -7.7022 -26.6890 0.0000 57.2937 0.0000
# 6 -0.0001 -0.0001 0.0000 5.8351 0.0000 45.6768
#
#
#
# Elastic Compliance Matrix: (Units=1/GPa)
#
#
# Indices 1 2 3 4 5 6 
#
# 1 0.006998 -0.001394 -0.003037 0.000000 0.000008 0.000000
# 2 -0.001394 0.006608 -0.000895 0.000000 0.000151 0.000000
# 3 -0.003037 -0.000895 0.010583 0.000000 0.004111 0.000000
# 4 0.000000 0.000000 0.000000 0.033646 0.000000 -0.004298
# 5 0.000008 0.000151 0.004111 0.000000 0.019391 0.000000
# 6 0.000000 0.000000 0.000000 -0.004298 0.000000 0.022442
#
#
# Mechanical properties :
#
#
# Convention : Reuss Voigt Hill
#
# Bulk Modulus (GPa) = 73.86286 82.31318 78.08802
# Shear Modulus (GPa) = 43.54201 48.80803 46.17502
#
# Velocity S-wave (km/s) = 4.03249 4.26938 4.15262
# Velocity P-wave (km/s) = 7.01895 7.41914 7.22182
#
# Compressibility (1/GPa) = 0.01353860
#
# Stress axis : x y z
#
# Youngs Moduli (GPa) = 142.89532 151.34003 94.48833
#
# Poissons Ratio (x) = 0.21094 0.28694
# Poissons Ratio (y) = 0.19917 0.08453
# Poissons Ratio (z) = 0.43395 0.13539
#
# Static dielectric constant tensor:
#      x y z
#    x 2.258510 0.000000 0.020330 
#    y 0.000000 2.050110 0.000000 
#    z 0.020330 0.000000 2.184010 
# 
# From -- ./inp_files/271768.got.cif
#   From: 2010.05.17/outbox.cif.g08.bks.cpg/sg15_136_cif.got.tgz:271768.got - 2010.06.03 18:47:42.
