data_PCOD9292971
_publ_section_title
;
Structure prediction by ZEFSAII (Michael W. Deem and Ramdas Pophale) SiO2 
 PCOD9292971
Probable space group: C 2/C
;
_chemical_formula_sum "Si O2"
_cell_formula_units_Z 48
_cell_length_a 9.549191
_cell_length_b 22.937231
_cell_length_c 11.227737
_cell_angle_alpha 90.000000
_cell_angle_beta 73.367635
_cell_angle_gamma 90.000000
_cell_volume 2356.341916
_symmetry_space_group_name_H-M "C 2/C"
_symmetry_group_IT_number 15
_symmetry_cell_setting 'monoclinic'
loop_
_space_group_symop_operation_xyz
x,y,z
-x,y,1/2-z
-x,-y,-z
x,-y,1/2+z
1/2+x,1/2+y,z
1/2-x,1/2+y,1/2-z
1/2-x,1/2-y,-z
1/2+x,1/2-y,1/2+z
loop_
_atom_site_type_symbol
_atom_site_label
_atom_site_fract_x
_atom_site_fract_y
_atom_site_fract_z
Si Si1 0.000000 0.626550 0.750000
Si Si2 0.715229 0.297778 0.354735
Si Si3 0.127202 0.470790 0.392997
Si Si4 0.406785 0.443107 0.482304
Si Si5 0.500000 0.639430 0.750000
Si Si6 0.355186 0.321336 0.865457
Si Si7 0.160961 0.938215 0.747299
O O1 0.868413 0.667458 0.827165
O O2 0.933971 0.584340 0.664111
O O3 0.634533 0.319972 0.255975
O O4 0.627018 0.311305 0.497942
O O5 0.746528 0.229082 0.348043
O O6 0.256544 0.458613 0.454316
O O7 0.211022 0.514563 0.282002
O O8 0.000000 0.500000 0.500000
O O9 0.500000 0.500000 0.500000
O O10 0.485215 0.402466 0.367720
O O11 0.366093 0.412205 0.615816
O O12 0.500000 0.315412 0.750000
O O13 0.301511 0.387025 0.853724
O O14 0.000000 0.962743 0.750000
#
# Coordination Sequence:
#
# PCOD9292971 Si02
#       7
#     4   8   8   8   4   8   8
#     4  12  24  44  63  99 142 178 226 272 350 410
#     4  11  24  44  71  97 133 178 231 282 343 405
#     4  12  25  40  65  99 138 177 218 281 341 409
#     4  12  24  40  64  97 134 174 222 276 331 406
#     4  12  24  44  67 101 128 180 230 276 334 410
#     4  10  22  44  70  96 129 179 227 282 340 406
#     4  11  22  41  66  97 132 178 227 272 338 413
#
# _framework density 20.370557999999999
#
# number of rings (size 3 to 8) (size 9 to 14) (size 15 to 20)
#    0.000    0.667    4.167    5.000    2.333    0.000 
#    0.000    9.167    0.000    0.000    0.000    0.000 
#    0.000    0.000    0.000    0.000    0.000    0.000 
#
# Total GULP energy -134042.253975 kJ/mol
# GULP energy per Si atom -5585.093916 kJ/mol
# Density = 2.032419 g / cm^3
# Si number density = 20.370558 Si / 1000 Ang^3
#
#
#
# Elastic Constant Matrix: (Units=GPa)
#
#
# Indices 1 2 3 4 5 6 
#
# 1 100.0892 28.9500 7.4063 0.0000 4.7991 0.0000
# 2 28.9500 66.3488 -3.5519 0.0000 -0.9919 0.0000
# 3 7.4063 -3.5519 79.9939 0.0000 -0.7538 0.0000
# 4 0.0000 0.0000 0.0000 28.2076 0.0000 2.2136
# 5 4.7991 -0.9919 -0.7538 0.0000 36.6759 0.0000
# 6 0.0000 0.0000 0.0000 2.2136 0.0000 33.2973
#
#
#
# Elastic Compliance Matrix: (Units=1/GPa)
#
#
# Indices 1 2 3 4 5 6 
#
# 1 0.011671 -0.005189 -0.001327 0.000000 -0.001695 0.000000
# 2 -0.005189 0.017421 0.001265 0.000000 0.001176 0.000000
# 3 -0.001327 0.001265 0.012684 0.000000 0.000469 0.000000
# 4 0.000000 0.000000 0.000000 0.035637 0.000000 -0.002369
# 5 -0.001695 0.001176 0.000469 0.000000 0.027529 0.000000
# 6 0.000000 0.000000 0.000000 -0.002369 0.000000 0.030190
#
#
# Mechanical properties :
#
#
# Convention : Reuss Voigt Hill
#
# Bulk Modulus (GPa) = 31.97413 34.67119 33.32266
# Shear Modulus (GPa) = 32.03889 33.87800 32.95844
#
# Velocity S-wave (km/s) = 3.97016 4.08252 4.02673
# Velocity P-wave (km/s) = 6.06189 6.26736 6.16548
#
# Compressibility (1/GPa) = 0.03127529
#
# Stress axis : x y z
#
# Youngs Moduli (GPa) = 85.67946 57.40111 78.83701
#
# Poissons Ratio (x) = 0.29785 0.10461
# Poissons Ratio (y) = 0.44459 -0.09973
# Poissons Ratio (z) = 0.11369 -0.07262
#
# Static dielectric constant tensor:
#      x y z
#    x 1.587900 0.000000 0.004960 
#    y 0.000000 1.776700 0.000000 
#    z 0.004960 0.000000 1.771990 
# 
# From -- ./inp_files/79429.got.cif
#   From: 2010.05.17/outbox.cif.g08.bks.cpg/sg15_40_cif.got.tgz:79429.got - 2010.06.03 18:47:42.
