data_PCOD9292593
_publ_section_title
;
Structure prediction by ZEFSAII (Michael W. Deem and Ramdas Pophale) SiO2 
 PCOD9292593
Probable space group: C 2/C
;
_chemical_formula_sum "Si O2"
_cell_formula_units_Z 48
_cell_length_a 22.279217
_cell_length_b 8.910647
_cell_length_c 9.555588
_cell_angle_alpha 90.000000
_cell_angle_beta 85.827357
_cell_angle_gamma 90.000000
_cell_volume 1891.968409
_symmetry_space_group_name_H-M "C 2/C"
_symmetry_group_IT_number 15
_symmetry_cell_setting 'monoclinic'
loop_
_space_group_symop_operation_xyz
x,y,z
-x,y,1/2-z
-x,-y,-z
x,-y,1/2+z
1/2+x,1/2+y,z
1/2-x,1/2+y,1/2-z
1/2-x,1/2-y,-z
1/2+x,1/2-y,1/2+z
loop_
_atom_site_type_symbol
_atom_site_label
_atom_site_fract_x
_atom_site_fract_y
_atom_site_fract_z
Si Si1 0.312431 0.366778 0.843792
Si Si2 0.977859 0.815874 0.099219
Si Si3 0.134899 0.354519 0.530635
Si Si4 0.260031 0.950384 0.374654
Si Si5 0.099005 0.031846 0.524501
Si Si6 0.440659 0.993556 0.695202
O O1 0.299789 0.192116 0.817959
O O2 0.272842 0.464604 0.745036
O O3 0.379752 0.434596 0.842775
O O4 0.288748 0.390561 0.006510
O O5 0.966939 0.639891 0.093761
O O6 0.000000 0.852031 0.250000
O O7 0.036082 0.876416 0.009234
O O8 0.915574 0.895545 0.076354
O O9 0.197211 0.436976 0.548395
O O10 0.142767 0.175120 0.518187
O O11 0.095107 0.407185 0.673256
O O12 0.102339 0.411961 0.396263
O O13 0.500000 0.071868 0.750000
#
# Coordination Sequence:
#
# PCOD9292593 Si02
#       6
#     8   8   8   8   8   8
#     4  11  26  47  70  97 135 176 223 279 334 396
#     4  10  22  44  64  94 136 181 215 268 335 394
#     4  12  24  43  69 102 134 177 221 279 326 397
#     4  11  26  47  70  99 133 176 224 276 340 392
#     4  11  24  40  68  97 132 175 224 271 328 394
#     4  11  23  43  67  96 141 176 219 268 335 391
#
# _framework density 25.370404000000001
#
# number of rings (size 3 to 8) (size 9 to 14) (size 15 to 20)
#    0.000    1.000    3.333    3.500    2.333    7.333 
#    3.000    0.000    0.000    0.000    0.000    0.000 
#    0.000    0.000    0.000    0.000    0.000    0.000 
#
# Total GULP energy -134090.922774 kJ/mol
# GULP energy per Si atom -5587.121782 kJ/mol
# Density = 2.531266 g / cm^3
# Si number density = 25.370404 Si / 1000 Ang^3
#
#
#
# Elastic Constant Matrix: (Units=GPa)
#
#
# Indices 1 2 3 4 5 6 
#
# 1 83.9356 34.0416 31.3099 0.0000 25.5429 0.0000
# 2 34.0416 133.0474 57.8988 0.0000 40.5240 0.0000
# 3 31.3099 57.8988 102.1941 0.0000 40.8044 0.0000
# 4 0.0000 0.0000 0.0000 63.5051 0.0000 -6.5174
# 5 25.5429 40.5240 40.8044 0.0000 60.0668 0.0000
# 6 0.0000 0.0000 0.0000 -6.5174 0.0000 55.6328
#
#
#
# Elastic Compliance Matrix: (Units=1/GPa)
#
#
# Indices 1 2 3 4 5 6 
#
# 1 0.014465 -0.001723 -0.002008 0.000000 -0.003624 0.000000
# 2 -0.001723 0.010921 -0.004130 0.000000 -0.003829 0.000000
# 3 -0.002008 -0.004130 0.015488 0.000000 -0.006881 0.000000
# 4 0.000000 0.000000 0.000000 0.015938 0.000000 0.001867
# 5 -0.003624 -0.003829 -0.006881 0.000000 0.025447 0.000000
# 6 0.000000 0.000000 0.000000 0.001867 0.000000 0.018194
#
#
# Mechanical properties :
#
#
# Convention : Reuss Voigt Hill
#
# Bulk Modulus (GPa) = 39.76165 62.85311 51.30738
# Shear Modulus (GPa) = 40.14146 48.90273 44.52209
#
# Velocity S-wave (km/s) = 3.98202 4.39515 4.19368
# Velocity P-wave (km/s) = 6.07030 7.11227 6.61184
#
# Compressibility (1/GPa) = 0.02514986
#
# Stress axis : x y z
#
# Youngs Moduli (GPa) = 69.13331 91.56914 64.56580
#
# Poissons Ratio (x) = 0.15778 0.12967
# Poissons Ratio (y) = 0.11913 0.26668
# Poissons Ratio (z) = 0.13884 0.37822
#
# Static dielectric constant tensor:
#      x y z
#    x 2.244590 0.000000 -0.156550 
#    y 0.000000 2.020950 0.000000 
#    z -0.156550 0.000000 2.020000 
# 
# From -- ./inp_files/116460.got.cif
#   From: 2010.05.17/outbox.cif.g08.bks.cpg/sg15_59_cif.got.tgz:116460.got - 2010.06.03 18:47:42.
