data_PCOD9292234
_publ_section_title
;
Structure prediction by ZEFSAII (Michael W. Deem and Ramdas Pophale) SiO2 
 PCOD9292234
Probable space group: C 2/C
;
_chemical_formula_sum "Si O2"
_cell_formula_units_Z 40
_cell_length_a 15.953430
_cell_length_b 23.655427
_cell_length_c 9.451739
_cell_angle_alpha 90.000000
_cell_angle_beta 147.391391
_cell_angle_gamma 90.000000
_cell_volume 1922.218006
_symmetry_space_group_name_H-M "C 2/C"
_symmetry_group_IT_number 15
_symmetry_cell_setting 'monoclinic'
loop_
_space_group_symop_operation_xyz
x,y,z
-x,y,1/2-z
-x,-y,-z
x,-y,1/2+z
1/2+x,1/2+y,z
1/2-x,1/2+y,1/2-z
1/2-x,1/2-y,-z
1/2+x,1/2-y,1/2+z
loop_
_atom_site_type_symbol
_atom_site_label
_atom_site_fract_x
_atom_site_fract_y
_atom_site_fract_z
Si Si1 0.885361 0.834111 0.302419
Si Si2 0.162578 0.752634 0.024685
Si Si3 0.766596 0.848789 0.823111
Si Si4 0.151632 0.037536 0.683711
Si Si5 0.831273 0.525525 0.223485
O O1 0.797633 0.792073 0.285234
O O2 0.880645 0.896665 0.358150
O O3 0.069492 0.831098 0.520727
O O4 0.794074 0.831654 0.024463
O O5 0.145884 0.690326 0.068447
O O6 0.250000 0.750000 0.000000
O O7 0.000000 0.778780 0.750000
O O8 0.712809 0.914439 0.761380
O O9 0.211678 0.018745 0.618486
O O10 0.286433 0.029477 0.994750
O O11 0.000000 0.000000 0.500000
O O12 0.000000 0.500000 0.500000
#
# Coordination Sequence:
#
# PCOD9292234 Si02
#       5
#     8   8   8   8   8
#     4  10  22  43  68  91 128 178 225 261 320 413
#     4  12  25  42  65  99 132 165 221 284 337 379
#     4  10  22  44  66  91 131 178 219 264 329 402
#     4  11  22  41  68  95 126 175 225 260 322 401
#     4  11  24  41  64  99 135 169 214 277 332 382
#
# _framework density 20.809294999999999
#
# number of rings (size 3 to 8) (size 9 to 14) (size 15 to 20)
#    0.000    1.200    4.000    1.800    0.000    6.400 
#    0.000    2.000    0.000    0.000    0.000    0.000 
#    0.000    0.000    0.000    0.000    0.000    0.000 
#
# Total GULP energy -111356.257369 kJ/mol
# GULP energy per Si atom -5567.812868 kJ/mol
# Density = 2.076193 g / cm^3
# Si number density = 20.809295 Si / 1000 Ang^3
#
#
#
# Elastic Constant Matrix: (Units=GPa)
#
#
# Indices 1 2 3 4 5 6 
#
# 1 115.8949 39.2501 1.6587 0.0000 -9.2089 0.0000
# 2 39.2501 91.8029 17.2407 0.0000 -28.5300 0.0000
# 3 1.6587 17.2407 48.8511 0.0000 1.1556 0.0000
# 4 0.0000 0.0000 0.0000 31.8080 0.0000 -5.5198
# 5 -9.2089 -28.5300 1.1556 0.0000 26.2995 0.0000
# 6 0.0000 0.0000 0.0000 -5.5198 0.0000 30.7665
#
#
#
# Elastic Compliance Matrix: (Units=1/GPa)
#
#
# Indices 1 2 3 4 5 6 
#
# 1 0.010254 -0.005423 0.001622 0.000000 -0.002364 0.000000
# 2 -0.005423 0.021441 -0.007896 0.000000 0.021707 0.000000
# 3 0.001622 -0.007896 0.023416 0.000000 -0.009027 0.000000
# 4 0.000000 0.000000 0.000000 0.032449 0.000000 0.005822
# 5 -0.002364 0.021707 -0.009027 0.000000 0.061140 0.000000
# 6 0.000000 0.000000 0.000000 0.005822 0.000000 0.033547
#
#
# Mechanical properties :
#
#
# Convention : Reuss Voigt Hill
#
# Bulk Modulus (GPa) = 31.53118 41.42754 36.47936
# Shear Modulus (GPa) = 23.12523 31.00144 27.06333
#
# Velocity S-wave (km/s) = 3.33722 3.86396 3.61021
# Velocity P-wave (km/s) = 5.48040 6.31335 5.91156
#
# Compressibility (1/GPa) = 0.03171464
#
# Stress axis : x y z
#
# Youngs Moduli (GPa) = 97.52107 46.64063 42.70653
#
# Poissons Ratio (x) = 0.25295 -0.06926
# Poissons Ratio (y) = 0.52890 0.33722
# Poissons Ratio (z) = -0.15816 0.36829
#
# Static dielectric constant tensor:
#      x y z
#    x 1.638820 0.000000 0.322070 
#    y 0.000000 1.891540 0.000000 
#    z 0.322070 0.000000 1.828760 
# 
# From -- ./inp_files/41919.got.cif
#   From: 2010.05.17/outbox.cif.g08.bks.cpg/sg15_21_cif.got.tgz:41919.got - 2010.06.03 18:47:42.
