data_PCOD9292159
_publ_section_title
;
Structure prediction by ZEFSAII (Michael W. Deem and Ramdas Pophale) SiO2 
 PCOD9292159
Probable space group: C 2/C
;
_chemical_formula_sum "Si O2"
_cell_formula_units_Z 40
_cell_length_a 21.932270
_cell_length_b 10.044466
_cell_length_c 26.175897
_cell_angle_alpha 90.000000
_cell_angle_beta 159.295233
_cell_angle_gamma 90.000000
_cell_volume 2038.760134
_symmetry_space_group_name_H-M "C 2/C"
_symmetry_group_IT_number 15
_symmetry_cell_setting 'monoclinic'
loop_
_space_group_symop_operation_xyz
x,y,z
-x,y,1/2-z
-x,-y,-z
x,-y,1/2+z
1/2+x,1/2+y,z
1/2-x,1/2+y,1/2-z
1/2-x,1/2-y,-z
1/2+x,1/2-y,1/2+z
loop_
_atom_site_type_symbol
_atom_site_label
_atom_site_fract_x
_atom_site_fract_y
_atom_site_fract_z
Si Si1 0.013539 0.704232 0.965369
Si Si2 0.510407 0.023882 0.133663
Si Si3 0.677581 0.885701 0.919416
Si Si4 0.632817 0.511065 0.527134
Si Si5 0.117794 0.770365 0.154823
O O1 0.039255 0.579795 0.948784
O O2 0.058649 0.840641 0.971374
O O3 0.813019 0.705322 0.824516
O O4 0.121523 0.702529 0.102057
O O5 0.377571 0.022933 0.076208
O O6 0.700076 0.992594 0.304964
O O7 0.524095 0.170635 0.120168
O O8 0.500000 0.855309 0.750000
O O9 0.802837 0.959305 0.977700
O O10 0.750000 0.750000 0.000000
O O11 0.489298 0.406384 0.433359
#
# Coordination Sequence:
#
# PCOD9292159 Si02
#       5
#     8   8   8   8   8
#     4  12  24  40  63  93 130 167 202 252 317 365
#     4  11  23  42  65  94 125 164 209 256 308 366
#     4  10  22  43  67  89 120 164 208 256 307 363
#     4  11  23  43  64  92 131 160 205 265 304 361
#     4  12  22  40  67  89 130 167 203 255 308 370
#
# _framework density 19.619768000000001
#
# number of rings (size 3 to 8) (size 9 to 14) (size 15 to 20)
#    0.000    0.800    6.000    2.400    0.000    0.800 
#    3.600    0.000    0.000    0.000    0.000    0.000 
#    0.000    0.000    0.000    0.000    0.000    0.000 
#
# Total GULP energy -111844.306448 kJ/mol
# GULP energy per Si atom -5592.215322 kJ/mol
# Density = 1.957511 g / cm^3
# Si number density = 19.619768 Si / 1000 Ang^3
#
#
#
# Elastic Constant Matrix: (Units=GPa)
#
#
# Indices 1 2 3 4 5 6 
#
# 1 76.3145 -3.4551 -9.1064 -0.0051 -0.4181 0.0015
# 2 -3.4551 29.5250 -10.1516 -0.0132 9.1666 -0.0025
# 3 -9.1064 -10.1516 20.6502 -0.0315 4.5966 0.0062
# 4 -0.0051 -0.0132 -0.0315 19.2269 -0.0054 3.4650
# 5 -0.4181 9.1666 4.5966 -0.0054 24.2745 0.0022
# 6 0.0015 -0.0025 0.0062 3.4650 0.0022 11.2732
#
#
#
# Elastic Compliance Matrix: (Units=1/GPa)
#
#
# Indices 1 2 3 4 5 6 
#
# 1 0.014670 0.006764 0.010760 0.000027 -0.004339 -0.000014
# 2 0.006764 0.055975 0.036727 0.000099 -0.027975 -0.000034
# 3 0.010760 0.036727 0.077541 0.000162 -0.028367 -0.000080
# 4 0.000027 0.000099 0.000162 0.055061 -0.000054 -0.016924
# 5 -0.004339 -0.027975 -0.028367 -0.000054 0.057056 0.000015
# 6 -0.000014 -0.000034 -0.000080 -0.016924 0.000015 0.093908
#
#
# Mechanical properties :
#
#
# Convention : Reuss Voigt Hill
#
# Bulk Modulus (GPa) = 3.89579 9.00703 6.45141
# Shear Modulus (GPa) = 15.09340 20.90178 17.99759
#
# Velocity S-wave (km/s) = 2.77663 3.26750 3.03201
# Velocity P-wave (km/s) = 3.50278 4.34007 3.94371
#
# Compressibility (1/GPa) = 0.25668708
#
# Stress axis : x y z
#
# Youngs Moduli (GPa) = 68.16583 17.86524 12.89647
#
# Poissons Ratio (x) = -0.12083 -0.13877
# Poissons Ratio (y) = -0.46104 -0.47365
# Poissons Ratio (z) = -0.73347 -0.65614
#
# Static dielectric constant tensor:
#      x y z
#    x 1.697580 0.000000 -0.007060 
#    y 0.000000 1.663620 0.000000 
#    z -0.007060 0.000000 1.659380 
# 
# From -- ./inp_files/103336.got.cif
#   From: 2010.05.17/outbox.cif.g08.bks.cpg/sg15_52_cif.got.tgz:103336.got - 2010.06.03 18:47:42.
