data_PCOD9292454
_publ_section_title
;
Structure prediction by ZEFSAII (Michael W. Deem and Ramdas Pophale) SiO2 
 PCOD9292454
Probable space group: C 2/C
;
_chemical_formula_sum "Si O2"
_cell_formula_units_Z 48
_cell_length_a 11.791084
_cell_length_b 21.102815
_cell_length_c 11.679775
_cell_angle_alpha 90.000000
_cell_angle_beta 134.688016
_cell_angle_gamma 90.000000
_cell_volume 2066.167715
_symmetry_space_group_name_H-M "C 2/C"
_symmetry_group_IT_number 15
_symmetry_cell_setting 'monoclinic'
loop_
_space_group_symop_operation_xyz
x,y,z
-x,y,1/2-z
-x,-y,-z
x,-y,1/2+z
1/2+x,1/2+y,z
1/2-x,1/2+y,1/2-z
1/2-x,1/2-y,-z
1/2+x,1/2-y,1/2+z
loop_
_atom_site_type_symbol
_atom_site_label
_atom_site_fract_x
_atom_site_fract_y
_atom_site_fract_z
Si Si1 0.373981 0.361381 0.064648
Si Si2 0.910399 0.435023 0.906888
Si Si3 0.115764 0.684597 0.522775
Si Si4 0.384557 0.699738 0.908630
Si Si5 0.675339 0.383927 0.930960
Si Si6 0.335244 0.511068 0.448352
O O1 0.500000 0.340988 0.250000
O O2 0.220054 0.318267 0.979150
O O3 0.469085 0.348824 0.015347
O O4 0.350501 0.436633 0.059062
O O5 0.806590 0.397156 0.927653
O O6 0.791121 0.455691 0.722958
O O7 0.000000 0.500000 0.000000
O O8 0.042212 0.384778 0.966870
O O9 0.238418 0.691513 0.716478
O O10 0.974425 0.734537 0.444012
O O11 0.326309 0.680286 0.994267
O O12 0.500000 0.391094 0.750000
O O13 0.711486 0.442151 0.041977
O O14 0.500000 0.500000 0.500000
#
# Coordination Sequence:
#
# PCOD9292454 Si02
#       6
#     8   8   8   8   8   8
#     4  10  22  43  72 104 140 187 239 305 362 432
#     4  12  28  47  69 109 147 185 244 312 372 436
#     4  11  27  46  72 106 147 194 250 303 367 438
#     4  11  25  46  71 103 147 193 247 298 368 436
#     4  12  25  45  75 107 144 192 241 301 370 447
#     4  12  23  42  75 103 140 186 243 291 370 438
#
# _framework density 23.231415999999999
#
# number of rings (size 3 to 8) (size 9 to 14) (size 15 to 20)
#    0.000    0.667    3.333    3.000    7.000    5.333 
#    0.000    0.000    0.000    0.000    0.000    0.000 
#    0.000    0.000    0.000    0.000    0.000    0.000 
#
# Total GULP energy -134056.263555 kJ/mol
# GULP energy per Si atom -5585.677648 kJ/mol
# Density = 2.317854 g / cm^3
# Si number density = 23.231416 Si / 1000 Ang^3
#
#
#
# Elastic Constant Matrix: (Units=GPa)
#
#
# Indices 1 2 3 4 5 6 
#
# 1 93.2587 16.6708 28.5232 0.0000 10.0507 0.0000
# 2 16.6708 130.8394 27.1175 0.0000 20.9336 0.0000
# 3 28.5232 27.1175 109.8586 0.0000 18.7069 0.0000
# 4 0.0000 0.0000 0.0000 32.3364 0.0000 6.8166
# 5 10.0507 20.9336 18.7069 0.0000 28.4255 0.0000
# 6 0.0000 0.0000 0.0000 6.8166 0.0000 46.8164
#
#
#
# Elastic Compliance Matrix: (Units=1/GPa)
#
#
# Indices 1 2 3 4 5 6 
#
# 1 0.011843 -0.000654 -0.002570 0.000000 -0.002014 0.000000
# 2 -0.000654 0.008839 -0.001062 0.000000 -0.005579 0.000000
# 3 -0.002570 -0.001062 0.010974 0.000000 -0.005531 0.000000
# 4 0.000000 0.000000 0.000000 0.031904 0.000000 -0.004645
# 5 -0.002014 -0.005579 -0.005531 0.000000 0.043641 0.000000
# 6 0.000000 0.000000 0.000000 -0.004645 0.000000 0.022036
#
#
# Mechanical properties :
#
#
# Convention : Reuss Voigt Hill
#
# Bulk Modulus (GPa) = 43.32151 53.17551 48.24851
# Shear Modulus (GPa) = 34.36322 38.95868 36.66095
#
# Velocity S-wave (km/s) = 3.85017 4.09954 3.97681
# Velocity P-wave (km/s) = 6.20108 6.73405 6.47305
#
# Compressibility (1/GPa) = 0.02308322
#
# Stress axis : x y z
#
# Youngs Moduli (GPa) = 84.43795 113.13453 91.12478
#
# Poissons Ratio (x) = 0.07398 0.23423
# Poissons Ratio (y) = 0.05522 0.09677
# Poissons Ratio (z) = 0.21704 0.12015
#
# Static dielectric constant tensor:
#      x y z
#    x 1.972470 0.000000 -0.038940 
#    y 0.000000 1.878470 0.000000 
#    z -0.038940 0.000000 1.945820 
# 
# From -- ./inp_files/89764.got.cif
#   From: 2010.05.17/outbox.cif.g08.bks.cpg/sg15_45_cif.got.tgz:89764.got - 2010.06.03 18:47:42.
