data_PCOD9292157
_publ_section_title
;
Structure prediction by ZEFSAII (Michael W. Deem and Ramdas Pophale) SiO2 
 PCOD9292157
Probable space group: C 2/C
;
_chemical_formula_sum "Si O2"
_cell_formula_units_Z 40
_cell_length_a 14.225616
_cell_length_b 9.114334
_cell_length_c 12.654210
_cell_angle_alpha 90.000000
_cell_angle_beta 95.760250
_cell_angle_gamma 90.000000
_cell_volume 1632.422482
_symmetry_space_group_name_H-M "C 2/C"
_symmetry_group_IT_number 15
_symmetry_cell_setting 'monoclinic'
loop_
_space_group_symop_operation_xyz
x,y,z
-x,y,1/2-z
-x,-y,-z
x,-y,1/2+z
1/2+x,1/2+y,z
1/2-x,1/2+y,1/2-z
1/2-x,1/2-y,-z
1/2+x,1/2-y,1/2+z
loop_
_atom_site_type_symbol
_atom_site_label
_atom_site_fract_x
_atom_site_fract_y
_atom_site_fract_z
Si Si1 0.187094 0.162882 0.270669
Si Si2 0.859708 0.681628 0.450620
Si Si3 0.185961 0.521973 0.836452
Si Si4 0.403081 0.478978 0.553414
Si Si5 0.949948 0.734693 0.143514
O O1 0.280643 0.145753 0.355502
O O2 0.177657 0.337616 0.257681
O O3 0.102046 0.099084 0.331499
O O4 0.215609 0.064676 0.174070
O O5 0.840154 0.585047 0.551157
O O6 0.849717 0.853357 0.480968
O O7 0.967141 0.674749 0.422370
O O8 0.107340 0.398327 0.814509
O O9 0.500000 0.500000 0.500000
O O10 0.380821 0.648533 0.578624
O O11 0.000000 0.810696 0.250000
#
# Coordination Sequence:
#
# PCOD9292157 Si02
#       5
#     8   8   8   8   8
#     4  11  22  41  65  91 126 164 208 262 313 365
#     4  10  22  43  67  88 129 165 206 260 316 367
#     4  11  22  39  66  93 126 165 211 256 312 371
#     4   9  20  38  63  91 118 164 207 252 310 374
#     4  11  21  40  66  91 130 168 205 253 315 369
#
# _framework density 24.50346
#
# number of rings (size 3 to 8) (size 9 to 14) (size 15 to 20)
#    0.000    1.600    2.000    4.200    0.000    0.000 
#    0.000   13.000    4.400    0.000    0.000    0.000 
#    0.000    0.000    0.000    0.000    0.000    0.000 
#
# Total GULP energy -111535.125117 kJ/mol
# GULP energy per Si atom -5576.756256 kJ/mol
# Density = 2.444769 g / cm^3
# Si number density = 24.503460 Si / 1000 Ang^3
#
#
#
# Elastic Constant Matrix: (Units=GPa)
#
#
# Indices 1 2 3 4 5 6 
#
# 1 54.8709 25.9761 30.4340 0.0000 -39.7178 0.0000
# 2 25.9761 158.6039 48.4710 0.0000 -18.1505 0.0000
# 3 30.4340 48.4710 92.3517 0.0000 -25.5063 0.0000
# 4 0.0000 0.0000 0.0000 43.1059 0.0000 -11.1608
# 5 -39.7178 -18.1505 -25.5063 0.0000 54.0944 0.0000
# 6 0.0000 0.0000 0.0000 -11.1608 0.0000 44.2389
#
#
#
# Elastic Compliance Matrix: (Units=1/GPa)
#
#
# Indices 1 2 3 4 5 6 
#
# 1 0.042282 -0.002177 -0.005080 0.000000 0.027919 0.000000
# 2 -0.002177 0.007649 -0.003483 0.000000 -0.000675 0.000000
# 3 -0.005080 -0.003483 0.014921 0.000000 0.002136 0.000000
# 4 0.000000 0.000000 0.000000 0.024820 0.000000 0.006262
# 5 0.027919 -0.000675 0.002136 0.000000 0.039766 0.000000
# 6 0.000000 0.000000 0.000000 0.006262 0.000000 0.024184
#
#
# Mechanical properties :
#
#
# Convention : Reuss Voigt Hill
#
# Bulk Modulus (GPa) = 23.05763 57.28765 40.17264
# Shear Modulus (GPa) = 26.37685 41.68418 34.03051
#
# Velocity S-wave (km/s) = 3.28450 4.12898 3.73071
# Velocity P-wave (km/s) = 4.87999 6.79422 5.91505
#
# Compressibility (1/GPa) = 0.04336960
#
# Stress axis : x y z
#
# Youngs Moduli (GPa) = 23.65081 130.73662 67.02129
#
# Poissons Ratio (x) = 0.28466 0.34048
# Poissons Ratio (y) = 0.05150 0.23346
# Poissons Ratio (z) = 0.12015 0.45540
#
# Static dielectric constant tensor:
#      x y z
#    x 1.992070 0.000000 0.023040 
#    y 0.000000 1.971890 0.000000 
#    z 0.023040 0.000000 2.010830 
# 
# From -- ./inp_files/150677.got.cif
#   From: 2010.05.17/outbox.cif.g08.bks.cpg/sg15_76_cif.got.tgz:150677.got - 2010.06.03 18:47:42.
