data_PCOD9292352
_publ_section_title
;
Structure prediction by ZEFSAII (Michael W. Deem and Ramdas Pophale) SiO2 
 PCOD9292352
Probable space group: C 2/C
;
_chemical_formula_sum "Si O2"
_cell_formula_units_Z 44
_cell_length_a 15.307685
_cell_length_b 25.953599
_cell_length_c 5.953337
_cell_angle_alpha 90.000000
_cell_angle_beta 50.949830
_cell_angle_gamma 90.000000
_cell_volume 1836.800321
_symmetry_space_group_name_H-M "C 2/C"
_symmetry_group_IT_number 15
_symmetry_cell_setting 'monoclinic'
loop_
_space_group_symop_operation_xyz
x,y,z
-x,y,1/2-z
-x,-y,-z
x,-y,1/2+z
1/2+x,1/2+y,z
1/2-x,1/2+y,1/2-z
1/2-x,1/2-y,-z
1/2+x,1/2-y,1/2+z
loop_
_atom_site_type_symbol
_atom_site_label
_atom_site_fract_x
_atom_site_fract_y
_atom_site_fract_z
Si Si1 0.725222 0.506428 0.062241
Si Si2 0.744712 0.115204 0.394052
Si Si3 0.394124 0.402507 0.260350
Si Si4 0.500000 0.867874 0.250000
Si Si5 0.186622 0.809395 0.368576
Si Si6 0.910041 0.282827 0.721673
O O1 0.781024 0.497323 0.724233
O O2 0.689808 0.566213 0.109182
O O3 0.627497 0.463291 0.244214
O O4 0.613251 0.103391 0.637227
O O5 0.773640 0.170375 0.453131
O O6 0.781740 0.113406 0.079318
O O7 0.500000 0.396115 0.250000
O O8 0.390648 0.357562 0.083889
O O9 0.463645 0.832220 0.516539
O O10 0.119836 0.757492 0.426038
O O11 0.300585 0.799153 0.041201
O O12 0.000000 0.259505 0.750000
#
# Coordination Sequence:
#
# PCOD9292352 Si02
#       6
#     8   8   8   4   8   8
#     4  10  22  43  70 102 143 184 234 287 355 429
#     4  11  24  43  70 100 135 183 230 287 358 419
#     4  11  24  43  69 100 141 180 232 288 352 425
#     4  12  24  44  70  98 136 182 232 294 344 420
#     4  11  23  43  66  99 137 177 231 292 345 430
#     4  11  24  41  69  96 135 182 231 285 356 416
#
# _framework density 23.954699000000002
#
# number of rings (size 3 to 8) (size 9 to 14) (size 15 to 20)
#    0.000    1.091    5.455    0.545    0.000    7.273 
#    0.000    3.636    2.000    0.000    0.000    0.000 
#    0.000    0.000    0.000    0.000    0.000    0.000 
#
# Total GULP energy -122621.857898 kJ/mol
# GULP energy per Si atom -5573.720814 kJ/mol
# Density = 2.390018 g / cm^3
# Si number density = 23.954699 Si / 1000 Ang^3
#
#
#
# Elastic Constant Matrix: (Units=GPa)
#
#
# Indices 1 2 3 4 5 6 
#
# 1 80.8695 25.5661 -0.1756 0.0000 -6.5253 0.0000
# 2 25.5661 103.4172 0.3376 0.0000 4.2557 0.0000
# 3 -0.1756 0.3376 68.8202 0.0000 0.2469 0.0000
# 4 0.0000 0.0000 0.0000 56.9055 0.0000 21.1350
# 5 -6.5253 4.2557 0.2469 0.0000 38.5793 0.0000
# 6 0.0000 0.0000 0.0000 21.1350 0.0000 35.8557
#
#
#
# Elastic Compliance Matrix: (Units=1/GPa)
#
#
# Indices 1 2 3 4 5 6 
#
# 1 0.013689 -0.003495 0.000042 0.000000 0.002701 0.000000
# 2 -0.003495 0.010606 -0.000055 0.000000 -0.001761 0.000000
# 3 0.000042 -0.000055 0.014531 0.000000 -0.000080 0.000000
# 4 0.000000 0.000000 0.000000 0.022498 0.000000 -0.013262
# 5 0.002701 -0.001761 -0.000080 0.000000 0.026572 0.000000
# 6 0.000000 0.000000 0.000000 -0.013262 0.000000 0.035707
#
#
# Mechanical properties :
#
#
# Convention : Reuss Voigt Hill
#
# Bulk Modulus (GPa) = 31.43554 33.84034 32.63794
# Shear Modulus (GPa) = 35.40524 41.42670 38.41597
#
# Velocity S-wave (km/s) = 3.84866 4.16309 4.00896
# Velocity P-wave (km/s) = 5.73594 6.10458 5.92313
#
# Compressibility (1/GPa) = 0.03181113
#
# Stress axis : x y z
#
# Youngs Moduli (GPa) = 73.05349 94.28372 68.81704
#
# Poissons Ratio (x) = 0.32955 -0.00292
# Poissons Ratio (y) = 0.25534 0.00376
# Poissons Ratio (z) = -0.00310 0.00515
#
# Static dielectric constant tensor:
#      x y z
#    x 2.013220 0.000000 0.099270 
#    y 0.000000 1.928190 0.000000 
#    z 0.099270 0.000000 1.981050 
# 
# From -- ./inp_files/5760.got.cif
#   From: 2010.05.17/outbox.cif.g08.bks.cpg/sg15_3_cif.got.tgz:5760.got - 2010.06.03 18:47:42.
