data_PCOD9292398
_publ_section_title
;
Structure prediction by ZEFSAII (Michael W. Deem and Ramdas Pophale) SiO2 
 PCOD9292398
Probable space group: C 2/C
;
_chemical_formula_sum "Si O2"
_cell_formula_units_Z 48
_cell_length_a 15.459655
_cell_length_b 30.563597
_cell_length_c 8.262587
_cell_angle_alpha 90.000000
_cell_angle_beta 147.592777
_cell_angle_gamma 90.000000
_cell_volume 2092.333915
_symmetry_space_group_name_H-M "C 2/C"
_symmetry_group_IT_number 15
_symmetry_cell_setting 'monoclinic'
loop_
_space_group_symop_operation_xyz
x,y,z
-x,y,1/2-z
-x,-y,-z
x,-y,1/2+z
1/2+x,1/2+y,z
1/2-x,1/2+y,1/2-z
1/2-x,1/2-y,-z
1/2+x,1/2-y,1/2+z
loop_
_atom_site_type_symbol
_atom_site_label
_atom_site_fract_x
_atom_site_fract_y
_atom_site_fract_z
Si Si1 0.073606 0.790363 0.203567
Si Si2 0.451326 0.192990 0.347221
Si Si3 0.000000 0.636330 0.750000
Si Si4 0.000000 0.165102 0.250000
Si Si5 0.757181 0.516671 0.619632
Si Si6 0.500000 0.560364 0.750000
Si Si7 0.000000 0.521990 0.250000
Si Si8 0.838835 0.902959 0.706007
O O1 0.262150 0.795837 0.539833
O O2 0.983054 0.742959 0.048381
O O3 0.000000 0.811466 0.250000
O O4 0.055500 0.808638 0.994326
O O5 0.500000 0.172356 0.250000
O O6 0.491456 0.165791 0.572270
O O7 0.837767 0.606932 0.499477
O O8 0.134322 0.133876 0.385021
O O9 0.655445 0.472662 0.495618
O O10 0.896325 0.505996 0.711062
O O11 0.644453 0.550864 0.355616
O O12 0.853838 0.541782 0.915185
O O13 0.474310 0.592170 0.557314
#
# Coordination Sequence:
#
# PCOD9292398 Si02
#       8
#     8   8   4   4   8   4   4   8
#     4  10  22  43  71 101 136 183 234 274 330 407
#     4  10  22  43  72 100 135 187 229 273 332 411
#     4  12  26  46  66 103 152 172 228 283 356 400
#     4  12  26  42  66 103 144 176 230 276 355 398
#     4  11  23  48  66 100 125 177 233 279 338 411
#     4  12  27  46  72  91 136 181 233 287 336 412
#     4  10  23  40  76  91 126 161 231 286 329 404
#     4  12  28  44  67 102 136 184 222 288 351 408
#
# _framework density 22.94089
#
# number of rings (size 3 to 8) (size 9 to 14) (size 15 to 20)
#    0.000    1.000    1.667    4.000    8.167    0.000 
#    4.500    6.667    0.000    0.000    0.000    0.000 
#    0.000    0.000    0.000    0.000    0.000    0.000 
#
# Total GULP energy -133731.055365 kJ/mol
# GULP energy per Si atom -5572.127307 kJ/mol
# Density = 2.288868 g / cm^3
# Si number density = 22.940890 Si / 1000 Ang^3
#
#
#
# Elastic Constant Matrix: (Units=GPa)
#
#
# Indices 1 2 3 4 5 6 
#
# 1 114.9450 25.6041 51.7589 0.0000 -22.5588 0.0000
# 2 25.6041 59.8522 11.5909 0.0000 -19.2270 0.0000
# 3 51.7589 11.5909 93.4576 0.0000 -29.7922 0.0000
# 4 0.0000 0.0000 0.0000 24.9124 0.0000 4.0416
# 5 -22.5588 -19.2270 -29.7922 0.0000 54.1843 0.0000
# 6 0.0000 0.0000 0.0000 4.0416 0.0000 18.9946
#
#
#
# Elastic Compliance Matrix: (Units=1/GPa)
#
#
# Indices 1 2 3 4 5 6 
#
# 1 0.012507 -0.004029 -0.006333 0.000000 0.000295 0.000000
# 2 -0.004029 0.020160 0.001791 0.000000 0.006461 0.000000
# 3 -0.006333 0.001791 0.016184 0.000000 0.006897 0.000000
# 4 0.000000 0.000000 0.000000 0.041576 0.000000 -0.008846
# 5 0.000295 0.006461 0.006897 0.000000 0.024663 0.000000
# 6 0.000000 0.000000 0.000000 -0.008846 0.000000 0.054529
#
#
# Mechanical properties :
#
#
# Convention : Reuss Voigt Hill
#
# Bulk Modulus (GPa) = 31.53721 49.57362 40.55542
# Shear Modulus (GPa) = 25.33821 31.57166 28.45494
#
# Velocity S-wave (km/s) = 3.32701 3.71377 3.52569
# Velocity P-wave (km/s) = 5.34188 6.32816 5.85582
#
# Compressibility (1/GPa) = 0.03170857
#
# Stress axis : x y z
#
# Youngs Moduli (GPa) = 79.95640 49.60289 61.79016
#
# Poissons Ratio (x) = 0.19985 0.39130
# Poissons Ratio (y) = 0.32214 -0.11064
# Poissons Ratio (z) = 0.50634 -0.08882
#
# Static dielectric constant tensor:
#      x y z
#    x 1.899710 0.000000 -0.063830 
#    y 0.000000 1.893510 0.000000 
#    z -0.063830 0.000000 1.933140 
# 
# From -- ./inp_files/52916.got.cif
#   From: 2010.05.17/outbox.cif.g08.bks.cpg/sg15_27_cif.got.tgz:52916.got - 2010.06.03 18:47:42.
