data_PCOD9292085
_publ_section_title
;
Structure prediction by ZEFSAII (Michael W. Deem and Ramdas Pophale) SiO2 
 PCOD9292085
Probable space group: C 2/C
;
_chemical_formula_sum "Si O2"
_cell_formula_units_Z 60
_cell_length_a 19.115913
_cell_length_b 12.041696
_cell_length_c 22.634470
_cell_angle_alpha 90.000000
_cell_angle_beta 148.142420
_cell_angle_gamma 90.000000
_cell_volume 2749.985160
_symmetry_space_group_name_H-M "C 2/C"
_symmetry_group_IT_number 15
_symmetry_cell_setting 'monoclinic'
loop_
_space_group_symop_operation_xyz
x,y,z
-x,y,1/2-z
-x,-y,-z
x,-y,1/2+z
1/2+x,1/2+y,z
1/2-x,1/2+y,1/2-z
1/2-x,1/2-y,-z
1/2+x,1/2-y,1/2+z
loop_
_atom_site_type_symbol
_atom_site_label
_atom_site_fract_x
_atom_site_fract_y
_atom_site_fract_z
Si Si1 0.982463 0.074969 0.929295
Si Si2 0.292923 0.890004 0.459913
Si Si3 0.844488 0.234162 0.154331
Si Si4 0.500000 0.002831 0.750000
Si Si5 0.715919 0.921051 0.463453
Si Si6 0.904511 0.680383 0.347377
Si Si7 0.774937 0.339266 0.629919
Si Si8 0.280344 0.553947 0.200189
O O1 0.915858 0.197840 0.885929
O O2 0.131704 0.106828 0.018863
O O3 0.897961 0.003564 0.821730
O O4 0.000000 0.000000 0.000000
O O5 0.448813 0.857107 0.569109
O O6 0.215306 0.775335 0.398291
O O7 0.246913 0.958333 0.484432
O O8 0.263133 0.968454 0.382216
O O9 0.773719 0.354289 0.091766
O O10 0.826001 0.169181 0.202000
O O11 0.000000 0.234231 0.250000
O O12 0.774903 0.157986 0.055003
O O13 0.382583 0.926308 0.686746
O O14 0.444524 0.068846 0.653770
O O15 0.806939 0.688357 0.221158
O O16 0.841391 0.589053 0.345377
#
# Coordination Sequence:
#
# PCOD9292085 Si02
#       8
#     8   8   8   4   8   8   8   8
#     4  11  24  44  69 103 140 177 226 284 343 408
#     4  10  22  45  66  95 132 175 228 290 339 408
#     4  10  23  44  63  97 138 172 226 276 335 419
#     4  12  24  42  68  96 130 186 222 284 348 396
#     4  10  22  43  66  92 129 173 226 274 337 406
#     4  11  22  44  68 100 133 174 233 280 338 420
#     4  11  24  42  68  99 138 175 235 279 339 421
#     4  11  23  43  69  99 135 180 220 284 355 398
#
# _framework density 21.818300000000001
#
# number of rings (size 3 to 8) (size 9 to 14) (size 15 to 20)
#    0.000    1.333    4.667    0.400    1.867    1.600 
#   12.000    0.000    0.000    0.000    0.000    0.000 
#    0.000    0.000    0.000    0.000    0.000    0.000 
#
# Total GULP energy -167213.098193 kJ/mol
# GULP energy per Si atom -5573.769940 kJ/mol
# Density = 2.176864 g / cm^3
# Si number density = 21.818300 Si / 1000 Ang^3
#
#
#
# Elastic Constant Matrix: (Units=GPa)
#
#
# Indices 1 2 3 4 5 6 
#
# 1 32.5982 35.4416 29.5865 0.0000 -3.0169 0.0000
# 2 35.4416 157.3073 60.4235 0.0000 -6.5886 0.0000
# 3 29.5865 60.4235 137.3278 0.0001 -13.0874 0.0001
# 4 0.0000 0.0000 0.0001 38.9808 0.0000 -15.7818
# 5 -3.0169 -6.5886 -13.0874 0.0000 32.0521 0.0000
# 6 0.0000 0.0000 0.0001 -15.7818 0.0000 33.8369
#
#
#
# Elastic Compliance Matrix: (Units=1/GPa)
#
#
# Indices 1 2 3 4 5 6 
#
# 1 0.044688 -0.007665 -0.006248 0.000000 0.000080 0.000000
# 2 -0.007665 0.008966 -0.002275 0.000000 0.000193 0.000000
# 3 -0.006248 -0.002275 0.009914 0.000000 0.002992 0.000000
# 4 0.000000 0.000000 0.000000 0.031626 0.000000 0.014750
# 5 0.000080 0.000193 0.002992 0.000000 0.032468 0.000000
# 6 0.000000 0.000000 0.000000 0.014750 0.000000 0.036433
#
#
# Mechanical properties :
#
#
# Convention : Reuss Voigt Hill
#
# Bulk Modulus (GPa) = 32.05932 64.23740 48.14836
# Shear Modulus (GPa) = 24.16998 34.42608 29.29803
#
# Velocity S-wave (km/s) = 3.33195 3.97653 3.66842
# Velocity P-wave (km/s) = 5.43399 7.11264 6.32921
#
# Compressibility (1/GPa) = 0.03119218
#
# Stress axis : x y z
#
# Youngs Moduli (GPa) = 22.37737 111.53299 100.86655
#
# Poissons Ratio (x) = 0.85492 0.63017
# Poissons Ratio (y) = 0.17153 0.22949
# Poissons Ratio (z) = 0.13980 0.25376
#
# Static dielectric constant tensor:
#      x y z
#    x 1.763340 0.000000 -0.001300 
#    y 0.000000 1.919150 0.000000 
#    z -0.001300 0.000000 1.814760 
# 
# From -- ./inp_files/280095.got.cif
#   From: 2010.05.17/outbox.cif.g08.bks.cpg/sg15_141_cif.got.tgz:280095.got - 2010.06.03 18:47:42.
