data_PCOD9292146
_publ_section_title
;
Structure prediction by ZEFSAII (Michael W. Deem and Ramdas Pophale) SiO2 
 PCOD9292146
Probable space group: C 2/C
;
_chemical_formula_sum "Si O2"
_cell_formula_units_Z 44
_cell_length_a 5.927952
_cell_length_b 23.040390
_cell_length_c 13.582503
_cell_angle_alpha 90.000000
_cell_angle_beta 93.458557
_cell_angle_gamma 90.000000
_cell_volume 1851.751095
_symmetry_space_group_name_H-M "C 2/C"
_symmetry_group_IT_number 15
_symmetry_cell_setting 'monoclinic'
loop_
_space_group_symop_operation_xyz
x,y,z
-x,y,1/2-z
-x,-y,-z
x,-y,1/2+z
1/2+x,1/2+y,z
1/2-x,1/2+y,1/2-z
1/2-x,1/2-y,-z
1/2+x,1/2-y,1/2+z
loop_
_atom_site_type_symbol
_atom_site_label
_atom_site_fract_x
_atom_site_fract_y
_atom_site_fract_z
Si Si1 0.894709 0.636053 0.853611
Si Si2 0.447260 0.622326 0.359835
Si Si3 0.000000 0.187014 0.750000
Si Si4 0.767373 0.441319 0.014423
Si Si5 0.651162 0.250485 0.887562
Si Si6 0.906895 0.464956 0.641703
O O1 0.629314 0.642995 0.827902
O O2 0.000000 0.621269 0.750000
O O3 0.031975 0.597432 0.933421
O O4 0.960599 0.701811 0.880119
O O5 0.500000 0.599077 0.250000
O O6 0.572383 0.595880 0.458963
O O7 0.534126 0.688238 0.361420
O O8 0.189581 0.600664 0.364222
O O9 0.835352 0.227703 0.811879
O O10 0.719352 0.490367 0.094849
O O11 0.880573 0.471624 0.923610
O O12 0.750000 0.250000 0.000000
O O13 0.000000 0.479337 0.750000
#
# Coordination Sequence:
#
# PCOD9292146 Si02
#       6
#     8   8   4   8   8   8
#     4  10  22  43  67 102 142 180 233 285 347 421
#     4  12  24  44  69  99 139 180 228 291 344 415
#     4  10  24  42  66 104 142 190 232 286 358 416
#     4  11  24  43  70  99 135 180 229 285 349 416
#     4  11  24  43  68 103 144 183 235 286 351 432
#     4  11  25  45  67  99 134 179 234 287 347 410
#
# _framework density 23.761293999999999
#
# number of rings (size 3 to 8) (size 9 to 14) (size 15 to 20)
#    0.000    1.091    3.636    2.727    2.545    3.636 
#    1.636    3.636    2.000    0.000    0.000    0.000 
#    0.000    0.000    0.000    0.000    0.000    0.000 
#
# Total GULP energy -122774.840104 kJ/mol
# GULP energy per Si atom -5580.674550 kJ/mol
# Density = 2.370721 g / cm^3
# Si number density = 23.761294 Si / 1000 Ang^3
#
#
#
# Elastic Constant Matrix: (Units=GPa)
#
#
# Indices 1 2 3 4 5 6 
#
# 1 29.4404 25.9096 16.1496 0.0000 20.6730 0.0000
# 2 25.9096 92.8013 36.1074 0.0000 23.3982 0.0000
# 3 16.1496 36.1074 185.8075 0.0000 28.0653 0.0000
# 4 0.0000 0.0000 0.0000 23.6925 0.0000 7.7558
# 5 20.6730 23.3982 28.0653 0.0000 31.9196 0.0000
# 6 0.0000 0.0000 0.0000 7.7558 0.0000 24.3205
#
#
#
# Elastic Compliance Matrix: (Units=1/GPa)
#
#
# Indices 1 2 3 4 5 6 
#
# 1 0.069404 -0.010250 0.001861 0.000000 -0.039073 0.000000
# 2 -0.010250 0.015000 -0.001575 0.000000 -0.002972 0.000000
# 3 0.001861 -0.001575 0.006381 0.000000 -0.005662 0.000000
# 4 0.000000 0.000000 0.000000 0.047127 0.000000 -0.015029
# 5 -0.039073 -0.002972 -0.005662 0.000000 0.063791 0.000000
# 6 0.000000 0.000000 0.000000 -0.015029 0.000000 0.045910
#
#
# Mechanical properties :
#
#
# Convention : Reuss Voigt Hill
#
# Bulk Modulus (GPa) = 14.11283 51.59804 32.85543
# Shear Modulus (GPa) = 17.17272 31.31202 24.24237
#
# Velocity S-wave (km/s) = 2.69126 3.63405 3.19759
# Velocity P-wave (km/s) = 3.95088 6.27461 5.24310
#
# Compressibility (1/GPa) = 0.07085753
#
# Stress axis : x y z
#
# Youngs Moduli (GPa) = 14.40849 66.66872 156.70567
#
# Poissons Ratio (x) = 0.68334 -0.29168
# Poissons Ratio (y) = 0.14768 0.24682
# Poissons Ratio (z) = -0.02682 0.10501
#
# Static dielectric constant tensor:
#      x y z
#    x 0.680840 0.000000 -0.860210 
#    y 0.000000 1.971080 0.000000 
#    z -0.860210 0.000000 1.351450 
# 
# From -- ./inp_files/129454.got.cif
#   From: 2010.05.17/outbox.cif.g08.bks.cpg/sg15_65_cif.got.tgz:129454.got - 2010.06.03 18:47:42.
