data_PCOD9292540
_publ_section_title
;
Structure prediction by ZEFSAII (Michael W. Deem and Ramdas Pophale) SiO2 
 PCOD9292540
Probable space group: C 2/C
;
_chemical_formula_sum "Si O2"
_cell_formula_units_Z 36
_cell_length_a 7.660425
_cell_length_b 12.044201
_cell_length_c 22.497889
_cell_angle_alpha 90.000000
_cell_angle_beta 65.200322
_cell_angle_gamma 90.000000
_cell_volume 1884.313506
_symmetry_space_group_name_H-M "C 2/C"
_symmetry_group_IT_number 15
_symmetry_cell_setting 'monoclinic'
loop_
_space_group_symop_operation_xyz
x,y,z
-x,y,1/2-z
-x,-y,-z
x,-y,1/2+z
1/2+x,1/2+y,z
1/2-x,1/2+y,1/2-z
1/2-x,1/2-y,-z
1/2+x,1/2-y,1/2+z
loop_
_atom_site_type_symbol
_atom_site_label
_atom_site_fract_x
_atom_site_fract_y
_atom_site_fract_z
Si Si1 0.000000 0.309450 0.750000
Si Si2 0.499611 0.557955 0.588725
Si Si3 0.550990 0.976684 0.178328
Si Si4 0.059880 0.175406 0.025148
Si Si5 0.782390 0.670635 0.639803
O O1 0.983610 0.395518 0.697212
O O2 0.181602 0.234351 0.708885
O O3 0.278241 0.531601 0.636179
O O4 0.497155 0.642822 0.533728
O O5 0.591332 0.442239 0.553625
O O6 0.617078 0.609139 0.626220
O O7 0.500000 0.924821 0.250000
O O8 0.436375 0.915827 0.143284
O O9 0.892124 0.242222 0.082323
O O10 0.250000 0.250000 0.000000
#
# Coordination Sequence:
#
# PCOD9292540 Si02
#       5
#     4   8   8   8   8
#     4  10  24  42  64  92 128 164 214 266 304 376
#     4  11  24  42  65  96 129 161 219 259 307 394
#     4  10  22  44  60  93 130 160 216 265 302 382
#     4  11  23  43  66  96 131 166 207 264 318 375
#     4  12  23  43  67  92 126 175 207 258 330 363
#
# _framework density 19.1051
#
# number of rings (size 3 to 8) (size 9 to 14) (size 15 to 20)
#    0.667    0.444    4.444    2.000    0.000    2.667 
#    4.000    0.000    0.000    0.000    0.000    0.000 
#    0.000    0.000    0.000    0.000    0.000    0.000 
#
# Total GULP energy -100464.993068 kJ/mol
# GULP energy per Si atom -5581.388504 kJ/mol
# Density = 1.906162 g / cm^3
# Si number density = 19.105100 Si / 1000 Ang^3
#
#
#
# Elastic Constant Matrix: (Units=GPa)
#
#
# Indices 1 2 3 4 5 6 
#
# 1 111.7312 67.0582 40.5112 0.0000 -7.1579 0.0000
# 2 67.0582 92.7126 23.5368 0.0000 -2.5114 0.0000
# 3 40.5112 23.5368 76.9424 0.0000 -22.3356 0.0000
# 4 0.0000 0.0000 0.0000 34.6362 0.0000 -2.4164
# 5 -7.1579 -2.5114 -22.3356 0.0000 33.1373 0.0000
# 6 0.0000 0.0000 0.0000 -2.4164 0.0000 22.0655
#
#
#
# Elastic Compliance Matrix: (Units=1/GPa)
#
#
# Indices 1 2 3 4 5 6 
#
# 1 0.018074 -0.011491 -0.006366 0.000000 -0.001258 0.000000
# 2 -0.011491 0.019096 -0.000114 0.000000 -0.001112 0.000000
# 3 -0.006366 -0.000114 0.019870 0.000000 0.012009 0.000000
# 4 0.000000 0.000000 0.000000 0.029094 0.000000 0.003186
# 5 -0.001258 -0.001112 0.012009 0.000000 0.037916 0.000000
# 6 0.000000 0.000000 0.000000 0.003186 0.000000 0.045669
#
#
# Mechanical properties :
#
#
# Convention : Reuss Voigt Hill
#
# Bulk Modulus (GPa) = 47.39958 60.39982 53.89970
# Shear Modulus (GPa) = 23.50798 27.98647 25.74722
#
# Velocity S-wave (km/s) = 3.51159 3.83151 3.67503
# Velocity P-wave (km/s) = 6.42693 7.15941 6.80304
#
# Compressibility (1/GPa) = 0.02109724
#
# Stress axis : x y z
#
# Youngs Moduli (GPa) = 55.32728 52.36673 50.32772
#
# Poissons Ratio (x) = 0.60174 0.32041
# Poissons Ratio (y) = 0.63575 0.00575
# Poissons Ratio (z) = 0.35224 0.00598
#
# Static dielectric constant tensor:
#      x y z
#    x 1.613950 0.000000 -0.000190 
#    y 0.000000 1.670740 0.000000 
#    z -0.000190 0.000000 1.674220 
# 
# From -- ./inp_files/285140.got.cif
#   From: 2010.05.17/outbox.cif.g08.bks.cpg/sg15_143_cif.got.tgz:285140.got - 2010.06.03 18:47:42.
