data_PCOD9292512
_publ_section_title
;
Structure prediction by ZEFSAII (Michael W. Deem and Ramdas Pophale) SiO2 
 PCOD9292512
Probable space group: C 2/C
;
_chemical_formula_sum "Si O2"
_cell_formula_units_Z 48
_cell_length_a 30.748475
_cell_length_b 5.105575
_cell_length_c 17.035904
_cell_angle_alpha 90.000000
_cell_angle_beta 126.858380
_cell_angle_gamma 90.000000
_cell_volume 2139.877320
_symmetry_space_group_name_H-M "C 2/C"
_symmetry_group_IT_number 15
_symmetry_cell_setting 'monoclinic'
loop_
_space_group_symop_operation_xyz
x,y,z
-x,y,1/2-z
-x,-y,-z
x,-y,1/2+z
1/2+x,1/2+y,z
1/2-x,1/2+y,1/2-z
1/2-x,1/2-y,-z
1/2+x,1/2-y,1/2+z
loop_
_atom_site_type_symbol
_atom_site_label
_atom_site_fract_x
_atom_site_fract_y
_atom_site_fract_z
Si Si1 0.081999 0.130078 0.027305
Si Si2 0.814680 0.226468 0.081121
Si Si3 0.832732 0.732186 0.009827
Si Si4 0.530762 0.794184 0.589872
Si Si5 0.736494 0.308740 0.284852
Si Si6 0.634281 0.990730 0.217839
O O1 0.124289 0.131973 0.002140
O O2 0.111409 0.341263 0.116474
O O3 0.064078 0.900327 0.068223
O O4 0.022086 0.180555 0.925304
O O5 0.833642 0.308755 0.187576
O O6 0.750000 0.250000 0.000000
O O7 0.841624 0.437013 0.050028
O O8 0.828866 0.928309 0.078266
O O9 0.775514 0.724127 0.901586
O O10 0.500000 0.000000 0.500000
O O11 0.577759 0.911115 0.694461
O O12 0.742192 0.598278 0.256305
O O13 0.675725 0.217480 0.237436
#
# Coordination Sequence:
#
# PCOD9292512 Si02
#       6
#     8   8   8   8   8   8
#     4  10  22  43  74  98 131 173 238 291 338 402
#     4  12  28  44  64  99 146 190 218 274 351 423
#     4  12  26  44  68 100 142 179 228 282 345 407
#     4   9  21  41  72 100 125 171 231 289 342 392
#     4  12  24  38  67 104 131 170 232 290 332 401
#     4  11  24  39  69  93 137 178 229 272 349 407
#
# _framework density 22.431193
#
# number of rings (size 3 to 8) (size 9 to 14) (size 15 to 20)
#    0.000    1.000    3.333    2.500    7.000    0.000 
#    0.000    0.833    0.000    0.000    0.000    0.000 
#    0.000    0.000    0.000    0.000    0.000    0.000 
#
# Total GULP energy -134019.666908 kJ/mol
# GULP energy per Si atom -5584.152788 kJ/mol
# Density = 2.238014 g / cm^3
# Si number density = 22.431193 Si / 1000 Ang^3
#
#
#
# Elastic Constant Matrix: (Units=GPa)
#
#
# Indices 1 2 3 4 5 6 
#
# 1 110.4578 14.5532 44.3661 0.0001 24.7166 0.0001
# 2 14.5532 58.4279 2.5617 0.0007 8.1296 -0.0005
# 3 44.3661 2.5617 84.9992 -0.0001 26.3987 0.0000
# 4 0.0001 0.0007 -0.0001 36.3766 0.0002 3.1341
# 5 24.7166 8.1296 26.3987 0.0002 28.2533 -0.0001
# 6 0.0001 -0.0005 0.0000 3.1341 -0.0001 39.0819
#
#
#
# Elastic Compliance Matrix: (Units=1/GPa)
#
#
# Indices 1 2 3 4 5 6 
#
# 1 0.012530 -0.002074 -0.004591 0.000000 -0.006075 0.000000
# 2 -0.002074 0.018307 0.002259 0.000000 -0.005564 0.000000
# 3 -0.004591 0.002259 0.018382 0.000000 -0.013809 0.000000
# 4 0.000000 0.000000 0.000000 0.027681 0.000000 -0.002220
# 5 -0.006075 -0.005564 -0.013809 0.000000 0.055212 0.000000
# 6 0.000000 0.000000 0.000000 -0.002220 0.000000 0.025765
#
#
# Mechanical properties :
#
#
# Convention : Reuss Voigt Hill
#
# Bulk Modulus (GPa) = 24.74887 41.87189 33.31038
# Shear Modulus (GPa) = 27.75339 33.56929 30.66134
#
# Velocity S-wave (km/s) = 3.52130 3.87272 3.70118
# Velocity P-wave (km/s) = 5.25261 6.22130 5.75736
#
# Compressibility (1/GPa) = 0.04040588
#
# Stress axis : x y z
#
# Youngs Moduli (GPa) = 79.80944 54.62427 54.40212
#
# Poissons Ratio (x) = 0.11331 0.24975
# Poissons Ratio (y) = 0.16555 -0.12289
# Poissons Ratio (z) = 0.36639 -0.12339
#
# Static dielectric constant tensor:
#      x y z
#    x 1.883330 0.000000 0.003950 
#    y 0.000000 1.944350 0.000000 
#    z 0.003950 0.000000 1.790300 
# 
# From -- ./inp_files/180225.got.cif
#   From: 2010.05.17/outbox.cif.g08.bks.cpg/sg15_91_cif.got.tgz:180225.got - 2010.06.03 18:47:42.
