data_PCOD9292392
_publ_section_title
;
Structure prediction by ZEFSAII (Michael W. Deem and Ramdas Pophale) SiO2 
 PCOD9292392
Probable space group: C 2/C
;
_chemical_formula_sum "Si O2"
_cell_formula_units_Z 28
_cell_length_a 14.968062
_cell_length_b 16.265232
_cell_length_c 7.978493
_cell_angle_alpha 90.000000
_cell_angle_beta 143.632059
_cell_angle_gamma 90.000000
_cell_volume 1151.803182
_symmetry_space_group_name_H-M "C 2/C"
_symmetry_group_IT_number 15
_symmetry_cell_setting 'monoclinic'
loop_
_space_group_symop_operation_xyz
x,y,z
-x,y,1/2-z
-x,-y,-z
x,-y,1/2+z
1/2+x,1/2+y,z
1/2-x,1/2+y,1/2-z
1/2-x,1/2-y,-z
1/2+x,1/2-y,1/2+z
loop_
_atom_site_type_symbol
_atom_site_label
_atom_site_fract_x
_atom_site_fract_y
_atom_site_fract_z
Si Si1 0.661167 0.903957 0.932279
Si Si2 0.620853 0.681919 0.280745
Si Si3 0.672147 0.482210 0.019458
Si Si4 0.000000 0.757498 0.250000
O O1 0.500000 0.938552 0.750000
O O2 0.632017 0.807158 0.897002
O O3 0.787837 0.933947 0.251609
O O4 0.713559 0.943771 0.839595
O O5 0.500000 0.691652 0.250000
O O6 0.750000 0.750000 0.500000
O O7 0.687381 0.590444 0.404097
O O8 0.547840 0.694443 0.987975
O O9 0.500000 0.509621 0.750000
#
# Coordination Sequence:
#
# PCOD9292392 Si02
#       4
#     8   8   8   4
#     4  10  22  43  71 100 131 184 236 277 343 422
#     4  11  24  46  70 101 144 182 232 290 348 414
#     4  11  23  43  66 105 142 171 229 297 350 403
#     4  10  24  46  76 100 136 188 244 274 346 422
#
# _framework density 24.309708000000001
#
# number of rings (size 3 to 8) (size 9 to 14) (size 15 to 20)
#    0.857    0.571    2.857    1.714    0.000    4.571 
#   12.857    0.000    0.000    0.000    0.000    0.000 
#    0.000    0.000    0.000    0.000    0.000    0.000 
#
# Total GULP energy -78344.831987 kJ/mol
# GULP energy per Si atom -5596.059428 kJ/mol
# Density = 2.425438 g / cm^3
# Si number density = 24.309708 Si / 1000 Ang^3
#
#
#
# Elastic Constant Matrix: (Units=GPa)
#
#
# Indices 1 2 3 4 5 6 
#
# 1 94.7390 57.7499 23.7137 0.0000 6.1289 0.0000
# 2 57.7499 103.7291 11.6718 0.0000 -5.4757 0.0000
# 3 23.7137 11.6718 90.0182 0.0000 -17.2101 0.0000
# 4 0.0000 0.0000 0.0000 6.2702 0.0000 7.5926
# 5 6.1289 -5.4757 -17.2101 0.0000 58.5960 0.0000
# 6 0.0000 0.0000 0.0000 7.5926 0.0000 52.2584
#
#
#
# Elastic Compliance Matrix: (Units=1/GPa)
#
#
# Indices 1 2 3 4 5 6 
#
# 1 0.017711 -0.009600 -0.004181 0.000000 -0.003978 0.000000
# 2 -0.009600 0.015005 0.001105 0.000000 0.002731 0.000000
# 3 -0.004181 0.001105 0.012894 0.000000 0.004328 0.000000
# 4 0.000000 0.000000 0.000000 0.193534 0.000000 -0.028119
# 5 -0.003978 0.002731 0.004328 0.000000 0.019008 0.000000
# 6 0.000000 0.000000 0.000000 -0.028119 0.000000 0.023221
#
#
# Mechanical properties :
#
#
# Convention : Reuss Voigt Hill
#
# Bulk Modulus (GPa) = 49.36124 52.75079 51.05602
# Shear Modulus (GPa) = 15.95004 36.44832 26.19918
#
# Velocity S-wave (km/s) = 2.56426 3.87632 3.28643
# Velocity P-wave (km/s) = 5.39597 6.46383 5.95389
#
# Compressibility (1/GPa) = 0.02025881
#
# Stress axis : x y z
#
# Youngs Moduli (GPa) = 56.46191 66.64494 77.55265
#
# Poissons Ratio (x) = 0.63978 0.32428
# Poissons Ratio (y) = 0.54203 -0.08573
# Poissons Ratio (z) = 0.23609 -0.07368
#
# Static dielectric constant tensor:
#      x y z
#    x 2.015670 0.000000 -0.071380 
#    y 0.000000 1.928670 0.000000 
#    z -0.071380 0.000000 1.963080 
# 
# From -- ./inp_files/41140.got.cif
#   From: 2010.05.17/outbox.cif.g08.bks.cpg/sg15_21_cif.got.tgz:41140.got - 2010.06.03 18:47:42.
