data_PCOD9292636
_publ_section_title
;
Structure prediction by ZEFSAII (Michael W. Deem and Ramdas Pophale) SiO2 
 PCOD9292636
Probable space group: C 2/C
;
_chemical_formula_sum "Si O2"
_cell_formula_units_Z 44
_cell_length_a 22.112658
_cell_length_b 9.478008
_cell_length_c 20.337145
_cell_angle_alpha 90.000000
_cell_angle_beta 23.681487
_cell_angle_gamma 90.000000
_cell_volume 1711.976597
_symmetry_space_group_name_H-M "C 2/C"
_symmetry_group_IT_number 15
_symmetry_cell_setting 'monoclinic'
loop_
_space_group_symop_operation_xyz
x,y,z
-x,y,1/2-z
-x,-y,-z
x,-y,1/2+z
1/2+x,1/2+y,z
1/2-x,1/2+y,1/2-z
1/2-x,1/2-y,-z
1/2+x,1/2-y,1/2+z
loop_
_atom_site_type_symbol
_atom_site_label
_atom_site_fract_x
_atom_site_fract_y
_atom_site_fract_z
Si Si1 0.159918 0.351919 0.824757
Si Si2 0.590664 0.676820 0.023031
Si Si3 0.720789 0.442701 0.969712
Si Si4 0.500000 0.778416 0.750000
Si Si5 0.343734 0.112688 0.582726
Si Si6 0.721719 0.416742 0.603538
O O1 0.282618 0.263458 0.663990
O O2 0.212683 0.490780 0.810623
O O3 0.097870 0.245271 0.943632
O O4 0.021626 0.390000 0.915474
O O5 0.695705 0.539633 0.930718
O O6 0.425294 0.633504 0.210977
O O7 0.650315 0.803045 0.009594
O O8 0.592394 0.324898 0.108947
O O9 0.693350 0.554143 0.056290
O O10 0.880517 0.371796 0.828081
O O11 0.279895 0.062604 0.577088
#
# Coordination Sequence:
#
# PCOD9292636 Si02
#       6
#     8   8   8   4   8   8
#     4  10  22  44  65  96 132 176 228 281 340 401
#     4  11  23  42  69  95 131 174 231 282 333 408
#     4  11  23  45  65 100 136 176 222 276 339 417
#     4  10  24  44  64  94 146 172 224 268 344 416
#     4  10  23  43  65  98 135 173 229 282 341 407
#     4  11  24  41  68  98 131 176 225 285 343 404
#
# _framework density 25.701287000000001
#
# number of rings (size 3 to 8) (size 9 to 14) (size 15 to 20)
#    0.000    1.455    1.818    2.727    2.545    4.364 
#    6.545    0.000    0.000    0.000    0.000    0.000 
#    0.000    0.000    0.000    0.000    0.000    0.000 
#
# Total GULP energy -123445.498049 kJ/mol
# GULP energy per Si atom -5611.159002 kJ/mol
# Density = 2.564279 g / cm^3
# Si number density = 25.701287 Si / 1000 Ang^3
#
#
#
# Elastic Constant Matrix: (Units=GPa)
#
#
# Indices 1 2 3 4 5 6 
#
# 1 82.8276 14.0236 13.6388 0.0000 8.2780 0.0000
# 2 14.0236 100.5195 15.8798 0.0000 0.1006 0.0001
# 3 13.6388 15.8798 61.5158 0.0001 -15.9206 0.0001
# 4 0.0000 0.0000 0.0001 41.2049 0.0000 -13.4720
# 5 8.2780 0.1006 -15.9206 0.0000 35.4544 0.0000
# 6 0.0000 0.0001 0.0001 -13.4720 0.0000 49.4010
#
#
#
# Elastic Compliance Matrix: (Units=1/GPa)
#
#
# Indices 1 2 3 4 5 6 
#
# 1 0.013418 -0.001248 -0.003918 0.000000 -0.004889 0.000000
# 2 -0.001248 0.010549 -0.002691 0.000000 -0.000947 0.000000
# 3 -0.003918 -0.002691 0.020433 0.000000 0.010098 0.000000
# 4 0.000000 0.000000 0.000000 0.026645 0.000000 0.007266
# 5 -0.004889 -0.000947 0.010098 0.000000 0.033884 0.000000
# 6 0.000000 0.000000 0.000000 0.007266 0.000000 0.022224
#
#
# Mechanical properties :
#
#
# Convention : Reuss Voigt Hill
#
# Bulk Modulus (GPa) = 34.86208 36.88302 35.87255
# Shear Modulus (GPa) = 32.80219 38.63342 35.71780
#
# Velocity S-wave (km/s) = 3.57639 3.88128 3.73195
# Velocity P-wave (km/s) = 5.53605 5.87091 5.70594
#
# Compressibility (1/GPa) = 0.02868447
#
# Stress axis : x y z
#
# Youngs Moduli (GPa) = 74.52476 94.79949 48.94101
#
# Poissons Ratio (x) = 0.11832 0.19175
# Poissons Ratio (y) = 0.09302 0.13172
# Poissons Ratio (z) = 0.29199 0.25514
#
# Static dielectric constant tensor:
#      x y z
#    x 2.015790 0.000000 0.066680 
#    y 0.000000 1.993860 0.000000 
#    z 0.066680 0.000000 1.990350 
# 
# From -- ./inp_files/303157.got.cif
#   From: 2010.05.17/outbox.cif.g08.bks.cpg/sg15_152_cif.got.tgz:303157.got - 2010.06.03 18:47:42.
