data_PCOD9292842
_publ_section_title
;
Structure prediction by ZEFSAII (Michael W. Deem and Ramdas Pophale) SiO2 
 PCOD9292842
Probable space group: C 2/C
;
_chemical_formula_sum "Si O2"
_cell_formula_units_Z 48
_cell_length_a 21.643926
_cell_length_b 11.464682
_cell_length_c 12.737308
_cell_angle_alpha 90.000000
_cell_angle_beta 38.589106
_cell_angle_gamma 90.000000
_cell_volume 1971.392167
_symmetry_space_group_name_H-M "C 2/C"
_symmetry_group_IT_number 15
_symmetry_cell_setting 'monoclinic'
loop_
_space_group_symop_operation_xyz
x,y,z
-x,y,1/2-z
-x,-y,-z
x,-y,1/2+z
1/2+x,1/2+y,z
1/2-x,1/2+y,1/2-z
1/2-x,1/2-y,-z
1/2+x,1/2-y,1/2+z
loop_
_atom_site_type_symbol
_atom_site_label
_atom_site_fract_x
_atom_site_fract_y
_atom_site_fract_z
Si Si1 0.192370 0.144147 0.023449
Si Si2 0.941814 0.767627 0.225109
Si Si3 0.757420 0.432714 0.810102
Si Si4 0.021845 0.626588 0.512525
Si Si5 0.750000 0.250000 0.000000
Si Si6 0.500000 0.760299 0.250000
Si Si7 0.614073 0.509764 0.814216
O O1 0.137701 0.073844 0.187536
O O2 0.096260 0.187456 0.085889
O O3 0.250000 0.250000 0.000000
O O4 0.261767 0.054185 0.869293
O O5 0.004815 0.715785 0.046448
O O6 0.856905 0.676094 0.368866
O O7 0.000000 0.809311 0.250000
O O8 0.869029 0.860737 0.260186
O O9 0.859380 0.382489 0.628931
O O10 0.682753 0.469286 0.817083
O O11 0.718827 0.330885 0.937574
O O12 0.972298 0.663395 0.686286
O O13 0.000000 0.500000 0.500000
O O14 0.500000 0.500000 0.000000
#
# Coordination Sequence:
#
# PCOD9292842 Si02
#       7
#     8   8   8   8   4   4   8
#     4  12  25  45  71 107 143 191 241 305 371 438
#     4  11  24  43  71 109 144 189 248 305 372 449
#     4  11  24  45  72 104 144 190 248 302 370 447
#     4  11  26  46  74 106 145 200 242 306 378 452
#     4  10  22  44  68  96 144 184 242 298 364 436
#     4  12  26  48  72 106 154 184 254 308 376 452
#     4  12  25  41  72 106 142 190 239 308 375 437
#
# _framework density 24.348275999999998
#
# number of rings (size 3 to 8) (size 9 to 14) (size 15 to 20)
#    0.000    0.667    1.667    6.000    2.333    2.667 
#    0.000    0.000    0.000    0.000    0.000    0.000 
#    0.000    0.000    0.000    0.000    0.000    0.000 
#
# Total GULP energy -133730.407957 kJ/mol
# GULP energy per Si atom -5572.100332 kJ/mol
# Density = 2.429286 g / cm^3
# Si number density = 24.348276 Si / 1000 Ang^3
#
#
#
# Elastic Constant Matrix: (Units=GPa)
#
#
# Indices 1 2 3 4 5 6 
#
# 1 142.7061 35.7781 20.8091 0.0000 16.1159 0.0000
# 2 35.7781 98.3164 6.6376 0.0000 22.3482 0.0000
# 3 20.8091 6.6376 72.4131 0.0000 11.4649 0.0000
# 4 0.0000 0.0000 0.0000 31.3986 0.0000 4.0928
# 5 16.1159 22.3482 11.4649 0.0000 46.5803 0.0000
# 6 0.0000 0.0000 0.0000 4.0928 0.0000 45.9792
#
#
#
# Elastic Compliance Matrix: (Units=1/GPa)
#
#
# Indices 1 2 3 4 5 6 
#
# 1 0.008048 -0.002552 -0.001906 0.000000 -0.001091 0.000000
# 2 -0.002552 0.012228 0.000418 0.000000 -0.005087 0.000000
# 3 -0.001906 0.000418 0.014824 0.000000 -0.003190 0.000000
# 4 0.000000 0.000000 0.000000 0.032222 0.000000 -0.002868
# 5 -0.001091 -0.005087 -0.003190 0.000000 0.025071 0.000000
# 6 0.000000 0.000000 0.000000 -0.002868 0.000000 0.022004
#
#
# Mechanical properties :
#
#
# Convention : Reuss Voigt Hill
#
# Bulk Modulus (GPa) = 37.01014 48.87614 42.94314
# Shear Modulus (GPa) = 38.02683 41.47234 39.74959
#
# Velocity S-wave (km/s) = 3.95623 4.13158 4.04486
# Velocity P-wave (km/s) = 6.00852 6.54807 6.28409
#
# Compressibility (1/GPa) = 0.02701962
#
# Stress axis : x y z
#
# Youngs Moduli (GPa) = 124.24782 81.77935 67.45754
#
# Poissons Ratio (x) = 0.20872 0.12859
# Poissons Ratio (y) = 0.31711 -0.02819
# Poissons Ratio (z) = 0.23684 -0.03418
#
# Static dielectric constant tensor:
#      x y z
#    x 1.753470 0.000000 0.011650 
#    y 0.000000 1.834640 0.000000 
#    z 0.011650 0.000000 1.779870 
# 
# From -- ./inp_files/111473.got.cif
#   From: 2010.05.17/outbox.cif.g08.bks.cpg/sg15_56_cif.got.tgz:111473.got - 2010.06.03 18:47:42.
