data_PCOD9292519
_publ_section_title
;
Structure prediction by ZEFSAII (Michael W. Deem and Ramdas Pophale) SiO2 
 PCOD9292519
Probable space group: C 2/C
;
_chemical_formula_sum "Si O2"
_cell_formula_units_Z 32
_cell_length_a 10.526970
_cell_length_b 28.697116
_cell_length_c 8.588261
_cell_angle_alpha 90.000000
_cell_angle_beta 27.682456
_cell_angle_gamma 90.000000
_cell_volume 1205.310363
_symmetry_space_group_name_H-M "C 2/C"
_symmetry_group_IT_number 15
_symmetry_cell_setting 'monoclinic'
loop_
_space_group_symop_operation_xyz
x,y,z
-x,y,1/2-z
-x,-y,-z
x,-y,1/2+z
1/2+x,1/2+y,z
1/2-x,1/2+y,1/2-z
1/2-x,1/2-y,-z
1/2+x,1/2-y,1/2+z
loop_
_atom_site_type_symbol
_atom_site_label
_atom_site_fract_x
_atom_site_fract_y
_atom_site_fract_z
Si Si1 0.000000 0.325676 0.250000
Si Si2 0.263483 0.719012 0.168609
Si Si3 0.500000 0.390705 0.750000
Si Si4 0.000000 0.487571 0.250000
Si Si5 0.000000 0.640683 0.250000
Si Si6 0.227487 0.938525 0.249730
O O1 0.843652 0.294827 0.545151
O O2 0.762967 0.358484 0.438954
O O3 0.071786 0.762995 0.332953
O O4 0.191566 0.674166 0.144145
O O5 0.461419 0.420396 0.632416
O O6 0.889330 0.458403 0.224374
O O7 0.763138 0.521259 0.581185
O O8 0.839093 0.606425 0.539217
#
# Coordination Sequence:
#
# PCOD9292519 Si02
#       6
#     4   8   4   4   4   8
#     4  12  25  47  75 108 146 190 254 297 370 428
#     4  12  26  48  73 107 148 193 246 307 363 431
#     4  12  24  45  76 111 141 197 245 300 354 451
#     4   9  21  46  74 111 148 188 245 306 366 434
#     4  11  24  44  71 110 145 201 238 303 366 439
#     4  10  22  43  75 107 149 192 243 301 369 437
#
# _framework density 26.549178999999999
#
# number of rings (size 3 to 8) (size 9 to 14) (size 15 to 20)
#    0.000    1.000    2.500    3.750    0.000    1.000 
#    0.000    0.000    0.000    0.000    0.000    0.000 
#    0.000    0.000    0.000    0.000    0.000    0.000 
#
# Total GULP energy -89666.728667 kJ/mol
# GULP energy per Si atom -5604.170542 kJ/mol
# Density = 2.648875 g / cm^3
# Si number density = 26.549179 Si / 1000 Ang^3
#
#
#
# Elastic Constant Matrix: (Units=GPa)
#
#
# Indices 1 2 3 4 5 6 
#
# 1 83.5562 38.3023 30.9541 0.0000 28.8658 0.0000
# 2 38.3023 145.4037 34.4213 0.0000 25.8181 0.0000
# 3 30.9541 34.4213 132.3222 0.0000 29.7471 0.0000
# 4 0.0000 0.0000 0.0000 55.9271 0.0000 31.2707
# 5 28.8658 25.8181 29.7471 0.0000 61.5179 0.0000
# 6 0.0000 0.0000 0.0000 31.2707 0.0000 36.2287
#
#
#
# Elastic Compliance Matrix: (Units=1/GPa)
#
#
# Indices 1 2 3 4 5 6 
#
# 1 0.015748 -0.002779 -0.001753 0.000000 -0.005376 0.000000
# 2 -0.002779 0.008154 -0.001116 0.000000 -0.001578 0.000000
# 3 -0.001753 -0.001116 0.008939 0.000000 -0.003032 0.000000
# 4 0.000000 0.000000 0.000000 0.034559 0.000000 -0.029830
# 5 -0.005376 -0.001578 -0.003032 0.000000 0.020906 0.000000
# 6 0.000000 0.000000 0.000000 -0.029830 0.000000 0.053350
#
#
# Mechanical properties :
#
#
# Convention : Reuss Voigt Hill
#
# Bulk Modulus (GPa) = 46.41250 63.18194 54.79722
# Shear Modulus (GPa) = 31.22386 47.90838 39.56612
#
# Velocity S-wave (km/s) = 3.43312 4.25257 3.86462
# Velocity P-wave (km/s) = 5.76496 6.92547 6.37169
#
# Compressibility (1/GPa) = 0.02154592
#
# Stress axis : x y z
#
# Youngs Moduli (GPa) = 63.49893 122.64005 111.86664
#
# Poissons Ratio (x) = 0.34082 0.19605
# Poissons Ratio (y) = 0.17646 0.12486
# Poissons Ratio (z) = 0.11129 0.13689
#
# Static dielectric constant tensor:
#      x y z
#    x 2.118160 0.000000 0.035150 
#    y 0.000000 2.118610 0.000000 
#    z 0.035150 0.000000 2.090800 
# 
# From -- ./inp_files/5385.got.cif
#   From: 2010.05.17/outbox.cif.g08.bks.cpg/sg15_3_cif.got.tgz:5385.got - 2010.06.03 18:47:42.
