data_PCOD9292486
_publ_section_title
;
Structure prediction by ZEFSAII (Michael W. Deem and Ramdas Pophale) SiO2 
 PCOD9292486
Probable space group: C 2/C
;
_chemical_formula_sum "Si O2"
_cell_formula_units_Z 40
_cell_length_a 7.553546
_cell_length_b 22.762141
_cell_length_c 9.045421
_cell_angle_alpha 90.000000
_cell_angle_beta 98.337009
_cell_angle_gamma 90.000000
_cell_volume 1538.788292
_symmetry_space_group_name_H-M "C 2/C"
_symmetry_group_IT_number 15
_symmetry_cell_setting 'monoclinic'
loop_
_space_group_symop_operation_xyz
x,y,z
-x,y,1/2-z
-x,-y,-z
x,-y,1/2+z
1/2+x,1/2+y,z
1/2-x,1/2+y,1/2-z
1/2-x,1/2-y,-z
1/2+x,1/2-y,1/2+z
loop_
_atom_site_type_symbol
_atom_site_label
_atom_site_fract_x
_atom_site_fract_y
_atom_site_fract_z
Si Si1 0.416038 0.232519 0.914296
Si Si2 0.149581 0.190147 0.641777
Si Si3 0.335008 0.069544 0.630000
Si Si4 0.557673 0.111031 0.422558
Si Si5 0.617752 0.460315 0.624859
O O1 0.321893 0.221867 0.741939
O O2 0.250000 0.250000 0.000000
O O3 0.565537 0.279252 0.987326
O O4 0.470357 0.169117 0.984931
O O5 0.193977 0.122292 0.614988
O O6 0.000000 0.192146 0.750000
O O7 0.500000 0.087783 0.750000
O O8 0.420675 0.064509 0.477871
O O9 0.260312 0.009953 0.689000
O O10 0.500000 0.123922 0.250000
O O11 0.762480 0.088871 0.441367
O O12 0.500000 0.439742 0.750000
O O13 0.500000 0.500000 0.500000
#
# Coordination Sequence:
#
# PCOD9292486 Si02
#       5
#     8   8   8   8   8
#     4  10  22  43  73 107 150 191 246 305 367 438
#     4  10  22  43  74 109 148 197 248 304 367 446
#     4  12  24  45  74 106 146 196 245 305 373 446
#     4  12  25  46  68 105 150 192 238 306 377 429
#     4  12  27  46  74 107 139 193 251 309 369 442
#
# _framework density 25.994479999999999
#
# number of rings (size 3 to 8) (size 9 to 14) (size 15 to 20)
#    0.000    0.800    2.000    6.000    5.600    0.800 
#    0.000    0.000    0.000    0.000    0.000    0.000 
#    0.000    0.000    0.000    0.000    0.000    0.000 
#
# Total GULP energy -111998.304235 kJ/mol
# GULP energy per Si atom -5599.915212 kJ/mol
# Density = 2.593532 g / cm^3
# Si number density = 25.994480 Si / 1000 Ang^3
#
#
#
# Elastic Constant Matrix: (Units=GPa)
#
#
# Indices 1 2 3 4 5 6 
#
# 1 91.1482 7.0777 4.9814 0.0000 6.9571 0.0000
# 2 7.0777 97.4140 16.0482 0.0000 4.5721 0.0000
# 3 4.9814 16.0482 126.7919 0.0000 -2.6107 0.0000
# 4 0.0000 0.0000 0.0000 25.2416 0.0000 -1.3197
# 5 6.9571 4.5721 -2.6107 0.0000 45.9665 0.0000
# 6 0.0000 0.0000 0.0000 -1.3197 0.0000 61.2867
#
#
#
# Elastic Compliance Matrix: (Units=1/GPa)
#
#
# Indices 1 2 3 4 5 6 
#
# 1 0.011170 -0.000670 -0.000388 0.000000 -0.001646 0.000000
# 2 -0.000670 0.010582 -0.001334 0.000000 -0.001027 0.000000
# 3 -0.000388 -0.001334 0.008084 0.000000 0.000651 0.000000
# 4 0.000000 0.000000 0.000000 0.039662 0.000000 0.000854
# 5 -0.001646 -0.001027 0.000651 0.000000 0.022143 0.000000
# 6 0.000000 0.000000 0.000000 0.000854 0.000000 0.016335
#
#
# Mechanical properties :
#
#
# Convention : Reuss Voigt Hill
#
# Bulk Modulus (GPa) = 39.91754 41.28541 40.60147
# Shear Modulus (GPa) = 41.28399 45.64874 43.46636
#
# Velocity S-wave (km/s) = 3.98952 4.19512 4.09361
# Velocity P-wave (km/s) = 6.05072 6.27553 6.16415
#
# Compressibility (1/GPa) = 0.02505164
#
# Stress axis : x y z
#
# Youngs Moduli (GPa) = 89.52530 94.49860 123.69429
#
# Poissons Ratio (x) = 0.06335 0.04798
# Poissons Ratio (y) = 0.06002 0.16503
# Poissons Ratio (z) = 0.03473 0.12608
#
# Static dielectric constant tensor:
#      x y z
#    x 2.323100 0.000000 -0.194140 
#    y 0.000000 2.065340 0.000000 
#    z -0.194140 0.000000 2.499370 
# 
# From -- ./inp_files/23737.got.cif
#   From: 2010.05.17/outbox.cif.g08.bks.cpg/sg15_12_cif.got.tgz:23737.got - 2010.06.03 18:47:42.
