data_PCOD9292073
_publ_section_title
;
Structure prediction by ZEFSAII (Michael W. Deem and Ramdas Pophale) SiO2 
 PCOD9292073
Probable space group: C 2/C
;
_chemical_formula_sum "Si O2"
_cell_formula_units_Z 52
_cell_length_a 8.238352
_cell_length_b 25.342133
_cell_length_c 14.473498
_cell_angle_alpha 90.000000
_cell_angle_beta 56.236930
_cell_angle_gamma 90.000000
_cell_volume 2512.101513
_symmetry_space_group_name_H-M "C 2/C"
_symmetry_group_IT_number 15
_symmetry_cell_setting 'monoclinic'
loop_
_space_group_symop_operation_xyz
x,y,z
-x,y,1/2-z
-x,-y,-z
x,-y,1/2+z
1/2+x,1/2+y,z
1/2-x,1/2+y,1/2-z
1/2-x,1/2-y,-z
1/2+x,1/2-y,1/2+z
loop_
_atom_site_type_symbol
_atom_site_label
_atom_site_fract_x
_atom_site_fract_y
_atom_site_fract_z
Si Si1 0.500000 0.713927 0.250000
Si Si2 0.000000 0.765778 0.250000
Si Si3 0.282671 0.509797 0.462851
Si Si4 0.912407 0.558813 0.140855
Si Si5 0.435602 0.196979 0.626083
Si Si6 0.566901 0.821760 0.876940
Si Si7 0.000000 0.611875 0.750000
Si Si8 0.307492 0.474362 0.167438
O O1 0.490557 0.750775 0.344280
O O2 0.698725 0.682440 0.197067
O O3 0.197754 0.799092 0.204863
O O4 0.979527 0.724766 0.341495
O O5 0.230033 0.553090 0.403038
O O6 0.471535 0.478050 0.368561
O O7 0.326264 0.531851 0.550642
O O8 0.102155 0.471903 0.543335
O O9 0.972540 0.618466 0.142528
O O10 0.806777 0.526036 0.256840
O O11 0.492663 0.189124 0.503024
O O12 0.535916 0.150476 0.653200
O O13 0.829241 0.574473 0.765628
#
# Coordination Sequence:
#
# PCOD9292073 Si02
#       8
#     4   4   8   8   8   8   4   8
#     4   9  22  42  64  92 122 160 208 263 308 372
#     4  10  24  43  64  98 124 159 204 270 314 368
#     4  10  23  39  61  85 131 166 204 253 311 350
#     4  11  23  40  62  94 129 163 210 259 301 381
#     4  10  22  43  66  89 127 158 213 261 313 371
#     4  11  23  39  66  93 124 166 203 253 324 371
#     4  11  22  41  64  90 120 175 210 257 308 376
#     4  11  22  41  59  89 130 161 211 260 298 369
#
# _framework density 20.699798999999999
#
# number of rings (size 3 to 8) (size 9 to 14) (size 15 to 20)
#    0.000    1.538    1.538    2.308    6.462    1.231 
#    0.000    1.538    0.000    0.000    0.000    0.000 
#    0.000    0.000    0.000    0.000    0.000    0.000 
#
# Total GULP energy -145000.600937 kJ/mol
# GULP energy per Si atom -5576.946190 kJ/mol
# Density = 2.065269 g / cm^3
# Si number density = 20.699799 Si / 1000 Ang^3
#
#
#
# Elastic Constant Matrix: (Units=GPa)
#
#
# Indices 1 2 3 4 5 6 
#
# 1 29.1773 -41.1206 -20.2370 0.0000 7.0721 0.0000
# 2 -41.1206 -12.5542 -31.4055 0.0000 15.8558 0.0000
# 3 -20.2370 -31.4055 51.9650 0.0000 33.6973 0.0000
# 4 0.0000 0.0000 0.0000 -28.1054 0.0000 -24.5432
# 5 7.0721 15.8558 33.6973 0.0000 41.4565 0.0000
# 6 0.0000 0.0000 0.0000 -24.5432 0.0000 -26.9631
#
#
#
# Elastic Compliance Matrix: (Units=1/GPa)
#
#
# Indices 1 2 3 4 5 6 
#
# 1 0.011908 -0.010965 -0.007173 0.000000 0.007993 0.000000
# 2 -0.010965 -0.000060 -0.011702 0.000000 0.011405 0.000000
# 3 -0.007173 -0.011702 0.012016 0.000000 -0.004067 0.000000
# 4 0.000000 0.000000 0.000000 -0.173460 0.000000 0.157892
# 5 0.007993 0.011405 -0.004067 0.000000 0.021702 0.000000
# 6 0.000000 0.000000 0.000000 0.157892 0.000000 -0.180809
#
#
# Mechanical properties :
#
#
# Convention : Reuss Voigt Hill
#
# Bulk Modulus (GPa) = -27.92021 -12.99313 -20.45667
# Shear Modulus (GPa) = -19.15987 8.03435 -5.56276
#
# Velocity S-wave (km/s) = -3.04568 1.97226 -1.64109
# Velocity P-wave (km/s) = 5.08779 1.05080 3.67354
#
# Compressibility (1/GPa) = -0.03581634
#
# Stress axis : x y z
#
# Youngs Moduli (GPa) = 83.98026 -16745.36051 83.22439
#
# Poissons Ratio (x) = -183.61543 0.59693
# Poissons Ratio (y) = 0.92086 0.97391
# Poissons Ratio (z) = 0.60235 -195.95829
#
# Static dielectric constant tensor:
#      x y z
#    x 1.745450 0.000000 -0.038580 
#    y 0.000000 1.732350 0.000000 
#    z -0.038580 0.000000 1.726140 
# 
# From -- ./inp_files/80719.got.cif
#   From: 2010.05.17/outbox.cif.g08.bks.cpg/sg15_41_cif.got.tgz:80719.got - 2010.06.03 18:47:42.
