data_PCOD9292110
_publ_section_title
;
Structure prediction by ZEFSAII (Michael W. Deem and Ramdas Pophale) SiO2 
 PCOD9292110
Probable space group: C 2/C
;
_chemical_formula_sum "Si O2"
_cell_formula_units_Z 40
_cell_length_a 15.748844
_cell_length_b 10.046157
_cell_length_c 24.314064
_cell_angle_alpha 90.000000
_cell_angle_beta 30.621231
_cell_angle_gamma 90.000000
_cell_volume 1959.437049
_symmetry_space_group_name_H-M "C 2/C"
_symmetry_group_IT_number 15
_symmetry_cell_setting 'monoclinic'
loop_
_space_group_symop_operation_xyz
x,y,z
-x,y,1/2-z
-x,-y,-z
x,-y,1/2+z
1/2+x,1/2+y,z
1/2-x,1/2+y,1/2-z
1/2-x,1/2-y,-z
1/2+x,1/2-y,1/2+z
loop_
_atom_site_type_symbol
_atom_site_label
_atom_site_fract_x
_atom_site_fract_y
_atom_site_fract_z
Si Si1 0.808227 0.961686 0.110216
Si Si2 0.351090 0.245340 0.290202
Si Si3 0.806272 0.039416 0.335918
Si Si4 0.146184 0.260171 0.002682
Si Si5 0.727337 0.746890 0.244861
O O1 0.757396 0.881610 0.193446
O O2 0.720998 0.102633 0.153817
O O3 0.783505 0.857430 0.075040
O O4 0.000000 0.000000 0.000000
O O5 0.500000 0.261030 0.250000
O O6 0.258938 0.386502 0.350909
O O7 0.366630 0.236587 0.215064
O O8 0.689445 0.104313 0.447082
O O9 0.781759 0.127065 0.294286
O O10 0.000000 0.050959 0.250000
O O11 0.950922 0.246420 0.124771
O O12 0.250000 0.250000 0.000000
#
# Coordination Sequence:
#
# PCOD9292110 Si02
#       5
#     8   8   8   8   8
#     4  11  25  46  67  99 134 170 226 277 333 399
#     4  11  25  43  65  97 134 173 216 278 339 389
#     4  10  22  43  66  96 133 172 223 273 329 403
#     4  11  23  41  70  96 129 177 225 269 334 400
#     4  11  23  44  71  92 133 182 220 273 335 403
#
# _framework density 20.414026
#
# number of rings (size 3 to 8) (size 9 to 14) (size 15 to 20)
#    0.000    1.200    4.000    1.200    2.800    0.800 
#    3.600    2.000    0.000    0.000    0.000    0.000 
#    0.000    0.000    0.000    0.000    0.000    0.000 
#
# Total GULP energy -111584.488709 kJ/mol
# GULP energy per Si atom -5579.224435 kJ/mol
# Density = 2.036756 g / cm^3
# Si number density = 20.414026 Si / 1000 Ang^3
#
#
#
# Elastic Constant Matrix: (Units=GPa)
#
#
# Indices 1 2 3 4 5 6 
#
# 1 145.7440 44.3861 23.5204 -0.0001 29.4376 0.0001
# 2 44.3861 177.1762 36.4229 -0.0002 19.1311 0.0000
# 3 23.5204 36.4229 74.7688 -0.0006 22.8621 0.0003
# 4 -0.0001 -0.0002 -0.0006 6.7366 0.0002 4.8558
# 5 29.4376 19.1311 22.8621 0.0002 25.2283 -0.0001
# 6 0.0001 0.0000 0.0003 4.8558 -0.0001 24.8713
#
#
#
# Elastic Compliance Matrix: (Units=1/GPa)
#
#
# Indices 1 2 3 4 5 6 
#
# 1 0.009279 -0.001379 0.001029 0.000001 -0.010714 0.000000
# 2 -0.001379 0.006618 -0.002418 0.000000 -0.001218 0.000000
# 3 0.001029 -0.002418 0.019415 0.000003 -0.016961 -0.000001
# 4 0.000001 0.000000 0.000003 0.172755 -0.000004 -0.033728
# 5 -0.010714 -0.001218 -0.016961 -0.000004 0.068434 0.000001
# 6 0.000000 0.000000 -0.000001 -0.033728 0.000001 0.046792
#
#
# Mechanical properties :
#
#
# Convention : Reuss Voigt Hill
#
# Bulk Modulus (GPa) = 33.58348 67.37197 50.47772
# Shear Modulus (GPa) = 14.75993 30.92454 22.84223
#
# Velocity S-wave (km/s) = 2.69184 3.89635 3.34870
# Velocity P-wave (km/s) = 5.11353 7.30182 6.30336
#
# Compressibility (1/GPa) = 0.02977655
#
# Stress axis : x y z
#
# Youngs Moduli (GPa) = 107.76539 151.09875 51.50714
#
# Poissons Ratio (x) = 0.20841 -0.05300
# Poissons Ratio (y) = 0.14864 0.12452
# Poissons Ratio (z) = -0.11088 0.36528
#
# Static dielectric constant tensor:
#      x y z
#    x 1.742140 0.000000 0.003320 
#    y 0.000000 1.814070 0.000000 
#    z 0.003320 0.000000 1.699260 
# 
# From -- ./inp_files/276725.got.cif
#   From: 2010.05.17/outbox.cif.g08.bks.cpg/sg15_139_cif.got.tgz:276725.got - 2010.06.03 18:47:42.
