data_PCOD9292561
_publ_section_title
;
Structure prediction by ZEFSAII (Michael W. Deem and Ramdas Pophale) SiO2 
 PCOD9292561
Probable space group: C 2/C
;
_chemical_formula_sum "Si O2"
_cell_formula_units_Z 60
_cell_length_a 12.340820
_cell_length_b 24.846730
_cell_length_c 9.629906
_cell_angle_alpha 90.000000
_cell_angle_beta 95.328954
_cell_angle_gamma 90.000000
_cell_volume 2940.046307
_symmetry_space_group_name_H-M "C 2/C"
_symmetry_group_IT_number 15
_symmetry_cell_setting 'monoclinic'
loop_
_space_group_symop_operation_xyz
x,y,z
-x,y,1/2-z
-x,-y,-z
x,-y,1/2+z
1/2+x,1/2+y,z
1/2-x,1/2+y,1/2-z
1/2-x,1/2-y,-z
1/2+x,1/2-y,1/2+z
loop_
_atom_site_type_symbol
_atom_site_label
_atom_site_fract_x
_atom_site_fract_y
_atom_site_fract_z
Si Si1 0.280131 0.674723 0.809365
Si Si2 0.500000 0.612831 0.750000
Si Si3 0.983169 0.444241 0.916585
Si Si4 0.660199 0.142966 0.537412
Si Si5 0.727550 0.877528 0.596182
Si Si6 0.370217 0.213035 0.218541
Si Si7 0.629890 0.533668 0.258723
Si Si8 0.653380 0.441105 0.456290
O O1 0.392222 0.645282 0.777006
O O2 0.178703 0.656539 0.700986
O O3 0.305991 0.736379 0.773823
O O4 0.256817 0.657048 0.963764
O O5 0.464156 0.578737 0.611067
O O6 0.863520 0.422803 0.939112
O O7 0.000000 0.449283 0.750000
O O8 0.000000 0.500000 0.000000
O O9 0.064653 0.397911 0.983492
O O10 0.651087 0.196710 0.443926
O O11 0.769684 0.109976 0.516499
O O12 0.671374 0.838328 0.700785
O O13 0.828421 0.910288 0.672206
O O14 0.500000 0.220866 0.250000
O O15 0.500000 0.531398 0.250000
O O16 0.685667 0.483660 0.342899
O O17 0.656477 0.529364 0.101185
#
# Coordination Sequence:
#
# PCOD9292561 Si02
#       8
#     8   4   8   8   8   8   8   8
#     4  11  26  41  74  98 128 181 234 284 345 411
#     4  10  22  44  62  98 134 172 224 284 344 400
#     4  12  25  45  71 103 145 188 228 276 350 417
#     4  11  23  44  68  96 135 177 223 289 336 411
#     4  12  25  44  68 101 141 173 230 291 341 406
#     4  12  22  50  72  93 135 182 229 290 354 404
#     4  12  24  39  64  95 135 177 220 274 338 405
#     4  11  23  39  63  93 133 173 224 265 339 409
#
# _framework density 20.40784
#
# number of rings (size 3 to 8) (size 9 to 14) (size 15 to 20)
#    0.000    0.533    5.333    2.800    5.600    0.000 
#    0.000    0.000    0.000    0.000    0.000    0.000 
#    0.000    0.000    0.000    0.000    0.000    0.000 
#
# Total GULP energy -167534.396307 kJ/mol
# GULP energy per Si atom -5584.479877 kJ/mol
# Density = 2.036139 g / cm^3
# Si number density = 20.407840 Si / 1000 Ang^3
#
#
#
# Elastic Constant Matrix: (Units=GPa)
#
#
# Indices 1 2 3 4 5 6 
#
# 1 72.6334 17.3727 13.8012 0.0000 18.3450 0.0000
# 2 17.3727 91.5537 13.8343 0.0000 15.8571 0.0000
# 3 13.8012 13.8343 87.1537 0.0000 19.8250 0.0000
# 4 0.0000 0.0000 0.0000 28.6388 0.0000 2.6745
# 5 18.3450 15.8571 19.8250 0.0000 27.1610 0.0000
# 6 0.0000 0.0000 0.0000 2.6745 0.0000 21.8310
#
#
#
# Elastic Compliance Matrix: (Units=1/GPa)
#
#
# Indices 1 2 3 4 5 6 
#
# 1 0.016750 -0.001355 -0.000053 0.000000 -0.010484 0.000000
# 2 -0.001355 0.012271 -0.000374 0.000000 -0.005976 0.000000
# 3 -0.000053 -0.000374 0.013770 0.000000 -0.009797 0.000000
# 4 0.000000 0.000000 0.000000 0.035322 0.000000 -0.004327
# 5 -0.010484 -0.005976 -0.009797 0.000000 0.054538 0.000000
# 6 0.000000 0.000000 0.000000 -0.004327 0.000000 0.046337
#
#
# Mechanical properties :
#
#
# Convention : Reuss Voigt Hill
#
# Bulk Modulus (GPa) = 25.49149 37.92859 31.71004
# Shear Modulus (GPa) = 25.55896 29.28168 27.42032
#
# Velocity S-wave (km/s) = 3.54278 3.79202 3.66951
# Velocity P-wave (km/s) = 5.40862 6.14802 5.79014
#
# Compressibility (1/GPa) = 0.03922877
#
# Stress axis : x y z
#
# Youngs Moduli (GPa) = 59.70284 81.49171 72.62047
#
# Poissons Ratio (x) = 0.11039 0.00382
# Poissons Ratio (y) = 0.08087 0.02715
# Poissons Ratio (z) = 0.00314 0.03047
#
# Static dielectric constant tensor:
#      x y z
#    x 1.778030 0.000000 -0.011210 
#    y 0.000000 1.751100 0.000000 
#    z -0.011210 0.000000 1.768680 
# 
# From -- ./inp_files/34283.got.cif
#   From: 2010.05.17/outbox.cif.g08.bks.cpg/sg15_18_cif.got.tgz:34283.got - 2010.06.03 18:47:42.
