data_PCOD9292216
_publ_section_title
;
Structure prediction by ZEFSAII (Michael W. Deem and Ramdas Pophale) SiO2 
 PCOD9292216
Probable space group: C 2/C
;
_chemical_formula_sum "Si O2"
_cell_formula_units_Z 60
_cell_length_a 20.827981
_cell_length_b 6.024267
_cell_length_c 24.572430
_cell_angle_alpha 90.000000
_cell_angle_beta 120.298675
_cell_angle_gamma 90.000000
_cell_volume 2662.043612
_symmetry_space_group_name_H-M "C 2/C"
_symmetry_group_IT_number 15
_symmetry_cell_setting 'monoclinic'
loop_
_space_group_symop_operation_xyz
x,y,z
-x,y,1/2-z
-x,-y,-z
x,-y,1/2+z
1/2+x,1/2+y,z
1/2-x,1/2+y,1/2-z
1/2-x,1/2-y,-z
1/2+x,1/2-y,1/2+z
loop_
_atom_site_type_symbol
_atom_site_label
_atom_site_fract_x
_atom_site_fract_y
_atom_site_fract_z
Si Si1 0.513386 0.814364 0.359981
Si Si2 0.197140 0.299303 0.558329
Si Si3 0.500000 0.498381 0.250000
Si Si4 0.741707 0.549893 0.302055
Si Si5 0.138242 0.420785 0.234205
Si Si6 0.522629 0.256139 0.986821
Si Si7 0.150201 0.273041 0.829415
Si Si8 0.179074 0.511731 0.443430
O O1 0.503288 0.646034 0.305880
O O2 0.444974 0.980944 0.319585
O O3 0.496148 0.732387 0.413070
O O4 0.597838 0.899779 0.399144
O O5 0.225151 0.326069 0.631475
O O6 0.111719 0.232772 0.525760
O O7 0.192823 0.508718 0.513989
O O8 0.252999 0.126632 0.553460
O O9 0.425827 0.353568 0.214305
O O10 0.803455 0.531811 0.282199
O O11 0.668554 0.669056 0.246706
O O12 0.714647 0.327327 0.319642
O O13 0.141106 0.485968 0.298888
O O14 0.500000 0.500000 0.000000
O O15 0.500000 0.000000 0.000000
O O16 0.169900 0.273382 0.901364
#
# Coordination Sequence:
#
# PCOD9292216 Si02
#       8
#     8   8   4   8   8   8   8   8
#     4  11  24  45  71 101 149 181 244 303 367 444
#     4  10  23  44  71 101 143 182 241 299 366 432
#     4  12  24  40  68 108 140 194 228 306 372 438
#     4  12  24  42  66 100 135 183 235 290 366 427
#     4  12  24  43  64  99 140 179 235 298 359 436
#     4  11  27  50  78 111 144 196 249 306 373 441
#     4  12  24  40  70  99 140 184 243 293 367 441
#     4  10  22  43  68 100 138 186 230 303 362 437
#
# _framework density 22.539075
#
# number of rings (size 3 to 8) (size 9 to 14) (size 15 to 20)
#    0.000    0.800    4.000    3.200    0.000    8.000 
#    0.000    0.000    0.000    0.000    0.000    0.000 
#    0.000    0.000    0.000    0.000    0.000    0.000 
#
# Total GULP energy -167113.900686 kJ/mol
# GULP energy per Si atom -5570.463356 kJ/mol
# Density = 2.248778 g / cm^3
# Si number density = 22.539075 Si / 1000 Ang^3
#
#
#
# Elastic Constant Matrix: (Units=GPa)
#
#
# Indices 1 2 3 4 5 6 
#
# 1 127.9137 41.2672 36.0191 0.0001 10.2368 -0.0002
# 2 41.2672 61.0618 31.6488 0.0002 -5.2530 -0.0007
# 3 36.0191 31.6488 111.2539 0.0001 -3.0978 -0.0002
# 4 0.0001 0.0002 0.0001 28.6658 -0.0001 8.2189
# 5 10.2368 -5.2530 -3.0978 -0.0001 55.7603 0.0001
# 6 -0.0002 -0.0007 -0.0002 8.2189 0.0001 23.8110
#
#
#
# Elastic Compliance Matrix: (Units=1/GPa)
#
#
# Indices 1 2 3 4 5 6 
#
# 1 0.010604 -0.006542 -0.001646 0.000000 -0.002655 0.000000
# 2 -0.006542 0.023372 -0.004443 0.000000 0.003156 0.000001
# 3 -0.001646 -0.004443 0.010799 0.000000 0.000484 0.000000
# 4 0.000000 0.000000 0.000000 0.038716 0.000000 -0.013364
# 5 -0.002655 0.003156 0.000484 0.000000 0.018745 0.000000
# 6 0.000000 0.000001 0.000000 -0.013364 0.000000 0.046610
#
#
# Mechanical properties :
#
#
# Convention : Reuss Voigt Hill
#
# Bulk Modulus (GPa) = 51.24655 57.56662 54.40659
# Shear Modulus (GPa) = 27.68341 34.40037 31.04189
#
# Velocity S-wave (km/s) = 3.50843 3.91097 3.71515
# Velocity P-wave (km/s) = 6.26085 6.78163 6.52644
#
# Compressibility (1/GPa) = 0.01951351
#
# Stress axis : x y z
#
# Youngs Moduli (GPa) = 94.30192 42.78565 92.60318
#
# Poissons Ratio (x) = 0.27989 0.15244
# Poissons Ratio (y) = 0.61690 0.41143
# Poissons Ratio (z) = 0.15523 0.19010
#
# Static dielectric constant tensor:
#      x y z
#    x 1.662980 0.000000 0.079770 
#    y 0.000000 1.979330 0.000000 
#    z 0.079770 0.000000 1.834430 
# 
# From -- ./inp_files/300127.got.cif
#   From: 2010.05.17/outbox.cif.g08.bks.cpg/sg15_151_cif.got.tgz:300127.got - 2010.06.03 18:47:42.
