data_PCOD9292990
_publ_section_title
;
Structure prediction by ZEFSAII (Michael W. Deem and Ramdas Pophale) SiO2 
 PCOD9292990
Probable space group: C 2/C
;
_chemical_formula_sum "Si O2"
_cell_formula_units_Z 60
_cell_length_a 9.078306
_cell_length_b 14.832521
_cell_length_c 21.531053
_cell_angle_alpha 90.000000
_cell_angle_beta 70.367891
_cell_angle_gamma 90.000000
_cell_volume 2730.710798
_symmetry_space_group_name_H-M "C 2/C"
_symmetry_group_IT_number 15
_symmetry_cell_setting 'monoclinic'
loop_
_space_group_symop_operation_xyz
x,y,z
-x,y,1/2-z
-x,-y,-z
x,-y,1/2+z
1/2+x,1/2+y,z
1/2-x,1/2+y,1/2-z
1/2-x,1/2-y,-z
1/2+x,1/2-y,1/2+z
loop_
_atom_site_type_symbol
_atom_site_label
_atom_site_fract_x
_atom_site_fract_y
_atom_site_fract_z
Si Si1 0.523536 0.688078 0.047135
Si Si2 0.726583 0.524925 0.055338
Si Si3 0.000000 0.680204 0.250000
Si Si4 0.762340 0.189869 0.714512
Si Si5 0.008222 0.145769 0.586104
Si Si6 0.337630 0.171327 0.392578
Si Si7 0.009997 0.333642 0.153104
Si Si8 0.017788 0.498532 0.583723
O O1 0.632061 0.617670 0.068271
O O2 0.344124 0.655823 0.072454
O O3 0.515464 0.781293 0.086716
O O4 0.566824 0.683829 0.967677
O O5 0.606374 0.444083 0.058784
O O6 0.832183 0.496305 0.098894
O O7 0.864082 0.534573 0.985248
O O8 0.119313 0.735711 0.276482
O O9 0.113476 0.638698 0.183041
O O10 0.658521 0.164151 0.789061
O O11 0.632061 0.214571 0.681790
O O12 0.879658 0.126978 0.657799
O O13 0.120523 0.225636 0.596252
O O14 0.439669 0.106161 0.420362
O O15 0.054953 0.437559 0.136402
#
# Coordination Sequence:
#
# PCOD9292990 Si02
#       8
#     8   8   4   8   8   8   8   8
#     4  12  24  42  73 102 131 182 225 285 332 403
#     4  11  26  42  66 102 141 166 229 282 338 399
#     4  10  22  44  70  98 132 176 228 272 328 410
#     4  10  24  43  72  97 135 179 226 274 336 402
#     4  11  24  44  72  98 135 183 228 275 344 402
#     4  11  24  43  70  96 137 178 226 272 342 395
#     4  11  25  46  69  99 140 178 225 279 339 400
#     4  11  26  44  65 103 136 175 221 283 335 410
#
# _framework density 21.972301999999999
#
# number of rings (size 3 to 8) (size 9 to 14) (size 15 to 20)
#    0.000    1.067    2.667    2.400   11.200    2.133 
#    0.000    0.000    0.000    0.000    0.000    0.000 
#    0.000    0.000    0.000    0.000    0.000    0.000 
#
# Total GULP energy -167204.160027 kJ/mol
# GULP energy per Si atom -5573.472001 kJ/mol
# Density = 2.192229 g / cm^3
# Si number density = 21.972302 Si / 1000 Ang^3
#
#
#
# Elastic Constant Matrix: (Units=GPa)
#
#
# Indices 1 2 3 4 5 6 
#
# 1 81.5469 21.3167 18.6073 0.0000 -10.0383 0.0000
# 2 21.3167 76.8061 29.1181 0.0000 -10.2095 0.0000
# 3 18.6073 29.1181 64.0984 0.0000 -12.5719 0.0000
# 4 0.0000 0.0000 0.0000 -4.8200 0.0000 0.0814
# 5 -10.0383 -10.2095 -12.5719 0.0000 32.7386 0.0000
# 6 0.0000 0.0000 0.0000 0.0814 0.0000 24.5893
#
#
#
# Elastic Compliance Matrix: (Units=1/GPa)
#
#
# Indices 1 2 3 4 5 6 
#
# 1 0.013785 -0.002611 -0.002321 0.000000 0.002521 0.000000
# 2 -0.002611 0.016390 -0.006318 0.000000 0.001885 0.000000
# 3 -0.002321 -0.006318 0.020135 0.000000 0.005050 0.000000
# 4 0.000000 0.000000 0.000000 -0.207456 0.000000 0.000687
# 5 0.002521 0.001885 0.005050 0.000000 0.033845 0.000000
# 6 0.000000 0.000000 0.000000 0.000687 0.000000 0.040666
#
#
# Mechanical properties :
#
#
# Convention : Reuss Voigt Hill
#
# Bulk Modulus (GPa) = 35.95730 40.05950 38.00840
# Shear Modulus (GPa) = -98.30258 20.72886 -38.78686
#
# Velocity S-wave (km/s) = -6.69600 3.07483 -4.20606
# Velocity P-wave (km/s) = 6.58647 5.55675 2.50041
#
# Compressibility (1/GPa) = 0.02781076
#
# Stress axis : x y z
#
# Youngs Moduli (GPa) = 72.54053 61.01228 49.66353
#
# Poissons Ratio (x) = 0.15929 0.11528
# Poissons Ratio (y) = 0.18939 0.31378
# Poissons Ratio (z) = 0.16839 0.38548
#
# Static dielectric constant tensor:
#      x y z
#    x 1.807830 0.000000 0.028440 
#    y 0.000000 1.761820 0.000000 
#    z 0.028440 0.000000 1.926140 
# 
# From -- ./inp_files/264655.got.cif
#   From: 2010.05.17/outbox.cif.g08.bks.cpg/sg15_133_cif.got.tgz:264655.got - 2010.06.03 18:47:42.
