data_PCOD9292632
_publ_section_title
;
Structure prediction by ZEFSAII (Michael W. Deem and Ramdas Pophale) SiO2 
 PCOD9292632
Probable space group: C 2/C
;
_chemical_formula_sum "Si O2"
_cell_formula_units_Z 44
_cell_length_a 8.372624
_cell_length_b 9.286032
_cell_length_c 28.342086
_cell_angle_alpha 90.000000
_cell_angle_beta 121.864808
_cell_angle_gamma 90.000000
_cell_volume 1871.469299
_symmetry_space_group_name_H-M "C 2/C"
_symmetry_group_IT_number 15
_symmetry_cell_setting 'monoclinic'
loop_
_space_group_symop_operation_xyz
x,y,z
-x,y,1/2-z
-x,-y,-z
x,-y,1/2+z
1/2+x,1/2+y,z
1/2-x,1/2+y,1/2-z
1/2-x,1/2-y,-z
1/2+x,1/2-y,1/2+z
loop_
_atom_site_type_symbol
_atom_site_label
_atom_site_fract_x
_atom_site_fract_y
_atom_site_fract_z
Si Si1 0.323701 0.061330 0.651550
Si Si2 0.896697 0.664988 0.485041
Si Si3 0.721877 0.325277 0.577597
Si Si4 0.704917 0.137271 0.668386
Si Si5 0.500000 0.834740 0.750000
Si Si6 0.338711 0.163803 0.370318
O O1 0.176795 0.977733 0.595374
O O2 0.433612 0.942055 0.698783
O O3 0.489252 0.138112 0.649187
O O4 0.217475 0.186209 0.662225
O O5 0.750000 0.750000 0.500000
O O6 0.794453 0.665686 0.418931
O O7 0.000000 0.500000 0.500000
O O8 0.076159 0.770574 0.516790
O O9 0.721991 0.208455 0.619638
O O10 0.935485 0.348293 0.595011
O O11 0.825031 0.225813 0.724857
O O12 0.755972 0.970270 0.670174
#
# Coordination Sequence:
#
# PCOD9292632 Si02
#       6
#     8   8   8   8   4   8
#     4  10  24  41  67  98 132 181 231 294 358 433
#     4  12  26  44  73 106 148 197 240 291 365 442
#     4  10  23  43  66  99 141 182 230 288 352 424
#     4  10  22  44  65  95 132 177 229 292 357 426
#     4  10  24  42  66  98 138 172 236 296 372 420
#     4  11  24  41  70  99 138 185 240 286 358 430
#
# _framework density 23.510936999999998
#
# number of rings (size 3 to 8) (size 9 to 14) (size 15 to 20)
#    0.000    1.455    1.818    1.636    5.091   10.182 
#    0.000    0.000    0.000    0.000    0.000    0.000 
#    0.000    0.000    0.000    0.000    0.000    0.000 
#
# Total GULP energy -122510.016207 kJ/mol
# GULP energy per Si atom -5568.637100 kJ/mol
# Density = 2.345742 g / cm^3
# Si number density = 23.510937 Si / 1000 Ang^3
#
#
#
# Elastic Constant Matrix: (Units=GPa)
#
#
# Indices 1 2 3 4 5 6 
#
# 1 56.0941 38.0860 10.9898 0.0000 -3.3603 0.0000
# 2 38.0860 168.0700 52.7679 0.0000 22.5721 0.0000
# 3 10.9898 52.7679 77.8846 0.0000 4.8375 0.0000
# 4 0.0000 0.0000 0.0000 43.3285 0.0000 14.4045
# 5 -3.3603 22.5721 4.8375 0.0000 23.6187 0.0000
# 6 0.0000 0.0000 0.0000 14.4045 0.0000 30.1657
#
#
#
# Elastic Compliance Matrix: (Units=1/GPa)
#
#
# Indices 1 2 3 4 5 6 
#
# 1 0.022771 -0.006651 0.000706 0.000000 0.009451 0.000000
# 2 -0.006651 0.010537 -0.005587 0.000000 -0.009872 0.000000
# 3 0.000706 -0.005587 0.016396 0.000000 0.002082 0.000000
# 4 0.000000 0.000000 0.000000 0.027435 0.000000 -0.013100
# 5 0.009451 -0.009872 0.002082 0.000000 0.052692 0.000000
# 6 0.000000 0.000000 0.000000 -0.013100 0.000000 0.039406
#
#
# Mechanical properties :
#
#
# Convention : Reuss Voigt Hill
#
# Bulk Modulus (GPa) = 37.53841 56.19289 46.86565
# Shear Modulus (GPa) = 24.85316 32.76957 28.81137
#
# Velocity S-wave (km/s) = 3.25482 3.73742 3.50443
# Velocity P-wave (km/s) = 5.48873 6.52510 6.02923
#
# Compressibility (1/GPa) = 0.02663938
#
# Stress axis : x y z
#
# Youngs Moduli (GPa) = 43.91566 94.90190 60.99002
#
# Poissons Ratio (x) = 0.63120 -0.04307
# Poissons Ratio (y) = 0.29209 0.34078
# Poissons Ratio (z) = -0.03101 0.53026
#
# Static dielectric constant tensor:
#      x y z
#    x 1.940960 0.000000 -0.066400 
#    y 0.000000 1.994720 0.000000 
#    z -0.066400 0.000000 1.933150 
# 
# From -- ./inp_files/306448.got.cif
#   From: 2010.05.17/outbox.cif.g08.bks.cpg/sg15_154_cif.got.tgz:306448.got - 2010.06.03 18:47:42.
