data_PCOD9292006
_publ_section_title
;
Structure prediction by ZEFSAII (Michael W. Deem and Ramdas Pophale) SiO2 
 PCOD9292006
Probable space group: C 2/C
;
_chemical_formula_sum "Si O2"
_cell_formula_units_Z 52
_cell_length_a 15.033347
_cell_length_b 21.794169
_cell_length_c 8.416734
_cell_angle_alpha 90.000000
_cell_angle_beta 114.538015
_cell_angle_gamma 90.000000
_cell_volume 2508.598016
_symmetry_space_group_name_H-M "C 2/C"
_symmetry_group_IT_number 15
_symmetry_cell_setting 'monoclinic'
loop_
_space_group_symop_operation_xyz
x,y,z
-x,y,1/2-z
-x,-y,-z
x,-y,1/2+z
1/2+x,1/2+y,z
1/2-x,1/2+y,1/2-z
1/2-x,1/2-y,-z
1/2+x,1/2-y,1/2+z
loop_
_atom_site_type_symbol
_atom_site_label
_atom_site_fract_x
_atom_site_fract_y
_atom_site_fract_z
Si Si1 0.156723 0.282789 0.858675
Si Si2 0.000000 0.962341 0.250000
Si Si3 0.491608 0.233014 0.497559
Si Si4 0.113599 0.933126 0.023735
Si Si5 0.500000 0.873360 0.250000
Si Si6 0.882589 0.417962 0.677475
Si Si7 0.000000 0.165361 0.250000
Si Si8 0.165483 0.455925 0.213725
O O1 0.168817 0.353778 0.819846
O O2 0.105616 0.249373 0.671981
O O3 0.250000 0.250000 0.000000
O O4 0.075473 0.284106 0.936358
O O5 0.056902 0.927158 0.151394
O O6 0.074428 0.006386 0.402262
O O7 0.470035 0.173366 0.587748
O O8 0.530335 0.288543 0.632844
O O9 0.227097 0.940454 0.143449
O O10 0.083413 0.877808 0.885260
O O11 0.586552 0.916187 0.252121
O O12 0.844241 0.438904 0.477339
O O13 0.859106 0.472532 0.780793
O O14 0.000000 0.410144 0.750000
#
# Coordination Sequence:
#
# PCOD9292006 Si02
#       8
#     8   4   8   8   4   8   4   8
#     4  11  24  44  68  96 129 177 230 279 332 404
#     4   9  20  45  66  88 143 176 215 294 340 393
#     4  10  23  45  64  94 132 176 225 278 336 395
#     4  10  22  43  65 101 133 178 227 278 342 410
#     4  11  22  41  68  96 141 175 208 284 338 403
#     4  12  24  44  65 100 138 174 219 278 343 407
#     4  10  24  42  68  94 132 177 229 278 336 396
#     4  12  25  39  70 103 135 175 218 271 347 410
#
# _framework density 20.728708999999998
#
# number of rings (size 3 to 8) (size 9 to 14) (size 15 to 20)
#    0.000    1.231    3.846    1.385    4.308    2.462 
#    8.308    3.077    0.000    0.000    0.000    0.000 
#    0.000    0.000    0.000    0.000    0.000    0.000 
#
# Total GULP energy -145355.550973 kJ/mol
# GULP energy per Si atom -5590.598114 kJ/mol
# Density = 2.068153 g / cm^3
# Si number density = 20.728709 Si / 1000 Ang^3
#
#
#
# Elastic Constant Matrix: (Units=GPa)
#
#
# Indices 1 2 3 4 5 6 
#
# 1 38.9857 15.2140 33.1582 0.0000 9.9820 0.0000
# 2 15.2140 105.6919 34.2957 0.0000 7.2233 0.0000
# 3 33.1582 34.2957 131.4805 0.0000 12.0848 0.0000
# 4 0.0000 0.0000 0.0000 29.3010 0.0000 -6.8178
# 5 9.9820 7.2233 12.0848 0.0000 37.0913 0.0000
# 6 0.0000 0.0000 0.0000 -6.8178 0.0000 10.8230
#
#
#
# Elastic Compliance Matrix: (Units=1/GPa)
#
#
# Indices 1 2 3 4 5 6 
#
# 1 0.034554 -0.002074 -0.007583 0.000000 -0.006425 0.000000
# 2 -0.002074 0.010510 -0.002146 0.000000 -0.000789 0.000000
# 3 -0.007583 -0.002146 0.010156 0.000000 -0.000850 0.000000
# 4 0.000000 0.000000 0.000000 0.039990 0.000000 0.025191
# 5 -0.006425 -0.000789 -0.000850 0.000000 0.029120 0.000000
# 6 0.000000 0.000000 0.000000 0.025191 0.000000 0.108264
#
#
# Mechanical properties :
#
#
# Convention : Reuss Voigt Hill
#
# Bulk Modulus (GPa) = 31.63100 49.05488 40.34294
# Shear Modulus (GPa) = 18.74491 28.34240 23.54365
#
# Velocity S-wave (km/s) = 3.01042 3.70172 3.37382
# Velocity P-wave (km/s) = 5.23222 6.47972 5.88910
#
# Compressibility (1/GPa) = 0.03161455
#
# Stress axis : x y z
#
# Youngs Moduli (GPa) = 28.94007 95.14464 98.46541
#
# Poissons Ratio (x) = 0.19737 0.74663
# Poissons Ratio (y) = 0.06003 0.21129
# Poissons Ratio (z) = 0.21944 0.20416
#
# Static dielectric constant tensor:
#      x y z
#    x 1.703560 0.000000 -0.013040 
#    y 0.000000 1.755810 0.000000 
#    z -0.013040 0.000000 1.732920 
# 
# From -- ./inp_files/50735.got.cif
#   From: 2010.05.17/outbox.cif.g08.bks.cpg/sg15_26_cif.got.tgz:50735.got - 2010.06.03 18:47:42.
