data_PCOD9292011
_publ_section_title
;
Structure prediction by ZEFSAII (Michael W. Deem and Ramdas Pophale) SiO2 
 PCOD9292011
Probable space group: C 2/C
;
_chemical_formula_sum "Si O2"
_cell_formula_units_Z 64
_cell_length_a 14.763838
_cell_length_b 8.201269
_cell_length_c 25.631084
_cell_angle_alpha 90.000000
_cell_angle_beta 90.379179
_cell_angle_gamma 90.000000
_cell_volume 3103.400255
_symmetry_space_group_name_H-M "C 2/C"
_symmetry_group_IT_number 15
_symmetry_cell_setting 'monoclinic'
loop_
_space_group_symop_operation_xyz
x,y,z
-x,y,1/2-z
-x,-y,-z
x,-y,1/2+z
1/2+x,1/2+y,z
1/2-x,1/2+y,1/2-z
1/2-x,1/2-y,-z
1/2+x,1/2-y,1/2+z
loop_
_atom_site_type_symbol
_atom_site_label
_atom_site_fract_x
_atom_site_fract_y
_atom_site_fract_z
Si Si1 0.760846 0.732060 0.175854
Si Si2 0.280277 0.654948 0.051856
Si Si3 0.580055 0.790272 0.364227
Si Si4 0.362245 0.271106 0.374308
Si Si5 0.104642 0.856600 0.601834
Si Si6 0.065644 0.328573 0.884358
Si Si7 0.228893 0.643901 0.787255
Si Si8 0.350642 0.688586 0.513350
O O1 0.683035 0.743131 0.131931
O O2 0.857767 0.760078 0.149966
O O3 0.765514 0.545026 0.196181
O O4 0.738710 0.838560 0.225897
O O5 0.349725 0.750020 0.089286
O O6 0.189763 0.648500 0.087018
O O7 0.331350 0.490368 0.036305
O O8 0.250000 0.750000 0.000000
O O9 0.490534 0.680727 0.370155
O O10 0.636692 0.778927 0.310553
O O11 0.559714 0.980695 0.371627
O O12 0.359219 0.457165 0.395759
O O13 0.467351 0.237655 0.372164
O O14 0.310998 0.270493 0.318892
O O15 0.096359 0.814009 0.541020
O O16 0.097704 0.295718 0.943642
O O17 0.250000 0.750000 0.500000
#
# Coordination Sequence:
#
# PCOD9292011 Si02
#       8
#     8   8   8   8   8   8   8   8
#     4  10  22  43  65  87 122 160 203 262 306 373
#     4  11  22  40  62  85 127 167 206 246 304 359
#     4  10  24  42  61  93 126 161 207 257 304 376
#     4  10  23  41  62  94 123 163 208 256 304 371
#     4  11  23  42  62  90 129 163 207 251 310 369
#     4  11  24  40  62  96 128 157 212 252 307 368
#     4   9  22  43  65  87 123 159 204 259 318 357
#     4  12  24  39  63  92 128 169 205 253 302 366
#
# _framework density 20.622540000000001
#
# number of rings (size 3 to 8) (size 9 to 14) (size 15 to 20)
#    0.000    1.500    2.500    2.250    3.500    6.500 
#    0.000    5.000    0.000    0.000    0.000    0.000 
#    0.000    0.000    0.000    0.000    0.000    0.000 
#
# Total GULP energy -178806.725493 kJ/mol
# GULP energy per Si atom -5587.710172 kJ/mol
# Density = 2.057560 g / cm^3
# Si number density = 20.622540 Si / 1000 Ang^3
#
#
#
# Elastic Constant Matrix: (Units=GPa)
#
#
# Indices 1 2 3 4 5 6 
#
# 1 119.3111 -1.8354 29.7196 0.0000 -9.0695 0.0000
# 2 -1.8354 13.4022 10.8592 0.0000 0.8803 0.0000
# 3 29.7196 10.8592 106.5119 0.0000 -12.0335 0.0000
# 4 0.0000 0.0000 0.0000 27.3996 0.0000 3.7274
# 5 -9.0695 0.8803 -12.0335 0.0000 15.7333 0.0000
# 6 0.0000 0.0000 0.0000 3.7274 0.0000 31.6850
#
#
#
# Elastic Compliance Matrix: (Units=1/GPa)
#
#
# Indices 1 2 3 4 5 6 
#
# 1 0.009311 0.003129 -0.002551 0.000000 0.003241 0.000000
# 2 0.003129 0.084481 -0.010745 0.000000 -0.011141 0.000000
# 3 -0.002551 -0.010745 0.012147 0.000000 0.008422 0.000000
# 4 0.000000 0.000000 0.000000 0.037090 0.000000 -0.004363
# 5 0.003241 -0.011141 0.008422 0.000000 0.072493 0.000000
# 6 0.000000 0.000000 0.000000 -0.004363 0.000000 0.032074
#
#
# Mechanical properties :
#
#
# Convention : Reuss Voigt Hill
#
# Bulk Modulus (GPa) = 11.68135 35.19021 23.43578
# Shear Modulus (GPa) = 16.86536 28.32904 22.59720
#
# Velocity S-wave (km/s) = 2.86284 3.71036 3.31381
# Velocity P-wave (km/s) = 4.07486 5.95455 5.10202
#
# Compressibility (1/GPa) = 0.08560657
#
# Stress axis : x y z
#
# Youngs Moduli (GPa) = 107.39520 11.83696 82.32270
#
# Poissons Ratio (x) = -0.03704 0.21000
# Poissons Ratio (y) = -0.33606 0.88455
# Poissons Ratio (z) = 0.27396 0.12719
#
# Static dielectric constant tensor:
#      x y z
#    x 1.777770 0.000000 -0.043030 
#    y 0.000000 1.603730 0.000000 
#    z -0.043030 0.000000 1.726350 
# 
# From -- ./inp_files/273195.got.cif
#   From: 2010.05.17/outbox.cif.g08.bks.cpg/sg15_137_cif.got.tgz:273195.got - 2010.06.03 18:47:42.
