data_PCOD9292703
_publ_section_title
;
Structure prediction by ZEFSAII (Michael W. Deem and Ramdas Pophale) SiO2 
 PCOD9292703
Probable space group: C 2/C
;
_chemical_formula_sum "Si O2"
_cell_formula_units_Z 40
_cell_length_a 24.782444
_cell_length_b 8.513041
_cell_length_c 17.922769
_cell_angle_alpha 90.000000
_cell_angle_beta 28.280487
_cell_angle_gamma 90.000000
_cell_volume 1791.506205
_symmetry_space_group_name_H-M "C 2/C"
_symmetry_group_IT_number 15
_symmetry_cell_setting 'monoclinic'
loop_
_space_group_symop_operation_xyz
x,y,z
-x,y,1/2-z
-x,-y,-z
x,-y,1/2+z
1/2+x,1/2+y,z
1/2-x,1/2+y,1/2-z
1/2-x,1/2-y,-z
1/2+x,1/2-y,1/2+z
loop_
_atom_site_type_symbol
_atom_site_label
_atom_site_fract_x
_atom_site_fract_y
_atom_site_fract_z
Si Si1 0.469172 0.897486 0.705590
Si Si2 0.317457 0.118224 0.665246
Si Si3 0.560776 0.349934 0.891335
Si Si4 0.108210 0.753708 0.675343
Si Si5 0.144103 0.309725 0.796972
O O1 0.500000 0.833011 0.750000
O O2 0.580067 0.906169 0.517793
O O3 0.381141 0.805482 0.759969
O O4 0.420114 0.071145 0.776006
O O5 0.332312 0.279432 0.694689
O O6 0.213898 0.159470 0.737865
O O7 0.305039 0.976299 0.738592
O O8 0.583931 0.361159 0.776652
O O9 0.500000 0.500000 0.000000
O O10 0.472575 0.206879 0.014406
O O11 0.250000 0.750000 0.500000
O O12 0.000000 0.796805 0.750000
#
# Coordination Sequence:
#
# PCOD9292703 Si02
#       5
#     8   8   8   8   8
#     4  10  22  44  66  96 143 186 231 298 377 433
#     4  11  22  40  67  98 139 181 236 304 361 436
#     4  11  23  41  67 101 136 185 244 291 361 437
#     4  11  25  43  72 102 148 193 244 301 374 453
#     4  11  22  41  68  98 135 181 238 295 364 435
#
# _framework density 22.327580999999999
#
# number of rings (size 3 to 8) (size 9 to 14) (size 15 to 20)
#    0.000    1.200    4.000    2.400    2.800    5.600 
#    0.000    6.000    0.000    0.000    0.000    0.000 
#    0.000    0.000    0.000    0.000    0.000    0.000 
#
# Total GULP energy -111335.932681 kJ/mol
# GULP energy per Si atom -5566.796634 kJ/mol
# Density = 2.227676 g / cm^3
# Si number density = 22.327581 Si / 1000 Ang^3
#
#
#
# Elastic Constant Matrix: (Units=GPa)
#
#
# Indices 1 2 3 4 5 6 
#
# 1 199.5880 52.8761 70.9242 -0.0001 2.5482 0.0000
# 2 52.8761 62.1565 11.8999 0.0000 -0.6928 0.0000
# 3 70.9242 11.8999 73.6069 0.0000 -1.9546 0.0002
# 4 -0.0001 0.0000 0.0000 20.7912 0.0002 9.6971
# 5 2.5482 -0.6928 -1.9546 0.0002 35.4574 -0.0001
# 6 0.0000 0.0000 0.0002 9.6971 -0.0001 29.8117
#
#
#
# Elastic Compliance Matrix: (Units=1/GPa)
#
#
# Indices 1 2 3 4 5 6 
#
# 1 0.009789 -0.006738 -0.008377 0.000000 -0.001297 0.000000
# 2 -0.006738 0.021241 0.003087 0.000000 0.001069 0.000000
# 3 -0.008377 0.003087 0.021207 0.000000 0.001831 0.000000
# 4 0.000000 0.000000 0.000000 0.056699 0.000000 -0.018443
# 5 -0.001297 0.001069 0.001831 0.000000 0.028418 0.000000
# 6 0.000000 0.000000 0.000000 -0.018443 0.000000 0.039543
#
#
# Mechanical properties :
#
#
# Convention : Reuss Voigt Hill
#
# Bulk Modulus (GPa) = 35.48556 67.41686 51.45121
# Shear Modulus (GPa) = 23.77020 30.52213 27.14617
#
# Velocity S-wave (km/s) = 3.26638 3.70133 3.49063
# Velocity P-wave (km/s) = 5.49120 6.96609 6.27215
#
# Compressibility (1/GPa) = 0.02818048
#
# Stress axis : x y z
#
# Youngs Moduli (GPa) = 102.15798 47.07812 47.15400
#
# Poissons Ratio (x) = 0.31721 0.39502
# Poissons Ratio (y) = 0.68833 -0.14555
# Poissons Ratio (z) = 0.85579 -0.14532
#
# Static dielectric constant tensor:
#      x y z
#    x 1.965540 0.000000 -0.131610 
#    y 0.000000 1.802920 0.000000 
#    z -0.131610 0.000000 1.901550 
# 
# From -- ./inp_files/218776.got.cif
#   From: 2010.05.17/outbox.cif.g08.bks.cpg/sg15_110_cif.got.tgz:218776.got - 2010.06.03 18:47:42.
