data_PCOD9292213
_publ_section_title
;
Structure prediction by ZEFSAII (Michael W. Deem and Ramdas Pophale) SiO2 
 PCOD9292213
Probable space group: C 2/C
;
_chemical_formula_sum "Si O2"
_cell_formula_units_Z 44
_cell_length_a 15.536842
_cell_length_b 11.240944
_cell_length_c 10.108414
_cell_angle_alpha 90.000000
_cell_angle_beta 106.756140
_cell_angle_gamma 90.000000
_cell_volume 1690.463091
_symmetry_space_group_name_H-M "C 2/C"
_symmetry_group_IT_number 15
_symmetry_cell_setting 'monoclinic'
loop_
_space_group_symop_operation_xyz
x,y,z
-x,y,1/2-z
-x,-y,-z
x,-y,1/2+z
1/2+x,1/2+y,z
1/2-x,1/2+y,1/2-z
1/2-x,1/2-y,-z
1/2+x,1/2-y,1/2+z
loop_
_atom_site_type_symbol
_atom_site_label
_atom_site_fract_x
_atom_site_fract_y
_atom_site_fract_z
Si Si1 0.583963 0.573947 0.182680
Si Si2 0.449027 0.152405 0.864508
Si Si3 0.828085 0.039279 0.023974
Si Si4 0.500000 0.216108 0.250000
Si Si5 0.162561 0.554702 0.289174
Si Si6 0.115275 0.265680 0.585503
O O1 0.500000 0.568770 0.250000
O O2 0.590121 0.714497 0.149557
O O3 0.658463 0.518753 0.315329
O O4 0.598422 0.516944 0.044447
O O5 0.500000 0.140832 0.750000
O O6 0.373671 0.052659 0.817545
O O7 0.535899 0.147661 0.999029
O O8 0.844010 0.179529 0.003248
O O9 0.734979 0.991918 0.923680
O O10 0.580320 0.124900 0.326537
O O11 0.447227 0.297726 0.330621
O O12 0.188423 0.659942 0.198140
#
# Coordination Sequence:
#
# PCOD9292213 Si02
#       6
#     8   8   8   4   8   8
#     4  11  26  44  69 103 140 198 229 294 368 432
#     4  11  20  40  68  96 130 178 240 280 350 429
#     4  12  26  44  71 106 151 176 251 300 355 433
#     4   8  22  40  66  96 136 184 236 264 370 418
#     4  10  24  42  69 105 138 187 232 305 355 421
#     4  10  22  43  68 100 130 192 231 294 346 430
#
# _framework density 26.028369999999999
#
# number of rings (size 3 to 8) (size 9 to 14) (size 15 to 20)
#    1.091    0.364    4.545    1.091    3.818    3.636 
#    0.000    0.909    0.000    0.000    0.000    0.000 
#    0.000    0.000    0.000    0.000    0.000    0.000 
#
# Total GULP energy -122631.613073 kJ/mol
# GULP energy per Si atom -5574.164231 kJ/mol
# Density = 2.596913 g / cm^3
# Si number density = 26.028370 Si / 1000 Ang^3
#
#
#
# Elastic Constant Matrix: (Units=GPa)
#
#
# Indices 1 2 3 4 5 6 
#
# 1 85.5750 5.5160 2.9901 0.0000 11.9310 0.0000
# 2 5.5160 66.3247 9.8515 0.0000 7.6968 0.0000
# 3 2.9901 9.8515 101.0645 0.0000 21.6934 0.0000
# 4 0.0000 0.0000 0.0000 42.4094 0.0000 -0.4125
# 5 11.9310 7.6968 21.6934 0.0000 49.0766 0.0000
# 6 0.0000 0.0000 0.0000 -0.4125 0.0000 35.3428
#
#
#
# Elastic Compliance Matrix: (Units=1/GPa)
#
#
# Indices 1 2 3 4 5 6 
#
# 1 0.012137 -0.000714 0.000353 0.000000 -0.002995 0.000000
# 2 -0.000714 0.015507 -0.001111 0.000000 -0.001767 0.000000
# 3 0.000353 -0.001111 0.011019 0.000000 -0.004782 0.000000
# 4 0.000000 0.000000 0.000000 0.023582 0.000000 0.000275
# 5 -0.002995 -0.001767 -0.004782 0.000000 0.023495 0.000000
# 6 0.000000 0.000000 0.000000 0.000275 0.000000 0.028297
#
#
# Mechanical properties :
#
#
# Convention : Reuss Voigt Hill
#
# Bulk Modulus (GPa) = 27.99662 32.18663 30.09163
# Shear Modulus (GPa) = 38.79323 41.00622 39.89972
#
# Velocity S-wave (km/s) = 3.86479 3.97349 3.91952
# Velocity P-wave (km/s) = 5.54030 5.78311 5.66301
#
# Compressibility (1/GPa) = 0.03571860
#
# Stress axis : x y z
#
# Youngs Moduli (GPa) = 82.39350 64.48758 90.75186
#
# Poissons Ratio (x) = 0.04607 -0.03207
# Poissons Ratio (y) = 0.05886 0.10084
# Poissons Ratio (z) = -0.02911 0.07165
#
# Static dielectric constant tensor:
#      x y z
#    x 2.151170 0.000000 0.137300 
#    y 0.000000 2.087580 0.000000 
#    z 0.137300 0.000000 3.736410 
# 
# From -- ./inp_files/104360.got.cif
#   From: 2010.05.17/outbox.cif.g08.bks.cpg/sg15_53_cif.got.tgz:104360.got - 2010.06.03 18:47:42.
