data_PCOD9292614
_publ_section_title
;
Structure prediction by ZEFSAII (Michael W. Deem and Ramdas Pophale) SiO2 
 PCOD9292614
Probable space group: C 2/C
;
_chemical_formula_sum "Si O2"
_cell_formula_units_Z 44
_cell_length_a 21.916489
_cell_length_b 8.538060
_cell_length_c 10.096213
_cell_angle_alpha 90.000000
_cell_angle_beta 105.655804
_cell_angle_gamma 90.000000
_cell_volume 1819.156078
_symmetry_space_group_name_H-M "C 2/C"
_symmetry_group_IT_number 15
_symmetry_cell_setting 'monoclinic'
loop_
_space_group_symop_operation_xyz
x,y,z
-x,y,1/2-z
-x,-y,-z
x,-y,1/2+z
1/2+x,1/2+y,z
1/2-x,1/2+y,1/2-z
1/2-x,1/2-y,-z
1/2+x,1/2-y,1/2+z
loop_
_atom_site_type_symbol
_atom_site_label
_atom_site_fract_x
_atom_site_fract_y
_atom_site_fract_z
Si Si1 0.382728 0.464325 0.827365
Si Si2 0.246237 0.906644 0.250217
Si Si3 0.205057 0.642492 0.064554
Si Si4 0.616347 0.875931 0.296585
Si Si5 0.500000 0.897714 0.750000
Si Si6 0.054852 0.906580 0.369667
O O1 0.310816 0.482773 0.833121
O O2 0.394847 0.293674 0.773096
O O3 0.390737 0.584654 0.709823
O O4 0.426050 0.483812 0.982104
O O5 0.215805 0.737358 0.206786
O O6 0.315460 0.924106 0.223683
O O7 0.264028 0.972311 0.404808
O O8 0.250000 0.750000 0.000000
O O9 0.135114 0.640057 0.963239
O O10 0.558317 0.992915 0.240858
O O11 0.470768 0.771020 0.628371
O O12 0.000000 0.989403 0.250000
#
# Coordination Sequence:
#
# PCOD9292614 Si02
#       6
#     8   8   8   8   4   8
#     4  12  24  48  77 106 149 194 243 302 371 432
#     4  11  23  42  73 107 139 188 241 301 362 434
#     4  10  22  44  65 105 145 186 234 295 373 420
#     4  11  26  47  70 105 149 194 233 312 365 433
#     4  10  28  48  70 106 142 196 252 300 358 446
#     4  10  27  48  72 111 141 197 245 298 363 441
#
# _framework density 24.18704
#
# number of rings (size 3 to 8) (size 9 to 14) (size 15 to 20)
#    0.545    0.727    3.636    1.636    8.909    0.727 
#    3.273    5.455    0.000    0.000    0.000    0.000 
#    0.000    0.000    0.000    0.000    0.000    0.000 
#
# Total GULP energy -122530.025482 kJ/mol
# GULP energy per Si atom -5569.546613 kJ/mol
# Density = 2.413199 g / cm^3
# Si number density = 24.187040 Si / 1000 Ang^3
#
#
#
# Elastic Constant Matrix: (Units=GPa)
#
#
# Indices 1 2 3 4 5 6 
#
# 1 111.6376 44.2629 34.4647 0.0000 11.9106 0.0000
# 2 44.2629 102.3114 34.5688 0.0000 7.9347 0.0000
# 3 34.4647 34.5688 113.2735 0.0000 27.8513 0.0000
# 4 0.0000 0.0000 0.0000 38.8107 0.0000 5.5565
# 5 11.9106 7.9347 27.8513 0.0000 17.7340 0.0000
# 6 0.0000 0.0000 0.0000 5.5565 0.0000 44.8123
#
#
#
# Elastic Compliance Matrix: (Units=1/GPa)
#
#
# Indices 1 2 3 4 5 6 
#
# 1 0.011426 -0.004225 -0.001246 0.000000 -0.003826 0.000000
# 2 -0.004225 0.012464 -0.003005 0.000000 0.001981 0.000000
# 3 -0.001246 -0.003005 0.015620 0.000000 -0.022349 0.000000
# 4 0.000000 0.000000 0.000000 0.026232 0.000000 -0.003253
# 5 -0.003826 0.001981 -0.022349 0.000000 0.093172 0.000000
# 6 0.000000 0.000000 0.000000 -0.003253 0.000000 0.022719
#
#
# Mechanical properties :
#
#
# Convention : Reuss Voigt Hill
#
# Bulk Modulus (GPa) = 44.33421 61.53502 52.93462
# Shear Modulus (GPa) = 24.25972 34.53316 29.39644
#
# Velocity S-wave (km/s) = 3.17046 3.78266 3.49001
# Velocity P-wave (km/s) = 5.63666 6.67642 6.17845
#
# Compressibility (1/GPa) = 0.02255594
#
# Stress axis : x y z
#
# Youngs Moduli (GPa) = 87.52145 80.23210 64.02236
#
# Poissons Ratio (x) = 0.33901 0.07978
# Poissons Ratio (y) = 0.36981 0.19240
# Poissons Ratio (z) = 0.10906 0.24111
#
# Static dielectric constant tensor:
#      x y z
#    x 2.122590 0.000000 -0.135070 
#    y 0.000000 2.025110 0.000000 
#    z -0.135070 0.000000 2.219310 
# 
# From -- ./inp_files/116513.got.cif
#   From: 2010.05.17/outbox.cif.g08.bks.cpg/sg15_59_cif.got.tgz:116513.got - 2010.06.03 18:47:42.
