data_PCOD9292882
_publ_section_title
;
Structure prediction by ZEFSAII (Michael W. Deem and Ramdas Pophale) SiO2 
 PCOD9292882
Probable space group: C 2/C
;
_chemical_formula_sum "Si O2"
_cell_formula_units_Z 32
_cell_length_a 13.574269
_cell_length_b 8.232508
_cell_length_c 20.492064
_cell_angle_alpha 90.000000
_cell_angle_beta 143.491722
_cell_angle_gamma 90.000000
_cell_volume 1362.406470
_symmetry_space_group_name_H-M "C 2/C"
_symmetry_group_IT_number 15
_symmetry_cell_setting 'monoclinic'
loop_
_space_group_symop_operation_xyz
x,y,z
-x,y,1/2-z
-x,-y,-z
x,-y,1/2+z
1/2+x,1/2+y,z
1/2-x,1/2+y,1/2-z
1/2-x,1/2-y,-z
1/2+x,1/2-y,1/2+z
loop_
_atom_site_type_symbol
_atom_site_label
_atom_site_fract_x
_atom_site_fract_y
_atom_site_fract_z
Si Si1 0.352836 0.681449 0.876253
Si Si2 0.168588 0.373759 0.507057
Si Si3 0.379382 0.917940 0.784109
Si Si4 0.903201 0.858762 0.104269
O O1 0.394766 0.775457 0.964164
O O2 0.222613 0.537584 0.815212
O O3 0.502867 0.601644 0.914517
O O4 0.281608 0.823609 0.790070
O O5 0.250000 0.250000 0.500000
O O6 0.321015 0.498259 0.601495
O O7 0.019652 0.474910 0.395127
O O8 0.463540 0.764314 0.794930
O O9 0.750000 0.750000 0.000000
#
# Coordination Sequence:
#
# PCOD9292882 Si02
#       4
#     8   8   8   8
#     4  10  22  44  69  93 140 177 228 281 341 402
#     4  11  23  41  69  99 137 179 228 279 346 408
#     4   9  22  42  63 100 131 178 233 275 349 397
#     4   8  20  41  66  96 131 177 230 276 340 402
#
# _framework density 23.487849000000001
#
# number of rings (size 3 to 8) (size 9 to 14) (size 15 to 20)
#    1.500    1.000    0.000    0.750    3.500    2.000 
#    0.000    2.500    0.000    0.000    0.000    0.000 
#    0.000    0.000    0.000    0.000    0.000    0.000 
#
# Total GULP energy -89136.596303 kJ/mol
# GULP energy per Si atom -5571.037269 kJ/mol
# Density = 2.343439 g / cm^3
# Si number density = 23.487849 Si / 1000 Ang^3
#
#
#
# Elastic Constant Matrix: (Units=GPa)
#
#
# Indices 1 2 3 4 5 6 
#
# 1 70.9588 1.4389 14.0824 0.0000 -1.2414 0.0000
# 2 1.4389 92.8316 20.3355 0.0000 15.9158 0.0000
# 3 14.0824 20.3355 21.1074 0.0000 7.2269 0.0000
# 4 0.0000 0.0000 0.0000 42.2293 0.0000 11.5811
# 5 -1.2414 15.9158 7.2269 0.0000 31.4501 0.0000
# 6 0.0000 0.0000 0.0000 11.5811 0.0000 36.6268
#
#
#
# Elastic Compliance Matrix: (Units=1/GPa)
#
#
# Indices 1 2 3 4 5 6 
#
# 1 0.017006 0.002475 -0.014687 0.000000 0.002794 0.000000
# 2 0.002475 0.014550 -0.014307 0.000000 -0.003978 0.000000
# 3 -0.014687 -0.014307 0.074544 0.000000 -0.010469 0.000000
# 4 0.000000 0.000000 0.000000 0.025929 0.000000 -0.008198
# 5 0.002794 -0.003978 -0.010469 0.000000 0.036325 0.000000
# 6 0.000000 0.000000 0.000000 -0.008198 0.000000 0.029895
#
#
# Mechanical properties :
#
#
# Convention : Reuss Voigt Hill
#
# Bulk Modulus (GPa) = 18.84608 28.51240 23.67924
# Shear Modulus (GPa) = 18.58917 31.99731 25.29324
#
# Velocity S-wave (km/s) = 2.81630 3.69493 3.28512
# Velocity P-wave (km/s) = 4.31469 5.51080 4.94901
#
# Compressibility (1/GPa) = 0.05306144
#
# Stress axis : x y z
#
# Youngs Moduli (GPa) = 58.80226 68.72908 13.41495
#
# Poissons Ratio (x) = -0.17008 0.19702
# Poissons Ratio (y) = -0.14552 0.19193
# Poissons Ratio (z) = 0.86363 0.98330
#
# Static dielectric constant tensor:
#      x y z
#    x 1.976640 0.000000 -0.022740 
#    y 0.000000 1.893390 0.000000 
#    z -0.022740 0.000000 1.922410 
# 
# From -- ./inp_files/276437.got.cif
#   From: 2010.05.17/outbox.cif.g08.bks.cpg/sg15_139_cif.got.tgz:276437.got - 2010.06.03 18:47:42.
