data_PCOD9292670
_publ_section_title
;
Structure prediction by ZEFSAII (Michael W. Deem and Ramdas Pophale) SiO2 
 PCOD9292670
Probable space group: C 2/C
;
_chemical_formula_sum "Si O2"
_cell_formula_units_Z 56
_cell_length_a 11.564571
_cell_length_b 8.362144
_cell_length_c 26.521711
_cell_angle_alpha 90.000000
_cell_angle_beta 58.765595
_cell_angle_gamma 90.000000
_cell_volume 2193.015812
_symmetry_space_group_name_H-M "C 2/C"
_symmetry_group_IT_number 15
_symmetry_cell_setting 'monoclinic'
loop_
_space_group_symop_operation_xyz
x,y,z
-x,y,1/2-z
-x,-y,-z
x,-y,1/2+z
1/2+x,1/2+y,z
1/2-x,1/2+y,1/2-z
1/2-x,1/2-y,-z
1/2+x,1/2-y,1/2+z
loop_
_atom_site_type_symbol
_atom_site_label
_atom_site_fract_x
_atom_site_fract_y
_atom_site_fract_z
Si Si1 0.322930 0.840198 0.814714
Si Si2 0.372945 0.317348 0.510878
Si Si3 0.500000 0.418054 0.250000
Si Si4 0.982919 0.214069 0.089180
Si Si5 0.726427 0.657225 0.226486
Si Si6 0.500000 0.902486 0.250000
Si Si7 0.570359 0.087983 0.411177
Si Si8 0.722666 0.493565 0.054132
O O1 0.409850 0.685531 0.808769
O O2 0.166425 0.836723 0.860135
O O3 0.319656 0.839690 0.754155
O O4 0.412755 0.991508 0.808855
O O5 0.474944 0.344762 0.533181
O O6 0.460042 0.222734 0.448633
O O7 0.295206 0.462601 0.501893
O O8 0.262153 0.191786 0.558298
O O9 0.615953 0.516034 0.251799
O O10 0.986827 0.408920 0.088888
O O11 0.095641 0.111137 0.093171
O O12 0.620383 0.803405 0.248316
O O13 0.822220 0.638776 0.156032
O O14 0.652601 0.073486 0.445401
#
# Coordination Sequence:
#
# PCOD9292670 Si02
#       8
#     8   8   4   8   8   4   8   8
#     4  11  24  43  64  98 129 168 220 272 325 395
#     4  10  24  46  65  99 133 170 224 270 324 391
#     4  10  22  44  66  86 134 172 212 272 328 386
#     4  11  23  42  70  96 130 174 220 270 328 390
#     4  11  24  42  66  95 132 170 214 271 330 392
#     4  10  26  42  62  96 128 170 224 262 326 396
#     4  11  25  43  67  99 131 171 222 270 325 397
#     4  10  23  43  66  92 130 171 209 268 324 373
#
# _framework density 25.535610999999999
#
# number of rings (size 3 to 8) (size 9 to 14) (size 15 to 20)
#    0.000    1.429    1.429    3.000    6.000    3.429 
#    7.714    1.429    0.000    0.000    0.000    0.000 
#    0.000    0.000    0.000    0.000    0.000    0.000 
#
# Total GULP energy -156107.920818 kJ/mol
# GULP energy per Si atom -5575.282886 kJ/mol
# Density = 2.547749 g / cm^3
# Si number density = 25.535611 Si / 1000 Ang^3
#
#
#
# Elastic Constant Matrix: (Units=GPa)
#
#
# Indices 1 2 3 4 5 6 
#
# 1 139.9603 28.4233 31.3285 0.0000 -24.3389 0.0000
# 2 28.4233 64.7779 31.7756 0.0000 -23.1363 0.0000
# 3 31.3285 31.7756 107.3253 0.0000 -25.2077 0.0000
# 4 0.0000 0.0000 0.0000 25.1032 0.0000 -5.9921
# 5 -24.3389 -23.1363 -25.2077 0.0000 46.3693 0.0000
# 6 0.0000 0.0000 0.0000 -5.9921 0.0000 77.7885
#
#
#
# Elastic Compliance Matrix: (Units=1/GPa)
#
#
# Indices 1 2 3 4 5 6 
#
# 1 0.008300 -0.002116 -0.001170 0.000000 0.002664 0.000000
# 2 -0.002116 0.020825 -0.003861 0.000000 0.007181 0.000000
# 3 -0.001170 -0.003861 0.011699 0.000000 0.003819 0.000000
# 4 0.000000 0.000000 0.000000 0.040582 0.000000 0.003126
# 5 0.002664 0.007181 0.003819 0.000000 0.028624 0.000000
# 6 0.000000 0.000000 0.000000 0.003126 0.000000 0.013096
#
#
# Mechanical properties :
#
#
# Convention : Reuss Voigt Hill
#
# Bulk Modulus (GPa) = 37.69555 55.01316 46.35435
# Shear Modulus (GPa) = 34.18479 44.55461 39.36970
#
# Velocity S-wave (km/s) = 3.66281 4.18162 3.93078
# Velocity P-wave (km/s) = 5.71684 6.70112 6.22845
#
# Compressibility (1/GPa) = 0.02652833
#
# Stress axis : x y z
#
# Youngs Moduli (GPa) = 120.48251 48.02002 85.47497
#
# Poissons Ratio (x) = 0.10161 0.10005
# Poissons Ratio (y) = 0.25495 0.33004
# Poissons Ratio (z) = 0.14102 0.18542
#
# Static dielectric constant tensor:
#      x y z
#    x 1.926420 0.000000 0.028840 
#    y 0.000000 2.165540 0.000000 
#    z 0.028840 0.000000 2.075790 
# 
# From -- ./inp_files/310247.got.cif
#   From: 2010.05.17/outbox.cif.g08.bks.cpg/sg15_156_cif.got.tgz:310247.got - 2010.06.03 18:47:42.
