data_PCOD9292693
_publ_section_title
;
Structure prediction by ZEFSAII (Michael W. Deem and Ramdas Pophale) SiO2 
 PCOD9292693
Probable space group: C 2/C
;
_chemical_formula_sum "Si O2"
_cell_formula_units_Z 56
_cell_length_a 15.311832
_cell_length_b 12.555397
_cell_length_c 31.434184
_cell_angle_alpha 90.000000
_cell_angle_beta 24.053637
_cell_angle_gamma 90.000000
_cell_volume 2463.117326
_symmetry_space_group_name_H-M "C 2/C"
_symmetry_group_IT_number 15
_symmetry_cell_setting 'monoclinic'
loop_
_space_group_symop_operation_xyz
x,y,z
-x,y,1/2-z
-x,-y,-z
x,-y,1/2+z
1/2+x,1/2+y,z
1/2-x,1/2+y,1/2-z
1/2-x,1/2-y,-z
1/2+x,1/2-y,1/2+z
loop_
_atom_site_type_symbol
_atom_site_label
_atom_site_fract_x
_atom_site_fract_y
_atom_site_fract_z
Si Si1 0.551533 0.305775 0.047265
Si Si2 0.463438 0.893375 0.812772
Si Si3 0.214646 0.583863 0.984936
Si Si4 0.876751 0.474094 0.189359
Si Si5 0.185984 0.912150 0.416337
Si Si6 0.989307 0.951353 0.805345
Si Si7 0.623546 0.229178 0.599848
O O1 0.771515 0.332660 0.922646
O O2 0.548587 0.179543 0.051889
O O3 0.591230 0.362131 0.074703
O O4 0.352316 0.352078 0.110504
O O5 0.500000 0.841551 0.750000
O O6 0.648633 0.931408 0.763279
O O7 0.381835 0.011228 0.837500
O O8 0.293959 0.526591 0.907695
O O9 0.104192 0.502067 0.065932
O O10 0.695733 0.492482 0.234816
O O11 0.923717 0.352691 0.182361
O O12 0.203441 0.826378 0.445595
O O13 0.000000 0.000000 0.500000
O O14 0.000000 0.942281 0.750000
O O15 0.954989 0.837167 0.842886
O O16 0.750000 0.250000 0.500000
#
# Coordination Sequence:
#
# PCOD9292693 Si02
#       7
#     8   8   8   8   8   8   8
#     4   9  20  37  67  95 129 187 227 280 357 419
#     4   9  19  35  60 102 135 165 231 290 342 411
#     4  10  22  44  66  95 143 182 236 287 361 432
#     4  10  24  45  69  97 140 189 226 295 359 418
#     4   9  20  37  64  98 128 173 235 286 343 406
#     4  12  29  45  70 108 146 186 241 297 361 441
#     4  11  24  46  72 103 140 192 242 293 363 431
#
# _framework density 22.735417999999999
#
# number of rings (size 3 to 8) (size 9 to 14) (size 15 to 20)
#    0.000    2.000    1.429    0.857    4.000    9.143 
#    0.000    0.000    0.000    0.000    0.000    0.000 
#    0.000    0.000    0.000    0.000    0.000    0.000 
#
# Total GULP energy -156236.316395 kJ/mol
# GULP energy per Si atom -5579.868443 kJ/mol
# Density = 2.268367 g / cm^3
# Si number density = 22.735418 Si / 1000 Ang^3
#
#
#
# Elastic Constant Matrix: (Units=GPa)
#
#
# Indices 1 2 3 4 5 6 
#
# 1 112.4569 40.4937 32.3129 -0.0022 14.1797 0.0003
# 2 40.4937 120.0499 27.1292 0.0003 14.1654 -0.0003
# 3 32.3129 27.1292 56.8912 0.0082 34.0218 0.0061
# 4 -0.0022 0.0003 0.0082 21.5045 0.0091 4.7676
# 5 14.1797 14.1654 34.0218 0.0091 42.5315 -0.0014
# 6 0.0003 -0.0003 0.0061 4.7676 -0.0014 33.1779
#
#
#
# Elastic Compliance Matrix: (Units=1/GPa)
#
#
# Indices 1 2 3 4 5 6 
#
# 1 0.011462 -0.002638 -0.006695 0.000003 0.002413 0.000001
# 2 -0.002638 0.009960 -0.003438 0.000001 0.000312 0.000001
# 3 -0.006695 -0.003438 0.040258 -0.000002 -0.028826 -0.000008
# 4 0.000003 0.000001 -0.000002 0.048032 -0.000010 -0.006902
# 5 0.002413 0.000312 -0.028826 -0.000010 0.045662 0.000009
# 6 0.000001 0.000001 -0.000008 -0.006902 0.000009 0.031132
#
#
# Mechanical properties :
#
#
# Convention : Reuss Voigt Hill
#
# Bulk Modulus (GPa) = 27.67195 54.36328 41.01761
# Shear Modulus (GPa) = 22.31218 32.07362 27.19290
#
# Velocity S-wave (km/s) = 3.13610 3.76005 3.46216
# Velocity P-wave (km/s) = 5.03103 6.54323 5.83631
#
# Compressibility (1/GPa) = 0.03613768
#
# Stress axis : x y z
#
# Youngs Moduli (GPa) = 87.24797 100.40470 24.83989
#
# Poissons Ratio (x) = 0.26485 0.16630
# Poissons Ratio (y) = 0.23015 0.08540
# Poissons Ratio (z) = 0.58411 0.34519
#
# Static dielectric constant tensor:
#      x y z
#    x 1.956180 0.000020 0.026220 
#    y 0.000020 2.784140 0.000160 
#    z 0.026220 0.000160 1.914220 
# 
# From -- ./inp_files/313727.got.cif
#   From: 2010.05.17/outbox.cif.g08.bks.cpg/sg15_157_cif.got.tgz:313727.got - 2010.06.03 18:47:42.
