data_PCOD9292070
_publ_section_title
;
Structure prediction by ZEFSAII (Michael W. Deem and Ramdas Pophale) SiO2 
 PCOD9292070
Probable space group: C 2/C
;
_chemical_formula_sum "Si O2"
_cell_formula_units_Z 56
_cell_length_a 23.168206
_cell_length_b 9.169823
_cell_length_c 22.715704
_cell_angle_alpha 90.000000
_cell_angle_beta 30.305741
_cell_angle_gamma 90.000000
_cell_volume 2435.224305
_symmetry_space_group_name_H-M "C 2/C"
_symmetry_group_IT_number 15
_symmetry_cell_setting 'monoclinic'
loop_
_space_group_symop_operation_xyz
x,y,z
-x,y,1/2-z
-x,-y,-z
x,-y,1/2+z
1/2+x,1/2+y,z
1/2-x,1/2+y,1/2-z
1/2-x,1/2-y,-z
1/2+x,1/2-y,1/2+z
loop_
_atom_site_type_symbol
_atom_site_label
_atom_site_fract_x
_atom_site_fract_y
_atom_site_fract_z
Si Si1 0.563409 0.884280 0.819309
Si Si2 0.553243 0.291926 0.579739
Si Si3 0.686984 0.663091 0.271574
Si Si4 0.650774 0.647613 0.667142
Si Si5 0.500000 0.394414 0.750000
Si Si6 0.500000 0.127133 0.250000
Si Si7 0.853353 0.513593 0.547439
Si Si8 0.700049 0.460523 0.359324
O O1 0.589715 0.717746 0.778560
O O2 0.510796 0.947225 0.803722
O O3 0.474166 0.906664 0.950328
O O4 0.680503 0.966592 0.726856
O O5 0.422438 0.300307 0.672122
O O6 0.555366 0.308606 0.647768
O O7 0.611058 0.140868 0.511104
O O8 0.624306 0.415162 0.481997
O O9 0.644111 0.587672 0.369135
O O10 0.764767 0.808962 0.204746
O O11 0.768620 0.536616 0.173201
O O12 0.593869 0.498426 0.697415
O O13 0.611907 0.766956 0.653097
O O14 0.780163 0.618089 0.569530
#
# Coordination Sequence:
#
# PCOD9292070 Si02
#       8
#     8   8   8   8   4   4   8   8
#     4  10  22  43  66 107 141 184 236 288 365 421
#     4  11  25  47  71 104 147 189 239 296 361 431
#     4  11  25  49  67 107 141 188 252 295 355 435
#     4   9  21  42  62 105 140 179 237 288 346 430
#     4  11  22  45  72 106 141 186 237 292 361 442
#     4   7  20  39  62  96 139 176 233 286 341 430
#     4  11  23  43  72  99 148 186 238 300 351 430
#     4  11  26  46  73 102 144 193 243 302 356 423
#
# _framework density 22.995827999999999
#
# number of rings (size 3 to 8) (size 9 to 14) (size 15 to 20)
#    0.857    0.857    2.857    0.429    2.000    4.571 
#    0.000    0.000    0.000    0.000    0.000    0.000 
#    0.000    0.000    0.000    0.000    0.000    0.000 
#
# Total GULP energy -156186.996929 kJ/mol
# GULP energy per Si atom -5578.107033 kJ/mol
# Density = 2.294349 g / cm^3
# Si number density = 22.995828 Si / 1000 Ang^3
#
#
#
# Elastic Constant Matrix: (Units=GPa)
#
#
# Indices 1 2 3 4 5 6 
#
# 1 44.6261 30.2631 9.4633 0.0000 9.6753 0.0000
# 2 30.2631 54.7609 17.6012 0.0005 18.1023 -0.0003
# 3 9.4633 17.6012 84.8424 0.0001 10.3863 -0.0001
# 4 0.0000 0.0005 0.0001 174.8060 -0.0001 -1.9892
# 5 9.6753 18.1023 10.3863 -0.0001 27.5564 0.0000
# 6 0.0000 -0.0003 -0.0001 -1.9892 0.0000 37.6474
#
#
#
# Elastic Compliance Matrix: (Units=1/GPa)
#
#
# Indices 1 2 3 4 5 6 
#
# 1 0.035847 -0.020014 0.000089 0.000000 0.000527 0.000000
# 2 -0.020014 0.035309 -0.003264 0.000000 -0.014938 0.000000
# 3 0.000089 -0.003264 0.012785 0.000000 -0.002706 0.000000
# 4 0.000000 0.000000 0.000000 0.005724 0.000000 0.000302
# 5 0.000527 -0.014938 -0.002706 0.000000 0.046937 0.000000
# 6 0.000000 0.000000 0.000000 0.000302 0.000000 0.026578
#
#
# Mechanical properties :
#
#
# Convention : Reuss Voigt Hill
#
# Bulk Modulus (GPa) = 26.62154 33.20937 29.91546
# Shear Modulus (GPa) = 22.51453 56.46210 39.48832
#
# Velocity S-wave (km/s) = 3.13240 4.96049 4.14840
# Velocity P-wave (km/s) = 4.96834 6.87615 5.99858
#
# Compressibility (1/GPa) = 0.03756357
#
# Stress axis : x y z
#
# Youngs Moduli (GPa) = 27.89598 28.32166 78.21649
#
# Poissons Ratio (x) = 0.56682 -0.00696
# Poissons Ratio (y) = 0.55830 0.25530
# Poissons Ratio (z) = -0.00248 0.09244
#
# Static dielectric constant tensor:
#      x y z
#    x 1.885740 0.000000 0.060400 
#    y 0.000000 1.860700 0.000000 
#    z 0.060400 0.000000 1.915480 
# 
# From -- ./inp_files/281888.got.cif
#   From: 2010.05.17/outbox.cif.g08.bks.cpg/sg15_141_cif.got.tgz:281888.got - 2010.06.03 18:47:42.
