data_PCOD9292294
_publ_section_title
;
Structure prediction by ZEFSAII (Michael W. Deem and Ramdas Pophale) SiO2 
 PCOD9292294
Probable space group: C 2/C
;
_chemical_formula_sum "Si O2"
_cell_formula_units_Z 56
_cell_length_a 23.811867
_cell_length_b 15.581240
_cell_length_c 7.915720
_cell_angle_alpha 90.000000
_cell_angle_beta 115.473299
_cell_angle_gamma 90.000000
_cell_volume 2651.371690
_symmetry_space_group_name_H-M "C 2/C"
_symmetry_group_IT_number 15
_symmetry_cell_setting 'monoclinic'
loop_
_space_group_symop_operation_xyz
x,y,z
-x,y,1/2-z
-x,-y,-z
x,-y,1/2+z
1/2+x,1/2+y,z
1/2-x,1/2+y,1/2-z
1/2-x,1/2-y,-z
1/2+x,1/2-y,1/2+z
loop_
_atom_site_type_symbol
_atom_site_label
_atom_site_fract_x
_atom_site_fract_y
_atom_site_fract_z
Si Si1 0.213155 0.112011 0.654583
Si Si2 0.352723 0.848158 0.807636
Si Si3 0.230682 0.083775 0.284539
Si Si4 0.821745 0.744862 0.922132
Si Si5 0.455784 0.737339 0.412558
Si Si6 0.517912 0.906874 0.582103
Si Si7 0.417155 0.312383 0.504321
O O1 0.211481 0.106645 0.449291
O O2 0.267682 0.182466 0.769235
O O3 0.142636 0.132674 0.622473
O O4 0.224143 0.016405 0.737487
O O5 0.302548 0.897526 0.847733
O O6 0.326805 0.793709 0.616385
O O7 0.407729 0.907261 0.817267
O O8 0.386930 0.781495 0.970899
O O9 0.198926 0.155599 0.122495
O O10 0.892277 0.747768 0.936247
O O11 0.483497 0.833715 0.426801
O O12 0.522938 0.690436 0.543413
O O13 0.437409 0.680650 0.225258
O O14 0.500000 0.885619 0.750000
O O15 0.500000 0.000000 0.500000
#
# Coordination Sequence:
#
# PCOD9292294 Si02
#       7
#     8   8   8   8   8   8   8
#     4  12  26  44  68 102 137 176 230 282 342 402
#     4  11  24  41  67  98 136 175 219 275 335 404
#     4  12  26  42  68 101 136 179 225 281 338 404
#     4  12  23  45  70  98 136 179 227 280 338 408
#     4  10  22  43  69  91 126 185 221 270 339 398
#     4  11  25  40  60  96 134 170 220 273 333 406
#     4  10  22  43  69  93 131 174 224 269 335 397
#
# _framework density 21.121141999999999
#
# number of rings (size 3 to 8) (size 9 to 14) (size 15 to 20)
#    0.000    0.857    4.286    2.571    8.000    1.143 
#    0.000    0.714    0.000    0.000    0.000    0.000 
#    0.000    0.000    0.000    0.000    0.000    0.000 
#
# Total GULP energy -155877.363658 kJ/mol
# GULP energy per Si atom -5567.048702 kJ/mol
# Density = 2.107307 g / cm^3
# Si number density = 21.121142 Si / 1000 Ang^3
#
#
#
# Elastic Constant Matrix: (Units=GPa)
#
#
# Indices 1 2 3 4 5 6 
#
# 1 128.6257 36.6977 17.2236 0.0000 38.4550 0.0000
# 2 36.6977 74.9383 9.7531 0.0000 19.6002 0.0000
# 3 17.2236 9.7531 39.7185 0.0000 12.6276 0.0000
# 4 0.0000 0.0000 0.0000 2.9474 0.0000 -51.4236
# 5 38.4550 19.6002 12.6276 0.0000 31.4147 0.0000
# 6 0.0000 0.0000 0.0000 -51.4236 0.0000 -104.5558
#
#
#
# Elastic Compliance Matrix: (Units=1/GPa)
#
#
# Indices 1 2 3 4 5 6 
#
# 1 0.012671 -0.002552 -0.000508 0.000000 -0.013714 0.000000
# 2 -0.002552 0.016486 -0.000762 0.000000 -0.006856 0.000000
# 3 -0.000508 -0.000762 0.028933 0.000000 -0.010533 0.000000
# 4 0.000000 0.000000 0.000000 0.035412 0.000000 -0.017417
# 5 -0.013714 -0.006856 -0.010533 0.000000 0.057131 0.000000
# 6 0.000000 0.000000 0.000000 -0.017417 0.000000 -0.000998
#
#
# Mechanical properties :
#
#
# Convention : Reuss Voigt Hill
#
# Bulk Modulus (GPa) = 19.82289 41.18125 30.50207
# Shear Modulus (GPa) = 28.72013 -2.06487 13.32763
#
# Velocity S-wave (km/s) = 3.69152 -0.98983 2.51471
# Velocity P-wave (km/s) = 5.25124 4.27009 4.78587
#
# Compressibility (1/GPa) = 0.05044674
#
# Stress axis : x y z
#
# Youngs Moduli (GPa) = 78.92299 60.65615 34.56230
#
# Poissons Ratio (x) = 0.15479 0.01755
# Poissons Ratio (y) = 0.20140 0.02634
# Poissons Ratio (z) = 0.04008 0.04622
#
# Static dielectric constant tensor:
#      x y z
#    x 1.869700 0.000000 0.038150 
#    y 0.000000 1.762370 0.000000 
#    z 0.038150 0.000000 1.820790 
# 
# From -- ./inp_files/62003.got.cif
#   From: 2010.05.17/outbox.cif.g08.bks.cpg/sg15_32_cif.got.tgz:62003.got - 2010.06.03 18:47:42.
