data_PCOD9292839
_publ_section_title
;
Structure prediction by ZEFSAII (Michael W. Deem and Ramdas Pophale) SiO2 
 PCOD9292839
Probable space group: C 2/C
;
_chemical_formula_sum "Si O2"
_cell_formula_units_Z 36
_cell_length_a 25.222997
_cell_length_b 5.504882
_cell_length_c 28.321983
_cell_angle_alpha 90.000000
_cell_angle_beta 159.711741
_cell_angle_gamma 90.000000
_cell_volume 1363.567463
_symmetry_space_group_name_H-M "C 2/C"
_symmetry_group_IT_number 15
_symmetry_cell_setting 'monoclinic'
loop_
_space_group_symop_operation_xyz
x,y,z
-x,y,1/2-z
-x,-y,-z
x,-y,1/2+z
1/2+x,1/2+y,z
1/2-x,1/2+y,1/2-z
1/2-x,1/2-y,-z
1/2+x,1/2-y,1/2+z
loop_
_atom_site_type_symbol
_atom_site_label
_atom_site_fract_x
_atom_site_fract_y
_atom_site_fract_z
Si Si1 0.207687 0.924160 0.139882
Si Si2 0.389113 0.241817 0.078069
Si Si3 0.500000 0.022275 0.750000
Si Si4 0.890903 0.297761 0.386769
Si Si5 0.788996 0.761916 0.456883
O O1 0.283881 0.829448 0.251931
O O2 0.271294 0.804520 0.146443
O O3 0.214247 0.209250 0.157416
O O4 0.025224 0.883118 0.981936
O O5 0.523726 0.157494 0.225450
O O6 0.250000 0.250000 0.000000
O O7 0.393362 0.501364 0.056540
O O8 0.362018 0.003364 0.023209
O O9 0.355636 0.200612 0.629230
O O10 0.000000 0.500000 0.500000
#
# Coordination Sequence:
#
# PCOD9292839 Si02
#       5
#     8   8   4   8   8
#     4  11  26  44  73 106 140 193 240 299 369 434
#     4  10  23  44  62  98 137 180 234 287 351 417
#     4  10  22  44  68  96 140 182 228 294 356 420
#     4  11  24  48  71 101 147 186 240 304 365 434
#     4  11  26  41  71 102 138 185 238 293 355 432
#
# _framework density 26.401332
#
# number of rings (size 3 to 8) (size 9 to 14) (size 15 to 20)
#    0.000    1.333    2.222    2.667    6.222    8.000 
#    0.000    0.000    0.000    0.000    0.000    0.000 
#    0.000    0.000    0.000    0.000    0.000    0.000 
#
# Total GULP energy -100400.774318 kJ/mol
# GULP energy per Si atom -5577.820795 kJ/mol
# Density = 2.634124 g / cm^3
# Si number density = 26.401332 Si / 1000 Ang^3
#
#
#
# Elastic Constant Matrix: (Units=GPa)
#
#
# Indices 1 2 3 4 5 6 
#
# 1 66.4481 40.2447 26.4780 0.0047 -36.6638 -0.0049
# 2 40.2447 137.9373 48.7642 -0.0968 -32.7216 0.0364
# 3 26.4780 48.7642 136.9052 0.0010 -32.0055 0.0044
# 4 0.0047 -0.0968 0.0010 56.6769 0.0040 -2.9443
# 5 -36.6638 -32.7216 -32.0055 0.0040 48.2251 0.0077
# 6 -0.0049 0.0364 0.0044 -2.9443 0.0077 28.5616
#
#
#
# Elastic Compliance Matrix: (Units=1/GPa)
#
#
# Indices 1 2 3 4 5 6 
#
# 1 0.027387 -0.003721 0.000362 -0.000010 0.018537 0.000003
# 2 -0.003721 0.009646 -0.002187 0.000016 0.002264 -0.000012
# 3 0.000362 -0.002187 0.009150 -0.000004 0.004865 0.000000
# 4 -0.000010 0.000016 -0.000004 0.017739 -0.000001 0.001829
# 5 0.018537 0.002264 0.004865 -0.000001 0.039594 -0.000011
# 6 0.000003 -0.000012 0.000000 0.001829 -0.000011 0.035201
#
#
# Mechanical properties :
#
#
# Convention : Reuss Voigt Hill
#
# Bulk Modulus (GPa) = 28.49700 63.58495 46.04097
# Shear Modulus (GPa) = 30.95904 41.74630 36.35267
#
# Velocity S-wave (km/s) = 3.42809 3.98077 3.71472
# Velocity P-wave (km/s) = 5.14648 6.72792 5.98962
#
# Compressibility (1/GPa) = 0.03509142
#
# Stress axis : x y z
#
# Youngs Moduli (GPa) = 36.51427 103.67473 109.28557
#
# Poissons Ratio (x) = 0.38579 -0.03958
# Poissons Ratio (y) = 0.13587 0.23896
# Poissons Ratio (z) = -0.01323 0.22669
#
# Static dielectric constant tensor:
#      x y z
#    x 2.178330 -0.000020 -0.023390 
#    y -0.000020 2.333590 0.000030 
#    z -0.023390 0.000030 2.233560 
# 
# From -- ./inp_files/319894.got.cif
#   From: 2010.05.17/outbox.cif.g08.bks.cpg/sg15_160_cif.got.tgz:319894.got - 2010.06.03 18:47:42.
