data_PCOD9292334
_publ_section_title
;
Structure prediction by ZEFSAII (Michael W. Deem and Ramdas Pophale) SiO2 
 PCOD9292334
Probable space group: C 2/C
;
_chemical_formula_sum "Si O2"
_cell_formula_units_Z 48
_cell_length_a 21.740679
_cell_length_b 7.446031
_cell_length_c 27.228413
_cell_angle_alpha 90.000000
_cell_angle_beta 28.650838
_cell_angle_gamma 90.000000
_cell_volume 2113.403108
_symmetry_space_group_name_H-M "C 2/C"
_symmetry_group_IT_number 15
_symmetry_cell_setting 'monoclinic'
loop_
_space_group_symop_operation_xyz
x,y,z
-x,y,1/2-z
-x,-y,-z
x,-y,1/2+z
1/2+x,1/2+y,z
1/2-x,1/2+y,1/2-z
1/2-x,1/2-y,-z
1/2+x,1/2-y,1/2+z
loop_
_atom_site_type_symbol
_atom_site_label
_atom_site_fract_x
_atom_site_fract_y
_atom_site_fract_z
Si Si1 0.035936 0.599869 0.852492
Si Si2 0.593160 0.736939 0.517273
Si Si3 0.715469 0.793803 0.144714
Si Si4 0.849016 0.916123 0.961331
Si Si5 0.503172 0.203428 0.977408
Si Si6 0.144459 0.926916 0.150372
O O1 0.142110 0.592176 0.736496
O O2 0.925055 0.729003 0.908464
O O3 0.080906 0.696488 0.871816
O O4 0.980591 0.409131 0.908638
O O5 0.568657 0.567048 0.568447
O O6 0.555098 0.692504 0.488083
O O7 0.742839 0.792630 0.413936
O O8 0.649177 0.600092 0.182930
O O9 0.729062 0.884858 0.081866
O O10 0.859690 0.756837 0.062428
O O11 0.822381 0.995613 0.926841
O O12 0.500000 0.000000 0.000000
O O13 0.000000 0.853355 0.250000
#
# Coordination Sequence:
#
# PCOD9292334 Si02
#       6
#     8   8   8   8   8   8
#     4  10  22  43  69  99 131 174 218 269 331 392
#     4  11  24  46  66  97 138 172 214 280 328 381
#     4  11  22  42  69 100 127 177 223 265 333 388
#     4  11  24  42  68  95 133 175 215 271 330 390
#     4   9  19  44  67  92 136 170 209 278 327 379
#     4  12  23  42  69  94 132 175 219 270 326 390
#
# _framework density 22.712184000000001
#
# number of rings (size 3 to 8) (size 9 to 14) (size 15 to 20)
#    0.000    1.333    6.667    1.000    0.000    4.000 
#   15.000    0.833    0.000    0.000    0.000    0.000 
#    0.000    0.000    0.000    0.000    0.000    0.000 
#
# Total GULP energy -134161.424064 kJ/mol
# GULP energy per Si atom -5590.059336 kJ/mol
# Density = 2.266049 g / cm^3
# Si number density = 22.712184 Si / 1000 Ang^3
#
#
#
# Elastic Constant Matrix: (Units=GPa)
#
#
# Indices 1 2 3 4 5 6 
#
# 1 130.0928 2.6210 31.1569 0.0103 6.8499 -0.0114
# 2 2.6210 63.5930 3.6039 0.0164 -1.8040 0.0077
# 3 31.1569 3.6039 118.8676 0.0030 18.0646 -0.0027
# 4 0.0103 0.0164 0.0030 11.0900 0.0019 0.4031
# 5 6.8499 -1.8040 18.0646 0.0019 29.3070 0.0027
# 6 -0.0114 0.0077 -0.0027 0.4031 0.0027 24.6859
#
#
#
# Elastic Compliance Matrix: (Units=1/GPa)
#
#
# Indices 1 2 3 4 5 6 
#
# 1 0.008217 -0.000242 -0.002044 -0.000007 -0.000676 0.000004
# 2 -0.000242 0.015811 -0.000632 -0.000023 0.001419 -0.000005
# 3 -0.002044 -0.000632 0.009821 0.000001 -0.005615 0.000001
# 4 -0.000007 -0.000023 0.000001 0.090225 -0.000006 -0.001473
# 5 -0.000676 0.001419 -0.005615 -0.000006 0.037828 -0.000005
# 6 0.000004 -0.000005 0.000001 -0.001473 -0.000005 0.040533
#
#
# Mechanical properties :
#
#
# Convention : Reuss Voigt Hill
#
# Bulk Modulus (GPa) = 35.69646 43.03524 39.36585
# Shear Modulus (GPa) = 22.97723 31.36136 27.16930
#
# Velocity S-wave (km/s) = 3.18413 3.71997 3.46243
# Velocity P-wave (km/s) = 5.41010 6.11883 5.77535
#
# Compressibility (1/GPa) = 0.02801398
#
# Stress axis : x y z
#
# Youngs Moduli (GPa) = 121.70283 63.24694 101.82435
#
# Poissons Ratio (x) = 0.01531 0.20810
# Poissons Ratio (y) = 0.02945 0.06431
# Poissons Ratio (z) = 0.24873 0.03995
#
# Static dielectric constant tensor:
#      x y z
#    x 1.896120 0.000000 0.000010 
#    y 0.000000 1.878010 0.000000 
#    z 0.000010 0.000000 1.846540 
# 
# From -- ./inp_files/300461.got.cif
#   From: 2010.05.17/outbox.cif.g08.bks.cpg/sg15_151_cif.got.tgz:300461.got - 2010.06.03 18:47:42.
