data_PCOD9292319
_publ_section_title
;
Structure prediction by ZEFSAII (Michael W. Deem and Ramdas Pophale) SiO2 
 PCOD9292319
Probable space group: C 2/C
;
_chemical_formula_sum "Si O2"
_cell_formula_units_Z 40
_cell_length_a 5.093755
_cell_length_b 18.363870
_cell_length_c 18.649391
_cell_angle_alpha 90.000000
_cell_angle_beta 105.749936
_cell_angle_gamma 90.000000
_cell_volume 1678.988003
_symmetry_space_group_name_H-M "C 2/C"
_symmetry_group_IT_number 15
_symmetry_cell_setting 'monoclinic'
loop_
_space_group_symop_operation_xyz
x,y,z
-x,y,1/2-z
-x,-y,-z
x,-y,1/2+z
1/2+x,1/2+y,z
1/2-x,1/2+y,1/2-z
1/2-x,1/2-y,-z
1/2+x,1/2-y,1/2+z
loop_
_atom_site_type_symbol
_atom_site_label
_atom_site_fract_x
_atom_site_fract_y
_atom_site_fract_z
Si Si1 0.972499 0.094504 0.449751
Si Si2 0.918334 0.404248 0.442957
Si Si3 0.025527 0.523159 0.335424
Si Si4 0.579596 0.249967 0.914872
Si Si5 0.193223 0.684017 0.198874
O O1 0.806973 0.091680 0.511994
O O2 0.834915 0.037292 0.385617
O O3 0.289130 0.086383 0.494212
O O4 0.921925 0.173639 0.409671
O O5 0.918371 0.325042 0.405216
O O6 0.902849 0.464359 0.380142
O O7 0.886454 0.602729 0.331873
O O8 0.000000 0.502683 0.250000
O O9 0.786489 0.259311 0.864442
O O10 0.750000 0.250000 0.000000
O O11 0.500000 0.679925 0.250000
O O12 0.000000 0.705621 0.250000
#
# Coordination Sequence:
#
# PCOD9292319 Si02
#       5
#     8   8   8   8   8
#     4  11  23  43  68  96 130 173 217 264 325 395
#     4  11  25  42  67 100 132 166 216 279 328 373
#     4  11  24  43  66  96 131 174 219 267 322 390
#     4  10  22  43  69  97 126 168 218 267 318 385
#     4  11  25  43  67  95 132 177 219 263 325 397
#
# _framework density 23.823875000000001
#
# number of rings (size 3 to 8) (size 9 to 14) (size 15 to 20)
#    0.000    1.200    0.000    6.600    0.000   10.400 
#    0.000    0.000    0.000    4.800    0.000    0.000 
#    0.000    0.000    0.000    0.000    0.000    0.000 
#
# Total GULP energy -112064.983793 kJ/mol
# GULP energy per Si atom -5603.249190 kJ/mol
# Density = 2.376965 g / cm^3
# Si number density = 23.823875 Si / 1000 Ang^3
#
#
#
# Elastic Constant Matrix: (Units=GPa)
#
#
# Indices 1 2 3 4 5 6 
#
# 1 127.6469 15.4004 52.9982 0.0000 -20.3284 0.0000
# 2 15.4004 89.3287 60.2040 0.0000 -15.7875 0.0000
# 3 52.9982 60.2040 185.7537 0.0000 -31.9057 0.0000
# 4 0.0000 0.0000 0.0000 49.4467 0.0000 -7.3965
# 5 -20.3284 -15.7875 -31.9057 0.0000 23.4139 0.0000
# 6 0.0000 0.0000 0.0000 -7.3965 0.0000 19.7326
#
#
#
# Elastic Compliance Matrix: (Units=1/GPa)
#
#
# Indices 1 2 3 4 5 6 
#
# 1 0.009514 0.000724 -0.001889 0.000000 0.006175 0.000000
# 2 0.000724 0.014726 -0.004133 0.000000 0.004926 0.000000
# 3 -0.001889 -0.004133 0.008488 0.000000 0.007140 0.000000
# 4 0.000000 0.000000 0.000000 0.021425 0.000000 0.008031
# 5 0.006175 0.004926 0.007140 0.000000 0.061122 0.000000
# 6 0.000000 0.000000 0.000000 0.008031 0.000000 0.053688
#
#
# Mechanical properties :
#
#
# Convention : Reuss Voigt Hill
#
# Bulk Modulus (GPa) = 45.18185 73.32606 59.25396
# Shear Modulus (GPa) = 26.74691 36.79373 31.77032
#
# Velocity S-wave (km/s) = 3.35430 3.93416 3.65574
# Velocity P-wave (km/s) = 5.83163 7.17510 6.53796
#
# Compressibility (1/GPa) = 0.02213278
#
# Stress axis : x y z
#
# Youngs Moduli (GPa) = 105.10497 67.90705 117.80824
#
# Poissons Ratio (x) = -0.04916 0.22248
# Poissons Ratio (y) = -0.07608 0.48694
# Poissons Ratio (z) = 0.19849 0.28068
#
# Static dielectric constant tensor:
#      x y z
#    x 1.926280 0.000000 0.016200 
#    y 0.000000 1.965170 0.000000 
#    z 0.016200 0.000000 1.898480 
# 
# From -- ./inp_files/129115.got.cif
#   From: 2010.05.17/outbox.cif.g08.bks.cpg/sg15_65_cif.got.tgz:129115.got - 2010.06.03 18:47:42.
