data_PCOD9292264
_publ_section_title
;
Structure prediction by ZEFSAII (Michael W. Deem and Ramdas Pophale) SiO2 
 PCOD9292264
Probable space group: C 2/C
;
_chemical_formula_sum "Si O2"
_cell_formula_units_Z 40
_cell_length_a 10.891864
_cell_length_b 9.950163
_cell_length_c 15.971078
_cell_angle_alpha 90.000000
_cell_angle_beta 91.892444
_cell_angle_gamma 90.000000
_cell_volume 1729.934653
_symmetry_space_group_name_H-M "C 2/C"
_symmetry_group_IT_number 15
_symmetry_cell_setting 'monoclinic'
loop_
_space_group_symop_operation_xyz
x,y,z
-x,y,1/2-z
-x,-y,-z
x,-y,1/2+z
1/2+x,1/2+y,z
1/2-x,1/2+y,1/2-z
1/2-x,1/2-y,-z
1/2+x,1/2-y,1/2+z
loop_
_atom_site_type_symbol
_atom_site_label
_atom_site_fract_x
_atom_site_fract_y
_atom_site_fract_z
Si Si1 0.519979 0.282341 0.387199
Si Si2 0.378338 0.909601 0.481983
Si Si3 0.390843 0.982746 0.807200
Si Si4 0.670698 0.614775 0.492775
Si Si5 0.116955 0.967821 0.805156
O O1 0.605802 0.220051 0.461219
O O2 0.443597 0.158632 0.345696
O O3 0.428975 0.377169 0.437309
O O4 0.591249 0.374269 0.323567
O O5 0.500000 0.000000 0.500000
O O6 0.372047 0.909919 0.381537
O O7 0.261637 0.992231 0.509334
O O8 0.500000 0.030010 0.750000
O O9 0.753772 0.456036 0.768993
O O10 0.750000 0.750000 0.500000
O O11 0.622912 0.602101 0.396609
O O12 0.000000 0.918995 0.750000
#
# Coordination Sequence:
#
# PCOD9292264 Si02
#       5
#     8   8   8   8   8
#     4  11  22  44  71  96 136 179 233 288 339 413
#     4   9  19  37  68  97 125 172 232 271 338 403
#     4  10  22  43  68  97 143 182 223 288 348 409
#     4  11  20  42  72  98 137 181 230 288 339 414
#     4  11  25  44  69 106 141 182 233 289 357 411
#
# _framework density 23.122260000000001
#
# number of rings (size 3 to 8) (size 9 to 14) (size 15 to 20)
#    0.000    1.600    6.000    1.200    0.000    6.400 
#    0.000    9.000    0.000    0.000    0.000    0.000 
#    0.000    0.000    0.000    0.000    0.000    0.000 
#
# Total GULP energy -111795.225875 kJ/mol
# GULP energy per Si atom -5589.761294 kJ/mol
# Density = 2.306963 g / cm^3
# Si number density = 23.122260 Si / 1000 Ang^3
#
#
#
# Elastic Constant Matrix: (Units=GPa)
#
#
# Indices 1 2 3 4 5 6 
#
# 1 159.5091 40.6172 52.0452 0.0000 13.2525 0.0000
# 2 40.6172 77.4904 27.1438 0.0000 1.3506 0.0000
# 3 52.0452 27.1438 49.2320 0.0000 17.4420 0.0000
# 4 0.0000 0.0000 0.0000 36.4837 0.0000 1.5319
# 5 13.2525 1.3506 17.4420 0.0000 47.2069 0.0000
# 6 0.0000 0.0000 0.0000 1.5319 0.0000 21.1305
#
#
#
# Elastic Compliance Matrix: (Units=1/GPa)
#
#
# Indices 1 2 3 4 5 6 
#
# 1 0.009814 -0.001754 -0.009722 0.000000 0.000887 0.000000
# 2 -0.001754 0.016745 -0.008494 0.000000 0.003152 0.000000
# 3 -0.009722 -0.008494 0.039374 0.000000 -0.011576 0.000000
# 4 0.000000 0.000000 0.000000 0.027493 0.000000 -0.001993
# 5 0.000887 0.003152 -0.011576 0.000000 0.025121 0.000000
# 6 0.000000 0.000000 0.000000 -0.001993 0.000000 0.047469
#
#
# Mechanical properties :
#
#
# Convention : Reuss Voigt Hill
#
# Bulk Modulus (GPa) = 38.47400 58.42711 48.45056
# Shear Modulus (GPa) = 23.29664 32.05925 27.67795
#
# Velocity S-wave (km/s) = 3.17762 3.72763 3.46356
# Velocity P-wave (km/s) = 5.48986 6.62198 6.08232
#
# Compressibility (1/GPa) = 0.02599158
#
# Stress axis : x y z
#
# Youngs Moduli (GPa) = 101.89020 59.71994 25.39724
#
# Poissons Ratio (x) = 0.10476 0.24692
# Poissons Ratio (y) = 0.17873 0.21573
# Poissons Ratio (z) = 0.99062 0.50729
#
# Static dielectric constant tensor:
#      x y z
#    x 1.869950 0.000000 0.036730 
#    y 0.000000 1.742970 0.000000 
#    z 0.036730 0.000000 1.906030 
# 
# From -- ./inp_files/202310.got.cif
#   From: 2010.05.17/outbox.cif.g08.bks.cpg/sg15_102_cif.got.tgz:202310.got - 2010.06.03 18:47:42.
