data_PCOD9292235
_publ_section_title
;
Structure prediction by ZEFSAII (Michael W. Deem and Ramdas Pophale) SiO2 
 PCOD9292235
Probable space group: C 2/C
;
_chemical_formula_sum "Si O2"
_cell_formula_units_Z 64
_cell_length_a 25.098994
_cell_length_b 7.910837
_cell_length_c 15.844426
_cell_angle_alpha 90.000000
_cell_angle_beta 125.820831
_cell_angle_gamma 90.000000
_cell_volume 2550.917232
_symmetry_space_group_name_H-M "C 2/C"
_symmetry_group_IT_number 15
_symmetry_cell_setting 'monoclinic'
loop_
_space_group_symop_operation_xyz
x,y,z
-x,y,1/2-z
-x,-y,-z
x,-y,1/2+z
1/2+x,1/2+y,z
1/2-x,1/2+y,1/2-z
1/2-x,1/2-y,-z
1/2+x,1/2-y,1/2+z
loop_
_atom_site_type_symbol
_atom_site_label
_atom_site_fract_x
_atom_site_fract_y
_atom_site_fract_z
Si Si1 0.165111 0.481475 0.415023
Si Si2 0.233260 0.480807 0.149591
Si Si3 0.473117 0.341527 0.920765
Si Si4 0.142251 0.359733 0.217017
Si Si5 0.097258 0.862396 0.920170
Si Si6 0.925332 0.196543 0.702681
Si Si7 0.943103 0.662315 0.388508
Si Si8 0.823070 0.817007 0.357972
O O1 0.219097 0.526256 0.536944
O O2 0.184615 0.421598 0.337992
O O3 0.125345 0.315714 0.411632
O O4 0.122226 0.652208 0.369982
O O5 0.178157 0.398702 0.161528
O O6 0.231777 0.680137 0.167955
O O7 0.297916 0.399851 0.249271
O O8 0.397712 0.315423 0.824763
O O9 0.524017 0.334934 0.890118
O O10 0.500000 0.500000 0.000000
O O11 0.488022 0.191610 0.003867
O O12 0.079638 0.488217 0.172648
O O13 0.092635 0.015779 0.850960
O O14 0.150351 0.927193 0.040241
O O15 0.930086 0.195843 0.807204
O O16 0.000000 0.243894 0.750000
O O17 0.888027 0.704053 0.406064
#
# Coordination Sequence:
#
# PCOD9292235 Si02
#       8
#     8   8   8   8   8   8   8   8
#     4  10  25  43  63  98 132 178 218 270 338 394
#     4  10  22  43  68  92 127 172 224 276 331 397
#     4  11  23  36  62  93 127 170 216 267 332 386
#     4  10  23  41  64  93 132 173 220 265 335 398
#     4  10  24  42  60  94 134 167 217 272 327 397
#     4  11  24  37  63  96 130 169 219 262 333 391
#     4   9  21  41  58  91 124 171 216 267 325 399
#     4   9  21  43  64  89 123 170 220 271 336 379
#
# _framework density 25.089015
#
# number of rings (size 3 to 8) (size 9 to 14) (size 15 to 20)
#    0.000    2.000    0.000    1.875   12.250    1.000 
#    2.250    3.125    0.000    0.000    0.000    0.000 
#    0.000    0.000    0.000    0.000    0.000    0.000 
#
# Total GULP energy -178480.156109 kJ/mol
# GULP energy per Si atom -5577.504878 kJ/mol
# Density = 2.503191 g / cm^3
# Si number density = 25.089015 Si / 1000 Ang^3
#
#
#
# Elastic Constant Matrix: (Units=GPa)
#
#
# Indices 1 2 3 4 5 6 
#
# 1 43.5498 11.9961 3.1396 0.0000 3.8759 0.0000
# 2 11.9961 77.6216 37.8858 0.0000 1.4860 0.0000
# 3 3.1396 37.8858 170.6338 0.0000 1.0163 0.0000
# 4 0.0000 0.0000 0.0000 34.7859 0.0000 7.0276
# 5 3.8759 1.4860 1.0163 0.0000 29.0491 0.0000
# 6 0.0000 0.0000 0.0000 7.0276 0.0000 29.4787
#
#
#
# Elastic Compliance Matrix: (Units=1/GPa)
#
#
# Indices 1 2 3 4 5 6 
#
# 1 0.024279 -0.003908 0.000439 0.000000 -0.003055 0.000000
# 2 -0.003908 0.015089 -0.003278 0.000000 -0.000136 0.000000
# 3 0.000439 -0.003278 0.006581 0.000000 -0.000121 0.000000
# 4 0.000000 0.000000 0.000000 0.030202 0.000000 -0.007200
# 5 -0.003055 -0.000136 -0.000121 0.000000 0.034843 0.000000
# 6 0.000000 0.000000 0.000000 -0.007200 0.000000 0.035639
#
#
# Mechanical properties :
#
#
# Convention : Reuss Voigt Hill
#
# Bulk Modulus (GPa) = 30.81078 44.20536 37.50807
# Shear Modulus (GPa) = 29.24917 34.58166 31.91542
#
# Velocity S-wave (km/s) = 3.41811 3.71665 3.57050
# Velocity P-wave (km/s) = 5.28064 6.00630 5.65512
#
# Compressibility (1/GPa) = 0.03245617
#
# Stress axis : x y z
#
# Youngs Moduli (GPa) = 41.18801 66.27211 151.95584
#
# Poissons Ratio (x) = 0.25900 -0.06674
# Poissons Ratio (y) = 0.16097 0.49804
# Poissons Ratio (z) = -0.01809 0.21721
#
# Static dielectric constant tensor:
#      x y z
#    x 3.657540 0.000000 0.190390 
#    y 0.000000 2.086260 0.000000 
#    z 0.190390 0.000000 2.089130 
# 
# From -- ./inp_files/181185.got.cif
#   From: 2010.05.17/outbox.cif.g08.bks.cpg/sg15_91_cif.got.tgz:181185.got - 2010.06.03 18:47:42.
