data_PCOD9292563
_publ_section_title
;
Structure prediction by ZEFSAII (Michael W. Deem and Ramdas Pophale) SiO2 
 PCOD9292563
Probable space group: C 2/C
;
_chemical_formula_sum "Si O2"
_cell_formula_units_Z 48
_cell_length_a 32.117649
_cell_length_b 16.383617
_cell_length_c 15.798974
_cell_angle_alpha 90.000000
_cell_angle_beta 161.926782
_cell_angle_gamma 90.000000
_cell_volume 2579.105696
_symmetry_space_group_name_H-M "C 2/C"
_symmetry_group_IT_number 15
_symmetry_cell_setting 'monoclinic'
loop_
_space_group_symop_operation_xyz
x,y,z
-x,y,1/2-z
-x,-y,-z
x,-y,1/2+z
1/2+x,1/2+y,z
1/2-x,1/2+y,1/2-z
1/2-x,1/2-y,-z
1/2+x,1/2-y,1/2+z
loop_
_atom_site_type_symbol
_atom_site_label
_atom_site_fract_x
_atom_site_fract_y
_atom_site_fract_z
Si Si1 0.361093 0.806816 0.829562
Si Si2 0.387489 0.650208 0.970327
Si Si3 0.626112 0.016383 0.183094
Si Si4 0.068567 0.237021 0.714845
Si Si5 0.892548 0.070114 0.798567
Si Si6 0.388469 0.861541 0.465407
O O1 0.434303 0.739424 0.027468
O O2 0.204496 0.779523 0.530755
O O3 0.396797 0.793534 0.799297
O O4 0.390078 0.900917 0.903939
O O5 0.366090 0.597866 0.843756
O O6 0.250163 0.657196 0.756196
O O7 0.500000 0.614933 0.250000
O O8 0.757162 0.038910 0.491942
O O9 0.639389 0.935678 0.152575
O O10 0.500000 0.000000 0.000000
O O11 0.044799 0.148426 0.628640
O O12 0.953903 0.283004 0.545003
O O13 0.000000 0.000000 0.000000
O O14 0.500000 0.887159 0.750000
#
# Coordination Sequence:
#
# PCOD9292563 Si02
#       6
#     8   8   8   8   8   8
#     4   9  18  38  60  82 120 162 200 238 314 380
#     4  11  23  40  60  89 127 159 203 273 316 358
#     4  11  21  37  64  92 121 161 208 257 307 372
#     4   9  18  37  64  83 113 167 204 239 302 394
#     4  10  22  44  63  86 124 173 209 241 316 399
#     4  12  22  38  62  96 123 158 216 267 312 364
#
# _framework density 18.611103
#
# number of rings (size 3 to 8) (size 9 to 14) (size 15 to 20)
#    0.000    1.667    3.333    3.000    0.000    0.667 
#    6.000    3.333    0.000    0.000    0.000    0.000 
#    0.000    0.000    0.000    0.000    0.000    0.000 
#
# Total GULP energy -133856.226700 kJ/mol
# GULP energy per Si atom -5577.342779 kJ/mol
# Density = 1.856874 g / cm^3
# Si number density = 18.611103 Si / 1000 Ang^3
#
#
#
# Elastic Constant Matrix: (Units=GPa)
#
#
# Indices 1 2 3 4 5 6 
#
# 1 118.7392 62.1066 51.4479 0.0000 13.5897 0.0000
# 2 62.1066 128.8967 45.7537 0.0000 8.9950 0.0000
# 3 51.4479 45.7537 84.4075 0.0000 5.0655 0.0000
# 4 0.0000 0.0000 0.0000 26.3732 0.0000 -0.2069
# 5 13.5897 8.9950 5.0655 0.0000 35.8376 0.0000
# 6 0.0000 0.0000 0.0000 -0.2069 0.0000 24.1387
#
#
#
# Elastic Compliance Matrix: (Units=1/GPa)
#
#
# Indices 1 2 3 4 5 6 
#
# 1 0.013495 -0.004241 -0.005732 0.000000 -0.003243 0.000000
# 2 -0.004241 0.011042 -0.003359 0.000000 -0.000688 0.000000
# 3 -0.005732 -0.003359 0.017126 0.000000 0.000596 0.000000
# 4 0.000000 0.000000 0.000000 0.037920 0.000000 0.000325
# 5 -0.003243 -0.000688 0.000596 0.000000 0.029222 0.000000
# 6 0.000000 0.000000 0.000000 0.000325 0.000000 0.041430
#
#
# Mechanical properties :
#
#
# Convention : Reuss Voigt Hill
#
# Bulk Modulus (GPa) = 66.67223 72.29554 69.48389
# Shear Modulus (GPa) = 27.48791 28.78558 28.13674
#
# Velocity S-wave (km/s) = 3.84730 3.93706 3.89244
# Velocity P-wave (km/s) = 7.45904 7.71991 7.59059
#
# Compressibility (1/GPa) = 0.01499875
#
# Stress axis : x y z
#
# Youngs Moduli (GPa) = 74.10224 90.56207 58.39138
#
# Poissons Ratio (x) = 0.38411 0.33468
# Poissons Ratio (y) = 0.31430 0.19613
# Poissons Ratio (z) = 0.42473 0.30419
#
# Static dielectric constant tensor:
#      x y z
#    x 1.648810 0.000000 -0.035010 
#    y 0.000000 1.671860 0.000000 
#    z -0.035010 0.000000 1.670430 
# 
# From -- ./inp_files/182522.got.cif
#   From: 2010.05.17/outbox.cif.g08.bks.cpg/sg15_92_cif.got.tgz:182522.got - 2010.06.03 18:47:42.
