data_PCOD9292591
_publ_section_title
;
Structure prediction by ZEFSAII (Michael W. Deem and Ramdas Pophale) SiO2 
 PCOD9292591
Probable space group: C 2/C
;
_chemical_formula_sum "Si O2"
_cell_formula_units_Z 56
_cell_length_a 9.042093
_cell_length_b 11.520626
_cell_length_c 27.815826
_cell_angle_alpha 90.000000
_cell_angle_beta 120.703294
_cell_angle_gamma 90.000000
_cell_volume 2491.414718
_symmetry_space_group_name_H-M "C 2/C"
_symmetry_group_IT_number 15
_symmetry_cell_setting 'monoclinic'
loop_
_space_group_symop_operation_xyz
x,y,z
-x,y,1/2-z
-x,-y,-z
x,-y,1/2+z
1/2+x,1/2+y,z
1/2-x,1/2+y,1/2-z
1/2-x,1/2-y,-z
1/2+x,1/2-y,1/2+z
loop_
_atom_site_type_symbol
_atom_site_label
_atom_site_fract_x
_atom_site_fract_y
_atom_site_fract_z
Si Si1 0.500000 0.116214 0.250000
Si Si2 0.442042 0.313081 0.657080
Si Si3 0.700299 0.020693 0.974147
Si Si4 0.247854 0.814920 0.283995
Si Si5 0.558242 0.416974 0.068290
Si Si6 0.791283 0.410002 0.186498
Si Si7 0.500000 0.510455 0.250000
Si Si8 0.596776 0.156115 0.044449
O O1 0.628922 0.207542 0.247244
O O2 0.395056 0.029881 0.198238
O O3 0.604110 0.246450 0.660300
O O4 0.360813 0.205408 0.672894
O O5 0.520462 0.404712 0.707942
O O6 0.284367 0.360280 0.600072
O O7 0.767882 0.041434 0.931236
O O8 0.550033 0.926420 0.957197
O O9 0.626821 0.128355 0.993063
O O10 0.882704 0.982585 0.027879
O O11 0.300948 0.879409 0.243983
O O12 0.145603 0.919400 0.291505
O O13 0.604761 0.425347 0.131999
O O14 0.538842 0.286479 0.045807
#
# Coordination Sequence:
#
# PCOD9292591 Si02
#       8
#     4   8   8   8   8   8   4   8
#     4  11  23  38  58  86 125 159 206 256 296 391
#     4  11  22  39  63  92 123 167 200 255 317 366
#     4  10  22  44  64  94 124 170 210 264 314 364
#     4  11  23  38  58  86 123 163 206 252 308 369
#     4  10  23  40  67  92 127 163 211 261 313 374
#     4  11  22  39  63  92 123 167 200 255 317 366
#     4  11  23  38  58  86 125 159 206 256 296 391
#     4  10  23  40  67  92 127 163 211 261 313 374
#
# _framework density 22.47719
#
# number of rings (size 3 to 8) (size 9 to 14) (size 15 to 20)
#    0.000    1.429    2.857    1.714    4.000    4.571 
#    0.000    0.000    0.000    0.000    0.000    0.000 
#    0.000    0.000    0.000    0.000    0.000    0.000 
#
# Total GULP energy -156047.002166 kJ/mol
# GULP energy per Si atom -5573.107220 kJ/mol
# Density = 2.242603 g / cm^3
# Si number density = 22.477190 Si / 1000 Ang^3
#
#
#
# Elastic Constant Matrix: (Units=GPa)
#
#
# Indices 1 2 3 4 5 6 
#
# 1 68.4663 26.0249 11.1418 0.0000 13.4789 0.0000
# 2 26.0249 90.3160 -0.2554 0.0000 0.6266 0.0000
# 3 11.1418 -0.2554 48.5064 0.0000 5.8450 0.0000
# 4 0.0000 0.0000 0.0000 14.0666 0.0000 5.4135
# 5 13.4789 0.6266 5.8450 0.0000 19.5287 0.0000
# 6 0.0000 0.0000 0.0000 5.4135 0.0000 36.0585
#
#
#
# Elastic Compliance Matrix: (Units=1/GPa)
#
#
# Indices 1 2 3 4 5 6 
#
# 1 0.019689 -0.005595 -0.003046 0.000000 -0.012498 0.000000
# 2 -0.005595 0.012665 0.000971 0.000000 0.003165 0.000000
# 3 -0.003046 0.000971 0.021859 0.000000 -0.004471 0.000000
# 4 0.000000 0.000000 0.000000 0.075450 0.000000 -0.011327
# 5 -0.012498 0.003165 -0.004471 0.000000 0.061070 0.000000
# 6 0.000000 0.000000 0.000000 -0.011327 0.000000 0.029433
#
#
# Mechanical properties :
#
#
# Convention : Reuss Voigt Hill
#
# Bulk Modulus (GPa) = 25.72535 31.23458 28.47997
# Shear Modulus (GPa) = 20.12357 25.28926 22.70642
#
# Velocity S-wave (km/s) = 2.99538 3.35790 3.18181
# Velocity P-wave (km/s) = 4.84077 5.38148 5.11827
#
# Compressibility (1/GPa) = 0.03887216
#
# Stress axis : x y z
#
# Youngs Moduli (GPa) = 50.79042 78.95570 45.74696
#
# Poissons Ratio (x) = 0.44178 0.13934
# Poissons Ratio (y) = 0.28419 -0.04440
# Poissons Ratio (z) = 0.15470 -0.07663
#
# Static dielectric constant tensor:
#      x y z
#    x 1.948010 0.000000 0.033790 
#    y 0.000000 1.798680 0.000000 
#    z 0.033790 0.000000 1.871980 
# 
# From -- ./inp_files/307583.got.cif
#   From: 2010.05.17/outbox.cif.g08.bks.cpg/sg15_154_cif.got.tgz:307583.got - 2010.06.03 18:47:42.
