data_PCOD9292657
_publ_section_title
;
Structure prediction by ZEFSAII (Michael W. Deem and Ramdas Pophale) SiO2 
 PCOD9292657
Probable space group: C 2/C
;
_chemical_formula_sum "Si O2"
_cell_formula_units_Z 44
_cell_length_a 11.829541
_cell_length_b 10.005139
_cell_length_c 23.521263
_cell_angle_alpha 90.000000
_cell_angle_beta 140.184943
_cell_angle_gamma 90.000000
_cell_volume 1782.555305
_symmetry_space_group_name_H-M "C 2/C"
_symmetry_group_IT_number 15
_symmetry_cell_setting 'monoclinic'
loop_
_space_group_symop_operation_xyz
x,y,z
-x,y,1/2-z
-x,-y,-z
x,-y,1/2+z
1/2+x,1/2+y,z
1/2-x,1/2+y,1/2-z
1/2-x,1/2-y,-z
1/2+x,1/2-y,1/2+z
loop_
_atom_site_type_symbol
_atom_site_label
_atom_site_fract_x
_atom_site_fract_y
_atom_site_fract_z
Si Si1 0.000000 0.393202 0.250000
Si Si2 0.385254 0.461605 0.381209
Si Si3 0.490814 0.712789 0.015091
Si Si4 0.476039 0.113266 0.613736
Si Si5 0.845972 0.683249 0.091343
Si Si6 0.606966 0.387995 0.236582
O O1 0.176197 0.480670 0.308400
O O2 0.972135 0.323623 0.176859
O O3 0.516904 0.567561 0.459153
O O4 0.408855 0.316616 0.421237
O O5 0.432944 0.473385 0.334434
O O6 0.411368 0.813675 0.030588
O O7 0.700024 0.721164 0.082963
O O8 0.683491 0.106036 0.678705
O O9 0.388909 0.968693 0.590376
O O10 0.026611 0.746444 0.184677
O O11 0.750000 0.750000 0.000000
O O12 0.500000 0.431760 0.250000
#
# Coordination Sequence:
#
# PCOD9292657 Si02
#       6
#     4   8   8   8   8   8
#     4  10  22  44  66 102 146 190 250 302 378 448
#     4  10  23  44  70 101 146 194 247 305 375 452
#     4  11  23  46  73 101 144 198 245 302 380 448
#     4  11  26  42  78 106 141 205 248 305 387 453
#     4  12  25  48  74 103 148 196 247 311 378 455
#     4  11  24  43  72 109 143 188 245 309 374 446
#
# _framework density 24.683665000000001
#
# number of rings (size 3 to 8) (size 9 to 14) (size 15 to 20)
#    0.000    1.091    5.455    0.000    6.364    1.455 
#    1.636    0.000    0.000    0.000    0.000    0.000 
#    0.000    0.000    0.000    0.000    0.000    0.000 
#
# Total GULP energy -122527.411142 kJ/mol
# GULP energy per Si atom -5569.427779 kJ/mol
# Density = 2.462748 g / cm^3
# Si number density = 24.683665 Si / 1000 Ang^3
#
#
#
# Elastic Constant Matrix: (Units=GPa)
#
#
# Indices 1 2 3 4 5 6 
#
# 1 199.0468 42.2563 45.5614 0.0000 -30.0156 0.0000
# 2 42.2563 56.7625 24.1264 0.0000 -6.3476 0.0000
# 3 45.5614 24.1264 85.4806 0.0000 -26.6341 0.0000
# 4 0.0000 0.0000 0.0000 30.0051 0.0000 -5.6410
# 5 -30.0156 -6.3476 -26.6341 0.0000 68.0706 0.0000
# 6 0.0000 0.0000 0.0000 -5.6410 0.0000 22.6715
#
#
#
# Elastic Compliance Matrix: (Units=1/GPa)
#
#
# Indices 1 2 3 4 5 6 
#
# 1 0.006540 -0.003891 -0.001825 0.000000 0.001807 0.000000
# 2 -0.003891 0.022343 -0.004689 0.000000 -0.001467 0.000000
# 3 -0.001825 -0.004689 0.015497 0.000000 0.004822 0.000000
# 4 0.000000 0.000000 0.000000 0.034963 0.000000 0.008699
# 5 0.001807 -0.001467 0.004822 0.000000 0.017237 0.000000
# 6 0.000000 0.000000 0.000000 0.008699 0.000000 0.046273
#
#
# Mechanical properties :
#
#
# Convention : Reuss Voigt Hill
#
# Bulk Modulus (GPa) = 42.42674 62.79758 52.61216
# Shear Modulus (GPa) = 29.15106 39.43913 34.29510
#
# Velocity S-wave (km/s) = 3.44028 4.00156 3.73149
# Velocity P-wave (km/s) = 5.74510 6.84443 6.31872
#
# Compressibility (1/GPa) = 0.02357004
#
# Stress axis : x y z
#
# Youngs Moduli (GPa) = 152.90131 44.75657 64.52876
#
# Poissons Ratio (x) = 0.17415 0.11774
# Poissons Ratio (y) = 0.59496 0.30260
# Poissons Ratio (z) = 0.27899 0.20988
#
# Static dielectric constant tensor:
#      x y z
#    x 2.026980 0.000000 -0.029170 
#    y 0.000000 2.018650 0.000000 
#    z -0.029170 0.000000 2.085450 
# 
# From -- ./inp_files/237307.got.cif
#   From: 2010.05.17/outbox.cif.g08.bks.cpg/sg15_119_cif.got.tgz:237307.got - 2010.06.03 18:47:42.
