data_PCOD9292369
_publ_section_title
;
Structure prediction by ZEFSAII (Michael W. Deem and Ramdas Pophale) SiO2 
 PCOD9292369
Probable space group: C 2/C
;
_chemical_formula_sum "Si O2"
_cell_formula_units_Z 56
_cell_length_a 16.298130
_cell_length_b 18.789657
_cell_length_c 18.507322
_cell_angle_alpha 90.000000
_cell_angle_beta 29.016566
_cell_angle_gamma 90.000000
_cell_volume 2749.146563
_symmetry_space_group_name_H-M "C 2/C"
_symmetry_group_IT_number 15
_symmetry_cell_setting 'monoclinic'
loop_
_space_group_symop_operation_xyz
x,y,z
-x,y,1/2-z
-x,-y,-z
x,-y,1/2+z
1/2+x,1/2+y,z
1/2-x,1/2+y,1/2-z
1/2-x,1/2-y,-z
1/2+x,1/2-y,1/2+z
loop_
_atom_site_type_symbol
_atom_site_label
_atom_site_fract_x
_atom_site_fract_y
_atom_site_fract_z
Si Si1 0.930752 0.216126 0.875122
Si Si2 0.384136 0.413223 0.515897
Si Si3 0.156099 0.111129 0.919650
Si Si4 0.366349 0.541157 0.418287
Si Si5 0.825818 0.681228 0.233543
Si Si6 0.525527 0.765103 0.020223
Si Si7 0.530326 0.873694 0.144838
O O1 0.000000 0.179005 0.750000
O O2 0.060524 0.278037 0.795792
O O3 0.750000 0.250000 0.000000
O O4 0.921063 0.160729 0.946893
O O5 0.547262 0.425586 0.440787
O O6 0.347161 0.469793 0.481694
O O7 0.234494 0.393487 0.686919
O O8 0.351396 0.088907 0.764411
O O9 0.081341 0.094660 0.056755
O O10 0.145760 0.196255 0.920802
O O11 0.500000 0.534799 0.250000
O O12 0.189616 0.572932 0.524429
O O13 0.659031 0.729285 0.346535
O O14 0.933202 0.681836 0.077515
O O15 0.553528 0.809087 0.071541
O O16 0.500000 0.846767 0.250000
#
# Coordination Sequence:
#
# PCOD9292369 Si02
#       7
#     8   8   8   8   8   8   8
#     4  12  21  37  61  96 129 162 212 277 334 389
#     4  11  23  43  68  91 135 179 218 271 330 404
#     4  10  22  43  70  91 138 173 222 274 335 400
#     4  11  26  44  65  95 134 182 228 268 326 404
#     4  11  21  39  67  98 130 167 217 278 340 400
#     4  11  20  39  70 102 128 169 220 282 343 390
#     4  10  23  42  65  97 141 168 219 281 333 396
#
# _framework density 20.369958
#
# number of rings (size 3 to 8) (size 9 to 14) (size 15 to 20)
#    0.000    1.143    5.714    0.857    4.000    2.857 
#    7.714    0.714    0.000    0.000    0.000    0.000 
#    0.000    0.000    0.000    0.000    0.000    0.000 
#
# Total GULP energy -156219.100181 kJ/mol
# GULP energy per Si atom -5579.253578 kJ/mol
# Density = 2.032359 g / cm^3
# Si number density = 20.369958 Si / 1000 Ang^3
#
#
#
# Elastic Constant Matrix: (Units=GPa)
#
#
# Indices 1 2 3 4 5 6 
#
# 1 116.5940 48.6539 50.8006 -0.0062 -12.2586 0.0067
# 2 48.6539 79.6832 41.2676 0.0115 1.3842 -0.0082
# 3 50.8006 41.2676 93.6379 0.0009 1.1653 -0.0031
# 4 -0.0062 0.0115 0.0009 22.1035 -0.0029 17.3042
# 5 -12.2586 1.3842 1.1653 -0.0029 47.7889 0.0019
# 6 0.0067 -0.0082 -0.0031 17.3042 0.0019 36.4465
#
#
#
# Elastic Compliance Matrix: (Units=1/GPa)
#
#
# Indices 1 2 3 4 5 6 
#
# 1 0.013489 -0.005814 -0.004802 0.000017 0.003746 -0.000013
# 2 -0.005814 0.018772 -0.005095 -0.000024 -0.001911 0.000017
# 3 -0.004802 -0.005095 0.015548 -0.000001 -0.001463 0.000001
# 4 0.000017 -0.000024 -0.000001 0.072006 0.000011 -0.034187
# 5 0.003746 -0.001911 -0.001463 0.000011 0.021977 -0.000008
# 6 -0.000013 0.000017 0.000001 -0.034187 -0.000008 0.043669
#
#
# Mechanical properties :
#
#
# Convention : Reuss Voigt Hill
#
# Bulk Modulus (GPa) = 61.02643 63.48436 62.25539
# Shear Modulus (GPa) = 22.48747 31.21400 26.85073
#
# Velocity S-wave (km/s) = 3.32618 3.91878 3.63458
# Velocity P-wave (km/s) = 6.69144 7.19090 6.94566
#
# Compressibility (1/GPa) = 0.01638634
#
# Stress axis : x y z
#
# Youngs Moduli (GPa) = 74.13266 53.27174 64.31548
#
# Poissons Ratio (x) = 0.30974 0.30887
# Poissons Ratio (y) = 0.43104 0.32767
# Poissons Ratio (z) = 0.35601 0.27140
#
# Static dielectric constant tensor:
#      x y z
#    x 1.738630 0.000000 0.006950 
#    y 0.000000 1.744990 0.000000 
#    z 0.006950 0.000000 1.771190 
# 
# From -- ./inp_files/206930.got.cif
#   From: 2010.05.17/outbox.cif.g08.bks.cpg/sg15_104_cif.got.tgz:206930.got - 2010.06.03 18:47:42.
