data_PCOD9292223
_publ_section_title
;
Structure prediction by ZEFSAII (Michael W. Deem and Ramdas Pophale) SiO2 
 PCOD9292223
Probable space group: C 2/C
;
_chemical_formula_sum "Si O2"
_cell_formula_units_Z 56
_cell_length_a 20.232698
_cell_length_b 5.331279
_cell_length_c 23.336766
_cell_angle_alpha 90.000000
_cell_angle_beta 114.873839
_cell_angle_gamma 90.000000
_cell_volume 2283.737770
_symmetry_space_group_name_H-M "C 2/C"
_symmetry_group_IT_number 15
_symmetry_cell_setting 'monoclinic'
loop_
_space_group_symop_operation_xyz
x,y,z
-x,y,1/2-z
-x,-y,-z
x,-y,1/2+z
1/2+x,1/2+y,z
1/2-x,1/2+y,1/2-z
1/2-x,1/2-y,-z
1/2+x,1/2-y,1/2+z
loop_
_atom_site_type_symbol
_atom_site_label
_atom_site_fract_x
_atom_site_fract_y
_atom_site_fract_z
Si Si1 0.540120 0.332475 0.465443
Si Si2 0.675208 0.684314 0.090675
Si Si3 0.353893 0.592110 0.815000
Si Si4 0.534811 0.839823 0.394950
Si Si5 0.061989 0.552793 0.232111
Si Si6 0.671945 0.933339 0.374324
Si Si7 0.772101 0.908947 0.682645
O O1 0.500000 0.500000 0.500000
O O2 0.619344 0.258001 0.520264
O O3 0.544779 0.553362 0.419235
O O4 0.510840 0.059143 0.431978
O O5 0.624739 0.534616 0.118293
O O6 0.748441 0.556752 0.091637
O O7 0.710714 0.888965 0.145849
O O8 0.335518 0.445360 0.750909
O O9 0.407260 0.796273 0.810211
O O10 0.274569 0.690157 0.805423
O O11 0.483167 0.838771 0.319142
O O12 0.613579 0.942464 0.402578
O O13 0.129613 0.518231 0.300533
O O14 0.000000 0.674426 0.250000
O O15 0.692219 0.648442 0.365380
#
# Coordination Sequence:
#
# PCOD9292223 Si02
#       7
#     8   8   8   8   8   8   8
#     4  12  29  50  72 101 143 194 243 284 342 431
#     4  11  25  41  69 103 138 183 236 297 347 425
#     4  11  20  37  65 102 138 176 229 291 366 412
#     4  11  28  49  72 101 142 194 234 289 356 418
#     4  10  22  43  68 102 140 181 234 295 358 430
#     4  10  24  43  69 107 135 176 236 298 365 417
#     4  11  21  37  66 103 140 171 227 298 362 422
#
# _framework density 24.521203
#
# number of rings (size 3 to 8) (size 9 to 14) (size 15 to 20)
#    0.000    1.143    2.857    2.143    8.000    2.286 
#    0.000    2.857    0.000    0.000    0.000    0.000 
#    0.000    0.000    0.000    0.000    0.000    0.000 
#
# Total GULP energy -155955.537455 kJ/mol
# GULP energy per Si atom -5569.840623 kJ/mol
# Density = 2.446539 g / cm^3
# Si number density = 24.521203 Si / 1000 Ang^3
#
#
#
# Elastic Constant Matrix: (Units=GPa)
#
#
# Indices 1 2 3 4 5 6 
#
# 1 92.4326 -7.2533 21.9563 0.0004 2.0967 0.0007
# 2 -7.2533 31.9668 -3.2972 0.0012 -3.5550 -0.0001
# 3 21.9563 -3.2972 84.9502 0.0003 29.6878 0.0004
# 4 0.0004 0.0012 0.0003 31.5295 0.0005 -9.1241
# 5 2.0967 -3.5550 29.6878 0.0005 50.2961 0.0006
# 6 0.0007 -0.0001 0.0004 -9.1241 0.0006 23.1413
#
#
#
# Elastic Compliance Matrix: (Units=1/GPa)
#
#
# Indices 1 2 3 4 5 6 
#
# 1 0.011828 0.002514 -0.003590 0.000000 0.001804 -0.000001
# 2 0.002514 0.032086 -0.000202 -0.000001 0.002282 -0.000001
# 3 -0.003590 -0.000202 0.015930 0.000000 -0.009268 0.000000
# 4 0.000000 -0.000001 0.000000 0.035801 -0.000001 0.014116
# 5 0.001804 0.002282 -0.009268 -0.000001 0.025439 -0.000001
# 6 -0.000001 -0.000001 0.000000 0.014116 -0.000001 0.048778
#
#
# Mechanical properties :
#
#
# Convention : Reuss Voigt Hill
#
# Bulk Modulus (GPa) = 17.45548 25.79569 21.62559
# Shear Modulus (GPa) = 26.10780 34.18963 30.14872
#
# Velocity S-wave (km/s) = 3.26652 3.73807 3.51022
# Velocity P-wave (km/s) = 4.62178 5.40125 5.02664
#
# Compressibility (1/GPa) = 0.05728859
#
# Stress axis : x y z
#
# Youngs Moduli (GPa) = 84.54683 31.16641 62.77313
#
# Poissons Ratio (x) = -0.07835 0.22534
# Poissons Ratio (y) = -0.21255 0.01268
# Poissons Ratio (z) = 0.30350 0.00630
#
# Static dielectric constant tensor:
#      x y z
#    x 1.970360 0.000000 -0.039660 
#    y 0.000000 2.108760 0.000000 
#    z -0.039660 0.000000 2.120610 
# 
# From -- ./inp_files/278967.got.cif
#   From: 2010.05.17/outbox.cif.g08.bks.cpg/sg15_140_cif.got.tgz:278967.got - 2010.06.03 18:47:42.
