data_PCOD9292438
_publ_section_title
;
Structure prediction by ZEFSAII (Michael W. Deem and Ramdas Pophale) SiO2 
 PCOD9292438
Probable space group: C 2/C
;
_chemical_formula_sum "Si O2"
_cell_formula_units_Z 40
_cell_length_a 16.130779
_cell_length_b 8.004823
_cell_length_c 13.935297
_cell_angle_alpha 90.000000
_cell_angle_beta 103.965220
_cell_angle_gamma 90.000000
_cell_volume 1746.196314
_symmetry_space_group_name_H-M "C 2/C"
_symmetry_group_IT_number 15
_symmetry_cell_setting 'monoclinic'
loop_
_space_group_symop_operation_xyz
x,y,z
-x,y,1/2-z
-x,-y,-z
x,-y,1/2+z
1/2+x,1/2+y,z
1/2-x,1/2+y,1/2-z
1/2-x,1/2-y,-z
1/2+x,1/2-y,1/2+z
loop_
_atom_site_type_symbol
_atom_site_label
_atom_site_fract_x
_atom_site_fract_y
_atom_site_fract_z
Si Si1 0.817982 0.411176 0.897754
Si Si2 0.959440 0.103395 0.342710
Si Si3 0.182018 0.378059 0.934082
Si Si4 0.004867 0.744526 0.057453
Si Si5 0.730243 0.744113 0.218137
O O1 0.767825 0.259387 0.835269
O O2 0.784164 0.575624 0.832946
O O3 0.918339 0.384718 0.908990
O O4 0.803779 0.449336 0.005658
O O5 0.000000 0.137217 0.250000
O O6 0.999036 0.205226 0.443412
O O7 0.860133 0.150866 0.310680
O O8 0.973009 0.910687 0.375933
O O9 0.086562 0.321052 0.933378
O O10 0.201673 0.356508 0.828379
O O11 0.250000 0.250000 0.000000
#
# Coordination Sequence:
#
# PCOD9292438 Si02
#       5
#     8   8   8   8   8
#     4  11  24  43  72 104 138 179 236 281 350 413
#     4  11  26  43  71 102 141 182 239 281 347 412
#     4  10  22  43  71  97 140 181 225 281 352 411
#     4  11  24  46  72 100 141 188 229 289 349 411
#     4  11  25  45  71 103 141 185 233 283 353 417
#
# _framework density 22.906932000000001
#
# number of rings (size 3 to 8) (size 9 to 14) (size 15 to 20)
#    0.000    1.200    4.000    1.800    8.400    1.600 
#    0.000    3.000    0.000    0.000    0.000    0.000 
#    0.000    0.000    0.000    0.000    0.000    0.000 
#
# Total GULP energy -111876.190920 kJ/mol
# GULP energy per Si atom -5593.809546 kJ/mol
# Density = 2.285479 g / cm^3
# Si number density = 22.906932 Si / 1000 Ang^3
#
#
#
# Elastic Constant Matrix: (Units=GPa)
#
#
# Indices 1 2 3 4 5 6 
#
# 1 85.4180 36.4562 54.1177 0.0000 -9.9175 0.0000
# 2 36.4562 56.8414 26.6961 0.0000 -12.7459 0.0000
# 3 54.1177 26.6961 77.7344 0.0000 -27.2199 0.0000
# 4 0.0000 0.0000 0.0000 42.1424 0.0000 5.5495
# 5 -9.9175 -12.7459 -27.2199 0.0000 45.8641 0.0000
# 6 0.0000 0.0000 0.0000 5.5495 0.0000 33.2116
#
#
#
# Elastic Compliance Matrix: (Units=1/GPa)
#
#
# Indices 1 2 3 4 5 6 
#
# 1 0.026247 -0.010373 -0.017335 0.000000 -0.007495 0.000000
# 2 -0.010373 0.025216 0.000290 0.000000 0.004937 0.000000
# 3 -0.017335 0.000290 0.029726 0.000000 0.013975 0.000000
# 4 0.000000 0.000000 0.000000 0.024263 0.000000 -0.004054
# 5 -0.007495 0.004937 0.013975 0.000000 0.029849 0.000000
# 6 0.000000 0.000000 0.000000 -0.004054 0.000000 0.030787
#
#
# Mechanical properties :
#
#
# Convention : Reuss Voigt Hill
#
# Bulk Modulus (GPa) = 37.94428 50.50376 44.22402
# Shear Modulus (GPa) = 21.76666 31.09186 26.42926
#
# Velocity S-wave (km/s) = 3.08591 3.68817 3.40040
# Velocity P-wave (km/s) = 5.41273 6.34287 5.89617
#
# Compressibility (1/GPa) = 0.02635443
#
# Stress axis : x y z
#
# Youngs Moduli (GPa) = 38.09967 39.65660 33.64006
#
# Poissons Ratio (x) = 0.41136 0.58315
# Poissons Ratio (y) = 0.39521 -0.00977
# Poissons Ratio (z) = 0.66046 -0.01152
#
# Static dielectric constant tensor:
#      x y z
#    x 1.793080 0.000000 -0.016130 
#    y 0.000000 1.892020 0.000000 
#    z -0.016130 0.000000 1.885500 
# 
# From -- ./inp_files/150797.got.cif
#   From: 2010.05.17/outbox.cif.g08.bks.cpg/sg15_76_cif.got.tgz:150797.got - 2010.06.03 18:47:42.
