data_PCOD9292513
_publ_section_title
;
Structure prediction by ZEFSAII (Michael W. Deem and Ramdas Pophale) SiO2 
 PCOD9292513
Probable space group: C 2/C
;
_chemical_formula_sum "Si O2"
_cell_formula_units_Z 48
_cell_length_a 29.757459
_cell_length_b 5.480674
_cell_length_c 28.326772
_cell_angle_alpha 90.000000
_cell_angle_beta 26.566453
_cell_angle_gamma 90.000000
_cell_volume 2066.156194
_symmetry_space_group_name_H-M "C 2/C"
_symmetry_group_IT_number 15
_symmetry_cell_setting 'monoclinic'
loop_
_space_group_symop_operation_xyz
x,y,z
-x,y,1/2-z
-x,-y,-z
x,-y,1/2+z
1/2+x,1/2+y,z
1/2-x,1/2+y,1/2-z
1/2-x,1/2-y,-z
1/2+x,1/2-y,1/2+z
loop_
_atom_site_type_symbol
_atom_site_label
_atom_site_fract_x
_atom_site_fract_y
_atom_site_fract_z
Si Si1 0.453943 0.572388 0.744604
Si Si2 0.745989 0.795005 0.947222
Si Si3 0.204417 0.851133 0.237512
Si Si4 0.372550 0.053366 0.271866
Si Si5 0.331693 0.351089 0.125031
Si Si6 0.552089 0.738836 0.077246
O O1 0.500000 0.492168 0.750000
O O2 0.341577 0.466104 0.848750
O O3 0.528082 0.486628 0.633976
O O4 0.438158 0.859738 0.754691
O O5 0.774091 0.562587 0.887397
O O6 0.750000 0.750000 0.000000
O O7 0.641139 0.879753 0.022298
O O8 0.146067 0.779497 0.245311
O O9 0.280341 0.617911 0.168875
O O10 0.140142 0.835689 0.346143
O O11 0.257711 0.115922 0.185968
O O12 0.445401 0.874711 0.175334
O O13 0.413605 0.325678 0.007441
#
# Coordination Sequence:
#
# PCOD9292513 Si02
#       6
#     8   8   8   8   8   8
#     4  11  25  41  62  98 132 172 231 284 340 411
#     4  11  23  43  64  88 132 177 223 281 340 405
#     4  10  22  44  70 105 134 186 222 288 337 417
#     4  11  26  39  66  97 136 172 233 287 340 408
#     4  10  22  43  74  98 141 179 233 271 352 408
#     4  11  24  42  66  95 131 178 226 283 338 413
#
# _framework density 23.231545000000001
#
# number of rings (size 3 to 8) (size 9 to 14) (size 15 to 20)
#    0.000    1.333    3.333    1.000    7.000    2.667 
#    0.000    0.833    0.000    0.000    0.000    0.000 
#    0.000    0.000    0.000    0.000    0.000    0.000 
#
# Total GULP energy -133890.373924 kJ/mol
# GULP energy per Si atom -5578.765580 kJ/mol
# Density = 2.317867 g / cm^3
# Si number density = 23.231545 Si / 1000 Ang^3
#
#
#
# Elastic Constant Matrix: (Units=GPa)
#
#
# Indices 1 2 3 4 5 6 
#
# 1 96.0280 10.4374 46.9962 0.2676 25.7588 -0.0812
# 2 10.4374 57.6725 20.6124 -0.2440 3.1496 0.1008
# 3 46.9962 20.6124 150.8558 -0.1866 42.8750 -0.1976
# 4 0.2676 -0.2440 -0.1866 -34.0357 0.5363 5.3032
# 5 25.7588 3.1496 42.8750 0.5363 49.5559 0.0781
# 6 -0.0812 0.1008 -0.1976 5.3032 0.0781 33.0893
#
#
#
# Elastic Compliance Matrix: (Units=1/GPa)
#
#
# Indices 1 2 3 4 5 6 
#
# 1 0.013016 -0.001170 -0.002643 0.000059 -0.004405 0.000021
# 2 -0.001170 0.018400 -0.002640 -0.000109 0.001724 -0.000061
# 3 -0.002643 -0.002640 0.009779 -0.000149 -0.006918 0.000100
# 4 0.000059 -0.000109 -0.000149 -0.028657 0.000408 0.004591
# 5 -0.004405 0.001724 -0.006918 0.000408 0.028340 -0.000190
# 6 0.000021 -0.000061 0.000100 0.004591 -0.000190 0.029487
#
#
# Mechanical properties :
#
#
# Convention : Reuss Voigt Hill
#
# Bulk Modulus (GPa) = 35.34921 51.18312 43.26617
# Shear Modulus (GPa) = 53.93751 24.82257 39.38004
#
# Velocity S-wave (km/s) = 4.82367 3.27232 4.12164
# Velocity P-wave (km/s) = 6.80241 6.02967 6.42766
#
# Compressibility (1/GPa) = 0.02828917
#
# Stress axis : x y z
#
# Youngs Moduli (GPa) = 76.82999 54.34778 102.26156
#
# Poissons Ratio (x) = 0.06360 0.27025
# Poissons Ratio (y) = 0.08991 0.26994
# Poissons Ratio (z) = 0.20304 0.14346
#
# Static dielectric constant tensor:
#      x y z
#    x 1.984450 -0.000400 -0.029850 
#    y -0.000400 1.962720 0.000170 
#    z -0.029850 0.000170 1.843930 
# 
# From -- ./inp_files/180212.got.cif
#   From: 2010.05.17/outbox.cif.g08.bks.cpg/sg15_91_cif.got.tgz:180212.got - 2010.06.03 18:47:42.
