data_PCOD9292505
_publ_section_title
;
Structure prediction by ZEFSAII (Michael W. Deem and Ramdas Pophale) SiO2 
 PCOD9292505
Probable space group: C 2/C
;
_chemical_formula_sum "Si O2"
_cell_formula_units_Z 40
_cell_length_a 10.857864
_cell_length_b 14.180677
_cell_length_c 19.605402
_cell_angle_alpha 90.000000
_cell_angle_beta 31.679589
_cell_angle_gamma 90.000000
_cell_volume 1585.315860
_symmetry_space_group_name_H-M "C 2/C"
_symmetry_group_IT_number 15
_symmetry_cell_setting 'monoclinic'
loop_
_space_group_symop_operation_xyz
x,y,z
-x,y,1/2-z
-x,-y,-z
x,-y,1/2+z
1/2+x,1/2+y,z
1/2-x,1/2+y,1/2-z
1/2-x,1/2-y,-z
1/2+x,1/2-y,1/2+z
loop_
_atom_site_type_symbol
_atom_site_label
_atom_site_fract_x
_atom_site_fract_y
_atom_site_fract_z
Si Si1 0.214621 0.082355 0.897884
Si Si2 0.444154 0.755760 0.007764
Si Si3 0.851142 0.634911 0.979658
Si Si4 0.088421 0.563737 0.354196
Si Si5 0.000000 0.356432 0.750000
Si Si6 0.500000 0.407476 0.750000
O O1 0.500000 0.068118 0.750000
O O2 0.116023 0.170514 0.901745
O O3 0.229628 0.132676 0.964520
O O4 0.000000 0.000000 0.000000
O O5 0.484432 0.845739 0.941285
O O6 0.452875 0.796790 0.082387
O O7 0.195205 0.706359 0.123030
O O8 0.931519 0.526408 0.944808
O O9 0.656601 0.655782 0.127942
O O10 0.334496 0.539436 0.274854
O O11 0.106448 0.586321 0.265250
#
# Coordination Sequence:
#
# PCOD9292505 Si02
#       6
#     8   8   8   8   4   4
#     4  12  30  50  80 116 163 212 269 331 407 481
#     4  11  26  47  77 114 153 211 261 328 399 476
#     4  11  26  46  79 113 153 208 265 330 397 479
#     4  11  26  47  74 115 150 207 261 326 402 475
#     4  12  26  47  76 111 172 200 268 327 392 475
#     4  10  22  43  74 103 154 194 264 315 388 469
#
# _framework density 25.231565
#
# number of rings (size 3 to 8) (size 9 to 14) (size 15 to 20)
#    0.000    0.800    0.000    6.000   16.800    3.200 
#    0.000    0.000    0.000    0.000    0.000    0.000 
#    0.000    0.000    0.000    0.000    0.000    0.000 
#
# Total GULP energy -111362.294638 kJ/mol
# GULP energy per Si atom -5568.114732 kJ/mol
# Density = 2.517414 g / cm^3
# Si number density = 25.231565 Si / 1000 Ang^3
#
#
#
# Elastic Constant Matrix: (Units=GPa)
#
#
# Indices 1 2 3 4 5 6 
#
# 1 140.9592 33.5274 43.3410 -0.0008 10.4120 -0.0023
# 2 33.5274 174.5336 35.0888 -0.0006 -21.0089 -0.0025
# 3 43.3410 35.0888 108.8382 -0.0067 -20.3541 -0.0091
# 4 -0.0008 -0.0006 -0.0067 -15.2054 0.0022 -4.2096
# 5 10.4120 -21.0089 -20.3541 0.0022 36.2344 0.0043
# 6 -0.0023 -0.0025 -0.0091 -4.2096 0.0043 36.5620
#
#
#
# Elastic Compliance Matrix: (Units=1/GPa)
#
#
# Indices 1 2 3 4 5 6 
#
# 1 0.009243 -0.001639 -0.004276 0.000001 -0.006008 0.000000
# 2 -0.001639 0.006669 -0.000767 0.000001 0.003907 0.000000
# 3 -0.004276 -0.000767 0.012609 -0.000005 0.007867 0.000001
# 4 0.000001 0.000001 -0.000005 -0.063735 0.000002 -0.007338
# 5 -0.006008 0.003907 0.007867 0.000002 0.036009 -0.000002
# 6 0.000000 0.000000 0.000001 -0.007338 -0.000002 0.026506
#
#
# Mechanical properties :
#
#
# Convention : Reuss Voigt Hill
#
# Bulk Modulus (GPa) = 65.97342 72.02725 69.00033
# Shear Modulus (GPa) = 109.37103 32.34312 70.85708
#
# Velocity S-wave (km/s) = 6.59098 3.58418 5.30506
# Velocity P-wave (km/s) = 9.17198 6.76291 8.05798
#
# Compressibility (1/GPa) = 0.01515762
#
# Stress axis : x y z
#
# Youngs Moduli (GPa) = 108.19547 149.95123 79.30857
#
# Poissons Ratio (x) = 0.24578 0.33910
# Poissons Ratio (y) = 0.17734 0.06080
# Poissons Ratio (z) = 0.46261 0.11496
#
# Static dielectric constant tensor:
#      x y z
#    x 2.062570 0.000000 -0.008080 
#    y 0.000000 1.968800 0.000000 
#    z -0.008080 0.000000 2.045070 
# 
# From -- ./inp_files/239717.got.cif
#   From: 2010.05.17/outbox.cif.g08.bks.cpg/sg15_120_cif.got.tgz:239717.got - 2010.06.03 18:47:42.
