data_PCOD9292232
_publ_section_title
;
Structure prediction by ZEFSAII (Michael W. Deem and Ramdas Pophale) SiO2 
 PCOD9292232
Probable space group: C 2/C
;
_chemical_formula_sum "Si O2"
_cell_formula_units_Z 40
_cell_length_a 9.618882
_cell_length_b 17.766249
_cell_length_c 11.216221
_cell_angle_alpha 90.000000
_cell_angle_beta 76.112169
_cell_angle_gamma 90.000000
_cell_volume 1860.724687
_symmetry_space_group_name_H-M "C 2/C"
_symmetry_group_IT_number 15
_symmetry_cell_setting 'monoclinic'
loop_
_space_group_symop_operation_xyz
x,y,z
-x,y,1/2-z
-x,-y,-z
x,-y,1/2+z
1/2+x,1/2+y,z
1/2-x,1/2+y,1/2-z
1/2-x,1/2-y,-z
1/2+x,1/2-y,1/2+z
loop_
_atom_site_type_symbol
_atom_site_label
_atom_site_fract_x
_atom_site_fract_y
_atom_site_fract_z
Si Si1 0.840580 0.031024 0.541808
Si Si2 0.056206 0.679840 0.360642
Si Si3 0.318428 0.013594 0.178329
Si Si4 0.760249 0.312017 0.360240
Si Si5 0.425949 0.855909 0.113996
O O1 0.768373 0.011489 0.429179
O O2 0.830379 0.121293 0.561609
O O3 0.765501 0.000786 0.679631
O O4 0.000000 0.000000 0.500000
O O5 0.116164 0.596292 0.327671
O O6 0.181042 0.733169 0.385950
O O7 0.000000 0.713449 0.250000
O O8 0.925255 0.667515 0.477767
O O9 0.431224 0.945445 0.136898
O O10 0.789013 0.328289 0.214504
O O11 0.922941 0.321352 0.373481
#
# Coordination Sequence:
#
# PCOD9292232 Si02
#       5
#     8   8   8   8   8
#     4  11  24  43  67  99 137 175 222 278 339 401
#     4  12  25  39  67 101 131 167 229 280 327 404
#     4  11  24  42  72  99 129 181 232 272 328 407
#     4  10  24  42  66  94 133 178 209 278 345 385
#     4  10  22  43  68  90 134 176 222 267 335 399
#
# _framework density 21.497
#
# number of rings (size 3 to 8) (size 9 to 14) (size 15 to 20)
#    0.000    1.200    2.000    3.000    5.600    5.600 
#    3.600    0.000    0.000    0.000    0.000    0.000 
#    0.000    0.000    0.000    0.000    0.000    0.000 
#
# Total GULP energy -111653.594936 kJ/mol
# GULP energy per Si atom -5582.679747 kJ/mol
# Density = 2.144807 g / cm^3
# Si number density = 21.497000 Si / 1000 Ang^3
#
#
#
# Elastic Constant Matrix: (Units=GPa)
#
#
# Indices 1 2 3 4 5 6 
#
# 1 82.2746 31.5152 47.6291 0.0000 8.9060 0.0000
# 2 31.5152 118.2066 35.1576 0.0000 -10.2737 0.0000
# 3 47.6291 35.1576 151.5106 0.0000 4.4018 0.0000
# 4 0.0000 0.0000 0.0000 25.2718 0.0000 -2.8826
# 5 8.9060 -10.2737 4.4018 0.0000 32.2600 0.0000
# 6 0.0000 0.0000 0.0000 -2.8826 0.0000 32.9090
#
#
#
# Elastic Compliance Matrix: (Units=1/GPa)
#
#
# Indices 1 2 3 4 5 6 
#
# 1 0.016527 -0.003600 -0.004211 0.000000 -0.005134 0.000000
# 2 -0.003600 0.010211 -0.001367 0.000000 0.004432 0.000000
# 3 -0.004211 -0.001367 0.008253 0.000000 -0.000399 0.000000
# 4 0.000000 0.000000 0.000000 0.039969 0.000000 0.003501
# 5 -0.005134 0.004432 -0.000399 0.000000 0.033882 0.000000
# 6 0.000000 0.000000 0.000000 0.003501 0.000000 0.030693
#
#
# Mechanical properties :
#
#
# Convention : Reuss Voigt Hill
#
# Bulk Modulus (GPa) = 60.11132 64.51063 62.31097
# Shear Modulus (GPa) = 30.59317 33.93416 32.26366
#
# Velocity S-wave (km/s) = 3.77654 3.97741 3.87828
# Velocity P-wave (km/s) = 6.85855 7.15314 7.00739
#
# Compressibility (1/GPa) = 0.01663580
#
# Stress axis : x y z
#
# Youngs Moduli (GPa) = 60.50739 97.93124 121.17376
#
# Poissons Ratio (x) = 0.35256 0.51025
# Poissons Ratio (y) = 0.21783 0.16559
# Poissons Ratio (z) = 0.25479 0.13383
#
# Static dielectric constant tensor:
#      x y z
#    x 1.816630 0.000000 0.077700 
#    y 0.000000 1.773940 0.000000 
#    z 0.077700 0.000000 1.922070 
# 
# From -- ./inp_files/76699.got.cif
#   From: 2010.05.17/outbox.cif.g08.bks.cpg/sg15_39_cif.got.tgz:76699.got - 2010.06.03 18:47:42.
