data_PCOD9292568
_publ_section_title
;
Structure prediction by ZEFSAII (Michael W. Deem and Ramdas Pophale) SiO2 
 PCOD9292568
Probable space group: C 2/C
;
_chemical_formula_sum "Si O2"
_cell_formula_units_Z 48
_cell_length_a 20.050938
_cell_length_b 9.422052
_cell_length_c 17.638519
_cell_angle_alpha 90.000000
_cell_angle_beta 46.369427
_cell_angle_gamma 90.000000
_cell_volume 2411.921415
_symmetry_space_group_name_H-M "C 2/C"
_symmetry_group_IT_number 15
_symmetry_cell_setting 'monoclinic'
loop_
_space_group_symop_operation_xyz
x,y,z
-x,y,1/2-z
-x,-y,-z
x,-y,1/2+z
1/2+x,1/2+y,z
1/2-x,1/2+y,1/2-z
1/2-x,1/2-y,-z
1/2+x,1/2-y,1/2+z
loop_
_atom_site_type_symbol
_atom_site_label
_atom_site_fract_x
_atom_site_fract_y
_atom_site_fract_z
Si Si1 0.747201 0.470141 0.972603
Si Si2 0.572474 0.887212 0.127517
Si Si3 0.757828 0.700809 0.621496
Si Si4 0.963047 0.614483 0.468364
Si Si5 0.431337 0.595332 0.451273
Si Si6 0.408662 0.610519 0.643491
O O1 0.826252 0.588991 0.916359
O O2 0.763061 0.360624 0.890593
O O3 0.750777 0.388029 0.049304
O O4 0.644869 0.528170 0.043040
O O5 0.500000 0.859216 0.250000
O O6 0.565766 0.759732 0.072926
O O7 0.547660 0.031014 0.102356
O O8 0.862372 0.677753 0.568163
O O9 0.684511 0.642078 0.738716
O O10 0.000000 0.500000 0.500000
O O11 0.030867 0.746081 0.404622
O O12 0.395979 0.575004 0.564971
O O13 0.528705 0.514434 0.369977
#
# Coordination Sequence:
#
# PCOD9292568 Si02
#       6
#     8   8   8   8   8   8
#     4  10  22  44  63  96 130 163 220 266 312 392
#     4  11  24  40  65  97 127 169 209 268 327 376
#     4  10  23  41  70  95 123 178 217 260 325 382
#     4  11  22  46  64  95 133 166 222 265 311 391
#     4  11  24  44  61  97 134 159 218 272 315 390
#     4  11  24  43  68  92 130 176 209 269 325 378
#
# _framework density 19.901146000000001
#
# number of rings (size 3 to 8) (size 9 to 14) (size 15 to 20)
#    0.000    1.333    3.333    1.500    2.333    2.667 
#    0.000    0.000    0.000    0.000    0.000    0.000 
#    0.000    0.000    0.000    0.000    0.000    0.000 
#
# Total GULP energy -134068.500972 kJ/mol
# GULP energy per Si atom -5586.187540 kJ/mol
# Density = 1.985585 g / cm^3
# Si number density = 19.901146 Si / 1000 Ang^3
#
#
#
# Elastic Constant Matrix: (Units=GPa)
#
#
# Indices 1 2 3 4 5 6 
#
# 1 78.4960 15.6587 14.4077 0.0000 -14.5568 0.0000
# 2 15.6587 72.9787 2.8294 0.0000 -10.5626 0.0000
# 3 14.4077 2.8294 97.8097 0.0000 -12.9006 0.0000
# 4 0.0000 0.0000 0.0000 13.3384 0.0000 -4.5826
# 5 -14.5568 -10.5626 -12.9006 0.0000 19.6278 0.0000
# 6 0.0000 0.0000 0.0000 -4.5826 0.0000 34.6639
#
#
#
# Elastic Compliance Matrix: (Units=1/GPa)
#
#
# Indices 1 2 3 4 5 6 
#
# 1 0.015044 -0.001804 -0.000898 0.000000 0.009596 0.000000
# 2 -0.001804 0.015118 0.000794 0.000000 0.007320 0.000000
# 3 -0.000898 0.000794 0.011280 0.000000 0.007175 0.000000
# 4 0.000000 0.000000 0.000000 0.078539 0.000000 0.010383
# 5 0.009596 0.007320 0.007175 0.000000 0.066720 0.000000
# 6 0.000000 0.000000 0.000000 0.010383 0.000000 0.030221
#
#
# Mechanical properties :
#
#
# Convention : Reuss Voigt Hill
#
# Bulk Modulus (GPa) = 26.57830 35.00845 30.79338
# Shear Modulus (GPa) = 21.43348 27.95190 24.69269
#
# Velocity S-wave (km/s) = 3.28532 3.75178 3.52627
# Velocity P-wave (km/s) = 5.27023 6.03301 5.66447
#
# Compressibility (1/GPa) = 0.03762468
#
# Stress axis : x y z
#
# Youngs Moduli (GPa) = 66.47262 66.14466 88.65581
#
# Poissons Ratio (x) = 0.11934 0.07963
# Poissons Ratio (y) = 0.11993 -0.07038
# Poissons Ratio (z) = 0.05970 -0.05251
#
# Static dielectric constant tensor:
#      x y z
#    x 1.708240 0.000000 -0.004780 
#    y 0.000000 1.723080 0.000000 
#    z -0.004780 0.000000 1.651840 
# 
# From -- ./inp_files/251765.got.cif
#   From: 2010.05.17/outbox.cif.g08.bks.cpg/sg15_126_cif.got.tgz:251765.got - 2010.06.03 18:47:42.
