data_PCOD9292179
_publ_section_title
;
Structure prediction by ZEFSAII (Michael W. Deem and Ramdas Pophale) SiO2 
 PCOD9292179
Probable space group: C 2/C
;
_chemical_formula_sum "Si O2"
_cell_formula_units_Z 40
_cell_length_a 7.314578
_cell_length_b 27.906770
_cell_length_c 9.458744
_cell_angle_alpha 90.000000
_cell_angle_beta 97.446558
_cell_angle_gamma 90.000000
_cell_volume 1914.494064
_symmetry_space_group_name_H-M "C 2/C"
_symmetry_group_IT_number 15
_symmetry_cell_setting 'monoclinic'
loop_
_space_group_symop_operation_xyz
x,y,z
-x,y,1/2-z
-x,-y,-z
x,-y,1/2+z
1/2+x,1/2+y,z
1/2-x,1/2+y,1/2-z
1/2-x,1/2-y,-z
1/2+x,1/2-y,1/2+z
loop_
_atom_site_type_symbol
_atom_site_label
_atom_site_fract_x
_atom_site_fract_y
_atom_site_fract_z
Si Si1 0.320378 0.187739 0.649078
Si Si2 0.000000 0.138551 0.250000
Si Si3 0.370016 0.404467 0.472123
Si Si4 0.000000 0.978795 0.250000
Si Si5 0.379760 0.032178 0.379228
Si Si6 0.331882 0.210954 0.329987
O O1 0.500000 0.171276 0.750000
O O2 0.179446 0.144089 0.615489
O O3 0.379401 0.206216 0.499722
O O4 0.232237 0.234931 0.709646
O O5 0.984993 0.107111 0.389461
O O6 0.170659 0.173559 0.286518
O O7 0.439625 0.445283 0.374757
O O8 0.187040 0.421774 0.538069
O O9 0.184173 0.007768 0.313957
O O10 0.500000 0.041152 0.250000
O O11 0.500000 0.000000 0.500000
O O12 0.500000 0.197862 0.250000
#
# Coordination Sequence:
#
# PCOD9292179 Si02
#       6
#     8   4   8   4   8   8
#     4  10  23  42  64 100 137 170 232 274 322 409
#     4  10  23  46  64 102 136 172 230 276 325 412
#     4  11  26  43  71 102 135 176 230 280 337 408
#     4  12  27  48  70 104 140 178 230 288 349 412
#     4  12  27  49  74 101 138 182 227 285 354 412
#     4  10  22  43  67  94 133 184 218 273 341 385
#
# _framework density 20.893248
#
# number of rings (size 3 to 8) (size 9 to 14) (size 15 to 20)
#    0.000    1.200    3.000    1.200    7.000    5.600 
#    0.000    0.000    0.000    0.000    0.000    0.000 
#    0.000    0.000    0.000    0.000    0.000    0.000 
#
# Total GULP energy -111811.258024 kJ/mol
# GULP energy per Si atom -5590.562901 kJ/mol
# Density = 2.084569 g / cm^3
# Si number density = 20.893248 Si / 1000 Ang^3
#
#
#
# Elastic Constant Matrix: (Units=GPa)
#
#
# Indices 1 2 3 4 5 6 
#
# 1 88.4797 15.3433 44.0032 0.0000 -8.1295 0.0000
# 2 15.3433 81.0755 18.3617 0.0000 4.4709 0.0000
# 3 44.0032 18.3617 82.8134 0.0000 11.1087 0.0000
# 4 0.0000 0.0000 0.0000 34.2900 0.0000 11.8792
# 5 -8.1295 4.4709 11.1087 0.0000 49.5276 0.0000
# 6 0.0000 0.0000 0.0000 11.8792 0.0000 -2.3144
#
#
#
# Elastic Compliance Matrix: (Units=1/GPa)
#
#
# Indices 1 2 3 4 5 6 
#
# 1 0.016528 -0.001326 -0.009143 0.000000 0.004883 0.000000
# 2 -0.001326 0.013107 -0.002076 0.000000 -0.000935 0.000000
# 3 -0.009143 -0.002076 0.018115 0.000000 -0.005376 0.000000
# 4 0.000000 0.000000 0.000000 0.010497 0.000000 0.053880
# 5 0.004883 -0.000935 -0.005376 0.000000 0.022283 0.000000
# 6 0.000000 0.000000 0.000000 0.053880 0.000000 -0.155528
#
#
# Mechanical properties :
#
#
# Convention : Reuss Voigt Hill
#
# Bulk Modulus (GPa) = 44.13252 45.30945 44.72099
# Shear Modulus (GPa) = -118.05155 27.94468 -45.05343
#
# Velocity S-wave (km/s) = -7.52495 3.66115 -4.64870
# Velocity P-wave (km/s) = 7.37097 6.29327 2.71347
#
# Compressibility (1/GPa) = 0.02265903
#
# Stress axis : x y z
#
# Youngs Moduli (GPa) = 60.50407 76.29563 55.20285
#
# Poissons Ratio (x) = 0.10120 0.50472
# Poissons Ratio (y) = 0.08025 0.11459
# Poissons Ratio (z) = 0.55319 0.15838
#
# Static dielectric constant tensor:
#      x y z
#    x 1.746600 0.000000 0.061420 
#    y 0.000000 1.776930 0.000000 
#    z 0.061420 0.000000 1.859270 
# 
# From -- ./inp_files/23802.got.cif
#   From: 2010.05.17/outbox.cif.g08.bks.cpg/sg15_12_cif.got.tgz:23802.got - 2010.06.03 18:47:42.
