data_PCOD9292750
_publ_section_title
;
Structure prediction by ZEFSAII (Michael W. Deem and Ramdas Pophale) SiO2 
 PCOD9292750
Probable space group: C 2/C
;
_chemical_formula_sum "Si O2"
_cell_formula_units_Z 52
_cell_length_a 23.785644
_cell_length_b 10.815939
_cell_length_c 10.772492
_cell_angle_alpha 90.000000
_cell_angle_beta 51.150330
_cell_angle_gamma 90.000000
_cell_volume 2158.331658
_symmetry_space_group_name_H-M "C 2/C"
_symmetry_group_IT_number 15
_symmetry_cell_setting 'monoclinic'
loop_
_space_group_symop_operation_xyz
x,y,z
-x,y,1/2-z
-x,-y,-z
x,-y,1/2+z
1/2+x,1/2+y,z
1/2-x,1/2+y,1/2-z
1/2-x,1/2-y,-z
1/2+x,1/2-y,1/2+z
loop_
_atom_site_type_symbol
_atom_site_label
_atom_site_fract_x
_atom_site_fract_y
_atom_site_fract_z
Si Si1 0.235615 0.129720 0.102558
Si Si2 0.000000 0.338633 0.250000
Si Si3 0.419509 0.621676 0.220906
Si Si4 0.492025 0.636634 0.626758
Si Si5 0.846109 0.246552 0.770746
Si Si6 0.631628 0.034403 0.442521
Si Si7 0.697504 0.214322 0.885740
O O1 0.162359 0.076477 0.143986
O O2 0.310901 0.062077 0.024999
O O3 0.210077 0.175355 0.273249
O O4 0.250000 0.250000 0.000000
O O5 0.944297 0.243600 0.259968
O O6 0.948465 0.425632 0.404959
O O7 0.470841 0.505734 0.175392
O O8 0.437315 0.648503 0.052436
O O9 0.500000 0.697243 0.750000
O O10 0.425016 0.691100 0.643110
O O11 0.848079 0.380733 0.703317
O O12 0.780992 0.171526 0.796413
O O13 0.831127 0.251260 0.938320
O O14 0.647907 0.891560 0.395554
#
# Coordination Sequence:
#
# PCOD9292750 Si02
#       7
#     8   4   8   8   8   8   8
#     4  11  23  42  67  93 129 169 222 273 316 395
#     4  12  22  44  62  98 138 172 220 270 330 402
#     4  11  23  40  63  94 128 166 221 268 328 390
#     4  11  22  39  66  95 126 168 207 277 335 373
#     4  10  22  44  67  94 135 165 221 283 316 398
#     4  11  24  43  69  94 133 181 216 273 333 392
#     4  10  24  44  65  97 128 174 222 264 335 392
#
# _framework density 24.092682
#
# number of rings (size 3 to 8) (size 9 to 14) (size 15 to 20)
#    0.000    1.231    3.846    1.846    2.154    0.000 
#    9.692    1.538    0.000    0.000    0.000    0.000 
#    0.000    0.000    0.000    0.000    0.000    0.000 
#
# Total GULP energy -145254.037140 kJ/mol
# GULP energy per Si atom -5586.693736 kJ/mol
# Density = 2.403785 g / cm^3
# Si number density = 24.092682 Si / 1000 Ang^3
#
#
#
# Elastic Constant Matrix: (Units=GPa)
#
#
# Indices 1 2 3 4 5 6 
#
# 1 66.7080 2.0703 24.0013 0.0000 -17.7833 0.0000
# 2 2.0703 60.8662 -6.4719 0.0000 -7.5983 0.0000
# 3 24.0013 -6.4719 56.0512 0.0000 -12.0024 0.0000
# 4 0.0000 0.0000 0.0000 25.8046 0.0000 -3.6970
# 5 -17.7833 -7.5983 -12.0024 0.0000 45.1990 0.0000
# 6 0.0000 0.0000 0.0000 -3.6970 0.0000 35.0059
#
#
#
# Elastic Compliance Matrix: (Units=1/GPa)
#
#
# Indices 1 2 3 4 5 6 
#
# 1 0.019012 -0.000711 -0.007048 0.000000 0.005489 0.000000
# 2 -0.000711 0.017201 0.003022 0.000000 0.003414 0.000000
# 3 -0.007048 0.003022 0.021972 0.000000 0.003570 0.000000
# 4 0.000000 0.000000 0.000000 0.039348 0.000000 0.004156
# 5 0.005489 0.003414 0.003570 0.000000 0.025806 0.000000
# 6 0.000000 0.000000 0.000000 0.004156 0.000000 0.029005
#
#
# Mechanical properties :
#
#
# Convention : Reuss Voigt Hill
#
# Bulk Modulus (GPa) = 20.52912 24.75832 22.64372
# Shear Modulus (GPa) = 28.08121 32.13695 30.10908
#
# Velocity S-wave (km/s) = 3.41772 3.65621 3.53897
# Velocity P-wave (km/s) = 4.91058 5.30305 5.11059
#
# Compressibility (1/GPa) = 0.04871129
#
# Stress axis : x y z
#
# Youngs Moduli (GPa) = 52.59899 58.13554 45.51273
#
# Poissons Ratio (x) = 0.04132 0.32075
# Poissons Ratio (y) = 0.03739 -0.13752
# Poissons Ratio (z) = 0.37070 -0.17566
#
# Static dielectric constant tensor:
#      x y z
#    x 1.980220 0.000000 0.002280 
#    y 0.000000 1.955100 0.000000 
#    z 0.002280 0.000000 1.907590 
# 
# From -- ./inp_files/117931.got.cif
#   From: 2010.05.17/outbox.cif.g08.bks.cpg/sg15_59_cif.got.tgz:117931.got - 2010.06.03 18:47:42.
