data_PCOD9292082
_publ_section_title
;
Structure prediction by ZEFSAII (Michael W. Deem and Ramdas Pophale) SiO2 
 PCOD9292082
Probable space group: C 2/C
;
_chemical_formula_sum "Si O2"
_cell_formula_units_Z 40
_cell_length_a 22.884242
_cell_length_b 5.194403
_cell_length_c 15.306737
_cell_angle_alpha 90.000000
_cell_angle_beta 109.115924
_cell_angle_gamma 90.000000
_cell_volume 1719.179827
_symmetry_space_group_name_H-M "C 2/C"
_symmetry_group_IT_number 15
_symmetry_cell_setting 'monoclinic'
loop_
_space_group_symop_operation_xyz
x,y,z
-x,y,1/2-z
-x,-y,-z
x,-y,1/2+z
1/2+x,1/2+y,z
1/2-x,1/2+y,1/2-z
1/2-x,1/2-y,-z
1/2+x,1/2-y,1/2+z
loop_
_atom_site_type_symbol
_atom_site_label
_atom_site_fract_x
_atom_site_fract_y
_atom_site_fract_z
Si Si1 0.128797 0.878522 0.881947
Si Si2 0.750543 0.293013 0.131480
Si Si3 0.817578 0.706454 0.851793
Si Si4 0.063871 0.626183 0.327564
Si Si5 0.564026 0.373091 0.505136
O O1 0.198923 0.788056 0.915017
O O2 0.088147 0.655299 0.818662
O O3 0.115346 0.155873 0.831351
O O4 0.102545 0.922952 0.965798
O O5 0.792182 0.281890 0.241038
O O6 0.721084 0.575076 0.114717
O O7 0.699630 0.071396 0.118562
O O8 0.889804 0.771539 0.898205
O O9 0.053349 0.653242 0.426668
O O10 0.000000 0.688690 0.250000
O O11 0.500000 0.500000 0.500000
#
# Coordination Sequence:
#
# PCOD9292082 Si02
#       5
#     8   8   8   8   8
#     4  10  23  41  64  93 120 170 209 263 312 370
#     4  10  22  43  66  92 125 166 212 258 319 380
#     4  10  23  41  65  95 125 165 209 263 318 376
#     4  10  23  41  61  94 124 170 211 250 318 374
#     4  10  26  42  63  96 131 166 210 265 314 375
#
# _framework density 23.266909999999999
#
# number of rings (size 3 to 8) (size 9 to 14) (size 15 to 20)
#    1.200    0.800    0.000    1.800    5.600    2.400 
#    0.000    0.000    0.000    0.000    0.000    0.000 
#    0.000    0.000    0.000    0.000    0.000    0.000 
#
# Total GULP energy -111738.135577 kJ/mol
# GULP energy per Si atom -5586.906779 kJ/mol
# Density = 2.321395 g / cm^3
# Si number density = 23.266910 Si / 1000 Ang^3
#
#
#
# Elastic Constant Matrix: (Units=GPa)
#
#
# Indices 1 2 3 4 5 6 
#
# 1 81.3606 -19.5909 25.7222 0.0000 6.9005 0.0000
# 2 -19.5909 81.1946 17.9174 0.0000 -2.0836 0.0000
# 3 25.7222 17.9174 64.0544 0.0000 29.7332 0.0000
# 4 0.0000 0.0000 0.0000 15.8213 0.0000 10.1390
# 5 6.9005 -2.0836 29.7332 0.0000 42.5615 0.0000
# 6 0.0000 0.0000 0.0000 10.1390 0.0000 28.1259
#
#
#
# Elastic Compliance Matrix: (Units=1/GPa)
#
#
# Indices 1 2 3 4 5 6 
#
# 1 0.016993 0.006713 -0.011211 0.000000 0.005405 0.000000
# 2 0.006713 0.016460 -0.010609 0.000000 0.007129 0.000000
# 3 -0.011211 -0.010609 0.033266 0.000000 -0.021941 0.000000
# 4 0.000000 0.000000 0.000000 0.082194 0.000000 -0.029630
# 5 0.005405 0.007129 -0.021941 0.000000 0.038296 0.000000
# 6 0.000000 0.000000 0.000000 -0.029630 0.000000 0.046236
#
#
# Mechanical properties :
#
#
# Convention : Reuss Voigt Hill
#
# Bulk Modulus (GPa) = 27.39327 30.52301 28.95814
# Shear Modulus (GPa) = 18.12733 30.80581 24.46657
#
# Velocity S-wave (km/s) = 2.79427 3.64265 3.24630
# Velocity P-wave (km/s) = 4.71271 5.55329 5.15018
#
# Compressibility (1/GPa) = 0.03650532
#
# Stress axis : x y z
#
# Youngs Moduli (GPa) = 58.84715 60.75410 30.06079
#
# Poissons Ratio (x) = -0.40783 0.33700
# Poissons Ratio (y) = -0.39503 0.31891
# Poissons Ratio (z) = 0.65972 0.64453
#
# Static dielectric constant tensor:
#      x y z
#    x 1.857020 0.000000 -0.031280 
#    y 0.000000 1.847190 0.000000 
#    z -0.031280 0.000000 1.924060 
# 
# From -- ./inp_files/212734.got.cif
#   From: 2010.05.17/outbox.cif.g08.bks.cpg/sg15_107_cif.got.tgz:212734.got - 2010.06.03 18:47:42.
