data_PCOD9292195
_publ_section_title
;
Structure prediction by ZEFSAII (Michael W. Deem and Ramdas Pophale) SiO2 
 PCOD9292195
Probable space group: C 2/C
;
_chemical_formula_sum "Si O2"
_cell_formula_units_Z 60
_cell_length_a 9.608095
_cell_length_b 11.524004
_cell_length_c 25.899135
_cell_angle_alpha 90.000000
_cell_angle_beta 90.717713
_cell_angle_gamma 90.000000
_cell_volume 2867.423726
_symmetry_space_group_name_H-M "C 2/C"
_symmetry_group_IT_number 15
_symmetry_cell_setting 'monoclinic'
loop_
_space_group_symop_operation_xyz
x,y,z
-x,y,1/2-z
-x,-y,-z
x,-y,1/2+z
1/2+x,1/2+y,z
1/2-x,1/2+y,1/2-z
1/2-x,1/2-y,-z
1/2+x,1/2-y,1/2+z
loop_
_atom_site_type_symbol
_atom_site_label
_atom_site_fract_x
_atom_site_fract_y
_atom_site_fract_z
Si Si1 0.280105 0.373098 0.683695
Si Si2 0.978737 0.432789 0.658214
Si Si3 0.000000 0.016746 0.750000
Si Si4 0.742294 0.613926 0.681699
Si Si5 0.155883 0.980382 0.921732
Si Si6 0.050252 0.562967 0.551947
Si Si7 0.021079 0.809156 0.107174
Si Si8 0.412355 0.280670 0.509082
O O1 0.399975 0.441699 0.713141
O O2 0.299349 0.238955 0.699063
O O3 0.294899 0.389841 0.621846
O O4 0.123413 0.424895 0.691694
O O5 0.850590 0.506598 0.681554
O O6 0.962719 0.297262 0.641308
O O7 0.003604 0.501182 0.604471
O O8 0.108259 0.088131 0.716136
O O9 0.673308 0.647027 0.626049
O O10 0.080088 0.906881 0.965252
O O11 0.284487 0.049006 0.946686
O O12 0.069755 0.076086 0.891301
O O13 0.000000 0.500000 0.500000
O O14 0.989530 0.691215 0.546973
O O15 0.023367 0.772232 0.047509
O O16 0.250000 0.250000 0.500000
#
# Coordination Sequence:
#
# PCOD9292195 Si02
#       8
#     8   8   4   8   8   8   8   8
#     4  10  24  47  68 103 133 173 222 278 344 401
#     4  10  22  43  67  96 140 180 217 273 338 396
#     4  12  26  48  74 102 128 166 230 284 346 414
#     4  11  25  46  74  98 134 176 218 285 347 401
#     4  11  23  40  61  96 138 174 229 279 320 399
#     4  11  20  37  59  90 132 180 225 263 317 396
#     4  11  23  40  63  98 138 178 225 274 331 395
#     4  12  21  36  62  90 134 186 224 267 322 391
#
# _framework density 20.924707000000001
#
# number of rings (size 3 to 8) (size 9 to 14) (size 15 to 20)
#    0.000    1.067    4.000    3.600    0.000    5.333 
#    4.800    0.000    0.000    0.000    0.000    0.000 
#    0.000    0.000    0.000    0.000    0.000    0.000 
#
# Total GULP energy -167411.802128 kJ/mol
# GULP energy per Si atom -5580.393404 kJ/mol
# Density = 2.087708 g / cm^3
# Si number density = 20.924707 Si / 1000 Ang^3
#
#
#
# Elastic Constant Matrix: (Units=GPa)
#
#
# Indices 1 2 3 4 5 6 
#
# 1 78.6339 68.7534 26.3909 0.0000 2.4377 0.0000
# 2 68.7534 144.4100 29.8250 0.0000 -2.0228 0.0000
# 3 26.3909 29.8250 62.0187 0.0000 6.2989 0.0000
# 4 0.0000 0.0000 0.0000 -3.0929 0.0000 -1.7839
# 5 2.4377 -2.0228 6.2989 0.0000 33.5256 0.0000
# 6 0.0000 0.0000 0.0000 -1.7839 0.0000 39.4407
#
#
#
# Elastic Compliance Matrix: (Units=1/GPa)
#
#
# Indices 1 2 3 4 5 6 
#
# 1 0.023188 -0.010048 -0.004896 0.000000 -0.001372 0.000000
# 2 -0.010048 0.012089 -0.001719 0.000000 0.001783 0.000000
# 3 -0.004896 -0.001719 0.019378 0.000000 -0.003389 0.000000
# 4 0.000000 0.000000 0.000000 -0.315102 0.000000 -0.014252
# 5 -0.001372 0.001783 -0.003389 0.000000 0.030672 0.000000
# 6 0.000000 0.000000 0.000000 -0.014252 0.000000 0.024710
#
#
# Mechanical properties :
#
#
# Convention : Reuss Voigt Hill
#
# Bulk Modulus (GPa) = 46.88268 59.44460 53.16364
# Shear Modulus (GPa) = -30.37115 24.64757 -2.86179
#
# Velocity S-wave (km/s) = -3.81392 3.43580 -1.17074
# Velocity P-wave (km/s) = 1.74911 6.64907 4.86156
#
# Compressibility (1/GPa) = 0.02132984
#
# Stress axis : x y z
#
# Youngs Moduli (GPa) = 43.12517 82.72311 51.60439
#
# Poissons Ratio (x) = 0.83120 0.25265
# Poissons Ratio (y) = 0.43332 0.08869
# Poissons Ratio (z) = 0.21113 0.14218
#
# Static dielectric constant tensor:
#      x y z
#    x 1.773740 0.000000 -0.021230 
#    y 0.000000 1.797130 0.000000 
#    z -0.021230 0.000000 1.793310 
# 
# From -- ./inp_files/288031.got.cif
#   From: 2010.05.17/outbox.cif.g08.bks.cpg/sg15_145_cif.got.tgz:288031.got - 2010.06.03 18:47:42.
