data_PCOD9292477
_publ_section_title
;
Structure prediction by ZEFSAII (Michael W. Deem and Ramdas Pophale) SiO2 
 PCOD9292477
Probable space group: C 2/C
;
_chemical_formula_sum "Si O2"
_cell_formula_units_Z 40
_cell_length_a 13.244686
_cell_length_b 5.097160
_cell_length_c 24.324457
_cell_angle_alpha 90.000000
_cell_angle_beta 114.207667
_cell_angle_gamma 90.000000
_cell_volume 1497.748863
_symmetry_space_group_name_H-M "C 2/C"
_symmetry_group_IT_number 15
_symmetry_cell_setting 'monoclinic'
loop_
_space_group_symop_operation_xyz
x,y,z
-x,y,1/2-z
-x,-y,-z
x,-y,1/2+z
1/2+x,1/2+y,z
1/2-x,1/2+y,1/2-z
1/2-x,1/2-y,-z
1/2+x,1/2-y,1/2+z
loop_
_atom_site_type_symbol
_atom_site_label
_atom_site_fract_x
_atom_site_fract_y
_atom_site_fract_z
Si Si1 0.604652 0.809737 0.033979
Si Si2 0.545154 0.022548 0.130679
Si Si3 0.762685 0.131098 0.790501
Si Si4 0.859255 0.891635 0.063067
Si Si5 0.559682 0.305230 0.812918
O O1 0.600404 0.822449 0.099316
O O2 0.727903 0.906644 0.043300
O O3 0.603300 0.556705 0.992069
O O4 0.500000 0.000000 0.000000
O O5 0.528697 0.907473 0.187294
O O6 0.624609 0.272100 0.155067
O O7 0.421046 0.111276 0.085462
O O8 0.741594 0.347148 0.737743
O O9 0.669223 0.171486 0.815062
O O10 0.910606 0.050262 0.124574
O O11 0.500000 0.461487 0.750000
#
# Coordination Sequence:
#
# PCOD9292477 Si02
#       5
#     8   8   8   8   8
#     4   9  20  44  70 104 140 195 251 313 383 447
#     4  11  24  43  70 103 146 192 251 313 377 453
#     4  12  27  48  74 107 155 203 252 316 388 459
#     4  10  22  43  72  98 150 188 252 312 377 457
#     4  12  25  43  70 108 141 198 247 307 381 456
#
# _framework density 26.706744
#
# number of rings (size 3 to 8) (size 9 to 14) (size 15 to 20)
#    0.000    1.200    4.000    1.200    2.800    1.600 
#    0.000    9.000    0.000    0.000    0.000    0.000 
#    0.000    0.000    0.000    0.000    0.000    0.000 
#
# Total GULP energy -111729.162820 kJ/mol
# GULP energy per Si atom -5586.458141 kJ/mol
# Density = 2.664596 g / cm^3
# Si number density = 26.706744 Si / 1000 Ang^3
#
#
#
# Elastic Constant Matrix: (Units=GPa)
#
#
# Indices 1 2 3 4 5 6 
#
# 1 244.8279 39.2146 63.6246 0.0000 -7.7777 0.0000
# 2 39.2146 59.1974 22.8600 0.0000 1.9695 0.0000
# 3 63.6246 22.8600 94.1448 0.0000 16.3192 0.0000
# 4 0.0000 0.0000 0.0000 28.2254 0.0000 -8.3811
# 5 -7.7777 1.9695 16.3192 0.0000 53.4262 0.0000
# 6 0.0000 0.0000 0.0000 -8.3811 0.0000 17.8803
#
#
#
# Elastic Compliance Matrix: (Units=1/GPa)
#
#
# Indices 1 2 3 4 5 6 
#
# 1 0.005407 -0.002324 -0.003422 0.000000 0.001918 0.000000
# 2 -0.002324 0.019667 -0.003189 0.000000 -0.000089 0.000000
# 3 -0.003422 -0.003189 0.014545 0.000000 -0.004824 0.000000
# 4 0.000000 0.000000 0.000000 0.041158 0.000000 0.019292
# 5 0.001918 -0.000089 -0.004824 0.000000 0.020473 0.000000
# 6 0.000000 0.000000 0.000000 0.019292 0.000000 0.064970
#
#
# Mechanical properties :
#
#
# Convention : Reuss Voigt Hill
#
# Bulk Modulus (GPa) = 45.98197 72.17428 59.07813
# Shear Modulus (GPa) = 26.13134 38.07110 32.10122
#
# Velocity S-wave (km/s) = 3.13142 3.77971 3.47073
# Velocity P-wave (km/s) = 5.50719 6.79203 6.18307
#
# Compressibility (1/GPa) = 0.02174765
#
# Stress axis : x y z
#
# Youngs Moduli (GPa) = 184.94288 50.84723 68.75035
#
# Poissons Ratio (x) = 0.11817 0.23529
# Poissons Ratio (y) = 0.42982 0.21927
# Poissons Ratio (z) = 0.63294 0.16217
#
# Static dielectric constant tensor:
#      x y z
#    x 2.007610 0.000000 0.061900 
#    y 0.000000 2.170340 0.000000 
#    z 0.061900 0.000000 2.330010 
# 
# From -- ./inp_files/309472.got.cif
#   From: 2010.05.17/outbox.cif.g08.bks.cpg/sg15_155_cif.got.tgz:309472.got - 2010.06.03 18:47:42.
