data_PCOD9292536
_publ_section_title
;
Structure prediction by ZEFSAII (Michael W. Deem and Ramdas Pophale) SiO2 
 PCOD9292536
Probable space group: C 2/C
;
_chemical_formula_sum "Si O2"
_cell_formula_units_Z 36
_cell_length_a 10.948751
_cell_length_b 17.844191
_cell_length_c 9.419884
_cell_angle_alpha 90.000000
_cell_angle_beta 107.199498
_cell_angle_gamma 90.000000
_cell_volume 1758.077904
_symmetry_space_group_name_H-M "C 2/C"
_symmetry_group_IT_number 15
_symmetry_cell_setting 'monoclinic'
loop_
_space_group_symop_operation_xyz
x,y,z
-x,y,1/2-z
-x,-y,-z
x,-y,1/2+z
1/2+x,1/2+y,z
1/2-x,1/2+y,1/2-z
1/2-x,1/2-y,-z
1/2+x,1/2-y,1/2+z
loop_
_atom_site_type_symbol
_atom_site_label
_atom_site_fract_x
_atom_site_fract_y
_atom_site_fract_z
Si Si1 0.685607 0.359108 0.875735
Si Si2 0.645922 0.060455 0.301415
Si Si3 0.000000 0.980474 0.750000
Si Si4 0.758126 0.568700 0.844550
Si Si5 0.146016 0.314585 0.304361
O O1 0.760594 0.390435 0.765060
O O2 0.572157 0.418250 0.874051
O O3 0.645897 0.274682 0.825977
O O4 0.781553 0.352032 0.039094
O O5 0.500000 0.088634 0.250000
O O6 0.703804 0.056115 0.479043
O O7 0.648772 0.980754 0.222313
O O8 0.117930 0.035918 0.758962
O O9 0.780098 0.654470 0.807948
O O10 0.000000 0.338015 0.250000
#
# Coordination Sequence:
#
# PCOD9292536 Si02
#       5
#     8   8   4   8   8
#     4  10  23  40  65  85 129 168 208 249 324 361
#     4  11  22  40  61  93 123 164 204 267 304 375
#     4  10  22  44  58  96 122 170 198 266 296 390
#     4  11  23  37  66  90 126 160 214 252 318 355
#     4  11  22  42  63  94 119 172 208 259 303 386
#
# _framework density 20.476908999999999
#
# number of rings (size 3 to 8) (size 9 to 14) (size 15 to 20)
#    0.000    1.333    1.111    5.333    0.000    8.889 
#    2.000    0.000    0.000    0.000    0.000    0.000 
#    0.000    0.000    0.000    0.000    0.000    0.000 
#
# Total GULP energy -100359.415789 kJ/mol
# GULP energy per Si atom -5575.523099 kJ/mol
# Density = 2.043030 g / cm^3
# Si number density = 20.476909 Si / 1000 Ang^3
#
#
#
# Elastic Constant Matrix: (Units=GPa)
#
#
# Indices 1 2 3 4 5 6 
#
# 1 96.5084 18.1235 29.9490 0.0000 27.5112 0.0000
# 2 18.1235 55.1594 19.1905 0.0000 13.6444 0.0000
# 3 29.9490 19.1905 90.7613 0.0000 -5.6636 0.0000
# 4 0.0000 0.0000 0.0000 39.3090 0.0000 -17.5761
# 5 27.5112 13.6444 -5.6636 0.0000 33.0997 0.0000
# 6 0.0000 0.0000 0.0000 -17.5761 0.0000 20.0919
#
#
#
# Elastic Compliance Matrix: (Units=1/GPa)
#
#
# Indices 1 2 3 4 5 6 
#
# 1 0.016608 0.000571 -0.006547 0.000000 -0.015159 0.000000
# 2 0.000571 0.022555 -0.005627 0.000000 -0.010735 0.000000
# 3 -0.006547 -0.005627 0.015013 0.000000 0.010330 0.000000
# 4 0.000000 0.000000 0.000000 0.041782 0.000000 0.036551
# 5 -0.015159 -0.010735 0.010330 0.000000 0.049004 0.000000
# 6 0.000000 0.000000 0.000000 0.036551 0.000000 0.081745
#
#
# Mechanical properties :
#
#
# Convention : Reuss Voigt Hill
#
# Bulk Modulus (GPa) = 32.29058 41.88389 37.08724
# Shear Modulus (GPa) = 19.21333 30.17785 24.69559
#
# Velocity S-wave (km/s) = 3.06648 3.84311 3.47655
# Velocity P-wave (km/s) = 5.32365 6.33966 5.85374
#
# Compressibility (1/GPa) = 0.03096878
#
# Stress axis : x y z
#
# Youngs Moduli (GPa) = 60.21358 44.33622 66.61085
#
# Poissons Ratio (x) = -0.02531 0.43608
# Poissons Ratio (y) = -0.03437 0.37483
# Poissons Ratio (z) = 0.39420 0.24949
#
# Static dielectric constant tensor:
#      x y z
#    x 1.733120 0.000000 0.009180 
#    y 0.000000 1.791070 0.000000 
#    z 0.009180 0.000000 1.718680 
# 
# From -- ./inp_files/28827.got.cif
#   From: 2010.05.17/outbox.cif.g08.bks.cpg/sg15_15_cif.got.tgz:28827.got - 2010.06.03 18:47:42.
