data_PCOD9292186
_publ_section_title
;
Structure prediction by ZEFSAII (Michael W. Deem and Ramdas Pophale) SiO2 
 PCOD9292186
Probable space group: C 2/C
;
_chemical_formula_sum "Si O2"
_cell_formula_units_Z 64
_cell_length_a 18.318018
_cell_length_b 20.824301
_cell_length_c 25.151845
_cell_angle_alpha 90.000000
_cell_angle_beta 161.679314
_cell_angle_gamma 90.000000
_cell_volume 3015.864323
_symmetry_space_group_name_H-M "C 2/C"
_symmetry_group_IT_number 15
_symmetry_cell_setting 'monoclinic'
loop_
_space_group_symop_operation_xyz
x,y,z
-x,y,1/2-z
-x,-y,-z
x,-y,1/2+z
1/2+x,1/2+y,z
1/2-x,1/2+y,1/2-z
1/2-x,1/2-y,-z
1/2+x,1/2-y,1/2+z
loop_
_atom_site_type_symbol
_atom_site_label
_atom_site_fract_x
_atom_site_fract_y
_atom_site_fract_z
Si Si1 0.573751 0.774628 0.558213
Si Si2 0.061853 0.780376 0.165938
Si Si3 0.653897 0.396252 0.777667
Si Si4 0.614502 0.974456 0.749681
Si Si5 0.002497 0.039923 0.427628
Si Si6 0.106765 0.338071 0.880676
Si Si7 0.352330 0.097684 0.528931
Si Si8 0.690665 0.835324 0.335232
O O1 0.317415 0.794126 0.363462
O O2 0.558516 0.731787 0.600677
O O3 0.732337 0.837086 0.674957
O O4 0.684474 0.731723 0.588005
O O5 0.973179 0.713915 0.131306
O O6 0.881478 0.833674 0.061241
O O7 0.611953 0.455185 0.709049
O O8 0.395144 0.379793 0.619185
O O9 0.812218 0.409632 0.938513
O O10 0.490072 0.907159 0.670897
O O11 0.798510 0.973209 0.828417
O O12 0.433769 0.031278 0.612528
O O13 0.782434 0.991353 0.915613
O O14 0.123425 0.108711 0.524378
O O15 0.000000 0.318425 0.750000
O O16 0.550619 0.146488 0.684745
O O17 0.500000 0.834186 0.250000
#
# Coordination Sequence:
#
# PCOD9292186 Si02
#       8
#     8   8   8   8   8   8   8   8
#     4  12  24  41  67  96 137 181 220 271 342 396
#     4  11  25  45  66 104 137 166 223 278 326 409
#     4  11  23  41  62  88 144 173 208 283 337 385
#     4  10  23  43  72  97 122 175 229 273 328 394
#     4  10  22  43  67  95 131 165 226 284 319 390
#     4  11  23  43  75  97 131 174 219 272 336 398
#     4  10  24  41  59  99 134 168 226 275 326 403
#     4  11  22  39  67  96 128 175 229 272 324 402
#
# _framework density 21.221112999999999
#
# number of rings (size 3 to 8) (size 9 to 14) (size 15 to 20)
#    0.000    1.250    2.500    3.000    3.500    1.000 
#    2.250    5.000    0.000    0.000    0.000    0.000 
#    0.000    0.000    0.000    0.000    0.000    0.000 
#
# Total GULP energy -178961.025273 kJ/mol
# GULP energy per Si atom -5592.532040 kJ/mol
# Density = 2.117281 g / cm^3
# Si number density = 21.221113 Si / 1000 Ang^3
#
#
#
# Elastic Constant Matrix: (Units=GPa)
#
#
# Indices 1 2 3 4 5 6 
#
# 1 49.0331 0.6166 38.0093 -0.0499 3.9875 0.0585
# 2 0.6166 63.9028 34.4141 -0.0209 21.5453 0.0197
# 3 38.0093 34.4141 141.3375 0.0973 7.8819 -0.0484
# 4 -0.0499 -0.0209 0.0973 26.8899 0.0145 4.2836
# 5 3.9875 21.5453 7.8819 0.0145 38.6675 -0.0178
# 6 0.0585 0.0197 -0.0484 4.2836 -0.0178 26.7190
#
#
#
# Elastic Compliance Matrix: (Units=1/GPa)
#
#
# Indices 1 2 3 4 5 6 
#
# 1 0.027253 0.005755 -0.008492 0.000104 -0.004286 -0.000099
# 2 0.005755 0.023219 -0.006521 0.000069 -0.012202 -0.000061
# 3 -0.008492 -0.006521 0.010818 -0.000070 0.002304 0.000056
# 4 0.000104 0.000069 -0.000070 0.038164 -0.000052 -0.006119
# 5 -0.004286 -0.012202 0.002304 -0.000052 0.032633 0.000053
# 6 -0.000099 -0.000061 0.000056 -0.006119 0.000053 0.038408
#
#
# Mechanical properties :
#
#
# Convention : Reuss Voigt Hill
#
# Bulk Modulus (GPa) = 23.37756 44.48372 33.93064
# Shear Modulus (GPa) = 24.59808 30.53750 27.56779
#
# Velocity S-wave (km/s) = 3.40830 3.79755 3.60818
# Velocity P-wave (km/s) = 5.15061 6.34319 5.77775
#
# Compressibility (1/GPa) = 0.04277607
#
# Stress axis : x y z
#
# Youngs Moduli (GPa) = 36.69290 43.06830 92.43681
#
# Poissons Ratio (x) = -0.24787 0.78493
# Poissons Ratio (y) = -0.21118 0.60277
# Poissons Ratio (z) = 0.31158 0.28084
#
# Static dielectric constant tensor:
#      x y z
#    x 1.794060 -0.000010 -0.016290 
#    y -0.000010 1.737800 -0.000090 
#    z -0.016290 -0.000090 1.745080 
# 
# From -- ./inp_files/278129.got.cif
#   From: 2010.05.17/outbox.cif.g08.bks.cpg/sg15_140_cif.got.tgz:278129.got - 2010.06.03 18:47:42.
