data_PCOD9292307
_publ_section_title
;
Structure prediction by ZEFSAII (Michael W. Deem and Ramdas Pophale) SiO2 
 PCOD9292307
Probable space group: C 2/C
;
_chemical_formula_sum "Si O2"
_cell_formula_units_Z 32
_cell_length_a 11.330740
_cell_length_b 21.227968
_cell_length_c 7.952524
_cell_angle_alpha 90.000000
_cell_angle_beta 43.120786
_cell_angle_gamma 90.000000
_cell_volume 1307.479066
_symmetry_space_group_name_H-M "C 2/C"
_symmetry_group_IT_number 15
_symmetry_cell_setting 'monoclinic'
loop_
_space_group_symop_operation_xyz
x,y,z
-x,y,1/2-z
-x,-y,-z
x,-y,1/2+z
1/2+x,1/2+y,z
1/2-x,1/2+y,1/2-z
1/2-x,1/2-y,-z
1/2+x,1/2-y,1/2+z
loop_
_atom_site_type_symbol
_atom_site_label
_atom_site_fract_x
_atom_site_fract_y
_atom_site_fract_z
Si Si1 0.500000 0.041381 0.250000
Si Si2 0.028733 0.854078 0.407882
Si Si3 0.716388 0.934717 0.201286
Si Si4 0.500000 0.160856 0.750000
Si Si5 0.221454 0.263048 0.830445
O O1 0.396159 0.074119 0.509790
O O2 0.647907 0.999792 0.192709
O O3 0.090001 0.913889 0.453435
O O4 0.177670 0.799885 0.273607
O O5 0.000000 0.876090 0.250000
O O6 0.858884 0.814229 0.629959
O O7 0.657979 0.884739 0.122493
O O8 0.538617 0.200343 0.542428
O O9 0.250000 0.250000 0.000000
#
# Coordination Sequence:
#
# PCOD9292307 Si02
#       5
#     4   8   8   4   8
#     4   9  22  46  72  88 130 164 230 285 334 378
#     4  12  25  40  65 100 140 173 214 268 326 393
#     4  10  22  43  69  95 120 177 218 274 336 386
#     4  11  22  38  72  94 130 176 216 261 320 410
#     4  12  22  42  63  99 138 178 213 254 320 407
#
# _framework density 24.474577
#
# number of rings (size 3 to 8) (size 9 to 14) (size 15 to 20)
#    0.000    1.000    5.000    0.750    3.500    0.000 
#    2.250    1.250    0.000    0.000    0.000    0.000 
#    0.000    0.000    0.000    0.000    0.000    0.000 
#
# Total GULP energy -89209.490418 kJ/mol
# GULP energy per Si atom -5575.593151 kJ/mol
# Density = 2.441887 g / cm^3
# Si number density = 24.474577 Si / 1000 Ang^3
#
#
#
# Elastic Constant Matrix: (Units=GPa)
#
#
# Indices 1 2 3 4 5 6 
#
# 1 118.0334 10.7029 5.4763 0.0000 0.3225 0.0000
# 2 10.7029 62.0462 11.8088 0.0000 -0.4251 0.0000
# 3 5.4763 11.8088 51.9764 0.0000 -4.1216 0.0000
# 4 0.0000 0.0000 0.0000 33.6881 0.0000 -2.9860
# 5 0.3225 -0.4251 -4.1216 0.0000 35.1236 0.0000
# 6 0.0000 0.0000 0.0000 -2.9860 0.0000 21.4701
#
#
#
# Elastic Compliance Matrix: (Units=1/GPa)
#
#
# Indices 1 2 3 4 5 6 
#
# 1 0.008625 -0.001373 -0.000610 0.000000 -0.000167 0.000000
# 2 -0.001373 0.017066 -0.003750 0.000000 -0.000221 0.000000
# 3 -0.000610 -0.003750 0.020342 0.000000 0.002347 0.000000
# 4 0.000000 0.000000 0.000000 0.030055 0.000000 0.004180
# 5 -0.000167 -0.000221 0.002347 0.000000 0.028745 0.000000
# 6 0.000000 0.000000 0.000000 0.004180 0.000000 0.047158
#
#
# Mechanical properties :
#
#
# Convention : Reuss Voigt Hill
#
# Bulk Modulus (GPa) = 28.92935 32.00355 30.46645
# Shear Modulus (GPa) = 28.57473 31.66089 30.11781
#
# Velocity S-wave (km/s) = 3.42062 3.60060 3.51176
# Velocity P-wave (km/s) = 5.23895 5.51275 5.37759
#
# Compressibility (1/GPa) = 0.03456697
#
# Stress axis : x y z
#
# Youngs Moduli (GPa) = 115.93620 58.59573 49.15950
#
# Poissons Ratio (x) = 0.08045 0.02999
# Poissons Ratio (y) = 0.15917 0.18436
# Poissons Ratio (z) = 0.07074 0.21975
#
# Static dielectric constant tensor:
#      x y z
#    x 2.005160 0.000000 -0.138500 
#    y 0.000000 2.042580 0.000000 
#    z -0.138500 0.000000 2.038450 
# 
# From -- ./inp_files/31646.got.cif
#   From: 2010.05.17/outbox.cif.g08.bks.cpg/sg15_16_cif.got.tgz:31646.got - 2010.06.03 18:47:42.
