data_PCOD9292906
_publ_section_title
;
Structure prediction by ZEFSAII (Michael W. Deem and Ramdas Pophale) SiO2 
 PCOD9292906
Probable space group: C 2/C
;
_chemical_formula_sum "Si O2"
_cell_formula_units_Z 40
_cell_length_a 14.093848
_cell_length_b 16.860324
_cell_length_c 18.819252
_cell_angle_alpha 90.000000
_cell_angle_beta 23.103976
_cell_angle_gamma 90.000000
_cell_volume 1754.801120
_symmetry_space_group_name_H-M "C 2/C"
_symmetry_group_IT_number 15
_symmetry_cell_setting 'monoclinic'
loop_
_space_group_symop_operation_xyz
x,y,z
-x,y,1/2-z
-x,-y,-z
x,-y,1/2+z
1/2+x,1/2+y,z
1/2-x,1/2+y,1/2-z
1/2-x,1/2-y,-z
1/2+x,1/2-y,1/2+z
loop_
_atom_site_type_symbol
_atom_site_label
_atom_site_fract_x
_atom_site_fract_y
_atom_site_fract_z
Si Si1 0.271269 0.670166 0.586956
Si Si2 0.048273 0.215432 0.587924
Si Si3 0.439901 0.570532 0.595574
Si Si4 0.510014 0.820334 0.487943
Si Si5 0.600999 0.558329 0.259317
O O1 0.260681 0.623560 0.670224
O O2 0.407756 0.752738 0.505868
O O3 0.420142 0.617402 0.427589
O O4 0.000000 0.684850 0.750000
O O5 0.250000 0.250000 0.500000
O O6 0.954406 0.287113 0.604347
O O7 0.135982 0.139064 0.481105
O O8 0.800445 0.180313 0.789989
O O9 0.500000 0.500000 0.500000
O O10 0.380401 0.521042 0.706995
O O11 0.360829 0.899131 0.576772
O O12 0.500000 0.544588 0.250000
#
# Coordination Sequence:
#
# PCOD9292906 Si02
#       5
#     8   8   8   8   8
#     4  10  22  44  69  98 134 186 228 282 361 425
#     4  11  24  45  71 100 133 189 242 296 354 426
#     4   9  23  48  67  99 149 187 234 292 367 442
#     4  11  23  42  69  99 141 173 239 297 349 424
#     4  11  24  41  69 106 139 183 231 295 358 424
#
# _framework density 22.794605000000001
#
# number of rings (size 3 to 8) (size 9 to 14) (size 15 to 20)
#    0.000    1.600    2.000    1.200    5.600    4.000 
#    7.200    0.000    0.000    0.000    0.000    0.000 
#    0.000    0.000    0.000    0.000    0.000    0.000 
#
# Total GULP energy -111612.340838 kJ/mol
# GULP energy per Si atom -5580.617042 kJ/mol
# Density = 2.274272 g / cm^3
# Si number density = 22.794605 Si / 1000 Ang^3
#
#
#
# Elastic Constant Matrix: (Units=GPa)
#
#
# Indices 1 2 3 4 5 6 
#
# 1 184.4720 85.8369 56.7183 0.0009 -19.0027 -0.0272
# 2 85.8369 135.9469 32.9220 -0.0896 -20.6963 -0.0283
# 3 56.7183 32.9220 112.0792 -0.1219 -25.3625 0.0018
# 4 0.0009 -0.0896 -0.1219 28.9041 0.0105 8.2750
# 5 -19.0027 -20.6963 -25.3625 0.0105 40.6566 0.0067
# 6 -0.0272 -0.0283 0.0018 8.2750 0.0067 30.6351
#
#
#
# Elastic Compliance Matrix: (Units=1/GPa)
#
#
# Indices 1 2 3 4 5 6 
#
# 1 0.008486 -0.004678 -0.002983 -0.000031 -0.000276 0.000012
# 2 -0.004678 0.010826 -0.000070 0.000033 0.003281 -0.000004
# 3 -0.002983 -0.000070 0.011794 0.000053 0.005927 -0.000019
# 4 -0.000031 0.000033 0.000053 0.037497 0.000028 -0.010128
# 5 -0.000276 0.003281 0.005927 0.000028 0.029835 -0.000012
# 6 0.000012 -0.000004 -0.000019 -0.010128 -0.000012 0.035378
#
#
# Mechanical properties :
#
#
# Convention : Reuss Voigt Hill
#
# Bulk Modulus (GPa) = 63.92272 87.05026 75.48649
# Shear Modulus (GPa) = 32.36396 37.17390 34.76893
#
# Velocity S-wave (km/s) = 3.77212 4.04272 3.90976
# Velocity P-wave (km/s) = 6.86117 7.75005 7.31912
#
# Compressibility (1/GPa) = 0.01564389
#
# Stress axis : x y z
#
# Youngs Moduli (GPa) = 117.83755 92.37103 84.79068
#
# Poissons Ratio (x) = 0.43210 0.25292
# Poissons Ratio (y) = 0.55123 0.00596
# Poissons Ratio (z) = 0.35149 0.00649
#
# Static dielectric constant tensor:
#      x y z
#    x 1.895900 0.000050 0.102780 
#    y 0.000050 1.890470 -0.000170 
#    z 0.102780 -0.000170 2.159960 
# 
# From -- ./inp_files/98519.got.cif
#   From: 2010.05.17/outbox.cif.g08.bks.cpg/sg15_50_cif.got.tgz:98519.got - 2010.06.03 18:47:42.
