data_PCOD9292077
_publ_section_title
;
Structure prediction by ZEFSAII (Michael W. Deem and Ramdas Pophale) SiO2 
 PCOD9292077
Probable space group: C 2/C
;
_chemical_formula_sum "Si O2"
_cell_formula_units_Z 48
_cell_length_a 6.959530
_cell_length_b 28.893126
_cell_length_c 14.497088
_cell_angle_alpha 90.000000
_cell_angle_beta 126.431272
_cell_angle_gamma 90.000000
_cell_volume 2345.410902
_symmetry_space_group_name_H-M "C 2/C"
_symmetry_group_IT_number 15
_symmetry_cell_setting 'monoclinic'
loop_
_space_group_symop_operation_xyz
x,y,z
-x,y,1/2-z
-x,-y,-z
x,-y,1/2+z
1/2+x,1/2+y,z
1/2-x,1/2+y,1/2-z
1/2-x,1/2-y,-z
1/2+x,1/2-y,1/2+z
loop_
_atom_site_type_symbol
_atom_site_label
_atom_site_fract_x
_atom_site_fract_y
_atom_site_fract_z
Si Si1 0.573592 0.372214 0.662661
Si Si2 0.555383 0.911069 0.159419
Si Si3 0.500000 0.525110 0.750000
Si Si4 0.869544 0.321050 0.051175
Si Si5 0.500000 0.200162 0.250000
Si Si6 0.590921 0.464305 0.949394
Si Si7 0.269828 0.243436 0.355878
O O1 0.500000 0.376525 0.750000
O O2 0.351562 0.350721 0.546335
O O3 0.783601 0.336475 0.699473
O O4 0.599030 0.423379 0.627079
O O5 0.500000 0.902672 0.250000
O O6 0.790267 0.941650 0.223619
O O7 0.573175 0.859599 0.120450
O O8 0.338984 0.940436 0.051342
O O9 0.609239 0.493119 0.860780
O O10 0.791105 0.293834 0.120699
O O11 0.893165 0.283471 0.976633
O O12 0.445258 0.234206 0.320520
O O13 0.500000 0.500000 0.000000
O O14 0.000000 0.226109 0.250000
#
# Coordination Sequence:
#
# PCOD9292077 Si02
#       7
#     8   8   4   8   4   8   8
#     4  11  22  43  64  95 137 173 226 285 343 404
#     4  11  24  44  67  98 141 174 227 281 339 414
#     4  12  24  44  71 102 138 178 232 281 344 408
#     4  10  22  43  66  90 132 177 213 283 351 386
#     4  12  22  38  69  98 130 172 232 279 340 418
#     4  11  24  44  71 100 135 189 228 280 346 408
#     4  11  22  43  65  93 132 171 224 284 341 413
#
# _framework density 20.465498
#
# number of rings (size 3 to 8) (size 9 to 14) (size 15 to 20)
#    0.000    1.000    5.833    1.000    0.000    3.333 
#    0.000    1.667    0.000    0.000    0.000    0.000 
#    0.000    0.000    0.000    0.000    0.000    0.000 
#
# Total GULP energy -133751.505502 kJ/mol
# GULP energy per Si atom -5572.979396 kJ/mol
# Density = 2.041892 g / cm^3
# Si number density = 20.465498 Si / 1000 Ang^3
#
#
#
# Elastic Constant Matrix: (Units=GPa)
#
#
# Indices 1 2 3 4 5 6 
#
# 1 66.9208 15.2783 24.2006 0.0000 -23.8056 0.0000
# 2 15.2783 106.1102 31.2200 0.0000 -19.2200 0.0000
# 3 24.2006 31.2200 82.6854 0.0000 -15.3201 0.0000
# 4 0.0000 0.0000 0.0000 31.7470 0.0000 -63.6917
# 5 -23.8056 -19.2200 -15.3201 0.0000 32.6265 0.0000
# 6 0.0000 0.0000 0.0000 -63.6917 0.0000 -146.8370
#
#
#
# Elastic Compliance Matrix: (Units=1/GPa)
#
#
# Indices 1 2 3 4 5 6 
#
# 1 0.021173 0.000617 -0.003834 0.000000 0.014012 0.000000
# 2 0.000617 0.011348 -0.003443 0.000000 0.005519 0.000000
# 3 -0.003834 -0.003443 0.014920 0.000000 0.002180 0.000000
# 4 0.000000 0.000000 0.000000 0.016842 0.000000 -0.007306
# 5 0.014012 0.005519 0.002180 0.000000 0.045149 0.000000
# 6 0.000000 0.000000 0.000000 -0.007306 0.000000 -0.003641
#
#
# Mechanical properties :
#
#
# Convention : Reuss Voigt Hill
#
# Bulk Modulus (GPa) = 29.30629 44.12379 36.71504
# Shear Modulus (GPa) = 38.31909 -4.15819 17.08045
#
# Velocity S-wave (km/s) = 4.33179 -1.42696 2.89207
# Velocity P-wave (km/s) = 6.27456 4.34649 5.39732
#
# Compressibility (1/GPa) = 0.03412237
#
# Stress axis : x y z
#
# Youngs Moduli (GPa) = 47.22989 88.12240 67.02384
#
# Poissons Ratio (x) = -0.05441 0.25696
# Poissons Ratio (y) = -0.02916 0.23075
# Poissons Ratio (z) = 0.18108 0.30339
#
# Static dielectric constant tensor:
#      x y z
#    x 1.683910 0.000000 -0.001620 
#    y 0.000000 1.793710 0.000000 
#    z -0.001620 0.000000 1.778200 
# 
# From -- ./inp_files/130963.got.cif
#   From: 2010.05.17/outbox.cif.g08.bks.cpg/sg15_66_cif.got.tgz:130963.got - 2010.06.03 18:47:42.
