data_PCOD9292929
_publ_section_title
;
Structure prediction by ZEFSAII (Michael W. Deem and Ramdas Pophale) SiO2 
 PCOD9292929
Probable space group: C 2/C
;
_chemical_formula_sum "Si O2"
_cell_formula_units_Z 40
_cell_length_a 8.794154
_cell_length_b 23.412051
_cell_length_c 8.522747
_cell_angle_alpha 90.000000
_cell_angle_beta 92.310479
_cell_angle_gamma 90.000000
_cell_volume 1753.314871
_symmetry_space_group_name_H-M "C 2/C"
_symmetry_group_IT_number 15
_symmetry_cell_setting 'monoclinic'
loop_
_space_group_symop_operation_xyz
x,y,z
-x,y,1/2-z
-x,-y,-z
x,-y,1/2+z
1/2+x,1/2+y,z
1/2-x,1/2+y,1/2-z
1/2-x,1/2-y,-z
1/2+x,1/2-y,1/2+z
loop_
_atom_site_type_symbol
_atom_site_label
_atom_site_fract_x
_atom_site_fract_y
_atom_site_fract_z
Si Si1 0.192084 0.952061 0.925269
Si Si2 0.426277 0.252135 0.567495
Si Si3 0.827465 0.069344 0.424639
Si Si4 0.686234 0.690171 0.928488
Si Si5 0.134838 0.635267 0.848966
O O1 0.273147 0.908674 0.044898
O O2 0.224155 0.017882 0.966500
O O3 0.236467 0.940947 0.749678
O O4 0.011163 0.938852 0.929550
O O5 0.500000 0.267100 0.750000
O O6 0.250000 0.250000 0.500000
O O7 0.509403 0.294136 0.449718
O O8 0.456162 0.184277 0.558528
O O9 0.788145 0.132952 0.471838
O O10 0.755999 0.671396 0.764702
O O11 0.750000 0.750000 0.000000
O O12 0.000000 0.604442 0.750000
#
# Coordination Sequence:
#
# PCOD9292929 Si02
#       5
#     8   8   8   8   8
#     4  10  22  44  70 101 137 178 242 298 357 424
#     4  11  25  43  69 102 147 193 241 298 363 433
#     4  10  23  41  71 101 134 182 237 301 356 422
#     4  12  24  45  69 105 146 189 238 291 368 439
#     4  11  24  44  69 100 146 190 238 300 366 437
#
# _framework density 22.813931
#
# number of rings (size 3 to 8) (size 9 to 14) (size 15 to 20)
#    0.000    1.200    4.000    2.400    5.600    4.800 
#    0.000    7.000    0.000    0.000    0.000    0.000 
#    0.000    0.000    0.000    0.000    0.000    0.000 
#
# Total GULP energy -111442.100937 kJ/mol
# GULP energy per Si atom -5572.105047 kJ/mol
# Density = 2.276201 g / cm^3
# Si number density = 22.813931 Si / 1000 Ang^3
#
#
#
# Elastic Constant Matrix: (Units=GPa)
#
#
# Indices 1 2 3 4 5 6 
#
# 1 97.2997 44.8325 73.2494 0.0000 25.0386 0.0000
# 2 44.8325 195.2029 86.4395 0.0000 -0.6972 0.0000
# 3 73.2494 86.4395 109.8499 0.0000 18.9391 0.0000
# 4 0.0000 0.0000 0.0000 40.6241 0.0000 4.9140
# 5 25.0386 -0.6972 18.9391 0.0000 41.0278 0.0000
# 6 0.0000 0.0000 0.0000 4.9140 0.0000 38.1540
#
#
#
# Elastic Compliance Matrix: (Units=1/GPa)
#
#
# Indices 1 2 3 4 5 6 
#
# 1 0.022785 0.001449 -0.015146 0.000000 -0.006889 0.000000
# 2 0.001449 0.008374 -0.008070 0.000000 0.002983 0.000000
# 3 -0.015146 -0.008070 0.026057 0.000000 -0.002922 0.000000
# 4 0.000000 0.000000 0.000000 0.025005 0.000000 -0.003221
# 5 -0.006889 0.002983 -0.002922 0.000000 0.029978 0.000000
# 6 0.000000 0.000000 0.000000 -0.003221 0.000000 0.026624
#
#
# Mechanical properties :
#
#
# Convention : Reuss Voigt Hill
#
# Bulk Modulus (GPa) = 73.08775 90.15504 81.62140
# Shear Modulus (GPa) = 26.74966 37.14991 31.94978
#
# Velocity S-wave (km/s) = 3.42791 4.03971 3.74632
# Velocity P-wave (km/s) = 6.91184 7.83341 7.38701
#
# Compressibility (1/GPa) = 0.01368218
#
# Stress axis : x y z
#
# Youngs Moduli (GPa) = 43.88936 119.41108 38.37723
#
# Poissons Ratio (x) = -0.17306 0.58125
# Poissons Ratio (y) = -0.06361 0.30972
# Poissons Ratio (z) = 0.66474 0.96370
#
# Static dielectric constant tensor:
#      x y z
#    x 2.121220 0.000000 -0.056180 
#    y 0.000000 1.848890 0.000000 
#    z -0.056180 0.000000 1.969650 
# 
# From -- ./inp_files/23633.got.cif
#   From: 2010.05.17/outbox.cif.g08.bks.cpg/sg15_12_cif.got.tgz:23633.got - 2010.06.03 18:47:42.
