data_PCOD9292090
_publ_section_title
;
Structure prediction by ZEFSAII (Michael W. Deem and Ramdas Pophale) SiO2 
 PCOD9292090
Probable space group: C 2/C
;
_chemical_formula_sum "Si O2"
_cell_formula_units_Z 40
_cell_length_a 7.673136
_cell_length_b 22.529083
_cell_length_c 12.462260
_cell_angle_alpha 90.000000
_cell_angle_beta 124.071854
_cell_angle_gamma 90.000000
_cell_volume 1784.512391
_symmetry_space_group_name_H-M "C 2/C"
_symmetry_group_IT_number 15
_symmetry_cell_setting 'monoclinic'
loop_
_space_group_symop_operation_xyz
x,y,z
-x,y,1/2-z
-x,-y,-z
x,-y,1/2+z
1/2+x,1/2+y,z
1/2-x,1/2+y,1/2-z
1/2-x,1/2-y,-z
1/2+x,1/2-y,1/2+z
loop_
_atom_site_type_symbol
_atom_site_label
_atom_site_fract_x
_atom_site_fract_y
_atom_site_fract_z
Si Si1 0.992757 0.809283 0.618517
Si Si2 0.503717 0.182732 0.532314
Si Si3 0.517158 0.934385 0.378717
Si Si4 0.810240 0.995724 0.100157
Si Si5 0.817467 0.389730 0.604713
O O1 0.742452 0.816708 0.518429
O O2 0.072834 0.748090 0.590184
O O3 0.000000 0.805694 0.750000
O O4 0.138015 0.859023 0.614804
O O5 0.588442 0.128663 0.632363
O O6 0.568283 0.158864 0.435988
O O7 0.500000 0.942587 0.250000
O O8 0.375833 0.984698 0.380962
O O9 0.745359 0.945998 0.510501
O O10 0.000000 0.999713 0.250000
O O11 0.789613 0.941124 0.006952
O O12 0.000000 0.410845 0.750000
#
# Coordination Sequence:
#
# PCOD9292090 Si02
#       5
#     8   8   8   8   8
#     4  11  22  40  65  95 131 181 219 268 332 395
#     4  10  23  41  62  98 132 170 225 271 329 399
#     4  10  22  43  66  93 130 172 214 284 327 393
#     4  10  24  43  64  99 130 169 223 272 338 400
#     4  11  22  43  67  96 136 175 219 275 331 398
#
# _framework density 22.415087
#
# number of rings (size 3 to 8) (size 9 to 14) (size 15 to 20)
#    0.000    1.600    2.000    1.800    2.800    1.600 
#    7.200    1.000    0.000    0.000    0.000    0.000 
#    0.000    0.000    0.000    0.000    0.000    0.000 
#
# Total GULP energy -111401.943416 kJ/mol
# GULP energy per Si atom -5570.097171 kJ/mol
# Density = 2.236407 g / cm^3
# Si number density = 22.415087 Si / 1000 Ang^3
#
#
#
# Elastic Constant Matrix: (Units=GPa)
#
#
# Indices 1 2 3 4 5 6 
#
# 1 63.6947 7.1313 14.1459 0.0000 1.5764 0.0000
# 2 7.1313 80.3057 17.0113 0.0000 -6.5424 0.0000
# 3 14.1459 17.0113 114.0880 0.0000 -4.6297 0.0000
# 4 0.0000 0.0000 0.0000 18.1244 0.0000 -18.3889
# 5 1.5764 -6.5424 -4.6297 0.0000 36.1736 0.0000
# 6 0.0000 0.0000 0.0000 -18.3889 0.0000 36.5393
#
#
#
# Elastic Compliance Matrix: (Units=1/GPa)
#
#
# Indices 1 2 3 4 5 6 
#
# 1 0.016277 -0.001138 -0.001895 0.000000 -0.001158 0.000000
# 2 -0.001138 0.013097 -0.001723 0.000000 0.002198 0.000000
# 3 -0.001895 -0.001723 0.009296 0.000000 0.000961 0.000000
# 4 0.000000 0.000000 0.000000 0.112742 0.000000 0.056739
# 5 -0.001158 0.002198 0.000961 0.000000 0.028215 0.000000
# 6 0.000000 0.000000 0.000000 0.056739 0.000000 0.055923
#
#
# Mechanical properties :
#
#
# Convention : Reuss Voigt Hill
#
# Bulk Modulus (GPa) = 34.29606 37.18504 35.74055
# Shear Modulus (GPa) = 19.62462 32.82078 26.22270
#
# Velocity S-wave (km/s) = 2.96211 3.83067 3.42404
# Velocity P-wave (km/s) = 5.19927 6.01587 5.62242
#
# Compressibility (1/GPa) = 0.02915787
#
# Stress axis : x y z
#
# Youngs Moduli (GPa) = 61.43658 76.35071 107.57289
#
# Poissons Ratio (x) = 0.08690 0.20390
# Poissons Ratio (y) = 0.06993 0.18530
# Poissons Ratio (z) = 0.11645 0.13152
#
# Static dielectric constant tensor:
#      x y z
#    x 2.055690 0.000000 0.420150 
#    y 0.000000 1.877820 0.000000 
#    z 0.420150 0.000000 2.533340 
# 
# From -- ./inp_files/79539.got.cif
#   From: 2010.05.17/outbox.cif.g08.bks.cpg/sg15_40_cif.got.tgz:79539.got - 2010.06.03 18:47:42.
