data_PCOD9292472
_publ_section_title
;
Structure prediction by ZEFSAII (Michael W. Deem and Ramdas Pophale) SiO2 
 PCOD9292472
Probable space group: C 2/C
;
_chemical_formula_sum "Si O2"
_cell_formula_units_Z 40
_cell_length_a 11.240661
_cell_length_b 16.214826
_cell_length_c 9.759841
_cell_angle_alpha 90.000000
_cell_angle_beta 87.842644
_cell_angle_gamma 90.000000
_cell_volume 1777.620104
_symmetry_space_group_name_H-M "C 2/C"
_symmetry_group_IT_number 15
_symmetry_cell_setting 'monoclinic'
loop_
_space_group_symop_operation_xyz
x,y,z
-x,y,1/2-z
-x,-y,-z
x,-y,1/2+z
1/2+x,1/2+y,z
1/2-x,1/2+y,1/2-z
1/2-x,1/2-y,-z
1/2+x,1/2-y,1/2+z
loop_
_atom_site_type_symbol
_atom_site_label
_atom_site_fract_x
_atom_site_fract_y
_atom_site_fract_z
Si Si1 0.023773 0.905487 0.602604
Si Si2 0.737194 0.000796 0.446057
Si Si3 0.235648 0.163281 0.425648
Si Si4 0.698343 0.737895 0.152820
Si Si5 0.134686 0.578028 0.697772
O O1 0.084188 0.817879 0.631362
O O2 0.000000 0.947881 0.750000
O O3 0.898069 0.874583 0.549421
O O4 0.128693 0.961749 0.532454
O O5 0.696149 0.912776 0.511424
O O6 0.715819 0.983975 0.286028
O O7 0.654682 0.062394 0.535557
O O8 0.250000 0.250000 0.500000
O O9 0.264721 0.183675 0.265979
O O10 0.672622 0.827114 0.217504
O O11 0.750000 0.750000 0.000000
O O12 0.000000 0.566040 0.750000
#
# Coordination Sequence:
#
# PCOD9292472 Si02
#       5
#     8   8   8   8   8
#     4  10  22  43  72  97 138 183 229 284 355 416
#     4  12  25  44  69 102 137 178 236 289 352 421
#     4  11  23  43  67 102 137 178 229 292 345 420
#     4  11  22  44  68  94 135 184 229 281 356 421
#     4  12  25  44  69  98 137 182 232 294 352 419
#
# _framework density 22.501998
#
# number of rings (size 3 to 8) (size 9 to 14) (size 15 to 20)
#    0.000    0.800    4.000    5.400    0.000    0.000 
#    0.000    3.000    0.000    0.000    0.000    0.000 
#    0.000    0.000    0.000    0.000    0.000    0.000 
#
# Total GULP energy -111407.609441 kJ/mol
# GULP energy per Si atom -5570.380472 kJ/mol
# Density = 2.245078 g / cm^3
# Si number density = 22.501998 Si / 1000 Ang^3
#
#
#
# Elastic Constant Matrix: (Units=GPa)
#
#
# Indices 1 2 3 4 5 6 
#
# 1 43.4759 16.8248 26.5279 0.0000 -9.6634 0.0000
# 2 16.8248 143.1446 30.6531 0.0000 0.3289 0.0000
# 3 26.5279 30.6531 104.6077 0.0000 -19.7790 0.0000
# 4 0.0000 0.0000 0.0000 44.9926 0.0000 -1.7700
# 5 -9.6634 0.3289 -19.7790 0.0000 34.5106 0.0000
# 6 0.0000 0.0000 0.0000 -1.7700 0.0000 23.8606
#
#
#
# Elastic Compliance Matrix: (Units=1/GPa)
#
#
# Indices 1 2 3 4 5 6 
#
# 1 0.028330 -0.002126 -0.005672 0.000000 0.004702 0.000000
# 2 -0.002126 0.007682 -0.002062 0.000000 -0.001850 0.000000
# 3 -0.005672 -0.002062 0.012680 0.000000 0.005698 0.000000
# 4 0.000000 0.000000 0.000000 0.022291 0.000000 0.001654
# 5 0.004702 -0.001850 0.005698 0.000000 0.033577 0.000000
# 6 0.000000 0.000000 0.000000 0.001654 0.000000 0.042033
#
#
# Mechanical properties :
#
#
# Convention : Reuss Voigt Hill
#
# Bulk Modulus (GPa) = 34.51670 48.80444 41.66057
# Shear Modulus (GPa) = 28.41412 35.15423 31.78418
#
# Velocity S-wave (km/s) = 3.55736 3.95685 3.76241
# Velocity P-wave (km/s) = 5.67853 6.52775 6.11789
#
# Compressibility (1/GPa) = 0.02897148
#
# Stress axis : x y z
#
# Youngs Moduli (GPa) = 35.29794 130.18210 78.86718
#
# Poissons Ratio (x) = 0.27676 0.44736
# Poissons Ratio (y) = 0.07504 0.16259
# Poissons Ratio (z) = 0.20022 0.26838
#
# Static dielectric constant tensor:
#      x y z
#    x 1.915850 0.000000 0.175190 
#    y 0.000000 1.854740 0.000000 
#    z 0.175190 0.000000 1.582850 
# 
# From -- ./inp_files/85991.got.cif
#   From: 2010.05.17/outbox.cif.g08.bks.cpg/sg15_43_cif.got.tgz:85991.got - 2010.06.03 18:47:42.
