data_PCOD9292201
_publ_section_title
;
Structure prediction by ZEFSAII (Michael W. Deem and Ramdas Pophale) SiO2 
 PCOD9292201
Probable space group: C 2/C
;
_chemical_formula_sum "Si O2"
_cell_formula_units_Z 56
_cell_length_a 11.678230
_cell_length_b 27.166155
_cell_length_c 13.200655
_cell_angle_alpha 90.000000
_cell_angle_beta 37.586448
_cell_angle_gamma 90.000000
_cell_volume 2554.467799
_symmetry_space_group_name_H-M "C 2/C"
_symmetry_group_IT_number 15
_symmetry_cell_setting 'monoclinic'
loop_
_space_group_symop_operation_xyz
x,y,z
-x,y,1/2-z
-x,-y,-z
x,-y,1/2+z
1/2+x,1/2+y,z
1/2-x,1/2+y,1/2-z
1/2-x,1/2-y,-z
1/2+x,1/2-y,1/2+z
loop_
_atom_site_type_symbol
_atom_site_label
_atom_site_fract_x
_atom_site_fract_y
_atom_site_fract_z
Si Si1 0.051243 0.444419 0.997891
Si Si2 0.443146 0.520773 0.189782
Si Si3 0.890393 0.653975 0.120230
Si Si4 0.411321 0.248137 0.427957
Si Si5 0.489760 0.339627 0.004155
Si Si6 0.190171 0.306916 0.050880
Si Si7 0.704674 0.436370 0.352353
O O1 0.927708 0.433880 0.183658
O O2 0.275384 0.443596 0.841283
O O3 0.005505 0.398813 0.955953
O O4 0.000000 0.500000 0.000000
O O5 0.500000 0.492058 0.250000
O O6 0.361708 0.482576 0.167597
O O7 0.614663 0.550922 0.022904
O O8 0.012538 0.696877 0.085034
O O9 0.698364 0.650014 0.317955
O O10 0.843369 0.670185 0.036982
O O11 0.178367 0.249049 0.623245
O O12 0.499462 0.293457 0.427206
O O13 0.357465 0.329876 0.999760
O O14 0.395391 0.387629 0.118668
O O15 0.000000 0.310922 0.250000
O O16 0.250000 0.250000 0.000000
#
# Coordination Sequence:
#
# PCOD9292201 Si02
#       7
#     8   8   8   8   8   8   8
#     4  10  23  44  70  99 136 181 229 292 350 418
#     4  10  22  43  67  98 135 177 232 289 348 418
#     4  12  25  46  72 103 142 182 238 291 358 422
#     4  12  28  47  69  99 142 191 236 285 348 424
#     4  12  25  45  72 103 141 184 233 295 352 427
#     4  12  26  42  69 105 141 179 224 291 358 419
#     4  10  23  42  68  97 137 178 228 286 353 418
#
# _framework density 21.922374000000001
#
# number of rings (size 3 to 8) (size 9 to 14) (size 15 to 20)
#    0.000    0.857    4.286    2.143    6.000    1.143 
#    2.571    0.000    0.000    0.000    0.000    0.000 
#    0.000    0.000    0.000    0.000    0.000    0.000 
#
# Total GULP energy -156040.393832 kJ/mol
# GULP energy per Si atom -5572.871208 kJ/mol
# Density = 2.187248 g / cm^3
# Si number density = 21.922374 Si / 1000 Ang^3
#
#
#
# Elastic Constant Matrix: (Units=GPa)
#
#
# Indices 1 2 3 4 5 6 
#
# 1 77.4252 30.8440 29.9358 0.0000 4.9174 0.0000
# 2 30.8440 144.6544 47.7197 0.0000 0.6501 0.0000
# 3 29.9358 47.7197 136.9610 0.0000 -5.6781 0.0000
# 4 0.0000 0.0000 0.0000 29.3016 0.0000 -14.7462
# 5 4.9174 0.6501 -5.6781 0.0000 25.3753 0.0000
# 6 0.0000 0.0000 0.0000 -14.7462 0.0000 -10.0474
#
#
#
# Elastic Compliance Matrix: (Units=1/GPa)
#
#
# Indices 1 2 3 4 5 6 
#
# 1 0.015080 -0.002334 -0.002626 0.000000 -0.003450 0.000000
# 2 -0.002334 0.008189 -0.002355 0.000000 -0.000284 0.000000
# 3 -0.002626 -0.002355 0.008801 0.000000 0.002539 0.000000
# 4 0.000000 0.000000 0.000000 0.019629 0.000000 -0.028809
# 5 -0.003450 -0.000284 0.002539 0.000000 0.040652 0.000000
# 6 0.000000 0.000000 0.000000 -0.028809 0.000000 -0.057246
#
#
# Mechanical properties :
#
#
# Convention : Reuss Voigt Hill
#
# Bulk Modulus (GPa) = 57.33716 64.00437 60.67077
# Shear Modulus (GPa) = 90.01225 25.62863 57.82044
#
# Velocity S-wave (km/s) = 6.41472 3.42287 5.14124
# Velocity P-wave (km/s) = 9.00424 6.69930 7.93590
#
# Compressibility (1/GPa) = 0.01744069
#
# Stress axis : x y z
#
# Youngs Moduli (GPa) = 66.31400 122.11923 113.62316
#
# Poissons Ratio (x) = 0.28498 0.29837
# Poissons Ratio (y) = 0.15475 0.26756
# Poissons Ratio (z) = 0.17414 0.28757
#
# Static dielectric constant tensor:
#      x y z
#    x 1.771490 0.000000 -0.008790 
#    y 0.000000 1.799480 0.000000 
#    z -0.008790 0.000000 1.975420 
# 
# From -- ./inp_files/157193.got.cif
#   From: 2010.05.17/outbox.cif.g08.bks.cpg/sg15_79_cif.got.tgz:157193.got - 2010.06.03 18:47:42.
