data_PCOD9292289
_publ_section_title
;
Structure prediction by ZEFSAII (Michael W. Deem and Ramdas Pophale) SiO2 
 PCOD9292289
Probable space group: C 2/C
;
_chemical_formula_sum "Si O2"
_cell_formula_units_Z 36
_cell_length_a 22.614155
_cell_length_b 5.077675
_cell_length_c 18.127156
_cell_angle_alpha 90.000000
_cell_angle_beta 37.714268
_cell_angle_gamma 90.000000
_cell_volume 1273.299285
_symmetry_space_group_name_H-M "C 2/C"
_symmetry_group_IT_number 15
_symmetry_cell_setting 'monoclinic'
loop_
_space_group_symop_operation_xyz
x,y,z
-x,y,1/2-z
-x,-y,-z
x,-y,1/2+z
1/2+x,1/2+y,z
1/2-x,1/2+y,1/2-z
1/2-x,1/2-y,-z
1/2+x,1/2-y,1/2+z
loop_
_atom_site_type_symbol
_atom_site_label
_atom_site_fract_x
_atom_site_fract_y
_atom_site_fract_z
Si Si1 0.723372 0.083552 0.239042
Si Si2 0.144855 0.836416 0.628388
Si Si3 0.000000 0.500000 0.000000
Si Si4 0.555200 0.833004 0.773685
Si Si5 0.916126 0.044521 0.472283
O O1 0.731955 0.397027 0.240668
O O2 0.612216 0.998715 0.353873
O O3 0.803980 0.013531 0.098528
O O4 0.250000 0.750000 0.500000
O O5 0.104864 0.611152 0.719866
O O6 0.084384 0.855103 0.611381
O O7 0.135705 0.107780 0.682001
O O8 0.963986 0.753014 0.981033
O O9 0.500000 0.824245 0.750000
O O10 0.478267 0.730810 0.911853
#
# Coordination Sequence:
#
# PCOD9292289 Si02
#       5
#     8   8   4   8   8
#     4  10  24  46  70 109 148 197 263 316 392 468
#     4  11  24  43  71 111 154 202 262 318 392 473
#     4  10  24  48  80 110 154 210 260 340 396 458
#     4  10  22  43  69 106 151 202 249 321 388 467
#     4  10  24  46  77 112 157 205 265 327 394 482
#
# _framework density 28.273005000000001
#
# number of rings (size 3 to 8) (size 9 to 14) (size 15 to 20)
#    0.000    1.778    0.000    2.667    3.111   14.222 
#    4.000    0.000    9.778    0.000    0.000    0.000 
#    0.000    0.000    0.000    0.000    0.000    0.000 
#
# Total GULP energy -100417.900589 kJ/mol
# GULP energy per Si atom -5578.772255 kJ/mol
# Density = 2.820865 g / cm^3
# Si number density = 28.273005 Si / 1000 Ang^3
#
#
#
# Elastic Constant Matrix: (Units=GPa)
#
#
# Indices 1 2 3 4 5 6 
#
# 1 107.4857 3.7742 22.6448 -0.0506 -18.2281 0.0164
# 2 3.7742 101.7677 -3.0903 -0.1231 -2.0273 0.0644
# 3 22.6448 -3.0903 211.3055 -0.0798 -16.2084 0.0242
# 4 -0.0506 -0.1231 -0.0798 36.2725 0.0123 -20.6457
# 5 -18.2281 -2.0273 -16.2084 0.0123 61.9627 -0.0181
# 6 0.0164 0.0644 0.0242 -20.6457 -0.0181 10.5157
#
#
#
# Elastic Compliance Matrix: (Units=1/GPa)
#
#
# Indices 1 2 3 4 5 6 
#
# 1 0.009954 -0.000342 -0.000865 -0.000051 0.002691 -0.000108
# 2 -0.000342 0.009851 0.000202 0.000006 0.000274 -0.000047
# 3 -0.000865 0.000202 0.004908 -0.000039 0.001036 -0.000086
# 4 -0.000051 0.000006 -0.000039 -0.234645 -0.000113 -0.460685
# 5 0.002691 0.000274 0.001036 -0.000113 0.017210 -0.000200
# 6 -0.000108 -0.000047 -0.000086 -0.460685 -0.000200 -0.809378
#
#
# Mechanical properties :
#
#
# Convention : Reuss Voigt Hill
#
# Bulk Modulus (GPa) = 44.04988 51.91292 47.98140
# Shear Modulus (GPa) = -5.03767 48.23221 21.59727
#
# Velocity S-wave (km/s) = -1.33629 4.13479 2.76684
# Velocity P-wave (km/s) = 3.63774 6.41845 5.21678
#
# Compressibility (1/GPa) = 0.02270153
#
# Stress axis : x y z
#
# Youngs Moduli (GPa) = 100.46025 101.51652 203.76491
#
# Poissons Ratio (x) = 0.03470 0.17633
# Poissons Ratio (y) = 0.03434 -0.04111
# Poissons Ratio (z) = 0.08693 -0.02048
#
# Static dielectric constant tensor:
#      x y z
#    x 2.748770 0.000400 -0.007850 
#    y 0.000400 2.638220 0.000130 
#    z -0.007850 0.000130 2.157890 
# 
# From -- ./inp_files/256699.got.cif
#   From: 2010.05.17/outbox.cif.g08.bks.cpg/sg15_129_cif.got.tgz:256699.got - 2010.06.03 18:47:42.
