data_PCOD9292673
_publ_section_title
;
Structure prediction by ZEFSAII (Michael W. Deem and Ramdas Pophale) SiO2 
 PCOD9292673
Probable space group: C 2/C
;
_chemical_formula_sum "Si O2"
_cell_formula_units_Z 56
_cell_length_a 9.052709
_cell_length_b 13.609592
_cell_length_c 19.604209
_cell_angle_alpha 90.000000
_cell_angle_beta 87.723569
_cell_angle_gamma 90.000000
_cell_volume 2413.404496
_symmetry_space_group_name_H-M "C 2/C"
_symmetry_group_IT_number 15
_symmetry_cell_setting 'monoclinic'
loop_
_space_group_symop_operation_xyz
x,y,z
-x,y,1/2-z
-x,-y,-z
x,-y,1/2+z
1/2+x,1/2+y,z
1/2-x,1/2+y,1/2-z
1/2-x,1/2-y,-z
1/2+x,1/2-y,1/2+z
loop_
_atom_site_type_symbol
_atom_site_label
_atom_site_fract_x
_atom_site_fract_y
_atom_site_fract_z
Si Si1 0.508722 0.142063 0.382780
Si Si2 0.256716 0.133112 0.008337
Si Si3 0.235833 0.518810 0.632581
Si Si4 0.278860 0.665842 0.281310
Si Si5 0.748140 0.275925 0.136252
Si Si6 0.828247 0.933994 0.266372
Si Si7 0.510609 0.644821 0.391092
O O1 0.603284 0.111469 0.446353
O O2 0.625218 0.175519 0.323802
O O3 0.398218 0.233194 0.395827
O O4 0.406128 0.052019 0.360867
O O5 0.106872 0.108200 0.051754
O O6 0.250000 0.250000 0.000000
O O7 0.266617 0.079188 0.936708
O O8 0.244609 0.590818 0.697448
O O9 0.379865 0.446268 0.627490
O O10 0.267190 0.721154 0.209871
O O11 0.303016 0.549789 0.270409
O O12 0.414991 0.686614 0.329369
O O13 0.729055 0.385980 0.162784
O O14 0.885779 0.236886 0.090267
O O15 0.000000 0.910036 0.250000
#
# Coordination Sequence:
#
# PCOD9292673 Si02
#       7
#     8   8   8   8   8   8   8
#     4  10  23  42  66  89 135 170 210 272 322 384
#     4  11  26  42  66  93 126 172 227 270 317 377
#     4  11  23  43  64  93 125 177 216 256 330 393
#     4  11  20  41  62  96 131 166 204 263 336 390
#     4  11  23  39  65  98 130 165 212 267 330 380
#     4  12  23  37  68  99 131 165 216 268 329 409
#     4  10  22  44  66  88 131 173 211 267 322 392
#
# _framework density 23.203735999999999
#
# number of rings (size 3 to 8) (size 9 to 14) (size 15 to 20)
#    0.000    1.143    4.286    2.571    6.000    1.143 
#    2.571    2.857    0.000    0.000    0.000    0.000 
#    0.000    0.000    0.000    0.000    0.000    0.000 
#
# Total GULP energy -156629.428106 kJ/mol
# GULP energy per Si atom -5593.908147 kJ/mol
# Density = 2.315092 g / cm^3
# Si number density = 23.203736 Si / 1000 Ang^3
#
#
#
# Elastic Constant Matrix: (Units=GPa)
#
#
# Indices 1 2 3 4 5 6 
#
# 1 132.0212 7.8704 26.0798 0.0000 13.9022 0.0000
# 2 7.8704 46.0620 -14.1199 0.0000 3.8502 0.0000
# 3 26.0798 -14.1199 40.7436 0.0000 10.2402 0.0000
# 4 0.0000 0.0000 0.0000 42.6165 0.0000 -9.5274
# 5 13.9022 3.8502 10.2402 0.0000 13.7269 0.0000
# 6 0.0000 0.0000 0.0000 -9.5274 0.0000 32.3658
#
#
#
# Elastic Compliance Matrix: (Units=1/GPa)
#
#
# Indices 1 2 3 4 5 6 
#
# 1 0.009390 -0.003116 -0.006056 0.000000 -0.004119 0.000000
# 2 -0.003116 0.028613 0.016165 0.000000 -0.016928 0.000000
# 3 -0.006056 0.016165 0.041378 0.000000 -0.029269 0.000000
# 4 0.000000 0.000000 0.000000 0.025118 0.000000 0.007394
# 5 -0.004119 -0.016928 -0.029269 0.000000 0.103603 0.000000
# 6 0.000000 0.000000 0.000000 0.007394 0.000000 0.033073
#
#
# Mechanical properties :
#
#
# Convention : Reuss Voigt Hill
#
# Bulk Modulus (GPa) = 10.71034 28.72083 19.71558
# Shear Modulus (GPa) = 19.35645 31.00827 25.18236
#
# Velocity S-wave (km/s) = 2.89138 3.65958 3.29792
# Velocity P-wave (km/s) = 3.97147 5.50102 4.79759
#
# Compressibility (1/GPa) = 0.09336774
#
# Stress axis : x y z
#
# Youngs Moduli (GPa) = 106.49342 34.94952 24.16734
#
# Poissons Ratio (x) = 0.10892 0.14635
# Poissons Ratio (y) = 0.33188 -0.39067
# Poissons Ratio (z) = 0.64487 -0.56497
#
# Static dielectric constant tensor:
#      x y z
#    x 1.896740 0.000000 -0.005470 
#    y 0.000000 1.914000 0.000000 
#    z -0.005470 0.000000 1.934230 
# 
# From -- ./inp_files/231556.got.cif
#   From: 2010.05.17/outbox.cif.g08.bks.cpg/sg15_116_cif.got.tgz:231556.got - 2010.06.03 18:47:42.
