data_PCOD9292326
_publ_section_title
;
Structure prediction by ZEFSAII (Michael W. Deem and Ramdas Pophale) SiO2 
 PCOD9292326
Probable space group: C 2/C
;
_chemical_formula_sum "Si O2"
_cell_formula_units_Z 48
_cell_length_a 7.971410
_cell_length_b 12.429788
_cell_length_c 24.309309
_cell_angle_alpha 90.000000
_cell_angle_beta 62.309749
_cell_angle_gamma 90.000000
_cell_volume 2132.782959
_symmetry_space_group_name_H-M "C 2/C"
_symmetry_group_IT_number 15
_symmetry_cell_setting 'monoclinic'
loop_
_space_group_symop_operation_xyz
x,y,z
-x,y,1/2-z
-x,-y,-z
x,-y,1/2+z
1/2+x,1/2+y,z
1/2-x,1/2+y,1/2-z
1/2-x,1/2-y,-z
1/2+x,1/2-y,1/2+z
loop_
_atom_site_type_symbol
_atom_site_label
_atom_site_fract_x
_atom_site_fract_y
_atom_site_fract_z
Si Si1 0.918031 0.836548 0.481585
Si Si2 0.250000 0.750000 0.500000
Si Si3 0.595711 0.678226 0.835977
Si Si4 0.029011 0.413193 0.664263
Si Si5 0.000000 0.773026 0.750000
Si Si6 0.329708 0.455646 0.706428
Si Si7 0.119355 0.514676 0.537310
O O1 0.750000 0.750000 0.500000
O O2 0.042614 0.799454 0.513605
O O3 0.046301 0.830908 0.407502
O O4 0.816749 0.951139 0.500918
O O5 0.150333 0.640302 0.539793
O O6 0.817471 0.703075 0.792391
O O7 0.553008 0.565659 0.812948
O O8 0.488974 0.783973 0.830644
O O9 0.224586 0.444442 0.663923
O O10 0.021604 0.457143 0.603868
O O11 0.847361 0.458433 0.724443
O O12 0.951485 0.853359 0.706775
O O13 0.000000 0.500000 0.500000
#
# Coordination Sequence:
#
# PCOD9292326 Si02
#       7
#     8   4   8   8   4   8   8
#     4  12  25  47  70 110 145 192 245 299 370 446
#     4  12  26  44  72  98 144 196 230 302 368 424
#     4  11  23  45  68  96 144 178 232 300 354 429
#     4  10  22  43  69  97 138 180 231 295 351 428
#     4  10  24  42  66 100 134 184 242 292 362 430
#     4  10  23  42  66  99 129 183 237 286 355 423
#     4  12  25  47  73 108 149 188 248 297 370 445
#
# _framework density 22.505806
#
# number of rings (size 3 to 8) (size 9 to 14) (size 15 to 20)
#    0.000    1.000    3.333    2.500    0.000    8.000 
#    0.000    5.000    0.000    0.000    0.000    0.000 
#    0.000    0.000    0.000    0.000    0.000    0.000 
#
# Total GULP energy -133772.643715 kJ/mol
# GULP energy per Si atom -5573.860155 kJ/mol
# Density = 2.245458 g / cm^3
# Si number density = 22.505806 Si / 1000 Ang^3
#
#
#
# Elastic Constant Matrix: (Units=GPa)
#
#
# Indices 1 2 3 4 5 6 
#
# 1 91.9046 -0.4347 4.5331 0.0000 8.3399 0.0000
# 2 -0.4347 104.9123 33.1991 0.0000 -6.1464 0.0000
# 3 4.5331 33.1991 80.1340 0.0000 5.4300 0.0000
# 4 0.0000 0.0000 0.0000 22.1439 0.0000 -27.1240
# 5 8.3399 -6.1464 5.4300 0.0000 27.4274 0.0000
# 6 0.0000 0.0000 0.0000 -27.1240 0.0000 22.3067
#
#
#
# Elastic Compliance Matrix: (Units=1/GPa)
#
#
# Indices 1 2 3 4 5 6 
#
# 1 0.011203 -0.000023 -0.000398 0.000000 -0.003333 0.000000
# 2 -0.000023 0.011293 -0.004915 0.000000 0.003511 0.000000
# 3 -0.000398 -0.004915 0.014803 0.000000 -0.003911 0.000000
# 4 0.000000 0.000000 0.000000 -0.092269 0.000000 -0.112196
# 5 -0.003333 0.003511 -0.003911 0.000000 0.039034 0.000000
# 6 0.000000 0.000000 0.000000 -0.112196 0.000000 -0.091596
#
#
# Mechanical properties :
#
#
# Convention : Reuss Voigt Hill
#
# Bulk Modulus (GPa) = 37.55751 39.06064 38.30907
# Shear Modulus (GPa) = -56.82829 30.35248 -13.23791
#
# Velocity S-wave (km/s) = -5.03044 3.67638 -2.42791
# Velocity P-wave (km/s) = 4.12508 5.95101 3.03301
#
# Compressibility (1/GPa) = 0.02662584
#
# Stress axis : x y z
#
# Youngs Moduli (GPa) = 89.26324 88.55260 67.55408
#
# Poissons Ratio (x) = 0.00201 0.02692
# Poissons Ratio (y) = 0.00203 0.33204
# Poissons Ratio (z) = 0.03557 0.43525
#
# Static dielectric constant tensor:
#      x y z
#    x 1.844110 0.000000 0.016990 
#    y 0.000000 1.908940 0.000000 
#    z 0.016990 0.000000 1.823580 
# 
# From -- ./inp_files/287559.got.cif
#   From: 2010.05.17/outbox.cif.g08.bks.cpg/sg15_144_cif.got.tgz:287559.got - 2010.06.03 18:47:42.
