data_PCOD9292221
_publ_section_title
;
Structure prediction by ZEFSAII (Michael W. Deem and Ramdas Pophale) SiO2 
 PCOD9292221
Probable space group: C 2/C
;
_chemical_formula_sum "Si O2"
_cell_formula_units_Z 48
_cell_length_a 9.726759
_cell_length_b 15.098519
_cell_length_c 27.248884
_cell_angle_alpha 90.000000
_cell_angle_beta 147.014984
_cell_angle_gamma 90.000000
_cell_volume 2178.637863
_symmetry_space_group_name_H-M "C 2/C"
_symmetry_group_IT_number 15
_symmetry_cell_setting 'monoclinic'
loop_
_space_group_symop_operation_xyz
x,y,z
-x,y,1/2-z
-x,-y,-z
x,-y,1/2+z
1/2+x,1/2+y,z
1/2-x,1/2+y,1/2-z
1/2-x,1/2-y,-z
1/2+x,1/2-y,1/2+z
loop_
_atom_site_type_symbol
_atom_site_label
_atom_site_fract_x
_atom_site_fract_y
_atom_site_fract_z
Si Si1 0.444231 0.989683 0.563523
Si Si2 0.418500 0.302437 0.281071
Si Si3 0.923495 0.012317 0.642456
Si Si4 0.268975 0.310248 0.957630
Si Si5 0.687276 0.337297 0.013082
Si Si6 0.779911 0.863380 0.812212
O O1 0.261631 0.983627 0.460607
O O2 0.362037 0.905080 0.571185
O O3 0.729839 0.992556 0.628871
O O4 0.392439 0.084864 0.573433
O O5 0.500000 0.321481 0.250000
O O6 0.423120 0.396344 0.308224
O O7 0.624319 0.243895 0.371850
O O8 0.191116 0.233403 0.204544
O O9 0.127072 0.935511 0.697955
O O10 0.559173 0.319027 0.026933
O O11 0.250000 0.250000 0.000000
O O12 0.456916 0.376090 0.911998
O O13 0.750000 0.250000 0.000000
O O14 0.500000 0.872576 0.750000
#
# Coordination Sequence:
#
# PCOD9292221 Si02
#       6
#     8   8   8   8   8   8
#     4  10  23  40  70 103 137 174 239 291 339 399
#     4  11  22  43  66  94 136 186 218 276 350 416
#     4  10  22  43  68 102 134 183 231 285 344 417
#     4  12  23  41  70 105 137 174 238 290 331 406
#     4  11  23  43  73 100 135 189 231 276 349 418
#     4  10  22  43  68  93 142 179 226 276 348 419
#
# _framework density 22.032115999999998
#
# number of rings (size 3 to 8) (size 9 to 14) (size 15 to 20)
#    0.000    1.333    5.000    1.500    4.667    1.333 
#    0.000    1.667    0.000    0.000    0.000    0.000 
#    0.000    0.000    0.000    0.000    0.000    0.000 
#
# Total GULP energy -133980.038576 kJ/mol
# GULP energy per Si atom -5582.501607 kJ/mol
# Density = 2.198197 g / cm^3
# Si number density = 22.032116 Si / 1000 Ang^3
#
#
#
# Elastic Constant Matrix: (Units=GPa)
#
#
# Indices 1 2 3 4 5 6 
#
# 1 142.2093 74.0480 15.4098 0.0000 17.6171 0.0000
# 2 74.0480 180.0067 -0.4368 0.0000 17.2523 0.0000
# 3 15.4098 -0.4368 46.7977 0.0003 1.3109 -0.0001
# 4 0.0000 0.0000 0.0003 27.3864 0.0000 4.9232
# 5 17.6171 17.2523 1.3109 0.0000 31.5895 0.0000
# 6 0.0000 0.0000 -0.0001 4.9232 0.0000 36.7417
#
#
#
# Elastic Compliance Matrix: (Units=1/GPa)
#
#
# Indices 1 2 3 4 5 6 
#
# 1 0.009693 -0.003682 -0.003135 0.000000 -0.003265 0.000000
# 2 -0.003682 0.007262 0.001335 0.000000 -0.001968 0.000000
# 3 -0.003135 0.001335 0.022411 0.000000 0.000089 0.000000
# 4 0.000000 0.000000 0.000000 0.037416 0.000000 -0.005014
# 5 -0.003265 -0.001968 0.000089 0.000000 0.034548 0.000000
# 6 0.000000 0.000000 0.000000 -0.005014 0.000000 0.027889
#
#
# Mechanical properties :
#
#
# Convention : Reuss Voigt Hill
#
# Bulk Modulus (GPa) = 35.20770 60.78397 47.99583
# Shear Modulus (GPa) = 31.31866 37.80970 34.56418
#
# Velocity S-wave (km/s) = 3.77437 4.14710 3.96512
# Velocity P-wave (km/s) = 5.91687 7.11196 6.54176
#
# Compressibility (1/GPa) = 0.02840288
#
# Stress axis : x y z
#
# Youngs Moduli (GPa) = 103.16388 137.70493 44.62141
#
# Poissons Ratio (x) = 0.50705 0.13988
# Poissons Ratio (y) = 0.37987 -0.05959
# Poissons Ratio (z) = 0.32340 -0.18389
#
# Static dielectric constant tensor:
#      x y z
#    x 1.829050 0.000000 -0.004410 
#    y 0.000000 1.827520 0.000000 
#    z -0.004410 0.000000 1.881770 
# 
# From -- ./inp_files/289105.got.cif
#   From: 2010.05.17/outbox.cif.g08.bks.cpg/sg15_145_cif.got.tgz:289105.got - 2010.06.03 18:47:42.
