data_PCOD9292456
_publ_section_title
;
Structure prediction by ZEFSAII (Michael W. Deem and Ramdas Pophale) SiO2 
 PCOD9292456
Probable space group: C 2/C
;
_chemical_formula_sum "Si O2"
_cell_formula_units_Z 56
_cell_length_a 31.091972
_cell_length_b 5.028337
_cell_length_c 13.696708
_cell_angle_alpha 90.000000
_cell_angle_beta 113.765646
_cell_angle_gamma 90.000000
_cell_volume 1959.771999
_symmetry_space_group_name_H-M "C 2/C"
_symmetry_group_IT_number 15
_symmetry_cell_setting 'monoclinic'
loop_
_space_group_symop_operation_xyz
x,y,z
-x,y,1/2-z
-x,-y,-z
x,-y,1/2+z
1/2+x,1/2+y,z
1/2-x,1/2+y,1/2-z
1/2-x,1/2-y,-z
1/2+x,1/2-y,1/2+z
loop_
_atom_site_type_symbol
_atom_site_label
_atom_site_fract_x
_atom_site_fract_y
_atom_site_fract_z
Si Si1 0.743800 0.228228 0.643081
Si Si2 0.114788 0.990916 0.590509
Si Si3 0.055958 0.772249 0.821227
Si Si4 0.930903 0.267812 0.774904
Si Si5 0.684083 0.130863 0.773189
Si Si6 0.690215 0.285339 0.006011
Si Si7 0.969953 0.641196 0.054556
O O1 0.725441 0.244712 0.738661
O O2 0.716729 0.975461 0.571635
O O3 0.724075 0.465567 0.556528
O O4 0.819170 0.741550 0.618404
O O5 0.142406 0.747023 0.667778
O O6 0.146022 0.130459 0.534681
O O7 0.065446 0.864642 0.511320
O O8 0.099660 0.190867 0.661575
O O9 0.077399 0.568525 0.762333
O O10 0.058581 0.593767 0.919720
O O11 0.000000 0.771891 0.750000
O O12 0.077558 0.058347 0.819706
O O13 0.799030 0.319566 0.700534
O O14 0.986728 0.238927 0.844962
O O15 0.000000 0.500000 0.000000
#
# Coordination Sequence:
#
# PCOD9292456 Si02
#       7
#     8   8   8   8   8   8   8
#     4  11  25  50  84 120 164 216 274 338 438 529
#     4  11  27  49  79 129 171 218 290 363 423 499
#     4  10  22  43  72 105 148 219 287 331 413 491
#     4  11  24  46  75 110 164 225 281 340 417 494
#     4  11  26  52  83 122 166 217 276 356 423 523
#     4  11  27  50  81 120 167 217 271 349 432 516
#     4  11  25  48  80 119 174 228 290 360 418 508
#
# _framework density 28.574753999999999
#
# number of rings (size 3 to 8) (size 9 to 14) (size 15 to 20)
#    0.000    1.143    0.000    5.143    2.000   10.286 
#    5.143    2.143    0.000    0.000    0.000    0.000 
#    0.000    0.000    0.000    0.000    0.000    0.000 
#
# Total GULP energy -156884.707610 kJ/mol
# GULP energy per Si atom -5603.025272 kJ/mol
# Density = 2.850972 g / cm^3
# Si number density = 28.574754 Si / 1000 Ang^3
#
#
#
# Elastic Constant Matrix: (Units=GPa)
#
#
# Indices 1 2 3 4 5 6 
#
# 1 166.8153 71.1619 72.4685 0.0000 -17.1083 0.0000
# 2 71.1619 179.8215 45.7396 0.0000 -0.8080 0.0000
# 3 72.4685 45.7396 160.1575 0.0000 -29.0964 0.0000
# 4 0.0000 0.0000 0.0000 45.9784 0.0000 -6.6624
# 5 -17.1083 -0.8080 -29.0964 0.0000 63.0308 0.0000
# 6 0.0000 0.0000 0.0000 -6.6624 0.0000 56.9540
#
#
#
# Elastic Compliance Matrix: (Units=1/GPa)
#
#
# Indices 1 2 3 4 5 6 
#
# 1 0.008469 -0.002604 -0.002922 0.000000 0.000917 0.000000
# 2 -0.002604 0.006833 -0.000967 0.000000 -0.001065 0.000000
# 3 -0.002922 -0.000967 0.008400 0.000000 0.003072 0.000000
# 4 0.000000 0.000000 0.000000 0.022124 0.000000 0.002588
# 5 0.000917 -0.001065 0.003072 0.000000 0.017519 0.000000
# 6 0.000000 0.000000 0.000000 0.002588 0.000000 0.017861
#
#
# Mechanical properties :
#
#
# Convention : Reuss Voigt Hill
#
# Bulk Modulus (GPa) = 93.31291 98.39273 95.85282
# Shear Modulus (GPa) = 51.14433 54.35428 52.74930
#
# Velocity S-wave (km/s) = 4.23524 4.36613 4.30118
# Velocity P-wave (km/s) = 7.52615 7.74116 7.63442
#
# Compressibility (1/GPa) = 0.01071663
#
# Stress axis : x y z
#
# Youngs Moduli (GPa) = 118.08002 146.35516 119.04616
#
# Poissons Ratio (x) = 0.38113 0.34783
# Poissons Ratio (y) = 0.30749 0.11507
# Poissons Ratio (z) = 0.34500 0.14147
#
# Static dielectric constant tensor:
#      x y z
#    x 2.515710 0.000000 -0.130300 
#    y 0.000000 2.305740 0.000000 
#    z -0.130300 0.000000 2.457230 
# 
# From -- ./inp_files/180098.got.cif
#   From: 2010.05.17/outbox.cif.g08.bks.cpg/sg15_91_cif.got.tgz:180098.got - 2010.06.03 18:47:42.
