data_PCOD9292974
_publ_section_title
;
Structure prediction by ZEFSAII (Michael W. Deem and Ramdas Pophale) SiO2 
 PCOD9292974
Probable space group: C 2/C
;
_chemical_formula_sum "Si O2"
_cell_formula_units_Z 60
_cell_length_a 18.683356
_cell_length_b 15.131666
_cell_length_c 14.285354
_cell_angle_alpha 90.000000
_cell_angle_beta 44.568222
_cell_angle_gamma 90.000000
_cell_volume 2834.131751
_symmetry_space_group_name_H-M "C 2/C"
_symmetry_group_IT_number 15
_symmetry_cell_setting 'monoclinic'
loop_
_space_group_symop_operation_xyz
x,y,z
-x,y,1/2-z
-x,-y,-z
x,-y,1/2+z
1/2+x,1/2+y,z
1/2-x,1/2+y,1/2-z
1/2-x,1/2-y,-z
1/2+x,1/2-y,1/2+z
loop_
_atom_site_type_symbol
_atom_site_label
_atom_site_fract_x
_atom_site_fract_y
_atom_site_fract_z
Si Si1 0.403506 0.096447 0.547168
Si Si2 0.737953 0.618493 0.407759
Si Si3 0.500000 0.152616 0.750000
Si Si4 0.916403 0.929248 0.615162
Si Si5 0.068680 0.492656 0.795530
Si Si6 0.105210 0.943013 0.203996
Si Si7 0.961121 0.253051 0.477676
Si Si8 0.804495 0.800062 0.270522
O O1 0.457002 0.052424 0.406902
O O2 0.476957 0.175020 0.517396
O O3 0.289465 0.132595 0.649179
O O4 0.403865 0.020989 0.624895
O O5 0.668983 0.587321 0.383998
O O6 0.849071 0.577719 0.307631
O O7 0.683291 0.583768 0.550994
O O8 0.758028 0.721970 0.375800
O O9 0.544950 0.209415 0.622515
O O10 0.574937 0.082356 0.730247
O O11 0.974091 0.837611 0.583270
O O12 0.870780 0.974982 0.750718
O O13 0.000000 0.000000 0.500000
O O14 0.102639 0.854386 0.269636
O O15 0.000000 0.961566 0.250000
O O16 0.852147 0.236613 0.629477
#
# Coordination Sequence:
#
# PCOD9292974 Si02
#       8
#     8   8   4   8   8   8   8   8
#     4  10  22  44  70  96 136 184 235 282 352 414
#     4  12  25  44  71 105 138 185 243 287 363 414
#     4  10  26  44  70 104 146 184 236 290 356 420
#     4  12  24  46  73  99 144 191 230 293 352 421
#     4  10  23  43  67 100 137 183 230 289 340 431
#     4  12  27  44  68 105 142 181 241 293 349 427
#     4  11  23  46  70 103 142 184 235 291 358 421
#     4  12  24  44  72 101 137 189 231 297 355 415
#
# _framework density 21.170504000000001
#
# number of rings (size 3 to 8) (size 9 to 14) (size 15 to 20)
#    0.000    0.800    5.333    1.200    2.800    1.067 
#    1.200    1.333    0.000    0.000    0.000    0.000 
#    0.000    0.000    0.000    0.000    0.000    0.000 
#
# Total GULP energy -167561.818959 kJ/mol
# GULP energy per Si atom -5585.393965 kJ/mol
# Density = 2.112232 g / cm^3
# Si number density = 21.170504 Si / 1000 Ang^3
#
#
#
# Elastic Constant Matrix: (Units=GPa)
#
#
# Indices 1 2 3 4 5 6 
#
# 1 68.5746 15.6705 29.2896 0.0000 15.6338 0.0000
# 2 15.6705 78.1389 26.4702 0.0000 15.6808 0.0000
# 3 29.2896 26.4702 102.6410 0.0000 17.9416 0.0000
# 4 0.0000 0.0000 0.0000 39.1732 0.0000 -0.6658
# 5 15.6338 15.6808 17.9416 0.0000 25.9352 0.0000
# 6 0.0000 0.0000 0.0000 -0.6658 0.0000 35.6455
#
#
#
# Elastic Compliance Matrix: (Units=1/GPa)
#
#
# Indices 1 2 3 4 5 6 
#
# 1 0.018106 -0.000829 -0.003564 0.000000 -0.007948 0.000000
# 2 -0.000829 0.015200 -0.002462 0.000000 -0.006987 0.000000
# 3 -0.003564 -0.002462 0.012239 0.000000 -0.004830 0.000000
# 4 0.000000 0.000000 0.000000 0.025536 0.000000 0.000477
# 5 -0.007948 -0.006987 -0.004830 0.000000 0.050915 0.000000
# 6 0.000000 0.000000 0.000000 0.000477 0.000000 0.028063
#
#
# Mechanical properties :
#
#
# Convention : Reuss Voigt Hill
#
# Bulk Modulus (GPa) = 31.41111 43.57945 37.49528
# Shear Modulus (GPa) = 28.67304 32.01240 30.34272
#
# Velocity S-wave (km/s) = 3.68419 3.89282 3.78994
# Velocity P-wave (km/s) = 5.74170 6.39023 6.07463
#
# Compressibility (1/GPa) = 0.03183587
#
# Stress axis : x y z
#
# Youngs Moduli (GPa) = 55.22964 65.78853 81.70714
#
# Poissons Ratio (x) = 0.05453 0.29118
# Poissons Ratio (y) = 0.04578 0.20117
# Poissons Ratio (z) = 0.19682 0.16198
#
# Static dielectric constant tensor:
#      x y z
#    x 1.778570 0.000000 0.037610 
#    y 0.000000 1.732570 0.000000 
#    z 0.037610 0.000000 1.838510 
# 
# From -- ./inp_files/168609.got.cif
#   From: 2010.05.17/outbox.cif.g08.bks.cpg/sg15_85_cif.got.tgz:168609.got - 2010.06.03 18:47:42.
