data_PCOD9292897
_publ_section_title
;
Structure prediction by ZEFSAII (Michael W. Deem and Ramdas Pophale) SiO2 
 PCOD9292897
Probable space group: C 2/C
;
_chemical_formula_sum "Si O2"
_cell_formula_units_Z 56
_cell_length_a 11.029320
_cell_length_b 31.066728
_cell_length_c 7.763899
_cell_angle_alpha 90.000000
_cell_angle_beta 111.025365
_cell_angle_gamma 90.000000
_cell_volume 2483.144628
_symmetry_space_group_name_H-M "C 2/C"
_symmetry_group_IT_number 15
_symmetry_cell_setting 'monoclinic'
loop_
_space_group_symop_operation_xyz
x,y,z
-x,y,1/2-z
-x,-y,-z
x,-y,1/2+z
1/2+x,1/2+y,z
1/2-x,1/2+y,1/2-z
1/2-x,1/2-y,-z
1/2+x,1/2-y,1/2+z
loop_
_atom_site_type_symbol
_atom_site_label
_atom_site_fract_x
_atom_site_fract_y
_atom_site_fract_z
Si Si1 0.300807 0.384340 0.529549
Si Si2 0.295612 0.710075 0.404219
Si Si3 0.771429 0.443283 0.545285
Si Si4 0.075045 0.875926 0.523233
Si Si5 0.844590 0.535782 0.697174
Si Si6 0.000000 0.249425 0.250000
Si Si7 0.000000 0.383571 0.750000
Si Si8 0.593205 0.177168 0.042743
O O1 0.420352 0.377222 0.460832
O O2 0.365617 0.379873 0.751793
O O3 0.227228 0.429094 0.458569
O O4 0.191238 0.347715 0.467025
O O5 0.250000 0.750000 0.500000
O O6 0.371475 0.669324 0.525006
O O7 0.386612 0.723244 0.287130
O O8 0.167229 0.691209 0.252703
O O9 0.636225 0.417939 0.467456
O O10 0.775615 0.489891 0.633940
O O11 0.824904 0.449540 0.381796
O O12 0.873250 0.412906 0.696930
O O13 0.000000 0.531802 0.750000
O O14 0.047543 0.280679 0.424732
O O15 0.990620 0.356337 0.568085
#
# Coordination Sequence:
#
# PCOD9292897 Si02
#       8
#     8   8   8   8   8   4   4   8
#     4  10  22  44  69  96 136 177 227 274 339 406
#     4  11  23  44  68  98 139 179 232 286 346 407
#     4  12  25  42  69  97 138 175 227 280 341 404
#     4  10  23  46  71  94 133 186 223 280 345 401
#     4  12  26  41  68 105 135 175 226 281 339 406
#     4  12  26  40  69 104 136 178 232 283 342 418
#     4  12  22  42  67  98 136 180 222 277 346 408
#     4  11  24  42  68 100 138 177 225 283 347 405
#
# _framework density 22.552049
#
# number of rings (size 3 to 8) (size 9 to 14) (size 15 to 20)
#    0.000    0.857    3.571    5.143    3.000    1.143 
#    0.000    1.429    0.000    0.000    0.000    0.000 
#    0.000    0.000    0.000    0.000    0.000    0.000 
#
# Total GULP energy -156574.358455 kJ/mol
# GULP energy per Si atom -5591.941373 kJ/mol
# Density = 2.250072 g / cm^3
# Si number density = 22.552049 Si / 1000 Ang^3
#
#
#
# Elastic Constant Matrix: (Units=GPa)
#
#
# Indices 1 2 3 4 5 6 
#
# 1 102.8686 52.2118 9.6245 0.0000 -13.9746 0.0000
# 2 52.2118 146.0993 17.4691 0.0000 -1.9986 0.0000
# 3 9.6245 17.4691 38.6181 0.0000 -11.6046 0.0000
# 4 0.0000 0.0000 0.0000 28.5613 0.0000 -12.4149
# 5 -13.9746 -1.9986 -11.6046 0.0000 27.4285 0.0000
# 6 0.0000 0.0000 0.0000 -12.4149 0.0000 41.9933
#
#
#
# Elastic Compliance Matrix: (Units=1/GPa)
#
#
# Indices 1 2 3 4 5 6 
#
# 1 0.012878 -0.004615 0.000858 0.000000 0.006588 0.000000
# 2 -0.004615 0.008913 -0.003887 0.000000 -0.003346 0.000000
# 3 0.000858 -0.003887 0.031489 0.000000 0.013476 0.000000
# 4 0.000000 0.000000 0.000000 0.040175 0.000000 0.011877
# 5 0.006588 -0.003346 0.013476 0.000000 0.045273 0.000000
# 6 0.000000 0.000000 0.000000 0.011877 0.000000 0.027325
#
#
# Mechanical properties :
#
#
# Convention : Reuss Voigt Hill
#
# Bulk Modulus (GPa) = 26.32198 49.57743 37.94971
# Shear Modulus (GPa) = 25.77257 33.48199 29.62728
#
# Velocity S-wave (km/s) = 3.38421 3.85730 3.62847
# Velocity P-wave (km/s) = 5.19302 6.47068 5.86673
#
# Compressibility (1/GPa) = 0.03799106
#
# Stress axis : x y z
#
# Youngs Moduli (GPa) = 77.65131 112.19765 31.75729
#
# Poissons Ratio (x) = 0.51776 -0.02723
# Poissons Ratio (y) = 0.35834 0.12345
# Poissons Ratio (z) = -0.06659 0.43614
#
# Static dielectric constant tensor:
#      x y z
#    x 1.717290 0.000000 0.035180 
#    y 0.000000 1.846080 0.000000 
#    z 0.035180 0.000000 1.840680 
# 
# From -- ./inp_files/34370.got.cif
#   From: 2010.05.17/outbox.cif.g08.bks.cpg/sg15_18_cif.got.tgz:34370.got - 2010.06.03 18:47:42.
