data_PCOD9292420
_publ_section_title
;
Structure prediction by ZEFSAII (Michael W. Deem and Ramdas Pophale) SiO2 
 PCOD9292420
Probable space group: C 2/C
;
_chemical_formula_sum "Si O2"
_cell_formula_units_Z 44
_cell_length_a 7.051266
_cell_length_b 25.792530
_cell_length_c 12.001308
_cell_angle_alpha 90.000000
_cell_angle_beta 64.520187
_cell_angle_gamma 90.000000
_cell_volume 1970.383781
_symmetry_space_group_name_H-M "C 2/C"
_symmetry_group_IT_number 15
_symmetry_cell_setting 'monoclinic'
loop_
_space_group_symop_operation_xyz
x,y,z
-x,y,1/2-z
-x,-y,-z
x,-y,1/2+z
1/2+x,1/2+y,z
1/2-x,1/2+y,1/2-z
1/2-x,1/2-y,-z
1/2+x,1/2-y,1/2+z
loop_
_atom_site_type_symbol
_atom_site_label
_atom_site_fract_x
_atom_site_fract_y
_atom_site_fract_z
Si Si1 0.047363 0.207295 0.412520
Si Si2 0.000000 0.064179 0.750000
Si Si3 0.485595 0.591882 0.992003
Si Si4 0.511327 0.888597 0.617741
Si Si5 0.141466 0.722403 0.363970
Si Si6 0.729179 0.976639 0.922353
O O1 0.015370 0.145805 0.440666
O O2 0.006972 0.233627 0.543696
O O3 0.855311 0.224312 0.382289
O O4 0.261257 0.220822 0.287871
O O5 0.937945 0.096047 0.655670
O O6 0.826566 0.022429 0.826866
O O7 0.234691 0.583872 0.040917
O O8 0.618278 0.546202 0.018790
O O9 0.500000 0.881036 0.750000
O O10 0.478161 0.831530 0.577057
O O11 0.318698 0.924579 0.633457
O O12 0.500000 0.000000 0.000000
#
# Coordination Sequence:
#
# PCOD9292420 Si02
#       6
#     8   4   8   8   8   8
#     4  10  22  44  72 102 149 188 246 302 364 445
#     4  12  28  44  72 110 140 182 244 304 354 430
#     4  12  26  48  70 108 143 185 246 297 362 444
#     4  12  24  43  73 103 136 194 239 290 363 440
#     4  10  22  43  71 107 139 199 240 299 373 434
#     4  12  27  48  71 100 147 191 236 300 368 435
#
# _framework density 22.330674999999999
#
# number of rings (size 3 to 8) (size 9 to 14) (size 15 to 20)
#    0.000    0.727    5.455    1.636    2.545    2.182 
#    1.636    1.818    0.000    0.000    0.000    0.000 
#    0.000    0.000    0.000    0.000    0.000    0.000 
#
# Total GULP energy -122535.191659 kJ/mol
# GULP energy per Si atom -5569.781439 kJ/mol
# Density = 2.227985 g / cm^3
# Si number density = 22.330675 Si / 1000 Ang^3
#
#
#
# Elastic Constant Matrix: (Units=GPa)
#
#
# Indices 1 2 3 4 5 6 
#
# 1 77.1067 14.2749 35.1271 0.0000 -20.1014 0.0000
# 2 14.2749 76.3122 32.3513 0.0000 -8.3754 0.0000
# 3 35.1271 32.3513 132.4873 0.0000 -18.1073 0.0000
# 4 0.0000 0.0000 0.0000 39.6130 0.0000 6.3900
# 5 -20.1014 -8.3754 -18.1073 0.0000 37.4860 0.0000
# 6 0.0000 0.0000 0.0000 6.3900 0.0000 37.6282
#
#
#
# Elastic Compliance Matrix: (Units=1/GPa)
#
#
# Indices 1 2 3 4 5 6 
#
# 1 0.016427 -0.000959 -0.003155 0.000000 0.007071 0.000000
# 2 -0.000959 0.014769 -0.003181 0.000000 0.001249 0.000000
# 3 -0.003155 -0.003181 0.009457 0.000000 0.002166 0.000000
# 4 0.000000 0.000000 0.000000 0.025955 0.000000 -0.004408
# 5 0.007071 0.001249 0.002166 0.000000 0.031793 0.000000
# 6 0.000000 0.000000 0.000000 -0.004408 0.000000 0.027324
#
#
# Mechanical properties :
#
#
# Convention : Reuss Voigt Hill
#
# Bulk Modulus (GPa) = 38.36947 49.93475 44.15211
# Shear Modulus (GPa) = 33.55591 36.55564 35.05578
#
# Velocity S-wave (km/s) = 3.88065 4.05039 3.96643
# Velocity P-wave (km/s) = 6.10729 6.65464 6.38683
#
# Compressibility (1/GPa) = 0.02606239
#
# Stress axis : x y z
#
# Youngs Moduli (GPa) = 60.87488 67.70815 105.73982
#
# Poissons Ratio (x) = 0.06496 0.33359
# Poissons Ratio (y) = 0.05840 0.33640
# Poissons Ratio (z) = 0.19205 0.21541
#
# Static dielectric constant tensor:
#      x y z
#    x 1.875450 0.000000 0.048360 
#    y 0.000000 1.860180 0.000000 
#    z 0.048360 0.000000 1.818730 
# 
# From -- ./inp_files/81080.got.cif
#   From: 2010.05.17/outbox.cif.g08.bks.cpg/sg15_41_cif.got.tgz:81080.got - 2010.06.03 18:47:42.
