data_PCOD9292948
_publ_section_title
;
Structure prediction by ZEFSAII (Michael W. Deem and Ramdas Pophale) SiO2 
 PCOD9292948
Probable space group: C 2/C
;
_chemical_formula_sum "Si O2"
_cell_formula_units_Z 40
_cell_length_a 21.642395
_cell_length_b 7.075082
_cell_length_c 23.196723
_cell_angle_alpha 90.000000
_cell_angle_beta 25.903148
_cell_angle_gamma 90.000000
_cell_volume 1551.661478
_symmetry_space_group_name_H-M "C 2/C"
_symmetry_group_IT_number 15
_symmetry_cell_setting 'monoclinic'
loop_
_space_group_symop_operation_xyz
x,y,z
-x,y,1/2-z
-x,-y,-z
x,-y,1/2+z
1/2+x,1/2+y,z
1/2-x,1/2+y,1/2-z
1/2-x,1/2-y,-z
1/2+x,1/2-y,1/2+z
loop_
_atom_site_type_symbol
_atom_site_label
_atom_site_fract_x
_atom_site_fract_y
_atom_site_fract_z
Si Si1 0.060755 0.790160 0.825817
Si Si2 0.172108 0.942028 0.552536
Si Si3 0.357363 0.226056 0.336249
Si Si4 0.120140 0.382255 0.805110
Si Si5 0.138160 0.831901 0.403718
O O1 0.983841 0.878750 0.835607
O O2 0.030748 0.563576 0.858848
O O3 0.230510 0.796459 0.682500
O O4 0.980630 0.867817 0.949373
O O5 0.250000 0.750000 0.500000
O O6 0.245376 0.057759 0.438922
O O7 0.187192 0.088465 0.591928
O O8 0.500000 0.165126 0.250000
O O9 0.378101 0.253790 0.251213
O O10 0.078699 0.278609 0.898199
O O11 0.274015 0.478818 0.685709
#
# Coordination Sequence:
#
# PCOD9292948 Si02
#       5
#     8   8   8   8   8
#     4  10  22  44  70 105 146 199 251 318 381 456
#     4  11  24  45  74 104 148 199 249 316 380 452
#     4  11  25  46  68 109 143 194 257 310 378 456
#     4  10  23  44  69 105 150 191 255 316 382 452
#     4  10  23  42  71 104 146 199 249 315 383 452
#
# _framework density 25.778818999999999
#
# number of rings (size 3 to 8) (size 9 to 14) (size 15 to 20)
#    1.200    0.400    2.000    1.800    0.000    8.000 
#    7.200    0.000    0.000    0.000    0.000    0.000 
#    0.000    0.000    0.000    0.000    0.000    0.000 
#
# Total GULP energy -111961.606527 kJ/mol
# GULP energy per Si atom -5598.080326 kJ/mol
# Density = 2.572015 g / cm^3
# Si number density = 25.778819 Si / 1000 Ang^3
#
#
#
# Elastic Constant Matrix: (Units=GPa)
#
#
# Indices 1 2 3 4 5 6 
#
# 1 76.6897 51.4649 1.9622 0.0039 -7.0267 -0.0041
# 2 51.4649 129.3046 15.1212 -0.0163 -9.7534 0.0106
# 3 1.9622 15.1212 69.2379 -0.0022 -12.3083 0.0018
# 4 0.0039 -0.0163 -0.0022 43.9855 0.0036 -6.4643
# 5 -7.0267 -9.7534 -12.3083 0.0036 44.9164 -0.0017
# 6 -0.0041 0.0106 0.0018 -6.4643 -0.0017 40.4846
#
#
#
# Elastic Compliance Matrix: (Units=1/GPa)
#
#
# Indices 1 2 3 4 5 6 
#
# 1 0.017980 -0.007192 0.001349 -0.000004 0.001621 0.000003
# 2 -0.007192 0.010887 -0.002054 0.000004 0.000676 -0.000003
# 3 0.001349 -0.002054 0.015570 0.000000 0.004032 0.000000
# 4 -0.000004 0.000004 0.000000 0.023281 -0.000002 0.003717
# 5 0.001621 0.000676 0.004032 -0.000002 0.023769 0.000001
# 6 0.000003 -0.000003 0.000000 0.003717 0.000001 0.025294
#
#
# Mechanical properties :
#
#
# Convention : Reuss Voigt Hill
#
# Bulk Modulus (GPa) = 34.91060 45.81430 40.36245
# Shear Modulus (GPa) = 35.18113 39.65623 37.41868
#
# Velocity S-wave (km/s) = 3.69823 3.92640 3.81403
# Velocity P-wave (km/s) = 5.63983 6.19405 5.92342
#
# Compressibility (1/GPa) = 0.02864459
#
# Stress axis : x y z
#
# Youngs Moduli (GPa) = 55.61814 91.85064 64.22635
#
# Poissons Ratio (x) = 0.66056 -0.08665
# Poissons Ratio (y) = 0.39999 0.13190
# Poissons Ratio (z) = -0.07504 0.18863
#
# Static dielectric constant tensor:
#      x y z
#    x 1.990980 0.000000 0.004470 
#    y 0.000000 2.074650 0.000000 
#    z 0.004470 0.000000 2.056260 
# 
# From -- ./inp_files/252198.got.cif
#   From: 2010.05.17/outbox.cif.g08.bks.cpg/sg15_127_cif.got.tgz:252198.got - 2010.06.03 18:47:42.
