data_PCOD9292663
_publ_section_title
;
Structure prediction by ZEFSAII (Michael W. Deem and Ramdas Pophale) SiO2 
 PCOD9292663
Probable space group: C 2/C
;
_chemical_formula_sum "Si O2"
_cell_formula_units_Z 60
_cell_length_a 25.425318
_cell_length_b 14.986880
_cell_length_c 14.011255
_cell_angle_alpha 90.000000
_cell_angle_beta 30.307994
_cell_angle_gamma 90.000000
_cell_volume 2694.283471
_symmetry_space_group_name_H-M "C 2/C"
_symmetry_group_IT_number 15
_symmetry_cell_setting 'monoclinic'
loop_
_space_group_symop_operation_xyz
x,y,z
-x,y,1/2-z
-x,-y,-z
x,-y,1/2+z
1/2+x,1/2+y,z
1/2-x,1/2+y,1/2-z
1/2-x,1/2-y,-z
1/2+x,1/2-y,1/2+z
loop_
_atom_site_type_symbol
_atom_site_label
_atom_site_fract_x
_atom_site_fract_y
_atom_site_fract_z
Si Si1 0.170009 0.263347 0.456119
Si Si2 0.000000 0.950210 0.750000
Si Si3 0.701669 0.343798 0.396839
Si Si4 0.032480 0.753482 0.351855
Si Si5 0.704679 0.964411 0.082630
Si Si6 0.384676 0.153503 0.938122
Si Si7 0.415274 0.454965 0.200808
Si Si8 0.140342 0.372957 0.811496
O O1 0.233368 0.341255 0.303075
O O2 0.107433 0.284487 0.650569
O O3 0.253939 0.187348 0.353113
O O4 0.080991 0.235174 0.518370
O O5 0.088673 0.889367 0.562430
O O6 0.053786 0.014081 0.741586
O O7 0.754346 0.395926 0.401069
O O8 0.689828 0.239593 0.442746
O O9 0.075696 0.848986 0.316941
O O10 0.045649 0.687339 0.420063
O O11 0.634470 0.911443 0.119048
O O12 0.653038 0.043925 0.222540
O O13 0.800404 0.004986 0.871188
O O14 0.500000 0.191522 0.750000
O O15 0.374436 0.103443 0.055043
O O16 0.500000 0.500000 0.000000
#
# Coordination Sequence:
#
# PCOD9292663 Si02
#       8
#     8   4   8   8   8   8   8   8
#     4  10  23  43  71 101 138 185 229 287 358 426
#     4  10  22  44  66 108 134 176 234 294 358 424
#     4  10  23  43  74  97 140 185 234 294 356 423
#     4  11  24  45  71 105 144 184 235 289 365 429
#     4  11  26  46  70 103 141 187 241 294 352 428
#     4  11  26  47  69  98 141 186 241 289 359 424
#     4  11  26  38  72 104 140 173 233 296 360 418
#     4  11  26  46  71 102 144 187 235 296 355 428
#
# _framework density 22.269372000000001
#
# number of rings (size 3 to 8) (size 9 to 14) (size 15 to 20)
#    0.000    1.333    2.000    1.600   11.200    1.600 
#    2.400    0.000    0.000    0.000    0.000    0.000 
#    0.000    0.000    0.000    0.000    0.000    0.000 
#
# Total GULP energy -167798.597491 kJ/mol
# GULP energy per Si atom -5593.286583 kJ/mol
# Density = 2.221869 g / cm^3
# Si number density = 22.269372 Si / 1000 Ang^3
#
#
#
# Elastic Constant Matrix: (Units=GPa)
#
#
# Indices 1 2 3 4 5 6 
#
# 1 95.7665 47.1429 -2.7206 0.0000 -2.0468 0.0000
# 2 47.1429 107.6421 19.6135 0.0000 13.3594 0.0000
# 3 -2.7206 19.6135 62.8212 0.0000 11.7836 0.0000
# 4 0.0000 0.0000 0.0000 15.1441 0.0000 4.6715
# 5 -2.0468 13.3594 11.7836 0.0000 27.4372 0.0000
# 6 0.0000 0.0000 0.0000 4.6715 0.0000 11.9474
#
#
#
# Elastic Compliance Matrix: (Units=1/GPa)
#
#
# Indices 1 2 3 4 5 6 
#
# 1 0.014001 -0.006955 0.002117 0.000000 0.003522 0.000000
# 2 -0.006955 0.013679 -0.003508 0.000000 -0.005673 0.000000
# 3 0.002117 -0.003508 0.018223 0.000000 -0.005960 0.000000
# 4 0.000000 0.000000 0.000000 0.075089 0.000000 -0.029360
# 5 0.003522 -0.005673 -0.005960 0.000000 0.042032 0.000000
# 6 0.000000 0.000000 0.000000 -0.029360 0.000000 0.095180
#
#
# Mechanical properties :
#
#
# Convention : Reuss Voigt Hill
#
# Bulk Modulus (GPa) = 34.23213 43.81126 39.02170
# Shear Modulus (GPa) = 17.56649 24.38533 20.97591
#
# Velocity S-wave (km/s) = 2.81164 3.31269 3.07240
# Velocity P-wave (km/s) = 5.09368 5.86071 5.49061
#
# Compressibility (1/GPa) = 0.02921232
#
# Stress axis : x y z
#
# Youngs Moduli (GPa) = 71.42312 73.10392 54.87541
#
# Poissons Ratio (x) = 0.50842 -0.11618
# Poissons Ratio (y) = 0.49673 0.19250
# Poissons Ratio (z) = -0.15121 0.25644
#
# Static dielectric constant tensor:
#      x y z
#    x 1.809730 0.000000 -0.020970 
#    y 0.000000 1.772300 0.000000 
#    z -0.020970 0.000000 1.857200 
# 
# From -- ./inp_files/178522.got.cif
#   From: 2010.05.17/outbox.cif.g08.bks.cpg/sg15_90_cif.got.tgz:178522.got - 2010.06.03 18:47:42.
