data_PCOD9292862
_publ_section_title
;
Structure prediction by ZEFSAII (Michael W. Deem and Ramdas Pophale) SiO2 
 PCOD9292862
Probable space group: C 2/C
;
_chemical_formula_sum "Si O2"
_cell_formula_units_Z 32
_cell_length_a 9.515310
_cell_length_b 11.600351
_cell_length_c 15.177770
_cell_angle_alpha 90.000000
_cell_angle_beta 62.999669
_cell_angle_gamma 90.000000
_cell_volume 1492.731320
_symmetry_space_group_name_H-M "C 2/C"
_symmetry_group_IT_number 15
_symmetry_cell_setting 'monoclinic'
loop_
_space_group_symop_operation_xyz
x,y,z
-x,y,1/2-z
-x,-y,-z
x,-y,1/2+z
1/2+x,1/2+y,z
1/2-x,1/2+y,1/2-z
1/2-x,1/2-y,-z
1/2+x,1/2-y,1/2+z
loop_
_atom_site_type_symbol
_atom_site_label
_atom_site_fract_x
_atom_site_fract_y
_atom_site_fract_z
Si Si1 0.820844 0.992253 0.584961
Si Si2 0.628522 0.899411 0.472153
Si Si3 0.834957 0.252457 0.569419
Si Si4 0.184861 0.034809 0.214977
O O1 0.791117 0.126808 0.616036
O O2 0.722010 0.931757 0.535156
O O3 0.793204 0.939072 0.688166
O O4 0.000000 0.000000 0.500000
O O5 0.522291 0.783601 0.507943
O O6 0.500000 0.000000 0.500000
O O7 0.736179 0.922723 0.355293
O O8 0.750000 0.250000 0.500000
O O9 0.756722 0.354970 0.645621
O O10 0.000000 0.025465 0.250000
#
# Coordination Sequence:
#
# PCOD9292862 Si02
#       4
#     8   8   8   8
#     4  12  24  44  69 103 148 183 236 309 355 431
#     4  10  22  44  69 101 138 177 244 292 350 433
#     4  11  23  45  72 100 139 193 235 298 370 423
#     4  11  23  44  68 103 140 185 240 296 364 429
#
# _framework density 21.437211999999999
#
# number of rings (size 3 to 8) (size 9 to 14) (size 15 to 20)
#    0.000    1.000    7.500    0.000    0.000    9.000 
#    4.500    0.000    0.000    0.000    0.000    0.000 
#    0.000    0.000    0.000    0.000    0.000    0.000 
#
# Total GULP energy -89229.455604 kJ/mol
# GULP energy per Si atom -5576.840975 kJ/mol
# Density = 2.138842 g / cm^3
# Si number density = 21.437212 Si / 1000 Ang^3
#
#
#
# Elastic Constant Matrix: (Units=GPa)
#
#
# Indices 1 2 3 4 5 6 
#
# 1 152.6834 17.4564 71.1990 0.0000 15.3578 0.0000
# 2 17.4564 53.6582 17.8932 0.0000 1.2571 0.0000
# 3 71.1990 17.8932 173.8797 0.0000 22.2721 0.0000
# 4 0.0000 0.0000 0.0000 34.5204 0.0000 -3.1147
# 5 15.3578 1.2571 22.2721 0.0000 44.9356 0.0000
# 6 0.0000 0.0000 0.0000 -3.1147 0.0000 39.0909
#
#
#
# Elastic Compliance Matrix: (Units=1/GPa)
#
#
# Indices 1 2 3 4 5 6 
#
# 1 0.008294 -0.001647 -0.003064 0.000000 -0.001270 0.000000
# 2 -0.001647 0.019635 -0.001439 0.000000 0.000727 0.000000
# 3 -0.003064 -0.001439 0.007490 0.000000 -0.002625 0.000000
# 4 0.000000 0.000000 0.000000 0.029178 0.000000 0.002325
# 5 -0.001270 0.000727 -0.002625 0.000000 0.023969 0.000000
# 6 0.000000 0.000000 0.000000 0.002325 0.000000 0.025767
#
#
# Mechanical properties :
#
#
# Convention : Reuss Voigt Hill
#
# Bulk Modulus (GPa) = 43.25449 65.92428 54.58939
# Shear Modulus (GPa) = 37.21889 41.95424 39.58656
#
# Velocity S-wave (km/s) = 4.17127 4.42868 4.30190
# Velocity P-wave (km/s) = 6.58942 7.54785 7.08486
#
# Compressibility (1/GPa) = 0.02311899
#
# Stress axis : x y z
#
# Youngs Moduli (GPa) = 120.56303 50.92899 133.50866
#
# Poissons Ratio (x) = 0.08387 0.40910
# Poissons Ratio (y) = 0.19855 0.19217
# Poissons Ratio (z) = 0.36943 0.07331
#
# Static dielectric constant tensor:
#      x y z
#    x 1.779770 0.000000 -0.026210 
#    y 0.000000 1.829550 0.000000 
#    z -0.026210 0.000000 1.762040 
# 
# From -- ./inp_files/131931.got.cif
#   From: 2010.05.17/outbox.cif.g08.bks.cpg/sg15_66_cif.got.tgz:131931.got - 2010.06.03 18:47:42.
