data_PCOD9292074
_publ_section_title
;
Structure prediction by ZEFSAII (Michael W. Deem and Ramdas Pophale) SiO2 
 PCOD9292074
Probable space group: C 2/C
;
_chemical_formula_sum "Si O2"
_cell_formula_units_Z 52
_cell_length_a 29.308399
_cell_length_b 14.028763
_cell_length_c 8.791110
_cell_angle_alpha 90.000000
_cell_angle_beta 133.636053
_cell_angle_gamma 90.000000
_cell_volume 2615.992121
_symmetry_space_group_name_H-M "C 2/C"
_symmetry_group_IT_number 15
_symmetry_cell_setting 'monoclinic'
loop_
_space_group_symop_operation_xyz
x,y,z
-x,y,1/2-z
-x,-y,-z
x,-y,1/2+z
1/2+x,1/2+y,z
1/2-x,1/2+y,1/2-z
1/2-x,1/2-y,-z
1/2+x,1/2-y,1/2+z
loop_
_atom_site_type_symbol
_atom_site_label
_atom_site_fract_x
_atom_site_fract_y
_atom_site_fract_z
Si Si1 0.359969 0.420798 0.420764
Si Si2 0.500000 0.730184 0.750000
Si Si3 0.246989 0.550534 0.247275
Si Si4 0.560050 0.432666 0.594413
Si Si5 0.348132 0.972835 0.222813
Si Si6 0.100951 0.630194 0.375740
Si Si7 0.812961 0.785585 0.066516
O O1 0.289871 0.458893 0.302846
O O2 0.401628 0.404647 0.666177
O O3 0.393827 0.503919 0.402946
O O4 0.355250 0.330900 0.297600
O O5 0.461370 0.658792 0.551724
O O6 0.458773 0.800968 0.758617
O O7 0.199819 0.530326 0.278042
O O8 0.295672 0.630633 0.410199
O O9 0.200293 0.578369 0.003446
O O10 0.500000 0.500000 0.500000
O O11 0.387295 0.907360 0.426828
O O12 0.393063 0.041306 0.226043
O O13 0.156840 0.699029 0.452670
O O14 0.750000 0.750000 0.000000
#
# Coordination Sequence:
#
# PCOD9292074 Si02
#       7
#     8   4   8   8   8   8   8
#     4  12  22  38  68  97 136 178 203 257 336 396
#     4  12  26  44  68  98 124 168 238 278 300 386
#     4  11  19  38  66  99 132 169 204 255 335 402
#     4  12  23  42  65  94 135 178 213 261 327 386
#     4  10  22  43  66  89 130 174 208 266 341 383
#     4  11  25  44  67  91 127 172 225 278 317 382
#     4  12  22  37  65 102 132 163 217 265 312 394
#
# _framework density 19.877735000000001
#
# number of rings (size 3 to 8) (size 9 to 14) (size 15 to 20)
#    0.000    0.615    6.154    2.769    0.000    2.462 
#    0.000    0.000    0.000    0.000    0.000    0.000 
#    0.000    0.000    0.000    0.000    0.000    0.000 
#
# Total GULP energy -145249.914830 kJ/mol
# GULP energy per Si atom -5586.535186 kJ/mol
# Density = 1.983249 g / cm^3
# Si number density = 19.877735 Si / 1000 Ang^3
#
#
#
# Elastic Constant Matrix: (Units=GPa)
#
#
# Indices 1 2 3 4 5 6 
#
# 1 81.1644 13.2614 23.9770 0.0000 -1.6086 0.0000
# 2 13.2614 63.3980 55.1369 0.0000 -10.6517 0.0000
# 3 23.9770 55.1369 117.8762 0.0000 -33.5809 0.0000
# 4 0.0000 0.0000 0.0000 23.7435 0.0000 16.0311
# 5 -1.6086 -10.6517 -33.5809 0.0000 37.2396 0.0000
# 6 0.0000 0.0000 0.0000 16.0311 0.0000 36.0056
#
#
#
# Elastic Compliance Matrix: (Units=1/GPa)
#
#
# Indices 1 2 3 4 5 6 
#
# 1 0.013286 -0.000396 -0.003211 0.000000 -0.002435 0.000000
# 2 -0.000396 0.027272 -0.014074 0.000000 -0.004908 0.000000
# 3 -0.003211 -0.014074 0.019558 0.000000 0.013472 0.000000
# 4 0.000000 0.000000 0.000000 0.060220 0.000000 -0.026812
# 5 -0.002435 -0.004908 0.013472 0.000000 0.037492 0.000000
# 6 0.000000 0.000000 0.000000 -0.026812 0.000000 0.039711
#
#
# Mechanical properties :
#
#
# Convention : Reuss Voigt Hill
#
# Bulk Modulus (GPa) = 40.39799 49.68770 45.04285
# Shear Modulus (GPa) = 20.73386 30.73529 25.73458
#
# Velocity S-wave (km/s) = 3.23316 3.93646 3.60202
# Velocity P-wave (km/s) = 5.85706 6.76106 6.32523
#
# Compressibility (1/GPa) = 0.02475370
#
# Stress axis : x y z
#
# Youngs Moduli (GPa) = 75.26940 36.66806 51.13066
#
# Poissons Ratio (x) = 0.01450 0.16418
# Poissons Ratio (y) = 0.02977 0.71962
# Poissons Ratio (z) = 0.24169 0.51607
#
# Static dielectric constant tensor:
#      x y z
#    x 1.775170 0.000000 0.013540 
#    y 0.000000 1.716770 0.000000 
#    z 0.013540 0.000000 1.707250 
# 
# From -- ./inp_files/55297.got.cif
#   From: 2010.05.17/outbox.cif.g08.bks.cpg/sg15_28_cif.got.tgz:55297.got - 2010.06.03 18:47:42.
