data_PCOD9292577
_publ_section_title
;
Structure prediction by ZEFSAII (Michael W. Deem and Ramdas Pophale) SiO2 
 PCOD9292577
Probable space group: C 2/C
;
_chemical_formula_sum "Si O2"
_cell_formula_units_Z 52
_cell_length_a 5.668427
_cell_length_b 17.365789
_cell_length_c 25.096320
_cell_angle_alpha 90.000000
_cell_angle_beta 57.621273
_cell_angle_gamma 90.000000
_cell_volume 2086.318278
_symmetry_space_group_name_H-M "C 2/C"
_symmetry_group_IT_number 15
_symmetry_cell_setting 'monoclinic'
loop_
_space_group_symop_operation_xyz
x,y,z
-x,y,1/2-z
-x,-y,-z
x,-y,1/2+z
1/2+x,1/2+y,z
1/2-x,1/2+y,1/2-z
1/2-x,1/2-y,-z
1/2+x,1/2-y,1/2+z
loop_
_atom_site_type_symbol
_atom_site_label
_atom_site_fract_x
_atom_site_fract_y
_atom_site_fract_z
Si Si1 0.500000 0.186345 0.750000
Si Si2 0.677139 0.932671 0.004834
Si Si3 0.882914 0.289790 0.078763
Si Si4 0.498233 0.591886 0.677443
Si Si5 0.715705 0.501789 0.392799
Si Si6 0.295987 0.777034 0.615679
Si Si7 0.232065 0.927647 0.682677
O O1 0.641399 0.234982 0.685179
O O2 0.744155 0.128971 0.740467
O O3 0.525848 0.851012 0.021778
O O4 0.694243 0.958783 0.064256
O O5 0.978253 0.939712 0.941493
O O6 0.500000 0.000000 0.000000
O O7 0.724055 0.342970 0.141018
O O8 0.626655 0.244648 0.081129
O O9 0.123789 0.247801 0.084000
O O10 0.385019 0.566385 0.633015
O O11 0.611233 0.510599 0.682632
O O12 0.958046 0.551174 0.334934
O O13 0.270509 0.867986 0.630232
O O14 0.000000 0.893770 0.750000
#
# Coordination Sequence:
#
# PCOD9292577 Si02
#       7
#     4   8   8   8   8   8   8
#     4  10  22  44  64 102 130 198 228 298 338 436
#     4  11  21  41  75 106 137 181 243 316 360 421
#     4  11  24  45  72 103 137 189 236 306 349 436
#     4  11  23  40  71  99 140 175 255 291 355 418
#     4  11  23  41  69 108 140 179 243 304 368 420
#     4  11  27  46  67 101 153 186 241 282 381 428
#     4  12  26  45  67 105 143 199 230 304 356 448
#
# _framework density 24.924287
#
# number of rings (size 3 to 8) (size 9 to 14) (size 15 to 20)
#    0.000    0.923    3.846    2.769    6.462    1.846 
#    0.000    1.538    0.000    0.000    0.000    0.000 
#    0.000    0.000    0.000    0.000    0.000    0.000 
#
# Total GULP energy -145536.813644 kJ/mol
# GULP energy per Si atom -5597.569756 kJ/mol
# Density = 2.486756 g / cm^3
# Si number density = 24.924287 Si / 1000 Ang^3
#
#
#
# Elastic Constant Matrix: (Units=GPa)
#
#
# Indices 1 2 3 4 5 6 
#
# 1 138.2886 43.7639 45.9552 0.0000 -15.1938 0.0000
# 2 43.7639 116.5558 22.8771 0.0000 -16.0488 0.0000
# 3 45.9552 22.8771 94.8283 0.0000 -20.4037 0.0000
# 4 0.0000 0.0000 0.0000 38.7041 0.0000 18.2444
# 5 -15.1938 -16.0488 -20.4037 0.0000 49.4736 0.0000
# 6 0.0000 0.0000 0.0000 18.2444 0.0000 6.9582
#
#
#
# Elastic Compliance Matrix: (Units=1/GPa)
#
#
# Indices 1 2 3 4 5 6 
#
# 1 0.009407 -0.002725 -0.003808 0.000000 0.000435 0.000000
# 2 -0.002725 0.010024 -0.000634 0.000000 0.002153 0.000000
# 3 -0.003808 -0.000634 0.013441 0.000000 0.004168 0.000000
# 4 0.000000 0.000000 0.000000 -0.109503 0.000000 0.287115
# 5 0.000435 0.002153 0.004168 0.000000 0.022764 0.000000
# 6 0.000000 0.000000 0.000000 0.287115 0.000000 -0.609093
#
#
# Mechanical properties :
#
#
# Convention : Reuss Voigt Hill
#
# Bulk Modulus (GPa) = 53.94641 63.87389 58.91015
# Shear Modulus (GPa) = -7.78272 34.83228 13.52478
#
# Velocity S-wave (km/s) = -1.76899 3.74240 2.33198
# Velocity P-wave (km/s) = 4.18553 6.66010 5.56217
#
# Compressibility (1/GPa) = 0.01853691
#
# Stress axis : x y z
#
# Youngs Moduli (GPa) = 106.30744 99.76398 74.40187
#
# Poissons Ratio (x) = 0.27183 0.28330
# Poissons Ratio (y) = 0.28966 0.04720
# Poissons Ratio (z) = 0.40479 0.06329
#
# Static dielectric constant tensor:
#      x y z
#    x 2.017790 0.000000 0.000100 
#    y 0.000000 1.937830 0.000000 
#    z 0.000100 0.000000 2.022630 
# 
# From -- ./inp_files/285993.got.cif
#   From: 2010.05.17/outbox.cif.g08.bks.cpg/sg15_143_cif.got.tgz:285993.got - 2010.06.03 18:47:42.
