data_PCOD9292760
_publ_section_title
;
Structure prediction by ZEFSAII (Michael W. Deem and Ramdas Pophale) SiO2 
 PCOD9292760
Probable space group: C 2/C
;
_chemical_formula_sum "Si O2"
_cell_formula_units_Z 44
_cell_length_a 11.491263
_cell_length_b 15.610368
_cell_length_c 27.538442
_cell_angle_alpha 90.000000
_cell_angle_beta 154.786568
_cell_angle_gamma 90.000000
_cell_volume 2104.365167
_symmetry_space_group_name_H-M "C 2/C"
_symmetry_group_IT_number 15
_symmetry_cell_setting 'monoclinic'
loop_
_space_group_symop_operation_xyz
x,y,z
-x,y,1/2-z
-x,-y,-z
x,-y,1/2+z
1/2+x,1/2+y,z
1/2-x,1/2+y,1/2-z
1/2-x,1/2-y,-z
1/2+x,1/2-y,1/2+z
loop_
_atom_site_type_symbol
_atom_site_label
_atom_site_fract_x
_atom_site_fract_y
_atom_site_fract_z
Si Si1 0.481373 0.655230 0.549547
Si Si2 0.809920 0.244026 0.383854
Si Si3 0.135789 0.411995 0.537116
Si Si4 0.500000 0.967971 0.250000
Si Si5 0.909356 0.659646 0.376360
Si Si6 0.344524 0.599633 0.319124
O O1 0.352266 0.692580 0.450609
O O2 0.733226 0.589874 0.635734
O O3 0.223008 0.628354 0.485273
O O4 0.596514 0.738010 0.620751
O O5 0.500000 0.260788 0.250000
O O6 0.904390 0.176993 0.378670
O O7 0.961487 0.334503 0.447487
O O8 0.366937 0.438558 0.586391
O O9 0.000000 0.500000 0.500000
O O10 0.210064 0.374728 0.618370
O O11 0.625100 0.032659 0.257148
O O12 0.758357 0.634740 0.270754
#
# Coordination Sequence:
#
# PCOD9292760 Si02
#       6
#     8   8   8   4   8   8
#     4  10  23  43  71 102 139 185 234 286 357 420
#     4  11  23  47  73 101 142 190 236 292 355 425
#     4  11  26  44  66 102 140 187 235 289 357 426
#     4  12  26  42  74 108 142 186 242 302 342 416
#     4  10  22  44  67  96 142 182 233 283 357 425
#     4  12  24  45  68 106 139 181 237 293 359 415
#
# _framework density 20.908916999999999
#
# number of rings (size 3 to 8) (size 9 to 14) (size 15 to 20)
#    0.000    1.091    2.727    2.182    5.091    5.818 
#    3.273    0.000    0.000    0.000    0.000    0.000 
#    0.000    0.000    0.000    0.000    0.000    0.000 
#
# Total GULP energy -122688.460669 kJ/mol
# GULP energy per Si atom -5576.748212 kJ/mol
# Density = 2.086133 g / cm^3
# Si number density = 20.908917 Si / 1000 Ang^3
#
#
#
# Elastic Constant Matrix: (Units=GPa)
#
#
# Indices 1 2 3 4 5 6 
#
# 1 135.5815 64.6558 42.5503 -0.0012 28.3062 -0.0007
# 2 64.6558 121.1296 57.0754 -0.0009 2.8549 -0.0006
# 3 42.5503 57.0754 81.0867 -0.0086 -5.2894 -0.0036
# 4 -0.0012 -0.0009 -0.0086 13.2492 0.0005 2.6329
# 5 28.3062 2.8549 -5.2894 0.0005 29.8478 -0.0009
# 6 -0.0007 -0.0006 -0.0036 2.6329 -0.0009 29.4822
#
#
#
# Elastic Compliance Matrix: (Units=1/GPa)
#
#
# Indices 1 2 3 4 5 6 
#
# 1 0.014124 -0.004935 -0.004837 -0.000002 -0.013779 -0.000001
# 2 -0.004935 0.014305 -0.007348 -0.000004 0.002010 0.000000
# 3 -0.004837 -0.007348 0.020626 0.000012 0.008945 0.000001
# 4 -0.000002 -0.000004 0.000012 0.076840 0.000002 -0.006862
# 5 -0.013779 0.002010 0.008945 0.000002 0.047964 0.000002
# 6 -0.000001 0.000000 0.000001 -0.006862 0.000002 0.034532
#
#
# Mechanical properties :
#
#
# Convention : Reuss Voigt Hill
#
# Bulk Modulus (GPa) = 67.49838 74.04009 70.76923
# Shear Modulus (GPa) = 20.19645 26.08360 23.14002
#
# Velocity S-wave (km/s) = 3.11131 3.53581 3.33033
# Velocity P-wave (km/s) = 6.72749 7.22197 6.97911
#
# Compressibility (1/GPa) = 0.01481517
#
# Stress axis : x y z
#
# Youngs Moduli (GPa) = 70.80238 69.90609 48.48223
#
# Poissons Ratio (x) = 0.34500 0.23449
# Poissons Ratio (y) = 0.34943 0.35625
# Poissons Ratio (z) = 0.34244 0.51368
#
# Static dielectric constant tensor:
#      x y z
#    x 1.772160 0.000000 0.066640 
#    y 0.000000 1.576360 0.000000 
#    z 0.066640 0.000000 1.785120 
# 
# From -- ./inp_files/292955.got.cif
#   From: 2010.05.17/outbox.cif.g08.bks.cpg/sg15_147_cif.got.tgz:292955.got - 2010.06.03 18:47:42.
