data_PCOD9292806
_publ_section_title
;
Structure prediction by ZEFSAII (Michael W. Deem and Ramdas Pophale) SiO2 
 PCOD9292806
Probable space group: C 2/C
;
_chemical_formula_sum "Si O2"
_cell_formula_units_Z 52
_cell_length_a 9.198512
_cell_length_b 16.491720
_cell_length_c 19.940616
_cell_angle_alpha 90.000000
_cell_angle_beta 123.356685
_cell_angle_gamma 90.000000
_cell_volume 2526.653877
_symmetry_space_group_name_H-M "C 2/C"
_symmetry_group_IT_number 15
_symmetry_cell_setting 'monoclinic'
loop_
_space_group_symop_operation_xyz
x,y,z
-x,y,1/2-z
-x,-y,-z
x,-y,1/2+z
1/2+x,1/2+y,z
1/2-x,1/2+y,1/2-z
1/2-x,1/2-y,-z
1/2+x,1/2-y,1/2+z
loop_
_atom_site_type_symbol
_atom_site_label
_atom_site_fract_x
_atom_site_fract_y
_atom_site_fract_z
Si Si1 0.186984 0.474618 0.524871
Si Si2 0.857595 0.071034 0.468927
Si Si3 0.045161 0.025846 0.688440
Si Si4 0.451875 0.679383 0.879163
Si Si5 0.225542 0.790532 0.921104
Si Si6 0.153444 0.144070 0.181328
Si Si7 0.500000 0.756270 0.750000
O O1 0.198947 0.516974 0.454875
O O2 0.359480 0.509455 0.605422
O O3 0.203450 0.380092 0.544779
O O4 0.000000 0.500000 0.500000
O O5 0.849977 0.110806 0.395141
O O6 0.909034 0.143746 0.532398
O O7 0.000000 0.000000 0.500000
O O8 0.000000 0.057348 0.750000
O O9 0.141387 0.939582 0.720094
O O10 0.141093 0.095892 0.670414
O O11 0.329280 0.741450 0.889406
O O12 0.537137 0.712568 0.831612
O O13 0.021147 0.803170 0.851079
O O14 0.250000 0.750000 0.000000
O O15 0.330634 0.193192 0.229656
#
# Coordination Sequence:
#
# PCOD9292806 Si02
#       7
#     8   8   8   8   8   8   4
#     4  10  23  37  65  95 124 165 218 267 326 393
#     4  11  19  44  71  94 124 176 227 278 319 395
#     4  10  22  44  68  87 133 183 216 266 334 405
#     4  11  23  43  66  97 133 168 223 280 338 389
#     4  11  22  41  68  97 126 164 220 280 333 380
#     4  11  25  43  68  95 134 179 222 270 340 404
#     4  12  30  42  60 104 142 178 214 274 350 406
#
# _framework density 20.580579
#
# number of rings (size 3 to 8) (size 9 to 14) (size 15 to 20)
#    0.000    1.231    6.923    0.000    6.462    3.077 
#    0.000    1.538    3.385    0.000    0.000    0.000 
#    0.000    0.000    0.000    0.000    0.000    0.000 
#
# Total GULP energy -144762.086356 kJ/mol
# GULP energy per Si atom -5567.772552 kJ/mol
# Density = 2.053374 g / cm^3
# Si number density = 20.580579 Si / 1000 Ang^3
#
#
#
# Elastic Constant Matrix: (Units=GPa)
#
#
# Indices 1 2 3 4 5 6 
#
# 1 137.5703 64.0458 11.8315 0.0000 -9.7212 0.0000
# 2 64.0458 114.7633 30.0601 0.0000 0.6466 0.0000
# 3 11.8315 30.0601 37.4994 0.0000 -22.6402 0.0000
# 4 0.0000 0.0000 0.0000 19.9926 0.0000 -20.8139
# 5 -9.7212 0.6466 -22.6402 0.0000 42.9952 0.0000
# 6 0.0000 0.0000 0.0000 -20.8139 0.0000 41.0826
#
#
#
# Elastic Compliance Matrix: (Units=1/GPa)
#
#
# Indices 1 2 3 4 5 6 
#
# 1 0.010705 -0.007654 0.006288 0.000000 0.005846 0.000000
# 2 -0.007654 0.018192 -0.019613 0.000000 -0.012332 0.000000
# 3 0.006288 -0.019613 0.060758 0.000000 0.033710 0.000000
# 4 0.000000 0.000000 0.000000 0.105847 0.000000 0.053626
# 5 0.005846 -0.012332 0.033710 0.000000 0.042517 0.000000
# 6 0.000000 0.000000 0.000000 0.053626 0.000000 0.051510
#
#
# Mechanical properties :
#
#
# Convention : Reuss Voigt Hill
#
# Bulk Modulus (GPa) = 20.96631 55.74533 38.35582
# Shear Modulus (GPa) = 14.39322 33.07380 23.73351
#
# Velocity S-wave (km/s) = 2.64741 4.01314 3.39956
# Velocity P-wave (km/s) = 4.42206 6.97272 5.83838
#
# Compressibility (1/GPa) = 0.04769556
#
# Stress axis : x y z
#
# Youngs Moduli (GPa) = 93.41802 54.97004 16.45870
#
# Poissons Ratio (x) = 0.42073 -0.10349
# Poissons Ratio (y) = 0.71500 0.32281
# Poissons Ratio (z) = -0.58738 1.07815
#
# Static dielectric constant tensor:
#      x y z
#    x 1.682930 0.000000 -0.086050 
#    y 0.000000 1.819360 0.000000 
#    z -0.086050 0.000000 1.916800 
# 
# From -- ./inp_files/264442.got.cif
#   From: 2010.05.17/outbox.cif.g08.bks.cpg/sg15_133_cif.got.tgz:264442.got - 2010.06.03 18:47:42.
