data_PCOD9292333
_publ_section_title
;
Structure prediction by ZEFSAII (Michael W. Deem and Ramdas Pophale) SiO2 
 PCOD9292333
Probable space group: C 2/C
;
_chemical_formula_sum "Si O2"
_cell_formula_units_Z 48
_cell_length_a 10.691372
_cell_length_b 10.763563
_cell_length_c 24.074144
_cell_angle_alpha 90.000000
_cell_angle_beta 134.124318
_cell_angle_gamma 90.000000
_cell_volume 1988.668897
_symmetry_space_group_name_H-M "C 2/C"
_symmetry_group_IT_number 15
_symmetry_cell_setting 'monoclinic'
loop_
_space_group_symop_operation_xyz
x,y,z
-x,y,1/2-z
-x,-y,-z
x,-y,1/2+z
1/2+x,1/2+y,z
1/2-x,1/2+y,1/2-z
1/2-x,1/2-y,-z
1/2+x,1/2-y,1/2+z
loop_
_atom_site_type_symbol
_atom_site_label
_atom_site_fract_x
_atom_site_fract_y
_atom_site_fract_z
Si Si1 0.454044 0.627774 0.653879
Si Si2 0.116209 0.489626 0.090551
Si Si3 0.115052 0.772463 0.098239
Si Si4 0.453506 0.733996 0.051686
Si Si5 0.000000 0.738090 0.750000
Si Si6 0.000000 0.341223 0.750000
Si Si7 0.843174 0.914100 0.797199
O O1 0.306473 0.532582 0.624804
O O2 0.483307 0.661790 0.599499
O O3 0.419796 0.748435 0.679456
O O4 0.628692 0.549963 0.720910
O O5 0.111493 0.626186 0.114993
O O6 0.048549 0.363624 0.098141
O O7 0.000000 0.500000 0.000000
O O8 0.317975 0.818328 0.167660
O O9 0.041857 0.784008 0.013407
O O10 0.537126 0.622050 0.112435
O O11 0.250000 0.750000 0.000000
O O12 0.913232 0.816799 0.773364
O O13 0.850068 0.408516 0.737816
#
# Coordination Sequence:
#
# PCOD9292333 Si02
#       7
#     8   8   8   8   4   4   8
#     4  12  25  45  73 102 143 186 239 295 357 428
#     4  10  22  43  69  98 139 187 228 287 356 426
#     4  11  25  43  73 103 136 191 236 288 363 422
#     4  11  22  44  70 104 142 184 237 298 352 421
#     4  12  21  45  72  98 140 187 239 284 354 432
#     4  12  27  47  68 108 146 191 237 304 356 426
#     4  12  25  46  72 105 145 187 243 293 364 425
#
# _framework density 24.136747
#
# number of rings (size 3 to 8) (size 9 to 14) (size 15 to 20)
#    0.000    0.667    6.667    1.500    0.000    4.000 
#    3.000    0.000    0.000    0.000    0.000    0.000 
#    0.000    0.000    0.000    0.000    0.000    0.000 
#
# Total GULP energy -134038.055238 kJ/mol
# GULP energy per Si atom -5584.918968 kJ/mol
# Density = 2.408181 g / cm^3
# Si number density = 24.136747 Si / 1000 Ang^3
#
#
#
# Elastic Constant Matrix: (Units=GPa)
#
#
# Indices 1 2 3 4 5 6 
#
# 1 144.5468 27.7752 13.2363 0.0000 -6.7379 0.0000
# 2 27.7752 76.7995 1.3554 0.0000 4.1820 0.0000
# 3 13.2363 1.3554 89.7259 0.0000 -11.0534 0.0000
# 4 0.0000 0.0000 0.0000 27.1595 0.0000 6.0266
# 5 -6.7379 4.1820 -11.0534 0.0000 47.5329 0.0000
# 6 0.0000 0.0000 0.0000 6.0266 0.0000 15.0560
#
#
#
# Elastic Compliance Matrix: (Units=1/GPa)
#
#
# Indices 1 2 3 4 5 6 
#
# 1 0.007592 -0.002789 -0.000942 0.000000 0.001102 0.000000
# 2 -0.002789 0.014119 -0.000004 0.000000 -0.001638 0.000000
# 3 -0.000942 -0.000004 0.011600 0.000000 0.002564 0.000000
# 4 0.000000 0.000000 0.000000 0.040409 0.000000 -0.016175
# 5 0.001102 -0.001638 0.002564 0.000000 0.021935 0.000000
# 6 0.000000 0.000000 0.000000 -0.016175 0.000000 0.072893
#
#
# Mechanical properties :
#
#
# Convention : Reuss Voigt Hill
#
# Bulk Modulus (GPa) = 38.69789 43.97844 41.33816
# Shear Modulus (GPa) = 27.08118 35.86338 31.47228
#
# Velocity S-wave (km/s) = 3.35325 3.85884 3.61489
# Velocity P-wave (km/s) = 5.57314 6.17368 5.88108
#
# Compressibility (1/GPa) = 0.02584120
#
# Stress axis : x y z
#
# Youngs Moduli (GPa) = 131.72204 70.82722 86.20717
#
# Poissons Ratio (x) = 0.19754 0.08121
# Poissons Ratio (y) = 0.36738 0.00032
# Poissons Ratio (z) = 0.12408 0.00026
#
# Static dielectric constant tensor:
#      x y z
#    x 1.892140 0.000000 0.021270 
#    y 0.000000 2.077850 0.000000 
#    z 0.021270 0.000000 1.969480 
# 
# From -- ./inp_files/287787.got.cif
#   From: 2010.05.17/outbox.cif.g08.bks.cpg/sg15_144_cif.got.tgz:287787.got - 2010.06.03 18:47:42.
