data_PCOD9292576
_publ_section_title
;
Structure prediction by ZEFSAII (Michael W. Deem and Ramdas Pophale) SiO2 
 PCOD9292576
Probable space group: C 2/C
;
_chemical_formula_sum "Si O2"
_cell_formula_units_Z 64
_cell_length_a 25.023671
_cell_length_b 16.917817
_cell_length_c 14.977750
_cell_angle_alpha 90.000000
_cell_angle_beta 151.066137
_cell_angle_gamma 90.000000
_cell_volume 3067.662174
_symmetry_space_group_name_H-M "C 2/C"
_symmetry_group_IT_number 15
_symmetry_cell_setting 'monoclinic'
loop_
_space_group_symop_operation_xyz
x,y,z
-x,y,1/2-z
-x,-y,-z
x,-y,1/2+z
1/2+x,1/2+y,z
1/2-x,1/2+y,1/2-z
1/2-x,1/2-y,-z
1/2+x,1/2-y,1/2+z
loop_
_atom_site_type_symbol
_atom_site_label
_atom_site_fract_x
_atom_site_fract_y
_atom_site_fract_z
Si Si1 0.347416 0.218531 0.340727
Si Si2 0.315885 0.827273 0.319675
Si Si3 0.127087 0.132170 0.405567
Si Si4 0.370276 0.454246 0.070293
Si Si5 0.122110 0.450178 0.949613
Si Si6 0.787569 0.661006 0.072173
Si Si7 0.227707 0.088126 0.266380
Si Si8 0.578199 0.296474 0.654872
O O1 0.234197 0.269453 0.177601
O O2 0.357231 0.167632 0.265227
O O3 0.320395 0.156266 0.380701
O O4 0.450346 0.278655 0.491483
O O5 0.372801 0.900779 0.450432
O O6 0.388359 0.777783 0.356736
O O7 0.208779 0.849185 0.105237
O O8 0.138600 0.189513 0.337808
O O9 0.000000 0.136707 0.250000
O O10 0.149979 0.040521 0.417819
O O11 0.500000 0.443516 0.250000
O O12 0.320481 0.388708 0.061355
O O13 0.314240 0.444976 0.890622
O O14 0.151119 0.386958 0.915004
O O15 0.000000 0.481713 0.750000
O O16 0.212744 0.519048 0.091594
O O17 0.750000 0.750000 0.000000
O O18 0.122914 0.128805 0.162456
#
# Coordination Sequence:
#
# PCOD9292576 Si02
#       8
#     8   8   8   8   8   8   8   8
#     4  10  22  44  64 101 133 168 220 276 325 385
#     4  11  22  42  65  95 134 169 220 272 314 396
#     4  11  21  41  65  94 134 171 212 274 327 384
#     4  10  23  41  66  99 132 172 215 269 336 383
#     4  12  25  46  67  96 135 179 220 268 338 392
#     4  11  23  40  66  98 134 171 224 270 317 397
#     4  10  24  45  67  95 138 171 221 274 323 406
#     4  11  23  41  69  96 127 177 219 264 336 376
#
# _framework density 20.862793
#
# number of rings (size 3 to 8) (size 9 to 14) (size 15 to 20)
#    0.000    1.250    3.750    1.875    1.750    0.500 
#    9.000    4.375    0.000    0.000    0.000    0.000 
#    0.000    0.000    0.000    0.000    0.000    0.000 
#
# Total GULP energy -178479.583106 kJ/mol
# GULP energy per Si atom -5577.486972 kJ/mol
# Density = 2.081531 g / cm^3
# Si number density = 20.862793 Si / 1000 Ang^3
#
#
#
# Elastic Constant Matrix: (Units=GPa)
#
#
# Indices 1 2 3 4 5 6 
#
# 1 79.0756 33.7414 27.5415 0.0000 0.3901 0.0000
# 2 33.7414 73.3742 13.3289 0.0000 14.4029 0.0000
# 3 27.5415 13.3289 69.3110 0.0000 6.7779 0.0000
# 4 0.0000 0.0000 0.0000 29.1336 0.0000 6.7981
# 5 0.3901 14.4029 6.7779 0.0000 27.1081 0.0000
# 6 0.0000 0.0000 0.0000 6.7981 0.0000 16.9307
#
#
#
# Elastic Compliance Matrix: (Units=1/GPa)
#
#
# Indices 1 2 3 4 5 6 
#
# 1 0.018409 -0.008467 -0.006253 0.000000 0.005797 0.000000
# 2 -0.008467 0.019441 0.000640 0.000000 -0.010368 0.000000
# 3 -0.006253 0.000640 0.017235 0.000000 -0.004559 0.000000
# 4 0.000000 0.000000 0.000000 0.037873 0.000000 -0.015207
# 5 0.005797 -0.010368 -0.004559 0.000000 0.043454 0.000000
# 6 0.000000 0.000000 0.000000 -0.015207 0.000000 0.065170
#
#
# Mechanical properties :
#
#
# Convention : Reuss Voigt Hill
#
# Bulk Modulus (GPa) = 37.14253 41.22049 39.18151
# Shear Modulus (GPa) = 20.94508 24.44441 22.69474
#
# Velocity S-wave (km/s) = 3.17195 3.42669 3.30177
# Velocity P-wave (km/s) = 5.59078 5.95458 5.77555
#
# Compressibility (1/GPa) = 0.02692331
#
# Stress axis : x y z
#
# Youngs Moduli (GPa) = 54.32258 51.43674 58.02001
#
# Poissons Ratio (x) = 0.43553 0.36283
# Poissons Ratio (y) = 0.45996 -0.03712
# Poissons Ratio (z) = 0.33970 -0.03291
#
# Static dielectric constant tensor:
#      x y z
#    x 1.784770 0.000000 -0.021180 
#    y 0.000000 1.776880 0.000000 
#    z -0.021180 0.000000 1.750500 
# 
# From -- ./inp_files/174266.got.cif
#   From: 2010.05.17/outbox.cif.g08.bks.cpg/sg15_88_cif.got.tgz:174266.got - 2010.06.03 18:47:42.
