data_PCOD9292459
_publ_section_title
;
Structure prediction by ZEFSAII (Michael W. Deem and Ramdas Pophale) SiO2 
 PCOD9292459
Probable space group: C 2/C
;
_chemical_formula_sum "Si O2"
_cell_formula_units_Z 32
_cell_length_a 12.380166
_cell_length_b 20.458403
_cell_length_c 9.880726
_cell_angle_alpha 90.000000
_cell_angle_beta 150.170912
_cell_angle_gamma 90.000000
_cell_volume 1244.816817
_symmetry_space_group_name_H-M "C 2/C"
_symmetry_group_IT_number 15
_symmetry_cell_setting 'monoclinic'
loop_
_space_group_symop_operation_xyz
x,y,z
-x,y,1/2-z
-x,-y,-z
x,-y,1/2+z
1/2+x,1/2+y,z
1/2-x,1/2+y,1/2-z
1/2-x,1/2-y,-z
1/2+x,1/2-y,1/2+z
loop_
_atom_site_type_symbol
_atom_site_label
_atom_site_fract_x
_atom_site_fract_y
_atom_site_fract_z
Si Si1 0.080153 0.403609 0.017395
Si Si2 0.801663 0.189884 0.457786
Si Si3 0.003904 0.160683 0.111726
Si Si4 0.281169 0.472486 0.690431
O O1 0.915628 0.350617 0.784287
O O2 0.273594 0.365662 0.305184
O O3 0.187653 0.458518 0.036124
O O4 0.917675 0.443126 0.939533
O O5 0.750000 0.250000 0.500000
O O6 0.883216 0.198454 0.391495
O O7 0.000000 0.153936 0.750000
O O8 0.141117 0.094185 0.294780
O O9 0.000000 0.198099 0.250000
O O10 0.500000 0.500000 0.000000
#
# Coordination Sequence:
#
# PCOD9292459 Si02
#       4
#     8   8   8   8
#     4   9  19  40  69  99 145 195 237 305 366 447
#     4  11  27  46  72 101 141 196 259 316 371 450
#     4  10  22  43  72 107 145 189 246 310 378 455
#     4   8  16  36  63 104 148 191 234 290 374 459
#
# _framework density 25.706593999999999
#
# number of rings (size 3 to 8) (size 9 to 14) (size 15 to 20)
#    0.000    2.500    0.000    0.000    3.500    4.000 
#    0.000   58.750    0.000    0.000    0.000    0.000 
#    0.000    0.000    0.000    0.000    0.000    0.000 
#
# Total GULP energy -89229.354212 kJ/mol
# GULP energy per Si atom -5576.834638 kJ/mol
# Density = 2.564808 g / cm^3
# Si number density = 25.706594 Si / 1000 Ang^3
#
#
#
# Elastic Constant Matrix: (Units=GPa)
#
#
# Indices 1 2 3 4 5 6 
#
# 1 193.1112 58.1683 53.3162 0.0000 -7.0962 0.0000
# 2 58.1683 129.4834 64.8661 0.0000 2.2318 0.0000
# 3 53.3162 64.8661 169.0339 0.0000 15.6523 0.0000
# 4 0.0000 0.0000 0.0000 38.3705 0.0000 14.5575
# 5 -7.0962 2.2318 15.6523 0.0000 46.2699 0.0000
# 6 0.0000 0.0000 0.0000 14.5575 0.0000 31.4531
#
#
#
# Elastic Compliance Matrix: (Units=1/GPa)
#
#
# Indices 1 2 3 4 5 6 
#
# 1 0.006244 -0.002197 -0.001264 0.000000 0.001491 0.000000
# 2 -0.002197 0.010363 -0.003310 0.000000 0.000283 0.000000
# 3 -0.001264 -0.003310 0.007834 0.000000 -0.002684 0.000000
# 4 0.000000 0.000000 0.000000 0.031613 0.000000 -0.014631
# 5 0.001491 0.000283 -0.002684 0.000000 0.022735 0.000000
# 6 0.000000 0.000000 0.000000 -0.014631 0.000000 0.038565
#
#
# Mechanical properties :
#
#
# Convention : Reuss Voigt Hill
#
# Bulk Modulus (GPa) = 91.76360 93.81441 92.78900
# Shear Modulus (GPa) = 37.16623 44.23722 40.70172
#
# Velocity S-wave (km/s) = 3.80647 4.15281 3.98341
# Velocity P-wave (km/s) = 7.42247 7.71803 7.57169
#
# Compressibility (1/GPa) = 0.01089757
#
# Stress axis : x y z
#
# Youngs Moduli (GPa) = 160.15040 96.49286 127.65618
#
# Poissons Ratio (x) = 0.21203 0.16140
# Poissons Ratio (y) = 0.35191 0.42255
# Poissons Ratio (z) = 0.20249 0.31939
#
# Static dielectric constant tensor:
#      x y z
#    x 2.081150 0.000000 -0.014460 
#    y 0.000000 2.093170 0.000000 
#    z -0.014460 0.000000 2.046690 
# 
# From -- ./inp_files/24731.got.cif
#   From: 2010.05.17/outbox.cif.g08.bks.cpg/sg15_13_cif.got.tgz:24731.got - 2010.06.03 18:47:42.
