data_PCOD9292001
_publ_section_title
;
Structure prediction by ZEFSAII (Michael W. Deem and Ramdas Pophale) SiO2 
 PCOD9292001
Probable space group: C 2/C
;
_chemical_formula_sum "Si O2"
_cell_formula_units_Z 40
_cell_length_a 11.852691
_cell_length_b 31.106075
_cell_length_c 5.216582
_cell_angle_alpha 90.000000
_cell_angle_beta 73.778977
_cell_angle_gamma 90.000000
_cell_volume 1846.740873
_symmetry_space_group_name_H-M "C 2/C"
_symmetry_group_IT_number 15
_symmetry_cell_setting 'monoclinic'
loop_
_space_group_symop_operation_xyz
x,y,z
-x,y,1/2-z
-x,-y,-z
x,-y,1/2+z
1/2+x,1/2+y,z
1/2-x,1/2+y,1/2-z
1/2-x,1/2-y,-z
1/2+x,1/2-y,1/2+z
loop_
_atom_site_type_symbol
_atom_site_label
_atom_site_fract_x
_atom_site_fract_y
_atom_site_fract_z
Si Si1 0.692650 0.115754 0.812532
Si Si2 0.920882 0.151948 0.549232
Si Si3 0.132998 0.480842 0.421278
Si Si4 0.637038 0.744061 0.762470
Si Si5 0.382063 0.839104 0.651632
O O1 0.824376 0.114798 0.620905
O O2 0.635537 0.070300 0.917475
O O3 0.624490 0.135679 0.610771
O O4 0.704244 0.142928 0.071230
O O5 0.855070 0.198574 0.598792
O O6 0.000000 0.149307 0.750000
O O7 0.000000 0.150717 0.250000
O O8 0.191707 0.500261 0.632939
O O9 0.000000 0.500000 0.500000
O O10 0.500000 0.742754 0.750000
O O11 0.750000 0.750000 0.500000
O O12 0.636547 0.789382 0.908603
O O13 0.500000 0.842918 0.750000
#
# Coordination Sequence:
#
# PCOD9292001 Si02
#       5
#     8   8   8   8   8
#     4  12  24  42  69  96 134 178 229 276 354 413
#     4  11  25  44  69  95 135 187 238 290 333 410
#     4  10  23  40  64  95 132 171 204 273 352 429
#     4  10  22  43  64  99 144 191 237 291 350 396
#     4  11  25  38  63  99 140 180 227 282 332 413
#
# _framework density 21.659779
#
# number of rings (size 3 to 8) (size 9 to 14) (size 15 to 20)
#    0.000    1.200    2.000    3.000   11.200    5.600 
#    0.000    0.000    0.000    3.600    0.000    0.000 
#    0.000    0.000    0.000    0.000    0.000    0.000 
#
# Total GULP energy -111513.230221 kJ/mol
# GULP energy per Si atom -5575.661511 kJ/mol
# Density = 2.161048 g / cm^3
# Si number density = 21.659779 Si / 1000 Ang^3
#
#
#
# Elastic Constant Matrix: (Units=GPa)
#
#
# Indices 1 2 3 4 5 6 
#
# 1 104.6934 5.7846 20.9874 0.0000 -6.7979 0.0000
# 2 5.7846 94.3215 -6.5726 0.0000 1.0796 0.0000
# 3 20.9874 -6.5726 99.6216 0.0000 6.2991 0.0000
# 4 0.0000 0.0000 0.0000 27.9080 0.0000 -15.0925
# 5 -6.7979 1.0796 6.2991 0.0000 49.7062 0.0000
# 6 0.0000 0.0000 0.0000 -15.0925 0.0000 13.5911
#
#
#
# Elastic Compliance Matrix: (Units=1/GPa)
#
#
# Indices 1 2 3 4 5 6 
#
# 1 0.010168 -0.000803 -0.002303 0.000000 0.001700 0.000000
# 2 -0.000803 0.010720 0.000905 0.000000 -0.000457 0.000000
# 3 -0.002303 0.000905 0.010690 0.000000 -0.001689 0.000000
# 4 0.000000 0.000000 0.000000 0.089700 0.000000 0.099609
# 5 0.001700 -0.000457 -0.001689 0.000000 0.020575 0.000000
# 6 0.000000 0.000000 0.000000 0.099609 0.000000 0.184190
#
#
# Mechanical properties :
#
#
# Convention : Reuss Voigt Hill
#
# Bulk Modulus (GPa) = 36.79719 37.67058 37.23389
# Shear Modulus (GPa) = 14.72745 36.80354 25.76550
#
# Velocity S-wave (km/s) = 2.61040 4.12656 3.45273
# Velocity P-wave (km/s) = 5.10991 6.33517 5.75524
#
# Compressibility (1/GPa) = 0.02717599
#
# Stress axis : x y z
#
# Youngs Moduli (GPa) = 98.34712 93.28666 93.54864
#
# Poissons Ratio (x) = 0.07496 0.21541
# Poissons Ratio (y) = 0.07902 -0.08470
# Poissons Ratio (z) = 0.22646 -0.08447
#
# Static dielectric constant tensor:
#      x y z
#    x 1.917010 0.000000 -0.065780 
#    y 0.000000 1.797220 0.000000 
#    z -0.065780 0.000000 1.858890 
# 
# From -- ./inp_files/5701.got.cif
#   From: 2010.05.17/outbox.cif.g08.bks.cpg/sg15_3_cif.got.tgz:5701.got - 2010.06.03 18:47:42.
