data_PCOD9292281
_publ_section_title
;
Structure prediction by ZEFSAII (Michael W. Deem and Ramdas Pophale) SiO2 
 PCOD9292281
Probable space group: C 2/C
;
_chemical_formula_sum "Si O2"
_cell_formula_units_Z 48
_cell_length_a 28.286068
_cell_length_b 16.343440
_cell_length_c 13.347111
_cell_angle_alpha 90.000000
_cell_angle_beta 159.883282
_cell_angle_gamma 90.000000
_cell_volume 2122.159632
_symmetry_space_group_name_H-M "C 2/C"
_symmetry_group_IT_number 15
_symmetry_cell_setting 'monoclinic'
loop_
_space_group_symop_operation_xyz
x,y,z
-x,y,1/2-z
-x,-y,-z
x,-y,1/2+z
1/2+x,1/2+y,z
1/2-x,1/2+y,1/2-z
1/2-x,1/2-y,-z
1/2+x,1/2-y,1/2+z
loop_
_atom_site_type_symbol
_atom_site_label
_atom_site_fract_x
_atom_site_fract_y
_atom_site_fract_z
Si Si1 0.310246 0.184817 0.898413
Si Si2 0.081330 0.880093 0.081968
Si Si3 0.919726 0.945256 0.940718
Si Si4 0.389471 0.051703 0.714816
Si Si5 0.500000 0.680877 0.750000
Si Si6 0.500000 0.955231 0.750000
Si Si7 0.084950 0.724898 0.821093
O O1 0.228144 0.146767 0.828960
O O2 0.219219 0.234267 0.637554
O O3 0.414153 0.254459 0.145008
O O4 0.383884 0.110467 0.986147
O O5 0.043279 0.964118 0.948919
O O6 0.041849 0.908737 0.115292
O O7 0.990294 0.801703 0.877950
O O8 0.774540 0.957142 0.593310
O O9 0.902968 0.880002 0.995205
O O10 0.408600 0.149267 0.742063
O O11 0.422493 0.012209 0.673189
O O12 0.500000 0.000000 0.000000
O O13 0.000000 0.696928 0.750000
#
# Coordination Sequence:
#
# PCOD9292281 Si02
#       7
#     8   8   8   8   4   4   8
#     4  10  22  43  69 101 135 188 237 295 359 423
#     4  10  24  45  68  99 141 180 240 292 353 431
#     4  11  25  47  66 108 139 187 241 292 363 430
#     4  12  26  46  71 104 145 190 237 303 359 433
#     4  11  24  42  75  98 146 188 233 302 352 431
#     4  11  24  44  69 100 142 186 247 290 364 425
#     4  10  22  44  70 102 135 186 236 289 358 421
#
# _framework density 22.618469000000001
#
# number of rings (size 3 to 8) (size 9 to 14) (size 15 to 20)
#    0.000    1.333    4.167    0.000    5.833    4.000 
#   15.000    0.000    0.000    0.000    0.000    0.000 
#    0.000    0.000    0.000    0.000    0.000    0.000 
#
# Total GULP energy -133656.167349 kJ/mol
# GULP energy per Si atom -5569.006973 kJ/mol
# Density = 2.256699 g / cm^3
# Si number density = 22.618469 Si / 1000 Ang^3
#
#
#
# Elastic Constant Matrix: (Units=GPa)
#
#
# Indices 1 2 3 4 5 6 
#
# 1 43.2306 41.4332 16.9761 0.0000 17.4336 0.0000
# 2 41.4332 192.9853 42.9333 0.0000 15.9966 0.0000
# 3 16.9761 42.9333 67.1583 0.0000 15.0742 0.0000
# 4 0.0000 0.0000 0.0000 57.6169 0.0000 -20.3505
# 5 17.4336 15.9966 15.0742 0.0000 23.7410 0.0000
# 6 0.0000 0.0000 0.0000 -20.3505 0.0000 68.7248
#
#
#
# Elastic Compliance Matrix: (Units=1/GPa)
#
#
# Indices 1 2 3 4 5 6 
#
# 1 0.039084 -0.006291 -0.000428 0.000000 -0.024190 0.000000
# 2 -0.006291 0.007127 -0.003411 0.000000 0.001983 0.000000
# 3 -0.000428 -0.003411 0.019350 0.000000 -0.009673 0.000000
# 4 0.000000 0.000000 0.000000 0.019383 0.000000 0.005740
# 5 -0.024190 0.001983 -0.009673 0.000000 0.064690 0.000000
# 6 0.000000 0.000000 0.000000 0.005740 0.000000 0.016250
#
#
# Mechanical properties :
#
#
# Convention : Reuss Voigt Hill
#
# Bulk Modulus (GPa) = 22.07457 56.22884 39.15171
# Shear Modulus (GPa) = 24.84513 43.48531 34.16522
#
# Velocity S-wave (km/s) = 3.31787 4.38945 3.89073
# Velocity P-wave (km/s) = 4.94555 7.11361 6.12625
#
# Compressibility (1/GPa) = 0.04530099
#
# Stress axis : x y z
#
# Youngs Moduli (GPa) = 25.58564 140.31499 51.67853
#
# Poissons Ratio (x) = 0.88270 0.02214
# Poissons Ratio (y) = 0.16096 0.17628
# Poissons Ratio (z) = 0.01096 0.47862
#
# Static dielectric constant tensor:
#      x y z
#    x 1.889530 0.000000 0.021890 
#    y 0.000000 1.832950 0.000000 
#    z 0.021890 0.000000 1.925260 
# 
# From -- ./inp_files/182556.got.cif
#   From: 2010.05.17/outbox.cif.g08.bks.cpg/sg15_92_cif.got.tgz:182556.got - 2010.06.03 18:47:42.
