data_PCOD9292081
_publ_section_title
;
Structure prediction by ZEFSAII (Michael W. Deem and Ramdas Pophale) SiO2 
 PCOD9292081
Probable space group: C 2/C
;
_chemical_formula_sum "Si O2"
_cell_formula_units_Z 64
_cell_length_a 28.082433
_cell_length_b 7.996317
_cell_length_c 22.902799
_cell_angle_alpha 90.000000
_cell_angle_beta 147.294950
_cell_angle_gamma 90.000000
_cell_volume 2778.816755
_symmetry_space_group_name_H-M "C 2/C"
_symmetry_group_IT_number 15
_symmetry_cell_setting 'monoclinic'
loop_
_space_group_symop_operation_xyz
x,y,z
-x,y,1/2-z
-x,-y,-z
x,-y,1/2+z
1/2+x,1/2+y,z
1/2-x,1/2+y,1/2-z
1/2-x,1/2-y,-z
1/2+x,1/2-y,1/2+z
loop_
_atom_site_type_symbol
_atom_site_label
_atom_site_fract_x
_atom_site_fract_y
_atom_site_fract_z
Si Si1 0.427025 0.769175 0.127913
Si Si2 0.766638 0.956957 0.159177
Si Si3 0.776055 0.094499 0.347567
Si Si4 0.411484 0.982178 0.363643
Si Si5 0.089436 0.086101 0.116100
Si Si6 0.317802 0.541842 0.516560
Si Si7 0.918287 0.389755 0.997597
Si Si8 0.332721 0.898681 0.560434
O O1 0.500000 0.722008 0.250000
O O2 0.348840 0.642791 0.062669
O O3 0.402320 0.961971 0.114804
O O4 0.445591 0.760074 0.077089
O O5 0.750276 0.788352 0.178807
O O6 0.863057 0.024317 0.275116
O O7 0.683154 0.072540 0.090299
O O8 0.744692 0.915810 0.069095
O O9 0.833662 0.050479 0.351548
O O10 0.832184 0.065251 0.462989
O O11 0.685660 0.994934 0.261603
O O12 0.422124 0.786311 0.391629
O O13 0.497357 0.018274 0.412427
O O14 0.410573 0.105479 0.418845
O O15 0.000000 0.000000 0.000000
O O16 0.363084 0.706804 0.590867
O O17 0.215945 0.559113 0.429901
#
# Coordination Sequence:
#
# PCOD9292081 Si02
#       8
#     8   8   8   8   8   8   8   8
#     4  11  25  41  70 101 138 176 232 285 351 409
#     4  10  22  43  66  91 134 176 221 282 335 413
#     4  11  23  41  68  94 127 178 223 277 350 404
#     4  11  25  40  68  93 137 176 223 279 347 412
#     4  12  26  39  62 100 133 172 226 281 346 416
#     4  10  23  43  70  97 133 177 230 285 341 421
#     4  10  23  43  64  93 134 178 219 276 342 412
#     4   9  22  46  67  96 134 181 231 278 350 408
#
# _framework density 23.031383999999999
#
# number of rings (size 3 to 8) (size 9 to 14) (size 15 to 20)
#    0.000    1.500    2.500    0.375   10.500    1.500 
#    0.000    0.000    0.000    0.000    0.000    0.000 
#    0.000    0.000    0.000    0.000    0.000    0.000 
#
# Total GULP energy -178218.034191 kJ/mol
# GULP energy per Si atom -5569.313568 kJ/mol
# Density = 2.297896 g / cm^3
# Si number density = 23.031384 Si / 1000 Ang^3
#
#
#
# Elastic Constant Matrix: (Units=GPa)
#
#
# Indices 1 2 3 4 5 6 
#
# 1 54.9976 12.1165 9.6320 0.0000 -10.8038 0.0000
# 2 12.1165 34.3341 31.0286 0.0000 -5.9875 0.0000
# 3 9.6320 31.0286 85.0686 0.0000 10.7615 0.0000
# 4 0.0000 0.0000 0.0000 19.6255 0.0000 1.5687
# 5 -10.8038 -5.9875 10.7615 0.0000 24.6342 0.0000
# 6 0.0000 0.0000 0.0000 1.5687 0.0000 17.3041
#
#
#
# Elastic Compliance Matrix: (Units=1/GPa)
#
#
# Indices 1 2 3 4 5 6 
#
# 1 0.021253 -0.003938 -0.002147 0.000000 0.009302 0.000000
# 2 -0.003938 0.053937 -0.021876 0.000000 0.020939 0.000000
# 3 -0.002147 -0.021876 0.021984 0.000000 -0.015863 0.000000
# 4 0.000000 0.000000 0.000000 0.051326 0.000000 -0.004653
# 5 0.009302 0.020939 -0.015863 0.000000 0.056692 0.000000
# 6 0.000000 0.000000 0.000000 -0.004653 0.000000 0.058212
#
#
# Mechanical properties :
#
#
# Convention : Reuss Voigt Hill
#
# Bulk Modulus (GPa) = 24.24111 31.10606 27.67359
# Shear Modulus (GPa) = 15.01148 20.42097 17.71623
#
# Velocity S-wave (km/s) = 2.55577 2.98091 2.77649
# Velocity P-wave (km/s) = 4.38833 5.03816 4.72443
#
# Compressibility (1/GPa) = 0.04125224
#
# Stress axis : x y z
#
# Youngs Moduli (GPa) = 47.05123 18.54008 45.48692
#
# Poissons Ratio (x) = 0.07301 0.09765
# Poissons Ratio (y) = 0.18530 0.99509
# Poissons Ratio (z) = 0.10100 0.40559
#
# Static dielectric constant tensor:
#      x y z
#    x 1.951630 0.000000 -0.001590 
#    y 0.000000 1.898910 0.000000 
#    z -0.001590 0.000000 1.927000 
# 
# From -- ./inp_files/284439.got.cif
#   From: 2010.05.17/outbox.cif.g08.bks.cpg/sg15_143_cif.got.tgz:284439.got - 2010.06.03 18:47:42.
