data_PCOD9292958
_publ_section_title
;
Structure prediction by ZEFSAII (Michael W. Deem and Ramdas Pophale) SiO2 
 PCOD9292958
Probable space group: C 2/C
;
_chemical_formula_sum "Si O2"
_cell_formula_units_Z 28
_cell_length_a 7.976652
_cell_length_b 7.227640
_cell_length_c 17.398835
_cell_angle_alpha 90.000000
_cell_angle_beta 85.300704
_cell_angle_gamma 90.000000
_cell_volume 999.712083
_symmetry_space_group_name_H-M "C 2/C"
_symmetry_group_IT_number 15
_symmetry_cell_setting 'monoclinic'
loop_
_space_group_symop_operation_xyz
x,y,z
-x,y,1/2-z
-x,-y,-z
x,-y,1/2+z
1/2+x,1/2+y,z
1/2-x,1/2+y,1/2-z
1/2-x,1/2-y,-z
1/2+x,1/2-y,1/2+z
loop_
_atom_site_type_symbol
_atom_site_label
_atom_site_fract_x
_atom_site_fract_y
_atom_site_fract_z
Si Si1 0.000000 0.500000 0.500000
Si Si2 0.356969 0.812126 0.315269
Si Si3 0.142485 0.973935 0.557741
Si Si4 0.983561 0.711690 0.345958
O O1 0.198687 0.458062 0.496167
O O2 0.955240 0.360766 0.573436
O O3 0.500000 0.743889 0.250000
O O4 0.388271 0.727374 0.400237
O O5 0.162707 0.770000 0.301410
O O6 0.387709 0.031433 0.319384
O O7 0.126166 0.108767 0.632245
O O8 0.000000 0.000000 0.500000
#
# Coordination Sequence:
#
# PCOD9292958 Si02
#       4
#     4   8   8   8
#     4  10  22  44  70 118 146 186 258 318 394 472
#     4  11  28  47  71 112 154 205 270 322 393 485
#     4  11  24  46  81 113 154 204 257 335 398 474
#     4  11  24  45  75 104 152 199 253 319 399 466
#
# _framework density 28.008064000000001
#
# number of rings (size 3 to 8) (size 9 to 14) (size 15 to 20)
#    0.000    1.143    0.000    4.286    4.000   12.571 
#    0.000    4.286    0.000    0.000    0.000    0.000 
#    0.000    0.000    0.000    0.000    0.000    0.000 
#
# Total GULP energy -77980.768522 kJ/mol
# GULP energy per Si atom -5570.054894 kJ/mol
# Density = 2.794432 g / cm^3
# Si number density = 28.008064 Si / 1000 Ang^3
#
#
#
# Elastic Constant Matrix: (Units=GPa)
#
#
# Indices 1 2 3 4 5 6 
#
# 1 169.9383 36.5545 23.0084 0.0000 -72.6233 0.0000
# 2 36.5545 179.0003 47.9017 0.0000 -11.8865 0.0000
# 3 23.0084 47.9017 142.4713 0.0000 -40.4169 0.0000
# 4 0.0000 0.0000 0.0000 64.9849 0.0000 4.2724
# 5 -72.6233 -11.8865 -40.4169 0.0000 61.9599 0.0000
# 6 0.0000 0.0000 0.0000 4.2724 0.0000 29.2288
#
#
#
# Elastic Compliance Matrix: (Units=1/GPa)
#
#
# Indices 1 2 3 4 5 6 
#
# 1 0.013553 -0.002584 0.003738 0.000000 0.017828 0.000000
# 2 -0.002584 0.006634 -0.002836 0.000000 -0.003606 0.000000
# 3 0.003738 -0.002836 0.010378 0.000000 0.010606 0.000000
# 4 0.000000 0.000000 0.000000 0.015538 0.000000 -0.002271
# 5 0.017828 -0.003606 0.010606 0.000000 0.043262 0.000000
# 6 0.000000 0.000000 0.000000 -0.002271 0.000000 0.034545
#
#
# Mechanical properties :
#
#
# Convention : Reuss Voigt Hill
#
# Bulk Modulus (GPa) = 36.76559 78.48213 57.62386
# Shear Modulus (GPa) = 36.67276 56.83104 46.75190
#
# Velocity S-wave (km/s) = 3.62244 4.50944 4.09005
# Velocity P-wave (km/s) = 5.53637 7.42936 6.55160
#
# Compressibility (1/GPa) = 0.02719934
#
# Stress axis : x y z
#
# Youngs Moduli (GPa) = 73.78403 150.74349 96.36009
#
# Poissons Ratio (x) = 0.38953 -0.36015
# Poissons Ratio (y) = 0.19066 0.27329
# Poissons Ratio (z) = -0.27577 0.42753
#
# Static dielectric constant tensor:
#      x y z
#    x 2.525350 0.000000 0.375940 
#    y 0.000000 2.384810 0.000000 
#    z 0.375940 0.000000 2.611350 
# 
# From -- ./inp_files/229049.got.cif
#   From: 2010.05.17/outbox.cif.g08.bks.cpg/sg15_115_cif.got.tgz:229049.got - 2010.06.03 18:47:42.
