data_PCOD9292970
_publ_section_title
;
Structure prediction by ZEFSAII (Michael W. Deem and Ramdas Pophale) SiO2 
 PCOD9292970
Probable space group: C 2/C
;
_chemical_formula_sum "Si O2"
_cell_formula_units_Z 28
_cell_length_a 10.577015
_cell_length_b 17.328843
_cell_length_c 10.856156
_cell_angle_alpha 90.000000
_cell_angle_beta 41.883411
_cell_angle_gamma 90.000000
_cell_volume 1328.422326
_symmetry_space_group_name_H-M "C 2/C"
_symmetry_group_IT_number 15
_symmetry_cell_setting 'monoclinic'
loop_
_space_group_symop_operation_xyz
x,y,z
-x,y,1/2-z
-x,-y,-z
x,-y,1/2+z
1/2+x,1/2+y,z
1/2-x,1/2+y,1/2-z
1/2-x,1/2-y,-z
1/2+x,1/2-y,1/2+z
loop_
_atom_site_type_symbol
_atom_site_label
_atom_site_fract_x
_atom_site_fract_y
_atom_site_fract_z
Si Si1 0.000000 0.806961 0.250000
Si Si2 0.144750 0.314072 0.847232
Si Si3 0.047922 0.089072 0.484682
Si Si4 0.656274 0.174032 0.732387
O O1 0.108380 0.745117 0.259512
O O2 0.085901 0.868091 0.089097
O O3 0.263193 0.388475 0.725490
O O4 0.285074 0.263004 0.829842
O O5 0.951023 0.331425 0.058106
O O6 0.853674 0.129863 0.582225
O O7 0.000000 0.000000 0.500000
O O8 0.500000 0.146972 0.750000
#
# Coordination Sequence:
#
# PCOD9292970 Si02
#       4
#     4   8   8   8
#     4  10  22  44  70  96 128 176 230 266 322 408
#     4  11  22  40  71  95 128 175 228 268 326 394
#     4  11  26  42  63 100 135 174 217 282 337 381
#     4  11  23  40  67  97 131 171 222 268 327 400
#
# _framework density 21.077634
#
# number of rings (size 3 to 8) (size 9 to 14) (size 15 to 20)
#    0.000    1.143    5.714    1.714    4.000    3.429 
#    2.571    0.000    0.000    0.000    0.000    0.000 
#    0.000    0.000    0.000    0.000    0.000    0.000 
#
# Total GULP energy -77942.997021 kJ/mol
# GULP energy per Si atom -5567.356930 kJ/mol
# Density = 2.102966 g / cm^3
# Si number density = 21.077634 Si / 1000 Ang^3
#
#
#
# Elastic Constant Matrix: (Units=GPa)
#
#
# Indices 1 2 3 4 5 6 
#
# 1 81.0736 -2.0608 17.3279 -0.0002 7.7634 0.0001
# 2 -2.0608 116.1153 10.8347 -0.0001 7.9853 0.0000
# 3 17.3279 10.8347 61.6374 -0.0003 -8.4629 0.0002
# 4 -0.0002 -0.0001 -0.0003 27.4803 0.0002 -15.1224
# 5 7.7634 7.9853 -8.4629 0.0002 21.5376 -0.0001
# 6 0.0001 0.0000 0.0002 -15.1224 -0.0001 9.9110
#
#
#
# Elastic Compliance Matrix: (Units=1/GPa)
#
#
# Indices 1 2 3 4 5 6 
#
# 1 0.014230 0.001273 -0.005278 0.000000 -0.007675 0.000000
# 2 0.001273 0.009221 -0.002654 0.000000 -0.004920 0.000000
# 3 -0.005278 -0.002654 0.019630 0.000000 0.010600 0.000000
# 4 0.000000 0.000000 0.000000 0.226958 -0.000001 0.346298
# 5 -0.007675 -0.004920 0.010600 -0.000001 0.055186 -0.000001
# 6 0.000000 0.000000 0.000000 0.346298 -0.000001 0.629289
#
#
# Mechanical properties :
#
#
# Convention : Reuss Voigt Hill
#
# Bulk Modulus (GPa) = 33.60040 34.55887 34.07964
# Shear Modulus (GPa) = 5.11377 27.30074 16.20725
#
# Velocity S-wave (km/s) = 1.55930 3.60286 2.77597
# Velocity P-wave (km/s) = 4.38381 5.80853 5.14572
#
# Compressibility (1/GPa) = 0.02976155
#
# Stress axis : x y z
#
# Youngs Moduli (GPa) = 70.27493 108.45080 50.94345
#
# Poissons Ratio (x) = -0.13804 0.26888
# Poissons Ratio (y) = -0.08945 0.13522
# Poissons Ratio (z) = 0.37091 0.28786
#
# Static dielectric constant tensor:
#      x y z
#    x 1.865380 0.000000 0.094180 
#    y 0.000000 1.729110 0.000000 
#    z 0.094180 0.000000 1.819970 
# 
# From -- ./inp_files/27793.got.cif
#   From: 2010.05.17/outbox.cif.g08.bks.cpg/sg15_14_cif.got.tgz:27793.got - 2010.06.03 18:47:42.
