data_PCOD9292440
_publ_section_title
;
Structure prediction by ZEFSAII (Michael W. Deem and Ramdas Pophale) SiO2 
 PCOD9292440
Probable space group: C 2/C
;
_chemical_formula_sum "Si O2"
_cell_formula_units_Z 56
_cell_length_a 22.436268
_cell_length_b 11.664504
_cell_length_c 23.090587
_cell_angle_alpha 90.000000
_cell_angle_beta 23.947376
_cell_angle_gamma 90.000000
_cell_volume 2452.833981
_symmetry_space_group_name_H-M "C 2/C"
_symmetry_group_IT_number 15
_symmetry_cell_setting 'monoclinic'
loop_
_space_group_symop_operation_xyz
x,y,z
-x,y,1/2-z
-x,-y,-z
x,-y,1/2+z
1/2+x,1/2+y,z
1/2-x,1/2+y,1/2-z
1/2-x,1/2-y,-z
1/2+x,1/2-y,1/2+z
loop_
_atom_site_type_symbol
_atom_site_label
_atom_site_fract_x
_atom_site_fract_y
_atom_site_fract_z
Si Si1 0.008079 0.667943 0.678717
Si Si2 0.822822 0.861217 0.021523
Si Si3 0.468770 0.366357 0.015492
Si Si4 0.432419 0.827513 0.873742
Si Si5 0.635741 0.578809 0.589789
Si Si6 0.467321 0.992085 0.935786
Si Si7 0.166356 0.643187 0.845588
O O1 0.102036 0.782280 0.593740
O O2 0.084463 0.588253 0.563346
O O3 0.000000 0.616866 0.750000
O O4 0.836685 0.682483 0.816649
O O5 0.925160 0.858747 0.986715
O O6 0.812326 0.985066 0.001922
O O7 0.328980 0.337286 0.179060
O O8 0.500000 0.500000 0.000000
O O9 0.587819 0.266693 0.920335
O O10 0.500000 0.839884 0.750000
O O11 0.416474 0.692567 0.897836
O O12 0.522959 0.893234 0.842623
O O13 0.269295 0.880695 0.012415
O O14 0.500000 0.538869 0.750000
O O15 0.583082 0.059475 0.873195
O O16 0.350674 0.928995 0.080177
#
# Coordination Sequence:
#
# PCOD9292440 Si02
#       7
#     8   8   8   8   8   8   8
#     4  12  25  43  74 104 143 191 234 295 369 440
#     4  12  24  45  68 103 145 184 237 301 356 437
#     4  12  28  49  76 109 144 197 253 305 367 439
#     4  10  22  43  71  98 139 183 230 291 366 430
#     4  10  23  42  63 104 138 177 234 291 353 432
#     4  11  23  45  73  99 139 189 240 298 365 438
#     4  11  28  49  73 105 144 191 249 303 368 434
#
# _framework density 22.830734
#
# number of rings (size 3 to 8) (size 9 to 14) (size 15 to 20)
#    0.000    0.857    2.857    3.000    6.000    3.429 
#    5.143    0.000    0.000    0.000    0.000    0.000 
#    0.000    0.000    0.000    0.000    0.000    0.000 
#
# Total GULP energy -156569.494750 kJ/mol
# GULP energy per Si atom -5591.767670 kJ/mol
# Density = 2.277877 g / cm^3
# Si number density = 22.830734 Si / 1000 Ang^3
#
#
#
# Elastic Constant Matrix: (Units=GPa)
#
#
# Indices 1 2 3 4 5 6 
#
# 1 65.8271 31.5442 14.3696 0.0003 26.0613 -0.0002
# 2 31.5442 149.5924 61.7555 -0.0037 6.1188 0.0006
# 3 14.3696 61.7555 142.4379 -0.0030 10.8976 0.0003
# 4 0.0003 -0.0037 -0.0030 37.6736 0.0007 5.9142
# 5 26.0613 6.1188 10.8976 0.0007 26.2099 0.0002
# 6 -0.0002 0.0006 0.0003 5.9142 0.0002 35.8444
#
#
#
# Elastic Compliance Matrix: (Units=1/GPa)
#
#
# Indices 1 2 3 4 5 6 
#
# 1 0.028447 -0.005549 0.001654 0.000000 -0.027678 0.000000
# 2 -0.005549 0.009230 -0.003821 0.000001 0.004952 0.000000
# 3 0.001654 -0.003821 0.008849 0.000000 -0.004432 0.000000
# 4 0.000000 0.000001 0.000000 0.027250 -0.000001 -0.004496
# 5 -0.027678 0.004952 -0.004432 -0.000001 0.066362 0.000000
# 6 0.000000 0.000000 0.000000 -0.004496 0.000000 0.028640
#
#
# Mechanical properties :
#
#
# Convention : Reuss Voigt Hill
#
# Bulk Modulus (GPa) = 32.16040 63.68843 47.92442
# Shear Modulus (GPa) = 25.69702 36.62479 31.16090
#
# Velocity S-wave (km/s) = 3.35855 4.00958 3.69842
# Velocity P-wave (km/s) = 5.39971 7.02795 6.26694
#
# Compressibility (1/GPa) = 0.03109414
#
# Stress axis : x y z
#
# Youngs Moduli (GPa) = 35.15248 108.34592 113.00305
#
# Poissons Ratio (x) = 0.60123 -0.18687
# Poissons Ratio (y) = 0.19507 0.43174
# Poissons Ratio (z) = -0.05813 0.41395
#
# Static dielectric constant tensor:
#      x y z
#    x 1.900750 0.000000 -0.022350 
#    y 0.000000 1.885220 0.000000 
#    z -0.022350 0.000000 1.839710 
# 
# From -- ./inp_files/303247.got.cif
#   From: 2010.05.17/outbox.cif.g08.bks.cpg/sg15_152_cif.got.tgz:303247.got - 2010.06.03 18:47:42.
