data_PCOD9292510
_publ_section_title
;
Structure prediction by ZEFSAII (Michael W. Deem and Ramdas Pophale) SiO2 
 PCOD9292510
Probable space group: C 2/C
;
_chemical_formula_sum "Si O2"
_cell_formula_units_Z 36
_cell_length_a 7.506971
_cell_length_b 21.456589
_cell_length_c 8.989271
_cell_angle_alpha 90.000000
_cell_angle_beta 77.270397
_cell_angle_gamma 90.000000
_cell_volume 1412.348645
_symmetry_space_group_name_H-M "C 2/C"
_symmetry_group_IT_number 15
_symmetry_cell_setting 'monoclinic'
loop_
_space_group_symop_operation_xyz
x,y,z
-x,y,1/2-z
-x,-y,-z
x,-y,1/2+z
1/2+x,1/2+y,z
1/2-x,1/2+y,1/2-z
1/2-x,1/2-y,-z
1/2+x,1/2-y,1/2+z
loop_
_atom_site_type_symbol
_atom_site_label
_atom_site_fract_x
_atom_site_fract_y
_atom_site_fract_z
Si Si1 0.592476 0.648099 0.385202
Si Si2 0.500000 0.071026 0.750000
Si Si3 0.363890 0.494426 0.658442
Si Si4 0.913625 0.319218 0.057693
Si Si5 0.140447 0.783088 0.358777
O O1 0.500000 0.673606 0.250000
O O2 0.660065 0.579982 0.322120
O O3 0.764202 0.676290 0.449706
O O4 0.426124 0.656926 0.533677
O O5 0.530040 0.113066 0.892357
O O6 0.674588 0.028570 0.690372
O O7 0.500000 0.525145 0.750000
O O8 0.500000 0.500000 0.500000
O O9 0.819123 0.292132 0.225414
O O10 0.084622 0.276912 0.971219
O O11 0.000000 0.777521 0.250000
#
# Coordination Sequence:
#
# PCOD9292510 Si02
#       5
#     8   4   8   8   8
#     4  10  22  43  74 109 155 204 254 331 391 472
#     4  12  28  50  84 112 160 220 262 328 394 472
#     4  11  25  49  75 112 156 205 268 324 391 468
#     4  11  25  48  74 115 157 205 267 320 397 479
#     4  10  22  48  73 111 157 202 257 325 394 474
#
# _framework density 25.489456000000001
#
# number of rings (size 3 to 8) (size 9 to 14) (size 15 to 20)
#    0.000    1.333    0.000    5.333    1.556    6.222 
#   26.000    3.333    0.000    0.000    0.000    0.000 
#    0.000    0.000    0.000    0.000    0.000    0.000 
#
# Total GULP energy -100479.797023 kJ/mol
# GULP energy per Si atom -5582.210946 kJ/mol
# Density = 2.543144 g / cm^3
# Si number density = 25.489456 Si / 1000 Ang^3
#
#
#
# Elastic Constant Matrix: (Units=GPa)
#
#
# Indices 1 2 3 4 5 6 
#
# 1 225.0103 96.1822 86.1647 0.0000 -23.6100 0.0000
# 2 96.1822 144.8445 45.2020 0.0000 -12.5319 0.0000
# 3 86.1647 45.2020 161.8260 0.0000 1.9423 0.0000
# 4 0.0000 0.0000 0.0000 38.7232 0.0000 -9.7417
# 5 -23.6100 -12.5319 1.9423 0.0000 41.0454 0.0000
# 6 0.0000 0.0000 0.0000 -9.7417 0.0000 55.2750
#
#
#
# Elastic Compliance Matrix: (Units=1/GPa)
#
#
# Indices 1 2 3 4 5 6 
#
# 1 0.007571 -0.003799 -0.003010 0.000000 0.003337 0.000000
# 2 -0.003799 0.009716 -0.000701 0.000000 0.000814 0.000000
# 3 -0.003010 -0.000701 0.008006 0.000000 -0.002324 0.000000
# 4 0.000000 0.000000 0.000000 0.027022 0.000000 0.004762
# 5 0.003337 0.000814 -0.002324 0.000000 0.026642 0.000000
# 6 0.000000 0.000000 0.000000 0.004762 0.000000 0.018931
#
#
# Mechanical properties :
#
#
# Convention : Reuss Voigt Hill
#
# Bulk Modulus (GPa) = 97.34594 109.64208 103.49401
# Shear Modulus (GPa) = 42.98029 47.28419 45.13224
#
# Velocity S-wave (km/s) = 4.11079 4.31170 4.21244
# Velocity P-wave (km/s) = 7.79776 8.23989 8.02187
#
# Compressibility (1/GPa) = 0.01027264
#
# Stress axis : x y z
#
# Youngs Moduli (GPa) = 132.07923 102.92274 124.90909
#
# Poissons Ratio (x) = 0.39105 0.37599
# Poissons Ratio (y) = 0.50183 0.08752
# Poissons Ratio (z) = 0.39757 0.07212
#
# Static dielectric constant tensor:
#      x y z
#    x 2.043100 0.000000 0.045510 
#    y 0.000000 1.954030 0.000000 
#    z 0.045510 0.000000 1.970410 
# 
# From -- ./inp_files/23308.got.cif
#   From: 2010.05.17/outbox.cif.g08.bks.cpg/sg15_12_cif.got.tgz:23308.got - 2010.06.03 18:47:42.
