data_PCOD9292433
_publ_section_title
;
Structure prediction by ZEFSAII (Michael W. Deem and Ramdas Pophale) SiO2 
 PCOD9292433
Probable space group: C 2/C
;
_chemical_formula_sum "Si O2"
_cell_formula_units_Z 40
_cell_length_a 14.223250
_cell_length_b 13.143489
_cell_length_c 12.467317
_cell_angle_alpha 90.000000
_cell_angle_beta 42.581154
_cell_angle_gamma 90.000000
_cell_volume 1577.016395
_symmetry_space_group_name_H-M "C 2/C"
_symmetry_group_IT_number 15
_symmetry_cell_setting 'monoclinic'
loop_
_space_group_symop_operation_xyz
x,y,z
-x,y,1/2-z
-x,-y,-z
x,-y,1/2+z
1/2+x,1/2+y,z
1/2-x,1/2+y,1/2-z
1/2-x,1/2-y,-z
1/2+x,1/2-y,1/2+z
loop_
_atom_site_type_symbol
_atom_site_label
_atom_site_fract_x
_atom_site_fract_y
_atom_site_fract_z
Si Si1 0.000000 0.469014 0.750000
Si Si2 0.206611 0.011223 0.221783
Si Si3 0.823507 0.722907 0.110196
Si Si4 0.733269 0.641329 0.402563
Si Si5 0.000000 0.885758 0.250000
Si Si6 0.102450 0.632578 0.825887
O O1 0.860915 0.402856 0.862834
O O2 0.975544 0.545777 0.673234
O O3 0.086384 0.958289 0.257344
O O4 0.328101 0.928432 0.135413
O O5 0.257555 0.116540 0.126196
O O6 0.177770 0.051355 0.368188
O O7 0.795556 0.718995 0.262660
O O8 0.728236 0.815777 0.154180
O O9 0.986976 0.717479 0.951172
O O10 0.610334 0.673990 0.583942
#
# Coordination Sequence:
#
# PCOD9292433 Si02
#       6
#     4   8   8   8   4   8
#     4  10  22  43  71  96 128 186 218 263 339 418
#     4   9  23  41  65  94 134 178 214 270 339 394
#     4  10  24  41  67  95 137 171 210 283 329 392
#     4   9  23  39  64  99 130 175 220 269 336 390
#     4  12  20  37  71  94 126 174 228 269 319 396
#     4  11  23  43  69  97 136 170 229 272 335 390
#
# _framework density 25.364355
#
# number of rings (size 3 to 8) (size 9 to 14) (size 15 to 20)
#    1.200    0.800    0.000    2.400    5.600    3.200 
#    0.000    2.000    0.000    0.000    0.000    0.000 
#    0.000    0.000    0.000    0.000    0.000    0.000 
#
# Total GULP energy -111755.732919 kJ/mol
# GULP energy per Si atom -5587.786646 kJ/mol
# Density = 2.530662 g / cm^3
# Si number density = 25.364355 Si / 1000 Ang^3
#
#
#
# Elastic Constant Matrix: (Units=GPa)
#
#
# Indices 1 2 3 4 5 6 
#
# 1 150.1395 28.5316 37.1453 0.0000 -21.5581 0.0000
# 2 28.5316 95.0516 13.1407 0.0000 -13.5742 0.0000
# 3 37.1453 13.1407 126.8202 0.0000 -11.5335 0.0000
# 4 0.0000 0.0000 0.0000 32.7806 0.0000 -1.1364
# 5 -21.5581 -13.5742 -11.5335 0.0000 26.0898 0.0000
# 6 0.0000 0.0000 0.0000 -1.1364 0.0000 20.3939
#
#
#
# Elastic Compliance Matrix: (Units=1/GPa)
#
#
# Indices 1 2 3 4 5 6 
#
# 1 0.008114 -0.001454 -0.001755 0.000000 0.005172 0.000000
# 2 -0.001454 0.011680 -0.000355 0.000000 0.004718 0.000000
# 3 -0.001755 -0.000355 0.008635 0.000000 0.002182 0.000000
# 4 0.000000 0.000000 0.000000 0.030565 0.000000 0.001703
# 5 0.005172 0.004718 0.002182 0.000000 0.046022 0.000000
# 6 0.000000 0.000000 0.000000 0.001703 0.000000 0.049129
#
#
# Mechanical properties :
#
#
# Convention : Reuss Voigt Hill
#
# Bulk Modulus (GPa) = 46.95156 58.84960 52.90058
# Shear Modulus (GPa) = 29.69585 35.39910 32.54748
#
# Velocity S-wave (km/s) = 3.42537 3.73986 3.58606
# Velocity P-wave (km/s) = 5.84767 6.47308 6.16831
#
# Compressibility (1/GPa) = 0.02129855
#
# Stress axis : x y z
#
# Youngs Moduli (GPa) = 123.24781 85.61606 115.81348
#
# Poissons Ratio (x) = 0.12451 0.20331
# Poissons Ratio (y) = 0.17923 0.04114
# Poissons Ratio (z) = 0.21636 0.03041
#
# Static dielectric constant tensor:
#      x y z
#    x 2.019320 0.000000 0.056020 
#    y 0.000000 2.000560 0.000000 
#    z 0.056020 0.000000 2.043520 
# 
# From -- ./inp_files/38089.got.cif
#   From: 2010.05.17/outbox.cif.g08.bks.cpg/sg15_20_cif.got.tgz:38089.got - 2010.06.03 18:47:42.
