data_PCOD9292416
_publ_section_title
;
Structure prediction by ZEFSAII (Michael W. Deem and Ramdas Pophale) SiO2 
 PCOD9292416
Probable space group: C 2/C
;
_chemical_formula_sum "Si O2"
_cell_formula_units_Z 60
_cell_length_a 8.388095
_cell_length_b 21.689709
_cell_length_c 21.503057
_cell_angle_alpha 90.000000
_cell_angle_beta 135.076988
_cell_angle_gamma 90.000000
_cell_volume 2762.599509
_symmetry_space_group_name_H-M "C 2/C"
_symmetry_group_IT_number 15
_symmetry_cell_setting 'monoclinic'
loop_
_space_group_symop_operation_xyz
x,y,z
-x,y,1/2-z
-x,-y,-z
x,-y,1/2+z
1/2+x,1/2+y,z
1/2-x,1/2+y,1/2-z
1/2-x,1/2-y,-z
1/2+x,1/2-y,1/2+z
loop_
_atom_site_type_symbol
_atom_site_label
_atom_site_fract_x
_atom_site_fract_y
_atom_site_fract_z
Si Si1 0.000000 0.982515 0.750000
Si Si2 0.601561 0.280786 0.514155
Si Si3 0.181706 0.114344 0.619430
Si Si4 0.323645 0.894534 0.646336
Si Si5 0.523539 0.150000 0.541999
Si Si6 0.330947 0.911180 0.295694
Si Si7 0.704241 0.057081 0.486176
Si Si8 0.631364 0.433189 0.917217
O O1 0.807211 0.027859 0.724428
O O2 0.094328 0.943266 0.833677
O O3 0.750000 0.250000 0.500000
O O4 0.391771 0.319473 0.427966
O O5 0.743922 0.330012 0.593698
O O6 0.531110 0.222186 0.534264
O O7 0.406578 0.085052 0.652444
O O8 0.213340 0.117409 0.702361
O O9 0.967586 0.071705 0.546886
O O10 0.500000 0.885889 0.750000
O O11 0.414930 0.933255 0.612667
O O12 0.109716 0.929814 0.616530
O O13 0.661027 0.130583 0.640877
O O14 0.622554 0.108892 0.512255
O O15 0.265261 0.127856 0.472823
O O16 0.709946 0.989082 0.515409
#
# Coordination Sequence:
#
# PCOD9292416 Si02
#       8
#     4   8   8   8   8   8   8   8
#     4  12  26  44  68 106 146 192 226 292 358 428
#     4  11  24  48  74  98 141 184 238 293 351 415
#     4  10  22  43  71 105 136 180 241 292 340 420
#     4  11  27  46  71 104 140 188 233 290 360 418
#     4  12  24  44  74 100 140 186 233 289 348 422
#     4  11  23  42  71 105 139 182 244 283 346 422
#     4  11  22  47  69 102 139 187 227 284 357 419
#     4  12  27  43  70 106 148 180 234 288 355 431
#
# _framework density 21.718675000000001
#
# number of rings (size 3 to 8) (size 9 to 14) (size 15 to 20)
#    0.000    0.800    5.333    2.400    1.867    4.267 
#    0.000    2.667    0.000    0.000    0.000    0.000 
#    0.000    0.000    0.000    0.000    0.000    0.000 
#
# Total GULP energy -167874.041967 kJ/mol
# GULP energy per Si atom -5595.801399 kJ/mol
# Density = 2.166924 g / cm^3
# Si number density = 21.718675 Si / 1000 Ang^3
#
#
#
# Elastic Constant Matrix: (Units=GPa)
#
#
# Indices 1 2 3 4 5 6 
#
# 1 88.9827 26.8539 49.2792 0.0000 -14.5571 0.0000
# 2 26.8539 109.8815 47.9153 0.0000 -11.8585 0.0000
# 3 49.2792 47.9153 147.5880 0.0000 -40.9252 0.0000
# 4 0.0000 0.0000 0.0000 21.5515 0.0000 -1.9425
# 5 -14.5571 -11.8585 -40.9252 0.0000 52.7665 0.0000
# 6 0.0000 0.0000 0.0000 -1.9425 0.0000 31.5273
#
#
#
# Elastic Compliance Matrix: (Units=1/GPa)
#
#
# Indices 1 2 3 4 5 6 
#
# 1 0.014035 -0.001621 -0.004061 0.000000 0.000358 0.000000
# 2 -0.001621 0.010794 -0.003076 0.000000 -0.000407 0.000000
# 3 -0.004061 -0.003076 0.010992 0.000000 0.006714 0.000000
# 4 0.000000 0.000000 0.000000 0.046660 0.000000 0.002875
# 5 0.000358 -0.000407 0.006714 0.000000 0.024166 0.000000
# 6 0.000000 0.000000 0.000000 0.002875 0.000000 0.031896
#
#
# Mechanical properties :
#
#
# Convention : Reuss Voigt Hill
#
# Bulk Modulus (GPa) = 54.62741 66.06099 60.34420
# Shear Modulus (GPa) = 30.83403 35.99597 33.41500
#
# Velocity S-wave (km/s) = 3.77198 4.07550 3.92668
# Velocity P-wave (km/s) = 6.64660 7.25459 6.95724
#
# Compressibility (1/GPa) = 0.01830583
#
# Stress axis : x y z
#
# Youngs Moduli (GPa) = 71.25228 92.64197 90.97693
#
# Poissons Ratio (x) = 0.15013 0.36943
# Poissons Ratio (y) = 0.11547 0.27986
# Poissons Ratio (z) = 0.28933 0.28499
#
# Static dielectric constant tensor:
#      x y z
#    x 1.882520 0.000000 0.003700 
#    y 0.000000 1.751450 0.000000 
#    z 0.003700 0.000000 1.803130 
# 
# From -- ./inp_files/266264.got.cif
#   From: 2010.05.17/outbox.cif.g08.bks.cpg/sg15_134_cif.got.tgz:266264.got - 2010.06.03 18:47:42.
