data_PCOD9292989
_publ_section_title
;
Structure prediction by ZEFSAII (Michael W. Deem and Ramdas Pophale) SiO2 
 PCOD9292989
Probable space group: C 2/C
;
_chemical_formula_sum "Si O2"
_cell_formula_units_Z 60
_cell_length_a 11.618086
_cell_length_b 8.730878
_cell_length_c 32.449515
_cell_angle_alpha 90.000000
_cell_angle_beta 67.779276
_cell_angle_gamma 90.000000
_cell_volume 3047.101107
_symmetry_space_group_name_H-M "C 2/C"
_symmetry_group_IT_number 15
_symmetry_cell_setting 'monoclinic'
loop_
_space_group_symop_operation_xyz
x,y,z
-x,y,1/2-z
-x,-y,-z
x,-y,1/2+z
1/2+x,1/2+y,z
1/2-x,1/2+y,1/2-z
1/2-x,1/2-y,-z
1/2+x,1/2-y,1/2+z
loop_
_atom_site_type_symbol
_atom_site_label
_atom_site_fract_x
_atom_site_fract_y
_atom_site_fract_z
Si Si1 0.078949 0.134197 0.778170
Si Si2 0.760869 0.855487 0.557930
Si Si3 0.690881 0.044280 0.264517
Si Si4 0.000000 0.316057 0.250000
Si Si5 0.206751 0.845941 0.666330
Si Si6 0.383611 0.369600 0.091614
Si Si7 0.447362 0.144182 0.481858
Si Si8 0.097955 0.897779 0.124139
O O1 0.181492 0.007720 0.774197
O O2 0.150898 0.287681 0.756137
O O3 0.000000 0.083225 0.750000
O O4 0.988108 0.168428 0.827814
O O5 0.655408 0.902795 0.538736
O O6 0.872793 0.765770 0.520195
O O7 0.693845 0.730005 0.595970
O O8 0.813883 0.999850 0.575428
O O9 0.586802 0.923847 0.266217
O O10 0.716871 0.057512 0.309823
O O11 0.090639 0.222171 0.207570
O O12 0.290394 0.710458 0.636581
O O13 0.162791 0.955189 0.635444
O O14 0.440844 0.235602 0.055293
O O15 0.503349 0.435528 0.099868
O O16 0.500000 0.000000 0.500000
#
# Coordination Sequence:
#
# PCOD9292989 Si02
#       8
#     8   8   8   4   8   8   8   8
#     4  12  24  41  65  87 124 175 217 273 324 374
#     4  10  24  42  67  99 129 166 207 261 321 386
#     4  12  24  40  61  87 121 164 220 266 324 374
#     4  12  26  38  64  88 124 166 228 272 322 378
#     4  12  25  41  60  92 125 169 217 269 321 378
#     4  11  24  41  67  97 132 166 214 261 318 388
#     4  10  22  44  70  98 132 165 205 256 319 389
#     4  11  24  41  63  90 130 166 215 265 321 378
#
# _framework density 19.690847000000002
#
# number of rings (size 3 to 8) (size 9 to 14) (size 15 to 20)
#    0.000    0.800    4.667    2.000    1.867    3.733 
#    0.000    0.000    0.000    0.000    0.000    0.000 
#    0.000    0.000    0.000    0.000    0.000    0.000 
#
# Total GULP energy -167709.831932 kJ/mol
# GULP energy per Si atom -5590.327731 kJ/mol
# Density = 1.964603 g / cm^3
# Si number density = 19.690847 Si / 1000 Ang^3
#
#
#
# Elastic Constant Matrix: (Units=GPa)
#
#
# Indices 1 2 3 4 5 6 
#
# 1 119.5712 62.4491 44.2240 0.0000 14.4605 0.0000
# 2 62.4491 84.3849 34.3253 0.0000 16.9971 0.0000
# 3 44.2240 34.3253 100.7455 0.0000 -4.8223 0.0000
# 4 0.0000 0.0000 0.0000 34.7495 0.0000 12.8604
# 5 14.4605 16.9971 -4.8223 0.0000 36.9390 0.0000
# 6 0.0000 0.0000 0.0000 12.8604 0.0000 35.9930
#
#
#
# Elastic Compliance Matrix: (Units=1/GPa)
#
#
# Indices 1 2 3 4 5 6 
#
# 1 0.014565 -0.008976 -0.003432 0.000000 -0.002019 0.000000
# 2 -0.008976 0.021348 -0.003658 0.000000 -0.006787 0.000000
# 3 -0.003432 -0.003658 0.012904 0.000000 0.004712 0.000000
# 4 0.000000 0.000000 0.000000 0.033163 0.000000 -0.011849
# 5 -0.002019 -0.006787 0.004712 0.000000 0.031600 0.000000
# 6 0.000000 0.000000 0.000000 -0.011849 0.000000 0.032017
#
#
# Mechanical properties :
#
#
# Convention : Reuss Voigt Hill
#
# Bulk Modulus (GPa) = 59.93358 65.18870 62.56114
# Shear Modulus (GPa) = 27.27908 32.44987 29.86447
#
# Velocity S-wave (km/s) = 3.72609 4.06392 3.89867
# Velocity P-wave (km/s) = 7.00107 7.42957 7.21850
#
# Compressibility (1/GPa) = 0.01668514
#
# Stress axis : x y z
#
# Youngs Moduli (GPa) = 68.65976 46.84236 77.49255
#
# Poissons Ratio (x) = 0.42045 0.26594
# Poissons Ratio (y) = 0.61627 0.28350
# Poissons Ratio (z) = 0.23563 0.17137
#
# Static dielectric constant tensor:
#      x y z
#    x 1.713580 0.000000 0.000090 
#    y 0.000000 1.666600 0.000000 
#    z 0.000090 0.000000 1.685360 
# 
# From -- ./inp_files/309995.got.cif
#   From: 2010.05.17/outbox.cif.g08.bks.cpg/sg15_155_cif.got.tgz:309995.got - 2010.06.03 18:47:42.
