data_PCOD9292266
_publ_section_title
;
Structure prediction by ZEFSAII (Michael W. Deem and Ramdas Pophale) SiO2 
 PCOD9292266
Probable space group: C 2/C
;
_chemical_formula_sum "Si O2"
_cell_formula_units_Z 32
_cell_length_a 8.122181
_cell_length_b 37.831375
_cell_length_c 5.175892
_cell_angle_alpha 90.000000
_cell_angle_beta 116.474710
_cell_angle_gamma 90.000000
_cell_volume 1423.628591
_symmetry_space_group_name_H-M "C 2/C"
_symmetry_group_IT_number 15
_symmetry_cell_setting 'monoclinic'
loop_
_space_group_symop_operation_xyz
x,y,z
-x,y,1/2-z
-x,-y,-z
x,-y,1/2+z
1/2+x,1/2+y,z
1/2-x,1/2+y,1/2-z
1/2-x,1/2-y,-z
1/2+x,1/2-y,1/2+z
loop_
_atom_site_type_symbol
_atom_site_label
_atom_site_fract_x
_atom_site_fract_y
_atom_site_fract_z
Si Si1 0.157009 0.799695 0.654633
Si Si2 0.720714 0.085538 0.917160
Si Si3 0.000000 0.266466 0.750000
Si Si4 0.221793 0.370623 0.917101
Si Si5 0.500000 0.524815 0.250000
O O1 0.095850 0.761904 0.503347
O O2 0.372591 0.790349 0.848625
O O3 0.184821 0.832686 0.481712
O O4 0.000000 0.809066 0.750000
O O5 0.500000 0.079878 0.750000
O O6 0.773411 0.101623 0.676056
O O7 0.768488 0.114444 0.167828
O O8 0.826474 0.050646 0.081460
O O9 0.000000 0.367293 0.750000
O O10 0.500000 0.500000 0.500000
#
# Coordination Sequence:
#
# PCOD9292266 Si02
#       5
#     8   8   4   8   4
#     4  11  23  40  62  92 128 184 233 295 361 413
#     4  10  24  45  70 101 142 181 227 284 347 409
#     4  10  24  42  57  90 136 172 242 290 362 432
#     4  10  22  43  68  98 135 182 234 292 345 414
#     4  12  26  44  71 108 142 178 226 276 332 426
#
# _framework density 22.477772000000002
#
# number of rings (size 3 to 8) (size 9 to 14) (size 15 to 20)
#    0.000    1.500    1.250    2.250    5.250    1.000 
#    0.000    0.000    0.000    0.000    0.000    0.000 
#    0.000    0.000    0.000    0.000    0.000    0.000 
#
# Total GULP energy -89201.786203 kJ/mol
# GULP energy per Si atom -5575.111638 kJ/mol
# Density = 2.242661 g / cm^3
# Si number density = 22.477772 Si / 1000 Ang^3
#
#
#
# Elastic Constant Matrix: (Units=GPa)
#
#
# Indices 1 2 3 4 5 6 
#
# 1 115.8266 48.3585 39.9849 0.0000 -0.0715 0.0000
# 2 48.3585 113.3341 34.1395 0.0000 13.0108 0.0000
# 3 39.9849 34.1395 108.9341 0.0000 0.0203 0.0000
# 4 0.0000 0.0000 0.0000 43.2116 0.0000 5.9815
# 5 -0.0715 13.0108 0.0203 0.0000 24.8979 0.0000
# 6 0.0000 0.0000 0.0000 5.9815 0.0000 28.0485
#
#
#
# Elastic Compliance Matrix: (Units=1/GPa)
#
#
# Indices 1 2 3 4 5 6 
#
# 1 0.011399 -0.004266 -0.002848 0.000000 0.002264 0.000000
# 2 -0.004266 0.012030 -0.002203 0.000000 -0.006297 0.000000
# 3 -0.002848 -0.002203 0.010915 0.000000 0.001134 0.000000
# 4 0.000000 0.000000 0.000000 0.023846 0.000000 -0.005085
# 5 0.002264 -0.006297 0.001134 0.000000 0.043460 0.000000
# 6 0.000000 0.000000 0.000000 -0.005085 0.000000 0.036737
#
#
# Mechanical properties :
#
#
# Convention : Reuss Voigt Hill
#
# Bulk Modulus (GPa) = 63.64914 64.78451 64.21682
# Shear Modulus (GPa) = 30.81500 33.60574 32.21037
#
# Velocity S-wave (km/s) = 3.70660 3.87080 3.78959
# Velocity P-wave (km/s) = 6.83348 6.99011 6.91224
#
# Compressibility (1/GPa) = 0.01571113
#
# Stress axis : x y z
#
# Youngs Moduli (GPa) = 87.72607 83.12323 91.61418
#
# Poissons Ratio (x) = 0.35461 0.26088
# Poissons Ratio (y) = 0.37425 0.20184
# Poissons Ratio (z) = 0.24981 0.18314
#
# Static dielectric constant tensor:
#      x y z
#    x 1.948030 0.000000 0.061960 
#    y 0.000000 1.797720 0.000000 
#    z 0.061960 0.000000 1.864390 
# 
# From -- ./inp_files/2739.got.cif
#   From: 2010.05.17/outbox.cif.g08.bks.cpg/sg15_2_cif.got.tgz:2739.got - 2010.06.03 18:47:42.
