data_PCOD9292681
_publ_section_title
;
Structure prediction by ZEFSAII (Michael W. Deem and Ramdas Pophale) SiO2 
 PCOD9292681
Probable space group: C 2/C
;
_chemical_formula_sum "Si O2"
_cell_formula_units_Z 28
_cell_length_a 17.803129
_cell_length_b 6.949720
_cell_length_c 9.996106
_cell_angle_alpha 90.000000
_cell_angle_beta 81.192220
_cell_angle_gamma 90.000000
_cell_volume 1222.201150
_symmetry_space_group_name_H-M "C 2/C"
_symmetry_group_IT_number 15
_symmetry_cell_setting 'monoclinic'
loop_
_space_group_symop_operation_xyz
x,y,z
-x,y,1/2-z
-x,-y,-z
x,-y,1/2+z
1/2+x,1/2+y,z
1/2-x,1/2+y,1/2-z
1/2-x,1/2-y,-z
1/2+x,1/2-y,1/2+z
loop_
_atom_site_type_symbol
_atom_site_label
_atom_site_fract_x
_atom_site_fract_y
_atom_site_fract_z
Si Si1 0.500000 0.506761 0.250000
Si Si2 0.661075 0.566609 0.617930
Si Si3 0.960411 0.611026 0.628012
Si Si4 0.193070 0.777293 0.828216
O O1 0.425444 0.394226 0.315055
O O2 0.520253 0.659720 0.363326
O O3 0.722018 0.711151 0.665504
O O4 0.680934 0.366529 0.685579
O O5 0.672574 0.577417 0.455772
O O6 0.869313 0.607273 0.643548
O O7 0.000000 0.532277 0.750000
O O8 0.000000 0.500000 0.500000
#
# Coordination Sequence:
#
# PCOD9292681 Si02
#       4
#     4   8   8   8
#     4   8  20  44  62  92 124 172 204 258 312 380
#     4  10  22  44  66  93 129 165 215 256 321 372
#     4   9  20  41  62  93 126 160 209 256 313 369
#     4  10  23  44  62  97 126 170 209 262 316 374
#
# _framework density 22.909486000000001
#
# number of rings (size 3 to 8) (size 9 to 14) (size 15 to 20)
#    0.857    1.714    0.000    0.000    0.000   10.286 
#   18.000    0.000    0.000    0.000    0.000    0.000 
#    0.000    0.000    0.000    0.000    0.000    0.000 
#
# Total GULP energy -78105.338258 kJ/mol
# GULP energy per Si atom -5578.952733 kJ/mol
# Density = 2.285734 g / cm^3
# Si number density = 22.909486 Si / 1000 Ang^3
#
#
#
# Elastic Constant Matrix: (Units=GPa)
#
#
# Indices 1 2 3 4 5 6 
#
# 1 173.2227 38.0639 47.3054 0.0000 -18.0960 0.0000
# 2 38.0639 41.3036 36.7852 0.0000 -17.9534 0.0000
# 3 47.3054 36.7852 109.1632 0.0000 2.4929 0.0000
# 4 0.0000 0.0000 0.0000 32.0325 0.0000 -15.9718
# 5 -18.0960 -17.9534 2.4929 0.0000 39.7903 0.0000
# 6 0.0000 0.0000 0.0000 -15.9718 0.0000 29.5009
#
#
#
# Elastic Compliance Matrix: (Units=1/GPa)
#
#
# Indices 1 2 3 4 5 6 
#
# 1 0.007410 -0.004831 -0.001612 0.000000 0.001291 0.000000
# 2 -0.004831 0.053103 -0.016321 0.000000 0.022785 0.000000
# 3 -0.001612 -0.016321 0.015566 0.000000 -0.009073 0.000000
# 4 0.000000 0.000000 0.000000 0.042762 0.000000 0.023151
# 5 0.001291 0.022785 -0.009073 0.000000 0.036568 0.000000
# 6 0.000000 0.000000 0.000000 0.023151 0.000000 0.046431
#
#
# Mechanical properties :
#
#
# Convention : Reuss Voigt Hill
#
# Bulk Modulus (GPa) = 32.73383 63.11095 47.92239
# Shear Modulus (GPa) = 19.41344 33.70039 26.55692
#
# Velocity S-wave (km/s) = 2.91417 3.83955 3.40841
# Velocity P-wave (km/s) = 5.06384 6.87488 6.03765
#
# Compressibility (1/GPa) = 0.03054943
#
# Stress axis : x y z
#
# Youngs Moduli (GPa) = 134.95716 18.83127 64.24133
#
# Poissons Ratio (x) = 0.09098 0.10358
# Poissons Ratio (y) = 0.65203 1.04849
# Poissons Ratio (z) = 0.21761 0.30735
#
# Static dielectric constant tensor:
#      x y z
#    x 1.892770 0.000000 0.015280 
#    y 0.000000 1.907300 0.000000 
#    z 0.015280 0.000000 1.824530 
# 
# From -- ./inp_files/45401.got.cif
#   From: 2010.05.17/outbox.cif.g08.bks.cpg/sg15_23_cif.got.tgz:45401.got - 2010.06.03 18:47:42.
