data_PCOD9292105
_publ_section_title
;
Structure prediction by ZEFSAII (Michael W. Deem and Ramdas Pophale) SiO2 
 PCOD9292105
Probable space group: C 2/C
;
_chemical_formula_sum "Si O2"
_cell_formula_units_Z 48
_cell_length_a 14.969117
_cell_length_b 11.983070
_cell_length_c 12.972555
_cell_angle_alpha 90.000000
_cell_angle_beta 55.248232
_cell_angle_gamma 90.000000
_cell_volume 1911.902512
_symmetry_space_group_name_H-M "C 2/C"
_symmetry_group_IT_number 15
_symmetry_cell_setting 'monoclinic'
loop_
_space_group_symop_operation_xyz
x,y,z
-x,y,1/2-z
-x,-y,-z
x,-y,1/2+z
1/2+x,1/2+y,z
1/2-x,1/2+y,1/2-z
1/2-x,1/2-y,-z
1/2+x,1/2-y,1/2+z
loop_
_atom_site_type_symbol
_atom_site_label
_atom_site_fract_x
_atom_site_fract_y
_atom_site_fract_z
Si Si1 0.820764 0.380276 0.866951
Si Si2 0.893321 0.519600 0.508998
Si Si3 0.798414 0.593673 0.763823
Si Si4 0.905916 0.844667 0.381453
Si Si5 0.546011 0.628251 0.978251
Si Si6 0.628323 0.208222 0.584399
O O1 0.814634 0.460825 0.774504
O O2 0.855521 0.252596 0.842675
O O3 0.908519 0.425852 0.889043
O O4 0.703403 0.400765 0.001118
O O5 0.824216 0.601278 0.626900
O O6 0.860370 0.395509 0.500578
O O7 0.000000 0.500000 0.500000
O O8 0.673067 0.623021 0.864802
O O9 0.876759 0.658787 0.794036
O O10 0.000000 0.903603 0.250000
O O11 0.971828 0.809791 0.441738
O O12 0.500000 0.500000 0.000000
O O13 0.550806 0.696227 0.084202
O O14 0.750000 0.250000 0.500000
#
# Coordination Sequence:
#
# PCOD9292105 Si02
#       6
#     8   8   8   8   8   8
#     4  10  23  40  61 100 125 166 224 272 323 403
#     4  11  23  41  66  92 132 177 222 267 338 399
#     4  10  22  43  66  95 132 171 216 278 333 394
#     4  11  23  39  66  92 131 167 216 273 332 393
#     4  11  21  42  68  95 129 174 217 269 335 404
#     4   9  22  42  66  95 135 168 218 280 332 398
#
# _framework density 25.105882999999999
#
# number of rings (size 3 to 8) (size 9 to 14) (size 15 to 20)
#    0.000    1.667    1.667    2.000    4.667    2.000 
#    3.000    1.667    0.000    0.000    0.000    0.000 
#    0.000    0.000    0.000    0.000    0.000    0.000 
#
# Total GULP energy -133784.223205 kJ/mol
# GULP energy per Si atom -5574.342634 kJ/mol
# Density = 2.504874 g / cm^3
# Si number density = 25.105883 Si / 1000 Ang^3
#
#
#
# Elastic Constant Matrix: (Units=GPa)
#
#
# Indices 1 2 3 4 5 6 
#
# 1 145.2687 42.5416 40.8839 0.0000 21.7848 0.0000
# 2 42.5416 103.2126 29.3103 0.0000 10.1510 0.0000
# 3 40.8839 29.3103 105.8174 0.0000 -0.8205 0.0000
# 4 0.0000 0.0000 0.0000 31.2967 0.0000 7.4581
# 5 21.7848 10.1510 -0.8205 0.0000 42.2661 0.0000
# 6 0.0000 0.0000 0.0000 7.4581 0.0000 46.9210
#
#
#
# Elastic Compliance Matrix: (Units=1/GPa)
#
#
# Indices 1 2 3 4 5 6 
#
# 1 0.009031 -0.002517 -0.002824 0.000000 -0.004105 0.000000
# 2 -0.002517 0.011507 -0.002227 0.000000 -0.001510 0.000000
# 3 -0.002824 -0.002227 0.011175 0.000000 0.002207 0.000000
# 4 0.000000 0.000000 0.000000 0.033210 0.000000 -0.005279
# 5 -0.004105 -0.001510 0.002207 0.000000 0.026181 0.000000
# 6 0.000000 0.000000 0.000000 -0.005279 0.000000 0.022151
#
#
# Mechanical properties :
#
#
# Convention : Reuss Voigt Hill
#
# Bulk Modulus (GPa) = 60.31901 64.41893 62.36897
# Shear Modulus (GPa) = 37.33661 40.20097 38.76879
#
# Velocity S-wave (km/s) = 3.86056 4.00591 3.93391
# Velocity P-wave (km/s) = 6.62947 6.86375 6.74763
#
# Compressibility (1/GPa) = 0.01657852
#
# Stress axis : x y z
#
# Youngs Moduli (GPa) = 110.72684 86.90471 89.48372
#
# Poissons Ratio (x) = 0.21871 0.25271
# Poissons Ratio (y) = 0.27867 0.19925
# Poissons Ratio (z) = 0.31270 0.19350
#
# Static dielectric constant tensor:
#      x y z
#    x 1.972400 0.000000 -0.078040 
#    y 0.000000 2.193380 0.000000 
#    z -0.078040 0.000000 2.165010 
# 
# From -- ./inp_files/96216.got.cif
#   From: 2010.05.17/outbox.cif.g08.bks.cpg/sg15_49_cif.got.tgz:96216.got - 2010.06.03 18:47:42.
