data_PCOD9292863
_publ_section_title
;
Structure prediction by ZEFSAII (Michael W. Deem and Ramdas Pophale) SiO2 
 PCOD9292863
Probable space group: C 2/C
;
_chemical_formula_sum "Si O2"
_cell_formula_units_Z 44
_cell_length_a 15.884288
_cell_length_b 10.724229
_cell_length_c 21.770521
_cell_angle_alpha 90.000000
_cell_angle_beta 145.959339
_cell_angle_gamma 90.000000
_cell_volume 2075.969119
_symmetry_space_group_name_H-M "C 2/C"
_symmetry_group_IT_number 15
_symmetry_cell_setting 'monoclinic'
loop_
_space_group_symop_operation_xyz
x,y,z
-x,y,1/2-z
-x,-y,-z
x,-y,1/2+z
1/2+x,1/2+y,z
1/2-x,1/2+y,1/2-z
1/2-x,1/2-y,-z
1/2+x,1/2-y,1/2+z
loop_
_atom_site_type_symbol
_atom_site_label
_atom_site_fract_x
_atom_site_fract_y
_atom_site_fract_z
Si Si1 0.272340 0.040402 0.394086
Si Si2 0.901554 0.669984 0.902523
Si Si3 0.509134 0.617098 0.961326
Si Si4 0.000000 0.513579 0.750000
Si Si5 0.745959 0.601746 0.007444
Si Si6 0.324743 0.217203 0.723401
O O1 0.437959 0.102004 0.496704
O O2 0.169909 0.156754 0.312966
O O3 0.279919 0.935995 0.345224
O O4 0.247868 0.973505 0.444491
O O5 0.887890 0.776740 0.945065
O O6 0.899151 0.731388 0.834557
O O7 0.589853 0.576346 0.948175
O O8 0.500000 0.500000 0.000000
O O9 0.345680 0.679575 0.861628
O O10 0.113488 0.438570 0.863707
O O11 0.101435 0.603628 0.768840
O O12 0.750000 0.750000 0.000000
#
# Coordination Sequence:
#
# PCOD9292863 Si02
#       6
#     8   8   8   4   8   8
#     4  10  23  44  71 101 141 185 234 291 352 416
#     4  10  22  44  69 101 138 184 233 288 344 418
#     4  11  24  42  70 105 136 181 228 293 347 412
#     4  12  26  46  74 100 144 194 230 294 366 424
#     4  12  25  48  73 105 146 181 239 301 357 417
#     4  11  25  43  73 101 142 190 232 285 356 429
#
# _framework density 21.194921000000001
#
# number of rings (size 3 to 8) (size 9 to 14) (size 15 to 20)
#    0.000    1.091    5.455    0.000    2.545    3.636 
#    0.000    0.000    0.000    0.000    0.000    0.000 
#    0.000    0.000    0.000    0.000    0.000    0.000 
#
# Total GULP energy -122882.393322 kJ/mol
# GULP energy per Si atom -5585.563333 kJ/mol
# Density = 2.114668 g / cm^3
# Si number density = 21.194921 Si / 1000 Ang^3
#
#
#
# Elastic Constant Matrix: (Units=GPa)
#
#
# Indices 1 2 3 4 5 6 
#
# 1 130.1008 57.1358 32.6477 0.0000 -17.8764 0.0000
# 2 57.1358 130.0296 42.1277 0.0000 -7.3029 0.0000
# 3 32.6477 42.1277 67.2486 -0.0001 -14.4614 0.0000
# 4 0.0000 0.0000 -0.0001 30.2463 0.0000 -8.7124
# 5 -17.8764 -7.3029 -14.4614 0.0000 31.0455 0.0000
# 6 0.0000 0.0000 0.0000 -8.7124 0.0000 42.0653
#
#
#
# Elastic Compliance Matrix: (Units=1/GPa)
#
#
# Indices 1 2 3 4 5 6 
#
# 1 0.010358 -0.003738 -0.001770 0.000000 0.004260 0.000000
# 2 -0.003738 0.011008 -0.005543 0.000000 -0.002145 0.000000
# 3 -0.001770 -0.005543 0.020784 0.000000 0.007358 0.000000
# 4 0.000000 0.000000 0.000000 0.035160 0.000000 0.007282
# 5 0.004260 -0.002145 0.007358 0.000000 0.037587 0.000000
# 6 0.000000 0.000000 0.000000 0.007282 0.000000 0.025281
#
#
# Mechanical properties :
#
#
# Convention : Reuss Voigt Hill
#
# Bulk Modulus (GPa) = 49.88132 65.68906 57.78519
# Shear Modulus (GPa) = 29.59228 33.70260 31.64744
#
# Velocity S-wave (km/s) = 3.74063 3.99196 3.86834
# Velocity P-wave (km/s) = 6.49939 7.23241 6.87568
#
# Compressibility (1/GPa) = 0.02004758
#
# Stress axis : x y z
#
# Youngs Moduli (GPa) = 96.54604 90.83898 48.11350
#
# Poissons Ratio (x) = 0.33959 0.08518
# Poissons Ratio (y) = 0.36093 0.26667
# Poissons Ratio (z) = 0.17093 0.50348
#
# Static dielectric constant tensor:
#      x y z
#    x 1.408610 0.000000 -0.359710 
#    y 0.000000 1.582590 0.000000 
#    z -0.359710 0.000000 1.396610 
# 
# From -- ./inp_files/243833.got.cif
#   From: 2010.05.17/outbox.cif.g08.bks.cpg/sg15_122_cif.got.tgz:243833.got - 2010.06.03 18:47:42.
