data_PCOD9292257
_publ_section_title
;
Structure prediction by ZEFSAII (Michael W. Deem and Ramdas Pophale) SiO2 
 PCOD9292257
Probable space group: C 2/C
;
_chemical_formula_sum "Si O2"
_cell_formula_units_Z 40
_cell_length_a 9.848531
_cell_length_b 11.929309
_cell_length_c 16.915189
_cell_angle_alpha 90.000000
_cell_angle_beta 50.527942
_cell_angle_gamma 90.000000
_cell_volume 1534.066406
_symmetry_space_group_name_H-M "C 2/C"
_symmetry_group_IT_number 15
_symmetry_cell_setting 'monoclinic'
loop_
_space_group_symop_operation_xyz
x,y,z
-x,y,1/2-z
-x,-y,-z
x,-y,1/2+z
1/2+x,1/2+y,z
1/2-x,1/2+y,1/2-z
1/2-x,1/2-y,-z
1/2+x,1/2-y,1/2+z
loop_
_atom_site_type_symbol
_atom_site_label
_atom_site_fract_x
_atom_site_fract_y
_atom_site_fract_z
Si Si1 0.479383 0.848235 0.583223
Si Si2 0.672691 0.722499 0.279727
Si Si3 0.684770 0.309033 0.121239
Si Si4 0.542762 0.059262 0.645309
Si Si5 0.070336 0.026221 0.062061
O O1 0.289121 0.794165 0.657976
O O2 0.615986 0.797761 0.597804
O O3 0.602213 0.824482 0.464397
O O4 0.446127 0.974640 0.621286
O O5 0.820493 0.772020 0.285849
O O6 0.535872 0.819309 0.320337
O O7 0.568913 0.612536 0.347722
O O8 0.600675 0.419746 0.110659
O O9 0.500000 0.011752 0.750000
O O10 0.735102 0.066943 0.534633
O O11 0.000000 0.000000 0.000000
#
# Coordination Sequence:
#
# PCOD9292257 Si02
#       5
#     8   8   8   8   8
#     4  10  22  43  68  97 128 179 228 279 341 422
#     4  12  25  42  71 100 140 176 230 289 350 411
#     4  10  23  44  72  97 132 183 236 278 347 426
#     4  11  25  43  65  99 137 179 225 281 351 415
#     4  11  24  44  72  97 137 180 231 284 349 414
#
# _framework density 26.074490000000001
#
# number of rings (size 3 to 8) (size 9 to 14) (size 15 to 20)
#    0.000    1.200    0.000    7.200    8.400    3.200 
#    3.600    0.000    0.000    0.000    0.000    0.000 
#    0.000    0.000    0.000    0.000    0.000    0.000 
#
# Total GULP energy -111727.125882 kJ/mol
# GULP energy per Si atom -5586.356294 kJ/mol
# Density = 2.601514 g / cm^3
# Si number density = 26.074490 Si / 1000 Ang^3
#
#
#
# Elastic Constant Matrix: (Units=GPa)
#
#
# Indices 1 2 3 4 5 6 
#
# 1 75.7538 28.6977 0.2609 0.0000 -2.5153 0.0000
# 2 28.6977 119.7310 38.0896 0.0000 -18.9647 0.0000
# 3 0.2609 38.0896 140.7299 0.0000 -16.9602 0.0000
# 4 0.0000 0.0000 0.0000 -3.2152 0.0000 -19.2105
# 5 -2.5153 -18.9647 -16.9602 0.0000 37.1193 0.0000
# 6 0.0000 0.0000 0.0000 -19.2105 0.0000 27.9307
#
#
#
# Elastic Compliance Matrix: (Units=1/GPa)
#
#
# Indices 1 2 3 4 5 6 
#
# 1 0.014660 -0.003909 0.000963 0.000000 -0.000564 0.000000
# 2 -0.003909 0.010701 -0.002394 0.000000 0.004109 0.000000
# 3 0.000963 -0.002394 0.008056 0.000000 0.002523 0.000000
# 4 0.000000 0.000000 0.000000 -0.060872 0.000000 -0.041867
# 5 -0.000564 0.004109 0.002523 0.000000 0.030154 0.000000
# 6 0.000000 0.000000 0.000000 -0.041867 0.000000 0.007007
#
#
# Mechanical properties :
#
#
# Convention : Reuss Voigt Hill
#
# Bulk Modulus (GPa) = 43.98261 52.25680 48.11971
# Shear Modulus (GPa) = 178.78772 30.31139 104.54955
#
# Velocity S-wave (km/s) = 8.28957 3.41323 6.33905
# Velocity P-wave (km/s) = 10.41764 5.96812 8.48957
#
# Compressibility (1/GPa) = 0.02273626
#
# Stress axis : x y z
#
# Youngs Moduli (GPa) = 68.21476 93.44509 124.13035
#
# Poissons Ratio (x) = 0.36531 -0.11953
# Poissons Ratio (y) = 0.26668 0.29717
# Poissons Ratio (z) = -0.06569 0.22371
#
# Static dielectric constant tensor:
#      x y z
#    x 2.085990 0.000000 -0.021020 
#    y 0.000000 2.056440 0.000000 
#    z -0.021020 0.000000 2.174780 
# 
# From -- ./inp_files/237376.got.cif
#   From: 2010.05.17/outbox.cif.g08.bks.cpg/sg15_119_cif.got.tgz:237376.got - 2010.06.03 18:47:42.
