data_PCOD9292296
_publ_section_title
;
Structure prediction by ZEFSAII (Michael W. Deem and Ramdas Pophale) SiO2 
 PCOD9292296
Probable space group: C 2/C
;
_chemical_formula_sum "Si O2"
_cell_formula_units_Z 60
_cell_length_a 22.170656
_cell_length_b 23.164184
_cell_length_c 8.959877
_cell_angle_alpha 90.000000
_cell_angle_beta 42.661459
_cell_angle_gamma 90.000000
_cell_volume 3118.263116
_symmetry_space_group_name_H-M "C 2/C"
_symmetry_group_IT_number 15
_symmetry_cell_setting 'monoclinic'
loop_
_space_group_symop_operation_xyz
x,y,z
-x,y,1/2-z
-x,-y,-z
x,-y,1/2+z
1/2+x,1/2+y,z
1/2-x,1/2+y,1/2-z
1/2-x,1/2-y,-z
1/2+x,1/2-y,1/2+z
loop_
_atom_site_type_symbol
_atom_site_label
_atom_site_fract_x
_atom_site_fract_y
_atom_site_fract_z
Si Si1 0.000000 0.006597 0.750000
Si Si2 0.155170 0.270943 0.728398
Si Si3 0.908952 0.075921 0.170756
Si Si4 0.931355 0.491666 0.254158
Si Si5 0.603350 0.123985 0.105783
Si Si6 0.796500 0.398650 0.380061
Si Si7 0.332647 0.778337 0.436907
Si Si8 0.508480 0.697709 0.414254
O O1 0.069450 0.044896 0.526446
O O2 0.050540 0.965831 0.775949
O O3 0.250000 0.250000 0.500000
O O4 0.130427 0.330548 0.686317
O O5 0.163405 0.272134 0.892653
O O6 0.078698 0.222612 0.847056
O O7 0.807105 0.088525 0.402987
O O8 0.958381 0.137486 0.080744
O O9 0.897958 0.555754 0.353923
O O10 0.852257 0.453022 0.336430
O O11 0.000000 0.465138 0.250000
O O12 0.000000 0.500000 0.000000
O O13 0.500000 0.137433 0.250000
O O14 0.672716 0.123436 0.840452
O O15 0.827251 0.345844 0.424171
O O16 0.250000 0.750000 0.500000
O O17 0.418364 0.748110 0.209475
O O18 0.500000 0.688023 0.250000
#
# Coordination Sequence:
#
# PCOD9292296 Si02
#       8
#     4   8   8   8   8   8   8   8
#     4  10  26  46  66  94 134 168 224 280 346 394
#     4  11  26  42  67 102 132 178 225 281 342 412
#     4  11  24  46  69  97 127 176 225 282 340 400
#     4  11  24  43  65  97 138 183 223 277 350 413
#     4  11  24  45  66  99 141 181 225 282 344 411
#     4  12  25  41  71  97 135 178 230 283 335 420
#     4  11  23  43  66  97 132 175 226 279 341 410
#     4  10  22  43  69  91 132 174 216 273 341 394
#
# _framework density 19.241481
#
# number of rings (size 3 to 8) (size 9 to 14) (size 15 to 20)
#    0.000    1.067    4.667    1.600    5.600    1.600 
#    6.000    0.000    0.000    0.000    0.000    0.000 
#    0.000    0.000    0.000    0.000    0.000    0.000 
#
# Total GULP energy -167259.069165 kJ/mol
# GULP energy per Si atom -5575.302306 kJ/mol
# Density = 1.919769 g / cm^3
# Si number density = 19.241481 Si / 1000 Ang^3
#
#
#
# Elastic Constant Matrix: (Units=GPa)
#
#
# Indices 1 2 3 4 5 6 
#
# 1 81.5151 46.9849 45.0834 0.0000 -6.9879 0.0000
# 2 46.9849 117.8241 56.1165 0.0000 -21.1233 0.0000
# 3 45.0834 56.1165 154.8875 0.0000 -14.9894 0.0000
# 4 0.0000 0.0000 0.0000 60.0784 0.0000 32.7797
# 5 -6.9879 -21.1233 -14.9894 0.0000 29.1771 0.0000
# 6 0.0000 0.0000 0.0000 32.7797 0.0000 76.7583
#
#
#
# Elastic Compliance Matrix: (Units=1/GPa)
#
#
# Indices 1 2 3 4 5 6 
#
# 1 0.017081 -0.005622 -0.003086 0.000000 -0.001565 0.000000
# 2 -0.005622 0.013136 -0.002455 0.000000 0.006902 0.000000
# 3 -0.003086 -0.002455 0.008419 0.000000 0.001809 0.000000
# 4 0.000000 0.000000 0.000000 0.021701 0.000000 -0.009268
# 5 -0.001565 0.006902 0.001809 0.000000 0.039825 0.000000
# 6 0.000000 0.000000 0.000000 -0.009268 0.000000 0.016986
#
#
# Mechanical properties :
#
#
# Convention : Reuss Voigt Hill
#
# Bulk Modulus (GPa) = 61.31386 72.28849 66.80117
# Shear Modulus (GPa) = 34.50405 46.93888 40.72146
#
# Velocity S-wave (km/s) = 4.23923 4.94445 4.60536
# Velocity P-wave (km/s) = 7.47636 8.38137 7.94177
#
# Compressibility (1/GPa) = 0.01630953
#
# Stress axis : x y z
#
# Youngs Moduli (GPa) = 58.54473 76.12860 118.77800
#
# Poissons Ratio (x) = 0.42799 0.36659
# Poissons Ratio (y) = 0.32914 0.29157
# Poissons Ratio (z) = 0.18069 0.18688
#
# Static dielectric constant tensor:
#      x y z
#    x 1.674980 0.000000 0.005130 
#    y 0.000000 1.270920 0.000000 
#    z 0.005130 0.000000 1.689810 
# 
# From -- ./inp_files/58735.got.cif
#   From: 2010.05.17/outbox.cif.g08.bks.cpg/sg15_30_cif.got.tgz:58735.got - 2010.06.03 18:47:42.
