data_PCOD9292237
_publ_section_title
;
Structure prediction by ZEFSAII (Michael W. Deem and Ramdas Pophale) SiO2 
 PCOD9292237
Probable space group: C 2/C
;
_chemical_formula_sum "Si O2"
_cell_formula_units_Z 56
_cell_length_a 9.622243
_cell_length_b 12.509842
_cell_length_c 28.747094
_cell_angle_alpha 90.000000
_cell_angle_beta 133.627697
_cell_angle_gamma 90.000000
_cell_volume 2504.746164
_symmetry_space_group_name_H-M "C 2/C"
_symmetry_group_IT_number 15
_symmetry_cell_setting 'monoclinic'
loop_
_space_group_symop_operation_xyz
x,y,z
-x,y,1/2-z
-x,-y,-z
x,-y,1/2+z
1/2+x,1/2+y,z
1/2-x,1/2+y,1/2-z
1/2-x,1/2-y,-z
1/2+x,1/2-y,1/2+z
loop_
_atom_site_type_symbol
_atom_site_label
_atom_site_fract_x
_atom_site_fract_y
_atom_site_fract_z
Si Si1 0.250706 0.227595 0.874845
Si Si2 0.990410 0.379510 0.984285
Si Si3 0.000000 0.917602 0.250000
Si Si4 0.817874 0.893616 0.758097
Si Si5 0.559343 0.193537 0.125082
Si Si6 0.379354 0.278027 0.573138
Si Si7 0.000000 0.521030 0.250000
Si Si8 0.408770 0.179971 0.667882
O O1 0.161623 0.156859 0.812284
O O2 0.408230 0.311314 0.891490
O O3 0.076546 0.273147 0.864220
O O4 0.382240 0.173626 0.945745
O O5 0.050753 0.348143 0.945963
O O6 0.760902 0.354591 0.930946
O O7 0.000000 0.500000 0.000000
O O8 0.934519 0.996739 0.276912
O O9 0.700705 0.889433 0.682474
O O10 0.942424 0.781795 0.789436
O O11 0.669216 0.908558 0.766294
O O12 0.702487 0.287440 0.141410
O O13 0.250000 0.250000 0.500000
O O14 0.399060 0.174706 0.610177
O O15 0.042820 0.434380 0.300345
#
# Coordination Sequence:
#
# PCOD9292237 Si02
#       8
#     8   8   4   8   8   8   4   8
#     4  11  24  39  67 100 126 179 229 276 350 408
#     4  10  22  43  68  92 130 179 225 276 339 416
#     4  12  23  41  66  98 132 174 231 275 346 424
#     4  12  25  41  65 101 138 182 231 280 347 418
#     4  11  22  42  65  93 137 174 226 282 336 409
#     4   9  22  42  67  89 132 175 221 277 340 404
#     4  12  25  41  68 102 136 186 231 283 342 410
#     4  11  22  46  65  92 145 179 218 289 346 399
#
# _framework density 22.357555000000001
#
# number of rings (size 3 to 8) (size 9 to 14) (size 15 to 20)
#    0.000    1.143    2.857    3.000    6.000    1.143 
#    0.000    0.714    0.000    0.000    0.000    0.000 
#    0.000    0.000    0.000    0.000    0.000    0.000 
#
# Total GULP energy -156007.156624 kJ/mol
# GULP energy per Si atom -5571.684165 kJ/mol
# Density = 2.230667 g / cm^3
# Si number density = 22.357555 Si / 1000 Ang^3
#
#
#
# Elastic Constant Matrix: (Units=GPa)
#
#
# Indices 1 2 3 4 5 6 
#
# 1 129.8831 6.4067 11.1728 0.0000 12.8822 0.0000
# 2 6.4067 43.2060 22.8900 0.0000 6.1048 0.0000
# 3 11.1728 22.8900 140.1474 0.0000 -18.7375 0.0000
# 4 0.0000 0.0000 0.0000 29.2348 0.0000 5.5704
# 5 12.8822 6.1048 -18.7375 0.0000 41.2880 0.0000
# 6 0.0000 0.0000 0.0000 5.5704 0.0000 12.8412
#
#
#
# Elastic Compliance Matrix: (Units=1/GPa)
#
#
# Indices 1 2 3 4 5 6 
#
# 1 0.008089 -0.000257 -0.000996 0.000000 -0.002938 0.000000
# 2 -0.000257 0.026817 -0.005194 0.000000 -0.006242 0.000000
# 3 -0.000996 -0.005194 0.008737 0.000000 0.005044 0.000000
# 4 0.000000 0.000000 0.000000 0.037288 0.000000 -0.016175
# 5 -0.002938 -0.006242 0.005044 0.000000 0.028349 0.000000
# 6 0.000000 0.000000 0.000000 -0.016175 0.000000 0.084891
#
#
# Mechanical properties :
#
#
# Convention : Reuss Voigt Hill
#
# Bulk Modulus (GPa) = 32.52036 43.79728 38.15882
# Shear Modulus (GPa) = 23.00819 34.85726 28.93272
#
# Velocity S-wave (km/s) = 3.21144 3.95280 3.60125
# Velocity P-wave (km/s) = 5.32243 6.36120 5.86486
#
# Compressibility (1/GPa) = 0.03074997
#
# Stress axis : x y z
#
# Youngs Moduli (GPa) = 123.62585 37.29015 114.45042
#
# Poissons Ratio (x) = 0.00958 0.11396
# Poissons Ratio (y) = 0.03175 0.59446
# Poissons Ratio (z) = 0.12309 0.19369
#
# Static dielectric constant tensor:
#      x y z
#    x 1.945840 0.000000 -0.024630 
#    y 0.000000 1.796620 0.000000 
#    z -0.024630 0.000000 2.007760 
# 
# From -- ./inp_files/264254.got.cif
#   From: 2010.05.17/outbox.cif.g08.bks.cpg/sg15_133_cif.got.tgz:264254.got - 2010.06.03 18:47:42.
