data_PCOD9292245
_publ_section_title
;
Structure prediction by ZEFSAII (Michael W. Deem and Ramdas Pophale) SiO2 
 PCOD9292245
Probable space group: C 2/C
;
_chemical_formula_sum "Si O2"
_cell_formula_units_Z 36
_cell_length_a 5.805510
_cell_length_b 29.199243
_cell_length_c 10.446897
_cell_angle_alpha 90.000000
_cell_angle_beta 59.812925
_cell_angle_gamma 90.000000
_cell_volume 1530.763644
_symmetry_space_group_name_H-M "C 2/C"
_symmetry_group_IT_number 15
_symmetry_cell_setting 'monoclinic'
loop_
_space_group_symop_operation_xyz
x,y,z
-x,y,1/2-z
-x,-y,-z
x,-y,1/2+z
1/2+x,1/2+y,z
1/2-x,1/2+y,1/2-z
1/2-x,1/2-y,-z
1/2+x,1/2-y,1/2+z
loop_
_atom_site_type_symbol
_atom_site_label
_atom_site_fract_x
_atom_site_fract_y
_atom_site_fract_z
Si Si1 0.500000 0.097445 0.750000
Si Si2 0.751473 0.530758 0.608886
Si Si3 0.000000 0.333606 0.750000
Si Si4 0.570272 0.383927 0.013642
Si Si5 0.500000 0.681807 0.750000
Si Si6 0.218973 0.738480 0.361309
O O1 0.360885 0.065497 0.684683
O O2 0.748373 0.121706 0.607857
O O3 0.500000 0.506756 0.750000
O O4 0.645796 0.563413 0.523550
O O5 0.000000 0.500000 0.500000
O O6 0.988419 0.298334 0.633425
O O7 0.258468 0.364940 0.652147
O O8 0.652108 0.352649 0.113244
O O9 0.328586 0.715884 0.709221
O O10 0.500000 0.716812 0.250000
O O11 0.250000 0.750000 0.500000
#
# Coordination Sequence:
#
# PCOD9292245 Si02
#       6
#     4   8   4   8   4   8
#     4  10  22  43  68  95 130 184 225 268 357 416
#     4  10  23  42  66  99 134 176 226 282 349 413
#     4  11  26  43  64 108 140 172 246 294 331 409
#     4  11  23  43  68 100 135 179 231 284 339 415
#     4  11  22  42  70  93 138 184 235 280 334 431
#     4  11  24  42  66  99 138 187 226 289 353 396
#
# _framework density 23.517672999999998
#
# number of rings (size 3 to 8) (size 9 to 14) (size 15 to 20)
#    0.000    1.333    3.333    2.667    1.556   13.333 
#    0.000    0.000    0.000    0.000    0.000    0.000 
#    0.000    0.000    0.000    0.000    0.000    0.000 
#
# Total GULP energy -100435.624871 kJ/mol
# GULP energy per Si atom -5579.756937 kJ/mol
# Density = 2.346415 g / cm^3
# Si number density = 23.517673 Si / 1000 Ang^3
#
#
#
# Elastic Constant Matrix: (Units=GPa)
#
#
# Indices 1 2 3 4 5 6 
#
# 1 85.1464 24.1673 38.7851 0.0000 -13.7208 0.0000
# 2 24.1673 76.6135 39.7512 0.0000 -32.5515 0.0000
# 3 38.7851 39.7512 133.2918 0.0000 -32.0353 0.0000
# 4 0.0000 0.0000 0.0000 16.1096 0.0000 -18.1350
# 5 -13.7208 -32.5515 -32.0353 0.0000 50.1227 0.0000
# 6 0.0000 0.0000 0.0000 -18.1350 0.0000 29.8611
#
#
#
# Elastic Compliance Matrix: (Units=1/GPa)
#
#
# Indices 1 2 3 4 5 6 
#
# 1 0.014004 -0.002736 -0.003266 0.000000 -0.000031 0.000000
# 2 -0.002736 0.019658 -0.002573 0.000000 0.010373 0.000000
# 3 -0.003266 -0.002573 0.010165 0.000000 0.003931 0.000000
# 4 0.000000 0.000000 0.000000 0.196233 0.000000 0.119175
# 5 -0.000031 0.010373 0.003931 0.000000 0.029192 0.000000
# 6 0.000000 0.000000 0.000000 0.119175 0.000000 0.105865
#
#
# Mechanical properties :
#
#
# Convention : Reuss Voigt Hill
#
# Bulk Modulus (GPa) = 37.48727 55.60655 46.54691
# Shear Modulus (GPa) = 12.46388 32.04192 22.25290
#
# Velocity S-wave (km/s) = 2.30463 3.69516 3.07941
# Velocity P-wave (km/s) = 4.80171 6.47314 5.69903
#
# Compressibility (1/GPa) = 0.02667573
#
# Stress axis : x y z
#
# Youngs Moduli (GPa) = 71.40886 50.86987 98.37544
#
# Poissons Ratio (x) = 0.13917 0.32133
# Poissons Ratio (y) = 0.19536 0.25317
# Poissons Ratio (z) = 0.23325 0.13091
#
# Static dielectric constant tensor:
#      x y z
#    x 1.941700 0.000000 -0.040000 
#    y 0.000000 1.886040 0.000000 
#    z -0.040000 0.000000 1.917840 
# 
# From -- ./inp_files/73558.got.cif
#   From: 2010.05.17/outbox.cif.g08.bks.cpg/sg15_37_cif.got.tgz:73558.got - 2010.06.03 18:47:42.
