data_PCOD9292947
_publ_section_title
;
Structure prediction by ZEFSAII (Michael W. Deem and Ramdas Pophale) SiO2 
 PCOD9292947
Probable space group: C 2/C
;
_chemical_formula_sum "Si O2"
_cell_formula_units_Z 48
_cell_length_a 5.958582
_cell_length_b 13.669600
_cell_length_c 32.174776
_cell_angle_alpha 90.000000
_cell_angle_beta 41.936642
_cell_angle_gamma 90.000000
_cell_volume 1751.423586
_symmetry_space_group_name_H-M "C 2/C"
_symmetry_group_IT_number 15
_symmetry_cell_setting 'monoclinic'
loop_
_space_group_symop_operation_xyz
x,y,z
-x,y,1/2-z
-x,-y,-z
x,-y,1/2+z
1/2+x,1/2+y,z
1/2-x,1/2+y,1/2-z
1/2-x,1/2-y,-z
1/2+x,1/2-y,1/2+z
loop_
_atom_site_type_symbol
_atom_site_label
_atom_site_fract_x
_atom_site_fract_y
_atom_site_fract_z
Si Si1 0.028685 0.236410 0.791026
Si Si2 0.251751 0.243350 0.905960
Si Si3 0.250000 0.750000 0.500000
Si Si4 0.647726 0.053946 0.379938
Si Si5 0.000000 0.904970 0.750000
Si Si6 0.494127 0.615449 0.874035
Si Si7 0.182443 0.438475 0.011215
O O1 0.257170 0.332377 0.757457
O O2 0.141458 0.171071 0.814382
O O3 0.000000 0.186599 0.750000
O O4 0.647573 0.258753 0.853901
O O5 0.131650 0.334330 0.895061
O O6 0.186152 0.144388 0.888650
O O7 0.101288 0.235441 0.971950
O O8 0.067068 0.859480 0.540097
O O9 0.764914 0.041742 0.316330
O O10 0.327542 0.997532 0.444414
O O11 0.933021 0.995294 0.368005
O O12 0.102310 0.649581 0.938181
O O13 0.000000 0.500000 0.000000
#
# Coordination Sequence:
#
# PCOD9292947 Si02
#       7
#     8   8   4   8   4   8   8
#     4  12  23  43  71 107 139 199 247 301 385 447
#     4  12  23  47  71 105 149 194 257 296 389 452
#     4  12  22  44  74 104 148 196 240 318 370 446
#     4  10  23  45  68 106 146 196 248 305 375 453
#     4  12  24  48  74 104 158 194 246 332 370 456
#     4  10  24  44  68 104 149 194 238 316 365 449
#     4  10  22  44  70 105 145 190 252 300 368 455
#
# _framework density 27.406275999999998
#
# number of rings (size 3 to 8) (size 9 to 14) (size 15 to 20)
#    1.000    0.000    6.667    0.000    1.167    0.667 
#    9.000    5.000    0.000    0.000    0.000    0.000 
#    0.000    0.000    0.000    0.000    0.000    0.000 
#
# Total GULP energy -133764.273440 kJ/mol
# GULP energy per Si atom -5573.511393 kJ/mol
# Density = 2.734390 g / cm^3
# Si number density = 27.406276 Si / 1000 Ang^3
#
#
#
# Elastic Constant Matrix: (Units=GPa)
#
#
# Indices 1 2 3 4 5 6 
#
# 1 73.9891 15.8392 23.5395 -0.0270 8.1975 0.0346
# 2 15.8392 107.5593 22.3321 -0.0077 24.2429 0.0084
# 3 23.5395 22.3321 201.8618 -0.0098 41.5831 0.0188
# 4 -0.0270 -0.0077 -0.0098 48.2082 0.0152 9.8378
# 5 8.1975 24.2429 41.5831 0.0152 65.2593 -0.0172
# 6 0.0346 0.0084 0.0188 9.8378 -0.0172 36.4088
#
#
#
# Elastic Compliance Matrix: (Units=1/GPa)
#
#
# Indices 1 2 3 4 5 6 
#
# 1 0.014375 -0.001766 -0.001432 0.000011 -0.000237 -0.000016
# 2 -0.001766 0.010392 -0.000223 0.000002 -0.003496 -0.000003
# 3 -0.001432 -0.000223 0.005861 0.000002 -0.003472 -0.000004
# 4 0.000011 0.000002 0.000002 0.021954 -0.000010 -0.005932
# 5 -0.000237 -0.003496 -0.003472 -0.000010 0.018864 0.000015
# 6 -0.000016 -0.000003 -0.000004 -0.005932 0.000015 0.029069
#
#
# Mechanical properties :
#
#
# Convention : Reuss Voigt Hill
#
# Bulk Modulus (GPa) = 42.04435 56.31463 49.17949
# Shear Modulus (GPa) = 43.37030 51.42190 47.39610
#
# Velocity S-wave (km/s) = 3.98237 4.33631 4.16310
# Velocity P-wave (km/s) = 6.04319 6.75752 6.41031
#
# Compressibility (1/GPa) = 0.02378441
#
# Stress axis : x y z
#
# Youngs Moduli (GPa) = 69.56286 96.23097 170.62692
#
# Poissons Ratio (x) = 0.16996 0.24436
# Poissons Ratio (y) = 0.12286 0.03813
# Poissons Ratio (z) = 0.09962 0.02151
#
# Static dielectric constant tensor:
#      x y z
#    x 2.500100 0.000170 -0.353530 
#    y 0.000170 3.031160 -0.000640 
#    z -0.353530 -0.000640 2.820860 
# 
# From -- ./inp_files/305151.got.cif
#   From: 2010.05.17/outbox.cif.g08.bks.cpg/sg15_153_cif.got.tgz:305151.got - 2010.06.03 18:47:42.
