data_PCOD9292731
_publ_section_title
;
Structure prediction by ZEFSAII (Michael W. Deem and Ramdas Pophale) SiO2 
 PCOD9292731
Probable space group: C 2/C
;
_chemical_formula_sum "Si O2"
_cell_formula_units_Z 40
_cell_length_a 23.649643
_cell_length_b 4.883161
_cell_length_c 14.077338
_cell_angle_alpha 90.000000
_cell_angle_beta 109.422407
_cell_angle_gamma 90.000000
_cell_volume 1533.206132
_symmetry_space_group_name_H-M "C 2/C"
_symmetry_group_IT_number 15
_symmetry_cell_setting 'monoclinic'
loop_
_space_group_symop_operation_xyz
x,y,z
-x,y,1/2-z
-x,-y,-z
x,-y,1/2+z
1/2+x,1/2+y,z
1/2-x,1/2+y,1/2-z
1/2-x,1/2-y,-z
1/2+x,1/2-y,1/2+z
loop_
_atom_site_type_symbol
_atom_site_label
_atom_site_fract_x
_atom_site_fract_y
_atom_site_fract_z
Si Si1 0.273950 0.803093 0.312140
Si Si2 0.300515 0.426290 0.575197
Si Si3 0.119504 0.464337 0.242803
Si Si4 0.912772 0.834894 0.117703
Si Si5 0.010132 0.654574 0.904717
O O1 0.267537 0.486166 0.283099
O O2 0.339239 0.932156 0.328509
O O3 0.238393 0.857788 0.387705
O O4 0.250000 0.250000 0.500000
O O5 0.341881 0.219815 0.661801
O O6 0.349605 0.577147 0.537735
O O7 0.106936 0.764655 0.282631
O O8 0.054080 0.350824 0.181790
O O9 0.940608 0.544083 0.111804
O O10 0.961310 0.048116 0.102482
O O11 0.000000 0.500000 0.000000
#
# Coordination Sequence:
#
# PCOD9292731 Si02
#       5
#     8   8   8   8   8
#     4  10  22  44  67 105 140 185 237 291 365 436
#     4  11  26  48  75 111 149 196 246 308 375 458
#     4  11  26  47  80 106 154 195 249 311 379 448
#     4  12  26  50  77 111 147 200 254 311 378 451
#     4  12  30  50  77 112 151 198 258 317 378 446
#
# _framework density 26.089120999999999
#
# number of rings (size 3 to 8) (size 9 to 14) (size 15 to 20)
#    0.000    0.800    4.000    1.200    8.400    0.800 
#   14.400    0.000    0.000    0.000    0.000    0.000 
#    0.000    0.000    0.000    0.000    0.000    0.000 
#
# Total GULP energy -111682.816215 kJ/mol
# GULP energy per Si atom -5584.140811 kJ/mol
# Density = 2.602974 g / cm^3
# Si number density = 26.089121 Si / 1000 Ang^3
#
#
#
# Elastic Constant Matrix: (Units=GPa)
#
#
# Indices 1 2 3 4 5 6 
#
# 1 158.8778 10.0147 38.6951 0.0000 5.2477 0.0000
# 2 10.0147 119.1977 19.6830 0.0000 -0.1033 0.0000
# 3 38.6951 19.6830 75.6777 0.0000 16.5143 0.0000
# 4 0.0000 0.0000 0.0000 28.5219 0.0000 2.2637
# 5 5.2477 -0.1033 16.5143 0.0000 47.9675 0.0000
# 6 0.0000 0.0000 0.0000 2.2637 0.0000 59.7792
#
#
#
# Elastic Compliance Matrix: (Units=1/GPa)
#
#
# Indices 1 2 3 4 5 6 
#
# 1 0.007201 0.000023 -0.003802 0.000000 0.000521 0.000000
# 2 0.000023 0.008800 -0.002491 0.000000 0.000874 0.000000
# 3 -0.003802 -0.002491 0.016993 0.000000 -0.005440 0.000000
# 4 0.000000 0.000000 0.000000 0.035166 0.000000 -0.001332
# 5 0.000521 0.000874 -0.005440 0.000000 0.022665 0.000000
# 6 0.000000 0.000000 0.000000 -0.001332 0.000000 0.016779
#
#
# Mechanical properties :
#
#
# Convention : Reuss Voigt Hill
#
# Bulk Modulus (GPa) = 48.89044 54.50433 51.69738
# Shear Modulus (GPa) = 39.38175 46.27776 42.82976
#
# Velocity S-wave (km/s) = 3.88945 4.21626 4.05615
# Velocity P-wave (km/s) = 6.24107 6.68127 6.46492
#
# Compressibility (1/GPa) = 0.02045390
#
# Stress axis : x y z
#
# Youngs Moduli (GPa) = 138.86098 113.64126 58.84786
#
# Poissons Ratio (x) = -0.00264 0.22374
# Poissons Ratio (y) = -0.00322 0.14661
# Poissons Ratio (z) = 0.52794 0.28312
#
# Static dielectric constant tensor:
#      x y z
#    x 2.115830 0.000000 -0.144480 
#    y 0.000000 2.077100 0.000000 
#    z -0.144480 0.000000 2.276730 
# 
# From -- ./inp_files/212742.got.cif
#   From: 2010.05.17/outbox.cif.g08.bks.cpg/sg15_107_cif.got.tgz:212742.got - 2010.06.03 18:47:42.
