data_PCOD9292311
_publ_section_title
;
Structure prediction by ZEFSAII (Michael W. Deem and Ramdas Pophale) SiO2 
 PCOD9292311
Probable space group: C 2/C
;
_chemical_formula_sum "Si O2"
_cell_formula_units_Z 52
_cell_length_a 29.402745
_cell_length_b 14.872492
_cell_length_c 8.621523
_cell_angle_alpha 90.000000
_cell_angle_beta 141.262651
_cell_angle_gamma 90.000000
_cell_volume 2359.159714
_symmetry_space_group_name_H-M "C 2/C"
_symmetry_group_IT_number 15
_symmetry_cell_setting 'monoclinic'
loop_
_space_group_symop_operation_xyz
x,y,z
-x,y,1/2-z
-x,-y,-z
x,-y,1/2+z
1/2+x,1/2+y,z
1/2-x,1/2+y,1/2-z
1/2-x,1/2-y,-z
1/2+x,1/2-y,1/2+z
loop_
_atom_site_type_symbol
_atom_site_label
_atom_site_fract_x
_atom_site_fract_y
_atom_site_fract_z
Si Si1 0.176522 0.585573 0.597563
Si Si2 0.619204 0.377072 0.565591
Si Si3 0.500000 0.470976 0.750000
Si Si4 0.793413 0.219234 0.766580
Si Si5 0.937568 0.817524 0.758595
Si Si6 0.787903 0.397747 0.953504
Si Si7 0.454567 0.207196 0.285828
O O1 0.245525 0.640439 0.714946
O O2 0.185444 0.482164 0.575485
O O3 0.103842 0.630701 0.336066
O O4 0.175879 0.599631 0.780919
O O5 0.568994 0.464458 0.430363
O O6 0.607924 0.336568 0.706830
O O7 0.701281 0.402631 0.749141
O O8 0.589508 0.298956 0.373456
O O9 0.488732 0.402608 0.862072
O O10 0.750000 0.250000 0.500000
O O11 0.799861 0.304510 0.897467
O O12 0.876999 0.190164 0.964014
O O13 0.988247 0.732420 0.928246
O O14 0.500000 0.185804 0.250000
#
# Coordination Sequence:
#
# PCOD9292311 Si02
#       7
#     8   8   4   8   8   8   8
#     4  12  25  46  72 106 142 185 240 295 356 425
#     4  11  21  39  66 101 141 181 227 285 361 429
#     4  12  24  36  66 104 144 176 228 282 358 438
#     4  12  26  47  72 104 145 187 243 294 352 426
#     4  11  24  42  65 101 143 185 227 291 359 419
#     4  12  25  44  76 106 141 186 242 298 354 419
#     4  10  22  43  69  95 137 187 228 282 357 423
#
# _framework density 22.041744999999999
#
# number of rings (size 3 to 8) (size 9 to 14) (size 15 to 20)
#    0.000    0.615    5.385    4.615    2.154    0.000 
#    0.000    3.077    0.000    0.000    0.000    0.000 
#    0.000    0.000    0.000    0.000    0.000    0.000 
#
# Total GULP energy -145537.137381 kJ/mol
# GULP energy per Si atom -5597.582207 kJ/mol
# Density = 2.199158 g / cm^3
# Si number density = 22.041745 Si / 1000 Ang^3
#
#
#
# Elastic Constant Matrix: (Units=GPa)
#
#
# Indices 1 2 3 4 5 6 
#
# 1 46.5799 18.8102 12.4054 0.0000 14.4731 0.0000
# 2 18.8102 76.6170 -2.1774 0.0000 16.2388 0.0000
# 3 12.4054 -2.1774 75.4475 0.0000 12.8360 0.0000
# 4 0.0000 0.0000 0.0000 26.7754 0.0000 2.1604
# 5 14.4731 16.2388 12.8360 0.0000 48.8386 0.0000
# 6 0.0000 0.0000 0.0000 2.1604 0.0000 37.8795
#
#
#
# Elastic Compliance Matrix: (Units=1/GPa)
#
#
# Indices 1 2 3 4 5 6 
#
# 1 0.026194 -0.005476 -0.003616 0.000000 -0.004991 0.000000
# 2 -0.005476 0.015301 0.002022 0.000000 -0.003996 0.000000
# 3 -0.003616 0.002022 0.014487 0.000000 -0.003408 0.000000
# 4 0.000000 0.000000 0.000000 0.037520 0.000000 -0.002140
# 5 -0.004991 -0.003996 -0.003408 0.000000 0.024179 0.000000
# 6 0.000000 0.000000 0.000000 -0.002140 0.000000 0.026522
#
#
# Mechanical properties :
#
#
# Convention : Reuss Voigt Hill
#
# Bulk Modulus (GPa) = 23.89935 28.52455 26.21195
# Shear Modulus (GPa) = 29.02103 34.00578 31.51340
#
# Velocity S-wave (km/s) = 3.63249 3.93210 3.78526
# Velocity P-wave (km/s) = 5.33475 5.79521 5.56974
#
# Compressibility (1/GPa) = 0.04184215
#
# Stress axis : x y z
#
# Youngs Moduli (GPa) = 38.17728 65.35656 69.02764
#
# Poissons Ratio (x) = 0.35787 0.24958
# Poissons Ratio (y) = 0.20904 -0.13956
# Poissons Ratio (z) = 0.13804 -0.13214
#
# Static dielectric constant tensor:
#      x y z
#    x 1.829180 0.000000 -0.016220 
#    y 0.000000 1.771790 0.000000 
#    z -0.016220 0.000000 1.848260 
# 
# From -- ./inp_files/70187.got.cif
#   From: 2010.05.17/outbox.cif.g08.bks.cpg/sg15_36_cif.got.tgz:70187.got - 2010.06.03 18:47:42.
