data_PCOD9292053
_publ_section_title
;
Structure prediction by ZEFSAII (Michael W. Deem and Ramdas Pophale) SiO2 
 PCOD9292053
Probable space group: C 2/C
;
_chemical_formula_sum "Si O2"
_cell_formula_units_Z 40
_cell_length_a 7.473724
_cell_length_b 11.380421
_cell_length_c 24.448740
_cell_angle_alpha 90.000000
_cell_angle_beta 48.648228
_cell_angle_gamma 90.000000
_cell_volume 1560.987601
_symmetry_space_group_name_H-M "C 2/C"
_symmetry_group_IT_number 15
_symmetry_cell_setting 'monoclinic'
loop_
_space_group_symop_operation_xyz
x,y,z
-x,y,1/2-z
-x,-y,-z
x,-y,1/2+z
1/2+x,1/2+y,z
1/2-x,1/2+y,1/2-z
1/2-x,1/2-y,-z
1/2+x,1/2-y,1/2+z
loop_
_atom_site_type_symbol
_atom_site_label
_atom_site_fract_x
_atom_site_fract_y
_atom_site_fract_z
Si Si1 0.702643 0.736776 0.908078
Si Si2 0.329066 0.609260 0.046253
Si Si3 0.322483 0.027798 0.123232
Si Si4 0.120152 0.584884 0.784734
Si Si5 0.433814 0.711495 0.847069
O O1 0.810369 0.866594 0.880593
O O2 0.552194 0.714660 0.883167
O O3 0.265590 0.597868 0.878311
O O4 0.912700 0.642609 0.863308
O O5 0.096594 0.566557 0.059151
O O6 0.211686 0.665585 0.125103
O O7 0.500000 0.500000 0.000000
O O8 0.506782 0.714726 0.993425
O O9 0.286819 0.021935 0.196591
O O10 0.335481 0.678208 0.735682
O O11 0.000000 0.560564 0.750000
#
# Coordination Sequence:
#
# PCOD9292053 Si02
#       5
#     8   8   8   8   8
#     4  10  23  45  66  97 139 178 220 280 339 398
#     4  11  23  44  70  98 141 178 226 281 335 401
#     4  11  22  42  70  96 135 172 228 282 334 401
#     4  10  22  43  65  97 137 177 224 275 343 404
#     4  10  23  39  67 102 130 177 230 269 339 397
#
# _framework density 25.624803
#
# number of rings (size 3 to 8) (size 9 to 14) (size 15 to 20)
#    0.000    1.600    2.000    3.000    0.000   12.000 
#    3.600   12.000    0.000    0.000    0.000    0.000 
#    0.000    0.000    0.000    0.000    0.000    0.000 
#
# Total GULP energy -111460.778154 kJ/mol
# GULP energy per Si atom -5573.038908 kJ/mol
# Density = 2.556648 g / cm^3
# Si number density = 25.624803 Si / 1000 Ang^3
#
#
#
# Elastic Constant Matrix: (Units=GPa)
#
#
# Indices 1 2 3 4 5 6 
#
# 1 60.6907 21.6107 10.6308 0.0000 -21.5998 0.0000
# 2 21.6107 121.4713 28.5465 0.0000 -12.1285 -0.0001
# 3 10.6308 28.5465 133.4729 -0.0001 -26.4226 -0.0001
# 4 0.0000 0.0000 -0.0001 53.1704 0.0001 1.9153
# 5 -21.5998 -12.1285 -26.4226 0.0001 28.4559 0.0000
# 6 0.0000 -0.0001 -0.0001 1.9153 0.0000 34.3151
#
#
#
# Elastic Compliance Matrix: (Units=1/GPa)
#
#
# Indices 1 2 3 4 5 6 
#
# 1 0.023936 -0.002930 0.002536 0.000000 0.019275 0.000000
# 2 -0.002930 0.009165 -0.001708 0.000000 0.000097 0.000000
# 3 0.002536 -0.001708 0.009670 0.000000 0.010176 0.000000
# 4 0.000000 0.000000 0.000000 0.018845 0.000000 -0.001052
# 5 0.019275 0.000097 0.010176 0.000000 0.059263 0.000000
# 6 0.000000 0.000000 0.000000 -0.001052 0.000000 0.029200
#
#
# Mechanical properties :
#
#
# Convention : Reuss Voigt Hill
#
# Bulk Modulus (GPa) = 25.92879 48.57899 37.25389
# Shear Modulus (GPa) = 29.91549 40.17808 35.04678
#
# Velocity S-wave (km/s) = 3.42049 3.96401 3.70224
# Velocity P-wave (km/s) = 5.07349 6.32061 5.73108
#
# Compressibility (1/GPa) = 0.03856716
#
# Stress axis : x y z
#
# Youngs Moduli (GPa) = 41.77832 109.11579 103.41425
#
# Poissons Ratio (x) = 0.31969 -0.26224
# Poissons Ratio (y) = 0.12240 0.17659
# Poissons Ratio (z) = -0.10594 0.18632
#
# Static dielectric constant tensor:
#      x y z
#    x 2.054370 0.000000 -0.011980 
#    y 0.000000 2.233450 0.000000 
#    z -0.011980 0.000000 2.051490 
# 
# From -- ./inp_files/306994.got.cif
#   From: 2010.05.17/outbox.cif.g08.bks.cpg/sg15_154_cif.got.tgz:306994.got - 2010.06.03 18:47:42.
