data_PCOD9292276
_publ_section_title
;
Structure prediction by ZEFSAII (Michael W. Deem and Ramdas Pophale) SiO2 
 PCOD9292276
Probable space group: C 2/C
;
_chemical_formula_sum "Si O2"
_cell_formula_units_Z 60
_cell_length_a 31.769908
_cell_length_b 8.673108
_cell_length_c 25.624202
_cell_angle_alpha 90.000000
_cell_angle_beta 21.647770
_cell_angle_gamma 90.000000
_cell_volume 2604.649373
_symmetry_space_group_name_H-M "C 2/C"
_symmetry_group_IT_number 15
_symmetry_cell_setting 'monoclinic'
loop_
_space_group_symop_operation_xyz
x,y,z
-x,y,1/2-z
-x,-y,-z
x,-y,1/2+z
1/2+x,1/2+y,z
1/2-x,1/2+y,1/2-z
1/2-x,1/2-y,-z
1/2+x,1/2-y,1/2+z
loop_
_atom_site_type_symbol
_atom_site_label
_atom_site_fract_x
_atom_site_fract_y
_atom_site_fract_z
Si Si1 0.197473 0.972950 0.456246
Si Si2 0.900616 0.272047 0.493535
Si Si3 0.826064 0.139729 0.684667
Si Si4 0.638231 0.988713 0.831886
Si Si5 0.117135 0.309293 0.208405
Si Si6 0.000000 0.542430 0.750000
Si Si7 0.817081 0.967967 0.794048
Si Si8 0.699869 0.797335 0.500410
O O1 0.098509 0.861425 0.551201
O O2 0.264105 0.897293 0.427247
O O3 0.294713 0.959170 0.298122
O O4 0.162904 0.142435 0.512739
O O5 0.897391 0.175637 0.550415
O O6 0.792783 0.376342 0.602826
O O7 0.010621 0.379483 0.364413
O O8 0.822080 0.311361 0.711740
O O9 0.873049 0.026664 0.675301
O O10 0.704579 0.079159 0.802049
O O11 0.500000 0.000000 0.000000
O O12 0.067703 0.341559 0.209146
O O13 0.133489 0.150500 0.220553
O O14 0.098320 0.422529 0.618899
O O15 0.791278 0.119653 0.857626
O O16 0.750000 0.750000 0.500000
#
# Coordination Sequence:
#
# PCOD9292276 Si02
#       8
#     8   8   8   8   8   4   8   8
#     4  10  23  42  67  99 141 176 229 296 347 410
#     4  10  22  43  68  99 143 187 229 280 348 437
#     4  11  22  43  66 107 140 188 234 290 347 436
#     4  11  23  42  69 101 145 193 235 287 357 428
#     4  11  24  45  69 100 134 191 235 282 362 429
#     4  12  26  44  78  96 136 190 244 292 366 430
#     4  11  24  43  71  98 144 182 232 296 357 422
#     4  12  25  45  67 101 133 176 237 305 354 408
#
# _framework density 23.035730999999998
#
# number of rings (size 3 to 8) (size 9 to 14) (size 15 to 20)
#    0.000    1.067    5.333    0.800    0.000    3.200 
#    4.800    0.000    0.000    0.000    0.000    0.000 
#    0.000    0.000    0.000    0.000    0.000    0.000 
#
# Total GULP energy -167025.323365 kJ/mol
# GULP energy per Si atom -5567.510779 kJ/mol
# Density = 2.298330 g / cm^3
# Si number density = 23.035731 Si / 1000 Ang^3
#
#
#
# Elastic Constant Matrix: (Units=GPa)
#
#
# Indices 1 2 3 4 5 6 
#
# 1 128.8385 43.0679 16.1893 0.0015 2.5875 -0.0004
# 2 43.0679 100.7952 5.9371 0.0005 2.7946 -0.0004
# 3 16.1893 5.9371 45.8105 -0.0007 -1.3758 -0.0001
# 4 0.0015 0.0005 -0.0007 29.9782 0.0007 12.4648
# 5 2.5875 2.7946 -1.3758 0.0007 27.1751 -0.0003
# 6 -0.0004 -0.0004 -0.0001 12.4648 -0.0003 42.9791
#
#
#
# Elastic Compliance Matrix: (Units=1/GPa)
#
#
# Indices 1 2 3 4 5 6 
#
# 1 0.009415 -0.003837 -0.002849 -0.000001 -0.000646 0.000000
# 2 -0.003837 0.011594 -0.000172 0.000000 -0.000836 0.000000
# 3 -0.002849 -0.000172 0.022902 0.000001 0.001448 0.000000
# 4 -0.000001 0.000000 0.000001 0.037932 -0.000001 -0.011001
# 5 -0.000646 -0.000836 0.001448 -0.000001 0.037019 0.000001
# 6 0.000000 0.000000 0.000000 -0.011001 0.000001 0.026458
#
#
# Mechanical properties :
#
#
# Convention : Reuss Voigt Hill
#
# Bulk Modulus (GPa) = 33.11864 45.09253 39.10558
# Shear Modulus (GPa) = 29.56809 34.04313 31.80561
#
# Velocity S-wave (km/s) = 3.58659 3.84844 3.71982
# Velocity P-wave (km/s) = 5.61781 6.27414 5.95502
#
# Compressibility (1/GPa) = 0.03019448
#
# Stress axis : x y z
#
# Youngs Moduli (GPa) = 106.20902 86.25167 43.66471
#
# Poissons Ratio (x) = 0.33097 0.12442
# Poissons Ratio (y) = 0.40755 0.00749
# Poissons Ratio (z) = 0.30264 0.01480
#
# Static dielectric constant tensor:
#      x y z
#    x 1.987410 0.000000 0.046240 
#    y 0.000000 1.850080 0.000010 
#    z 0.046240 0.000010 1.973280 
# 
# From -- ./inp_files/284303.got.cif
#   From: 2010.05.17/outbox.cif.g08.bks.cpg/sg15_143_cif.got.tgz:284303.got - 2010.06.03 18:47:42.
