data_PCOD9292152
_publ_section_title
;
Structure prediction by ZEFSAII (Michael W. Deem and Ramdas Pophale) SiO2 
 PCOD9292152
Probable space group: C 2/C
;
_chemical_formula_sum "Si O2"
_cell_formula_units_Z 52
_cell_length_a 29.992856
_cell_length_b 5.345627
_cell_length_c 13.666993
_cell_angle_alpha 90.000000
_cell_angle_beta 110.429188
_cell_angle_gamma 90.000000
_cell_volume 2053.418049
_symmetry_space_group_name_H-M "C 2/C"
_symmetry_group_IT_number 15
_symmetry_cell_setting 'monoclinic'
loop_
_space_group_symop_operation_xyz
x,y,z
-x,y,1/2-z
-x,-y,-z
x,-y,1/2+z
1/2+x,1/2+y,z
1/2-x,1/2+y,1/2-z
1/2-x,1/2-y,-z
1/2+x,1/2-y,1/2+z
loop_
_atom_site_type_symbol
_atom_site_label
_atom_site_fract_x
_atom_site_fract_y
_atom_site_fract_z
Si Si1 0.916529 0.194980 0.620027
Si Si2 0.527153 0.680953 0.445325
Si Si3 0.118505 0.510536 0.074848
Si Si4 0.253674 0.365124 0.818286
Si Si5 0.304025 0.693376 0.997104
Si Si6 0.500000 0.058650 0.750000
Si Si7 0.155630 0.520902 0.314772
O O1 0.895934 0.270359 0.498850
O O2 0.957121 0.385514 0.683030
O O3 0.876013 0.262537 0.663257
O O4 0.942389 0.937793 0.621441
O O5 0.500000 0.500000 0.500000
O O6 0.569026 0.830410 0.532990
O O7 0.488158 0.814148 0.346217
O O8 0.164410 0.644797 0.058265
O O9 0.134246 0.449745 0.195060
O O10 0.255345 0.113843 0.755583
O O11 0.294615 0.440372 0.927275
O O12 0.206183 0.345882 0.844025
O O13 0.250000 0.750000 0.000000
O O14 0.336315 0.771912 0.114541
#
# Coordination Sequence:
#
# PCOD9292152 Si02
#       7
#     8   8   8   8   8   4   8
#     4  10  24  44  67  99 144 182 243 304 370 455
#     4  11  26  43  70 105 138 188 242 309 380 451
#     4  10  22  43  67 105 136 188 243 298 380 442
#     4  11  23  46  74 110 153 202 251 308 380 451
#     4   9  20  44  68 104 147 189 248 302 378 450
#     4  10  24  44  68 100 136 182 242 294 380 446
#     4  10  22  44  72 102 144 196 242 310 374 451
#
# _framework density 25.323633999999998
#
# number of rings (size 3 to 8) (size 9 to 14) (size 15 to 20)
#    0.000    1.846    1.538    0.462    6.462    2.462 
#   11.077    3.846    0.000    0.000    0.000    0.000 
#    0.000    0.000    0.000    0.000    0.000    0.000 
#
# Total GULP energy -145027.607208 kJ/mol
# GULP energy per Si atom -5577.984893 kJ/mol
# Density = 2.526600 g / cm^3
# Si number density = 25.323634 Si / 1000 Ang^3
#
#
#
# Elastic Constant Matrix: (Units=GPa)
#
#
# Indices 1 2 3 4 5 6 
#
# 1 85.2038 10.0876 38.4195 0.0000 1.0457 0.0000
# 2 10.0876 35.4272 28.5508 0.0000 7.4717 0.0000
# 3 38.4195 28.5508 208.1355 0.0000 13.0292 0.0000
# 4 0.0000 0.0000 0.0000 19.3707 0.0000 10.7612
# 5 1.0457 7.4717 13.0292 0.0000 22.3960 0.0000
# 6 0.0000 0.0000 0.0000 10.7612 0.0000 30.2828
#
#
#
# Elastic Compliance Matrix: (Units=1/GPa)
#
#
# Indices 1 2 3 4 5 6 
#
# 1 0.012964 -0.002236 -0.002174 0.000000 0.001405 0.000000
# 2 -0.002236 0.033704 -0.003646 0.000000 -0.009019 0.000000
# 3 -0.002174 -0.003646 0.005836 0.000000 -0.002077 0.000000
# 4 0.000000 0.000000 0.000000 0.064322 0.000000 -0.022857
# 5 0.001405 -0.009019 -0.002077 0.000000 0.048803 0.000000
# 6 0.000000 0.000000 0.000000 -0.022857 0.000000 0.041144
#
#
# Mechanical properties :
#
#
# Convention : Reuss Voigt Hill
#
# Bulk Modulus (GPa) = 27.47830 53.65361 40.56596
# Shear Modulus (GPa) = 21.27506 31.19047 26.23276
#
# Velocity S-wave (km/s) = 2.90164 3.51333 3.22203
# Velocity P-wave (km/s) = 4.70111 6.13931 5.46770
#
# Compressibility (1/GPa) = 0.03639235
#
# Stress axis : x y z
#
# Youngs Moduli (GPa) = 77.13393 29.67014 171.34662
#
# Poissons Ratio (x) = 0.06633 0.37258
# Poissons Ratio (y) = 0.17244 0.62474
# Poissons Ratio (z) = 0.16772 0.10818
#
# Static dielectric constant tensor:
#      x y z
#    x 2.001880 0.000000 0.011510 
#    y 0.000000 2.234580 0.000000 
#    z 0.011510 0.000000 2.044730 
# 
# From -- ./inp_files/180174.got.cif
#   From: 2010.05.17/outbox.cif.g08.bks.cpg/sg15_91_cif.got.tgz:180174.got - 2010.06.03 18:47:42.
