data_PCOD9292698
_publ_section_title
;
Structure prediction by ZEFSAII (Michael W. Deem and Ramdas Pophale) SiO2 
 PCOD9292698
Probable space group: C 2/C
;
_chemical_formula_sum "Si O2"
_cell_formula_units_Z 60
_cell_length_a 12.805170
_cell_length_b 7.981811
_cell_length_c 28.917421
_cell_angle_alpha 90.000000
_cell_angle_beta 73.119668
_cell_angle_gamma 90.000000
_cell_volume 2828.257484
_symmetry_space_group_name_H-M "C 2/C"
_symmetry_group_IT_number 15
_symmetry_cell_setting 'monoclinic'
loop_
_space_group_symop_operation_xyz
x,y,z
-x,y,1/2-z
-x,-y,-z
x,-y,1/2+z
1/2+x,1/2+y,z
1/2-x,1/2+y,1/2-z
1/2-x,1/2-y,-z
1/2+x,1/2-y,1/2+z
loop_
_atom_site_type_symbol
_atom_site_label
_atom_site_fract_x
_atom_site_fract_y
_atom_site_fract_z
Si Si1 0.580311 0.853427 0.500330
Si Si2 0.273896 0.557704 0.505456
Si Si3 0.651933 0.614556 0.415044
Si Si4 0.000000 0.047520 0.250000
Si Si5 0.526481 0.252179 0.318998
Si Si6 0.801227 0.677979 0.309758
Si Si7 0.955244 0.090610 0.922094
Si Si8 0.242233 0.061234 0.219267
O O1 0.632178 0.780685 0.447220
O O2 0.523568 0.706683 0.535931
O O3 0.500000 0.000000 0.500000
O O4 0.672027 0.933429 0.520308
O O5 0.250000 0.750000 0.500000
O O6 0.325606 0.524428 0.548662
O O7 0.342664 0.492574 0.452565
O O8 0.741028 0.632003 0.364575
O O9 0.539874 0.559472 0.406078
O O10 0.118595 0.135062 0.225139
O O11 0.032144 0.924928 0.288726
O O12 0.430562 0.157829 0.302742
O O13 0.470871 0.297543 0.375019
O O14 0.645059 0.161256 0.310237
O O15 0.761428 0.566210 0.272056
O O16 0.769081 0.871980 0.300065
#
# Coordination Sequence:
#
# PCOD9292698 Si02
#       8
#     8   8   8   4   8   8   8   8
#     4  11  22  39  64  93 130 176 219 276 339 408
#     4  11  22  43  65  96 133 177 230 283 344 418
#     4  11  23  41  63  98 134 172 228 287 337 416
#     4  10  22  44  66  96 134 168 220 284 338 406
#     4  11  21  44  68  95 135 180 220 286 350 405
#     4  11  24  44  69  99 135 180 235 283 352 415
#     4  11  23  40  67  92 135 177 219 283 345 406
#     4  11  22  44  70  94 138 178 224 290 348 413
#
# _framework density 21.214475
#
# number of rings (size 3 to 8) (size 9 to 14) (size 15 to 20)
#    0.000    1.067    2.667    7.200    1.867    0.000 
#    9.600    0.000    0.000    0.000    0.000    0.000 
#    0.000    0.000    0.000    0.000    0.000    0.000 
#
# Total GULP energy -167185.477908 kJ/mol
# GULP energy per Si atom -5572.849264 kJ/mol
# Density = 2.116619 g / cm^3
# Si number density = 21.214475 Si / 1000 Ang^3
#
#
#
# Elastic Constant Matrix: (Units=GPa)
#
#
# Indices 1 2 3 4 5 6 
#
# 1 151.3124 43.1389 36.6028 0.0000 -13.8773 0.0000
# 2 43.1389 75.0562 17.2596 0.0000 -15.0869 0.0000
# 3 36.6028 17.2596 116.5660 0.0000 -37.2299 0.0000
# 4 0.0000 0.0000 0.0000 3.3911 0.0000 -8.6030
# 5 -13.8773 -15.0869 -37.2299 0.0000 21.7525 0.0000
# 6 0.0000 0.0000 0.0000 -8.6030 0.0000 47.0156
#
#
#
# Elastic Compliance Matrix: (Units=1/GPa)
#
#
# Indices 1 2 3 4 5 6 
#
# 1 0.008383 -0.004721 -0.002804 0.000000 -0.002725 0.000000
# 2 -0.004721 0.018480 0.004142 0.000000 0.016895 0.000000
# 3 -0.002804 0.004142 0.020276 0.000000 0.035787 0.000000
# 4 0.000000 0.000000 0.000000 0.550372 0.000000 0.100708
# 5 -0.002725 0.016895 0.035787 0.000000 0.117202 0.000000
# 6 0.000000 0.000000 0.000000 0.100708 0.000000 0.039697
#
#
# Mechanical properties :
#
#
# Convention : Reuss Voigt Hill
#
# Bulk Modulus (GPa) = 24.76816 59.65967 42.21392
# Shear Modulus (GPa) = 6.45466 30.82739 18.64102
#
# Velocity S-wave (km/s) = 1.74619 3.81613 2.96749
# Velocity P-wave (km/s) = 3.97065 6.89930 5.62878
#
# Compressibility (1/GPa) = 0.04037441
#
# Stress axis : x y z
#
# Youngs Moduli (GPa) = 119.28666 54.11118 49.31983
#
# Poissons Ratio (x) = 0.25547 0.13827
# Poissons Ratio (y) = 0.56318 -0.20430
# Poissons Ratio (z) = 0.33443 -0.22415
#
# Static dielectric constant tensor:
#      x y z
#    x 1.784900 0.000000 -0.043700 
#    y 0.000000 1.745880 0.000000 
#    z -0.043700 0.000000 1.786430 
# 
# From -- ./inp_files/309976.got.cif
#   From: 2010.05.17/outbox.cif.g08.bks.cpg/sg15_155_cif.got.tgz:309976.got - 2010.06.03 18:47:42.
