data_PCOD9292114
_publ_section_title
;
Structure prediction by ZEFSAII (Michael W. Deem and Ramdas Pophale) SiO2 
 PCOD9292114
Probable space group: C 2/C
;
_chemical_formula_sum "Si O2"
_cell_formula_units_Z 52
_cell_length_a 27.046255
_cell_length_b 5.470083
_cell_length_c 14.364360
_cell_angle_alpha 90.000000
_cell_angle_beta 72.381598
_cell_angle_gamma 90.000000
_cell_volume 2025.456150
_symmetry_space_group_name_H-M "C 2/C"
_symmetry_group_IT_number 15
_symmetry_cell_setting 'monoclinic'
loop_
_space_group_symop_operation_xyz
x,y,z
-x,y,1/2-z
-x,-y,-z
x,-y,1/2+z
1/2+x,1/2+y,z
1/2-x,1/2+y,1/2-z
1/2-x,1/2-y,-z
1/2+x,1/2-y,1/2+z
loop_
_atom_site_type_symbol
_atom_site_label
_atom_site_fract_x
_atom_site_fract_y
_atom_site_fract_z
Si Si1 0.778838 0.415836 0.744213
Si Si2 0.256029 0.500949 0.050950
Si Si3 0.577180 0.504200 0.836069
Si Si4 0.374594 0.518102 0.490452
Si Si5 0.610739 0.995030 0.351887
Si Si6 0.500000 0.229462 0.750000
Si Si7 0.915461 0.516664 0.424514
O O1 0.740945 0.637309 0.735923
O O2 0.787294 0.494813 0.845146
O O3 0.830601 0.436485 0.655177
O O4 0.250000 0.750000 0.000000
O O5 0.315189 0.514919 0.055635
O O6 0.250000 0.250000 0.000000
O O7 0.590747 0.780728 0.801589
O O8 0.526807 0.408014 0.811251
O O9 0.613022 0.265462 0.799959
O O10 0.585957 0.528056 0.943567
O O11 0.379913 0.774964 0.435354
O O12 0.390826 0.282156 0.421369
O O13 0.577073 0.971190 0.465805
O O14 0.535845 0.055084 0.665901
#
# Coordination Sequence:
#
# PCOD9292114 Si02
#       7
#     8   8   8   8   8   4   8
#     4  12  23  42  73 105 142 190 241 275 338 434
#     4  12  26  43  70 108 148 184 237 292 337 410
#     4  10  24  43  68  94 134 173 229 281 347 415
#     4  10  22  46  67  93 137 189 213 273 354 408
#     4  10  22  43  66  96 135 187 219 273 344 411
#     4  12  28  44  70 108 126 172 234 302 348 408
#     4  10  23  42  69  95 136 173 229 284 346 411
#
# _framework density 25.673228000000002
#
# number of rings (size 3 to 8) (size 9 to 14) (size 15 to 20)
#    0.000    1.231    0.000    6.462    0.000   12.308 
#    0.000    0.000    0.000    0.000    0.000    0.000 
#    0.000    0.000    0.000    0.000    0.000    0.000 
#
# Total GULP energy -145053.456938 kJ/mol
# GULP energy per Si atom -5578.979113 kJ/mol
# Density = 2.561479 g / cm^3
# Si number density = 25.673228 Si / 1000 Ang^3
#
#
#
# Elastic Constant Matrix: (Units=GPa)
#
#
# Indices 1 2 3 4 5 6 
#
# 1 62.7079 -13.4657 23.6860 0.0000 -0.5391 0.0000
# 2 -13.4657 119.4448 -5.4067 0.0000 9.6762 0.0000
# 3 23.6860 -5.4067 123.7843 0.0000 -1.9275 0.0000
# 4 0.0000 0.0000 0.0000 20.0629 0.0000 7.4712
# 5 -0.5391 9.6762 -1.9275 0.0000 33.2666 0.0000
# 6 0.0000 0.0000 0.0000 7.4712 0.0000 35.4411
#
#
#
# Elastic Compliance Matrix: (Units=1/GPa)
#
#
# Indices 1 2 3 4 5 6 
#
# 1 0.017588 0.001870 -0.003291 0.000000 -0.000450 0.000000
# 2 0.001870 0.008787 -0.000013 0.000000 -0.002526 0.000000
# 3 -0.003291 -0.000013 0.008715 0.000000 0.000456 0.000000
# 4 0.000000 0.000000 0.000000 0.054089 0.000000 -0.011402
# 5 -0.000450 -0.002526 0.000456 0.000000 0.030814 0.000000
# 6 0.000000 0.000000 0.000000 -0.011402 0.000000 0.030620
#
#
# Mechanical properties :
#
#
# Convention : Reuss Voigt Hill
#
# Bulk Modulus (GPa) = 31.03508 35.06271 33.04890
# Shear Modulus (GPa) = 30.44681 37.82900 34.13790
#
# Velocity S-wave (km/s) = 3.44748 3.84276 3.65047
# Velocity P-wave (km/s) = 5.28787 5.77720 5.53794
#
# Compressibility (1/GPa) = 0.03222160
#
# Stress axis : x y z
#
# Youngs Moduli (GPa) = 56.85807 113.80501 114.74803
#
# Poissons Ratio (x) = -0.21284 0.37760
# Poissons Ratio (y) = -0.10634 0.00154
# Poissons Ratio (z) = 0.18710 0.00153
#
# Static dielectric constant tensor:
#      x y z
#    x 2.052970 0.000000 0.056310 
#    y 0.000000 2.077020 0.000000 
#    z 0.056310 0.000000 2.124240 
# 
# From -- ./inp_files/180057.got.cif
#   From: 2010.05.17/outbox.cif.g08.bks.cpg/sg15_91_cif.got.tgz:180057.got - 2010.06.03 18:47:42.
