data_PCOD9292511
_publ_section_title
;
Structure prediction by ZEFSAII (Michael W. Deem and Ramdas Pophale) SiO2 
 PCOD9292511
Probable space group: C 2/C
;
_chemical_formula_sum "Si O2"
_cell_formula_units_Z 44
_cell_length_a 26.687762
_cell_length_b 7.610525
_cell_length_c 21.570669
_cell_angle_alpha 90.000000
_cell_angle_beta 157.119926
_cell_angle_gamma 90.000000
_cell_volume 1703.415609
_symmetry_space_group_name_H-M "C 2/C"
_symmetry_group_IT_number 15
_symmetry_cell_setting 'monoclinic'
loop_
_space_group_symop_operation_xyz
x,y,z
-x,y,1/2-z
-x,-y,-z
x,-y,1/2+z
1/2+x,1/2+y,z
1/2-x,1/2+y,1/2-z
1/2-x,1/2-y,-z
1/2+x,1/2-y,1/2+z
loop_
_atom_site_type_symbol
_atom_site_label
_atom_site_fract_x
_atom_site_fract_y
_atom_site_fract_z
Si Si1 0.162024 0.626220 0.544221
Si Si2 0.106333 0.257577 0.544652
Si Si3 0.635439 0.574289 0.296931
Si Si4 0.730769 0.053667 0.932970
Si Si5 0.717805 0.933662 0.780737
Si Si6 0.500000 0.088989 0.250000
O O1 0.117187 0.440375 0.519813
O O2 0.300211 0.572559 0.672456
O O3 0.170256 0.788010 0.599506
O O4 0.072667 0.688543 0.386561
O O5 0.104095 0.340767 0.611753
O O6 0.991113 0.149504 0.380734
O O7 0.226134 0.120548 0.677349
O O8 0.728485 0.746037 0.407214
O O9 0.647225 0.515607 0.382836
O O10 0.705345 0.949544 0.840608
O O11 0.608296 0.021840 0.837748
#
# Coordination Sequence:
#
# PCOD9292511 Si02
#       6
#     8   8   8   8   8   4
#     4  11  24  45  69 109 141 188 243 300 359 440
#     4  12  25  47  71 107 151 194 237 300 363 442
#     4  10  23  43  74 104 145 190 248 300 370 428
#     4  10  22  43  74 110 141 192 245 303 366 432
#     4  12  27  45  73 107 150 193 247 294 369 440
#     4  10  22  44  76 104 146 184 244 308 368 428
#
# _framework density 25.830454
#
# number of rings (size 3 to 8) (size 9 to 14) (size 15 to 20)
#    0.000    1.091    5.455    0.000    0.000    8.000 
#    3.273    0.000    0.000    0.000    0.000    0.000 
#    0.000    0.000    0.000    0.000    0.000    0.000 
#
# Total GULP energy -122716.744525 kJ/mol
# GULP energy per Si atom -5578.033842 kJ/mol
# Density = 2.577166 g / cm^3
# Si number density = 25.830454 Si / 1000 Ang^3
#
#
#
# Elastic Constant Matrix: (Units=GPa)
#
#
# Indices 1 2 3 4 5 6 
#
# 1 65.0552 35.9242 108.1579 0.0000 -46.1826 0.0000
# 2 35.9242 112.9041 42.0599 0.0000 -15.5830 0.0000
# 3 108.1579 42.0599 111.6280 0.0000 -43.1446 0.0000
# 4 0.0000 0.0000 0.0000 36.9180 0.0000 -12.7846
# 5 -46.1826 -15.5830 -43.1446 0.0000 45.8434 0.0000
# 6 0.0000 0.0000 0.0000 -12.7846 0.0000 20.3348
#
#
#
# Elastic Compliance Matrix: (Units=1/GPa)
#
#
# Indices 1 2 3 4 5 6 
#
# 1 -0.024613 -0.001199 0.022882 0.000000 -0.003668 0.000000
# 2 -0.001199 0.010247 -0.002860 0.000000 -0.000417 0.000000
# 3 0.022882 -0.002860 -0.005660 0.000000 0.016753 0.000000
# 4 0.000000 0.000000 0.000000 0.034626 0.000000 0.021769
# 5 -0.003668 -0.000417 0.016753 0.000000 0.033743 0.000000
# 6 0.000000 0.000000 0.000000 0.021769 0.000000 0.062863
#
#
# Mechanical properties :
#
#
# Convention : Reuss Voigt Hill
#
# Bulk Modulus (GPa) = 56.75466 73.54128 65.14797
# Shear Modulus (GPa) = 62.94715 27.51559 45.23137
#
# Velocity S-wave (km/s) = 4.94189 3.26734 4.18914
# Velocity P-wave (km/s) = 7.38801 6.53962 6.97672
#
# Compressibility (1/GPa) = 0.01761970
#
# Stress axis : x y z
#
# Youngs Moduli (GPa) = -40.62829 97.59406 -176.67031
#
# Poissons Ratio (x) = 0.11701 4.04265
# Poissons Ratio (y) = -0.04871 -0.50528
# Poissons Ratio (z) = 0.92967 0.27912
#
# Static dielectric constant tensor:
#      x y z
#    x 2.152850 0.000000 -0.026210 
#    y 0.000000 2.006480 0.000000 
#    z -0.026210 0.000000 2.134690 
# 
# From -- ./inp_files/284496.got.cif
#   From: 2010.05.17/outbox.cif.g08.bks.cpg/sg15_143_cif.got.tgz:284496.got - 2010.06.03 18:47:42.
