data_PCOD9292023
_publ_section_title
;
Structure prediction by ZEFSAII (Michael W. Deem and Ramdas Pophale) SiO2 
 PCOD9292023
Probable space group: C 2/C
;
_chemical_formula_sum "Si O2"
_cell_formula_units_Z 32
_cell_length_a 9.475669
_cell_length_b 26.931938
_cell_length_c 8.542994
_cell_angle_alpha 90.000000
_cell_angle_beta 43.226051
_cell_angle_gamma 90.000000
_cell_volume 1493.141990
_symmetry_space_group_name_H-M "C 2/C"
_symmetry_group_IT_number 15
_symmetry_cell_setting 'monoclinic'
loop_
_space_group_symop_operation_xyz
x,y,z
-x,y,1/2-z
-x,-y,-z
x,-y,1/2+z
1/2+x,1/2+y,z
1/2-x,1/2+y,1/2-z
1/2-x,1/2-y,-z
1/2+x,1/2-y,1/2+z
loop_
_atom_site_type_symbol
_atom_site_label
_atom_site_fract_x
_atom_site_fract_y
_atom_site_fract_z
Si Si1 0.092704 0.066197 0.925509
Si Si2 0.484809 0.321326 0.946404
Si Si3 0.668961 0.761274 0.709360
Si Si4 0.760366 0.478091 0.965404
O O1 0.203170 0.045915 0.678305
O O2 0.181266 0.034141 0.997063
O O3 0.100337 0.124531 0.943604
O O4 0.857236 0.052202 0.075491
O O5 0.500000 0.314940 0.750000
O O6 0.715480 0.311172 0.828781
O O7 0.341504 0.280429 0.145473
O O8 0.894615 0.735316 0.432983
O O9 0.000000 0.476758 0.750000
#
# Coordination Sequence:
#
# PCOD9292023 Si02
#       4
#     8   8   8   8
#     4  10  24  40  69  98 133 173 224 271 333 393
#     4  11  23  42  66  96 134 173 214 279 339 389
#     4   9  21  41  66  90 126 165 222 267 326 400
#     4  10  22  43  65  92 139 170 225 272 325 396
#
# _framework density 21.431317
#
# number of rings (size 3 to 8) (size 9 to 14) (size 15 to 20)
#    0.000    2.000    0.000    1.500   17.500    1.000 
#    4.500    1.250    0.000    0.000    0.000    0.000 
#    0.000    0.000    0.000    0.000    0.000    0.000 
#
# Total GULP energy -89091.117002 kJ/mol
# GULP energy per Si atom -5568.194813 kJ/mol
# Density = 2.138254 g / cm^3
# Si number density = 21.431317 Si / 1000 Ang^3
#
#
#
# Elastic Constant Matrix: (Units=GPa)
#
#
# Indices 1 2 3 4 5 6 
#
# 1 98.6588 27.6627 92.9194 0.0000 5.4880 0.0000
# 2 27.6627 130.9277 71.1078 0.0000 30.2554 0.0000
# 3 92.9194 71.1078 168.8423 0.0000 12.3738 0.0000
# 4 0.0000 0.0000 0.0000 12.0702 0.0000 12.1576
# 5 5.4880 30.2554 12.3738 0.0000 46.1978 0.0000
# 6 0.0000 0.0000 0.0000 12.1576 0.0000 7.5458
#
#
#
# Elastic Compliance Matrix: (Units=1/GPa)
#
#
# Indices 1 2 3 4 5 6 
#
# 1 0.021664 0.002670 -0.012985 0.000000 -0.000844 0.000000
# 2 0.002670 0.011806 -0.005969 0.000000 -0.006450 0.000000
# 3 -0.012985 -0.005969 0.015487 0.000000 0.001303 0.000000
# 4 0.000000 0.000000 0.000000 -0.133016 0.000000 0.214313
# 5 -0.000844 -0.006450 0.001303 0.000000 0.025622 0.000000
# 6 0.000000 0.000000 0.000000 0.214313 0.000000 -0.212772
#
#
# Mechanical properties :
#
#
# Convention : Reuss Voigt Hill
#
# Bulk Modulus (GPa) = 61.01484 86.86763 73.94123
# Shear Modulus (GPa) = -21.44272 26.94533 2.75130
#
# Velocity S-wave (km/s) = -3.16655 3.54967 1.13427
# Velocity P-wave (km/s) = 3.89389 7.57768 6.02427
#
# Compressibility (1/GPa) = 0.01638946
#
# Stress axis : x y z
#
# Youngs Moduli (GPa) = 46.16003 84.70326 64.57055
#
# Poissons Ratio (x) = -0.22617 0.83844
# Poissons Ratio (y) = -0.12325 0.38541
# Poissons Ratio (z) = 0.59938 0.50558
#
# Static dielectric constant tensor:
#      x y z
#    x 1.825930 0.000000 -0.095940 
#    y 0.000000 1.719570 0.000000 
#    z -0.095940 0.000000 1.988150 
# 
# From -- ./inp_files/24980.got.cif
#   From: 2010.05.17/outbox.cif.g08.bks.cpg/sg15_13_cif.got.tgz:24980.got - 2010.06.03 18:47:42.
