data_PCOD9292225
_publ_section_title
;
Structure prediction by ZEFSAII (Michael W. Deem and Ramdas Pophale) SiO2 
 PCOD9292225
Probable space group: C 2/C
;
_chemical_formula_sum "Si O2"
_cell_formula_units_Z 44
_cell_length_a 25.885896
_cell_length_b 7.946438
_cell_length_c 9.885372
_cell_angle_alpha 90.000000
_cell_angle_beta 126.514608
_cell_angle_gamma 90.000000
_cell_volume 1634.276311
_symmetry_space_group_name_H-M "C 2/C"
_symmetry_group_IT_number 15
_symmetry_cell_setting 'monoclinic'
loop_
_space_group_symop_operation_xyz
x,y,z
-x,y,1/2-z
-x,-y,-z
x,-y,1/2+z
1/2+x,1/2+y,z
1/2-x,1/2+y,1/2-z
1/2-x,1/2-y,-z
1/2+x,1/2-y,1/2+z
loop_
_atom_site_type_symbol
_atom_site_label
_atom_site_fract_x
_atom_site_fract_y
_atom_site_fract_z
Si Si1 0.815330 0.303131 0.178835
Si Si2 0.465031 0.828921 0.913317
Si Si3 0.000000 0.908081 0.250000
Si Si4 0.829805 0.349885 0.604845
Si Si5 0.604359 0.684437 0.428442
Si Si6 0.289487 0.551922 0.723648
O O1 0.812637 0.505603 0.189965
O O2 0.877478 0.285038 0.177432
O O3 0.815913 0.137798 0.273888
O O4 0.750000 0.250000 0.000000
O O5 0.509206 0.698101 0.901648
O O6 0.406166 0.850903 0.715348
O O7 0.434672 0.766966 0.007871
O O8 0.500000 0.000000 0.000000
O O9 0.061667 0.025399 0.322910
O O10 0.786641 0.413181 0.412125
O O11 0.812207 0.162441 0.628078
O O12 0.673928 0.641273 0.598456
#
# Coordination Sequence:
#
# PCOD9292225 Si02
#       6
#     8   8   4   8   8   8
#     4  10  22  43  68 104 138 180 230 291 357 426
#     4  11  27  45  70 104 140 192 239 293 362 421
#     4  12  28  46  74 102 142 194 242 298 352 438
#     4   9  20  42  67  94 140 169 235 286 343 415
#     4  11  24  45  72 100 141 186 237 290 360 428
#     4   9  20  44  66 101 136 177 228 297 353 418
#
# _framework density 26.923231000000001
#
# number of rings (size 3 to 8) (size 9 to 14) (size 15 to 20)
#    0.000    1.818    0.000    2.727    7.636    0.000 
#   39.273    0.000    0.000    0.000    0.000    0.000 
#    0.000    0.000    0.000    0.000    0.000    0.000 
#
# Total GULP energy -122958.780593 kJ/mol
# GULP energy per Si atom -5589.035482 kJ/mol
# Density = 2.686195 g / cm^3
# Si number density = 26.923231 Si / 1000 Ang^3
#
#
#
# Elastic Constant Matrix: (Units=GPa)
#
#
# Indices 1 2 3 4 5 6 
#
# 1 111.5319 51.8763 17.1392 0.0000 -12.1553 0.0000
# 2 51.8763 157.7106 20.9466 0.0000 -7.7274 0.0000
# 3 17.1392 20.9466 81.9988 0.0000 14.3541 0.0000
# 4 0.0000 0.0000 0.0000 44.6115 0.0000 5.1270
# 5 -12.1553 -7.7274 14.3541 0.0000 30.9198 0.0000
# 6 0.0000 0.0000 0.0000 5.1270 0.0000 44.3008
#
#
#
# Elastic Compliance Matrix: (Units=1/GPa)
#
#
# Indices 1 2 3 4 5 6 
#
# 1 0.011331 -0.003176 -0.002392 0.000000 0.004771 0.000000
# 2 -0.003176 0.007656 -0.001533 0.000000 0.001377 0.000000
# 3 -0.002392 -0.001533 0.014497 0.000000 -0.008054 0.000000
# 4 0.000000 0.000000 0.000000 0.022718 0.000000 -0.002629
# 5 0.004771 0.001377 -0.008054 0.000000 0.038300 0.000000
# 6 0.000000 0.000000 0.000000 -0.002629 0.000000 0.022877
#
#
# Mechanical properties :
#
#
# Convention : Reuss Voigt Hill
#
# Bulk Modulus (GPa) = 51.86220 59.01838 55.44029
# Shear Modulus (GPa) = 36.22966 41.38505 38.80736
#
# Velocity S-wave (km/s) = 3.67231 3.92490 3.80071
# Velocity P-wave (km/s) = 6.10622 6.51985 6.31642
#
# Compressibility (1/GPa) = 0.01928187
#
# Stress axis : x y z
#
# Youngs Moduli (GPa) = 88.25586 130.61080 68.98089
#
# Poissons Ratio (x) = 0.41476 0.16503
# Poissons Ratio (y) = 0.28026 0.10575
# Poissons Ratio (z) = 0.21114 0.20024
#
# Static dielectric constant tensor:
#      x y z
#    x 2.273690 0.000000 -0.094650 
#    y 0.000000 2.556360 0.000000 
#    z -0.094650 0.000000 2.174930 
# 
# From -- ./inp_files/122120.got.cif
#   From: 2010.05.17/outbox.cif.g08.bks.cpg/sg15_62_cif.got.tgz:122120.got - 2010.06.03 18:47:42.
