data_PCOD9292079
_publ_section_title
;
Structure prediction by ZEFSAII (Michael W. Deem and Ramdas Pophale) SiO2 
 PCOD9292079
Probable space group: C 2/C
;
_chemical_formula_sum "Si O2"
_cell_formula_units_Z 32
_cell_length_a 14.216930
_cell_length_b 9.904404
_cell_length_c 10.247741
_cell_angle_alpha 90.000000
_cell_angle_beta 76.367781
_cell_angle_gamma 90.000000
_cell_volume 1402.335723
_symmetry_space_group_name_H-M "C 2/C"
_symmetry_group_IT_number 15
_symmetry_cell_setting 'monoclinic'
loop_
_space_group_symop_operation_xyz
x,y,z
-x,y,1/2-z
-x,-y,-z
x,-y,1/2+z
1/2+x,1/2+y,z
1/2-x,1/2+y,1/2-z
1/2-x,1/2-y,-z
1/2+x,1/2-y,1/2+z
loop_
_atom_site_type_symbol
_atom_site_label
_atom_site_fract_x
_atom_site_fract_y
_atom_site_fract_z
Si Si1 0.116877 0.416952 0.717983
Si Si2 0.098300 0.081011 0.990313
Si Si3 0.839781 0.647839 0.999722
Si Si4 0.381824 0.382825 0.301060
O O1 0.150048 0.537144 0.614470
O O2 0.151184 0.415303 0.858205
O O3 0.147798 0.268872 0.654871
O O4 0.000000 0.420162 0.750000
O O5 0.076216 0.236213 0.032983
O O6 0.151369 0.083265 0.834036
O O7 0.149022 0.996300 0.087355
O O8 0.000000 0.000000 0.000000
O O9 0.750000 0.750000 0.000000
O O10 0.500000 0.382764 0.250000
#
# Coordination Sequence:
#
# PCOD9292079 Si02
#       4
#     8   8   8   8
#     4  10  22  43  66  91 127 175 220 260 317 399
#     4   9  18  34  56  85 117 156 204 250 301 372
#     4  11  25  42  63  98 134 167 214 274 332 382
#     4   8  16  31  54  82 112 148 200 252 294 353
#
# _framework density 22.819071000000001
#
# number of rings (size 3 to 8) (size 9 to 14) (size 15 to 20)
#    0.000    2.500    0.000    2.250    0.000    9.000 
#    0.000    2.500    0.000    0.000    0.000    0.000 
#    0.000    0.000    0.000    0.000    0.000    0.000 
#
# Total GULP energy -89289.070411 kJ/mol
# GULP energy per Si atom -5580.566901 kJ/mol
# Density = 2.276713 g / cm^3
# Si number density = 22.819071 Si / 1000 Ang^3
#
#
#
# Elastic Constant Matrix: (Units=GPa)
#
#
# Indices 1 2 3 4 5 6 
#
# 1 80.8149 22.5827 52.8349 0.0000 28.8090 0.0000
# 2 22.5827 234.0465 158.7834 0.0000 25.2887 0.0000
# 3 52.8349 158.7834 164.5086 0.0000 47.2022 0.0000
# 4 0.0000 0.0000 0.0000 65.6292 0.0000 8.8897
# 5 28.8090 25.2887 47.2022 0.0000 38.1915 0.0000
# 6 0.0000 0.0000 0.0000 8.8897 0.0000 18.2892
#
#
#
# Elastic Compliance Matrix: (Units=1/GPa)
#
#
# Indices 1 2 3 4 5 6 
#
# 1 0.019350 0.005187 -0.009371 0.000000 -0.006449 0.000000
# 2 0.005187 0.016987 -0.021246 0.000000 0.011098 0.000000
# 3 -0.009371 -0.021246 0.036459 0.000000 -0.023925 0.000000
# 4 0.000000 0.000000 0.000000 0.016311 0.000000 -0.007928
# 5 -0.006449 0.011098 -0.023925 0.000000 0.053270 0.000000
# 6 0.000000 0.000000 0.000000 -0.007928 0.000000 0.058531
#
#
# Mechanical properties :
#
#
# Convention : Reuss Voigt Hill
#
# Bulk Modulus (GPa) = 45.58439 105.30801 75.44620
# Shear Modulus (GPa) = 19.29919 40.76659 30.03289
#
# Velocity S-wave (km/s) = 2.91133 4.23130 3.63179
# Velocity P-wave (km/s) = 5.59651 8.37384 7.12187
#
# Compressibility (1/GPa) = 0.02193733
#
# Stress axis : x y z
#
# Youngs Moduli (GPa) = 51.67993 58.86951 27.42784
#
# Poissons Ratio (x) = -0.30536 0.25702
# Poissons Ratio (y) = -0.26807 0.58272
# Poissons Ratio (z) = 0.48428 1.25073
#
# Static dielectric constant tensor:
#      x y z
#    x 2.060290 0.000000 0.046830 
#    y 0.000000 1.901690 0.000000 
#    z 0.046830 0.000000 1.843190 
# 
# From -- ./inp_files/93508.got.cif
#   From: 2010.05.17/outbox.cif.g08.bks.cpg/sg15_47_cif.got.tgz:93508.got - 2010.06.03 18:47:42.
