data_PCOD9292551
_publ_section_title
;
Structure prediction by ZEFSAII (Michael W. Deem and Ramdas Pophale) SiO2 
 PCOD9292551
Probable space group: C 2/C
;
_chemical_formula_sum "Si O2"
_cell_formula_units_Z 52
_cell_length_a 20.642054
_cell_length_b 11.161052
_cell_length_c 11.046508
_cell_angle_alpha 90.000000
_cell_angle_beta 71.845384
_cell_angle_gamma 90.000000
_cell_volume 2418.281387
_symmetry_space_group_name_H-M "C 2/C"
_symmetry_group_IT_number 15
_symmetry_cell_setting 'monoclinic'
loop_
_space_group_symop_operation_xyz
x,y,z
-x,y,1/2-z
-x,-y,-z
x,-y,1/2+z
1/2+x,1/2+y,z
1/2-x,1/2+y,1/2-z
1/2-x,1/2-y,-z
1/2+x,1/2-y,1/2+z
loop_
_atom_site_type_symbol
_atom_site_label
_atom_site_fract_x
_atom_site_fract_y
_atom_site_fract_z
Si Si1 0.211587 0.579297 0.692595
Si Si2 0.346237 0.536734 0.106482
Si Si3 0.000000 0.488979 0.750000
Si Si4 0.422678 0.469330 0.821056
Si Si5 0.602040 0.193327 0.594080
Si Si6 0.246531 0.243048 0.642460
Si Si7 0.880330 0.648127 0.197361
O O1 0.288263 0.560063 0.604056
O O2 0.169597 0.667989 0.633012
O O3 0.220493 0.624846 0.823350
O O4 0.167900 0.460305 0.730476
O O5 0.383857 0.517363 0.213551
O O6 0.298250 0.652974 0.156673
O O7 0.393349 0.537616 0.958228
O O8 0.049688 0.583931 0.653985
O O9 0.046133 0.398642 0.802759
O O10 0.500000 0.508169 0.750000
O O11 0.423001 0.326867 0.857570
O O12 0.617173 0.177368 0.444610
O O13 0.250000 0.250000 0.500000
O O14 0.166275 0.246566 0.721188
#
# Coordination Sequence:
#
# PCOD9292551 Si02
#       7
#     8   8   4   8   8   8   8
#     4  10  23  40  68  99 126 163 216 268 328 378
#     4  11  25  42  69  95 132 172 220 276 324 387
#     4  10  22  44  62 102 132 168 206 268 330 386
#     4  12  25  46  66  96 130 180 223 267 325 391
#     4  11  22  42  71  96 129 169 218 265 327 395
#     4  11  23  41  63  97 131 168 212 271 329 378
#     4  10  24  39  68  98 130 170 209 266 326 393
#
# _framework density 21.502873000000001
#
# number of rings (size 3 to 8) (size 9 to 14) (size 15 to 20)
#    0.000    1.231    2.308    2.769   10.769    1.231 
#    2.769    0.000    3.385    0.000    0.000    0.000 
#    0.000    0.000    0.000    0.000    0.000    0.000 
#
# Total GULP energy -144885.686000 kJ/mol
# GULP energy per Si atom -5572.526385 kJ/mol
# Density = 2.145393 g / cm^3
# Si number density = 21.502873 Si / 1000 Ang^3
#
#
#
# Elastic Constant Matrix: (Units=GPa)
#
#
# Indices 1 2 3 4 5 6 
#
# 1 110.3730 6.7087 45.8189 0.0000 1.8343 0.0000
# 2 6.7087 26.2320 -16.5463 0.0000 1.7912 0.0000
# 3 45.8189 -16.5463 141.5958 0.0000 0.9807 0.0000
# 4 0.0000 0.0000 0.0000 21.7831 0.0000 12.6676
# 5 1.8343 1.7912 0.9807 0.0000 34.6708 0.0000
# 6 0.0000 0.0000 0.0000 12.6676 0.0000 9.9034
#
#
#
# Elastic Compliance Matrix: (Units=1/GPa)
#
#
# Indices 1 2 3 4 5 6 
#
# 1 0.011167 -0.005529 -0.004258 0.000000 -0.000185 0.000000
# 2 -0.005529 0.044071 0.006954 0.000000 -0.002181 0.000000
# 3 -0.004258 0.006954 0.009256 0.000000 -0.000396 0.000000
# 4 0.000000 0.000000 0.000000 0.179215 0.000000 -0.229236
# 5 -0.000185 -0.002181 -0.000396 0.000000 0.028976 0.000000
# 6 0.000000 0.000000 0.000000 -0.229236 0.000000 0.394193
#
#
# Mechanical properties :
#
#
# Convention : Reuss Voigt Hill
#
# Bulk Modulus (GPa) = 16.99904 38.90703 27.95304
# Shear Modulus (GPa) = 7.22381 29.41943 18.32162
#
# Velocity S-wave (km/s) = 1.83487 3.70288 2.92216
# Velocity P-wave (km/s) = 3.52302 6.03448 4.94098
#
# Compressibility (1/GPa) = 0.05882684
#
# Stress axis : x y z
#
# Youngs Moduli (GPa) = 89.54841 22.69066 108.04108
#
# Poissons Ratio (x) = 0.12547 0.46009
# Poissons Ratio (y) = 0.49515 -0.75135
# Poissons Ratio (z) = 0.38134 -0.15780
#
# Static dielectric constant tensor:
#      x y z
#    x 1.702210 0.000000 -0.030180 
#    y 0.000000 1.879050 0.000000 
#    z -0.030180 0.000000 1.752150 
# 
# From -- ./inp_files/110959.got.cif
#   From: 2010.05.17/outbox.cif.g08.bks.cpg/sg15_56_cif.got.tgz:110959.got - 2010.06.03 18:47:42.
