data_PCOD9292609
_publ_section_title
;
Structure prediction by ZEFSAII (Michael W. Deem and Ramdas Pophale) SiO2 
 PCOD9292609
Probable space group: C 2/C
;
_chemical_formula_sum "Si O2"
_cell_formula_units_Z 48
_cell_length_a 5.143724
_cell_length_b 18.161746
_cell_length_c 20.743781
_cell_angle_alpha 90.000000
_cell_angle_beta 82.111084
_cell_angle_gamma 90.000000
_cell_volume 1919.523585
_symmetry_space_group_name_H-M "C 2/C"
_symmetry_group_IT_number 15
_symmetry_cell_setting 'monoclinic'
loop_
_space_group_symop_operation_xyz
x,y,z
-x,y,1/2-z
-x,-y,-z
x,-y,1/2+z
1/2+x,1/2+y,z
1/2-x,1/2+y,1/2-z
1/2-x,1/2-y,-z
1/2+x,1/2-y,1/2+z
loop_
_atom_site_type_symbol
_atom_site_label
_atom_site_fract_x
_atom_site_fract_y
_atom_site_fract_z
Si Si1 0.283397 0.441387 0.576360
Si Si2 0.493434 0.570148 0.866989
Si Si3 0.636667 0.324514 0.642074
Si Si4 0.952085 0.682390 0.486294
Si Si5 0.668816 0.041755 0.306126
Si Si6 0.525677 0.166238 0.624424
O O1 0.450450 0.516234 0.573628
O O2 0.440343 0.378884 0.610929
O O3 0.189836 0.396566 0.517596
O O4 0.023394 0.462690 0.625407
O O5 0.408697 0.510994 0.815955
O O6 0.759729 0.615741 0.848435
O O7 0.254642 0.627479 0.873641
O O8 0.740451 0.373163 0.697636
O O9 0.510042 0.245633 0.658166
O O10 0.875641 0.310210 0.583895
O O11 0.750000 0.750000 0.500000
O O12 0.115555 0.678381 0.546716
O O13 0.500000 0.022699 0.250000
#
# Coordination Sequence:
#
# PCOD9292609 Si02
#       6
#     8   8   8   8   8   8
#     4  10  22  44  65 100 129 174 238 262 323 424
#     4  11  25  43  64 100 136 174 218 275 334 402
#     4  10  23  40  68 101 131 172 239 269 321 412
#     4  11  22  39  67  99 139 191 221 269 330 398
#     4  10  23  49  74  91 126 177 227 286 344 399
#     4  12  24  41  67  99 145 177 212 275 337 385
#
# _framework density 25.006207
#
# number of rings (size 3 to 8) (size 9 to 14) (size 15 to 20)
#    0.000    1.333    3.333    1.500    4.667    4.000 
#    0.000    1.667    0.000    0.000    0.000    0.000 
#    0.000    0.000    0.000    0.000    0.000    0.000 
#
# Total GULP energy -134283.353875 kJ/mol
# GULP energy per Si atom -5595.139745 kJ/mol
# Density = 2.494929 g / cm^3
# Si number density = 25.006207 Si / 1000 Ang^3
#
#
#
# Elastic Constant Matrix: (Units=GPa)
#
#
# Indices 1 2 3 4 5 6 
#
# 1 114.8490 37.1463 0.7696 0.0000 -5.7302 0.0000
# 2 37.1463 161.1909 -6.7108 0.0000 -6.8322 0.0000
# 3 0.7696 -6.7108 39.7923 0.0000 -0.2432 0.0000
# 4 0.0000 0.0000 0.0000 4.7858 0.0000 15.5642
# 5 -5.7302 -6.8322 -0.2432 0.0000 33.3849 0.0000
# 6 0.0000 0.0000 0.0000 15.5642 0.0000 58.6168
#
#
#
# Elastic Compliance Matrix: (Units=1/GPa)
#
#
# Indices 1 2 3 4 5 6 
#
# 1 0.009466 -0.002154 -0.000539 0.000000 0.001180 0.000000
# 2 -0.002154 0.006794 0.001194 0.000000 0.001029 0.000000
# 3 -0.000539 0.001194 0.025344 0.000000 0.000336 0.000000
# 4 0.000000 0.000000 0.000000 1.531116 0.000000 -0.406548
# 5 0.001180 0.001029 0.000336 0.000000 0.030369 0.000000
# 6 0.000000 0.000000 0.000000 -0.406548 0.000000 0.125008
#
#
# Mechanical properties :
#
#
# Convention : Reuss Voigt Hill
#
# Bulk Modulus (GPa) = 25.90322 42.02692 33.96507
# Shear Modulus (GPa) = 2.86703 38.33264 20.59983
#
# Velocity S-wave (km/s) = 1.07192 3.91951 2.87329
# Velocity P-wave (km/s) = 3.45155 6.10954 4.96184
#
# Compressibility (1/GPa) = 0.03860523
#
# Stress axis : x y z
#
# Youngs Moduli (GPa) = 105.63869 147.19931 39.45668
#
# Poissons Ratio (x) = 0.31705 0.02127
# Poissons Ratio (y) = 0.22754 -0.04710
# Poissons Ratio (z) = 0.05695 -0.17570
#
# Static dielectric constant tensor:
#      x y z
#    x 2.080370 0.000000 -0.028590 
#    y 0.000000 2.015680 0.000000 
#    z -0.028590 0.000000 2.001990 
# 
# From -- ./inp_files/260708.got.cif
#   From: 2010.05.17/outbox.cif.g08.bks.cpg/sg15_131_cif.got.tgz:260708.got - 2010.06.03 18:47:42.
