data_PCOD9292584
_publ_section_title
;
Structure prediction by ZEFSAII (Michael W. Deem and Ramdas Pophale) SiO2 
 PCOD9292584
Probable space group: C 2/C
;
_chemical_formula_sum "Si O2"
_cell_formula_units_Z 60
_cell_length_a 19.915664
_cell_length_b 26.759874
_cell_length_c 12.770277
_cell_angle_alpha 90.000000
_cell_angle_beta 153.252831
_cell_angle_gamma 90.000000
_cell_volume 3062.979608
_symmetry_space_group_name_H-M "C 2/C"
_symmetry_group_IT_number 15
_symmetry_cell_setting 'monoclinic'
loop_
_space_group_symop_operation_xyz
x,y,z
-x,y,1/2-z
-x,-y,-z
x,-y,1/2+z
1/2+x,1/2+y,z
1/2-x,1/2+y,1/2-z
1/2-x,1/2-y,-z
1/2+x,1/2-y,1/2+z
loop_
_atom_site_type_symbol
_atom_site_label
_atom_site_fract_x
_atom_site_fract_y
_atom_site_fract_z
Si Si1 0.316018 0.961549 0.155714
Si Si2 0.576812 0.073508 0.149979
Si Si3 0.136325 0.886323 0.520144
Si Si4 0.500000 0.126148 0.250000
Si Si5 0.392253 0.453441 0.829841
Si Si6 0.897304 0.112784 0.015136
Si Si7 0.969502 0.218846 0.582213
Si Si8 0.750042 0.196605 0.670828
O O1 0.468634 0.932745 0.399276
O O2 0.348737 0.019326 0.227210
O O3 0.245686 0.961313 0.941514
O O4 0.197666 0.932427 0.064847
O O5 0.705655 0.114477 0.316567
O O6 0.490714 0.091024 0.134728
O O7 0.154176 0.932115 0.623759
O O8 0.102615 0.835575 0.534775
O O9 0.000000 0.894973 0.250000
O O10 0.641373 0.163308 0.446384
O O11 0.496710 0.412233 0.922257
O O12 0.500000 0.500000 0.000000
O O13 0.000000 0.134053 0.250000
O O14 0.810323 0.156956 0.838517
O O15 0.850028 0.263002 0.406772
O O16 0.000000 0.219420 0.750000
O O17 0.117581 0.220479 0.716097
#
# Coordination Sequence:
#
# PCOD9292584 Si02
#       8
#     8   8   8   4   8   8   8   8
#     4  10  23  39  61  91 130 168 213 262 315 391
#     4  11  24  39  60  94 129 170 214 263 323 384
#     4  11  23  39  61  92 129 162 213 266 321 390
#     4  12  24  38  68  90 134 172 214 266 334 386
#     4  11  22  38  65  91 126 171 211 261 323 390
#     4  10  22  44  64  88 126 171 213 260 323 390
#     4  11  24  40  65  96 132 161 218 272 335 389
#     4  12  24  42  67  97 126 174 215 276 331 393
#
# _framework density 19.588768999999999
#
# number of rings (size 3 to 8) (size 9 to 14) (size 15 to 20)
#    0.000    1.067    3.333    3.600    3.733    3.733 
#    0.000    0.667    2.933    0.000    0.000    0.000 
#    0.000    0.000    0.000    0.000    0.000    0.000 
#
# Total GULP energy -167384.786298 kJ/mol
# GULP energy per Si atom -5579.492877 kJ/mol
# Density = 1.954418 g / cm^3
# Si number density = 19.588769 Si / 1000 Ang^3
#
#
#
# Elastic Constant Matrix: (Units=GPa)
#
#
# Indices 1 2 3 4 5 6 
#
# 1 86.4960 41.2435 40.4415 0.0000 2.0127 0.0000
# 2 41.2435 87.3759 57.1190 0.0000 -2.9503 0.0000
# 3 40.4415 57.1190 132.8086 0.0000 -7.6724 0.0000
# 4 0.0000 0.0000 0.0000 42.1072 0.0000 12.9539
# 5 2.0127 -2.9503 -7.6724 0.0000 29.0227 0.0000
# 6 0.0000 0.0000 0.0000 12.9539 0.0000 27.4334
#
#
#
# Elastic Compliance Matrix: (Units=1/GPa)
#
#
# Indices 1 2 3 4 5 6 
#
# 1 0.015503 -0.005874 -0.002327 0.000000 -0.002287 0.000000
# 2 -0.005874 0.018148 -0.005978 0.000000 0.000672 0.000000
# 3 -0.002327 -0.005978 0.010950 0.000000 0.002449 0.000000
# 4 0.000000 0.000000 0.000000 0.027785 0.000000 -0.013120
# 5 -0.002287 0.000672 0.002449 0.000000 0.035330 0.000000
# 6 0.000000 0.000000 0.000000 -0.013120 0.000000 0.042647
#
#
# Mechanical properties :
#
#
# Convention : Reuss Voigt Hill
#
# Bulk Modulus (GPa) = 61.55817 64.92094 63.23955
# Shear Modulus (GPa) = 27.15390 30.90442 29.02916
#
# Velocity S-wave (km/s) = 3.72721 3.97629 3.85376
# Velocity P-wave (km/s) = 7.07221 7.36851 7.22188
#
# Compressibility (1/GPa) = 0.01624480
#
# Stress axis : x y z
#
# Youngs Moduli (GPa) = 64.50267 55.10286 91.32058
#
# Poissons Ratio (x) = 0.32368 0.21247
# Poissons Ratio (y) = 0.37890 0.54588
# Poissons Ratio (z) = 0.15007 0.32938
#
# Static dielectric constant tensor:
#      x y z
#    x 1.599090 0.000000 -0.003190 
#    y 0.000000 1.705730 0.000000 
#    z -0.003190 0.000000 1.744360 
# 
# From -- ./inp_files/108443.got.cif
#   From: 2010.05.17/outbox.cif.g08.bks.cpg/sg15_55_cif.got.tgz:108443.got - 2010.06.03 18:47:42.
