data_PCOD9292071
_publ_section_title
;
Structure prediction by ZEFSAII (Michael W. Deem and Ramdas Pophale) SiO2 
 PCOD9292071
Probable space group: C 2/C
;
_chemical_formula_sum "Si O2"
_cell_formula_units_Z 44
_cell_length_a 24.001735
_cell_length_b 10.488016
_cell_length_c 28.850617
_cell_angle_alpha 90.000000
_cell_angle_beta 19.072337
_cell_angle_gamma 90.000000
_cell_volume 2373.133317
_symmetry_space_group_name_H-M "C 2/C"
_symmetry_group_IT_number 15
_symmetry_cell_setting 'monoclinic'
loop_
_space_group_symop_operation_xyz
x,y,z
-x,y,1/2-z
-x,-y,-z
x,-y,1/2+z
1/2+x,1/2+y,z
1/2-x,1/2+y,1/2-z
1/2-x,1/2-y,-z
1/2+x,1/2-y,1/2+z
loop_
_atom_site_type_symbol
_atom_site_label
_atom_site_fract_x
_atom_site_fract_y
_atom_site_fract_z
Si Si1 0.305863 0.533868 0.164996
Si Si2 0.853981 0.478596 0.808188
Si Si3 0.500000 0.451702 0.750000
Si Si4 0.271128 0.727031 0.365699
Si Si5 0.634236 0.765720 0.313377
Si Si6 0.242672 0.397141 0.518458
O O1 0.210611 0.561071 0.191554
O O2 0.307553 0.657137 0.196468
O O3 0.223624 0.403416 0.249782
O O4 0.500000 0.500000 0.000000
O O5 0.820307 0.628706 0.840269
O O6 0.750464 0.413132 0.931362
O O7 0.054797 0.451038 0.654040
O O8 0.630449 0.366444 0.677331
O O9 0.611947 0.532251 0.625349
O O10 0.325389 0.713952 0.269685
O O11 0.068252 0.713159 0.526261
O O12 0.250000 0.250000 0.500000
#
# Coordination Sequence:
#
# PCOD9292071 Si02
#       6
#     8   8   4   8   8   8
#     4  11  23  44  67  97 129 179 209 276 328 382
#     4  10  22  43  66  85 131 170 208 257 336 366
#     4  12  22  36  68  96 118 162 218 258 324 366
#     4  11  23  41  67  96 123 165 218 275 306 388
#     4  11  23  44  67  95 136 163 226 264 325 389
#     4  11  24  42  60  95 131 166 208 265 315 398
#
# _framework density 18.540887999999999
#
# number of rings (size 3 to 8) (size 9 to 14) (size 15 to 20)
#    0.000    1.091    3.636    5.455    0.000    4.364 
#    3.273    0.000    0.000    0.000    0.000    0.000 
#    0.000    0.000    0.000    0.000    0.000    0.000 
#
# Total GULP energy -122905.932370 kJ/mol
# GULP energy per Si atom -5586.633290 kJ/mol
# Density = 1.849869 g / cm^3
# Si number density = 18.540888 Si / 1000 Ang^3
#
#
#
# Elastic Constant Matrix: (Units=GPa)
#
#
# Indices 1 2 3 4 5 6 
#
# 1 120.3729 89.7373 40.0160 0.0058 14.5531 -0.0017
# 2 89.7373 166.9059 78.4741 0.0092 2.0317 0.0038
# 3 40.0160 78.4741 155.2416 -0.0041 5.4377 0.0058
# 4 0.0058 0.0092 -0.0041 29.9740 0.0095 2.1786
# 5 14.5531 2.0317 5.4377 0.0095 36.2108 -0.0015
# 6 -0.0017 0.0038 0.0058 2.1786 -0.0015 39.3523
#
#
#
# Elastic Compliance Matrix: (Units=1/GPa)
#
#
# Indices 1 2 3 4 5 6 
#
# 1 0.014927 -0.008186 0.000487 0.000001 -0.005613 0.000001
# 2 -0.008186 0.012350 -0.004246 -0.000004 0.003235 -0.000001
# 3 0.000487 -0.004246 0.008506 0.000003 -0.001235 -0.000001
# 4 0.000001 -0.000004 0.000003 0.033497 -0.000010 -0.001854
# 5 -0.005613 0.003235 -0.001235 -0.000010 0.029876 0.000001
# 6 0.000001 -0.000001 -0.000001 -0.001854 0.000001 0.025514
#
#
# Mechanical properties :
#
#
# Convention : Reuss Voigt Hill
#
# Bulk Modulus (GPa) = 84.08943 95.44169 89.76556
# Shear Modulus (GPa) = 32.78189 36.72697 34.75443
#
# Velocity S-wave (km/s) = 4.20942 4.45552 4.33422
# Velocity P-wave (km/s) = 8.31130 8.83498 8.57714
#
# Compressibility (1/GPa) = 0.01189210
#
# Stress axis : x y z
#
# Youngs Moduli (GPa) = 66.99281 80.97405 117.57010
#
# Poissons Ratio (x) = 0.66287 -0.05726
# Poissons Ratio (y) = 0.54842 0.49919
# Poissons Ratio (z) = -0.03263 0.34381
#
# Static dielectric constant tensor:
#      x y z
#    x 1.563170 -0.000020 -0.072880 
#    y -0.000020 1.618070 -0.000010 
#    z -0.072880 -0.000010 1.550920 
# 
# From -- ./inp_files/318554.got.cif
#   From: 2010.05.17/outbox.cif.g08.bks.cpg/sg15_160_cif.got.tgz:318554.got - 2010.06.03 18:47:42.
