data_PCOD9292412
_publ_section_title
;
Structure prediction by ZEFSAII (Michael W. Deem and Ramdas Pophale) SiO2 
 PCOD9292412
Probable space group: C 2/C
;
_chemical_formula_sum "Si O2"
_cell_formula_units_Z 52
_cell_length_a 11.117702
_cell_length_b 17.399588
_cell_length_c 11.431741
_cell_angle_alpha 90.000000
_cell_angle_beta 68.578867
_cell_angle_gamma 90.000000
_cell_volume 2058.634646
_symmetry_space_group_name_H-M "C 2/C"
_symmetry_group_IT_number 15
_symmetry_cell_setting 'monoclinic'
loop_
_space_group_symop_operation_xyz
x,y,z
-x,y,1/2-z
-x,-y,-z
x,-y,1/2+z
1/2+x,1/2+y,z
1/2-x,1/2+y,1/2-z
1/2-x,1/2-y,-z
1/2+x,1/2-y,1/2+z
loop_
_atom_site_type_symbol
_atom_site_label
_atom_site_fract_x
_atom_site_fract_y
_atom_site_fract_z
Si Si1 0.575292 0.206629 0.084664
Si Si2 0.967812 0.103855 0.134745
Si Si3 0.583316 0.921967 0.972298
Si Si4 0.234618 0.997785 0.251102
Si Si5 0.111361 0.151157 0.864759
Si Si6 0.286010 0.258409 0.686305
Si Si7 0.500000 0.071661 0.750000
O O1 0.473667 0.139698 0.097368
O O2 0.509709 0.291613 0.116146
O O3 0.331884 0.198442 0.337605
O O4 0.662276 0.205606 0.937203
O O5 0.852956 0.048939 0.131624
O O6 0.899296 0.185273 0.180717
O O7 0.000000 0.070483 0.250000
O O8 0.079349 0.115464 0.001657
O O9 0.722383 0.951381 0.876901
O O10 0.554308 0.888372 0.112474
O O11 0.500000 0.000000 0.000000
O O12 0.152912 0.918916 0.265353
O O13 0.371891 0.975713 0.259590
O O14 0.230972 0.209414 0.811980
#
# Coordination Sequence:
#
# PCOD9292412 Si02
#       7
#     8   8   8   8   8   8   4
#     4  10  22  43  71 108 144 186 248 303 367 437
#     4  11  27  46  70 108 148 196 243 310 379 436
#     4  10  22  43  72 110 143 189 246 308 363 436
#     4  11  25  45  71 107 147 196 252 307 362 447
#     4  11  24  47  70 107 142 200 244 304 374 441
#     4  10  22  43  71 103 144 190 243 304 365 447
#     4  10  24  44  72 112 142 198 246 298 382 422
#
# _framework density 25.259460000000001
#
# number of rings (size 3 to 8) (size 9 to 14) (size 15 to 20)
#    0.000    1.538    0.000    3.692    6.462    1.846 
#   18.000    0.000    0.000    0.000    0.000    0.000 
#    0.000    0.000    0.000    0.000    0.000    0.000 
#
# Total GULP energy -145177.336388 kJ/mol
# GULP energy per Si atom -5583.743707 kJ/mol
# Density = 2.520197 g / cm^3
# Si number density = 25.259460 Si / 1000 Ang^3
#
#
#
# Elastic Constant Matrix: (Units=GPa)
#
#
# Indices 1 2 3 4 5 6 
#
# 1 88.8000 38.1791 50.5111 0.0000 -3.2643 0.0000
# 2 38.1791 102.5618 50.3392 0.0000 -16.6485 0.0000
# 3 50.5111 50.3392 164.1711 0.0000 -37.2074 0.0000
# 4 0.0000 0.0000 0.0000 45.0987 0.0000 -13.9303
# 5 -3.2643 -16.6485 -37.2074 0.0000 32.2400 0.0000
# 6 0.0000 0.0000 0.0000 -13.9303 0.0000 40.2944
#
#
#
# Elastic Compliance Matrix: (Units=1/GPa)
#
#
# Indices 1 2 3 4 5 6 
#
# 1 0.015756 -0.004489 -0.004923 0.000000 -0.006404 0.000000
# 2 -0.004489 0.012910 -0.001584 0.000000 0.004384 0.000000
# 3 -0.004923 -0.001584 0.010553 0.000000 0.010863 0.000000
# 4 0.000000 0.000000 0.000000 0.024824 0.000000 0.008582
# 5 -0.006404 0.004384 0.010863 0.000000 0.045170 0.000000
# 6 0.000000 0.000000 0.000000 0.008582 0.000000 0.027784
#
#
# Mechanical properties :
#
#
# Convention : Reuss Voigt Hill
#
# Bulk Modulus (GPa) = 58.04119 70.39907 64.22013
# Shear Modulus (GPa) = 30.35247 37.96018 34.15633
#
# Velocity S-wave (km/s) = 3.47021 3.88082 3.68124
# Velocity P-wave (km/s) = 6.25175 6.92906 6.59910
#
# Compressibility (1/GPa) = 0.01722914
#
# Stress axis : x y z
#
# Youngs Moduli (GPa) = 63.46884 77.45809 94.75580
#
# Poissons Ratio (x) = 0.34767 0.46645
# Poissons Ratio (y) = 0.28488 0.15009
# Poissons Ratio (z) = 0.31243 0.12269
#
# Static dielectric constant tensor:
#      x y z
#    x 2.041250 0.000000 0.019950 
#    y 0.000000 2.011990 0.000000 
#    z 0.019950 0.000000 2.071620 
# 
# From -- ./inp_files/99721.got.cif
#   From: 2010.05.17/outbox.cif.g08.bks.cpg/sg15_50_cif.got.tgz:99721.got - 2010.06.03 18:47:42.
