data_PCOD9292716
_publ_section_title
;
Structure prediction by ZEFSAII (Michael W. Deem and Ramdas Pophale) SiO2 
 PCOD9292716
Probable space group: C 2/C
;
_chemical_formula_sum "Si O2"
_cell_formula_units_Z 52
_cell_length_a 18.175917
_cell_length_b 18.856312
_cell_length_c 9.200042
_cell_angle_alpha 90.000000
_cell_angle_beta 130.547295
_cell_angle_gamma 90.000000
_cell_volume 2395.973313
_symmetry_space_group_name_H-M "C 2/C"
_symmetry_group_IT_number 15
_symmetry_cell_setting 'monoclinic'
loop_
_space_group_symop_operation_xyz
x,y,z
-x,y,1/2-z
-x,-y,-z
x,-y,1/2+z
1/2+x,1/2+y,z
1/2-x,1/2+y,1/2-z
1/2-x,1/2-y,-z
1/2+x,1/2-y,1/2+z
loop_
_atom_site_type_symbol
_atom_site_label
_atom_site_fract_x
_atom_site_fract_y
_atom_site_fract_z
Si Si1 0.500000 0.908403 0.250000
Si Si2 0.633933 0.701782 0.675155
Si Si3 0.173433 0.641715 0.155567
Si Si4 0.500000 0.358195 0.250000
Si Si5 0.854175 0.509971 0.175374
Si Si6 0.000000 0.145119 0.250000
Si Si7 0.762299 0.058661 0.739285
Si Si8 0.622626 0.426987 0.662324
O O1 0.587103 0.863217 0.427833
O O2 0.448712 0.961790 0.296962
O O3 0.678373 0.779659 0.724981
O O4 0.573012 0.687677 0.743691
O O5 0.562585 0.690313 0.445190
O O6 0.712878 0.639475 0.758806
O O7 0.144123 0.583645 0.237969
O O8 0.275719 0.615269 0.223865
O O9 0.560371 0.404746 0.441899
O O10 0.769820 0.462802 0.140986
O O11 0.823988 0.529797 0.973296
O O12 0.931086 0.097225 0.261759
O O13 0.854109 0.010344 0.814435
#
# Coordination Sequence:
#
# PCOD9292716 Si02
#       8
#     4   8   8   4   8   4   8   8
#     4  12  23  47  71  99 130 176 230 286 319 401
#     4  11  24  42  63  99 135 178 216 278 338 403
#     4  11  25  43  69  96 140 172 223 279 341 391
#     4  10  24  42  65  96 139 170 224 268 337 401
#     4  11  23  43  67 100 125 174 229 276 321 398
#     4  10  23  41  66  97 133 178 232 260 340 394
#     4  11  23  41  69  98 131 174 228 265 345 390
#     4  10  22  44  66  98 132 176 224 277 319 400
#
# _framework density 21.70308
#
# number of rings (size 3 to 8) (size 9 to 14) (size 15 to 20)
#    0.000    1.231    3.077    3.692    0.000    7.385 
#    5.538    0.000    0.000    0.000    0.000    0.000 
#    0.000    0.000    0.000    0.000    0.000    0.000 
#
# Total GULP energy -145477.124420 kJ/mol
# GULP energy per Si atom -5595.274016 kJ/mol
# Density = 2.165368 g / cm^3
# Si number density = 21.703080 Si / 1000 Ang^3
#
#
#
# Elastic Constant Matrix: (Units=GPa)
#
#
# Indices 1 2 3 4 5 6 
#
# 1 92.4273 54.0677 21.7826 0.0000 -3.0406 0.0000
# 2 54.0677 165.0376 9.2890 0.0000 3.3714 0.0000
# 3 21.7826 9.2890 81.5771 0.0000 2.7578 0.0000
# 4 0.0000 0.0000 0.0000 16.6688 0.0000 6.2823
# 5 -3.0406 3.3714 2.7578 0.0000 34.9491 0.0000
# 6 0.0000 0.0000 0.0000 6.2823 0.0000 19.8004
#
#
#
# Elastic Compliance Matrix: (Units=1/GPa)
#
#
# Indices 1 2 3 4 5 6 
#
# 1 0.014340 -0.004548 -0.003377 0.000000 0.001953 0.000000
# 2 -0.004548 0.007551 0.000394 0.000000 -0.001155 0.000000
# 3 -0.003377 0.000394 0.013162 0.000000 -0.001370 0.000000
# 4 0.000000 0.000000 0.000000 0.068141 0.000000 -0.021620
# 5 0.001953 -0.001155 -0.001370 0.000000 0.029003 0.000000
# 6 0.000000 0.000000 0.000000 -0.021620 0.000000 0.057364
#
#
# Mechanical properties :
#
#
# Convention : Reuss Voigt Hill
#
# Bulk Modulus (GPa) = 50.02639 56.59119 53.30879
# Shear Modulus (GPa) = 23.66482 31.21050 27.43766
#
# Velocity S-wave (km/s) = 3.30569 3.79630 3.55946
# Velocity P-wave (km/s) = 6.13763 6.73407 6.44275
#
# Compressibility (1/GPa) = 0.01998945
#
# Stress axis : x y z
#
# Youngs Moduli (GPa) = 69.73644 132.44145 75.97855
#
# Poissons Ratio (x) = 0.60229 0.25659
# Poissons Ratio (y) = 0.31713 -0.02990
# Poissons Ratio (z) = 0.23551 -0.05213
#
# Static dielectric constant tensor:
#      x y z
#    x 1.770340 0.000000 0.016470 
#    y 0.000000 1.754280 0.000000 
#    z 0.016470 0.000000 1.847930 
# 
# From -- ./inp_files/50739.got.cif
#   From: 2010.05.17/outbox.cif.g08.bks.cpg/sg15_26_cif.got.tgz:50739.got - 2010.06.03 18:47:42.
