data_PCOD9292340
_publ_section_title
;
Structure prediction by ZEFSAII (Michael W. Deem and Ramdas Pophale) SiO2 
 PCOD9292340
Probable space group: C 2/C
;
_chemical_formula_sum "Si O2"
_cell_formula_units_Z 44
_cell_length_a 12.770124
_cell_length_b 27.900129
_cell_length_c 7.931913
_cell_angle_alpha 90.000000
_cell_angle_beta 51.852893
_cell_angle_gamma 90.000000
_cell_volume 2222.480349
_symmetry_space_group_name_H-M "C 2/C"
_symmetry_group_IT_number 15
_symmetry_cell_setting 'monoclinic'
loop_
_space_group_symop_operation_xyz
x,y,z
-x,y,1/2-z
-x,-y,-z
x,-y,1/2+z
1/2+x,1/2+y,z
1/2-x,1/2+y,1/2-z
1/2-x,1/2-y,-z
1/2+x,1/2-y,1/2+z
loop_
_atom_site_type_symbol
_atom_site_label
_atom_site_fract_x
_atom_site_fract_y
_atom_site_fract_z
Si Si1 0.761595 0.301411 0.076233
Si Si2 0.351960 0.207154 0.867090
Si Si3 0.500000 0.353592 0.250000
Si Si4 0.500000 0.490922 0.750000
Si Si5 0.000000 0.635799 0.250000
Si Si6 0.861368 0.064553 0.095254
Si Si7 0.593020 0.105805 0.504183
O O1 0.825383 0.303238 0.197825
O O2 0.613768 0.322674 0.225612
O O3 0.750000 0.250000 0.000000
O O4 0.866229 0.332937 0.867577
O O5 0.500000 0.226557 0.750000
O O6 0.250000 0.250000 0.000000
O O7 0.352264 0.157917 0.978541
O O8 0.422443 0.386923 0.459476
O O9 0.378225 0.525640 0.927849
O O10 0.543169 0.457237 0.858427
O O11 0.001740 0.608885 0.426735
O O12 0.719102 0.074684 0.319706
O O13 0.500000 0.087868 0.750000
#
# Coordination Sequence:
#
# PCOD9292340 Si02
#       7
#     8   8   4   4   4   8   8
#     4  12  25  40  63  95 139 187 235 283 335 390
#     4  11  25  41  60  92 134 181 236 282 333 388
#     4  11  25  40  70 104 126 194 234 270 352 414
#     4   9  22  44  71  98 134 164 208 305 350 415
#     4  12  21  44  63  90 140 176 224 291 330 395
#     4  10  22  43  70 100 131 166 226 279 353 421
#     4  11  23  43  67  99 132 183 225 278 346 411
#
# _framework density 19.797702000000001
#
# number of rings (size 3 to 8) (size 9 to 14) (size 15 to 20)
#    0.000    1.091    5.455    1.636    5.091    0.000 
#    3.273    0.909    0.000    0.000    0.000    0.000 
#    0.000    0.000    0.000    0.000    0.000    0.000 
#
# Total GULP energy -122660.215048 kJ/mol
# GULP energy per Si atom -5575.464320 kJ/mol
# Density = 1.975264 g / cm^3
# Si number density = 19.797702 Si / 1000 Ang^3
#
#
#
# Elastic Constant Matrix: (Units=GPa)
#
#
# Indices 1 2 3 4 5 6 
#
# 1 129.7594 30.9845 41.1518 0.0000 3.3912 0.0000
# 2 30.9845 50.8349 29.8049 0.0000 -3.5723 0.0000
# 3 41.1518 29.8049 133.7919 0.0000 -4.5034 0.0000
# 4 0.0000 0.0000 0.0000 15.6118 0.0000 -15.7400
# 5 3.3912 -3.5723 -4.5034 0.0000 51.4370 0.0000
# 6 0.0000 0.0000 0.0000 -15.7400 0.0000 12.1413
#
#
#
# Elastic Compliance Matrix: (Units=1/GPa)
#
#
# Indices 1 2 3 4 5 6 
#
# 1 0.009468 -0.004739 -0.001894 0.000000 -0.001119 0.000000
# 2 -0.004739 0.025065 -0.004069 0.000000 0.001697 0.000000
# 3 -0.001894 -0.004069 0.008985 0.000000 0.000629 0.000000
# 4 0.000000 0.000000 0.000000 -0.208613 0.000000 -0.270447
# 5 -0.001119 0.001697 0.000629 0.000000 0.019688 0.000000
# 6 0.000000 0.000000 0.000000 -0.270447 0.000000 -0.268245
#
#
# Mechanical properties :
#
#
# Convention : Reuss Voigt Hill
#
# Bulk Modulus (GPa) = 45.22175 57.58541 51.40358
# Shear Modulus (GPa) = -12.99115 30.00102 8.50493
#
# Velocity S-wave (km/s) = -2.56441 3.89701 2.07491
# Velocity P-wave (km/s) = 3.75809 7.02844 5.63570
#
# Compressibility (1/GPa) = 0.02211325
#
# Stress axis : x y z
#
# Youngs Moduli (GPa) = 105.61737 39.89631 111.30253
#
# Poissons Ratio (x) = 0.18907 0.21083
# Poissons Ratio (y) = 0.50052 0.45289
# Poissons Ratio (z) = 0.20006 0.16234
#
# Static dielectric constant tensor:
#      x y z
#    x 1.618430 0.000000 -0.070130 
#    y 0.000000 1.816770 0.000000 
#    z -0.070130 0.000000 1.516860 
# 
# From -- ./inp_files/35063.got.cif
#   From: 2010.05.17/outbox.cif.g08.bks.cpg/sg15_18_cif.got.tgz:35063.got - 2010.06.03 18:47:42.
