data_PCOD9292802
_publ_section_title
;
Structure prediction by ZEFSAII (Michael W. Deem and Ramdas Pophale) SiO2 
 PCOD9292802
Probable space group: C 2/C
;
_chemical_formula_sum "Si O2"
_cell_formula_units_Z 28
_cell_length_a 19.274170
_cell_length_b 6.515964
_cell_length_c 17.173663
_cell_angle_alpha 90.000000
_cell_angle_beta 28.768125
_cell_angle_gamma 90.000000
_cell_volume 1038.012443
_symmetry_space_group_name_H-M "C 2/C"
_symmetry_group_IT_number 15
_symmetry_cell_setting 'monoclinic'
loop_
_space_group_symop_operation_xyz
x,y,z
-x,y,1/2-z
-x,-y,-z
x,-y,1/2+z
1/2+x,1/2+y,z
1/2-x,1/2+y,1/2-z
1/2-x,1/2-y,-z
1/2+x,1/2-y,1/2+z
loop_
_atom_site_type_symbol
_atom_site_label
_atom_site_fract_x
_atom_site_fract_y
_atom_site_fract_z
Si Si1 0.075463 0.383935 0.600896
Si Si2 0.406712 0.864960 0.150456
Si Si3 0.750000 0.750000 0.000000
Si Si4 0.391354 0.467780 0.007713
O O1 0.206344 0.528063 0.498195
O O2 0.000000 0.285147 0.750000
O O3 0.949895 0.533456 0.691185
O O4 0.110217 0.210211 0.503860
O O5 0.237763 0.890983 0.309782
O O6 0.463030 0.634373 0.103901
O O7 0.500000 0.000000 0.000000
O O8 0.853018 0.869720 0.961678
#
# Coordination Sequence:
#
# PCOD9292802 Si02
#       4
#     8   8   4   8
#     4  11  24  43  76 108 144 190 248 311 378 440
#     4  11  28  48  70 106 147 201 246 306 368 450
#     4  10  22  44  68 108 144 178 240 306 374 432
#     4  11  26  45  74 105 150 189 251 300 374 447
#
# _framework density 26.974627999999999
#
# number of rings (size 3 to 8) (size 9 to 14) (size 15 to 20)
#    0.000    1.143    2.857    0.857    8.000    3.429 
#    0.000    0.000    0.000    0.000    0.000    0.000 
#    0.000    0.000    0.000    0.000    0.000    0.000 
#
# Total GULP energy -77957.393873 kJ/mol
# GULP energy per Si atom -5568.385277 kJ/mol
# Density = 2.691323 g / cm^3
# Si number density = 26.974628 Si / 1000 Ang^3
#
#
#
# Elastic Constant Matrix: (Units=GPa)
#
#
# Indices 1 2 3 4 5 6 
#
# 1 90.5996 50.5970 25.3284 -0.0004 -21.1209 -0.0002
# 2 50.5970 215.2041 51.6415 -0.0031 -23.3530 0.0027
# 3 25.3284 51.6415 98.4007 -0.0005 -17.9601 0.0003
# 4 -0.0004 -0.0031 -0.0005 9.2718 0.0007 -8.6287
# 5 -21.1209 -23.3530 -17.9601 0.0007 38.4205 -0.0005
# 6 -0.0002 0.0027 0.0003 -8.6287 -0.0005 70.7114
#
#
#
# Elastic Compliance Matrix: (Units=1/GPa)
#
#
# Indices 1 2 3 4 5 6 
#
# 1 0.014055 -0.002368 -0.001342 -0.000001 0.005660 0.000000
# 2 -0.002368 0.005876 -0.002252 0.000002 0.001217 0.000000
# 3 -0.001342 -0.002252 0.012360 0.000000 0.003671 0.000000
# 4 -0.000001 0.000002 0.000000 0.121671 -0.000002 0.014847
# 5 0.005660 0.001217 0.003671 -0.000002 0.031595 0.000000
# 6 0.000000 0.000000 0.000000 0.014847 0.000000 0.015954
#
#
# Mechanical properties :
#
#
# Convention : Reuss Voigt Hill
#
# Bulk Modulus (GPa) = 49.10077 73.25980 61.18028
# Shear Modulus (GPa) = 22.70424 42.12324 32.41374
#
# Velocity S-wave (km/s) = 2.90433 3.95598 3.47023
# Velocity P-wave (km/s) = 5.43037 6.93427 6.22788
#
# Compressibility (1/GPa) = 0.02036628
#
# Stress axis : x y z
#
# Youngs Moduli (GPa) = 71.15062 170.18267 80.90674
#
# Poissons Ratio (x) = 0.40304 0.10856
# Poissons Ratio (y) = 0.16850 0.18221
# Poissons Ratio (z) = 0.09547 0.38327
#
# Static dielectric constant tensor:
#      x y z
#    x 4.353980 0.000000 0.971790 
#    y 0.000000 2.075500 0.000000 
#    z 0.971790 0.000000 2.533760 
# 
# From -- ./inp_files/253924.got.cif
#   From: 2010.05.17/outbox.cif.g08.bks.cpg/sg15_127_cif.got.tgz:253924.got - 2010.06.03 18:47:42.
