data_PCOD9292692
_publ_section_title
;
Structure prediction by ZEFSAII (Michael W. Deem and Ramdas Pophale) SiO2 
 PCOD9292692
Probable space group: C 2/C
;
_chemical_formula_sum "Si O2"
_cell_formula_units_Z 36
_cell_length_a 12.766597
_cell_length_b 17.581466
_cell_length_c 16.659509
_cell_angle_alpha 90.000000
_cell_angle_beta 154.093975
_cell_angle_gamma 90.000000
_cell_volume 1633.694617
_symmetry_space_group_name_H-M "C 2/C"
_symmetry_group_IT_number 15
_symmetry_cell_setting 'monoclinic'
loop_
_space_group_symop_operation_xyz
x,y,z
-x,y,1/2-z
-x,-y,-z
x,-y,1/2+z
1/2+x,1/2+y,z
1/2-x,1/2+y,1/2-z
1/2-x,1/2-y,-z
1/2+x,1/2-y,1/2+z
loop_
_atom_site_type_symbol
_atom_site_label
_atom_site_fract_x
_atom_site_fract_y
_atom_site_fract_z
Si Si1 0.500000 0.823846 0.750000
Si Si2 0.578865 0.089295 0.149598
Si Si3 0.051301 0.194804 0.028271
Si Si4 0.670040 0.082801 0.692925
Si Si5 0.268011 0.810333 0.942313
O O1 0.553309 0.879446 0.862107
O O2 0.267604 0.777481 0.619385
O O3 0.807430 0.146581 0.306233
O O4 0.684805 0.004515 0.228690
O O5 0.408938 0.087775 0.954892
O O6 0.894060 0.135159 0.869683
O O7 0.890306 0.260327 0.955383
O O8 0.447179 0.121808 0.584683
O O9 0.000000 0.840530 0.750000
O O10 0.250000 0.750000 0.000000
#
# Coordination Sequence:
#
# PCOD9292692 Si02
#       5
#     4   8   8   8   8
#     4   8  22  42  66  96 132 170 222 278 324 400
#     4   9  22  43  65  99 131 174 231 273 326 409
#     4  10  22  44  66  95 137 173 227 272 338 397
#     4  11  22  42  68  95 135 178 221 278 335 391
#     4  12  24  42  67 102 132 178 224 276 336 403
#
# _framework density 22.035941999999999
#
# number of rings (size 3 to 8) (size 9 to 14) (size 15 to 20)
#    1.333    0.444    2.222    2.000    0.000    2.667 
#    8.000    4.444    0.000    0.000    0.000    0.000 
#    0.000    0.000    0.000    0.000    0.000    0.000 
#
# Total GULP energy -100407.459962 kJ/mol
# GULP energy per Si atom -5578.192220 kJ/mol
# Density = 2.198579 g / cm^3
# Si number density = 22.035942 Si / 1000 Ang^3
#
#
#
# Elastic Constant Matrix: (Units=GPa)
#
#
# Indices 1 2 3 4 5 6 
#
# 1 91.6242 26.4777 34.6393 -0.0393 16.8742 0.0067
# 2 26.4777 95.5373 29.2583 -0.0649 3.6005 0.0091
# 3 34.6393 29.2583 111.7193 -0.0385 15.8288 0.0092
# 4 -0.0393 -0.0649 -0.0385 17.5584 0.0162 -3.0942
# 5 16.8742 3.6005 15.8288 0.0162 41.4179 0.0038
# 6 0.0067 0.0091 0.0092 -3.0942 0.0038 23.3138
#
#
#
# Elastic Compliance Matrix: (Units=1/GPa)
#
#
# Indices 1 2 3 4 5 6 
#
# 1 0.013566 -0.002713 -0.002903 0.000018 -0.004182 0.000001
# 2 -0.002713 0.011923 -0.002422 0.000032 0.000995 0.000001
# 3 -0.002903 -0.002422 0.010877 0.000011 -0.002764 -0.000001
# 4 0.000018 0.000032 0.000011 0.058317 -0.000038 0.007740
# 5 -0.004182 0.000995 -0.002764 -0.000038 0.026817 -0.000008
# 6 0.000001 0.000001 -0.000001 0.007740 -0.000008 0.043920
#
#
# Mechanical properties :
#
#
# Convention : Reuss Voigt Hill
#
# Bulk Modulus (GPa) = 49.28722 53.29241 51.28981
# Shear Modulus (GPa) = 26.55883 30.35837 28.45860
#
# Velocity S-wave (km/s) = 3.47544 3.71573 3.59759
# Velocity P-wave (km/s) = 6.20646 6.53037 6.37047
#
# Compressibility (1/GPa) = 0.02028923
#
# Stress axis : x y z
#
# Youngs Moduli (GPa) = 73.71452 83.86875 91.93622
#
# Poissons Ratio (x) = 0.22754 0.26691
# Poissons Ratio (y) = 0.19999 0.22270
# Poissons Ratio (z) = 0.21401 0.20316
#
# Static dielectric constant tensor:
#      x y z
#    x 1.859120 0.000010 -0.024280 
#    y 0.000010 1.776450 -0.000010 
#    z -0.024280 -0.000010 1.869280 
# 
# From -- ./inp_files/245399.got.cif
#   From: 2010.05.17/outbox.cif.g08.bks.cpg/sg15_123_cif.got.tgz:245399.got - 2010.06.03 18:47:42.
