data_PCOD9292836
_publ_section_title
;
Structure prediction by ZEFSAII (Michael W. Deem and Ramdas Pophale) SiO2 
 PCOD9292836
Probable space group: C 2/C
;
_chemical_formula_sum "Si O2"
_cell_formula_units_Z 44
_cell_length_a 7.382322
_cell_length_b 11.914094
_cell_length_c 21.461067
_cell_angle_alpha 90.000000
_cell_angle_beta 97.038492
_cell_angle_gamma 90.000000
_cell_volume 1873.355083
_symmetry_space_group_name_H-M "C 2/C"
_symmetry_group_IT_number 15
_symmetry_cell_setting 'monoclinic'
loop_
_space_group_symop_operation_xyz
x,y,z
-x,y,1/2-z
-x,-y,-z
x,-y,1/2+z
1/2+x,1/2+y,z
1/2-x,1/2+y,1/2-z
1/2-x,1/2-y,-z
1/2+x,1/2-y,1/2+z
loop_
_atom_site_type_symbol
_atom_site_label
_atom_site_fract_x
_atom_site_fract_y
_atom_site_fract_z
Si Si1 0.857947 0.146856 0.974464
Si Si2 0.203829 0.497113 0.575935
Si Si3 0.346540 0.598429 0.694647
Si Si4 0.324394 0.967488 0.615630
Si Si5 0.000000 0.541789 0.750000
Si Si6 0.203444 0.234655 0.917809
O O1 0.050216 0.200903 0.961767
O O2 0.772357 0.081952 0.910691
O O3 0.750000 0.250000 0.000000
O O4 0.823368 0.051518 0.025695
O O5 0.320716 0.497126 0.644352
O O6 0.159505 0.630229 0.567247
O O7 0.008221 0.445601 0.582050
O O8 0.500000 0.575464 0.750000
O O9 0.152937 0.611867 0.720217
O O10 0.388085 0.704530 0.653024
O O11 0.214552 0.856476 0.590682
O O12 0.391398 0.976394 0.690071
#
# Coordination Sequence:
#
# PCOD9292836 Si02
#       6
#     8   8   8   8   4   8
#     4  12  23  42  69  95 135 177 217 277 337 399
#     4   9  22  41  62  99 129 168 228 265 333 406
#     4   9  20  41  68  97 132 178 226 275 341 402
#     4  11  23  43  67  95 131 177 216 278 336 391
#     4  10  22  44  68  96 138 172 230 280 332 408
#     4  10  23  41  66  95 130 174 216 278 333 396
#
# _framework density 23.487271
#
# number of rings (size 3 to 8) (size 9 to 14) (size 15 to 20)
#    1.091    0.727    1.818    2.182    1.273    0.727 
#    3.273    0.000    8.000    0.000    0.000    0.000 
#    0.000    0.000    0.000    0.000    0.000    0.000 
#
# Total GULP energy -122598.300215 kJ/mol
# GULP energy per Si atom -5572.650010 kJ/mol
# Density = 2.343381 g / cm^3
# Si number density = 23.487271 Si / 1000 Ang^3
#
#
#
# Elastic Constant Matrix: (Units=GPa)
#
#
# Indices 1 2 3 4 5 6 
#
# 1 14.3158 -20.0468 13.1426 0.0000 -12.1709 0.0000
# 2 -20.0468 92.7591 17.1174 0.0000 9.6743 0.0000
# 3 13.1426 17.1174 134.1412 0.0000 8.1245 0.0000
# 4 0.0000 0.0000 0.0000 7.5054 0.0000 -0.6538
# 5 -12.1709 9.6743 8.1245 0.0000 47.1303 0.0000
# 6 0.0000 0.0000 0.0000 -0.6538 0.0000 20.6145
#
#
#
# Elastic Compliance Matrix: (Units=1/GPa)
#
#
# Indices 1 2 3 4 5 6 
#
# 1 0.191321 0.041549 -0.026803 0.000000 0.045498 0.000000
# 2 0.041549 0.020262 -0.007129 0.000000 0.007799 0.000000
# 3 -0.026803 -0.007129 0.011441 0.000000 -0.007430 0.000000
# 4 0.000000 0.000000 0.000000 0.133607 0.000000 0.004238
# 5 0.045498 0.007799 -0.007430 0.000000 0.032647 0.000000
# 6 0.000000 0.000000 0.000000 0.004238 0.000000 0.048644
#
#
# Mechanical properties :
#
#
# Convention : Reuss Voigt Hill
#
# Bulk Modulus (GPa) = 4.19712 29.07141 16.63427
# Shear Modulus (GPa) = 9.95804 30.45024 20.20414
#
# Velocity S-wave (km/s) = 2.06130 3.60454 2.93613
# Velocity P-wave (km/s) = 2.73059 5.45234 4.31185
#
# Compressibility (1/GPa) = 0.23825860
#
# Stress axis : x y z
#
# Youngs Moduli (GPa) = 5.22681 49.35341 87.40848
#
# Poissons Ratio (x) = -2.05056 2.34277
# Poissons Ratio (y) = -0.21717 0.62311
# Poissons Ratio (z) = 0.14009 0.35183
#
# Static dielectric constant tensor:
#      x y z
#    x 1.896420 0.000000 0.020390 
#    y 0.000000 1.928090 0.000000 
#    z 0.020390 0.000000 1.952800 
# 
# From -- ./inp_files/262793.got.cif
#   From: 2010.05.17/outbox.cif.g08.bks.cpg/sg15_132_cif.got.tgz:262793.got - 2010.06.03 18:47:42.
