data_PCOD9292642
_publ_section_title
;
Structure prediction by ZEFSAII (Michael W. Deem and Ramdas Pophale) SiO2 
 PCOD9292642
Probable space group: C 2/C
;
_chemical_formula_sum "Si O2"
_cell_formula_units_Z 48
_cell_length_a 13.952031
_cell_length_b 11.027184
_cell_length_c 26.935636
_cell_angle_alpha 90.000000
_cell_angle_beta 149.579085
_cell_angle_gamma 90.000000
_cell_volume 2098.354611
_symmetry_space_group_name_H-M "C 2/C"
_symmetry_group_IT_number 15
_symmetry_cell_setting 'monoclinic'
loop_
_space_group_symop_operation_xyz
x,y,z
-x,y,1/2-z
-x,-y,-z
x,-y,1/2+z
1/2+x,1/2+y,z
1/2-x,1/2+y,1/2-z
1/2-x,1/2-y,-z
1/2+x,1/2-y,1/2+z
loop_
_atom_site_type_symbol
_atom_site_label
_atom_site_fract_x
_atom_site_fract_y
_atom_site_fract_z
Si Si1 0.617412 0.065673 0.160969
Si Si2 0.346806 0.752831 0.141050
Si Si3 0.069614 0.347212 0.065204
Si Si4 0.617931 0.747235 0.989180
Si Si5 0.465250 0.345377 0.870069
Si Si6 0.743590 0.006298 0.935879
O O1 0.576954 0.199321 0.119761
O O2 0.814502 0.068001 0.276965
O O3 0.603306 0.969196 0.110376
O O4 0.452428 0.035309 0.126642
O O5 0.500000 0.711871 0.250000
O O6 0.450633 0.741716 0.134442
O O7 0.293440 0.894943 0.123388
O O8 0.152104 0.677847 0.047272
O O9 0.122917 0.237748 0.126199
O O10 0.174923 0.336643 0.059578
O O11 0.750000 0.750000 0.000000
O O12 0.635416 0.614388 0.020687
O O13 0.634280 0.421921 0.968858
#
# Coordination Sequence:
#
# PCOD9292642 Si02
#       6
#     8   8   8   8   8   8
#     4  11  22  41  72  94 145 188 231 287 353 419
#     4  11  22  40  70  99 132 178 240 289 349 425
#     4  11  22  44  68  99 140 183 237 294 349 416
#     4  10  24  41  64  96 134 183 223 284 357 412
#     4  11  23  40  70 100 133 187 237 288 348 425
#     4  10  22  44  65  98 144 172 230 300 344 420
#
# _framework density 22.875067000000001
#
# number of rings (size 3 to 8) (size 9 to 14) (size 15 to 20)
#    0.000    1.333    3.333    2.500    2.333    5.333 
#    0.000    2.500    0.000    0.000    0.000    0.000 
#    0.000    0.000    0.000    0.000    0.000    0.000 
#
# Total GULP energy -134102.378524 kJ/mol
# GULP energy per Si atom -5587.599105 kJ/mol
# Density = 2.282300 g / cm^3
# Si number density = 22.875067 Si / 1000 Ang^3
#
#
#
# Elastic Constant Matrix: (Units=GPa)
#
#
# Indices 1 2 3 4 5 6 
#
# 1 92.5135 -0.5480 14.6260 0.0000 -10.4225 0.0000
# 2 -0.5480 86.9747 39.9811 0.0000 5.9717 0.0000
# 3 14.6260 39.9811 130.1195 0.0000 -4.8325 0.0000
# 4 0.0000 0.0000 0.0000 24.7345 0.0000 -2.9769
# 5 -10.4225 5.9717 -4.8325 0.0000 26.2289 0.0000
# 6 0.0000 0.0000 0.0000 -2.9769 0.0000 24.7559
#
#
#
# Elastic Compliance Matrix: (Units=1/GPa)
#
#
# Indices 1 2 3 4 5 6 
#
# 1 0.011487 0.000351 -0.001241 0.000000 0.004256 0.000000
# 2 0.000351 0.013793 -0.004419 0.000000 -0.003815 0.000000
# 3 -0.001241 -0.004419 0.009265 0.000000 0.002220 0.000000
# 4 0.000000 0.000000 0.000000 0.041023 0.000000 0.004933
# 5 0.004256 -0.003815 0.002220 0.000000 0.041095 0.000000
# 6 0.000000 0.000000 0.000000 0.004933 0.000000 0.040988
#
#
# Mechanical properties :
#
#
# Convention : Reuss Voigt Hill
#
# Bulk Modulus (GPa) = 41.79528 46.41399 44.10463
# Shear Modulus (GPa) = 28.36954 32.18042 30.27498
#
# Velocity S-wave (km/s) = 3.52546 3.75479 3.64193
# Velocity P-wave (km/s) = 5.90615 6.25557 6.08337
#
# Compressibility (1/GPa) = 0.02392615
#
# Stress axis : x y z
#
# Youngs Moduli (GPa) = 87.05519 72.49925 107.93246
#
# Poissons Ratio (x) = -0.02541 0.13393
# Poissons Ratio (y) = -0.03052 0.47698
# Poissons Ratio (z) = 0.10802 0.32039
#
# Static dielectric constant tensor:
#      x y z
#    x 1.895390 0.000000 -0.010590 
#    y 0.000000 1.907450 0.000000 
#    z -0.010590 0.000000 1.804570 
# 
# From -- ./inp_files/296037.got.cif
#   From: 2010.05.17/outbox.cif.g08.bks.cpg/sg15_149_cif.got.tgz:296037.got - 2010.06.03 18:47:42.
