data_PCOD9292180
_publ_section_title
;
Structure prediction by ZEFSAII (Michael W. Deem and Ramdas Pophale) SiO2 
 PCOD9292180
Probable space group: C 2/C
;
_chemical_formula_sum "Si O2"
_cell_formula_units_Z 52
_cell_length_a 5.102336
_cell_length_b 13.946055
_cell_length_c 31.202048
_cell_angle_alpha 90.000000
_cell_angle_beta 104.747037
_cell_angle_gamma 90.000000
_cell_volume 2147.121133
_symmetry_space_group_name_H-M "C 2/C"
_symmetry_group_IT_number 15
_symmetry_cell_setting 'monoclinic'
loop_
_space_group_symop_operation_xyz
x,y,z
-x,y,1/2-z
-x,-y,-z
x,-y,1/2+z
1/2+x,1/2+y,z
1/2-x,1/2+y,1/2-z
1/2-x,1/2-y,-z
1/2+x,1/2-y,1/2+z
loop_
_atom_site_type_symbol
_atom_site_label
_atom_site_fract_x
_atom_site_fract_y
_atom_site_fract_z
Si Si1 0.277335 0.074470 0.403208
Si Si2 0.708563 0.966336 0.472033
Si Si3 0.000000 0.929549 0.750000
Si Si4 0.616595 0.460459 0.166960
Si Si5 0.311647 0.281156 0.133283
Si Si6 0.036868 0.391050 0.680183
Si Si7 0.763621 0.777611 0.423523
O O1 0.306300 0.121853 0.357781
O O2 0.214563 0.164331 0.431482
O O3 0.044213 0.997868 0.382588
O O4 0.558229 0.022831 0.426933
O O5 0.750264 0.855272 0.460713
O O6 0.500000 0.000000 0.500000
O O7 0.000000 0.000000 0.500000
O O8 0.034458 0.991631 0.708729
O O9 0.269616 0.871586 0.772118
O O10 0.518690 0.352281 0.165394
O O11 0.919474 0.501174 0.175871
O O12 0.302371 0.184736 0.161345
O O13 0.452809 0.277244 0.091439
O O14 0.999527 0.309897 0.115072
#
# Coordination Sequence:
#
# PCOD9292180 Si02
#       7
#     8   8   4   8   8   8   8
#     4  10  23  41  70  91 131 180 223 271 337 406
#     4  12  27  42  66 101 138 173 220 287 342 399
#     4  10  24  42  58 102 134 170 216 278 340 400
#     4  11  21  42  68  93 133 177 223 276 337 403
#     4  11  23  40  73  99 125 180 231 270 323 408
#     4  10  22  43  67  94 134 176 224 276 340 400
#     4  11  23  44  67 100 129 172 231 270 333 408
#
# _framework density 24.218477
#
# number of rings (size 3 to 8) (size 9 to 14) (size 15 to 20)
#    0.000    1.231    3.077    2.308    4.308    1.231 
#    5.538    0.000    0.000    0.000    0.000    0.000 
#    0.000    0.000    0.000    0.000    0.000    0.000 
#
# Total GULP energy -144917.573668 kJ/mol
# GULP energy per Si atom -5573.752833 kJ/mol
# Density = 2.416335 g / cm^3
# Si number density = 24.218477 Si / 1000 Ang^3
#
#
#
# Elastic Constant Matrix: (Units=GPa)
#
#
# Indices 1 2 3 4 5 6 
#
# 1 126.7741 2.5062 34.0062 0.0000 17.0873 0.0000
# 2 2.5062 76.4977 10.4856 0.0000 4.0766 0.0000
# 3 34.0062 10.4856 93.0151 0.0000 17.9072 0.0000
# 4 0.0000 0.0000 0.0000 28.1023 0.0000 2.8655
# 5 17.0873 4.0766 17.9072 0.0000 48.5640 0.0000
# 6 0.0000 0.0000 0.0000 2.8655 0.0000 30.8029
#
#
#
# Elastic Compliance Matrix: (Units=1/GPa)
#
#
# Indices 1 2 3 4 5 6 
#
# 1 0.008942 0.000215 -0.002889 0.000000 -0.002099 0.000000
# 2 0.000215 0.013299 -0.001451 0.000000 -0.000657 0.000000
# 3 -0.002889 -0.001451 0.012650 0.000000 -0.003526 0.000000
# 4 0.000000 0.000000 0.000000 0.035925 0.000000 -0.003342
# 5 -0.002099 -0.000657 -0.003526 0.000000 0.022685 0.000000
# 6 0.000000 0.000000 0.000000 -0.003342 0.000000 0.032775
#
#
# Mechanical properties :
#
#
# Convention : Reuss Voigt Hill
#
# Bulk Modulus (GPa) = 37.53860 43.36478 40.45169
# Shear Modulus (GPa) = 34.86575 38.11309 36.48942
#
# Velocity S-wave (km/s) = 3.79837 3.97132 3.88580
# Velocity P-wave (km/s) = 5.89665 6.24284 6.07221
#
# Compressibility (1/GPa) = 0.02663925
#
# Stress axis : x y z
#
# Youngs Moduli (GPa) = 111.83543 75.19254 79.05347
#
# Poissons Ratio (x) = -0.01616 0.22840
# Poissons Ratio (y) = -0.02404 0.11473
# Poissons Ratio (z) = 0.32312 0.10913
#
# Static dielectric constant tensor:
#      x y z
#    x 2.020760 0.000000 -0.022570 
#    y 0.000000 2.035800 0.000000 
#    z -0.022570 0.000000 1.970850 
# 
# From -- ./inp_files/305358.got.cif
#   From: 2010.05.17/outbox.cif.g08.bks.cpg/sg15_153_cif.got.tgz:305358.got - 2010.06.03 18:47:42.
