data_PCOD9292177
_publ_section_title
;
Structure prediction by ZEFSAII (Michael W. Deem and Ramdas Pophale) SiO2 
 PCOD9292177
Probable space group: C 2/C
;
_chemical_formula_sum "Si O2"
_cell_formula_units_Z 48
_cell_length_a 11.267381
_cell_length_b 24.015092
_cell_length_c 9.105443
_cell_angle_alpha 90.000000
_cell_angle_beta 49.085480
_cell_angle_gamma 90.000000
_cell_volume 1861.875188
_symmetry_space_group_name_H-M "C 2/C"
_symmetry_group_IT_number 15
_symmetry_cell_setting 'monoclinic'
loop_
_space_group_symop_operation_xyz
x,y,z
-x,y,1/2-z
-x,-y,-z
x,-y,1/2+z
1/2+x,1/2+y,z
1/2-x,1/2+y,1/2-z
1/2-x,1/2-y,-z
1/2+x,1/2-y,1/2+z
loop_
_atom_site_type_symbol
_atom_site_label
_atom_site_fract_x
_atom_site_fract_y
_atom_site_fract_z
Si Si1 0.961619 0.289106 0.458737
Si Si2 0.674647 0.876845 0.434928
Si Si3 0.687221 0.356422 0.591393
Si Si4 0.866160 0.066042 0.984977
Si Si5 0.175475 0.540121 0.659659
Si Si6 0.554483 0.330651 0.416035
O O1 0.042624 0.334753 0.496027
O O2 0.000000 0.287900 0.250000
O O3 0.781504 0.310844 0.605465
O O4 0.000337 0.230745 0.504677
O O5 0.698555 0.909649 0.565717
O O6 0.666653 0.925552 0.318702
O O7 0.840737 0.841442 0.312223
O O8 0.500000 0.354302 0.750000
O O9 0.761711 0.417623 0.519883
O O10 0.699711 0.335893 0.412826
O O11 0.000000 0.056431 0.750000
O O12 0.942327 0.115042 0.021992
O O13 0.809156 0.005821 0.082646
O O14 0.000000 0.523595 0.750000
#
# Coordination Sequence:
#
# PCOD9292177 Si02
#       6
#     8   8   8   8   8   8
#     4  12  21  42  68  97 132 173 224 286 332 386
#     4  10  22  43  67  94 132 176 219 279 339 392
#     4  11  22  37  66 103 124 167 226 279 341 386
#     4  10  24  44  64  96 134 182 219 269 337 406
#     4  11  21  43  67  99 134 170 226 285 336 394
#     4  10  23  38  63  95 134 171 219 270 330 405
#
# _framework density 25.780459
#
# number of rings (size 3 to 8) (size 9 to 14) (size 15 to 20)
#    0.000    1.333    5.000    1.500    2.333    8.667 
#    3.000    0.000    0.000    0.000    0.000    0.000 
#    0.000    0.000    0.000    0.000    0.000    0.000 
#
# Total GULP energy -133686.347131 kJ/mol
# GULP energy per Si atom -5570.264464 kJ/mol
# Density = 2.572178 g / cm^3
# Si number density = 25.780459 Si / 1000 Ang^3
#
#
#
# Elastic Constant Matrix: (Units=GPa)
#
#
# Indices 1 2 3 4 5 6 
#
# 1 92.2345 52.9167 12.1401 0.0000 -26.9863 0.0000
# 2 52.9167 187.9230 28.7675 0.0000 -18.3075 0.0000
# 3 12.1401 28.7675 43.5177 0.0000 -33.4564 0.0000
# 4 0.0000 0.0000 0.0000 21.8121 0.0000 -2.8897
# 5 -26.9863 -18.3075 -33.4564 0.0000 34.9037 0.0000
# 6 0.0000 0.0000 0.0000 -2.8897 0.0000 43.7860
#
#
#
# Elastic Compliance Matrix: (Units=1/GPa)
#
#
# Indices 1 2 3 4 5 6 
#
# 1 0.025895 -0.008081 0.038967 0.000000 0.053134 0.000000
# 2 -0.008081 0.008498 -0.018016 0.000000 -0.019059 0.000000
# 3 0.038967 -0.018016 0.151724 0.000000 0.166111 0.000000
# 4 0.000000 0.000000 0.000000 0.046251 0.000000 0.003052
# 5 0.053134 -0.019059 0.166111 0.000000 0.218958 0.000000
# 6 0.000000 0.000000 0.000000 0.003052 0.000000 0.023040
#
#
# Mechanical properties :
#
#
# Convention : Reuss Voigt Hill
#
# Bulk Modulus (GPa) = 4.72013 56.81377 30.76695
# Shear Modulus (GPa) = 9.62938 35.42375 22.52656
#
# Velocity S-wave (km/s) = 1.93475 3.71084 2.95919
# Velocity P-wave (km/s) = 2.61264 6.35971 4.86167
#
# Compressibility (1/GPa) = 0.21185845
#
# Stress axis : x y z
#
# Youngs Moduli (GPa) = 38.61731 117.67647 6.59090
#
# Poissons Ratio (x) = 0.95089 -0.25683
# Poissons Ratio (y) = 0.31205 0.11874
# Poissons Ratio (z) = -1.50481 2.12009
#
# Static dielectric constant tensor:
#      x y z
#    x 2.132790 0.000000 0.255980 
#    y 0.000000 2.077670 0.000000 
#    z 0.255980 0.000000 2.586620 
# 
# From -- ./inp_files/89381.got.cif
#   From: 2010.05.17/outbox.cif.g08.bks.cpg/sg15_45_cif.got.tgz:89381.got - 2010.06.03 18:47:42.
