data_PCOD9292763
_publ_section_title
;
Structure prediction by ZEFSAII (Michael W. Deem and Ramdas Pophale) SiO2 
 PCOD9292763
Probable space group: C 2/C
;
_chemical_formula_sum "Si O2"
_cell_formula_units_Z 52
_cell_length_a 11.613065
_cell_length_b 9.062238
_cell_length_c 25.528796
_cell_angle_alpha 90.000000
_cell_angle_beta 119.813149
_cell_angle_gamma 90.000000
_cell_volume 2331.083952
_symmetry_space_group_name_H-M "C 2/C"
_symmetry_group_IT_number 15
_symmetry_cell_setting 'monoclinic'
loop_
_space_group_symop_operation_xyz
x,y,z
-x,y,1/2-z
-x,-y,-z
x,-y,1/2+z
1/2+x,1/2+y,z
1/2-x,1/2+y,1/2-z
1/2-x,1/2-y,-z
1/2+x,1/2-y,1/2+z
loop_
_atom_site_type_symbol
_atom_site_label
_atom_site_fract_x
_atom_site_fract_y
_atom_site_fract_z
Si Si1 0.569939 0.915139 0.969336
Si Si2 0.000000 0.399595 0.250000
Si Si3 0.158536 0.070185 0.789822
Si Si4 0.757689 0.781386 0.736307
Si Si5 0.090714 0.134914 0.604819
Si Si6 0.828431 0.108219 0.593651
Si Si7 0.341134 0.957461 0.620567
O O1 0.488568 0.762518 0.944379
O O2 0.584872 0.999310 0.917238
O O3 0.719198 0.896867 0.024314
O O4 0.500000 0.000000 0.000000
O O5 0.898283 0.292374 0.256482
O O6 0.927608 0.495744 0.189751
O O7 0.203854 0.228851 0.779622
O O8 0.203600 0.030361 0.858599
O O9 0.000000 0.061581 0.750000
O O10 0.225526 0.954876 0.765581
O O11 0.663657 0.718294 0.669224
O O12 0.968488 0.048053 0.603954
O O13 0.198145 0.037436 0.597538
O O14 0.836811 0.280545 0.612470
#
# Coordination Sequence:
#
# PCOD9292763 Si02
#       7
#     8   4   8   8   8   8   8
#     4  11  25  44  65  98 137 186 237 289 345 419
#     4  10  24  42  70 102 140 178 232 286 358 418
#     4  12  26  44  68 103 140 186 232 291 356 417
#     4  11  25  43  68 100 141 180 228 291 347 420
#     4  10  22  44  67  97 133 177 231 288 348 410
#     4  11  25  41  69  98 133 182 239 285 351 421
#     4  10  24  43  69 101 136 184 230 295 353 415
#
# _framework density 22.307219
#
# number of rings (size 3 to 8) (size 9 to 14) (size 15 to 20)
#    0.000    1.231    2.308    2.769   11.846    3.077 
#    0.000    0.000    0.000    0.000    0.000    0.000 
#    0.000    0.000    0.000    0.000    0.000    0.000 
#
# Total GULP energy -145379.342084 kJ/mol
# GULP energy per Si atom -5591.513157 kJ/mol
# Density = 2.225645 g / cm^3
# Si number density = 22.307219 Si / 1000 Ang^3
#
#
#
# Elastic Constant Matrix: (Units=GPa)
#
#
# Indices 1 2 3 4 5 6 
#
# 1 130.2069 39.0887 37.1663 0.0000 -8.1416 0.0000
# 2 39.0887 42.1792 17.0337 0.0000 -8.5617 0.0000
# 3 37.1663 17.0337 90.2751 0.0000 -7.4002 0.0000
# 4 0.0000 0.0000 0.0000 16.8378 0.0000 -3.0281
# 5 -8.1416 -8.5617 -7.4002 0.0000 47.5548 0.0000
# 6 0.0000 0.0000 0.0000 -3.0281 0.0000 26.7700
#
#
#
# Elastic Compliance Matrix: (Units=1/GPa)
#
#
# Indices 1 2 3 4 5 6 
#
# 1 0.011301 -0.009340 -0.002907 0.000000 -0.000199 0.000000
# 2 -0.009340 0.034124 -0.002250 0.000000 0.004194 0.000000
# 3 -0.002907 -0.002250 0.012788 0.000000 0.001087 0.000000
# 4 0.000000 0.000000 0.000000 0.060624 0.000000 0.006858
# 5 -0.000199 0.004194 0.001087 0.000000 0.021919 0.000000
# 6 0.000000 0.000000 0.000000 0.006858 0.000000 0.038131
#
#
# Mechanical properties :
#
#
# Convention : Reuss Voigt Hill
#
# Bulk Modulus (GPa) = 34.22294 49.91541 42.06917
# Shear Modulus (GPa) = 22.97607 29.52400 26.25004
#
# Velocity S-wave (km/s) = 3.21282 3.64197 3.43410
# Velocity P-wave (km/s) = 5.39795 6.33326 5.88422
#
# Compressibility (1/GPa) = 0.02922016
#
# Stress axis : x y z
#
# Youngs Moduli (GPa) = 88.48670 29.30524 78.20093
#
# Poissons Ratio (x) = 0.27370 0.22731
# Poissons Ratio (y) = 0.82643 0.17593
# Poissons Ratio (z) = 0.25721 0.06593
#
# Static dielectric constant tensor:
#      x y z
#    x 1.862290 0.000000 -0.003090 
#    y 0.000000 1.830030 0.000000 
#    z -0.003090 0.000000 1.855260 
# 
# From -- ./inp_files/291695.got.cif
#   From: 2010.05.17/outbox.cif.g08.bks.cpg/sg15_146_cif.got.tgz:291695.got - 2010.06.03 18:47:42.
