data_PCOD9292217
_publ_section_title
;
Structure prediction by ZEFSAII (Michael W. Deem and Ramdas Pophale) SiO2 
 PCOD9292217
Probable space group: C 2/C
;
_chemical_formula_sum "Si O2"
_cell_formula_units_Z 40
_cell_length_a 19.965633
_cell_length_b 7.073243
_cell_length_c 16.458617
_cell_angle_alpha 90.000000
_cell_angle_beta 45.778519
_cell_angle_gamma 90.000000
_cell_volume 1665.718502
_symmetry_space_group_name_H-M "C 2/C"
_symmetry_group_IT_number 15
_symmetry_cell_setting 'monoclinic'
loop_
_space_group_symop_operation_xyz
x,y,z
-x,y,1/2-z
-x,-y,-z
x,-y,1/2+z
1/2+x,1/2+y,z
1/2-x,1/2+y,1/2-z
1/2-x,1/2-y,-z
1/2+x,1/2-y,1/2+z
loop_
_atom_site_type_symbol
_atom_site_label
_atom_site_fract_x
_atom_site_fract_y
_atom_site_fract_z
Si Si1 0.560214 0.318109 0.975170
Si Si2 0.061954 0.193955 0.777534
Si Si3 0.229273 0.279599 0.423058
Si Si4 0.553189 0.243917 0.805407
Si Si5 0.847519 0.355836 0.436827
O O1 0.655697 0.357591 0.942854
O O2 0.583512 0.211945 0.872367
O O3 0.500000 0.500000 0.000000
O O4 0.495689 0.225158 0.098163
O O5 0.169586 0.241665 0.699781
O O6 0.000000 0.243115 0.750000
O O7 0.069976 0.964096 0.768812
O O8 0.250000 0.250000 0.500000
O O9 0.181797 0.484732 0.472752
O O10 0.607544 0.116451 0.692825
O O11 0.440703 0.232570 0.896717
O O12 0.750000 0.250000 0.500000
#
# Coordination Sequence:
#
# PCOD9292217 Si02
#       5
#     8   8   8   8   8
#     4  10  25  44  69 106 151 188 237 309 369 437
#     4  11  19  42  70  99 146 188 241 303 371 444
#     4  12  25  42  72 106 137 195 247 298 373 443
#     4  10  22  43  68 100 142 191 233 305 371 428
#     4  11  22  40  71  99 138 190 242 290 366 446
#
# _framework density 24.013660000000002
#
# number of rings (size 3 to 8) (size 9 to 14) (size 15 to 20)
#    0.000    1.200    6.000    0.000    2.800    5.600 
#    3.600    0.000    0.000    0.000    0.000    0.000 
#    0.000    0.000    0.000    0.000    0.000    0.000 
#
# Total GULP energy -111501.540579 kJ/mol
# GULP energy per Si atom -5575.077029 kJ/mol
# Density = 2.395900 g / cm^3
# Si number density = 24.013660 Si / 1000 Ang^3
#
#
#
# Elastic Constant Matrix: (Units=GPa)
#
#
# Indices 1 2 3 4 5 6 
#
# 1 170.8797 17.7818 73.6866 0.0008 -20.7587 -0.0004
# 2 17.7818 61.7334 -5.4271 0.0035 -23.9042 -0.0024
# 3 73.6866 -5.4271 139.8337 -0.0001 -22.0187 -0.0002
# 4 0.0008 0.0035 -0.0001 21.5613 -0.0012 -13.8162
# 5 -20.7587 -23.9042 -22.0187 -0.0012 75.6319 0.0008
# 6 -0.0004 -0.0024 -0.0002 -13.8162 0.0008 24.2299
#
#
#
# Elastic Compliance Matrix: (Units=1/GPa)
#
#
# Indices 1 2 3 4 5 6 
#
# 1 0.007993 -0.002638 -0.004297 0.000000 0.000109 0.000000
# 2 -0.002638 0.019728 0.003169 -0.000003 0.006434 0.000000
# 3 -0.004297 0.003169 0.009968 0.000000 0.002724 0.000000
# 4 0.000000 -0.000003 0.000000 0.073082 0.000000 0.041673
# 5 0.000109 0.006434 0.002724 0.000000 0.016078 0.000000
# 6 0.000000 0.000000 0.000000 0.041673 0.000000 0.065033
#
#
# Mechanical properties :
#
#
# Convention : Reuss Voigt Hill
#
# Bulk Modulus (GPa) = 33.16021 60.50328 46.83174
# Shear Modulus (GPa) = 23.87006 43.37834 33.62420
#
# Velocity S-wave (km/s) = 3.15623 4.25479 3.74600
# Velocity P-wave (km/s) = 5.20781 7.02764 6.18502
#
# Compressibility (1/GPa) = 0.03015663
#
# Stress axis : x y z
#
# Youngs Moduli (GPa) = 125.11274 50.68849 100.32461
#
# Poissons Ratio (x) = 0.13371 0.43110
# Poissons Ratio (y) = 0.33002 -0.31791
# Poissons Ratio (z) = 0.53762 -0.16062
#
# Static dielectric constant tensor:
#      x y z
#    x 1.678490 0.000000 0.170900 
#    y 0.000000 1.968020 0.000000 
#    z 0.170900 0.000000 1.778260 
# 
# From -- ./inp_files/213670.got.cif
#   From: 2010.05.17/outbox.cif.g08.bks.cpg/sg15_107_cif.got.tgz:213670.got - 2010.06.03 18:47:42.
