data_PCOD9292435
_publ_section_title
;
Structure prediction by ZEFSAII (Michael W. Deem and Ramdas Pophale) SiO2 
 PCOD9292435
Probable space group: C 2/C
;
_chemical_formula_sum "Si O2"
_cell_formula_units_Z 56
_cell_length_a 29.767669
_cell_length_b 5.102935
_cell_length_c 18.693497
_cell_angle_alpha 90.000000
_cell_angle_beta 123.392615
_cell_angle_gamma 90.000000
_cell_volume 2370.825894
_symmetry_space_group_name_H-M "C 2/C"
_symmetry_group_IT_number 15
_symmetry_cell_setting 'monoclinic'
loop_
_space_group_symop_operation_xyz
x,y,z
-x,y,1/2-z
-x,-y,-z
x,-y,1/2+z
1/2+x,1/2+y,z
1/2-x,1/2+y,1/2-z
1/2-x,1/2-y,-z
1/2+x,1/2-y,1/2+z
loop_
_atom_site_type_symbol
_atom_site_label
_atom_site_fract_x
_atom_site_fract_y
_atom_site_fract_z
Si Si1 0.116055 0.955547 0.345284
Si Si2 0.500000 0.571341 0.250000
Si Si3 0.931054 0.735720 0.972826
Si Si4 0.331032 0.958983 0.158953
Si Si5 0.249793 0.225430 0.702282
Si Si6 0.176167 0.119373 0.050073
Si Si7 0.505972 0.740642 0.412222
Si Si8 0.750000 0.750000 0.000000
O O1 0.053784 0.900486 0.298947
O O2 0.125384 0.250113 0.328441
O O3 0.147308 0.933795 0.448125
O O4 0.143182 0.747500 0.315890
O O5 0.499210 0.736817 0.321839
O O6 0.956810 0.476387 0.028784
O O7 0.949715 0.744915 0.906373
O O8 0.962573 0.977931 0.036990
O O9 0.868491 0.755353 0.937681
O O10 0.302526 0.843676 0.202859
O O11 0.286031 0.998194 0.057962
O O12 0.249936 0.016242 0.767310
O O13 0.199117 0.136707 0.609496
O O14 0.227242 0.278422 0.063881
#
# Coordination Sequence:
#
# PCOD9292435 Si02
#       8
#     8   4   8   8   8   8   8   4
#     4  11  25  41  69  98 136 181 229 293 356 401
#     4  12  26  44  70 106 140 184 248 304 334 426
#     4  10  22  44  66  94 134 184 227 279 355 413
#     4  10  23  43  63  99 137 172 225 289 351 413
#     4  11  25  43  69 102 136 179 230 283 348 434
#     4  10  22  43  71  96 138 182 228 286 351 426
#     4  10  24  41  65  97 135 178 235 286 339 412
#     4   8  20  36  66  98 122 166 226 278 336 414
#
# _framework density 23.620460000000001
#
# number of rings (size 3 to 8) (size 9 to 14) (size 15 to 20)
#    0.000    1.714    1.429    0.857    4.000   14.286 
#    0.000    2.857    0.000    0.000    0.000    0.000 
#    0.000    0.000    0.000    0.000    0.000    0.000 
#
# Total GULP energy -156084.091240 kJ/mol
# GULP energy per Si atom -5574.431830 kJ/mol
# Density = 2.356670 g / cm^3
# Si number density = 23.620460 Si / 1000 Ang^3
#
#
#
# Elastic Constant Matrix: (Units=GPa)
#
#
# Indices 1 2 3 4 5 6 
#
# 1 131.6734 18.8122 29.8803 0.0017 -26.8857 -0.0008
# 2 18.8122 102.2727 19.3688 -0.0014 0.3487 -0.0048
# 3 29.8803 19.3688 80.0718 0.0013 -23.7643 -0.0009
# 4 0.0017 -0.0014 0.0013 23.4439 0.0012 -10.6288
# 5 -26.8857 0.3487 -23.7643 0.0012 24.8591 -0.0033
# 6 -0.0008 -0.0048 -0.0009 -10.6288 -0.0033 16.1541
#
#
#
# Elastic Compliance Matrix: (Units=1/GPa)
#
#
# Indices 1 2 3 4 5 6 
#
# 1 0.010102 -0.001878 -0.000091 -0.000001 0.010865 0.000002
# 2 -0.001878 0.010820 -0.003580 0.000003 -0.005605 0.000004
# 3 -0.000091 -0.003580 0.018672 -0.000001 0.017802 0.000003
# 4 -0.000001 0.000003 -0.000001 0.060788 0.000001 0.039996
# 5 0.010865 -0.005605 0.017802 0.000001 0.069074 0.000014
# 6 0.000002 0.000004 0.000003 0.039996 0.000014 0.088220
#
#
# Mechanical properties :
#
#
# Convention : Reuss Voigt Hill
#
# Bulk Modulus (GPa) = 35.09235 50.01562 42.55399
# Shear Modulus (GPa) = 17.96796 29.28851 23.62824
#
# Velocity S-wave (km/s) = 2.76106 3.52513 3.16623
# Velocity P-wave (km/s) = 5.00536 6.14731 5.60549
#
# Compressibility (1/GPa) = 0.02849624
#
# Stress axis : x y z
#
# Youngs Moduli (GPa) = 98.99081 92.41830 53.55607
#
# Poissons Ratio (x) = 0.17356 0.00487
# Poissons Ratio (y) = 0.18591 0.19174
# Poissons Ratio (z) = 0.00900 0.33087
#
# Static dielectric constant tensor:
#      x y z
#    x 1.951710 0.000000 0.013660 
#    y 0.000000 1.864500 0.000000 
#    z 0.013660 0.000000 1.904240 
# 
# From -- ./inp_files/221328.got.cif
#   From: 2010.05.17/outbox.cif.g08.bks.cpg/sg15_111_cif.got.tgz:221328.got - 2010.06.03 18:47:42.
