data_PCOD9292944
_publ_section_title
;
Structure prediction by ZEFSAII (Michael W. Deem and Ramdas Pophale) SiO2 
 PCOD9292944
Probable space group: C 2/C
;
_chemical_formula_sum "Si O2"
_cell_formula_units_Z 40
_cell_length_a 9.386952
_cell_length_b 12.524694
_cell_length_c 12.540074
_cell_angle_alpha 90.000000
_cell_angle_beta 95.108665
_cell_angle_gamma 90.000000
_cell_volume 1468.463641
_symmetry_space_group_name_H-M "C 2/C"
_symmetry_group_IT_number 15
_symmetry_cell_setting 'monoclinic'
loop_
_space_group_symop_operation_xyz
x,y,z
-x,y,1/2-z
-x,-y,-z
x,-y,1/2+z
1/2+x,1/2+y,z
1/2-x,1/2+y,1/2-z
1/2-x,1/2-y,-z
1/2+x,1/2-y,1/2+z
loop_
_atom_site_type_symbol
_atom_site_label
_atom_site_fract_x
_atom_site_fract_y
_atom_site_fract_z
Si Si1 0.245979 0.410758 0.898683
Si Si2 0.343637 0.632385 0.795084
Si Si3 0.403021 0.904101 0.388178
Si Si4 0.500000 0.905327 0.750000
Si Si5 0.524435 0.690852 0.375333
Si Si6 0.250000 0.750000 0.000000
O O1 0.303042 0.517242 0.845075
O O2 0.137971 0.351433 0.809511
O O3 0.387254 0.343930 0.929815
O O4 0.164709 0.423057 0.003164
O O5 0.500000 0.627645 0.750000
O O6 0.214814 0.645004 0.700093
O O7 0.333364 0.715702 0.891717
O O8 0.536625 0.819005 0.402676
O O9 0.453815 0.012717 0.339404
O O10 0.500000 0.672180 0.250000
O O11 0.670245 0.649536 0.431770
#
# Coordination Sequence:
#
# PCOD9292944 Si02
#       6
#     8   8   8   4   8   4
#     4  11  25  41  75 107 147 194 252 312 372 441
#     4  11  25  48  73 109 149 196 252 310 373 446
#     4  11  22  47  67  98 153 194 242 306 370 451
#     4  10  22  44  70 104 146 196 248 304 374 444
#     4  12  24  45  69 104 144 194 249 304 371 445
#     4  12  26  46  78  98 148 206 240 310 384 438
#
# _framework density 27.239353999999999
#
# number of rings (size 3 to 8) (size 9 to 14) (size 15 to 20)
#    0.000    0.800    3.000    4.200    0.000    8.000 
#    1.800    0.000    0.000    0.000    0.000    0.000 
#    0.000    0.000    0.000    0.000    0.000    0.000 
#
# Total GULP energy -111703.729452 kJ/mol
# GULP energy per Si atom -5585.186473 kJ/mol
# Density = 2.717736 g / cm^3
# Si number density = 27.239354 Si / 1000 Ang^3
#
#
#
# Elastic Constant Matrix: (Units=GPa)
#
#
# Indices 1 2 3 4 5 6 
#
# 1 91.7354 23.6665 38.8820 0.0000 -41.8856 0.0000
# 2 23.6665 61.3038 10.1503 0.0000 -3.4726 0.0000
# 3 38.8820 10.1503 191.3875 0.0000 -37.5221 0.0000
# 4 0.0000 0.0000 0.0000 17.7732 0.0000 -12.7635
# 5 -41.8856 -3.4726 -37.5221 0.0000 52.5986 0.0000
# 6 0.0000 0.0000 0.0000 -12.7635 0.0000 41.5936
#
#
#
# Elastic Compliance Matrix: (Units=1/GPa)
#
#
# Indices 1 2 3 4 5 6 
#
# 1 0.019616 -0.006617 -0.000764 0.000000 0.014638 0.000000
# 2 -0.006617 0.018702 -0.000510 0.000000 -0.004398 0.000000
# 3 -0.000764 -0.000510 0.006140 0.000000 0.003738 0.000000
# 4 0.000000 0.000000 0.000000 0.072168 0.000000 0.022146
# 5 0.014638 -0.004398 0.003738 0.000000 0.033045 0.000000
# 6 0.000000 0.000000 0.000000 0.022146 0.000000 0.030838
#
#
# Mechanical properties :
#
#
# Convention : Reuss Voigt Hill
#
# Bulk Modulus (GPa) = 34.87274 54.42492 44.64883
# Shear Modulus (GPa) = 24.28964 40.50827 32.39895
#
# Velocity S-wave (km/s) = 2.98939 3.86051 3.45253
# Velocity P-wave (km/s) = 4.97448 6.31625 5.68509
#
# Compressibility (1/GPa) = 0.02867569
#
# Stress axis : x y z
#
# Youngs Moduli (GPa) = 50.97953 53.47027 162.86273
#
# Poissons Ratio (x) = 0.35381 0.12447
# Poissons Ratio (y) = 0.33733 0.08304
# Poissons Ratio (z) = 0.03896 0.02726
#
# Static dielectric constant tensor:
#      x y z
#    x 1.335340 0.000000 -0.446390 
#    y 0.000000 2.148620 0.000000 
#    z -0.446390 0.000000 1.744670 
# 
# From -- ./inp_files/76852.got.cif
#   From: 2010.05.17/outbox.cif.g08.bks.cpg/sg15_39_cif.got.tgz:76852.got - 2010.06.03 18:47:42.
