data_PCOD9292479
_publ_section_title
;
Structure prediction by ZEFSAII (Michael W. Deem and Ramdas Pophale) SiO2 
 PCOD9292479
Probable space group: C 2/C
;
_chemical_formula_sum "Si O2"
_cell_formula_units_Z 52
_cell_length_a 8.155287
_cell_length_b 25.805647
_cell_length_c 11.736793
_cell_angle_alpha 90.000000
_cell_angle_beta 117.471697
_cell_angle_gamma 90.000000
_cell_volume 2191.512651
_symmetry_space_group_name_H-M "C 2/C"
_symmetry_group_IT_number 15
_symmetry_cell_setting 'monoclinic'
loop_
_space_group_symop_operation_xyz
x,y,z
-x,y,1/2-z
-x,-y,-z
x,-y,1/2+z
1/2+x,1/2+y,z
1/2-x,1/2+y,1/2-z
1/2-x,1/2-y,-z
1/2+x,1/2-y,1/2+z
loop_
_atom_site_type_symbol
_atom_site_label
_atom_site_fract_x
_atom_site_fract_y
_atom_site_fract_z
Si Si1 0.790809 0.506776 0.152128
Si Si2 0.109009 0.235345 0.121534
Si Si3 0.101319 0.201747 0.891903
Si Si4 0.000000 0.146449 0.250000
Si Si5 0.500000 0.829293 0.250000
Si Si6 0.000000 0.023578 0.750000
Si Si7 0.188126 0.901732 0.475579
Si Si8 0.800533 0.099545 0.977559
O O1 0.628148 0.505154 0.196388
O O2 0.739823 0.461604 0.045719
O O3 0.000000 0.493608 0.250000
O O4 0.795640 0.563609 0.099365
O O5 0.305249 0.247492 0.129557
O O6 0.106775 0.186088 0.201401
O O7 0.062909 0.287652 0.174004
O O8 0.992197 0.220080 0.970249
O O9 0.247956 0.156371 0.969414
O O10 0.000000 0.178159 0.750000
O O11 0.142489 0.115545 0.376109
O O12 0.355227 0.866545 0.137029
O O13 0.151190 0.061331 0.856901
O O14 0.985022 0.892983 0.462778
#
# Coordination Sequence:
#
# PCOD9292479 Si02
#       8
#     8   8   8   4   4   4   8   8
#     4  11  26  48  74 111 147 195 254 307 376 455
#     4  10  25  40  67 106 138 189 246 309 364 445
#     4  11  22  44  68  95 143 192 242 300 378 448
#     4  11  24  43  72 108 144 190 248 312 376 436
#     4  11  24  42  75 106 142 189 258 301 366 450
#     4  10  22  43  73 102 140 193 240 305 368 438
#     4  11  23  43  73 101 144 195 243 305 376 446
#     4  11  23  44  72 107 146 190 244 307 373 448
#
# _framework density 23.727903000000001
#
# number of rings (size 3 to 8) (size 9 to 14) (size 15 to 20)
#    0.000    1.231    3.077    2.769    4.308    4.308 
#    0.000    6.154    0.000    0.000    0.000    0.000 
#    0.000    0.000    0.000    0.000    0.000    0.000 
#
# Total GULP energy -145045.067019 kJ/mol
# GULP energy per Si atom -5578.656424 kJ/mol
# Density = 2.367390 g / cm^3
# Si number density = 23.727903 Si / 1000 Ang^3
#
#
#
# Elastic Constant Matrix: (Units=GPa)
#
#
# Indices 1 2 3 4 5 6 
#
# 1 50.1668 33.4887 47.1465 0.0000 0.8656 0.0000
# 2 33.4887 143.6858 73.9799 0.0000 -2.8299 0.0000
# 3 47.1465 73.9799 156.4434 0.0000 -15.3688 0.0000
# 4 0.0000 0.0000 0.0000 30.2991 0.0000 13.2903
# 5 0.8656 -2.8299 -15.3688 0.0000 35.1836 0.0000
# 6 0.0000 0.0000 0.0000 13.2903 0.0000 11.3794
#
#
#
# Elastic Compliance Matrix: (Units=1/GPa)
#
#
# Indices 1 2 3 4 5 6 
#
# 1 0.029371 -0.002844 -0.007941 0.000000 -0.004420 0.000000
# 2 -0.002844 0.009525 -0.003725 0.000000 -0.000791 0.000000
# 3 -0.007941 -0.003725 0.011009 0.000000 0.004705 0.000000
# 4 0.000000 0.000000 0.000000 0.067672 0.000000 -0.079036
# 5 -0.004420 -0.000791 0.004705 0.000000 0.030522 0.000000
# 6 0.000000 0.000000 0.000000 -0.079036 0.000000 0.180187
#
#
# Mechanical properties :
#
#
# Convention : Reuss Voigt Hill
#
# Bulk Modulus (GPa) = 47.88031 73.28068 60.58049
# Shear Modulus (GPa) = 13.72623 28.41783 21.07203
#
# Velocity S-wave (km/s) = 2.40778 3.46447 2.98328
# Velocity P-wave (km/s) = 5.28702 6.85231 6.11992
#
# Compressibility (1/GPa) = 0.02088541
#
# Stress axis : x y z
#
# Youngs Moduli (GPa) = 34.04731 104.99073 90.83788
#
# Poissons Ratio (x) = 0.29860 0.72131
# Poissons Ratio (y) = 0.09683 0.33834
# Poissons Ratio (z) = 0.27036 0.39106
#
# Static dielectric constant tensor:
#      x y z
#    x 1.923520 0.000000 -0.002770 
#    y 0.000000 1.957320 0.000000 
#    z -0.002770 0.000000 2.090260 
# 
# From -- ./inp_files/80901.got.cif
#   From: 2010.05.17/outbox.cif.g08.bks.cpg/sg15_41_cif.got.tgz:80901.got - 2010.06.03 18:47:42.
