data_PCOD9292797
_publ_section_title
;
Structure prediction by ZEFSAII (Michael W. Deem and Ramdas Pophale) SiO2 
 PCOD9292797
Probable space group: C 2/C
;
_chemical_formula_sum "Si O2"
_cell_formula_units_Z 44
_cell_length_a 14.224067
_cell_length_b 8.997460
_cell_length_c 14.160554
_cell_angle_alpha 90.000000
_cell_angle_beta 84.276031
_cell_angle_gamma 90.000000
_cell_volume 1803.238291
_symmetry_space_group_name_H-M "C 2/C"
_symmetry_group_IT_number 15
_symmetry_cell_setting 'monoclinic'
loop_
_space_group_symop_operation_xyz
x,y,z
-x,y,1/2-z
-x,-y,-z
x,-y,1/2+z
1/2+x,1/2+y,z
1/2-x,1/2+y,1/2-z
1/2-x,1/2-y,-z
1/2+x,1/2-y,1/2+z
loop_
_atom_site_type_symbol
_atom_site_label
_atom_site_fract_x
_atom_site_fract_y
_atom_site_fract_z
Si Si1 0.646092 0.478446 0.719211
Si Si2 0.610290 0.116092 0.910273
Si Si3 0.596376 0.581663 0.518783
Si Si4 0.000000 0.709174 0.750000
Si Si5 0.713030 0.090109 0.538817
Si Si6 0.760807 0.703539 0.771730
O O1 0.608376 0.547064 0.627498
O O2 0.582208 0.336126 0.748609
O O3 0.660895 0.617027 0.785939
O O4 0.742666 0.378873 0.709462
O O5 0.527488 0.112287 0.839494
O O6 0.701449 0.164627 0.836961
O O7 0.589203 0.250765 0.983930
O O8 0.637173 0.978183 0.974355
O O9 0.500000 0.500000 0.500000
O O10 0.695639 0.517334 0.468955
O O11 0.750000 0.250000 0.500000
O O12 0.681689 0.123133 0.649239
#
# Coordination Sequence:
#
# PCOD9292797 Si02
#       6
#     8   8   8   4   8   8
#     4  11  23  42  68 101 135 186 233 296 358 443
#     4  11  24  43  73 100 143 193 234 297 361 432
#     4  12  24  44  69 105 138 184 239 299 367 430
#     4  10  22  44  68 104 144 186 238 294 376 420
#     4  12  24  44  71 102 140 187 250 292 351 442
#     4  11  23  42  68  96 139 183 237 290 357 419
#
# _framework density 24.400545999999999
#
# number of rings (size 3 to 8) (size 9 to 14) (size 15 to 20)
#    0.000    0.727    5.455    2.727    2.545    0.000 
#    0.000    8.182    0.000    1.091    0.000    0.000 
#    0.000    0.000    0.000    0.000    0.000    0.000 
#
# Total GULP energy -122649.069998 kJ/mol
# GULP energy per Si atom -5574.957727 kJ/mol
# Density = 2.434501 g / cm^3
# Si number density = 24.400546 Si / 1000 Ang^3
#
#
#
# Elastic Constant Matrix: (Units=GPa)
#
#
# Indices 1 2 3 4 5 6 
#
# 1 57.1082 37.6621 -0.4147 0.0000 33.8680 0.0000
# 2 37.6621 155.3992 64.7559 0.0000 42.4212 0.0000
# 3 -0.4147 64.7559 108.8463 0.0000 38.3070 0.0000
# 4 0.0000 0.0000 0.0000 48.8351 0.0000 6.3180
# 5 33.8680 42.4212 38.3070 0.0000 45.2815 0.0000
# 6 0.0000 0.0000 0.0000 6.3180 0.0000 31.6682
#
#
#
# Elastic Compliance Matrix: (Units=1/GPa)
#
#
# Indices 1 2 3 4 5 6 
#
# 1 0.055573 -0.008971 0.024520 0.000000 -0.053904 0.000000
# 2 -0.008971 0.010994 -0.007563 0.000000 0.002809 0.000000
# 3 0.024520 -0.007563 0.025262 0.000000 -0.032625 0.000000
# 4 0.000000 0.000000 0.000000 0.021020 0.000000 -0.004194
# 5 -0.053904 0.002809 -0.032625 0.000000 0.087370 0.000000
# 6 0.000000 0.000000 0.000000 -0.004194 0.000000 0.032414
#
#
# Mechanical properties :
#
#
# Convention : Reuss Voigt Hill
#
# Bulk Modulus (GPa) = 9.27647 58.37336 33.82492
# Shear Modulus (GPa) = 19.79444 39.78032 29.78738
#
# Velocity S-wave (km/s) = 2.85130 4.04208 3.49774
# Velocity P-wave (km/s) = 3.82752 6.76458 5.49588
#
# Compressibility (1/GPa) = 0.10779961
#
# Stress axis : x y z
#
# Youngs Moduli (GPa) = 17.99440 90.95599 39.58461
#
# Poissons Ratio (x) = 0.81598 -0.97060
# Poissons Ratio (y) = 0.16143 0.29940
# Poissons Ratio (z) = -0.44122 0.68794
#
# Static dielectric constant tensor:
#      x y z
#    x 2.373340 0.000000 -0.066930 
#    y 0.000000 1.749980 0.000000 
#    z -0.066930 0.000000 2.025110 
# 
# From -- ./inp_files/159374.got.cif
#   From: 2010.05.17/outbox.cif.g08.bks.cpg/sg15_80_cif.got.tgz:159374.got - 2010.06.03 18:47:42.
