data_PCOD9292344
_publ_section_title
;
Structure prediction by ZEFSAII (Michael W. Deem and Ramdas Pophale) SiO2 
 PCOD9292344
Probable space group: C 2/C
;
_chemical_formula_sum "Si O2"
_cell_formula_units_Z 28
_cell_length_a 28.221633
_cell_length_b 7.610433
_cell_length_c 11.423582
_cell_angle_alpha 90.000000
_cell_angle_beta 155.350988
_cell_angle_gamma 90.000000
_cell_volume 1023.271087
_symmetry_space_group_name_H-M "C 2/C"
_symmetry_group_IT_number 15
_symmetry_cell_setting 'monoclinic'
loop_
_space_group_symop_operation_xyz
x,y,z
-x,y,1/2-z
-x,-y,-z
x,-y,1/2+z
1/2+x,1/2+y,z
1/2-x,1/2+y,1/2-z
1/2-x,1/2-y,-z
1/2+x,1/2-y,1/2+z
loop_
_atom_site_type_symbol
_atom_site_label
_atom_site_fract_x
_atom_site_fract_y
_atom_site_fract_z
Si Si1 0.000000 0.261855 0.750000
Si Si2 0.073724 0.675928 0.167142
Si Si3 0.716576 0.753050 0.291399
Si Si4 0.666677 0.367569 0.163568
O O1 0.974954 0.214026 0.832983
O O2 0.885049 0.385231 0.467976
O O3 0.206359 0.636491 0.494939
O O4 0.081281 0.781087 0.062507
O O5 0.000000 0.500000 0.000000
O O6 0.750000 0.750000 0.500000
O O7 0.645693 0.575321 0.102615
O O8 0.817300 0.782402 0.427616
#
# Coordination Sequence:
#
# PCOD9292344 Si02
#       4
#     4   8   8   8
#     4  10  24  42  66 100 140 172 254 288 352 450
#     4  10  22  43  70 100 138 189 246 298 361 437
#     4  11  25  46  72 101 145 191 238 305 375 428
#     4  10  25  43  71 103 144 188 243 305 366 437
#
# _framework density 27.363227999999999
#
# number of rings (size 3 to 8) (size 9 to 14) (size 15 to 20)
#    0.000    1.714    0.000    1.714   20.000    1.143 
#    5.143    0.000    0.000    0.000    0.000    0.000 
#    0.000    0.000    0.000    0.000    0.000    0.000 
#
# Total GULP energy -78186.036254 kJ/mol
# GULP energy per Si atom -5584.716875 kJ/mol
# Density = 2.730095 g / cm^3
# Si number density = 27.363228 Si / 1000 Ang^3
#
#
#
# Elastic Constant Matrix: (Units=GPa)
#
#
# Indices 1 2 3 4 5 6 
#
# 1 365.9349 112.7832 60.3173 0.0000 -12.3668 0.0000
# 2 112.7832 129.4512 -9.4605 0.0000 -1.0467 0.0000
# 3 60.3173 -9.4605 110.6226 0.0000 2.9405 0.0000
# 4 0.0000 0.0000 0.0000 3.1018 0.0000 10.8514
# 5 -12.3668 -1.0467 2.9405 0.0000 55.5159 0.0000
# 6 0.0000 0.0000 0.0000 10.8514 0.0000 43.5738
#
#
#
# Elastic Compliance Matrix: (Units=1/GPa)
#
#
# Indices 1 2 3 4 5 6 
#
# 1 0.004510 -0.004128 -0.002840 0.000000 0.001077 0.000000
# 2 -0.004128 0.011553 0.003262 0.000000 -0.000874 0.000000
# 3 -0.002840 0.003262 0.010898 0.000000 -0.001148 0.000000
# 4 0.000000 0.000000 0.000000 2.503559 0.000000 -0.623473
# 5 0.001077 -0.000874 -0.001148 0.000000 0.018297 0.000000
# 6 0.000000 0.000000 0.000000 -0.623473 0.000000 0.178216
#
#
# Mechanical properties :
#
#
# Convention : Reuss Voigt Hill
#
# Bulk Modulus (GPa) = 51.15779 103.69875 77.42827
# Shear Modulus (GPa) = 1.82418 49.92954 25.87686
#
# Velocity S-wave (km/s) = 0.81737 4.27628 3.07853
# Velocity P-wave (km/s) = 4.43026 7.89693 6.40268
#
# Compressibility (1/GPa) = 0.01954737
#
# Stress axis : x y z
#
# Youngs Moduli (GPa) = 221.75274 86.56127 91.75989
#
# Poissons Ratio (x) = 0.35730 0.26064
# Poissons Ratio (y) = 0.91534 -0.29931
# Poissons Ratio (z) = 0.62988 -0.28235
#
# Static dielectric constant tensor:
#      x y z
#    x 2.151520 0.000000 0.244450 
#    y 0.000000 2.950950 0.000000 
#    z 0.244450 0.000000 4.144530 
# 
# From -- ./inp_files/121014.got.cif
#   From: 2010.05.17/outbox.cif.g08.bks.cpg/sg15_61_cif.got.tgz:121014.got - 2010.06.03 18:47:42.
