data_PCOD9292626
_publ_section_title
;
Structure prediction by ZEFSAII (Michael W. Deem and Ramdas Pophale) SiO2 
 PCOD9292626
Probable space group: C 2/C
;
_chemical_formula_sum "Si O2"
_cell_formula_units_Z 60
_cell_length_a 6.584706
_cell_length_b 19.405341
_cell_length_c 24.931725
_cell_angle_alpha 90.000000
_cell_angle_beta 60.582907
_cell_angle_gamma 90.000000
_cell_volume 2774.991882
_symmetry_space_group_name_H-M "C 2/C"
_symmetry_group_IT_number 15
_symmetry_cell_setting 'monoclinic'
loop_
_space_group_symop_operation_xyz
x,y,z
-x,y,1/2-z
-x,-y,-z
x,-y,1/2+z
1/2+x,1/2+y,z
1/2-x,1/2+y,1/2-z
1/2-x,1/2-y,-z
1/2+x,1/2-y,1/2+z
loop_
_atom_site_type_symbol
_atom_site_label
_atom_site_fract_x
_atom_site_fract_y
_atom_site_fract_z
Si Si1 0.265400 0.713730 0.697349
Si Si2 0.495276 0.664821 0.053292
Si Si3 0.028582 0.358408 0.850061
Si Si4 0.834257 0.945469 0.891023
Si Si5 0.000000 0.109540 0.750000
Si Si6 0.584247 0.063855 0.876001
Si Si7 0.676453 0.199675 0.584713
Si Si8 0.148750 0.510712 0.183474
O O1 0.388041 0.787565 0.686219
O O2 0.389273 0.657650 0.718299
O O3 0.257965 0.695777 0.635378
O O4 0.000000 0.719736 0.750000
O O5 0.612657 0.595053 0.061048
O O6 0.562470 0.726794 0.085299
O O7 0.218265 0.654593 0.088420
O O8 0.607476 0.686249 0.982672
O O9 0.218501 0.390392 0.865677
O O10 0.977997 0.417406 0.813438
O O11 0.085450 0.972428 0.838241
O O12 0.663039 0.011180 0.911838
O O13 0.797609 0.067653 0.806049
O O14 0.513123 0.140103 0.901940
O O15 0.372504 0.032566 0.868543
O O16 0.000000 0.476240 0.250000
#
# Coordination Sequence:
#
# PCOD9292626 Si02
#       8
#     8   8   8   8   4   8   8   8
#     4  12  26  41  67 102 136 173 217 279 338 410
#     4  10  23  48  68  98 131 176 225 286 329 407
#     4  10  23  40  65  97 131 172 229 269 331 393
#     4  10  22  44  65  94 134 173 226 274 333 401
#     4  12  26  42  66  98 142 174 218 268 350 410
#     4  11  24  41  64 100 128 180 217 276 336 409
#     4  11  24  45  70  96 138 171 226 281 342 393
#     4  10  23  38  65  92 134 175 221 275 328 398
#
# _framework density 21.621683999999998
#
# number of rings (size 3 to 8) (size 9 to 14) (size 15 to 20)
#    0.000    1.333    2.667    1.600    6.533    2.133 
#    2.400    6.000    0.000    0.000    0.000    0.000 
#    0.000    0.000    0.000    0.000    0.000    0.000 
#
# Total GULP energy -167780.741703 kJ/mol
# GULP energy per Si atom -5592.691390 kJ/mol
# Density = 2.157247 g / cm^3
# Si number density = 21.621684 Si / 1000 Ang^3
#
#
#
# Elastic Constant Matrix: (Units=GPa)
#
#
# Indices 1 2 3 4 5 6 
#
# 1 110.9324 28.6177 37.7485 0.0000 -3.0888 0.0000
# 2 28.6177 101.6662 6.3897 0.0000 7.9621 0.0000
# 3 37.7485 6.3897 58.4093 0.0000 5.2148 0.0000
# 4 0.0000 0.0000 0.0000 9.9172 0.0000 -14.7301
# 5 -3.0888 7.9621 5.2148 0.0000 21.2354 0.0000
# 6 0.0000 0.0000 0.0000 -14.7301 0.0000 27.5947
#
#
#
# Elastic Compliance Matrix: (Units=1/GPa)
#
#
# Indices 1 2 3 4 5 6 
#
# 1 0.012948 -0.003527 -0.008454 0.000000 0.005282 0.000000
# 2 -0.003527 0.011130 0.001513 0.000000 -0.005058 0.000000
# 3 -0.008454 0.001513 0.023085 0.000000 -0.007466 0.000000
# 4 0.000000 0.000000 0.000000 0.486811 0.000000 0.259862
# 5 0.005282 -0.005058 -0.007466 0.000000 0.051589 0.000000
# 6 0.000000 0.000000 0.000000 0.259862 0.000000 0.174954
#
#
# Mechanical properties :
#
#
# Convention : Reuss Voigt Hill
#
# Bulk Modulus (GPa) = 38.12673 46.27996 42.20334
# Shear Modulus (GPa) = 6.32755 24.96625 15.64690
#
# Velocity S-wave (km/s) = 1.71255 3.40175 2.69302
# Velocity P-wave (km/s) = 4.64567 6.07290 5.40659
#
# Compressibility (1/GPa) = 0.02622832
#
# Stress axis : x y z
#
# Youngs Moduli (GPa) = 77.23123 89.84794 43.31809
#
# Poissons Ratio (x) = 0.31690 0.36620
# Poissons Ratio (y) = 0.27240 -0.06556
# Poissons Ratio (z) = 0.65290 -0.13598
#
# Static dielectric constant tensor:
#      x y z
#    x 1.782290 0.000000 0.008720 
#    y 0.000000 1.781240 0.000000 
#    z 0.008720 0.000000 1.752840 
# 
# From -- ./inp_files/286488.got.cif
#   From: 2010.05.17/outbox.cif.g08.bks.cpg/sg15_144_cif.got.tgz:286488.got - 2010.06.03 18:47:42.
