data_PCOD9292945
_publ_section_title
;
Structure prediction by ZEFSAII (Michael W. Deem and Ramdas Pophale) SiO2 
 PCOD9292945
Probable space group: C 2/C
;
_chemical_formula_sum "Si O2"
_cell_formula_units_Z 40
_cell_length_a 29.193762
_cell_length_b 5.084111
_cell_length_c 10.346372
_cell_angle_alpha 90.000000
_cell_angle_beta 74.736781
_cell_angle_gamma 90.000000
_cell_volume 1481.485603
_symmetry_space_group_name_H-M "C 2/C"
_symmetry_group_IT_number 15
_symmetry_cell_setting 'monoclinic'
loop_
_space_group_symop_operation_xyz
x,y,z
-x,y,1/2-z
-x,-y,-z
x,-y,1/2+z
1/2+x,1/2+y,z
1/2-x,1/2+y,1/2-z
1/2-x,1/2-y,-z
1/2+x,1/2-y,1/2+z
loop_
_atom_site_type_symbol
_atom_site_label
_atom_site_fract_x
_atom_site_fract_y
_atom_site_fract_z
Si Si1 0.928544 0.487144 0.067674
Si Si2 0.692887 0.261953 0.542644
Si Si3 0.380517 0.137925 0.347232
Si Si4 0.284227 0.511199 0.725080
Si Si5 0.955994 0.974718 0.190401
O O1 0.883499 0.535028 0.197175
O O2 0.962850 0.708742 0.101422
O O3 0.945624 0.203387 0.098507
O O4 0.915061 0.503421 0.928375
O O5 0.750000 0.250000 0.500000
O O6 0.684446 0.435367 0.675459
O O7 0.817730 0.085022 0.580683
O O8 0.669724 0.975726 0.567540
O O9 0.409012 0.411935 0.311913
O O10 0.249939 0.261757 0.721695
O O11 0.000000 0.027130 0.250000
#
# Coordination Sequence:
#
# PCOD9292945 Si02
#       5
#     8   8   8   8   8
#     4  10  25  46  72 111 150 190 241 306 367 441
#     4  10  23  47  73 104 147 193 248 302 366 432
#     4  10  26  46  73 110 149 191 250 304 368 442
#     4  10  22  44  70 105 139 192 247 301 363 432
#     4  10  24  47  75 110 148 193 242 303 374 446
#
# _framework density 26.999928000000001
#
# number of rings (size 3 to 8) (size 9 to 14) (size 15 to 20)
#    1.200    0.800    0.000    1.200    2.800    9.600 
#   14.400    0.000    0.000    0.000    0.000    0.000 
#    0.000    0.000    0.000    0.000    0.000    0.000 
#
# Total GULP energy -111808.502187 kJ/mol
# GULP energy per Si atom -5590.425109 kJ/mol
# Density = 2.693847 g / cm^3
# Si number density = 26.999928 Si / 1000 Ang^3
#
#
#
# Elastic Constant Matrix: (Units=GPa)
#
#
# Indices 1 2 3 4 5 6 
#
# 1 138.6403 36.9501 39.3948 0.0000 -3.7630 0.0000
# 2 36.9501 161.9340 29.5116 0.0000 -1.6253 0.0000
# 3 39.3948 29.5116 113.1019 0.0000 28.4415 0.0000
# 4 0.0000 0.0000 0.0000 21.3159 0.0000 13.1251
# 5 -3.7630 -1.6253 28.4415 0.0000 44.0525 0.0000
# 6 0.0000 0.0000 0.0000 13.1251 0.0000 17.5518
#
#
#
# Elastic Compliance Matrix: (Units=1/GPa)
#
#
# Indices 1 2 3 4 5 6 
#
# 1 0.008600 -0.001319 -0.003371 0.000000 0.002862 0.000000
# 2 -0.001319 0.006781 -0.001605 0.000000 0.001174 0.000000
# 3 -0.003371 -0.001605 0.012561 0.000000 -0.008457 0.000000
# 4 0.000000 0.000000 0.000000 0.086949 0.000000 -0.065020
# 5 0.002862 0.001174 -0.008457 0.000000 0.028448 0.000000
# 6 0.000000 0.000000 0.000000 -0.065020 0.000000 0.105596
#
#
# Mechanical properties :
#
#
# Convention : Reuss Voigt Hill
#
# Bulk Modulus (GPa) = 65.14036 69.48770 67.31403
# Shear Modulus (GPa) = 18.75172 37.10533 27.92853
#
# Velocity S-wave (km/s) = 2.63822 3.71114 3.21969
# Velocity P-wave (km/s) = 5.78435 6.64497 6.22954
#
# Compressibility (1/GPa) = 0.01535147
#
# Stress axis : x y z
#
# Youngs Moduli (GPa) = 116.27756 147.47851 79.61018
#
# Poissons Ratio (x) = 0.19457 0.26837
# Poissons Ratio (y) = 0.15340 0.12776
# Poissons Ratio (z) = 0.39198 0.23668
#
# Static dielectric constant tensor:
#      x y z
#    x 2.167350 0.000000 -0.102850 
#    y 0.000000 2.213520 0.000000 
#    z -0.102850 0.000000 2.175490 
# 
# From -- ./inp_files/124753.got.cif
#   From: 2010.05.17/outbox.cif.g08.bks.cpg/sg15_63_cif.got.tgz:124753.got - 2010.06.03 18:47:42.
