data_PCOD9292397
_publ_section_title
;
Structure prediction by ZEFSAII (Michael W. Deem and Ramdas Pophale) SiO2 
 PCOD9292397
Probable space group: C 2/C
;
_chemical_formula_sum "Si O2"
_cell_formula_units_Z 36
_cell_length_a 17.319806
_cell_length_b 6.462319
_cell_length_c 11.469108
_cell_angle_alpha 90.000000
_cell_angle_beta 78.824592
_cell_angle_gamma 90.000000
_cell_volume 1259.351835
_symmetry_space_group_name_H-M "C 2/C"
_symmetry_group_IT_number 15
_symmetry_cell_setting 'monoclinic'
loop_
_space_group_symop_operation_xyz
x,y,z
-x,y,1/2-z
-x,-y,-z
x,-y,1/2+z
1/2+x,1/2+y,z
1/2-x,1/2+y,1/2-z
1/2-x,1/2-y,-z
1/2+x,1/2-y,1/2+z
loop_
_atom_site_type_symbol
_atom_site_label
_atom_site_fract_x
_atom_site_fract_y
_atom_site_fract_z
Si Si1 0.368813 0.881223 0.259978
Si Si2 0.000000 0.312280 0.750000
Si Si3 0.902342 0.990032 0.920193
Si Si4 0.805393 0.051228 0.618860
Si Si5 0.256761 0.029860 0.618460
O O1 0.437526 0.035684 0.208374
O O2 0.292395 0.196447 0.098907
O O3 0.324508 0.821111 0.149092
O O4 0.403117 0.715422 0.341924
O O5 0.950684 0.171869 0.852689
O O6 0.808426 0.038898 0.760958
O O7 0.804661 0.047955 0.971621
O O8 0.903251 0.958622 0.057309
O O9 0.704321 0.002550 0.654241
#
# Coordination Sequence:
#
# PCOD9292397 Si02
#       5
#     8   4   8   8   8
#     4  10  22  43  71 100 141 186 235 298 344 430
#     4  12  26  42  68 108 150 182 234 286 382 408
#     4  10  22  43  71 100 141 186 235 298 344 430
#     4   8  19  41  76 101 135 182 249 291 342 423
#     4   8  20  38  78 102 130 180 248 288 342 418
#
# _framework density 28.586136
#
# number of rings (size 3 to 8) (size 9 to 14) (size 15 to 20)
#    2.667    0.000    0.000    1.333    3.111    0.889 
#    4.000    2.222    0.000    0.000    0.000    0.000 
#    0.000    0.000    0.000    0.000    0.000    0.000 
#
# Total GULP energy -100209.294605 kJ/mol
# GULP energy per Si atom -5567.183034 kJ/mol
# Density = 2.852107 g / cm^3
# Si number density = 28.586136 Si / 1000 Ang^3
#
#
#
# Elastic Constant Matrix: (Units=GPa)
#
#
# Indices 1 2 3 4 5 6 
#
# 1 110.2887 26.2082 36.3612 0.0000 -7.5021 0.0000
# 2 26.2082 61.7273 70.6153 0.0000 -16.6940 0.0000
# 3 36.3612 70.6153 196.4763 0.0000 -10.5784 0.0000
# 4 0.0000 0.0000 0.0000 48.0179 0.0000 -3.0467
# 5 -7.5021 -16.6940 -10.5784 0.0000 49.3920 0.0000
# 6 0.0000 0.0000 0.0000 -3.0467 0.0000 51.1237
#
#
#
# Elastic Compliance Matrix: (Units=1/GPa)
#
#
# Indices 1 2 3 4 5 6 
#
# 1 0.010122 -0.003588 -0.000573 0.000000 0.000202 0.000000
# 2 -0.003588 0.031627 -0.010275 0.000000 0.007944 0.000000
# 3 -0.000573 -0.010275 0.008799 0.000000 -0.001676 0.000000
# 4 0.000000 0.000000 0.000000 0.020905 0.000000 0.001246
# 5 0.000202 0.007944 -0.001676 0.000000 0.022603 0.000000
# 6 0.000000 0.000000 0.000000 0.001246 0.000000 0.019635
#
#
# Mechanical properties :
#
#
# Convention : Reuss Voigt Hill
#
# Bulk Modulus (GPa) = 46.13417 70.54017 58.33717
# Shear Modulus (GPa) = 33.38078 45.39389 39.38734
#
# Velocity S-wave (km/s) = 3.42091 3.98926 3.71596
# Velocity P-wave (km/s) = 5.63712 6.77856 6.23402
#
# Compressibility (1/GPa) = 0.02167591
#
# Stress axis : x y z
#
# Youngs Moduli (GPa) = 98.79179 31.61884 113.65540
#
# Poissons Ratio (x) = 0.11343 0.06513
# Poissons Ratio (y) = 0.35442 1.16784
# Poissons Ratio (z) = 0.05661 0.32489
#
# Static dielectric constant tensor:
#      x y z
#    x 2.481950 0.000000 0.235810 
#    y 0.000000 2.336270 0.000000 
#    z 0.235810 0.000000 2.373970 
# 
# From -- ./inp_files/109332.got.cif
#   From: 2010.05.17/outbox.cif.g08.bks.cpg/sg15_55_cif.got.tgz:109332.got - 2010.06.03 18:47:42.
