data_PCOD9292643
_publ_section_title
;
Structure prediction by ZEFSAII (Michael W. Deem and Ramdas Pophale) SiO2 
 PCOD9292643
Probable space group: C 2/C
;
_chemical_formula_sum "Si O2"
_cell_formula_units_Z 48
_cell_length_a 22.675103
_cell_length_b 7.085103
_cell_length_c 11.497850
_cell_angle_alpha 90.000000
_cell_angle_beta 103.982640
_cell_angle_gamma 90.000000
_cell_volume 1792.457969
_symmetry_space_group_name_H-M "C 2/C"
_symmetry_group_IT_number 15
_symmetry_cell_setting 'monoclinic'
loop_
_space_group_symop_operation_xyz
x,y,z
-x,y,1/2-z
-x,-y,-z
x,-y,1/2+z
1/2+x,1/2+y,z
1/2-x,1/2+y,1/2-z
1/2-x,1/2-y,-z
1/2+x,1/2-y,1/2+z
loop_
_atom_site_type_symbol
_atom_site_label
_atom_site_fract_x
_atom_site_fract_y
_atom_site_fract_z
Si Si1 0.126675 0.687460 0.148750
Si Si2 0.000000 0.670947 0.250000
Si Si3 0.679981 0.217531 0.934790
Si Si4 0.190316 0.722386 0.396322
Si Si5 0.500000 0.676265 0.250000
Si Si6 0.111339 0.270087 0.186429
Si Si7 0.074124 0.882562 0.442464
O O1 0.184222 0.751554 0.255103
O O2 0.132744 0.459894 0.136808
O O3 0.065563 0.719085 0.196815
O O4 0.136239 0.764426 0.023225
O O5 0.959644 0.687711 0.112893
O O6 0.659611 0.304225 0.801484
O O7 0.672554 0.995550 0.904441
O O8 0.750000 0.250000 0.000000
O O9 0.250000 0.750000 0.500000
O O10 0.141533 0.861516 0.427816
O O11 0.550631 0.819868 0.229884
O O12 0.533536 0.538454 0.357246
O O13 0.084052 0.118378 0.084785
#
# Coordination Sequence:
#
# PCOD9292643 Si02
#       7
#     8   4   8   8   4   8   8
#     4  10  22  44  70 102 147 184 252 308 377 457
#     4   9  21  40  70 100 131 189 230 306 383 431
#     4  11  26  44  68 111 144 193 253 307 379 457
#     4  10  23  43  70  97 140 203 239 306 384 435
#     4  11  25  42  68 110 143 203 260 302 385 449
#     4  11  24  43  68 104 142 192 247 314 373 441
#     4  10  22  44  65  98 146 185 249 307 367 444
#
# _framework density 26.778870000000001
#
# number of rings (size 3 to 8) (size 9 to 14) (size 15 to 20)
#    0.000    1.667    1.667    1.000    7.000    0.667 
#    3.000    0.000    0.000    0.000    0.000    0.000 
#    0.000    0.000    0.000    0.000    0.000    0.000 
#
# Total GULP energy -133692.418246 kJ/mol
# GULP energy per Si atom -5570.517427 kJ/mol
# Density = 2.671792 g / cm^3
# Si number density = 26.778870 Si / 1000 Ang^3
#
#
#
# Elastic Constant Matrix: (Units=GPa)
#
#
# Indices 1 2 3 4 5 6 
#
# 1 106.2795 8.6293 69.4935 0.0000 32.6741 0.0000
# 2 8.6293 94.4986 28.5202 0.0000 2.2369 0.0000
# 3 69.4935 28.5202 236.5746 0.0000 41.0040 0.0000
# 4 0.0000 0.0000 0.0000 20.3907 0.0000 -1.8505
# 5 32.6741 2.2369 41.0040 0.0000 54.4171 0.0000
# 6 0.0000 0.0000 0.0000 -1.8505 0.0000 27.0186
#
#
#
# Elastic Compliance Matrix: (Units=1/GPa)
#
#
# Indices 1 2 3 4 5 6 
#
# 1 0.013013 -0.000205 -0.002812 0.000000 -0.005686 0.000000
# 2 -0.000205 0.011004 -0.001391 0.000000 0.000719 0.000000
# 3 -0.002812 -0.001391 0.005657 0.000000 -0.002517 0.000000
# 4 0.000000 0.000000 0.000000 0.049349 0.000000 0.003380
# 5 -0.005686 0.000719 -0.002517 0.000000 0.023658 0.000000
# 6 0.000000 0.000000 0.000000 0.003380 0.000000 0.037243
#
#
# Mechanical properties :
#
#
# Convention : Reuss Voigt Hill
#
# Bulk Modulus (GPa) = 47.94529 72.29317 60.11923
# Shear Modulus (GPa) = 32.11484 42.41259 37.26372
#
# Velocity S-wave (km/s) = 3.46679 3.98403 3.73437
# Velocity P-wave (km/s) = 5.82820 6.94394 6.41039
#
# Compressibility (1/GPa) = 0.02085711
#
# Stress axis : x y z
#
# Youngs Moduli (GPa) = 76.84806 90.87887 176.77180
#
# Poissons Ratio (x) = 0.01862 0.49713
# Poissons Ratio (y) = 0.01575 0.24588
# Poissons Ratio (z) = 0.21612 0.12641
#
# Static dielectric constant tensor:
#      x y z
#    x 2.207710 0.000000 -0.079320 
#    y 0.000000 2.570770 0.000000 
#    z -0.079320 0.000000 2.154080 
# 
# From -- ./inp_files/116838.got.cif
#   From: 2010.05.17/outbox.cif.g08.bks.cpg/sg15_59_cif.got.tgz:116838.got - 2010.06.03 18:47:42.
