data_PCOD9292874
_publ_section_title
;
Structure prediction by ZEFSAII (Michael W. Deem and Ramdas Pophale) SiO2 
 PCOD9292874
Probable space group: C 2/C
;
_chemical_formula_sum "Si O2"
_cell_formula_units_Z 48
_cell_length_a 9.652880
_cell_length_b 9.887464
_cell_length_c 23.140060
_cell_angle_alpha 90.000000
_cell_angle_beta 76.571657
_cell_angle_gamma 90.000000
_cell_volume 2148.166100
_symmetry_space_group_name_H-M "C 2/C"
_symmetry_group_IT_number 15
_symmetry_cell_setting 'monoclinic'
loop_
_space_group_symop_operation_xyz
x,y,z
-x,y,1/2-z
-x,-y,-z
x,-y,1/2+z
1/2+x,1/2+y,z
1/2-x,1/2+y,1/2-z
1/2-x,1/2-y,-z
1/2+x,1/2-y,1/2+z
loop_
_atom_site_type_symbol
_atom_site_label
_atom_site_fract_x
_atom_site_fract_y
_atom_site_fract_z
Si Si1 0.668170 0.949581 0.938114
Si Si2 0.161468 0.516384 0.812334
Si Si3 0.829722 0.223878 0.256885
Si Si4 0.156322 0.054402 0.471184
Si Si5 0.015706 0.700550 0.539372
Si Si6 0.351127 0.110298 0.866201
O O1 0.722441 0.964303 0.867973
O O2 0.530586 0.046634 0.945510
O O3 0.613223 0.809991 0.972618
O O4 0.762604 0.019980 0.977739
O O5 0.194263 0.672089 0.793589
O O6 0.234607 0.410033 0.762060
O O7 0.988516 0.523238 0.830937
O O8 0.789040 0.313016 0.317129
O O9 0.000000 0.195394 0.250000
O O10 0.120822 0.208035 0.457969
O O11 0.239330 0.981563 0.411423
O O12 0.000000 0.000000 0.500000
O O13 0.095920 0.725188 0.591925
#
# Coordination Sequence:
#
# PCOD9292874 Si02
#       6
#     8   8   8   8   8   8
#     4   9  20  38  60  87 123 167 199 255 316 372
#     4  10  22  44  69  90 125 173 214 269 324 369
#     4  10  23  44  66  91 123 165 221 268 319 377
#     4  11  23  35  60 101 129 161 206 248 313 389
#     4   9  19  38  60  88 127 162 200 247 314 380
#     4   9  22  42  64  90 129 170 201 263 320 374
#
# _framework density 22.344642
#
# number of rings (size 3 to 8) (size 9 to 14) (size 15 to 20)
#    0.000    2.333    0.000    1.500    4.667    5.333 
#    0.000    7.500    0.000    0.000    0.000    0.000 
#    0.000    0.000    0.000    0.000    0.000    0.000 
#
# Total GULP energy -133725.620943 kJ/mol
# GULP energy per Si atom -5571.900873 kJ/mol
# Density = 2.229378 g / cm^3
# Si number density = 22.344642 Si / 1000 Ang^3
#
#
#
# Elastic Constant Matrix: (Units=GPa)
#
#
# Indices 1 2 3 4 5 6 
#
# 1 77.2605 31.5733 10.5210 0.0000 -18.6791 0.0000
# 2 31.5733 88.2877 16.1606 0.0000 -26.6001 0.0000
# 3 10.5210 16.1606 59.7558 0.0000 -13.9210 0.0000
# 4 0.0000 0.0000 0.0000 22.1514 0.0000 -3.3013
# 5 -18.6791 -26.6001 -13.9210 0.0000 35.3404 0.0000
# 6 0.0000 0.0000 0.0000 -3.3013 0.0000 47.1322
#
#
#
# Elastic Compliance Matrix: (Units=1/GPa)
#
#
# Indices 1 2 3 4 5 6 
#
# 1 0.015913 -0.004041 -0.000504 0.000000 0.005171 0.000000
# 2 -0.004041 0.015803 -0.001419 0.000000 0.009200 0.000000
# 3 -0.000504 -0.001419 0.018604 0.000000 0.005993 0.000000
# 4 0.000000 0.000000 0.000000 0.045620 0.000000 0.003195
# 5 0.005171 0.009200 0.005993 0.000000 0.040315 0.000000
# 6 0.000000 0.000000 0.000000 0.003195 0.000000 0.021441
#
#
# Mechanical properties :
#
#
# Convention : Reuss Voigt Hill
#
# Bulk Modulus (GPa) = 26.04719 37.97931 32.01325
# Shear Modulus (GPa) = 27.40904 32.06143 29.73523
#
# Velocity S-wave (km/s) = 3.50616 3.79206 3.65191
# Velocity P-wave (km/s) = 5.29841 6.01722 5.66922
#
# Compressibility (1/GPa) = 0.03839185
#
# Stress axis : x y z
#
# Youngs Moduli (GPa) = 62.84044 63.27812 53.75290
#
# Poissons Ratio (x) = 0.25568 0.02711
# Poissons Ratio (y) = 0.25391 0.07628
# Poissons Ratio (z) = 0.03170 0.08980
#
# Static dielectric constant tensor:
#      x y z
#    x 1.933070 0.000000 0.030670 
#    y 0.000000 1.941810 0.000000 
#    z 0.030670 0.000000 2.011360 
# 
# From -- ./inp_files/263110.got.cif
#   From: 2010.05.17/outbox.cif.g08.bks.cpg/sg15_132_cif.got.tgz:263110.got - 2010.06.03 18:47:42.
