data_PCOD9292514
_publ_section_title
;
Structure prediction by ZEFSAII (Michael W. Deem and Ramdas Pophale) SiO2 
 PCOD9292514
Probable space group: C 2/C
;
_chemical_formula_sum "Si O2"
_cell_formula_units_Z 40
_cell_length_a 30.793472
_cell_length_b 4.971428
_cell_length_c 11.209022
_cell_angle_alpha 90.000000
_cell_angle_beta 63.258963
_cell_angle_gamma 90.000000
_cell_volume 1532.438272
_symmetry_space_group_name_H-M "C 2/C"
_symmetry_group_IT_number 15
_symmetry_cell_setting 'monoclinic'
loop_
_space_group_symop_operation_xyz
x,y,z
-x,y,1/2-z
-x,-y,-z
x,-y,1/2+z
1/2+x,1/2+y,z
1/2-x,1/2+y,1/2-z
1/2-x,1/2-y,-z
1/2+x,1/2-y,1/2+z
loop_
_atom_site_type_symbol
_atom_site_label
_atom_site_fract_x
_atom_site_fract_y
_atom_site_fract_z
Si Si1 0.426242 0.512370 0.491927
Si Si2 0.101364 0.506353 0.603443
Si Si3 0.273990 0.181353 0.243016
Si Si4 0.703268 0.052606 0.540773
Si Si5 0.475005 0.208583 0.624347
O O1 0.400578 0.797699 0.509368
O O2 0.432680 0.377673 0.611398
O O3 0.482662 0.582122 0.393421
O O4 0.400393 0.300548 0.436873
O O5 0.146321 0.609558 0.626839
O O6 0.051807 0.552377 0.737785
O O7 0.274099 0.489559 0.203237
O O8 0.289150 0.161896 0.361960
O O9 0.298144 0.018237 0.101799
O O10 0.750000 0.250000 0.500000
O O11 0.500000 0.000000 0.500000
#
# Coordination Sequence:
#
# PCOD9292514 Si02
#       5
#     8   8   8   8   8
#     4  11  27  45  71 105 142 187 242 306 373 446
#     4  12  28  44  74 107 146 191 251 300 379 451
#     4  10  22  43  74  99 139 188 244 297 372 424
#     4  10  25  49  73 109 148 199 243 315 365 445
#     4  11  26  46  75 103 150 190 246 306 384 444
#
# _framework density 26.102191000000001
#
# number of rings (size 3 to 8) (size 9 to 14) (size 15 to 20)
#    0.000    1.200    2.000    1.200   11.200    6.400 
#    7.200    0.000    0.000    0.000    0.000    0.000 
#    0.000    0.000    0.000    0.000    0.000    0.000 
#
# Total GULP energy -111379.528314 kJ/mol
# GULP energy per Si atom -5568.976416 kJ/mol
# Density = 2.604278 g / cm^3
# Si number density = 26.102191 Si / 1000 Ang^3
#
#
#
# Elastic Constant Matrix: (Units=GPa)
#
#
# Indices 1 2 3 4 5 6 
#
# 1 138.1607 42.2725 6.0073 0.0000 -2.8685 0.0000
# 2 42.2725 137.2090 30.3796 0.0000 -6.6688 0.0000
# 3 6.0073 30.3796 87.7572 0.0000 11.9319 0.0000
# 4 0.0000 0.0000 0.0000 27.5668 0.0000 9.1897
# 5 -2.8685 -6.6688 11.9319 0.0000 25.0161 0.0000
# 6 0.0000 0.0000 0.0000 9.1897 0.0000 21.5223
#
#
#
# Elastic Compliance Matrix: (Units=1/GPa)
#
#
# Indices 1 2 3 4 5 6 
#
# 1 0.008000 -0.002530 0.000316 0.000000 0.000092 0.000000
# 2 -0.002530 0.009017 -0.003460 0.000000 0.003764 0.000000
# 3 0.000316 -0.003460 0.013572 0.000000 -0.007359 0.000000
# 4 0.000000 0.000000 0.000000 0.042296 0.000000 -0.018060
# 5 0.000092 0.003764 -0.007359 0.000000 0.044499 0.000000
# 6 0.000000 0.000000 0.000000 -0.018060 0.000000 0.054175
#
#
# Mechanical properties :
#
#
# Convention : Reuss Voigt Hill
#
# Bulk Modulus (GPa) = 51.97514 57.82730 54.90122
# Shear Modulus (GPa) = 26.41027 33.78553 30.09790
#
# Velocity S-wave (km/s) = 3.18434 3.60162 3.39939
# Velocity P-wave (km/s) = 5.78579 6.28473 6.04042
#
# Compressibility (1/GPa) = 0.01923997
#
# Stress axis : x y z
#
# Youngs Moduli (GPa) = 124.99537 110.90558 73.68194
#
# Poissons Ratio (x) = 0.28061 -0.02326
# Poissons Ratio (y) = 0.31626 0.25493
# Poissons Ratio (z) = -0.03946 0.38372
#
# Static dielectric constant tensor:
#      x y z
#    x 2.204780 0.000000 -0.023520 
#    y 0.000000 2.180510 0.000000 
#    z -0.023520 0.000000 2.163730 
# 
# From -- ./inp_files/124936.got.cif
#   From: 2010.05.17/outbox.cif.g08.bks.cpg/sg15_63_cif.got.tgz:124936.got - 2010.06.03 18:47:42.
