data_PCOD9292754
_publ_section_title
;
Structure prediction by ZEFSAII (Michael W. Deem and Ramdas Pophale) SiO2 
 PCOD9292754
Probable space group: C 2/C
;
_chemical_formula_sum "Si O2"
_cell_formula_units_Z 56
_cell_length_a 29.834069
_cell_length_b 11.794855
_cell_length_c 11.001958
_cell_angle_alpha 90.000000
_cell_angle_beta 137.522217
_cell_angle_gamma 90.000000
_cell_volume 2614.415290
_symmetry_space_group_name_H-M "C 2/C"
_symmetry_group_IT_number 15
_symmetry_cell_setting 'monoclinic'
loop_
_space_group_symop_operation_xyz
x,y,z
-x,y,1/2-z
-x,-y,-z
x,-y,1/2+z
1/2+x,1/2+y,z
1/2-x,1/2+y,1/2-z
1/2-x,1/2-y,-z
1/2+x,1/2-y,1/2+z
loop_
_atom_site_type_symbol
_atom_site_label
_atom_site_fract_x
_atom_site_fract_y
_atom_site_fract_z
Si Si1 0.384294 0.335971 0.161485
Si Si2 0.396881 0.402538 0.724395
Si Si3 0.603119 0.902536 0.136866
Si Si4 0.676547 0.200217 0.003209
Si Si5 0.500000 0.207920 0.250000
Si Si6 0.000000 0.792078 0.750000
Si Si7 0.615706 0.835970 0.624305
Si Si8 0.676544 0.299787 0.702967
O O1 0.395081 0.463199 0.227025
O O2 0.448510 0.284931 0.221272
O O3 0.367064 0.250000 0.234129
O O4 0.330153 0.338773 0.947392
O O5 0.338774 0.334769 0.535638
O O6 0.461542 0.365183 0.776312
O O7 0.381308 0.355641 0.829079
O O8 0.618696 0.855639 0.303849
O O9 0.661223 0.834766 0.180526
O O10 0.538456 0.865185 0.930140
O O11 0.395078 0.963200 0.853299
O O12 0.669846 0.161234 0.126773
O O13 0.750002 0.172640 0.104521
O O14 0.948512 0.715068 0.572771
#
# Coordination Sequence:
#
# PCOD9292754 Si02
#       8
#     8   8   8   8   4   4   8   8
#     4  11  26  41  66 104 131 174 224 278 332 396
#     4  10  22  44  67  96 132 180 215 274 335 397
#     4  10  22  44  67  96 132 180 215 274 335 397
#     4  10  24  45  68  95 130 181 227 270 339 396
#     4  10  24  42  68 100 142 170 218 272 342 406
#     4  10  24  42  68 100 142 170 218 272 342 406
#     4  11  26  41  66 104 131 174 224 278 332 396
#     4  10  24  45  68  95 130 181 227 270 339 396
#
# _framework density 21.419702999999998
#
# number of rings (size 3 to 8) (size 9 to 14) (size 15 to 20)
#    0.000    1.714    0.000    2.571   16.000    4.000 
#    0.000    0.000    0.000    0.000    0.000    0.000 
#    0.000    0.000    0.000    0.000    0.000    0.000 
#
# Total GULP energy -156181.094248 kJ/mol
# GULP energy per Si atom -5577.896223 kJ/mol
# Density = 2.137095 g / cm^3
# Si number density = 21.419703 Si / 1000 Ang^3
#
#
#
# Elastic Constant Matrix: (Units=GPa)
#
#
# Indices 1 2 3 4 5 6 
#
# 1 115.3104 49.7237 56.1510 0.0000 -14.1383 0.0000
# 2 49.7237 177.3678 42.6929 0.0000 -15.4286 0.0000
# 3 56.1510 42.6929 103.4624 0.0000 -11.8727 0.0000
# 4 0.0000 0.0000 0.0000 8.4078 0.0000 -8.1179
# 5 -14.1383 -15.4286 -11.8727 0.0000 31.3402 0.0000
# 6 0.0000 0.0000 0.0000 -8.1179 0.0000 12.1052
#
#
#
# Elastic Compliance Matrix: (Units=1/GPa)
#
#
# Indices 1 2 3 4 5 6 
#
# 1 0.012624 -0.001929 -0.005761 0.000000 0.002563 0.000000
# 2 -0.001929 0.006703 -0.001505 0.000000 0.001859 0.000000
# 3 -0.005761 -0.001505 0.013622 0.000000 0.001820 0.000000
# 4 0.000000 0.000000 0.000000 0.337393 0.000000 0.226259
# 5 0.002563 0.001859 0.001820 0.000000 0.034669 0.000000
# 6 0.000000 0.000000 0.000000 0.226259 0.000000 0.234341
#
#
# Mechanical properties :
#
#
# Convention : Reuss Voigt Hill
#
# Bulk Modulus (GPa) = 68.69459 77.03062 72.86260
# Shear Modulus (GPa) = 7.54608 26.87552 17.21080
#
# Velocity S-wave (km/s) = 1.87899 3.54603 2.83769
# Velocity P-wave (km/s) = 6.07024 7.26680 6.69530
#
# Compressibility (1/GPa) = 0.01455719
#
# Stress axis : x y z
#
# Youngs Moduli (GPa) = 79.21578 149.18741 73.41044
#
# Poissons Ratio (x) = 0.28784 0.42291
# Poissons Ratio (y) = 0.15284 0.11052
# Poissons Ratio (z) = 0.45636 0.22460
#
# Static dielectric constant tensor:
#      x y z
#    x 1.832050 0.000000 0.002580 
#    y 0.000000 1.747700 0.000000 
#    z 0.002580 0.000000 1.833230 
# 
# From -- ./inp_files/126768.got.cif
#   From: 2010.05.17/outbox.cif.g08.bks.cpg/sg15_64_cif.got.tgz:126768.got - 2010.06.03 18:47:42.
