data_PCOD9292522
_publ_section_title
;
Structure prediction by ZEFSAII (Michael W. Deem and Ramdas Pophale) SiO2 
 PCOD9292522
Probable space group: C 2/C
;
_chemical_formula_sum "Si O2"
_cell_formula_units_Z 48
_cell_length_a 29.104691
_cell_length_b 7.404820
_cell_length_c 17.594568
_cell_angle_alpha 90.000000
_cell_angle_beta 146.512020
_cell_angle_gamma 90.000000
_cell_volume 2092.222751
_symmetry_space_group_name_H-M "C 2/C"
_symmetry_group_IT_number 15
_symmetry_cell_setting 'monoclinic'
loop_
_space_group_symop_operation_xyz
x,y,z
-x,y,1/2-z
-x,-y,-z
x,-y,1/2+z
1/2+x,1/2+y,z
1/2-x,1/2+y,1/2-z
1/2-x,1/2-y,-z
1/2+x,1/2-y,1/2+z
loop_
_atom_site_type_symbol
_atom_site_label
_atom_site_fract_x
_atom_site_fract_y
_atom_site_fract_z
Si Si1 0.799221 0.704391 0.953011
Si Si2 0.124382 0.336816 0.463701
Si Si3 0.196961 0.715278 0.724207
Si Si4 0.428043 0.099671 0.446524
Si Si5 0.579082 0.486650 0.313983
Si Si6 0.618411 0.448092 0.200804
O O1 0.851603 0.523488 0.042859
O O2 0.804108 0.732140 0.868434
O O3 0.705265 0.651043 0.842357
O O4 0.840195 0.872397 0.050627
O O5 0.209188 0.250718 0.617551
O O6 0.065597 0.386562 0.453670
O O7 0.091182 0.188689 0.360818
O O8 0.155598 0.520780 0.683952
O O9 0.142516 0.870894 0.689119
O O10 0.424605 0.302610 0.411774
O O11 0.500000 0.000000 0.500000
O O12 0.500000 0.408502 0.250000
O O13 0.569414 0.482150 0.210571
#
# Coordination Sequence:
#
# PCOD9292522 Si02
#       6
#     8   8   8   8   8   8
#     4  10  22  44  70  96 127 176 229 276 321 393
#     4  10  23  44  68  96 131 176 222 276 329 395
#     4  10  22  43  75  97 126 175 234 284 322 389
#     4  11  24  39  70 102 131 171 230 287 326 387
#     4  12  28  41  63  97 148 178 208 269 344 410
#     4  11  24  42  68 100 131 178 221 272 335 401
#
# _framework density 22.942108999999999
#
# number of rings (size 3 to 8) (size 9 to 14) (size 15 to 20)
#    0.000    1.333    1.667    2.500    9.333    5.333 
#    0.000    0.000    0.000    0.000    0.000    0.000 
#    0.000    0.000    0.000    0.000    0.000    0.000 
#
# Total GULP energy -134381.928612 kJ/mol
# GULP energy per Si atom -5599.247026 kJ/mol
# Density = 2.288989 g / cm^3
# Si number density = 22.942109 Si / 1000 Ang^3
#
#
#
# Elastic Constant Matrix: (Units=GPa)
#
#
# Indices 1 2 3 4 5 6 
#
# 1 129.5457 17.0270 3.9736 0.0000 8.5305 0.0000
# 2 17.0270 97.2751 13.5880 0.0000 -0.7090 0.0000
# 3 3.9736 13.5880 28.9140 0.0000 11.6564 0.0000
# 4 0.0000 0.0000 0.0000 15.1382 0.0000 -3.8876
# 5 8.5305 -0.7090 11.6564 0.0000 9.9073 0.0000
# 6 0.0000 0.0000 0.0000 -3.8876 0.0000 25.3746
#
#
#
# Elastic Compliance Matrix: (Units=1/GPa)
#
#
# Indices 1 2 3 4 5 6 
#
# 1 0.008831 -0.002473 0.005869 0.000000 -0.014686 0.000000
# 2 -0.002473 0.012663 -0.013001 0.000000 0.018332 0.000000
# 3 0.005869 -0.013001 0.080469 0.000000 -0.100660 0.000000
# 4 0.000000 0.000000 0.000000 0.068763 0.000000 0.010535
# 5 -0.014686 0.018332 -0.100660 0.000000 0.233324 0.000000
# 6 0.000000 0.000000 0.000000 0.010535 0.000000 0.041024
#
#
# Mechanical properties :
#
#
# Convention : Reuss Voigt Hill
#
# Bulk Modulus (GPa) = 12.08420 36.10133 24.09276
# Shear Modulus (GPa) = 10.16532 24.82709 17.49620
#
# Velocity S-wave (km/s) = 2.10724 3.29319 2.76456
# Velocity P-wave (km/s) = 3.34654 5.49820 4.55134
#
# Compressibility (1/GPa) = 0.08275269
#
# Stress axis : x y z
#
# Youngs Moduli (GPa) = 113.23300 78.97231 12.42718
#
# Poissons Ratio (x) = 0.19527 -0.07294
# Poissons Ratio (y) = 0.27999 0.16157
# Poissons Ratio (z) = -0.66456 1.02675
#
# Static dielectric constant tensor:
#      x y z
#    x 1.835290 0.000000 0.052070 
#    y 0.000000 1.815630 0.000000 
#    z 0.052070 0.000000 1.877540 
# 
# From -- ./inp_files/224699.got.cif
#   From: 2010.05.17/outbox.cif.g08.bks.cpg/sg15_113_cif.got.tgz:224699.got - 2010.06.03 18:47:42.
