data_PCOD9292430
_publ_section_title
;
Structure prediction by ZEFSAII (Michael W. Deem and Ramdas Pophale) SiO2 
 PCOD9292430
Probable space group: C 2/C
;
_chemical_formula_sum "Si O2"
_cell_formula_units_Z 36
_cell_length_a 7.272710
_cell_length_b 16.795333
_cell_length_c 15.332423
_cell_angle_alpha 90.000000
_cell_angle_beta 82.243190
_cell_angle_gamma 90.000000
_cell_volume 1855.681914
_symmetry_space_group_name_H-M "C 2/C"
_symmetry_group_IT_number 15
_symmetry_cell_setting 'monoclinic'
loop_
_space_group_symop_operation_xyz
x,y,z
-x,y,1/2-z
-x,-y,-z
x,-y,1/2+z
1/2+x,1/2+y,z
1/2-x,1/2+y,1/2-z
1/2-x,1/2-y,-z
1/2+x,1/2-y,1/2+z
loop_
_atom_site_type_symbol
_atom_site_label
_atom_site_fract_x
_atom_site_fract_y
_atom_site_fract_z
Si Si1 0.128120 0.851912 0.155584
Si Si2 0.291808 0.310807 0.074977
Si Si3 0.992789 0.547702 0.590923
Si Si4 0.214917 0.208554 0.251171
Si Si5 0.500000 0.068771 0.250000
O O1 0.292794 0.913695 0.126578
O O2 0.225724 0.766992 0.173188
O O3 0.000000 0.872710 0.250000
O O4 0.998287 0.845012 0.078261
O O5 0.143921 0.381803 0.080553
O O6 0.270012 0.259575 0.163694
O O7 0.250000 0.250000 0.000000
O O8 0.000000 0.500000 0.500000
O O9 0.035805 0.486527 0.665225
O O10 0.327614 0.127579 0.247397
O O11 0.000000 0.193306 0.250000
#
# Coordination Sequence:
#
# PCOD9292430 Si02
#       5
#     8   8   8   8   4
#     4  10  22  43  71  94 132 184 231 273 342 413
#     4  11  23  42  69  97 132 178 232 274 336 413
#     4  12  27  43  68 104 147 175 222 298 349 395
#     4  11  21  40  69  95 123 181 228 271 333 411
#     4  12  24  42  66 104 138 170 228 288 346 398
#
# _framework density 19.399878000000001
#
# number of rings (size 3 to 8) (size 9 to 14) (size 15 to 20)
#    0.000    0.889    5.556    4.000    0.000    6.222 
#    0.000    0.000    0.000    0.000    0.000    0.000 
#    0.000    0.000    0.000    0.000    0.000    0.000 
#
# Total GULP energy -100512.167701 kJ/mol
# GULP energy per Si atom -5584.009317 kJ/mol
# Density = 1.935572 g / cm^3
# Si number density = 19.399878 Si / 1000 Ang^3
#
#
#
# Elastic Constant Matrix: (Units=GPa)
#
#
# Indices 1 2 3 4 5 6 
#
# 1 158.3048 74.4606 34.1819 0.0000 15.1151 0.0000
# 2 74.4606 158.5516 71.9759 0.0000 2.6194 0.0000
# 3 34.1819 71.9759 108.1158 0.0000 19.0848 0.0000
# 4 0.0000 0.0000 0.0000 31.3477 0.0000 11.3219
# 5 15.1151 2.6194 19.0848 0.0000 22.8699 0.0000
# 6 0.0000 0.0000 0.0000 11.3219 0.0000 53.6386
#
#
#
# Elastic Compliance Matrix: (Units=1/GPa)
#
#
# Indices 1 2 3 4 5 6 
#
# 1 0.008842 -0.004731 0.001513 0.000000 -0.006564 0.000000
# 2 -0.004731 0.012017 -0.007990 0.000000 0.008418 0.000000
# 3 0.001513 -0.007990 0.016542 0.000000 -0.013889 0.000000
# 4 0.000000 0.000000 0.000000 0.034533 0.000000 -0.007289
# 5 -0.006564 0.008418 -0.013889 0.000000 0.058690 0.000000
# 6 0.000000 0.000000 0.000000 -0.007289 0.000000 0.020182
#
#
# Mechanical properties :
#
#
# Convention : Reuss Voigt Hill
#
# Bulk Modulus (GPa) = 66.73597 87.35655 77.04626
# Shear Modulus (GPa) = 28.05541 37.86150 32.95846
#
# Velocity S-wave (km/s) = 3.80697 4.42253 4.12624
# Velocity P-wave (km/s) = 7.33478 8.43833 7.90583
#
# Compressibility (1/GPa) = 0.01498442
#
# Stress axis : x y z
#
# Youngs Moduli (GPa) = 113.09266 83.21476 60.45110
#
# Poissons Ratio (x) = 0.39368 -0.09144
# Poissons Ratio (y) = 0.53502 0.48303
# Poissons Ratio (z) = -0.17107 0.66492
#
# Static dielectric constant tensor:
#      x y z
#    x 1.721600 0.000000 0.059690 
#    y 0.000000 1.684930 0.000000 
#    z 0.059690 0.000000 1.633100 
# 
# From -- ./inp_files/128738.got.cif
#   From: 2010.05.17/outbox.cif.g08.bks.cpg/sg15_65_cif.got.tgz:128738.got - 2010.06.03 18:47:42.
