data_PCOD9292991
_publ_section_title
;
Structure prediction by ZEFSAII (Michael W. Deem and Ramdas Pophale) SiO2 
 PCOD9292991
Probable space group: C 2/C
;
_chemical_formula_sum "Si O2"
_cell_formula_units_Z 36
_cell_length_a 10.543695
_cell_length_b 14.860595
_cell_length_c 14.182257
_cell_angle_alpha 90.000000
_cell_angle_beta 42.855669
_cell_angle_gamma 90.000000
_cell_volume 1511.407470
_symmetry_space_group_name_H-M "C 2/C"
_symmetry_group_IT_number 15
_symmetry_cell_setting 'monoclinic'
loop_
_space_group_symop_operation_xyz
x,y,z
-x,y,1/2-z
-x,-y,-z
x,-y,1/2+z
1/2+x,1/2+y,z
1/2-x,1/2+y,1/2-z
1/2-x,1/2-y,-z
1/2+x,1/2-y,1/2+z
loop_
_atom_site_type_symbol
_atom_site_label
_atom_site_fract_x
_atom_site_fract_y
_atom_site_fract_z
Si Si1 0.576059 0.555593 0.313747
Si Si2 0.319773 0.303989 0.053825
Si Si3 0.484180 0.860528 0.574287
Si Si4 0.740750 0.629397 0.725078
Si Si5 0.500000 0.777556 0.750000
O O1 0.500000 0.568521 0.250000
O O2 0.437067 0.611333 0.454550
O O3 0.783726 0.596939 0.206011
O O4 0.592321 0.449601 0.323836
O O5 0.447720 0.232885 0.039321
O O6 0.186526 0.337083 0.212573
O O7 0.250000 0.250000 0.000000
O O8 0.609796 0.911049 0.429393
O O9 0.579362 0.839042 0.622473
O O10 0.647103 0.711865 0.720008
#
# Coordination Sequence:
#
# PCOD9292991 Si02
#       5
#     8   8   8   8   4
#     4  12  24  45  65 101 141 177 224 288 343 402
#     4  11  23  43  70  99 137 182 227 274 342 409
#     4  11  24  43  72  98 133 179 234 279 340 413
#     4  11  24  43  70 100 136 180 225 284 344 406
#     4  10  22  44  70  98 134 172 230 280 344 406
#
# _framework density 23.818857999999999
#
# number of rings (size 3 to 8) (size 9 to 14) (size 15 to 20)
#    0.000    0.889    3.333    4.667    0.000    1.778 
#    4.000    0.000    0.000    0.000    0.000    0.000 
#    0.000    0.000    0.000    0.000    0.000    0.000 
#
# Total GULP energy -100615.072481 kJ/mol
# GULP energy per Si atom -5589.726249 kJ/mol
# Density = 2.376465 g / cm^3
# Si number density = 23.818858 Si / 1000 Ang^3
#
#
#
# Elastic Constant Matrix: (Units=GPa)
#
#
# Indices 1 2 3 4 5 6 
#
# 1 119.9097 30.7880 67.0586 -0.0004 43.8855 0.0000
# 2 30.7880 71.2942 32.0299 -0.0004 19.5857 0.0001
# 3 67.0586 32.0299 145.3332 -0.0007 43.1490 0.0003
# 4 -0.0004 -0.0004 -0.0007 32.3120 0.0005 -10.2872
# 5 43.8855 19.5857 43.1490 0.0005 45.1155 -0.0001
# 6 0.0000 0.0001 0.0003 -10.2872 -0.0001 9.4018
#
#
#
# Elastic Compliance Matrix: (Units=1/GPa)
#
#
# Indices 1 2 3 4 5 6 
#
# 1 0.014289 -0.001995 -0.003190 0.000000 -0.009983 0.000000
# 2 -0.001995 0.016647 -0.001646 0.000000 -0.003712 0.000000
# 3 -0.003190 -0.001646 0.010589 0.000000 -0.006310 0.000000
# 4 0.000000 0.000000 0.000000 0.047492 -0.000001 0.051965
# 5 -0.009983 -0.003712 -0.006310 -0.000001 0.039522 0.000000
# 6 0.000000 0.000000 0.000000 0.051965 0.000000 0.163220
#
#
# Mechanical properties :
#
#
# Convention : Reuss Voigt Hill
#
# Bulk Modulus (GPa) = 35.89008 66.25445 51.07226
# Shear Modulus (GPa) = 15.88764 31.14323 23.51544
#
# Velocity S-wave (km/s) = 2.58547 3.61986 3.14548
# Velocity P-wave (km/s) = 4.90036 6.73406 5.88902
#
# Compressibility (1/GPa) = 0.02786286
#
# Stress axis : x y z
#
# Youngs Moduli (GPa) = 69.98230 60.06979 94.44083
#
# Poissons Ratio (x) = 0.11986 0.30123
# Poissons Ratio (y) = 0.13964 0.15548
# Poissons Ratio (z) = 0.22322 0.09889
#
# Static dielectric constant tensor:
#      x y z
#    x 1.869540 0.000000 0.003990 
#    y 0.000000 1.930700 0.000000 
#    z 0.003990 0.000000 2.051540 
# 
# From -- ./inp_files/28708.got.cif
#   From: 2010.05.17/outbox.cif.g08.bks.cpg/sg15_15_cif.got.tgz:28708.got - 2010.06.03 18:47:42.
