data_PCOD9292116
_publ_section_title
;
Structure prediction by ZEFSAII (Michael W. Deem and Ramdas Pophale) SiO2 
 PCOD9292116
Probable space group: C 2/C
;
_chemical_formula_sum "Si O2"
_cell_formula_units_Z 64
_cell_length_a 12.185004
_cell_length_b 27.982174
_cell_length_c 18.636670
_cell_angle_alpha 90.000000
_cell_angle_beta 152.358237
_cell_angle_gamma 90.000000
_cell_volume 2948.078275
_symmetry_space_group_name_H-M "C 2/C"
_symmetry_group_IT_number 15
_symmetry_cell_setting 'monoclinic'
loop_
_space_group_symop_operation_xyz
x,y,z
-x,y,1/2-z
-x,-y,-z
x,-y,1/2+z
1/2+x,1/2+y,z
1/2-x,1/2+y,1/2-z
1/2-x,1/2-y,-z
1/2+x,1/2-y,1/2+z
loop_
_atom_site_type_symbol
_atom_site_label
_atom_site_fract_x
_atom_site_fract_y
_atom_site_fract_z
Si Si1 0.443125 0.150686 0.888386
Si Si2 0.128928 0.084749 0.397992
Si Si3 0.411935 0.635754 0.620888
Si Si4 0.198645 0.283843 0.314091
Si Si5 0.156211 0.072821 0.043284
Si Si6 0.247779 0.034558 0.607785
Si Si7 0.417627 0.346670 0.887899
Si Si8 0.496270 0.200617 0.425354
O O1 0.461159 0.192892 0.840902
O O2 0.159210 0.144035 0.723926
O O3 0.610597 0.106056 0.967291
O O4 0.511120 0.168131 0.007286
O O5 0.131786 0.045446 0.463186
O O6 0.986819 0.127762 0.353738
O O7 0.000000 0.070030 0.250000
O O8 0.500000 0.619557 0.750000
O O9 0.288544 0.594518 0.502320
O O10 0.246170 0.682840 0.535295
O O11 0.343595 0.324319 0.441495
O O12 0.412809 0.251896 0.406457
O O13 0.000000 0.259119 0.250000
O O14 0.192478 0.114721 0.121406
O O15 0.267431 0.022112 0.127886
O O16 0.885672 0.057600 0.902737
O O17 0.500000 0.058433 0.750000
O O18 0.210225 0.310188 0.750635
#
# Coordination Sequence:
#
# PCOD9292116 Si02
#       8
#     8   8   8   8   8   8   8   8
#     4  11  22  43  65  93 135 175 222 276 334 401
#     4  11  22  40  69 103 136 168 220 279 343 400
#     4  10  23  43  66  89 132 187 224 267 329 407
#     4  12  25  40  69 101 133 176 227 287 344 386
#     4  10  22  43  66  97 134 173 223 267 336 405
#     4  10  23  39  70 103 135 167 219 283 333 404
#     4  11  23  41  67  99 130 178 221 276 338 396
#     4  11  26  40  61  98 133 175 228 275 330 393
#
# _framework density 21.709056
#
# number of rings (size 3 to 8) (size 9 to 14) (size 15 to 20)
#    0.000    1.250    3.750    1.500    5.250    2.000 
#    0.000    1.250    0.000    5.250    0.000    0.000 
#    0.000    0.000    0.000    0.000    0.000    0.000 
#
# Total GULP energy -178305.990868 kJ/mol
# GULP energy per Si atom -5572.062215 kJ/mol
# Density = 2.165965 g / cm^3
# Si number density = 21.709056 Si / 1000 Ang^3
#
#
#
# Elastic Constant Matrix: (Units=GPa)
#
#
# Indices 1 2 3 4 5 6 
#
# 1 94.6091 21.7187 24.2247 -0.0373 6.7709 -0.0248
# 2 21.7187 57.0399 3.6538 -0.0096 -4.7300 -0.0065
# 3 24.2247 3.6538 73.1715 -0.1264 2.8280 -0.0824
# 4 -0.0373 -0.0096 -0.1264 434.9045 -0.0268 288.9069
# 5 6.7709 -4.7300 2.8280 -0.0268 32.2284 -0.0171
# 6 -0.0248 -0.0065 -0.0824 288.9069 -0.0171 223.7424
#
#
#
# Elastic Compliance Matrix: (Units=1/GPa)
#
#
# Indices 1 2 3 4 5 6 
#
# 1 0.012924 -0.004927 -0.003913 0.000000 -0.003095 0.000000
# 2 -0.004927 0.019698 0.000498 0.000000 0.003882 0.000000
# 3 -0.003913 0.000498 0.014953 0.000004 -0.000417 -0.000001
# 4 0.000000 0.000000 0.000004 0.016167 0.000002 -0.020876
# 5 -0.003095 0.003882 -0.000417 0.000002 0.032285 -0.000001
# 6 0.000000 0.000000 -0.000001 -0.020876 -0.000001 0.031425
#
#
# Mechanical properties :
#
#
# Convention : Reuss Voigt Hill
#
# Bulk Modulus (GPa) = 32.37299 36.00165 34.18732
# Shear Modulus (GPa) = 32.37608 149.85660 91.11634
#
# Velocity S-wave (km/s) = 3.86601 8.31741 6.48558
# Velocity P-wave (km/s) = 5.90530 10.43355 8.47737
#
# Compressibility (1/GPa) = 0.03088995
#
# Stress axis : x y z
#
# Youngs Moduli (GPa) = 77.37326 50.76723 66.87480
#
# Poissons Ratio (x) = 0.25014 0.26169
# Poissons Ratio (y) = 0.38123 -0.03327
# Poissons Ratio (z) = 0.30278 -0.02526
#
# Static dielectric constant tensor:
#      x y z
#    x 1.864150 0.000000 0.052400 
#    y 0.000000 1.812640 0.000000 
#    z 0.052400 0.000000 1.806160 
# 
# From -- ./inp_files/201489.got.cif
#   From: 2010.05.17/outbox.cif.g08.bks.cpg/sg15_101_cif.got.tgz:201489.got - 2010.06.03 18:47:42.
