data_PCOD9292644
_publ_section_title
;
Structure prediction by ZEFSAII (Michael W. Deem and Ramdas Pophale) SiO2 
 PCOD9292644
Probable space group: C 2/C
;
_chemical_formula_sum "Si O2"
_cell_formula_units_Z 40
_cell_length_a 12.376178
_cell_length_b 10.361481
_cell_length_c 20.602416
_cell_angle_alpha 90.000000
_cell_angle_beta 141.071656
_cell_angle_gamma 90.000000
_cell_volume 1660.071347
_symmetry_space_group_name_H-M "C 2/C"
_symmetry_group_IT_number 15
_symmetry_cell_setting 'monoclinic'
loop_
_space_group_symop_operation_xyz
x,y,z
-x,y,1/2-z
-x,-y,-z
x,-y,1/2+z
1/2+x,1/2+y,z
1/2-x,1/2+y,1/2-z
1/2-x,1/2-y,-z
1/2+x,1/2-y,1/2+z
loop_
_atom_site_type_symbol
_atom_site_label
_atom_site_fract_x
_atom_site_fract_y
_atom_site_fract_z
Si Si1 0.619152 0.622043 0.992058
Si Si2 0.402943 0.901451 0.106371
Si Si3 0.155656 0.174067 0.861810
Si Si4 0.669492 0.913846 0.573805
Si Si5 0.247772 0.664139 0.829268
O O1 0.602464 0.676797 0.911719
O O2 0.422965 0.580385 0.914794
O O3 0.785859 0.529732 0.063122
O O4 0.676705 0.736661 0.066802
O O5 0.341681 0.827738 0.142056
O O6 0.610304 0.892606 0.213957
O O7 0.351815 0.859376 0.010087
O O8 0.000000 0.232632 0.750000
O O9 0.186092 0.025240 0.857998
O O10 0.692163 0.813971 0.643835
O O11 0.500000 0.000000 0.500000
#
# Coordination Sequence:
#
# PCOD9292644 Si02
#       5
#     8   8   8   8   8
#     4  10  22  44  65  99 132 169 226 272 329 397
#     4  10  25  43  65 100 139 170 223 274 330 409
#     4  10  23  40  68  98 130 170 220 280 324 395
#     4  11  23  45  67  99 132 174 227 274 327 403
#     4  11  23  43  69  97 132 180 212 276 343 383
#
# _framework density 24.095348999999999
#
# number of rings (size 3 to 8) (size 9 to 14) (size 15 to 20)
#    0.000    1.600    2.000    1.200    8.400    0.000 
#    0.000    4.000    0.000    0.000    0.000    0.000 
#    0.000    0.000    0.000    0.000    0.000    0.000 
#
# Total GULP energy -111344.538832 kJ/mol
# GULP energy per Si atom -5567.226942 kJ/mol
# Density = 2.404051 g / cm^3
# Si number density = 24.095349 Si / 1000 Ang^3
#
#
#
# Elastic Constant Matrix: (Units=GPa)
#
#
# Indices 1 2 3 4 5 6 
#
# 1 45.4932 4.1649 29.0428 0.0000 17.9931 0.0000
# 2 4.1649 60.7626 65.6706 0.0000 2.3922 0.0000
# 3 29.0428 65.6706 199.1118 0.0000 34.4105 0.0000
# 4 0.0000 0.0000 0.0000 21.7592 0.0000 7.1409
# 5 17.9931 2.3922 34.4105 0.0000 32.5237 0.0000
# 6 0.0000 0.0000 0.0000 7.1409 0.0000 28.0216
#
#
#
# Elastic Compliance Matrix: (Units=1/GPa)
#
#
# Indices 1 2 3 4 5 6 
#
# 1 0.028659 0.000827 -0.002083 0.000000 -0.013711 0.000000
# 2 0.000827 0.027737 -0.010814 0.000000 0.008944 0.000000
# 3 -0.002083 -0.010814 0.010471 0.000000 -0.009130 0.000000
# 4 0.000000 0.000000 0.000000 0.050152 0.000000 -0.012781
# 5 -0.013711 0.008944 -0.009130 0.000000 0.047334 0.000000
# 6 0.000000 0.000000 0.000000 -0.012781 0.000000 0.038944
#
#
# Mechanical properties :
#
#
# Convention : Reuss Voigt Hill
#
# Bulk Modulus (GPa) = 23.40558 55.90268 39.65413
# Shear Modulus (GPa) = 20.68860 30.22684 25.45772
#
# Velocity S-wave (km/s) = 2.93339 3.54569 3.25397
# Velocity P-wave (km/s) = 4.60520 6.32562 5.53269
#
# Compressibility (1/GPa) = 0.04272486
#
# Stress axis : x y z
#
# Youngs Moduli (GPa) = 34.89345 36.05354 95.50324
#
# Poissons Ratio (x) = -0.02982 0.19897
# Poissons Ratio (y) = -0.02886 1.03281
# Poissons Ratio (z) = 0.07270 0.38990
#
# Static dielectric constant tensor:
#      x y z
#    x 2.045590 0.000000 0.089660 
#    y 0.000000 2.139590 0.000000 
#    z 0.089660 0.000000 1.946220 
# 
# From -- ./inp_files/94861.got.cif
#   From: 2010.05.17/outbox.cif.g08.bks.cpg/sg15_48_cif.got.tgz:94861.got - 2010.06.03 18:47:42.
