data_PCOD9292994
_publ_section_title
;
Structure prediction by ZEFSAII (Michael W. Deem and Ramdas Pophale) SiO2 
 PCOD9292994
Probable space group: C 2/C
;
_chemical_formula_sum "Si O2"
_cell_formula_units_Z 52
_cell_length_a 25.007042
_cell_length_b 8.117948
_cell_length_c 15.222801
_cell_angle_alpha 90.000000
_cell_angle_beta 133.535278
_cell_angle_gamma 90.000000
_cell_volume 2240.327210
_symmetry_space_group_name_H-M "C 2/C"
_symmetry_group_IT_number 15
_symmetry_cell_setting 'monoclinic'
loop_
_space_group_symop_operation_xyz
x,y,z
-x,y,1/2-z
-x,-y,-z
x,-y,1/2+z
1/2+x,1/2+y,z
1/2-x,1/2+y,1/2-z
1/2-x,1/2-y,-z
1/2+x,1/2-y,1/2+z
loop_
_atom_site_type_symbol
_atom_site_label
_atom_site_fract_x
_atom_site_fract_y
_atom_site_fract_z
Si Si1 0.937982 0.878597 0.392298
Si Si2 0.336443 0.521053 0.036057
Si Si3 0.215905 0.979342 0.835415
Si Si4 0.807569 0.768454 0.848935
Si Si5 0.426620 0.779975 0.060588
Si Si6 0.964502 0.607184 0.039282
Si Si7 0.500000 0.530715 0.250000
O O1 0.869466 0.974842 0.278051
O O2 0.908986 0.769401 0.441034
O O3 0.977955 0.750270 0.372917
O O4 0.000000 0.000000 0.500000
O O5 0.281442 0.521514 0.055892
O O6 0.360310 0.709247 0.043323
O O7 0.419694 0.448170 0.151339
O O8 0.310684 0.423303 0.920347
O O9 0.264321 0.125176 0.849885
O O10 0.226604 0.823755 0.782790
O O11 0.889869 0.698927 0.926668
O O12 0.495766 0.663346 0.165071
O O13 0.444283 0.970503 0.088150
O O14 0.000000 0.500000 0.000000
#
# Coordination Sequence:
#
# PCOD9292994 Si02
#       7
#     8   8   8   8   8   8   4
#     4  11  19  40  70  98 129 182 233 288 349 411
#     4  10  22  44  70  98 139 183 231 289 350 425
#     4  12  26  44  73  97 141 194 232 287 374 418
#     4  12  27  46  68 104 141 181 242 294 349 439
#     4   9  19  37  62 100 139 167 227 288 334 423
#     4  10  23  38  69 100 140 173 231 297 344 410
#     4   8  18  36  70  96 138 174 226 270 362 402
#
# _framework density 23.210895000000001
#
# number of rings (size 3 to 8) (size 9 to 14) (size 15 to 20)
#    0.923    0.615    3.077    1.385    8.615    0.000 
#    2.769    4.615    0.000    0.000    0.000    0.000 
#    0.000    0.000    0.000    0.000    0.000    0.000 
#
# Total GULP energy -144995.340476 kJ/mol
# GULP energy per Si atom -5576.743864 kJ/mol
# Density = 2.315807 g / cm^3
# Si number density = 23.210895 Si / 1000 Ang^3
#
#
#
# Elastic Constant Matrix: (Units=GPa)
#
#
# Indices 1 2 3 4 5 6 
#
# 1 122.9427 49.0858 12.2729 0.0000 -8.9609 0.0000
# 2 49.0858 72.6084 -6.8952 0.0000 2.0240 0.0000
# 3 12.2729 -6.8952 46.4860 0.0000 -1.5370 0.0000
# 4 0.0000 0.0000 0.0000 27.4848 0.0000 9.0361
# 5 -8.9609 2.0240 -1.5370 0.0000 33.7665 0.0000
# 6 0.0000 0.0000 0.0000 9.0361 0.0000 53.6565
#
#
#
# Elastic Compliance Matrix: (Units=1/GPa)
#
#
# Indices 1 2 3 4 5 6 
#
# 1 0.012402 -0.008910 -0.004476 0.000000 0.003622 0.000000
# 2 -0.008910 0.020390 0.005266 0.000000 -0.003347 0.000000
# 3 -0.004476 0.005266 0.023460 0.000000 -0.000436 0.000000
# 4 0.000000 0.000000 0.000000 0.038516 0.000000 -0.006486
# 5 0.003622 -0.003347 -0.000436 0.000000 0.030757 0.000000
# 6 0.000000 0.000000 0.000000 -0.006486 0.000000 0.019729
#
#
# Mechanical properties :
#
#
# Convention : Reuss Voigt Hill
#
# Bulk Modulus (GPa) = 24.99297 38.99602 31.99449
# Shear Modulus (GPa) = 28.59870 35.48646 32.04258
#
# Velocity S-wave (km/s) = 3.51397 3.91432 3.71954
# Velocity P-wave (km/s) = 5.22064 6.10462 5.67986
#
# Compressibility (1/GPa) = 0.04001125
#
# Stress axis : x y z
#
# Youngs Moduli (GPa) = 80.63057 49.04446 42.62510
#
# Poissons Ratio (x) = 0.43701 0.19080
# Poissons Ratio (y) = 0.71845 -0.22447
# Poissons Ratio (z) = 0.36093 -0.25828
#
# Static dielectric constant tensor:
#      x y z
#    x 1.964620 0.000000 -0.041380 
#    y 0.000000 1.900520 0.000000 
#    z -0.041380 0.000000 1.899430 
# 
# From -- ./inp_files/224282.got.cif
#   From: 2010.05.17/outbox.cif.g08.bks.cpg/sg15_113_cif.got.tgz:224282.got - 2010.06.03 18:47:42.
