data_PCOD9292963
_publ_section_title
;
Structure prediction by ZEFSAII (Michael W. Deem and Ramdas Pophale) SiO2 
 PCOD9292963
Probable space group: C 2/C
;
_chemical_formula_sum "Si O2"
_cell_formula_units_Z 40
_cell_length_a 16.537100
_cell_length_b 14.123745
_cell_length_c 7.578389
_cell_angle_alpha 90.000000
_cell_angle_beta 67.839805
_cell_angle_gamma 90.000000
_cell_volume 1639.303655
_symmetry_space_group_name_H-M "C 2/C"
_symmetry_group_IT_number 15
_symmetry_cell_setting 'monoclinic'
loop_
_space_group_symop_operation_xyz
x,y,z
-x,y,1/2-z
-x,-y,-z
x,-y,1/2+z
1/2+x,1/2+y,z
1/2-x,1/2+y,1/2-z
1/2-x,1/2-y,-z
1/2+x,1/2-y,1/2+z
loop_
_atom_site_type_symbol
_atom_site_label
_atom_site_fract_x
_atom_site_fract_y
_atom_site_fract_z
Si Si1 0.669274 0.725948 0.390803
Si Si2 0.015545 0.265102 0.948838
Si Si3 0.911439 0.082380 0.755825
Si Si4 0.678448 0.880063 0.945851
Si Si5 0.773061 0.578080 0.696886
O O1 0.577921 0.761994 0.380089
O O2 0.628456 0.647246 0.554806
O O3 0.744593 0.677812 0.215590
O O4 0.707516 0.826565 0.431889
O O5 0.055149 0.159424 0.911851
O O6 0.000000 0.289478 0.750000
O O7 0.087771 0.330516 0.974653
O O8 0.825048 0.036679 0.748575
O O9 0.000000 0.031610 0.750000
O O10 0.668437 0.988683 0.892986
O O11 0.710679 0.887472 0.119611
#
# Coordination Sequence:
#
# PCOD9292963 Si02
#       5
#     8   8   8   8   8
#     4  10  22  44  70  92 139 177 219 279 332 395
#     4   9  22  41  70  98 130 179 222 270 339 399
#     4   9  20  42  71  96 129 176 225 268 342 393
#     4  12  26  43  67 103 137 175 230 273 338 405
#     4  12  25  41  70  98 138 179 220 280 338 398
#
# _framework density 24.400603
#
# number of rings (size 3 to 8) (size 9 to 14) (size 15 to 20)
#    0.000    2.000    2.000    2.400    8.400    1.600 
#    3.600    9.000    0.000    0.000    0.000    0.000 
#    0.000    0.000    0.000    0.000    0.000    0.000 
#
# Total GULP energy -111663.246285 kJ/mol
# GULP energy per Si atom -5583.162314 kJ/mol
# Density = 2.434507 g / cm^3
# Si number density = 24.400603 Si / 1000 Ang^3
#
#
#
# Elastic Constant Matrix: (Units=GPa)
#
#
# Indices 1 2 3 4 5 6 
#
# 1 143.0385 1.4024 32.0553 0.0000 -0.7500 0.0000
# 2 1.4024 85.5764 18.5157 0.0000 3.2074 0.0000
# 3 32.0553 18.5157 71.2210 0.0000 2.1152 0.0000
# 4 0.0000 0.0000 0.0000 13.6999 0.0000 13.9643
# 5 -0.7500 3.2074 2.1152 0.0000 27.1084 0.0000
# 6 0.0000 0.0000 0.0000 13.9643 0.0000 -1.5112
#
#
#
# Elastic Compliance Matrix: (Units=1/GPa)
#
#
# Indices 1 2 3 4 5 6 
#
# 1 0.007816 0.000657 -0.003701 0.000000 0.000427 0.000000
# 2 0.000657 0.012477 -0.003504 0.000000 -0.001185 0.000000
# 3 -0.003701 -0.003504 0.016647 0.000000 -0.000987 0.000000
# 4 0.000000 0.000000 0.000000 0.007006 0.000000 0.064738
# 5 0.000427 -0.001185 -0.000987 0.000000 0.037118 0.000000
# 6 0.000000 0.000000 0.000000 0.064738 0.000000 -0.063512
#
#
# Mechanical properties :
#
#
# Convention : Reuss Voigt Hill
#
# Bulk Modulus (GPa) = 41.94106 44.86473 43.40289
# Shear Modulus (GPa) = 129.53951 24.38358 76.96155
#
# Velocity S-wave (km/s) = 7.29410 3.16460 5.62222
# Velocity P-wave (km/s) = 9.38959 5.63734 7.74416
#
# Compressibility (1/GPa) = 0.02384299
#
# Stress axis : x y z
#
# Youngs Moduli (GPa) = 127.93559 80.14562 60.07061
#
# Poissons Ratio (x) = -0.05264 0.22235
# Poissons Ratio (y) = -0.08402 0.21050
# Poissons Ratio (z) = 0.47355 0.28085
#
# Static dielectric constant tensor:
#      x y z
#    x 2.053870 0.000000 0.054270 
#    y 0.000000 1.972550 0.000000 
#    z 0.054270 0.000000 1.991450 
# 
# From -- ./inp_files/37802.got.cif
#   From: 2010.05.17/outbox.cif.g08.bks.cpg/sg15_19_cif.got.tgz:37802.got - 2010.06.03 18:47:42.
