data_PCOD9292722
_publ_section_title
;
Structure prediction by ZEFSAII (Michael W. Deem and Ramdas Pophale) SiO2 
 PCOD9292722
Probable space group: C 2/C
;
_chemical_formula_sum "Si O2"
_cell_formula_units_Z 44
_cell_length_a 8.251644
_cell_length_b 23.960989
_cell_length_c 11.704785
_cell_angle_alpha 90.000000
_cell_angle_beta 58.051926
_cell_angle_gamma 90.000000
_cell_volume 1963.698656
_symmetry_space_group_name_H-M "C 2/C"
_symmetry_group_IT_number 15
_symmetry_cell_setting 'monoclinic'
loop_
_space_group_symop_operation_xyz
x,y,z
-x,y,1/2-z
-x,-y,-z
x,-y,1/2+z
1/2+x,1/2+y,z
1/2-x,1/2+y,1/2-z
1/2-x,1/2-y,-z
1/2+x,1/2-y,1/2+z
loop_
_atom_site_type_symbol
_atom_site_label
_atom_site_fract_x
_atom_site_fract_y
_atom_site_fract_z
Si Si1 0.105700 0.152714 0.588730
Si Si2 0.325509 0.470541 0.394423
Si Si3 0.582313 0.932046 0.036423
Si Si4 0.178709 0.235658 0.898673
Si Si5 0.034685 0.650535 0.368807
Si Si6 0.500000 0.841953 0.250000
O O1 0.102279 0.085554 0.568777
O O2 0.331027 0.163669 0.504303
O O3 0.000000 0.160298 0.750000
O O4 0.005543 0.195169 0.538683
O O5 0.500000 0.489248 0.250000
O O6 0.233408 0.519453 0.504190
O O7 0.137422 0.453548 0.388885
O O8 0.588190 0.882093 0.123005
O O9 0.620319 0.903285 0.899876
O O10 0.334670 0.199121 0.773702
O O11 0.152098 0.293627 0.844258
O O12 0.250000 0.250000 0.000000
O O13 0.000000 0.638974 0.250000
#
# Coordination Sequence:
#
# PCOD9292722 Si02
#       6
#     8   8   8   8   8   4
#     4  10  22  44  73  98 134 189 240 277 351 434
#     4   9  19  43  71  96 135 175 241 281 344 428
#     4  10  22  44  67 100 138 183 226 292 356 412
#     4  12  25  40  67 102 140 182 233 291 351 418
#     4  11  24  44  68  99 138 187 239 291 346 429
#     4  12  24  44  66  98 144 180 222 288 358 420
#
# _framework density 22.406697000000001
#
# number of rings (size 3 to 8) (size 9 to 14) (size 15 to 20)
#    0.000    1.455    1.818    4.364    2.545    0.000 
#   19.636    1.818    0.000    0.000    0.000    0.000 
#    0.000    0.000    0.000    0.000    0.000    0.000 
#
# Total GULP energy -122875.502169 kJ/mol
# GULP energy per Si atom -5585.250099 kJ/mol
# Density = 2.235570 g / cm^3
# Si number density = 22.406697 Si / 1000 Ang^3
#
#
#
# Elastic Constant Matrix: (Units=GPa)
#
#
# Indices 1 2 3 4 5 6 
#
# 1 31.8209 39.2533 7.3046 0.0000 2.8869 0.0000
# 2 39.2533 111.2271 38.0419 0.0000 3.9462 0.0000
# 3 7.3046 38.0419 76.6770 0.0000 13.8977 0.0000
# 4 0.0000 0.0000 0.0000 12.1700 0.0000 -28.2693
# 5 2.8869 3.9462 13.8977 0.0000 40.3238 0.0000
# 6 0.0000 0.0000 0.0000 -28.2693 0.0000 26.3899
#
#
#
# Elastic Compliance Matrix: (Units=1/GPa)
#
#
# Indices 1 2 3 4 5 6 
#
# 1 0.058187 -0.022581 0.006415 0.000000 -0.004167 0.000000
# 2 -0.022581 0.019618 -0.008029 0.000000 0.002464 0.000000
# 3 0.006415 -0.008029 0.017444 0.000000 -0.005686 0.000000
# 4 0.000000 0.000000 0.000000 -0.055211 0.000000 -0.059142
# 5 -0.004167 0.002464 -0.005686 0.000000 0.026816 0.000000
# 6 0.000000 0.000000 0.000000 -0.059142 0.000000 -0.025461
#
#
# Mechanical properties :
#
#
# Convention : Reuss Voigt Hill
#
# Bulk Modulus (GPa) = 21.33991 43.21382 32.27687
# Shear Modulus (GPa) = 47.43712 24.78509 36.11110
#
# Velocity S-wave (km/s) = 4.60618 3.32949 4.01886
# Velocity P-wave (km/s) = 6.15092 5.84026 5.99760
#
# Compressibility (1/GPa) = 0.04686056
#
# Stress axis : x y z
#
# Youngs Moduli (GPa) = 17.18608 50.97297 57.32503
#
# Poissons Ratio (x) = 1.15102 -0.36776
# Poissons Ratio (y) = 0.38808 0.46024
# Poissons Ratio (z) = -0.11025 0.40924
#
# Static dielectric constant tensor:
#      x y z
#    x 1.902310 0.000000 -0.010740 
#    y 0.000000 1.862290 0.000000 
#    z -0.010740 0.000000 1.832570 
# 
# From -- ./inp_files/79671.got.cif
#   From: 2010.05.17/outbox.cif.g08.bks.cpg/sg15_40_cif.got.tgz:79671.got - 2010.06.03 18:47:42.
