data_PCOD9292051
_publ_section_title
;
Structure prediction by ZEFSAII (Michael W. Deem and Ramdas Pophale) SiO2 
 PCOD9292051
Probable space group: C 2/C
;
_chemical_formula_sum "Si O2"
_cell_formula_units_Z 48
_cell_length_a 12.015041
_cell_length_b 13.829597
_cell_length_c 15.067355
_cell_angle_alpha 90.000000
_cell_angle_beta 61.859858
_cell_angle_gamma 90.000000
_cell_volume 2207.700973
_symmetry_space_group_name_H-M "C 2/C"
_symmetry_group_IT_number 15
_symmetry_cell_setting 'monoclinic'
loop_
_space_group_symop_operation_xyz
x,y,z
-x,y,1/2-z
-x,-y,-z
x,-y,1/2+z
1/2+x,1/2+y,z
1/2-x,1/2+y,1/2-z
1/2-x,1/2-y,-z
1/2+x,1/2-y,1/2+z
loop_
_atom_site_type_symbol
_atom_site_label
_atom_site_fract_x
_atom_site_fract_y
_atom_site_fract_z
Si Si1 0.960142 0.157315 0.512653
Si Si2 0.500000 0.458104 0.750000
Si Si3 0.373088 0.284351 0.695947
Si Si4 0.341528 0.479120 0.471016
Si Si5 0.500000 0.125832 0.750000
Si Si6 0.087673 0.720231 0.297413
Si Si7 0.048477 0.471233 0.578985
O O1 0.019889 0.230512 0.418996
O O2 0.858338 0.087377 0.504830
O O3 0.914627 0.208819 0.617868
O O4 0.078861 0.090121 0.495042
O O5 0.409894 0.385988 0.728054
O O6 0.585998 0.517616 0.650187
O O7 0.389742 0.198735 0.760506
O O8 0.232150 0.289213 0.713168
O O9 0.197406 0.448757 0.517436
O O10 0.532830 0.057627 0.655267
O O11 0.000000 0.753978 0.250000
O O12 0.030582 0.618893 0.353267
O O13 0.000000 0.500000 0.500000
#
# Coordination Sequence:
#
# PCOD9292051 Si02
#       7
#     8   4   8   8   4   8   8
#     4  10  23  42  66  92 129 179 212 271 324 384
#     4   9  20  40  67  92 120 170 217 276 322 379
#     4  10  22  43  66  90 130 170 222 266 321 393
#     4  10  22  43  65  97 130 168 229 262 322 397
#     4  11  24  44  69  98 126 180 223 266 322 385
#     4  12  25  41  61  99 133 171 213 270 337 385
#     4  12  25  42  66  98 132 171 216 275 328 385
#
# _framework density 21.742075
#
# number of rings (size 3 to 8) (size 9 to 14) (size 15 to 20)
#    0.000    1.333    0.833    4.000    1.167    4.000 
#    6.000    6.667    0.000    0.000    0.000    0.000 
#    0.000    0.000    0.000    0.000    0.000    0.000 
#
# Total GULP energy -134271.245241 kJ/mol
# GULP energy per Si atom -5594.635218 kJ/mol
# Density = 2.169259 g / cm^3
# Si number density = 21.742075 Si / 1000 Ang^3
#
#
#
# Elastic Constant Matrix: (Units=GPa)
#
#
# Indices 1 2 3 4 5 6 
#
# 1 78.3617 -15.1515 -1.7987 0.0000 -9.7126 0.0000
# 2 -15.1515 48.1901 14.6543 0.0000 -7.1593 0.0000
# 3 -1.7987 14.6543 79.5685 0.0000 19.2662 0.0000
# 4 0.0000 0.0000 0.0000 17.7305 0.0000 -2.6920
# 5 -9.7126 -7.1593 19.2662 0.0000 34.0916 0.0000
# 6 0.0000 0.0000 0.0000 -2.6920 0.0000 2.8746
#
#
#
# Elastic Compliance Matrix: (Units=1/GPa)
#
#
# Indices 1 2 3 4 5 6 
#
# 1 0.014829 0.006487 -0.002563 0.000000 0.007035 0.000000
# 2 0.006487 0.026879 -0.007667 0.000000 0.011826 0.000000
# 3 -0.002563 -0.007667 0.016785 0.000000 -0.011826 0.000000
# 4 0.000000 0.000000 0.000000 0.065749 0.000000 0.061574
# 5 0.007035 0.011826 -0.011826 0.000000 0.040504 0.000000
# 6 0.000000 0.000000 0.000000 0.061574 0.000000 0.405544
#
#
# Mechanical properties :
#
#
# Convention : Reuss Voigt Hill
#
# Bulk Modulus (GPa) = 19.60516 22.39205 20.99861
# Shear Modulus (GPa) = 8.40648 24.83374 16.62011
#
# Velocity S-wave (km/s) = 1.96846 3.38331 2.76782
# Velocity P-wave (km/s) = 3.76871 5.05803 4.46021
#
# Compressibility (1/GPa) = 0.05100698
#
# Stress axis : x y z
#
# Youngs Moduli (GPa) = 67.43636 37.20357 59.57541
#
# Poissons Ratio (x) = -0.24134 0.15269
# Poissons Ratio (y) = -0.43746 0.45677
# Poissons Ratio (z) = 0.17284 0.28525
#
# Static dielectric constant tensor:
#      x y z
#    x 1.754390 0.000000 0.021890 
#    y 0.000000 1.799150 0.000000 
#    z 0.021890 0.000000 1.803870 
# 
# From -- ./inp_files/144101.got.cif
#   From: 2010.05.17/outbox.cif.g08.bks.cpg/sg15_73_cif.got.tgz:144101.got - 2010.06.03 18:47:42.
