data_PCOD9292047
_publ_section_title
;
Structure prediction by ZEFSAII (Michael W. Deem and Ramdas Pophale) SiO2 
 PCOD9292047
Probable space group: C 2/C
;
_chemical_formula_sum "Si O2"
_cell_formula_units_Z 48
_cell_length_a 7.193936
_cell_length_b 11.874573
_cell_length_c 23.371547
_cell_angle_alpha 90.000000
_cell_angle_beta 70.029738
_cell_angle_gamma 90.000000
_cell_volume 1876.462217
_symmetry_space_group_name_H-M "C 2/C"
_symmetry_group_IT_number 15
_symmetry_cell_setting 'monoclinic'
loop_
_space_group_symop_operation_xyz
x,y,z
-x,y,1/2-z
-x,-y,-z
x,-y,1/2+z
1/2+x,1/2+y,z
1/2-x,1/2+y,1/2-z
1/2-x,1/2-y,-z
1/2+x,1/2-y,1/2+z
loop_
_atom_site_type_symbol
_atom_site_label
_atom_site_fract_x
_atom_site_fract_y
_atom_site_fract_z
Si Si1 0.982712 0.138185 0.868774
Si Si2 0.549190 0.368001 0.997248
Si Si3 0.108543 0.634697 0.320241
Si Si4 0.169711 0.095376 0.312718
Si Si5 0.027807 0.293626 0.396837
Si Si6 0.545765 0.028850 0.060779
O O1 0.000676 0.165998 0.933751
O O2 0.751382 0.158165 0.880247
O O3 0.107719 0.230490 0.821109
O O4 0.058321 0.014345 0.846675
O O5 0.500000 0.500000 0.000000
O O6 0.471254 0.286272 0.956305
O O7 0.782977 0.378582 0.960788
O O8 0.269711 0.588776 0.259809
O O9 0.885234 0.603331 0.321838
O O10 0.121101 0.584547 0.382327
O O11 0.047417 0.208289 0.341646
O O12 0.904391 0.409112 0.413892
O O13 0.500000 0.000000 0.000000
#
# Coordination Sequence:
#
# PCOD9292047 Si02
#       6
#     8   8   8   8   8   8
#     4  11  20  41  68  88 132 170 208 273 321 385
#     4  12  22  43  65  98 132 172 218 267 330 392
#     4  10  23  42  67  94 128 178 217 270 328 387
#     4  10  22  43  65  96 126 174 227 262 328 391
#     4  11  23  40  67  95 132 172 217 269 334 387
#     4  12  23  40  67 101 134 168 218 275 330 391
#
# _framework density 25.58005
#
# number of rings (size 3 to 8) (size 9 to 14) (size 15 to 20)
#    0.000    1.000    6.667    1.500    2.333    0.667 
#    0.000    3.333    0.000    0.000    0.000    0.000 
#    0.000    0.000    0.000    0.000    0.000    0.000 
#
# Total GULP energy -134427.906234 kJ/mol
# GULP energy per Si atom -5601.162760 kJ/mol
# Density = 2.552183 g / cm^3
# Si number density = 25.580050 Si / 1000 Ang^3
#
#
#
# Elastic Constant Matrix: (Units=GPa)
#
#
# Indices 1 2 3 4 5 6 
#
# 1 72.2527 22.6528 18.1943 0.0000 -18.3762 0.0000
# 2 22.6528 162.9190 34.9471 0.0000 -15.0497 0.0000
# 3 18.1943 34.9471 171.8508 0.0000 -17.4955 0.0000
# 4 0.0000 0.0000 0.0000 35.0031 0.0000 1.5917
# 5 -18.3762 -15.0497 -17.4955 0.0000 18.2151 0.0000
# 6 0.0000 0.0000 0.0000 1.5917 0.0000 38.0186
#
#
#
# Elastic Compliance Matrix: (Units=1/GPa)
#
#
# Indices 1 2 3 4 5 6 
#
# 1 0.018747 -0.000939 0.000058 0.000000 0.018193 0.000000
# 2 -0.000939 0.006814 -0.000897 0.000000 0.003821 0.000000
# 3 0.000058 -0.000897 0.006568 0.000000 0.005626 0.000000
# 4 0.000000 0.000000 0.000000 0.028623 0.000000 -0.001198
# 5 0.018193 0.003821 0.005626 0.000000 0.081815 0.000000
# 6 0.000000 0.000000 0.000000 -0.001198 0.000000 0.026353
#
#
# Mechanical properties :
#
#
# Convention : Reuss Voigt Hill
#
# Bulk Modulus (GPa) = 34.99687 62.06786 48.53237
# Shear Modulus (GPa) = 27.47254 40.32924 33.90089
#
# Velocity S-wave (km/s) = 3.28072 3.97494 3.64440
# Velocity P-wave (km/s) = 5.29735 6.73674 6.05993
#
# Compressibility (1/GPa) = 0.02857399
#
# Stress axis : x y z
#
# Youngs Moduli (GPa) = 53.34165 146.75732 152.25187
#
# Poissons Ratio (x) = 0.13774 -0.00887
# Poissons Ratio (y) = 0.05006 0.13661
# Poissons Ratio (z) = -0.00311 0.13168
#
# Static dielectric constant tensor:
#      x y z
#    x 2.159850 0.000000 0.016500 
#    y 0.000000 1.986910 0.000000 
#    z 0.016500 0.000000 2.010570 
# 
# From -- ./inp_files/263498.got.cif
#   From: 2010.05.17/outbox.cif.g08.bks.cpg/sg15_132_cif.got.tgz:263498.got - 2010.06.03 18:47:42.
