data_PCOD9292209
_publ_section_title
;
Structure prediction by ZEFSAII (Michael W. Deem and Ramdas Pophale) SiO2 
 PCOD9292209
Probable space group: C 2/C
;
_chemical_formula_sum "Si O2"
_cell_formula_units_Z 64
_cell_length_a 29.524089
_cell_length_b 9.688967
_cell_length_c 17.030086
_cell_angle_alpha 90.000000
_cell_angle_beta 141.440092
_cell_angle_gamma 90.000000
_cell_volume 3036.621440
_symmetry_space_group_name_H-M "C 2/C"
_symmetry_group_IT_number 15
_symmetry_cell_setting 'monoclinic'
loop_
_space_group_symop_operation_xyz
x,y,z
-x,y,1/2-z
-x,-y,-z
x,-y,1/2+z
1/2+x,1/2+y,z
1/2-x,1/2+y,1/2-z
1/2-x,1/2-y,-z
1/2+x,1/2-y,1/2+z
loop_
_atom_site_type_symbol
_atom_site_label
_atom_site_fract_x
_atom_site_fract_y
_atom_site_fract_z
Si Si1 0.305497 0.430664 0.755070
Si Si2 0.032692 0.828730 0.487162
Si Si3 0.454153 0.476116 0.759898
Si Si4 0.004408 0.418496 0.661900
Si Si5 0.836319 0.653791 0.187320
Si Si6 0.798059 0.960321 0.073524
Si Si7 0.529096 0.772466 0.430755
Si Si8 0.688755 0.735366 0.674791
O O1 0.291956 0.450996 0.644247
O O2 0.290270 0.579997 0.773137
O O3 0.252583 0.314778 0.717404
O O4 0.389853 0.393695 0.885470
O O5 0.043379 0.702506 0.441469
O O6 0.992978 0.769209 0.510352
O O7 0.979972 0.937974 0.371826
O O8 0.500000 0.533723 0.750000
O O9 0.369849 0.489135 0.627389
O O10 0.476398 0.319405 0.806050
O O11 0.085810 0.390191 0.740259
O O12 0.000000 0.414311 0.750000
O O13 0.980416 0.567032 0.598186
O O14 0.817432 0.803733 0.125655
O O15 0.830576 0.678042 0.272366
O O16 0.774783 0.547884 0.075140
O O17 0.611955 0.730193 0.526088
#
# Coordination Sequence:
#
# PCOD9292209 Si02
#       8
#     8   8   8   8   8   8   8   8
#     4  11  25  43  71 105 137 181 232 287 346 414
#     4  12  23  45  74  98 132 184 246 283 335 421
#     4  12  24  43  72 103 135 182 237 288 345 414
#     4  12  27  43  68 106 141 184 234 292 355 412
#     4  10  23  41  67  96 140 176 225 283 346 410
#     4  10  22  43  67  99 135 179 226 282 344 415
#     4  12  25  46  69  99 145 183 232 294 347 415
#     4  11  25  43  68 103 138 182 232 285 349 413
#
# _framework density 21.076053999999999
#
# number of rings (size 3 to 8) (size 9 to 14) (size 15 to 20)
#    0.000    0.750    5.000    2.250    5.250    1.000 
#    0.000    0.625    0.000    0.000    0.000    0.000 
#    0.000    0.000    0.000    0.000    0.000    0.000 
#
# Total GULP energy -179058.260649 kJ/mol
# GULP energy per Si atom -5595.570645 kJ/mol
# Density = 2.102808 g / cm^3
# Si number density = 21.076054 Si / 1000 Ang^3
#
#
#
# Elastic Constant Matrix: (Units=GPa)
#
#
# Indices 1 2 3 4 5 6 
#
# 1 99.1141 30.5082 25.9697 0.0000 11.6401 0.0000
# 2 30.5082 92.4294 15.2663 0.0000 -5.1814 0.0000
# 3 25.9697 15.2663 68.2372 0.0000 15.8158 0.0000
# 4 0.0000 0.0000 0.0000 42.2823 0.0000 4.5845
# 5 11.6401 -5.1814 15.8158 0.0000 31.3711 0.0000
# 6 0.0000 0.0000 0.0000 4.5845 0.0000 31.7037
#
#
#
# Elastic Compliance Matrix: (Units=1/GPa)
#
#
# Indices 1 2 3 4 5 6 
#
# 1 0.012505 -0.003836 -0.003033 0.000000 -0.003744 0.000000
# 2 -0.003836 0.012769 -0.002508 0.000000 0.004797 0.000000
# 3 -0.003033 -0.002508 0.018350 0.000000 -0.008540 0.000000
# 4 0.000000 0.000000 0.000000 0.024027 0.000000 -0.003474
# 5 -0.003744 0.004797 -0.008540 0.000000 0.038363 0.000000
# 6 0.000000 0.000000 0.000000 -0.003474 0.000000 0.032044
#
#
# Mechanical properties :
#
#
# Convention : Reuss Voigt Hill
#
# Bulk Modulus (GPa) = 40.21320 44.80767 42.51044
# Shear Modulus (GPa) = 30.28421 33.60720 31.94571
#
# Velocity S-wave (km/s) = 3.79476 3.99754 3.89747
# Velocity P-wave (km/s) = 6.19046 6.52788 6.36140
#
# Compressibility (1/GPa) = 0.02486746
#
# Stress axis : x y z
#
# Youngs Moduli (GPa) = 79.97014 78.31739 54.49719
#
# Poissons Ratio (x) = 0.30046 0.16528
# Poissons Ratio (y) = 0.30680 0.13670
# Poissons Ratio (z) = 0.24254 0.19645
#
# Static dielectric constant tensor:
#      x y z
#    x 1.759560 0.000000 -0.037570 
#    y 0.000000 1.744080 0.000000 
#    z -0.037570 0.000000 1.767860 
# 
# From -- ./inp_files/224660.got.cif
#   From: 2010.05.17/outbox.cif.g08.bks.cpg/sg15_113_cif.got.tgz:224660.got - 2010.06.03 18:47:42.
