data_PCOD9292285
_publ_section_title
;
Structure prediction by ZEFSAII (Michael W. Deem and Ramdas Pophale) SiO2 
 PCOD9292285
Probable space group: C 2/C
;
_chemical_formula_sum "Si O2"
_cell_formula_units_Z 40
_cell_length_a 9.510296
_cell_length_b 15.072871
_cell_length_c 24.786571
_cell_angle_alpha 90.000000
_cell_angle_beta 151.482973
_cell_angle_gamma 90.000000
_cell_volume 1696.316894
_symmetry_space_group_name_H-M "C 2/C"
_symmetry_group_IT_number 15
_symmetry_cell_setting 'monoclinic'
loop_
_space_group_symop_operation_xyz
x,y,z
-x,y,1/2-z
-x,-y,-z
x,-y,1/2+z
1/2+x,1/2+y,z
1/2-x,1/2+y,1/2-z
1/2-x,1/2-y,-z
1/2+x,1/2-y,1/2+z
loop_
_atom_site_type_symbol
_atom_site_label
_atom_site_fract_x
_atom_site_fract_y
_atom_site_fract_z
Si Si1 0.349772 0.171059 0.257500
Si Si2 0.100516 0.075523 0.841687
Si Si3 0.727569 0.450930 0.537794
Si Si4 0.732666 0.909221 0.547190
Si Si5 0.320303 0.672060 0.832741
O O1 0.500000 0.188192 0.250000
O O2 0.501918 0.084855 0.335718
O O3 0.386682 0.244995 0.316386
O O4 0.001115 0.156978 0.129369
O O5 0.000000 0.101732 0.750000
O O6 0.843263 0.093503 0.796893
O O7 0.177796 0.972624 0.873147
O O8 0.411551 0.126405 0.954897
O O9 0.500000 0.500000 0.500000
O O10 0.796605 0.522560 0.513592
O O11 0.560367 0.364226 0.456296
O O12 0.000000 0.682136 0.750000
#
# Coordination Sequence:
#
# PCOD9292285 Si02
#       5
#     8   8   8   8   8
#     4  12  25  45  71 106 146 191 244 297 366 431
#     4  10  22  43  69 102 142 187 245 296 358 431
#     4  11  24  44  75 105 140 190 249 297 352 437
#     4  10  23  40  72 105 138 186 242 307 353 422
#     4  11  28  45  69 103 148 191 235 304 371 432
#
# _framework density 23.580499
#
# number of rings (size 3 to 8) (size 9 to 14) (size 15 to 20)
#    0.000    1.200    2.000    2.400    8.400    7.200 
#    0.000    3.000    0.000    0.000    0.000    0.000 
#    0.000    0.000    0.000    0.000    0.000    0.000 
#
# Total GULP energy -111698.114250 kJ/mol
# GULP energy per Si atom -5584.905713 kJ/mol
# Density = 2.352683 g / cm^3
# Si number density = 23.580499 Si / 1000 Ang^3
#
#
#
# Elastic Constant Matrix: (Units=GPa)
#
#
# Indices 1 2 3 4 5 6 
#
# 1 148.2670 42.7597 51.5838 0.0001 13.3173 -0.0002
# 2 42.7597 79.2873 46.1338 0.0002 5.0238 0.0006
# 3 51.5838 46.1338 79.2590 0.0009 1.9445 -0.0007
# 4 0.0001 0.0002 0.0009 30.4929 -0.0013 -7.9898
# 5 13.3173 5.0238 1.9445 -0.0013 32.7674 -0.0004
# 6 -0.0002 0.0006 -0.0007 -7.9898 -0.0004 13.4935
#
#
#
# Elastic Compliance Matrix: (Units=1/GPa)
#
#
# Indices 1 2 3 4 5 6 
#
# 1 0.009277 -0.002017 -0.004785 0.000000 -0.003177 0.000000
# 2 -0.002017 0.019680 -0.010103 0.000000 -0.001598 -0.000002
# 3 -0.004785 -0.010103 0.021558 0.000000 0.002215 0.000001
# 4 0.000000 0.000000 0.000000 0.038817 0.000002 0.022984
# 5 -0.003177 -0.001598 0.002215 0.000002 0.031923 0.000002
# 6 0.000000 -0.000002 0.000001 0.022984 0.000002 0.087719
#
#
# Mechanical properties :
#
#
# Convention : Reuss Voigt Hill
#
# Bulk Modulus (GPa) = 59.86926 65.30754 62.58840
# Shear Modulus (GPa) = 20.13276 26.43984 23.28630
#
# Velocity S-wave (km/s) = 2.92514 3.35215 3.14590
# Velocity P-wave (km/s) = 6.07067 6.53745 6.30838
#
# Compressibility (1/GPa) = 0.01670306
#
# Stress axis : x y z
#
# Youngs Moduli (GPa) = 107.79848 50.81319 46.38751
#
# Poissons Ratio (x) = 0.10250 0.22198
# Poissons Ratio (y) = 0.21745 0.46865
# Poissons Ratio (z) = 0.51585 0.51336
#
# Static dielectric constant tensor:
#      x y z
#    x 1.911820 0.000000 -0.009330 
#    y 0.000000 1.947770 0.000000 
#    z -0.009330 0.000000 1.895450 
# 
# From -- ./inp_files/265685.got.cif
#   From: 2010.05.17/outbox.cif.g08.bks.cpg/sg15_133_cif.got.tgz:265685.got - 2010.06.03 18:47:42.
