data_PCOD9292564
_publ_section_title
;
Structure prediction by ZEFSAII (Michael W. Deem and Ramdas Pophale) SiO2 
 PCOD9292564
Probable space group: C 2/C
;
_chemical_formula_sum "Si O2"
_cell_formula_units_Z 64
_cell_length_a 13.015940
_cell_length_b 18.163969
_cell_length_c 11.121184
_cell_angle_alpha 90.000000
_cell_angle_beta 73.668470
_cell_angle_gamma 90.000000
_cell_volume 2523.193158
_symmetry_space_group_name_H-M "C 2/C"
_symmetry_group_IT_number 15
_symmetry_cell_setting 'monoclinic'
loop_
_space_group_symop_operation_xyz
x,y,z
-x,y,1/2-z
-x,-y,-z
x,-y,1/2+z
1/2+x,1/2+y,z
1/2-x,1/2+y,1/2-z
1/2-x,1/2-y,-z
1/2+x,1/2-y,1/2+z
loop_
_atom_site_type_symbol
_atom_site_label
_atom_site_fract_x
_atom_site_fract_y
_atom_site_fract_z
Si Si1 0.135770 0.199583 0.082059
Si Si2 0.620711 0.012354 0.158386
Si Si3 0.456435 0.121783 0.500519
Si Si4 0.545706 0.554155 0.124876
Si Si5 0.664225 0.432936 0.963567
Si Si6 0.260082 0.692773 0.889125
Si Si7 0.568023 0.744545 0.839297
Si Si8 0.147886 0.355544 0.108556
O O1 0.092386 0.128780 0.161593
O O2 0.117077 0.274100 0.162002
O O3 0.078113 0.210399 0.969671
O O4 0.255988 0.173076 0.008603
O O5 0.500000 0.018724 0.250000
O O6 0.594948 0.047502 0.035000
O O7 0.726055 0.063887 0.151007
O O8 0.667207 0.930640 0.174114
O O9 0.359284 0.164960 0.593329
O O10 0.511818 0.176172 0.382940
O O11 0.550180 0.112204 0.563453
O O12 0.500000 0.506766 0.250000
O O13 0.446858 0.574093 0.071212
O O14 0.642931 0.512710 0.029439
O O15 0.677585 0.374531 0.066542
O O16 0.315059 0.732144 0.757682
O O17 0.250000 0.750000 0.000000
O O18 0.500000 0.711936 0.750000
#
# Coordination Sequence:
#
# PCOD9292564 Si02
#       8
#     8   8   8   8   8   8   8   8
#     4  10  23  43  69 100 136 178 225 284 338 408
#     4  11  23  42  67  95 136 181 222 277 335 407
#     4  10  23  41  65 101 134 174 229 276 339 407
#     4  11  24  47  73  98 133 179 227 287 344 403
#     4  10  25  46  67 101 139 167 236 281 337 415
#     4  11  23  41  67 100 133 175 223 277 341 404
#     4  11  21  40  68  97 135 170 221 288 338 386
#     4  10  22  44  63  93 140 174 219 274 334 411
#
# _framework density 25.364685000000001
#
# number of rings (size 3 to 8) (size 9 to 14) (size 15 to 20)
#    0.000    1.500    2.500    1.500    3.500    5.000 
#    9.000    0.000    0.000    0.000    0.000    0.000 
#    0.000    0.000    0.000    0.000    0.000    0.000 
#
# Total GULP energy -178249.013534 kJ/mol
# GULP energy per Si atom -5570.281673 kJ/mol
# Density = 2.530695 g / cm^3
# Si number density = 25.364685 Si / 1000 Ang^3
#
#
#
# Elastic Constant Matrix: (Units=GPa)
#
#
# Indices 1 2 3 4 5 6 
#
# 1 83.5676 24.2089 6.1842 0.0000 -4.6441 0.0000
# 2 24.2089 135.0977 24.0237 0.0000 -17.7386 0.0000
# 3 6.1842 24.0237 88.0502 0.0000 -17.3663 0.0000
# 4 0.0000 0.0000 0.0000 25.4569 0.0000 -6.3423
# 5 -4.6441 -17.7386 -17.3663 0.0000 47.6771 0.0000
# 6 0.0000 0.0000 0.0000 -6.3423 0.0000 13.5548
#
#
#
# Elastic Compliance Matrix: (Units=1/GPa)
#
#
# Indices 1 2 3 4 5 6 
#
# 1 0.012633 -0.002179 -0.000226 0.000000 0.000337 0.000000
# 2 -0.002179 0.008394 -0.001684 0.000000 0.002297 0.000000
# 3 -0.000226 -0.001684 0.012611 0.000000 0.003945 0.000000
# 4 0.000000 0.000000 0.000000 0.044465 0.000000 0.020805
# 5 0.000337 0.002297 0.003945 0.000000 0.023299 0.000000
# 6 0.000000 0.000000 0.000000 0.020805 0.000000 0.083509
#
#
# Mechanical properties :
#
#
# Convention : Reuss Voigt Hill
#
# Bulk Modulus (GPa) = 39.27957 46.17210 42.72584
# Shear Modulus (GPa) = 24.80456 34.15769 29.48113
#
# Velocity S-wave (km/s) = 3.13056 3.67367 3.41294
# Velocity P-wave (km/s) = 5.34666 6.01974 5.69316
#
# Compressibility (1/GPa) = 0.02545852
#
# Stress axis : x y z
#
# Youngs Moduli (GPa) = 79.15675 119.13764 79.29874
#
# Poissons Ratio (x) = 0.25964 0.01793
# Poissons Ratio (y) = 0.17251 0.13354
# Poissons Ratio (z) = 0.01790 0.20062
#
# Static dielectric constant tensor:
#      x y z
#    x 2.072980 0.000000 -0.001600 
#    y 0.000000 2.103290 0.000000 
#    z -0.001600 0.000000 2.020230 
# 
# From -- ./inp_files/155183.got.cif
#   From: 2010.05.17/outbox.cif.g08.bks.cpg/sg15_78_cif.got.tgz:155183.got - 2010.06.03 18:47:42.
