data_PCOD9292284
_publ_section_title
;
Structure prediction by ZEFSAII (Michael W. Deem and Ramdas Pophale) SiO2 
 PCOD9292284
Probable space group: C 2/C
;
_chemical_formula_sum "Si O2"
_cell_formula_units_Z 48
_cell_length_a 6.318558
_cell_length_b 29.532271
_cell_length_c 15.229864
_cell_angle_alpha 90.000000
_cell_angle_beta 125.366520
_cell_angle_gamma 90.000000
_cell_volume 2317.484220
_symmetry_space_group_name_H-M "C 2/C"
_symmetry_group_IT_number 15
_symmetry_cell_setting 'monoclinic'
loop_
_space_group_symop_operation_xyz
x,y,z
-x,y,1/2-z
-x,-y,-z
x,-y,1/2+z
1/2+x,1/2+y,z
1/2-x,1/2+y,1/2-z
1/2-x,1/2-y,-z
1/2+x,1/2-y,1/2+z
loop_
_atom_site_type_symbol
_atom_site_label
_atom_site_fract_x
_atom_site_fract_y
_atom_site_fract_z
Si Si1 0.000000 0.117354 0.250000
Si Si2 0.585520 0.318729 0.933549
Si Si3 0.270116 0.972743 0.055823
Si Si4 0.636958 0.769956 0.063367
Si Si5 0.000000 0.840159 0.250000
Si Si6 0.031522 0.889122 0.079607
Si Si7 0.027840 0.439531 0.585093
O O1 0.018403 0.147518 0.340413
O O2 0.261710 0.088318 0.310789
O O3 0.399479 0.275479 0.889391
O O4 0.567158 0.347560 0.019507
O O5 0.865430 0.295959 0.984776
O O6 0.233036 0.928884 0.105869
O O7 0.472630 0.012938 0.120215
O O8 0.339718 0.953237 0.976019
O O9 0.000000 0.000000 0.000000
O O10 0.801419 0.806508 0.155084
O O11 0.750000 0.750000 0.000000
O O12 0.914843 0.871651 0.309955
O O13 0.738923 0.910899 0.997201
#
# Coordination Sequence:
#
# PCOD9292284 Si02
#       7
#     4   8   8   8   4   8   8
#     4  12  24  40  73 106 136 188 236 279 352 430
#     4  11  26  44  70  99 142 179 234 289 349 416
#     4   9  20  44  69  92 142 180 223 303 347 401
#     4  11  26  48  66 102 141 181 230 295 348 421
#     4  12  26  42  75  98 138 186 238 281 362 422
#     4  11  23  45  70 100 136 188 234 295 346 425
#     4  10  22  43  69 102 142 179 236 292 349 422
#
# _framework density 20.712116999999999
#
# number of rings (size 3 to 8) (size 9 to 14) (size 15 to 20)
#    0.000    1.333    3.333    1.000    2.333    1.333 
#    0.000    9.167    0.000    0.000    0.000    0.000 
#    0.000    0.000    0.000    0.000    0.000    0.000 
#
# Total GULP energy -133983.617753 kJ/mol
# GULP energy per Si atom -5582.650740 kJ/mol
# Density = 2.066498 g / cm^3
# Si number density = 20.712117 Si / 1000 Ang^3
#
#
#
# Elastic Constant Matrix: (Units=GPa)
#
#
# Indices 1 2 3 4 5 6 
#
# 1 99.9358 64.0241 24.4137 0.0000 -13.5553 0.0000
# 2 64.0241 171.5114 46.8390 0.0000 -16.3556 0.0000
# 3 24.4137 46.8390 49.8970 0.0000 -20.4422 0.0000
# 4 0.0000 0.0000 0.0000 -9.1246 0.0000 -35.8921
# 5 -13.5553 -16.3556 -20.4422 0.0000 28.7251 0.0000
# 6 0.0000 0.0000 0.0000 -35.8921 0.0000 110.0612
#
#
#
# Elastic Compliance Matrix: (Units=1/GPa)
#
#
# Indices 1 2 3 4 5 6 
#
# 1 0.013558 -0.004436 -0.001247 0.000000 0.002985 0.000000
# 2 -0.004436 0.009316 -0.007424 0.000000 -0.002072 0.000000
# 3 -0.001247 -0.007424 0.036202 0.000000 0.020948 0.000000
# 4 0.000000 0.000000 0.000000 -0.048009 0.000000 -0.015656
# 5 0.002985 -0.002072 0.020948 0.000000 0.049949 0.000000
# 6 0.000000 0.000000 0.000000 -0.015656 0.000000 0.003980
#
#
# Mechanical properties :
#
#
# Convention : Reuss Voigt Hill
#
# Bulk Modulus (GPa) = 30.42873 65.76644 48.09759
# Shear Modulus (GPa) = 48.94129 38.33683 43.63906
#
# Velocity S-wave (km/s) = 4.86627 4.30692 4.59511
# Velocity P-wave (km/s) = 6.80421 7.52026 7.17118
#
# Compressibility (1/GPa) = 0.03286367
#
# Stress axis : x y z
#
# Youngs Moduli (GPa) = 73.75869 107.33973 27.62274
#
# Poissons Ratio (x) = 0.47615 0.03443
# Poissons Ratio (y) = 0.32719 0.20506
# Poissons Ratio (z) = 0.09195 0.79685
#
# Static dielectric constant tensor:
#      x y z
#    x 1.797260 0.000000 -0.006770 
#    y 0.000000 1.773810 0.000000 
#    z -0.006770 0.000000 1.671960 
# 
# From -- ./inp_files/130951.got.cif
#   From: 2010.05.17/outbox.cif.g08.bks.cpg/sg15_66_cif.got.tgz:130951.got - 2010.06.03 18:47:42.
