data_PCOD9292502
_publ_section_title
;
Structure prediction by ZEFSAII (Michael W. Deem and Ramdas Pophale) SiO2 
 PCOD9292502
Probable space group: C 2/C
;
_chemical_formula_sum "Si O2"
_cell_formula_units_Z 52
_cell_length_a 14.689012
_cell_length_b 29.982207
_cell_length_c 5.271418
_cell_angle_alpha 90.000000
_cell_angle_beta 69.596880
_cell_angle_gamma 90.000000
_cell_volume 2175.930978
_symmetry_space_group_name_H-M "C 2/C"
_symmetry_group_IT_number 15
_symmetry_cell_setting 'monoclinic'
loop_
_space_group_symop_operation_xyz
x,y,z
-x,y,1/2-z
-x,-y,-z
x,-y,1/2+z
1/2+x,1/2+y,z
1/2-x,1/2+y,1/2-z
1/2-x,1/2-y,-z
1/2+x,1/2-y,1/2+z
loop_
_atom_site_type_symbol
_atom_site_label
_atom_site_fract_x
_atom_site_fract_y
_atom_site_fract_z
Si Si1 0.500000 0.612121 0.250000
Si Si2 0.438489 0.224580 0.072120
Si Si3 0.314599 0.155144 0.929260
Si Si4 0.363526 0.676740 0.717944
Si Si5 0.500000 0.948431 0.750000
Si Si6 0.219085 0.474125 0.429228
Si Si7 0.000000 0.604735 0.750000
Si Si8 0.174668 0.101218 0.379913
O O1 0.432935 0.644617 0.484613
O O2 0.575843 0.584231 0.346578
O O3 0.500000 0.207194 0.250000
O O4 0.403466 0.273714 0.184427
O O5 0.500000 0.228449 0.750000
O O6 0.350041 0.191388 0.098489
O O7 0.242759 0.177568 0.802465
O O8 0.413475 0.134887 0.727517
O O9 0.257660 0.113099 0.099443
O O10 0.354787 0.650199 0.987517
O O11 0.601202 0.970534 0.560246
O O12 0.467286 0.922647 0.526906
O O13 0.245874 0.491010 0.125204
O O14 0.276255 0.429285 0.453858
#
# Coordination Sequence:
#
# PCOD9292502 Si02
#       8
#     4   8   8   8   4   8   4   8
#     4  10  22  43  74 102 133 186 241 292 354 423
#     4  12  27  44  69 103 146 190 240 296 349 413
#     4  11  26  42  71 101 148 188 240 290 356 412
#     4  11  24  46  72 102 137 193 241 296 351 426
#     4  12  24  45  74 102 147 190 239 278 350 427
#     4  12  27  46  71 107 144 183 233 293 355 427
#     4  12  24  42  72 108 144 194 234 282 344 426
#     4  11  25  45  75 103 139 188 239 294 358 432
#
# _framework density 23.897817
#
# number of rings (size 3 to 8) (size 9 to 14) (size 15 to 20)
#    0.000    0.615    3.077    4.154    9.692    0.615 
#    0.000    0.769    0.000    0.000    0.000    0.000 
#    0.000    0.000    0.000    0.000    0.000    0.000 
#
# Total GULP energy -145536.319142 kJ/mol
# GULP energy per Si atom -5597.550736 kJ/mol
# Density = 2.384342 g / cm^3
# Si number density = 23.897817 Si / 1000 Ang^3
#
#
#
# Elastic Constant Matrix: (Units=GPa)
#
#
# Indices 1 2 3 4 5 6 
#
# 1 175.2434 21.4333 23.8466 0.0000 17.4093 0.0000
# 2 21.4333 68.1413 10.5414 0.0000 5.3173 0.0000
# 3 23.8466 10.5414 61.3089 0.0000 6.8184 0.0000
# 4 0.0000 0.0000 0.0000 826.4795 0.0000 -354.3502
# 5 17.4093 5.3173 6.8184 0.0000 36.2435 0.0000
# 6 0.0000 0.0000 0.0000 -354.3502 0.0000 187.5986
#
#
#
# Elastic Compliance Matrix: (Units=1/GPa)
#
#
# Indices 1 2 3 4 5 6 
#
# 1 0.006405 -0.001518 -0.001954 0.000000 -0.002486 0.000000
# 2 -0.001518 0.015547 -0.001951 0.000000 -0.001185 0.000000
# 3 -0.001954 -0.001951 0.017639 0.000000 -0.002094 0.000000
# 4 0.000000 0.000000 0.000000 0.006363 0.000000 0.012019
# 5 -0.002486 -0.001185 -0.002094 0.000000 0.029353 0.000000
# 6 0.000000 0.000000 0.000000 0.012019 0.000000 0.028033
#
#
# Mechanical properties :
#
#
# Convention : Reuss Voigt Hill
#
# Bulk Modulus (GPa) = 34.78819 46.25956 40.52387
# Shear Modulus (GPa) = 40.39820 226.65581 133.52700
#
# Velocity S-wave (km/s) = 4.11598 9.74934 7.48301
# Velocity P-wave (km/s) = 6.09729 12.08851 9.57364
#
# Compressibility (1/GPa) = 0.02874539
#
# Stress axis : x y z
#
# Youngs Moduli (GPa) = 156.13053 64.32020 56.69245
#
# Poissons Ratio (x) = 0.09766 0.11076
# Poissons Ratio (y) = 0.23706 0.11060
# Poissons Ratio (z) = 0.30503 0.12548
#
# Static dielectric constant tensor:
#      x y z
#    x 1.938410 0.000000 0.019230 
#    y 0.000000 1.918060 0.000000 
#    z 0.019230 0.000000 1.999230 
# 
# From -- ./inp_files/9049.got.cif
#   From: 2010.05.17/outbox.cif.g08.bks.cpg/sg15_5_cif.got.tgz:9049.got - 2010.06.03 18:47:42.
