data_PCOD9292940
_publ_section_title
;
Structure prediction by ZEFSAII (Michael W. Deem and Ramdas Pophale) SiO2 
 PCOD9292940
Probable space group: C 2/C
;
_chemical_formula_sum "Si O2"
_cell_formula_units_Z 32
_cell_length_a 19.903979
_cell_length_b 4.834739
_cell_length_c 15.738360
_cell_angle_alpha 90.000000
_cell_angle_beta 46.578731
_cell_angle_gamma 90.000000
_cell_volume 1100.018924
_symmetry_space_group_name_H-M "C 2/C"
_symmetry_group_IT_number 15
_symmetry_cell_setting 'monoclinic'
loop_
_space_group_symop_operation_xyz
x,y,z
-x,y,1/2-z
-x,-y,-z
x,-y,1/2+z
1/2+x,1/2+y,z
1/2-x,1/2+y,1/2-z
1/2-x,1/2-y,-z
1/2+x,1/2-y,1/2+z
loop_
_atom_site_type_symbol
_atom_site_label
_atom_site_fract_x
_atom_site_fract_y
_atom_site_fract_z
Si Si1 0.092623 0.626850 0.528177
Si Si2 0.670434 0.665148 0.698104
Si Si3 0.883668 0.697013 0.659880
Si Si4 0.250000 0.250000 0.000000
Si Si5 0.500000 0.752603 0.750000
O O1 0.131089 0.443821 0.417388
O O2 0.163335 0.838891 0.509909
O O3 0.060515 0.442325 0.635864
O O4 0.994327 0.730395 0.574736
O O5 0.668320 0.487157 0.786121
O O6 0.657781 0.989627 0.730407
O O7 0.736275 0.526516 0.572132
O O8 0.569962 0.585151 0.746350
#
# Coordination Sequence:
#
# PCOD9292940 Si02
#       5
#     8   8   8   4   4
#     4  10  23  42  69  99 140 185 241 296 365 433
#     4  11  24  42  68  98 139 182 240 296 365 433
#     4  10  24  46  67  95 137 196 236 284 362 460
#     4  12  24  40  70 108 140 178 240 320 368 412
#     4  10  22  44  70 102 144 200 250 302 368 458
#
# _framework density 29.090409000000001
#
# number of rings (size 3 to 8) (size 9 to 14) (size 15 to 20)
#    0.000    1.500    0.000    4.500    0.000   18.000 
#    0.000    0.000    0.000    0.000    0.000    0.000 
#    0.000    0.000    0.000    0.000    0.000    0.000 
#
# Total GULP energy -89165.609532 kJ/mol
# GULP energy per Si atom -5572.850596 kJ/mol
# Density = 2.902420 g / cm^3
# Si number density = 29.090409 Si / 1000 Ang^3
#
#
#
# Elastic Constant Matrix: (Units=GPa)
#
#
# Indices 1 2 3 4 5 6 
#
# 1 209.5404 -2.5308 19.9289 -0.0280 3.9796 0.0108
# 2 -2.5308 102.8436 25.9271 0.0780 -2.6232 0.1766
# 3 19.9289 25.9271 107.4788 -0.0354 -6.6505 0.0379
# 4 -0.0280 0.0780 -0.0354 46.7973 0.0425 12.1594
# 5 3.9796 -2.6232 -6.6505 0.0425 36.9005 -0.0178
# 6 0.0108 0.1766 0.0379 12.1594 -0.0178 28.4782
#
#
#
# Elastic Compliance Matrix: (Units=1/GPa)
#
#
# Indices 1 2 3 4 5 6 
#
# 1 0.004888 0.000364 -0.001037 0.000003 -0.000688 -0.000005
# 2 0.000364 0.010383 -0.002558 -0.000004 0.000238 -0.000059
# 3 -0.001037 -0.002558 0.010223 0.000010 0.001772 0.000000
# 4 0.000003 -0.000004 0.000010 0.024035 -0.000031 -0.010262
# 5 -0.000688 0.000238 0.001772 -0.000031 0.027511 0.000027
# 6 -0.000005 -0.000059 0.000000 -0.010262 0.000027 0.039497
#
#
# Mechanical properties :
#
#
# Convention : Reuss Voigt Hill
#
# Bulk Modulus (GPa) = 52.53659 56.27924 54.40791
# Shear Modulus (GPa) = 38.65696 47.53771 43.09734
#
# Velocity S-wave (km/s) = 3.64930 4.04683 3.85320
# Velocity P-wave (km/s) = 5.98795 6.42060 6.20804
#
# Compressibility (1/GPa) = 0.01903435
#
# Stress axis : x y z
#
# Youngs Moduli (GPa) = 204.56468 96.30750 97.81814
#
# Poissons Ratio (x) = -0.03507 0.10142
# Poissons Ratio (y) = -0.07449 0.25018
# Poissons Ratio (z) = 0.21210 0.24631
#
# Static dielectric constant tensor:
#      x y z
#    x 2.329130 -0.000460 -0.084570 
#    y -0.000460 2.242550 -0.000270 
#    z -0.084570 -0.000270 2.425770 
# 
# From -- ./inp_files/212566.got.cif
#   From: 2010.05.17/outbox.cif.g08.bks.cpg/sg15_107_cif.got.tgz:212566.got - 2010.06.03 18:47:42.
