data_PCOD9292574
_publ_section_title
;
Structure prediction by ZEFSAII (Michael W. Deem and Ramdas Pophale) SiO2 
 PCOD9292574
Probable space group: C 2/C
;
_chemical_formula_sum "Si O2"
_cell_formula_units_Z 48
_cell_length_a 8.349764
_cell_length_b 31.945213
_cell_length_c 8.652544
_cell_angle_alpha 90.000000
_cell_angle_beta 90.591700
_cell_angle_gamma 90.000000
_cell_volume 2307.813164
_symmetry_space_group_name_H-M "C 2/C"
_symmetry_group_IT_number 15
_symmetry_cell_setting 'monoclinic'
loop_
_space_group_symop_operation_xyz
x,y,z
-x,y,1/2-z
-x,-y,-z
x,-y,1/2+z
1/2+x,1/2+y,z
1/2-x,1/2+y,1/2-z
1/2-x,1/2-y,-z
1/2+x,1/2-y,1/2+z
loop_
_atom_site_type_symbol
_atom_site_label
_atom_site_fract_x
_atom_site_fract_y
_atom_site_fract_z
Si Si1 0.500000 0.844413 0.250000
Si Si2 0.239432 0.298776 0.464574
Si Si3 0.177993 0.016686 0.034926
Si Si4 0.330199 0.047088 0.338066
Si Si5 0.310097 0.632435 0.215221
Si Si6 0.000000 0.162242 0.750000
Si Si7 0.235589 0.889441 0.443859
O O1 0.576742 0.815193 0.383412
O O2 0.370451 0.874270 0.328273
O O3 0.250000 0.250000 0.500000
O O4 0.275632 0.325998 0.618293
O O5 0.370592 0.309949 0.335846
O O6 0.211672 0.060958 0.951828
O O7 0.310322 0.982879 0.983736
O O8 0.205459 0.027522 0.213837
O O9 0.000000 0.000000 0.000000
O O10 0.500000 0.048644 0.250000
O O11 0.265831 0.093217 0.377097
O O12 0.500000 0.627183 0.250000
O O13 0.230987 0.628127 0.383961
O O14 0.076413 0.132622 0.880062
#
# Coordination Sequence:
#
# PCOD9292574 Si02
#       7
#     4   8   8   8   8   4   8
#     4  10  26  44  66 104 138 178 222 278 362 392
#     4  11  26  44  74 100 136 173 222 285 339 412
#     4  11  24  40  65  96 131 181 230 269 325 398
#     4  11  25  41  64  98 134 172 227 281 335 386
#     4  11  23  44  70  95 133 182 228 269 347 408
#     4  10  22  44  64 100 132 178 218 270 336 404
#     4  10  23  41  68  98 136 181 226 272 336 404
#
# _framework density 20.798912000000001
#
# number of rings (size 3 to 8) (size 9 to 14) (size 15 to 20)
#    0.000    1.333    1.667    3.000    9.333    2.667 
#    0.000    3.333    0.000    0.000    0.000    0.000 
#    0.000    0.000    0.000    0.000    0.000    0.000 
#
# Total GULP energy -134171.022633 kJ/mol
# GULP energy per Si atom -5590.459276 kJ/mol
# Density = 2.075157 g / cm^3
# Si number density = 20.798912 Si / 1000 Ang^3
#
#
#
# Elastic Constant Matrix: (Units=GPa)
#
#
# Indices 1 2 3 4 5 6 
#
# 1 77.4862 28.8807 3.3144 0.0000 1.2241 0.0000
# 2 28.8807 171.7930 52.9474 0.0000 -5.5697 0.0000
# 3 3.3144 52.9474 47.4733 0.0000 0.8840 0.0000
# 4 0.0000 0.0000 0.0000 35.2949 0.0000 3.0422
# 5 1.2241 -5.5697 0.8840 0.0000 26.1060 0.0000
# 6 0.0000 0.0000 0.0000 3.0422 0.0000 14.7376
#
#
#
# Elastic Compliance Matrix: (Units=1/GPa)
#
#
# Indices 1 2 3 4 5 6 
#
# 1 0.014013 -0.003214 0.002632 0.000000 -0.001432 0.000000
# 2 -0.003214 0.009738 -0.010685 0.000000 0.002590 0.000000
# 3 0.002632 -0.010685 0.032864 0.000000 -0.003516 0.000000
# 4 0.000000 0.000000 0.000000 0.028846 0.000000 -0.005955
# 5 -0.001432 0.002590 -0.003516 0.000000 0.039044 0.000000
# 6 0.000000 0.000000 0.000000 -0.005955 0.000000 0.069083
#
#
# Mechanical properties :
#
#
# Convention : Reuss Voigt Hill
#
# Bulk Modulus (GPa) = 29.34058 51.89308 40.61683
# Shear Modulus (GPa) = 21.97979 29.33503 25.65741
#
# Velocity S-wave (km/s) = 3.25434 3.75962 3.51607
# Velocity P-wave (km/s) = 5.31586 6.62196 6.00453
#
# Compressibility (1/GPa) = 0.03408249
#
# Stress axis : x y z
#
# Youngs Moduli (GPa) = 71.36071 102.68606 30.42888
#
# Poissons Ratio (x) = 0.32999 -0.08010
# Poissons Ratio (y) = 0.22932 0.32514
# Poissons Ratio (z) = -0.18785 1.09722
#
# Static dielectric constant tensor:
#      x y z
#    x 1.787520 0.000000 0.019130 
#    y 0.000000 1.707120 0.000000 
#    z 0.019130 0.000000 1.760870 
# 
# From -- ./inp_files/26185.got.cif
#   From: 2010.05.17/outbox.cif.g08.bks.cpg/sg15_14_cif.got.tgz:26185.got - 2010.06.03 18:47:42.
