data_PCOD9292740
_publ_section_title
;
Structure prediction by ZEFSAII (Michael W. Deem and Ramdas Pophale) SiO2 
 PCOD9292740
Probable space group: C 2/C
;
_chemical_formula_sum "Si O2"
_cell_formula_units_Z 64
_cell_length_a 19.633756
_cell_length_b 12.098060
_cell_length_c 27.738078
_cell_angle_alpha 90.000000
_cell_angle_beta 27.572631
_cell_angle_gamma 90.000000
_cell_volume 3049.699295
_symmetry_space_group_name_H-M "C 2/C"
_symmetry_group_IT_number 15
_symmetry_cell_setting 'monoclinic'
loop_
_space_group_symop_operation_xyz
x,y,z
-x,y,1/2-z
-x,-y,-z
x,-y,1/2+z
1/2+x,1/2+y,z
1/2-x,1/2+y,1/2-z
1/2-x,1/2-y,-z
1/2+x,1/2-y,1/2+z
loop_
_atom_site_type_symbol
_atom_site_label
_atom_site_fract_x
_atom_site_fract_y
_atom_site_fract_z
Si Si1 0.594896 0.852522 0.641575
Si Si2 0.430431 0.132742 0.984644
Si Si3 0.125071 0.981461 0.340200
Si Si4 0.387179 0.746987 0.607784
Si Si5 0.557926 0.700762 0.338513
Si Si6 0.958064 0.569898 0.130648
Si Si7 0.903316 0.886775 0.407705
Si Si8 0.623718 0.608560 0.132092
O O1 0.500000 0.868206 0.750000
O O2 0.526997 0.925953 0.640564
O O3 0.771396 0.876422 0.530273
O O4 0.584201 0.725292 0.630524
O O5 0.538572 0.186315 0.878304
O O6 0.455842 0.002693 0.963083
O O7 0.456009 0.194661 0.018329
O O8 0.268188 0.155361 0.066343
O O9 0.102277 0.885589 0.394338
O O10 0.058565 0.923008 0.333908
O O11 0.045036 0.100588 0.385410
O O12 0.293863 0.019999 0.234908
O O13 0.218497 0.790633 0.714131
O O14 0.454541 0.805341 0.612770
O O15 0.437409 0.681893 0.373279
O O16 0.854310 0.986788 0.403743
O O17 0.500000 0.600796 0.250000
#
# Coordination Sequence:
#
# PCOD9292740 Si02
#       8
#     8   8   8   8   8   8   8   8
#     4  11  23  44  68 100 134 180 218 274 340 392
#     4  12  23  41  66  94 129 174 219 265 337 391
#     4  10  22  44  67  91 135 174 210 274 327 389
#     4  11  22  43  64  93 128 172 218 267 330 390
#     4  10  23  41  61  94 129 168 217 274 320 391
#     4  11  23  44  66  96 135 166 221 279 325 396
#     4  10  22  44  68  96 138 167 228 278 323 399
#     4  11  21  40  67  95 125 171 221 274 329 392
#
# _framework density 20.985676000000002
#
# number of rings (size 3 to 8) (size 9 to 14) (size 15 to 20)
#    0.000    1.250    5.000    1.125    0.000    0.500 
#   11.250    0.625    0.000    0.000    0.000    0.000 
#    0.000    0.000    0.000    0.000    0.000    0.000 
#
# Total GULP energy -178401.237497 kJ/mol
# GULP energy per Si atom -5575.038672 kJ/mol
# Density = 2.093791 g / cm^3
# Si number density = 20.985676 Si / 1000 Ang^3
#
#
#
# Elastic Constant Matrix: (Units=GPa)
#
#
# Indices 1 2 3 4 5 6 
#
# 1 82.3632 5.4479 14.1226 -0.0001 2.4724 0.0000
# 2 5.4479 61.5420 -12.0734 -0.0007 8.1907 0.0002
# 3 14.1226 -12.0734 62.6663 -0.0023 17.8364 0.0006
# 4 -0.0001 -0.0007 -0.0023 12.6367 0.0003 -0.4145
# 5 2.4724 8.1907 17.8364 0.0003 24.4372 0.0001
# 6 0.0000 0.0002 0.0006 -0.4145 0.0001 10.9718
#
#
#
# Elastic Compliance Matrix: (Units=1/GPa)
#
#
# Indices 1 2 3 4 5 6 
#
# 1 0.012908 -0.002248 -0.004020 -0.000001 0.002382 0.000000
# 2 -0.002248 0.019537 0.007661 0.000003 -0.011913 -0.000001
# 3 -0.004020 0.007661 0.023925 0.000005 -0.019624 -0.000001
# 4 -0.000001 0.000003 0.000005 0.079233 -0.000006 0.002994
# 5 0.002382 -0.011913 -0.019624 -0.000006 0.058996 0.000001
# 6 0.000000 -0.000001 -0.000001 0.002994 0.000001 0.091256
#
#
# Mechanical properties :
#
#
# Convention : Reuss Voigt Hill
#
# Bulk Modulus (GPa) = 16.90468 24.61841 20.76154
# Shear Modulus (GPa) = 16.51326 22.88075 19.69701
#
# Velocity S-wave (km/s) = 2.80819 3.30556 3.06697
# Velocity P-wave (km/s) = 4.31131 5.13083 4.73882
#
# Compressibility (1/GPa) = 0.05915522
#
# Stress axis : x y z
#
# Youngs Moduli (GPa) = 77.47210 51.18610 41.79732
#
# Poissons Ratio (x) = 0.11508 0.16803
# Poissons Ratio (y) = 0.17418 -0.32022
# Poissons Ratio (z) = 0.31144 -0.39215
#
# Static dielectric constant tensor:
#      x y z
#    x 1.751290 0.000000 -0.013170 
#    y 0.000000 1.755210 0.000000 
#    z -0.013170 0.000000 1.796380 
# 
# From -- ./inp_files/300842.got.cif
#   From: 2010.05.17/outbox.cif.g08.bks.cpg/sg15_151_cif.got.tgz:300842.got - 2010.06.03 18:47:42.
