data_PCOD9292491
_publ_section_title
;
Structure prediction by ZEFSAII (Michael W. Deem and Ramdas Pophale) SiO2 
 PCOD9292491
Probable space group: C 2/C
;
_chemical_formula_sum "Si O2"
_cell_formula_units_Z 56
_cell_length_a 21.285038
_cell_length_b 7.961460
_cell_length_c 18.809013
_cell_angle_alpha 90.000000
_cell_angle_beta 40.595320
_cell_angle_gamma 90.000000
_cell_volume 2074.063750
_symmetry_space_group_name_H-M "C 2/C"
_symmetry_group_IT_number 15
_symmetry_cell_setting 'monoclinic'
loop_
_space_group_symop_operation_xyz
x,y,z
-x,y,1/2-z
-x,-y,-z
x,-y,1/2+z
1/2+x,1/2+y,z
1/2-x,1/2+y,1/2-z
1/2-x,1/2-y,-z
1/2+x,1/2-y,1/2+z
loop_
_atom_site_type_symbol
_atom_site_label
_atom_site_fract_x
_atom_site_fract_y
_atom_site_fract_z
Si Si1 0.831423 0.130587 0.742885
Si Si2 0.544426 0.704279 0.384160
Si Si3 0.812187 0.118699 0.992925
Si Si4 0.820026 0.544162 0.036626
Si Si5 0.478532 0.194425 0.433503
Si Si6 0.725655 0.122458 0.682543
Si Si7 0.093295 0.209806 0.121192
O O1 0.752142 0.099501 0.871794
O O2 0.771826 0.130232 0.721042
O O3 0.909096 0.280563 0.682391
O O4 0.898765 0.967745 0.678457
O O5 0.531450 0.731014 0.478749
O O6 0.612381 0.846592 0.291135
O O7 0.447138 0.683834 0.423819
O O8 0.647494 0.889223 0.069829
O O9 0.911032 0.206582 0.935034
O O10 0.845304 0.956739 0.916853
O O11 0.750000 0.250000 0.000000
O O12 0.766781 0.710285 0.110178
O O13 0.922648 0.484035 0.982706
O O14 0.759444 0.965405 0.606519
O O15 0.000000 0.217425 0.250000
#
# Coordination Sequence:
#
# PCOD9292491 Si02
#       7
#     8   8   8   8   8   8   8
#     4  11  21  42  74 114 165 198 261 339 406 486
#     4  11  22  42  78 113 156 210 264 332 412 488
#     4  11  25  47  74 113 160 210 280 333 403 491
#     4  10  25  44  72 117 155 207 265 331 406 484
#     4  12  22  43  78 115 155 208 267 337 411 479
#     4  10  22  43  73 116 163 209 259 331 417 483
#     4  11  26  52  77 108 163 221 271 328 414 491
#
# _framework density 27.000135
#
# number of rings (size 3 to 8) (size 9 to 14) (size 15 to 20)
#    0.000    1.143    4.286    2.143    0.000    5.714 
#    2.571    5.714    0.000    0.000    0.000    0.000 
#    0.000    0.000    0.000    0.000    0.000    0.000 
#
# Total GULP energy -156848.058940 kJ/mol
# GULP energy per Si atom -5601.716391 kJ/mol
# Density = 2.693868 g / cm^3
# Si number density = 27.000135 Si / 1000 Ang^3
#
#
#
# Elastic Constant Matrix: (Units=GPa)
#
#
# Indices 1 2 3 4 5 6 
#
# 1 155.6003 35.4869 40.9285 0.0001 -4.6820 -0.0001
# 2 35.4869 157.0024 58.5743 0.0003 -2.1297 -0.0005
# 3 40.9285 58.5743 211.8488 -0.0001 -18.6930 0.0001
# 4 0.0001 0.0003 -0.0001 38.0722 0.0000 -12.9563
# 5 -4.6820 -2.1297 -18.6930 0.0000 45.5834 0.0001
# 6 -0.0001 -0.0005 0.0001 -12.9563 0.0001 48.2106
#
#
#
# Elastic Compliance Matrix: (Units=1/GPa)
#
#
# Indices 1 2 3 4 5 6 
#
# 1 0.006969 -0.001202 -0.000992 0.000000 0.000253 0.000000
# 2 -0.001202 0.007320 -0.001839 0.000000 -0.000536 0.000000
# 3 -0.000992 -0.001839 0.005607 0.000000 0.002111 0.000000
# 4 0.000000 0.000000 0.000000 0.028910 0.000000 0.007769
# 5 0.000253 -0.000536 0.002111 0.000000 0.022805 0.000000
# 6 0.000000 0.000000 0.000000 0.007769 0.000000 0.022830
#
#
# Mechanical properties :
#
#
# Convention : Reuss Voigt Hill
#
# Bulk Modulus (GPa) = 84.52598 88.27009 86.39803
# Shear Modulus (GPa) = 46.97072 52.33735 49.65404
#
# Velocity S-wave (km/s) = 4.17543 4.40751 4.29304
# Velocity P-wave (km/s) = 7.39049 7.65931 7.52610
#
# Compressibility (1/GPa) = 0.01183068
#
# Stress axis : x y z
#
# Youngs Moduli (GPa) = 143.48622 136.61638 178.35730
#
# Poissons Ratio (x) = 0.16418 0.17690
# Poissons Ratio (y) = 0.17244 0.32799
# Poissons Ratio (z) = 0.14232 0.25123
#
# Static dielectric constant tensor:
#      x y z
#    x 2.157180 0.000000 -0.014180 
#    y 0.000000 2.246970 0.000000 
#    z -0.014180 0.000000 2.082400 
# 
# From -- ./inp_files/210395.got.cif
#   From: 2010.05.17/outbox.cif.g08.bks.cpg/sg15_106_cif.got.tgz:210395.got - 2010.06.03 18:47:42.
