data_PCOD9292951
_publ_section_title
;
Structure prediction by ZEFSAII (Michael W. Deem and Ramdas Pophale) SiO2 
 PCOD9292951
Probable space group: C 2/C
;
_chemical_formula_sum "Si O2"
_cell_formula_units_Z 36
_cell_length_a 15.129735
_cell_length_b 14.020730
_cell_length_c 9.806167
_cell_angle_alpha 90.000000
_cell_angle_beta 51.571927
_cell_angle_gamma 90.000000
_cell_volume 1629.591361
_symmetry_space_group_name_H-M "C 2/C"
_symmetry_group_IT_number 15
_symmetry_cell_setting 'monoclinic'
loop_
_space_group_symop_operation_xyz
x,y,z
-x,y,1/2-z
-x,-y,-z
x,-y,1/2+z
1/2+x,1/2+y,z
1/2-x,1/2+y,1/2-z
1/2-x,1/2-y,-z
1/2+x,1/2-y,1/2+z
loop_
_atom_site_type_symbol
_atom_site_label
_atom_site_fract_x
_atom_site_fract_y
_atom_site_fract_z
Si Si1 0.879826 0.465591 0.670311
Si Si2 0.493398 0.354093 0.407435
Si Si3 0.000000 0.333791 0.750000
Si Si4 0.696967 0.648562 0.201160
Si Si5 0.287256 0.361073 0.120491
O O1 0.902984 0.400441 0.781507
O O2 0.814518 0.403181 0.621337
O O3 0.801398 0.554834 0.776211
O O4 0.000000 0.500000 0.500000
O O5 0.500000 0.398973 0.250000
O O6 0.468381 0.241631 0.398563
O O7 0.394460 0.387084 0.601629
O O8 0.613139 0.363089 0.365219
O O9 0.722312 0.760621 0.192044
O O10 0.661265 0.631595 0.080501
#
# Coordination Sequence:
#
# PCOD9292951 Si02
#       5
#     8   8   4   8   8
#     4  12  25  44  71 108 144 186 243 298 354 430
#     4  10  23  44  73 100 139 190 237 288 357 418
#     4  10  22  44  70 106 136 190 236 294 338 436
#     4  11  24  45  70 102 151 183 237 298 362 427
#     4  11  25  43  72 107 142 194 230 300 365 419
#
# _framework density 22.091428000000001
#
# number of rings (size 3 to 8) (size 9 to 14) (size 15 to 20)
#    0.667    0.444    2.222    3.333    0.000    8.000 
#    0.000    0.000    0.000    0.000    0.000    0.000 
#    0.000    0.000    0.000    0.000    0.000    0.000 
#
# Total GULP energy -100672.622173 kJ/mol
# GULP energy per Si atom -5592.923454 kJ/mol
# Density = 2.204115 g / cm^3
# Si number density = 22.091428 Si / 1000 Ang^3
#
#
#
# Elastic Constant Matrix: (Units=GPa)
#
#
# Indices 1 2 3 4 5 6 
#
# 1 146.5983 12.9878 51.2786 0.0000 25.6689 0.0000
# 2 12.9878 88.8708 16.1081 0.0000 -0.1788 0.0000
# 3 51.2786 16.1081 135.0243 0.0000 9.6320 0.0000
# 4 0.0000 0.0000 0.0000 7.1383 0.0000 -8.2663
# 5 25.6689 -0.1788 9.6320 0.0000 26.7420 0.0000
# 6 0.0000 0.0000 0.0000 -8.2663 0.0000 46.8650
#
#
#
# Elastic Compliance Matrix: (Units=1/GPa)
#
#
# Indices 1 2 3 4 5 6 
#
# 1 0.009277 -0.000853 -0.002859 0.000000 -0.007881 0.000000
# 2 -0.000853 0.011588 -0.001152 0.000000 0.001312 0.000000
# 3 -0.002859 -0.001152 0.008657 0.000000 -0.000381 0.000000
# 4 0.000000 0.000000 0.000000 0.176050 0.000000 0.031053
# 5 -0.007881 0.001312 -0.000381 0.000000 0.045105 0.000000
# 6 0.000000 0.000000 0.000000 0.031053 0.000000 0.026815
#
#
# Mechanical properties :
#
#
# Convention : Reuss Voigt Hill
#
# Bulk Modulus (GPa) = 50.52308 59.02694 54.77501
# Shear Modulus (GPa) = 17.01729 35.49032 26.25380
#
# Velocity S-wave (km/s) = 2.77846 4.01249 3.45108
# Velocity P-wave (km/s) = 5.76305 6.94580 6.38189
#
# Compressibility (1/GPa) = 0.01979293
#
# Stress axis : x y z
#
# Youngs Moduli (GPa) = 107.79422 86.29295 115.51985
#
# Poissons Ratio (x) = 0.07364 0.33029
# Poissons Ratio (y) = 0.09199 0.13307
# Poissons Ratio (z) = 0.30820 0.09940
#
# Static dielectric constant tensor:
#      x y z
#    x 1.765150 0.000000 0.044170 
#    y 0.000000 1.830340 0.000000 
#    z 0.044170 0.000000 1.801600 
# 
# From -- ./inp_files/95497.got.cif
#   From: 2010.05.17/outbox.cif.g08.bks.cpg/sg15_48_cif.got.tgz:95497.got - 2010.06.03 18:47:42.
