data_PCOD9292604
_publ_section_title
;
Structure prediction by ZEFSAII (Michael W. Deem and Ramdas Pophale) SiO2 
 PCOD9292604
Probable space group: C 2/C
;
_chemical_formula_sum "Si O2"
_cell_formula_units_Z 48
_cell_length_a 8.640494
_cell_length_b 32.148970
_cell_length_c 8.216116
_cell_angle_alpha 90.000000
_cell_angle_beta 82.853689
_cell_angle_gamma 90.000000
_cell_volume 2264.567658
_symmetry_space_group_name_H-M "C 2/C"
_symmetry_group_IT_number 15
_symmetry_cell_setting 'monoclinic'
loop_
_space_group_symop_operation_xyz
x,y,z
-x,y,1/2-z
-x,-y,-z
x,-y,1/2+z
1/2+x,1/2+y,z
1/2-x,1/2+y,1/2-z
1/2-x,1/2-y,-z
1/2+x,1/2-y,1/2+z
loop_
_atom_site_type_symbol
_atom_site_label
_atom_site_fract_x
_atom_site_fract_y
_atom_site_fract_z
Si Si1 0.500000 0.834893 0.250000
Si Si2 0.276965 0.201415 0.522013
Si Si3 0.678498 0.025739 0.783244
Si Si4 0.672756 0.057931 0.151219
Si Si5 0.320699 0.637056 0.225456
Si Si6 0.000000 0.157427 0.750000
Si Si7 0.229462 0.893412 0.414274
O O1 0.566160 0.808465 0.394439
O O2 0.362772 0.866150 0.313169
O O3 0.250000 0.250000 0.500000
O O4 0.261065 0.175896 0.353981
O O5 0.134002 0.184916 0.651349
O O6 0.500000 0.022678 0.750000
O O7 0.758027 0.060110 0.656671
O O8 0.743808 0.979242 0.751696
O O9 0.665771 0.039561 0.970749
O O10 0.500000 0.067860 0.250000
O O11 0.783257 0.097749 0.116818
O O12 0.500000 0.646373 0.250000
O O13 0.249897 0.617302 0.399894
O O14 0.929313 0.127766 0.622579
#
# Coordination Sequence:
#
# PCOD9292604 Si02
#       7
#     4   8   8   8   8   4   8
#     4  10  24  42  70 102 128 178 228 274 352 408
#     4  11  26  46  72 100 137 174 229 287 352 421
#     4  11  21  39  65 101 138 182 235 291 333 396
#     4  11  23  40  66  99 138 183 240 287 337 401
#     4  12  26  44  66  99 137 181 227 282 354 413
#     4  10  22  44  64  98 134 180 212 284 350 414
#     4  11  22  41  69  97 139 179 227 280 342 407
#
# _framework density 21.196097000000002
#
# number of rings (size 3 to 8) (size 9 to 14) (size 15 to 20)
#    0.000    1.000    2.500    6.000    3.500    1.333 
#    1.500    5.000    0.000    0.000    0.000    0.000 
#    0.000    0.000    0.000    0.000    0.000    0.000 
#
# Total GULP energy -133948.866005 kJ/mol
# GULP energy per Si atom -5581.202750 kJ/mol
# Density = 2.114785 g / cm^3
# Si number density = 21.196097 Si / 1000 Ang^3
#
#
#
# Elastic Constant Matrix: (Units=GPa)
#
#
# Indices 1 2 3 4 5 6 
#
# 1 61.3616 45.3771 19.7546 0.0000 18.9580 0.0000
# 2 45.3771 150.5175 17.6245 0.0000 11.8398 0.0000
# 3 19.7546 17.6245 86.7341 0.0000 7.8590 0.0000
# 4 0.0000 0.0000 0.0000 47.3441 0.0000 7.5839
# 5 18.9580 11.8398 7.8590 0.0000 37.3268 0.0000
# 6 0.0000 0.0000 0.0000 7.5839 0.0000 31.2189
#
#
#
# Elastic Compliance Matrix: (Units=1/GPa)
#
#
# Indices 1 2 3 4 5 6 
#
# 1 0.025294 -0.006419 -0.003545 0.000000 -0.010064 0.000000
# 2 -0.006419 0.008570 -0.000335 0.000000 0.000612 0.000000
# 3 -0.003545 -0.000335 0.012470 0.000000 -0.000719 0.000000
# 4 0.000000 0.000000 0.000000 0.021977 0.000000 -0.005339
# 5 -0.010064 0.000612 -0.000719 0.000000 0.031859 0.000000
# 6 0.000000 0.000000 0.000000 -0.005339 0.000000 0.033329
#
#
# Mechanical properties :
#
#
# Convention : Reuss Voigt Hill
#
# Bulk Modulus (GPa) = 38.85438 51.56952 45.21195
# Shear Modulus (GPa) = 30.73603 37.56842 34.15222
#
# Velocity S-wave (km/s) = 3.81212 4.21458 4.01839
# Velocity P-wave (km/s) = 6.14386 6.93297 6.55031
#
# Compressibility (1/GPa) = 0.02573712
#
# Stress axis : x y z
#
# Youngs Moduli (GPa) = 39.53470 116.68735 80.19217
#
# Poissons Ratio (x) = 0.74900 0.28426
# Poissons Ratio (y) = 0.25377 0.02686
# Poissons Ratio (z) = 0.14014 0.03908
#
# Static dielectric constant tensor:
#      x y z
#    x 1.793180 0.000000 0.036470 
#    y 0.000000 1.774140 0.000000 
#    z 0.036470 0.000000 1.955410 
# 
# From -- ./inp_files/26184.got.cif
#   From: 2010.05.17/outbox.cif.g08.bks.cpg/sg15_14_cif.got.tgz:26184.got - 2010.06.03 18:47:42.
