data_PCOD9292648
_publ_section_title
;
Structure prediction by ZEFSAII (Michael W. Deem and Ramdas Pophale) SiO2 
 PCOD9292648
Probable space group: C 2/C
;
_chemical_formula_sum "Si O2"
_cell_formula_units_Z 48
_cell_length_a 22.499391
_cell_length_b 11.889292
_cell_length_c 23.411997
_cell_angle_alpha 90.000000
_cell_angle_beta 159.137375
_cell_angle_gamma 90.000000
_cell_volume 2230.344650
_symmetry_space_group_name_H-M "C 2/C"
_symmetry_group_IT_number 15
_symmetry_cell_setting 'monoclinic'
loop_
_space_group_symop_operation_xyz
x,y,z
-x,y,1/2-z
-x,-y,-z
x,-y,1/2+z
1/2+x,1/2+y,z
1/2-x,1/2+y,1/2-z
1/2-x,1/2-y,-z
1/2+x,1/2-y,1/2+z
loop_
_atom_site_type_symbol
_atom_site_label
_atom_site_fract_x
_atom_site_fract_y
_atom_site_fract_z
Si Si1 0.402818 0.704359 0.802544
Si Si2 0.759898 0.828311 0.951680
Si Si3 0.500000 0.319159 0.750000
Si Si4 0.000000 0.513933 0.750000
Si Si5 0.516002 0.896281 0.147936
Si Si6 0.064945 0.587109 0.510600
Si Si7 0.687066 0.688300 0.527906
O O1 0.326068 0.766227 0.678509
O O2 0.255509 0.624657 0.692967
O O3 0.464385 0.798005 0.904031
O O4 0.560187 0.644847 0.913612
O O5 0.651058 0.935863 0.867728
O O6 0.750000 0.750000 0.000000
O O7 0.414588 0.370280 0.615447
O O8 0.341934 0.255862 0.637747
O O9 0.054654 0.587530 0.852002
O O10 0.435081 0.780827 0.053232
O O11 0.715041 0.884269 0.336543
O O12 0.455563 0.007596 0.062726
O O13 0.000000 0.500000 0.500000
#
# Coordination Sequence:
#
# PCOD9292648 Si02
#       7
#     8   8   4   4   8   8   8
#     4  10  22  44  66 100 137 168 226 302 333 411
#     4  11  18  35  64  99 139 180 214 271 353 419
#     4   8  13  30  48  81 118 174 187 254 320 361
#     4  12  19  32  64  93 136 180 219 264 348 433
#     4  11  22  39  59  94 127 181 224 277 337 416
#     4  11  25  47  71  94 130 177 234 287 356 402
#     4   9  18  33  55  79 135 165 219 267 314 384
#
# _framework density 21.521336000000002
#
# number of rings (size 3 to 8) (size 9 to 14) (size 15 to 20)
#    0.000    1.667    3.333    4.000    0.000    1.333 
#    9.000    3.333    0.000    0.000    0.000    0.000 
#    0.000    0.000    0.000    0.000    0.000    0.000 
#
# Total GULP energy -133614.864589 kJ/mol
# GULP energy per Si atom -5567.286025 kJ/mol
# Density = 2.147235 g / cm^3
# Si number density = 21.521336 Si / 1000 Ang^3
#
#
#
# Elastic Constant Matrix: (Units=GPa)
#
#
# Indices 1 2 3 4 5 6 
#
# 1 62.8671 28.9626 38.7529 0.0000 12.5968 0.0001
# 2 28.9626 86.2549 51.2251 0.0013 19.5834 0.0004
# 3 38.7529 51.2251 133.3132 0.0053 29.6965 0.0011
# 4 0.0000 0.0013 0.0053 45.6658 0.0003 5.9449
# 5 12.5968 19.5834 29.6965 0.0003 21.6835 0.0002
# 6 0.0001 0.0004 0.0011 5.9449 0.0002 42.5014
#
#
#
# Elastic Compliance Matrix: (Units=1/GPa)
#
#
# Indices 1 2 3 4 5 6 
#
# 1 0.020716 -0.003974 -0.003761 0.000001 -0.003295 0.000000
# 2 -0.003974 0.016855 -0.003518 0.000000 -0.008096 0.000000
# 3 -0.003761 -0.003518 0.012594 -0.000001 -0.011886 0.000000
# 4 0.000001 0.000000 -0.000001 0.022304 0.000001 -0.003120
# 5 -0.003295 -0.008096 -0.011886 0.000001 0.071622 0.000000
# 6 0.000000 0.000000 0.000000 -0.003120 0.000000 0.023965
#
#
# Mechanical properties :
#
#
# Convention : Reuss Voigt Hill
#
# Bulk Modulus (GPa) = 36.15481 57.81292 46.98387
# Shear Modulus (GPa) = 25.02720 32.86978 28.94849
#
# Velocity S-wave (km/s) = 3.41383 3.91232 3.67155
# Velocity P-wave (km/s) = 5.68990 6.87966 6.31287
#
# Compressibility (1/GPa) = 0.02765883
#
# Stress axis : x y z
#
# Youngs Moduli (GPa) = 48.27173 59.32804 79.40467
#
# Poissons Ratio (x) = 0.23580 0.29863
# Poissons Ratio (y) = 0.19186 0.27933
# Poissons Ratio (z) = 0.18155 0.20870
#
# Static dielectric constant tensor:
#      x y z
#    x 1.893170 0.000000 -0.058810 
#    y 0.000000 1.861600 0.000000 
#    z -0.058810 0.000000 1.956050 
# 
# From -- ./inp_files/282058.got.cif
#   From: 2010.05.17/outbox.cif.g08.bks.cpg/sg15_142_cif.got.tgz:282058.got - 2010.06.03 18:47:42.
