data_PCOD9292252
_publ_section_title
;
Structure prediction by ZEFSAII (Michael W. Deem and Ramdas Pophale) SiO2 
 PCOD9292252
Probable space group: C 2/C
;
_chemical_formula_sum "Si O2"
_cell_formula_units_Z 32
_cell_length_a 8.370775
_cell_length_b 19.191406
_cell_length_c 13.974644
_cell_angle_alpha 90.000000
_cell_angle_beta 142.311184
_cell_angle_gamma 90.000000
_cell_volume 1372.521557
_symmetry_space_group_name_H-M "C 2/C"
_symmetry_group_IT_number 15
_symmetry_cell_setting 'monoclinic'
loop_
_space_group_symop_operation_xyz
x,y,z
-x,y,1/2-z
-x,-y,-z
x,-y,1/2+z
1/2+x,1/2+y,z
1/2-x,1/2+y,1/2-z
1/2-x,1/2-y,-z
1/2+x,1/2-y,1/2+z
loop_
_atom_site_type_symbol
_atom_site_label
_atom_site_fract_x
_atom_site_fract_y
_atom_site_fract_z
Si Si1 0.760795 0.089990 0.063692
Si Si2 0.789105 0.684529 0.846104
Si Si3 0.460299 0.670785 0.969734
Si Si4 0.246477 0.964026 0.564660
O O1 0.000000 0.095258 0.250000
O O2 0.841089 0.133863 0.006822
O O3 0.495633 0.125544 0.973339
O O4 0.719167 0.009995 0.013502
O O5 0.500000 0.674476 0.750000
O O6 0.751051 0.683682 0.713246
O O7 0.903298 0.757817 0.935572
O O8 0.670875 0.616687 0.025354
O O9 0.500000 0.973008 0.750000
O O10 0.000000 0.000000 0.500000
#
# Coordination Sequence:
#
# PCOD9292252 Si02
#       4
#     8   8   8   8
#     4  11  24  45  72 105 141 188 239 291 353 425
#     4  12  25  43  70 106 143 185 234 294 358 422
#     4  11  24  45  70 103 144 188 235 294 353 422
#     4  10  22  43  68  96 136 183 229 285 347 411
#
# _framework density 23.314751999999999
#
# number of rings (size 3 to 8) (size 9 to 14) (size 15 to 20)
#    0.000    1.000    0.000    7.500    0.000    5.000 
#    0.000    7.500    0.000    0.000    0.000    0.000 
#    0.000    0.000    0.000    0.000    0.000    0.000 
#
# Total GULP energy -89649.407560 kJ/mol
# GULP energy per Si atom -5603.087973 kJ/mol
# Density = 2.326169 g / cm^3
# Si number density = 23.314752 Si / 1000 Ang^3
#
#
#
# Elastic Constant Matrix: (Units=GPa)
#
#
# Indices 1 2 3 4 5 6 
#
# 1 80.5680 58.2921 32.8202 -0.0011 4.6383 -0.0005
# 2 58.2921 180.1101 83.6349 0.0025 6.7464 0.0009
# 3 32.8202 83.6349 214.8654 0.0117 -8.9737 0.0056
# 4 -0.0011 0.0025 0.0117 14.0071 0.0036 -17.8251
# 5 4.6383 6.7464 -8.9737 0.0036 44.5427 0.0017
# 6 -0.0005 0.0009 0.0056 -17.8251 0.0017 26.7792
#
#
#
# Elastic Compliance Matrix: (Units=1/GPa)
#
#
# Indices 1 2 3 4 5 6 
#
# 1 0.016306 -0.004956 -0.000606 0.000025 -0.001070 0.000017
# 2 -0.004956 0.008394 -0.002563 0.000006 -0.001272 0.000004
# 3 -0.000606 -0.002563 0.005812 -0.000042 0.001622 -0.000029
# 4 0.000025 0.000006 -0.000042 0.466823 -0.000061 0.310732
# 5 -0.001070 -0.001272 0.001622 -0.000061 0.023081 -0.000043
# 6 0.000017 0.000004 -0.000029 0.310732 -0.000043 0.244176
#
#
# Mechanical properties :
#
#
# Convention : Reuss Voigt Hill
#
# Bulk Modulus (GPa) = 70.12056 91.67086 80.89571
# Shear Modulus (GPa) = 6.36458 37.11889 21.74174
#
# Velocity S-wave (km/s) = 1.65402 3.99441 3.05705
# Velocity P-wave (km/s) = 5.81280 7.78961 6.87265
#
# Compressibility (1/GPa) = 0.01426115
#
# Stress axis : x y z
#
# Youngs Moduli (GPa) = 61.32703 119.13176 172.04980
#
# Poissons Ratio (x) = 0.59039 0.10433
# Poissons Ratio (y) = 0.30392 0.44104
# Poissons Ratio (z) = 0.03719 0.30539
#
# Static dielectric constant tensor:
#      x y z
#    x 2.212110 0.000020 0.108850 
#    y 0.000020 1.851430 0.000000 
#    z 0.108850 0.000000 1.835520 
# 
# From -- ./inp_files/23236.got.cif
#   From: 2010.05.17/outbox.cif.g08.bks.cpg/sg15_12_cif.got.tgz:23236.got - 2010.06.03 18:47:42.
