data_PCOD9292122
_publ_section_title
;
Structure prediction by ZEFSAII (Michael W. Deem and Ramdas Pophale) SiO2 
 PCOD9292122
Probable space group: C 2/C
;
_chemical_formula_sum "Si O2"
_cell_formula_units_Z 52
_cell_length_a 15.173581
_cell_length_b 13.300995
_cell_length_c 11.707954
_cell_angle_alpha 90.000000
_cell_angle_beta 74.981012
_cell_angle_gamma 90.000000
_cell_volume 2282.224759
_symmetry_space_group_name_H-M "C 2/C"
_symmetry_group_IT_number 15
_symmetry_cell_setting 'monoclinic'
loop_
_space_group_symop_operation_xyz
x,y,z
-x,y,1/2-z
-x,-y,-z
x,-y,1/2+z
1/2+x,1/2+y,z
1/2-x,1/2+y,1/2-z
1/2-x,1/2-y,-z
1/2+x,1/2-y,1/2+z
loop_
_atom_site_type_symbol
_atom_site_label
_atom_site_fract_x
_atom_site_fract_y
_atom_site_fract_z
Si Si1 0.681937 0.201316 0.667573
Si Si2 0.398333 0.863598 0.753392
Si Si3 0.709473 0.893140 0.923465
Si Si4 0.560115 0.451768 0.880978
Si Si5 0.000000 0.779251 0.750000
Si Si6 0.231264 0.906304 0.975111
Si Si7 0.153933 0.140195 0.737914
O O1 0.666372 0.167727 0.542972
O O2 0.717877 0.315816 0.653521
O O3 0.583433 0.207766 0.753838
O O4 0.759057 0.138167 0.705710
O O5 0.500000 0.895369 0.750000
O O6 0.359088 0.919445 0.654785
O O7 0.325864 0.880292 0.880159
O O8 0.398627 0.744487 0.720652
O O9 0.755807 0.986490 0.967906
O O10 0.499321 0.360951 0.852070
O O11 0.652076 0.409453 0.907794
O O12 0.593999 0.540586 0.782757
O O13 0.500000 0.500000 0.000000
O O14 0.194395 0.845656 0.097020
#
# Coordination Sequence:
#
# PCOD9292122 Si02
#       7
#     8   8   8   8   4   8   8
#     4  10  22  43  66  97 139 181 221 285 354 415
#     4  11  27  43  66 100 138 187 232 287 352 421
#     4  10  22  43  68  90 134 183 226 284 344 417
#     4  12  25  41  72 109 138 179 231 297 359 416
#     4  12  26  40  68 112 132 176 242 286 344 438
#     4  12  24  45  72  99 138 185 236 290 351 420
#     4  11  24  45  69 100 144 182 230 293 364 419
#
# _framework density 22.784784999999999
#
# number of rings (size 3 to 8) (size 9 to 14) (size 15 to 20)
#    0.000    0.923    1.538    6.000    7.538    1.846 
#    1.385    0.000    0.000    0.000    0.000    0.000 
#    0.000    0.000    0.000    0.000    0.000    0.000 
#
# Total GULP energy -145273.701627 kJ/mol
# GULP energy per Si atom -5587.450063 kJ/mol
# Density = 2.273293 g / cm^3
# Si number density = 22.784785 Si / 1000 Ang^3
#
#
#
# Elastic Constant Matrix: (Units=GPa)
#
#
# Indices 1 2 3 4 5 6 
#
# 1 69.8806 6.9921 11.1931 0.0000 2.1866 0.0000
# 2 6.9921 33.4741 -3.6991 0.0000 2.5690 0.0000
# 3 11.1931 -3.6991 97.1475 0.0000 7.2986 0.0000
# 4 0.0000 0.0000 0.0000 23.3348 0.0000 8.8758
# 5 2.1866 2.5690 7.2986 0.0000 36.9254 0.0000
# 6 0.0000 0.0000 0.0000 8.8758 0.0000 11.6287
#
#
#
# Elastic Compliance Matrix: (Units=1/GPa)
#
#
# Indices 1 2 3 4 5 6 
#
# 1 0.014942 -0.003300 -0.001825 0.000000 -0.000294 0.000000
# 2 -0.003300 0.030931 0.001731 0.000000 -0.002299 0.000000
# 3 -0.001825 0.001731 0.010730 0.000000 -0.002133 0.000000
# 4 0.000000 0.000000 0.000000 0.060386 0.000000 -0.046090
# 5 -0.000294 -0.002299 -0.002133 0.000000 0.027681 0.000000
# 6 0.000000 0.000000 0.000000 -0.046090 0.000000 0.121173
#
#
# Mechanical properties :
#
#
# Convention : Reuss Voigt Hill
#
# Bulk Modulus (GPa) = 20.07482 25.49715 22.78598
# Shear Modulus (GPa) = 17.28695 26.77887 22.03291
#
# Velocity S-wave (km/s) = 2.75745 3.43198 3.11304
# Velocity P-wave (km/s) = 4.35520 5.18839 4.78995
#
# Compressibility (1/GPa) = 0.04981366
#
# Stress axis : x y z
#
# Youngs Moduli (GPa) = 66.92606 32.33022 93.19601
#
# Poissons Ratio (x) = 0.10669 0.17009
# Poissons Ratio (y) = 0.22087 -0.16129
# Poissons Ratio (z) = 0.12215 -0.05595
#
# Static dielectric constant tensor:
#      x y z
#    x 1.870870 0.000000 -0.002650 
#    y 0.000000 1.896830 0.000000 
#    z -0.002650 0.000000 1.900300 
# 
# From -- ./inp_files/96977.got.cif
#   From: 2010.05.17/outbox.cif.g08.bks.cpg/sg15_49_cif.got.tgz:96977.got - 2010.06.03 18:47:42.
