data_PCOD9292494
_publ_section_title
;
Structure prediction by ZEFSAII (Michael W. Deem and Ramdas Pophale) SiO2 
 PCOD9292494
Probable space group: C 2/C
;
_chemical_formula_sum "Si O2"
_cell_formula_units_Z 56
_cell_length_a 10.966244
_cell_length_b 33.099434
_cell_length_c 14.166909
_cell_angle_alpha 90.000000
_cell_angle_beta 32.272194
_cell_angle_gamma 90.000000
_cell_volume 2745.666101
_symmetry_space_group_name_H-M "C 2/C"
_symmetry_group_IT_number 15
_symmetry_cell_setting 'monoclinic'
loop_
_space_group_symop_operation_xyz
x,y,z
-x,y,1/2-z
-x,-y,-z
x,-y,1/2+z
1/2+x,1/2+y,z
1/2-x,1/2+y,1/2-z
1/2-x,1/2-y,-z
1/2+x,1/2-y,1/2+z
loop_
_atom_site_type_symbol
_atom_site_label
_atom_site_fract_x
_atom_site_fract_y
_atom_site_fract_z
Si Si1 0.317735 0.026041 0.060252
Si Si2 0.091774 0.299989 0.044403
Si Si3 0.578677 0.507783 0.555436
Si Si4 0.793628 0.345005 0.816630
Si Si5 0.619548 0.285515 0.459748
Si Si6 0.945453 0.383727 0.520705
Si Si7 0.025861 0.101689 0.841827
O O1 0.344308 0.073950 0.052267
O O2 0.306055 0.008514 0.960595
O O3 0.099202 0.016663 0.266055
O O4 0.500000 0.000000 0.000000
O O5 0.282131 0.292133 0.999395
O O6 0.833580 0.299343 0.255319
O O7 0.095958 0.263029 0.967667
O O8 0.144077 0.343872 0.971228
O O9 0.500000 0.500000 0.500000
O O10 0.543065 0.554926 0.600831
O O11 0.898785 0.371830 0.661342
O O12 0.000000 0.330673 0.750000
O O13 0.616373 0.309621 0.901315
O O14 0.634156 0.373717 0.984091
O O15 0.208249 0.389721 0.317945
O O16 0.000000 0.113506 0.750000
#
# Coordination Sequence:
#
# PCOD9292494 Si02
#       7
#     8   8   8   8   8   8   8
#     4  11  23  43  64  94 134 178 230 283 349 410
#     4  10  22  43  73  97 141 181 221 294 345 417
#     4  11  24  43  67  97 134 182 234 294 347 421
#     4  12  26  41  71 106 136 185 236 281 348 424
#     4  10  22  44  68 105 138 181 229 275 360 419
#     4  12  24  43  72  99 136 181 232 293 342 413
#     4  12  22  46  68  95 144 186 231 283 354 413
#
# _framework density 20.395779999999998
#
# number of rings (size 3 to 8) (size 9 to 14) (size 15 to 20)
#    0.000    0.857    5.714    1.714    0.000    5.714 
#    0.000    3.571    0.000    0.000    0.000    0.000 
#    0.000    0.000    0.000    0.000    0.000    0.000 
#
# Total GULP energy -156063.776298 kJ/mol
# GULP energy per Si atom -5573.706296 kJ/mol
# Density = 2.034936 g / cm^3
# Si number density = 20.395780 Si / 1000 Ang^3
#
#
#
# Elastic Constant Matrix: (Units=GPa)
#
#
# Indices 1 2 3 4 5 6 
#
# 1 130.4230 60.5861 49.3675 0.0000 5.4010 0.0000
# 2 60.5861 177.0189 37.8341 0.0000 -1.0946 0.0000
# 3 49.3675 37.8341 75.6381 0.0000 -4.3721 0.0000
# 4 0.0000 0.0000 0.0000 30.9633 0.0000 7.3827
# 5 5.4010 -1.0946 -4.3721 0.0000 33.1867 0.0000
# 6 0.0000 0.0000 0.0000 7.3827 0.0000 46.5645
#
#
#
# Elastic Compliance Matrix: (Units=1/GPa)
#
#
# Indices 1 2 3 4 5 6 
#
# 1 0.011350 -0.002558 -0.006288 0.000000 -0.002760 0.000000
# 2 -0.002558 0.006903 -0.001760 0.000000 0.000412 0.000000
# 3 -0.006288 -0.001760 0.018401 0.000000 0.003390 0.000000
# 4 0.000000 0.000000 0.000000 0.033565 0.000000 -0.005322
# 5 -0.002760 0.000412 0.003390 0.000000 0.031042 0.000000
# 6 0.000000 0.000000 0.000000 -0.005322 0.000000 0.022319
#
#
# Mechanical properties :
#
#
# Convention : Reuss Voigt Hill
#
# Bulk Modulus (GPa) = 64.75366 75.40616 70.07991
# Shear Modulus (GPa) = 33.34682 37.82905 35.58793
#
# Velocity S-wave (km/s) = 4.04788 4.31135 4.18169
# Velocity P-wave (km/s) = 7.32561 7.86355 7.59934
#
# Compressibility (1/GPa) = 0.01544314
#
# Stress axis : x y z
#
# Youngs Moduli (GPa) = 88.10615 144.86076 54.34460
#
# Poissons Ratio (x) = 0.37052 0.34172
# Poissons Ratio (y) = 0.22535 0.09563
# Poissons Ratio (z) = 0.55401 0.25492
#
# Static dielectric constant tensor:
#      x y z
#    x 1.580870 0.000000 0.033070 
#    y 0.000000 1.679550 0.000000 
#    z 0.033070 0.000000 1.751110 
# 
# From -- ./inp_files/149277.got.cif
#   From: 2010.05.17/outbox.cif.g08.bks.cpg/sg15_75_cif.got.tgz:149277.got - 2010.06.03 18:47:42.
