data_PCOD9292027
_publ_section_title
;
Structure prediction by ZEFSAII (Michael W. Deem and Ramdas Pophale) SiO2 
 PCOD9292027
Probable space group: C 2/C
;
_chemical_formula_sum "Si O2"
_cell_formula_units_Z 36
_cell_length_a 7.256078
_cell_length_b 13.006323
_cell_length_c 16.615248
_cell_angle_alpha 90.000000
_cell_angle_beta 76.146441
_cell_angle_gamma 90.000000
_cell_volume 1522.448719
_symmetry_space_group_name_H-M "C 2/C"
_symmetry_group_IT_number 15
_symmetry_cell_setting 'monoclinic'
loop_
_space_group_symop_operation_xyz
x,y,z
-x,y,1/2-z
-x,-y,-z
x,-y,1/2+z
1/2+x,1/2+y,z
1/2-x,1/2+y,1/2-z
1/2-x,1/2-y,-z
1/2+x,1/2-y,1/2+z
loop_
_atom_site_type_symbol
_atom_site_label
_atom_site_fract_x
_atom_site_fract_y
_atom_site_fract_z
Si Si1 0.220321 0.627477 0.721851
Si Si2 0.000000 0.037478 0.250000
Si Si3 0.246707 0.244454 0.381543
Si Si4 0.170985 0.191827 0.108576
Si Si5 0.953989 0.384252 0.980387
O O1 0.369302 0.535684 0.708539
O O2 0.269421 0.702066 0.792725
O O3 0.222328 0.700387 0.644707
O O4 0.000000 0.592266 0.750000
O O5 0.142669 0.107751 0.183161
O O6 0.214752 0.339177 0.446756
O O7 0.393032 0.159407 0.398511
O O8 0.039760 0.193492 0.404005
O O9 0.337921 0.163706 0.031663
O O10 0.000000 0.500000 0.000000
#
# Coordination Sequence:
#
# PCOD9292027 Si02
#       5
#     8   4   8   8   8
#     4  10  22  43  65  93 128 166 217 271 318 378
#     4  12  22  38  66  94 126 170 212 260 330 376
#     4  10  22  44  61  91 132 165 213 271 314 375
#     4  11  23  42  63  95 129 165 216 269 317 380
#     4  11  24  39  64  93 126 174 214 255 325 386
#
# _framework density 23.646118000000001
#
# number of rings (size 3 to 8) (size 9 to 14) (size 15 to 20)
#    0.000    1.333    3.333    3.333    0.000    8.000 
#    2.000    0.000    0.000    0.000    0.000    0.000 
#    0.000    0.000    0.000    0.000    0.000    0.000 
#
# Total GULP energy -100540.446091 kJ/mol
# GULP energy per Si atom -5585.580338 kJ/mol
# Density = 2.359230 g / cm^3
# Si number density = 23.646118 Si / 1000 Ang^3
#
#
#
# Elastic Constant Matrix: (Units=GPa)
#
#
# Indices 1 2 3 4 5 6 
#
# 1 81.0683 46.3597 10.8537 0.0000 11.1865 0.0000
# 2 46.3597 111.5722 8.3046 0.0000 5.9980 0.0000
# 3 10.8537 8.3046 58.5640 0.0000 5.3912 0.0000
# 4 0.0000 0.0000 0.0000 7.1970 0.0000 4.4842
# 5 11.1865 5.9980 5.3912 0.0000 36.6297 0.0000
# 6 0.0000 0.0000 0.0000 4.4842 0.0000 50.0775
#
#
#
# Elastic Compliance Matrix: (Units=1/GPa)
#
#
# Indices 1 2 3 4 5 6 
#
# 1 0.016935 -0.006695 -0.001839 0.000000 -0.003805 0.000000
# 2 -0.006695 0.011768 -0.000445 0.000000 0.000183 0.000000
# 3 -0.001839 -0.000445 0.017660 0.000000 -0.001965 0.000000
# 4 0.000000 0.000000 0.000000 0.147157 0.000000 -0.013177
# 5 -0.003805 0.000183 -0.001965 0.000000 0.028721 0.000000
# 6 0.000000 0.000000 0.000000 -0.013177 0.000000 0.021149
#
#
# Mechanical properties :
#
#
# Convention : Reuss Voigt Hill
#
# Bulk Modulus (GPa) = 35.20470 42.47116 38.83793
# Shear Modulus (GPa) = 18.46264 31.15995 24.81129
#
# Velocity S-wave (km/s) = 2.79729 3.63404 3.24277
# Velocity P-wave (km/s) = 5.03524 5.96728 5.52096
#
# Compressibility (1/GPa) = 0.02840530
#
# Stress axis : x y z
#
# Youngs Moduli (GPa) = 59.04802 84.97553 56.62489
#
# Poissons Ratio (x) = 0.56895 0.10413
# Poissons Ratio (y) = 0.39535 0.02518
# Poissons Ratio (z) = 0.10859 0.03779
#
# Static dielectric constant tensor:
#      x y z
#    x 1.935940 0.000000 0.046570 
#    y 0.000000 1.938420 0.000000 
#    z 0.046570 0.000000 2.002180 
# 
# From -- ./inp_files/187674.got.cif
#   From: 2010.05.17/outbox.cif.g08.bks.cpg/sg15_94_cif.got.tgz:187674.got - 2010.06.03 18:47:42.
