data_PCOD9292533
_publ_section_title
;
Structure prediction by ZEFSAII (Michael W. Deem and Ramdas Pophale) SiO2 
 PCOD9292533
Probable space group: C 2/C
;
_chemical_formula_sum "Si O2"
_cell_formula_units_Z 64
_cell_length_a 13.411402
_cell_length_b 11.665652
_cell_length_c 15.954537
_cell_angle_alpha 90.000000
_cell_angle_beta 110.524878
_cell_angle_gamma 90.000000
_cell_volume 2337.676859
_symmetry_space_group_name_H-M "C 2/C"
_symmetry_group_IT_number 15
_symmetry_cell_setting 'monoclinic'
loop_
_space_group_symop_operation_xyz
x,y,z
-x,y,1/2-z
-x,-y,-z
x,-y,1/2+z
1/2+x,1/2+y,z
1/2-x,1/2+y,1/2-z
1/2-x,1/2-y,-z
1/2+x,1/2-y,1/2+z
loop_
_atom_site_type_symbol
_atom_site_label
_atom_site_fract_x
_atom_site_fract_y
_atom_site_fract_z
Si Si1 0.980195 0.891556 0.439920
Si Si2 0.406906 0.227314 0.915863
Si Si3 0.843202 0.598622 0.060199
Si Si4 0.385674 0.304280 0.171419
Si Si5 0.737580 0.125211 0.042828
Si Si6 0.085579 0.473063 0.638653
Si Si7 0.759467 0.918874 0.282432
Si Si8 0.623630 0.702811 0.271019
O O1 0.994807 0.787964 0.509116
O O2 0.867068 0.914378 0.365979
O O3 0.071146 0.870762 0.397258
O O4 0.000000 0.000000 0.500000
O O5 0.369975 0.311459 0.828960
O O6 0.339866 0.173412 0.973835
O O7 0.436186 0.107958 0.880736
O O8 0.823388 0.689902 0.126807
O O9 0.967896 0.573465 0.115121
O O10 0.775460 0.482651 0.026028
O O11 0.500000 0.277943 0.250000
O O12 0.307851 0.376294 0.207423
O O13 0.637360 0.093483 0.075057
O O14 0.830812 0.122209 0.141494
O O15 0.750000 0.250000 0.000000
O O16 0.178153 0.478147 0.736602
O O17 0.687907 0.819853 0.301581
O O18 0.500000 0.713601 0.250000
#
# Coordination Sequence:
#
# PCOD9292533 Si02
#       8
#     8   8   8   8   8   8   8   8
#     4  10  22  43  78 118 159 205 261 324 397 492
#     4   9  21  45  73 102 149 197 251 317 382 460
#     4  10  22  46  84 109 147 204 262 327 388 479
#     4   9  21  47  79 111 156 206 267 322 390 481
#     4  11  26  44  74 112 153 194 258 327 409 456
#     4  10  23  44  77 105 154 197 254 318 395 462
#     4  10  24  48  77 111 158 211 255 323 405 470
#     4  11  27  45  73 104 158 205 256 327 393 475
#
# _framework density 27.377607000000001
#
# number of rings (size 3 to 8) (size 9 to 14) (size 15 to 20)
#    0.000    2.000    0.000    1.500   14.000    0.000 
#    9.000   15.625    0.000    0.000    0.000    0.000 
#    0.000    0.000    0.000    0.000    0.000    0.000 
#
# Total GULP energy -178840.560740 kJ/mol
# GULP energy per Si atom -5588.767523 kJ/mol
# Density = 2.731529 g / cm^3
# Si number density = 27.377607 Si / 1000 Ang^3
#
#
#
# Elastic Constant Matrix: (Units=GPa)
#
#
# Indices 1 2 3 4 5 6 
#
# 1 158.3415 64.1310 70.9985 0.0000 16.9274 0.0000
# 2 64.1310 168.8764 104.9059 0.0000 16.1449 0.0000
# 3 70.9985 104.9059 201.4101 0.0000 25.5287 0.0000
# 4 0.0000 0.0000 0.0000 62.8771 0.0000 5.4420
# 5 16.9274 16.1449 25.5287 0.0000 39.4969 0.0000
# 6 0.0000 0.0000 0.0000 5.4420 0.0000 34.8804
#
#
#
# Elastic Compliance Matrix: (Units=1/GPa)
#
#
# Indices 1 2 3 4 5 6 
#
# 1 0.007974 -0.001855 -0.001642 0.000000 -0.001598 0.000000
# 2 -0.001855 0.009203 -0.004099 0.000000 -0.000317 0.000000
# 3 -0.001642 -0.004099 0.008036 0.000000 -0.002815 0.000000
# 4 0.000000 0.000000 0.000000 0.016122 0.000000 -0.002515
# 5 -0.001598 -0.000317 -0.002815 0.000000 0.027952 0.000000
# 6 0.000000 0.000000 0.000000 -0.002515 0.000000 0.029062
#
#
# Mechanical properties :
#
#
# Convention : Reuss Voigt Hill
#
# Bulk Modulus (GPa) = 99.80625 112.07766 105.94196
# Shear Modulus (GPa) = 42.77871 46.69037 44.73454
#
# Velocity S-wave (km/s) = 3.95719 4.13416 4.04664
# Velocity P-wave (km/s) = 7.57718 7.98842 7.78552
#
# Compressibility (1/GPa) = 0.01001941
#
# Stress axis : x y z
#
# Youngs Moduli (GPa) = 125.40795 108.66321 124.44657
#
# Poissons Ratio (x) = 0.20161 0.20434
# Poissons Ratio (y) = 0.23268 0.51012
# Poissons Ratio (z) = 0.20592 0.44542
#
# Static dielectric constant tensor:
#      x y z
#    x 1.181040 0.000000 -0.862240 
#    y 0.000000 2.243610 0.000000 
#    z -0.862240 0.000000 1.478860 
# 
# From -- ./inp_files/205427.got.cif
#   From: 2010.05.17/outbox.cif.g08.bks.cpg/sg15_103_cif.got.tgz:205427.got - 2010.06.03 18:47:42.
