data_PCOD9292937
_publ_section_title
;
Structure prediction by ZEFSAII (Michael W. Deem and Ramdas Pophale) SiO2 
 PCOD9292937
Probable space group: C 2/C
;
_chemical_formula_sum "Si O2"
_cell_formula_units_Z 44
_cell_length_a 12.118970
_cell_length_b 8.136169
_cell_length_c 18.720228
_cell_angle_alpha 90.000000
_cell_angle_beta 89.624828
_cell_angle_gamma 90.000000
_cell_volume 1845.812126
_symmetry_space_group_name_H-M "C 2/C"
_symmetry_group_IT_number 15
_symmetry_cell_setting 'monoclinic'
loop_
_space_group_symop_operation_xyz
x,y,z
-x,y,1/2-z
-x,-y,-z
x,-y,1/2+z
1/2+x,1/2+y,z
1/2-x,1/2+y,1/2-z
1/2-x,1/2-y,-z
1/2+x,1/2-y,1/2+z
loop_
_atom_site_type_symbol
_atom_site_label
_atom_site_fract_x
_atom_site_fract_y
_atom_site_fract_z
Si Si1 0.816530 0.405914 0.340372
Si Si2 0.000000 0.828884 0.250000
Si Si3 0.283992 0.470031 0.799884
Si Si4 0.989352 0.367110 0.884650
Si Si5 0.652965 0.350202 0.464555
Si Si6 0.696212 0.638267 0.561216
O O1 0.793950 0.507495 0.268215
O O2 0.812382 0.216445 0.317959
O O3 0.935707 0.453940 0.374181
O O4 0.712683 0.429448 0.394817
O O5 0.039956 0.708911 0.312853
O O6 0.898655 0.940513 0.277034
O O7 0.237296 0.549720 0.874387
O O8 0.877706 0.265822 0.896704
O O9 0.064435 0.290519 0.946457
O O10 0.750000 0.250000 0.500000
O O11 0.627387 0.495710 0.520564
O O12 0.750000 0.750000 0.500000
#
# Coordination Sequence:
#
# PCOD9292937 Si02
#       6
#     8   4   8   8   8   8
#     4  12  25  46  72 106 145 198 245 311 370 449
#     4  10  22  44  70 102 138 188 244 310 354 450
#     4  11  24  45  72 105 146 192 252 304 376 439
#     4  11  25  44  73 100 145 190 246 300 380 435
#     4  12  25  47  70 107 148 186 248 306 373 448
#     4  11  23  45  74 106 143 198 239 309 376 446
#
# _framework density 23.837745000000002
#
# number of rings (size 3 to 8) (size 9 to 14) (size 15 to 20)
#    0.000    0.727    5.455    2.727    0.000    1.455 
#    0.000    0.000    0.000    0.000    0.000    0.000 
#    0.000    0.000    0.000    0.000    0.000    0.000 
#
# Total GULP energy -122811.811173 kJ/mol
# GULP energy per Si atom -5582.355053 kJ/mol
# Density = 2.378349 g / cm^3
# Si number density = 23.837745 Si / 1000 Ang^3
#
#
#
# Elastic Constant Matrix: (Units=GPa)
#
#
# Indices 1 2 3 4 5 6 
#
# 1 33.8686 13.6868 -2.6971 0.0000 18.9336 0.0000
# 2 13.6868 100.0474 31.2529 0.0000 6.8985 0.0000
# 3 -2.6971 31.2529 121.2953 0.0000 8.4171 0.0000
# 4 0.0000 0.0000 0.0000 50.6238 0.0000 5.1898
# 5 18.9336 6.8985 8.4171 0.0000 46.3193 0.0000
# 6 0.0000 0.0000 0.0000 5.1898 0.0000 36.5874
#
#
#
# Elastic Compliance Matrix: (Units=1/GPa)
#
#
# Indices 1 2 3 4 5 6 
#
# 1 0.041437 -0.005617 0.003530 0.000000 -0.016743 0.000000
# 2 -0.005617 0.011690 -0.003216 0.000000 0.001139 0.000000
# 3 0.003530 -0.003216 0.009336 0.000000 -0.002661 0.000000
# 4 0.000000 0.000000 0.000000 0.020045 0.000000 -0.002843
# 5 -0.016743 0.001139 -0.002661 0.000000 0.028747 0.000000
# 6 0.000000 0.000000 0.000000 -0.002843 0.000000 0.027735
#
#
# Mechanical properties :
#
#
# Convention : Reuss Voigt Hill
#
# Bulk Modulus (GPa) = 19.28364 37.74405 28.51384
# Shear Modulus (GPa) = 29.96159 40.90400 35.43279
#
# Velocity S-wave (km/s) = 3.54912 4.14688 3.85959
# Velocity P-wave (km/s) = 4.99020 6.22872 5.64354
#
# Compressibility (1/GPa) = 0.05185743
#
# Stress axis : x y z
#
# Youngs Moduli (GPa) = 24.13324 85.54522 107.11108
#
# Poissons Ratio (x) = 0.48051 -0.37815
# Poissons Ratio (y) = 0.13556 0.34446
# Poissons Ratio (z) = -0.08520 0.27511
#
# Static dielectric constant tensor:
#      x y z
#    x 1.954000 0.000000 -0.033490 
#    y 0.000000 1.951050 0.000000 
#    z -0.033490 0.000000 2.096510 
# 
# From -- ./inp_files/236125.got.cif
#   From: 2010.05.17/outbox.cif.g08.bks.cpg/sg15_119_cif.got.tgz:236125.got - 2010.06.03 18:47:42.
