data_PCOD9292349
_publ_section_title
;
Structure prediction by ZEFSAII (Michael W. Deem and Ramdas Pophale) SiO2 
 PCOD9292349
Probable space group: C 2/C
;
_chemical_formula_sum "Si O2"
_cell_formula_units_Z 48
_cell_length_a 25.218325
_cell_length_b 8.897866
_cell_length_c 14.281155
_cell_angle_alpha 90.000000
_cell_angle_beta 38.407233
_cell_angle_gamma 90.000000
_cell_volume 1990.808709
_symmetry_space_group_name_H-M "C 2/C"
_symmetry_group_IT_number 15
_symmetry_cell_setting 'monoclinic'
loop_
_space_group_symop_operation_xyz
x,y,z
-x,y,1/2-z
-x,-y,-z
x,-y,1/2+z
1/2+x,1/2+y,z
1/2-x,1/2+y,1/2-z
1/2-x,1/2-y,-z
1/2+x,1/2-y,1/2+z
loop_
_atom_site_type_symbol
_atom_site_label
_atom_site_fract_x
_atom_site_fract_y
_atom_site_fract_z
Si Si1 0.299079 0.121551 0.987932
Si Si2 0.127128 0.526912 0.282786
Si Si3 0.006088 0.755231 0.981913
Si Si4 0.106507 0.153938 0.023415
Si Si5 0.728409 0.911461 0.319890
Si Si6 0.081151 0.178408 0.574028
O O1 0.321553 0.994742 0.882328
O O2 0.250000 0.250000 0.000000
O O3 0.379021 0.205798 0.927106
O O4 0.245829 0.038089 0.141348
O O5 0.077933 0.681826 0.355895
O O6 0.180231 0.496616 0.302471
O O7 0.061491 0.387286 0.373169
O O8 0.975656 0.835293 0.929774
O O9 0.053451 0.834248 0.002389
O O10 0.189748 0.159119 0.841834
O O11 0.106227 0.989796 0.071287
O O12 0.660772 0.794289 0.459071
O O13 0.000000 0.229123 0.750000
#
# Coordination Sequence:
#
# PCOD9292349 Si02
#       6
#     8   8   8   8   8   8
#     4  12  25  42  74 104 135 183 247 289 350 429
#     4  10  22  43  70 101 134 184 240 288 352 427
#     4  10  23  44  69  97 142 185 226 294 365 420
#     4  12  25  43  73 104 144 185 238 303 360 417
#     4  11  24  47  71  99 148 189 235 294 360 431
#     4  11  26  45  68 106 145 186 237 294 364 435
#
# _framework density 24.110806
#
# number of rings (size 3 to 8) (size 9 to 14) (size 15 to 20)
#    0.000    1.000    3.333    2.500    4.667    1.333 
#    0.000    2.500    0.000    0.000    0.000    0.000 
#    0.000    0.000    0.000    0.000    0.000    0.000 
#
# Total GULP energy -134258.130526 kJ/mol
# GULP energy per Si atom -5594.088772 kJ/mol
# Density = 2.405593 g / cm^3
# Si number density = 24.110806 Si / 1000 Ang^3
#
#
#
# Elastic Constant Matrix: (Units=GPa)
#
#
# Indices 1 2 3 4 5 6 
#
# 1 64.3221 9.5421 7.1292 -0.0011 11.4836 0.0004
# 2 9.5421 60.8556 4.7971 -0.0013 9.5298 0.0004
# 3 7.1292 4.7971 102.6927 -0.0007 5.0665 0.0003
# 4 -0.0011 -0.0013 -0.0007 20.1596 0.0010 5.0383
# 5 11.4836 9.5298 5.0665 0.0010 31.4196 -0.0004
# 6 0.0004 0.0004 0.0003 5.0383 -0.0004 40.0560
#
#
#
# Elastic Compliance Matrix: (Units=1/GPa)
#
#
# Indices 1 2 3 4 5 6 
#
# 1 0.016877 -0.001718 -0.000819 0.000001 -0.005515 0.000000
# 2 -0.001718 0.017458 -0.000470 0.000001 -0.004591 0.000000
# 3 -0.000819 -0.000470 0.009873 0.000000 -0.001150 0.000000
# 4 0.000001 0.000001 0.000000 0.051214 -0.000003 -0.006442
# 5 -0.005515 -0.004591 -0.001150 -0.000003 0.035421 0.000001
# 6 0.000000 0.000000 0.000000 -0.006442 0.000001 0.025775
#
#
# Mechanical properties :
#
#
# Convention : Reuss Voigt Hill
#
# Bulk Modulus (GPa) = 26.18206 30.08968 28.13587
# Shear Modulus (GPa) = 28.51210 32.08718 30.29964
#
# Velocity S-wave (km/s) = 3.44255 3.65200 3.54882
# Velocity P-wave (km/s) = 5.16567 5.50360 5.33731
#
# Compressibility (1/GPa) = 0.03819409
#
# Stress axis : x y z
#
# Youngs Moduli (GPa) = 59.25187 57.28111 101.28271
#
# Poissons Ratio (x) = 0.09841 0.08298
# Poissons Ratio (y) = 0.10180 0.04757
# Poissons Ratio (z) = 0.04855 0.02691
#
# Static dielectric constant tensor:
#      x y z
#    x 1.935810 0.000000 -0.018760 
#    y 0.000000 1.924100 0.000000 
#    z -0.018760 0.000000 1.953130 
# 
# From -- ./inp_files/180715.got.cif
#   From: 2010.05.17/outbox.cif.g08.bks.cpg/sg15_91_cif.got.tgz:180715.got - 2010.06.03 18:47:42.
