data_PCOD9292868
_publ_section_title
;
Structure prediction by ZEFSAII (Michael W. Deem and Ramdas Pophale) SiO2 
 PCOD9292868
Probable space group: C 2/C
;
_chemical_formula_sum "Si O2"
_cell_formula_units_Z 32
_cell_length_a 19.004155
_cell_length_b 7.372904
_cell_length_c 19.894218
_cell_angle_alpha 90.000000
_cell_angle_beta 155.277132
_cell_angle_gamma 90.000000
_cell_volume 1165.812829
_symmetry_space_group_name_H-M "C 2/C"
_symmetry_group_IT_number 15
_symmetry_cell_setting 'monoclinic'
loop_
_space_group_symop_operation_xyz
x,y,z
-x,y,1/2-z
-x,-y,-z
x,-y,1/2+z
1/2+x,1/2+y,z
1/2-x,1/2+y,1/2-z
1/2-x,1/2-y,-z
1/2+x,1/2-y,1/2+z
loop_
_atom_site_type_symbol
_atom_site_label
_atom_site_fract_x
_atom_site_fract_y
_atom_site_fract_z
Si Si1 0.765059 0.637519 0.170823
Si Si2 0.303912 0.968547 0.849439
Si Si3 0.887117 0.983279 0.095975
Si Si4 0.080097 0.622946 0.915988
O O1 0.779227 0.852795 0.191943
O O2 0.710846 0.584021 0.200112
O O3 0.928096 0.515224 0.296883
O O4 0.645639 0.609164 0.003493
O O5 0.500000 0.000000 0.000000
O O6 0.326370 0.835601 0.931782
O O7 0.968830 0.179845 0.152759
O O8 0.000000 0.884268 0.250000
O O9 0.708998 0.029731 0.976393
#
# Coordination Sequence:
#
# PCOD9292868 Si02
#       4
#     8   8   8   8
#     4  11  23  45  73 102 143 185 235 292 348 418
#     4  10  24  45  72 103 137 183 239 296 351 414
#     4  11  23  41  72 106 143 186 228 283 350 423
#     4  10  22  44  69 103 141 183 234 285 352 419
#
# _framework density 27.448658999999999
#
# number of rings (size 3 to 8) (size 9 to 14) (size 15 to 20)
#    0.000    1.500    0.000    5.250    0.000    7.000 
#    0.000   12.500    0.000    0.000    0.000    0.000 
#    0.000    0.000    0.000    0.000    0.000    0.000 
#
# Total GULP energy -89722.050207 kJ/mol
# GULP energy per Si atom -5607.628138 kJ/mol
# Density = 2.738619 g / cm^3
# Si number density = 27.448659 Si / 1000 Ang^3
#
#
#
# Elastic Constant Matrix: (Units=GPa)
#
#
# Indices 1 2 3 4 5 6 
#
# 1 154.2599 25.3625 79.6853 -0.0001 -62.9097 0.0000
# 2 25.3625 81.4262 28.7460 -0.0001 -13.0005 0.0000
# 3 79.6853 28.7460 141.7127 -0.0004 -30.6203 -0.0001
# 4 -0.0001 -0.0001 -0.0004 43.5598 -0.0001 -3.3410
# 5 -62.9097 -13.0005 -30.6203 -0.0001 93.2887 0.0000
# 6 0.0000 0.0000 -0.0001 -3.3410 0.0000 38.8783
#
#
#
# Elastic Compliance Matrix: (Units=1/GPa)
#
#
# Indices 1 2 3 4 5 6 
#
# 1 0.011772 -0.000881 -0.005115 0.000000 0.006137 0.000000
# 2 -0.000881 0.013388 -0.002094 0.000000 0.000584 0.000000
# 3 -0.005115 -0.002094 0.010278 0.000000 -0.000367 0.000000
# 4 0.000000 0.000000 0.000000 0.023109 0.000000 0.001986
# 5 0.006137 0.000584 -0.000367 0.000000 0.014819 0.000000
# 6 0.000000 0.000000 0.000000 0.001986 0.000000 0.025892
#
#
# Mechanical properties :
#
#
# Convention : Reuss Voigt Hill
#
# Bulk Modulus (GPa) = 51.92574 71.66515 61.79544
# Shear Modulus (GPa) = 41.03135 51.38569 46.20852
#
# Velocity S-wave (km/s) = 3.87051 4.33143 4.10744
# Velocity P-wave (km/s) = 6.23963 7.15406 6.71243
#
# Compressibility (1/GPa) = 0.01925827
#
# Stress axis : x y z
#
# Youngs Moduli (GPa) = 84.94431 74.69342 97.29563
#
# Poissons Ratio (x) = 0.06583 0.49765
# Poissons Ratio (y) = 0.07486 0.20373
# Poissons Ratio (z) = 0.43447 0.15640
#
# Static dielectric constant tensor:
#      x y z
#    x 2.153010 0.000000 -0.006810 
#    y 0.000000 2.058230 0.000000 
#    z -0.006810 0.000000 2.171550 
# 
# From -- ./inp_files/247716.got.cif
#   From: 2010.05.17/outbox.cif.g08.bks.cpg/sg15_124_cif.got.tgz:247716.got - 2010.06.03 18:47:42.
