data_PCOD9292597
_publ_section_title
;
Structure prediction by ZEFSAII (Michael W. Deem and Ramdas Pophale) SiO2 
 PCOD9292597
Probable space group: C 2/C
;
_chemical_formula_sum "Si O2"
_cell_formula_units_Z 56
_cell_length_a 16.098048
_cell_length_b 10.148960
_cell_length_c 20.035821
_cell_angle_alpha 90.000000
_cell_angle_beta 124.774562
_cell_angle_gamma 90.000000
_cell_volume 2688.796465
_symmetry_space_group_name_H-M "C 2/C"
_symmetry_group_IT_number 15
_symmetry_cell_setting 'monoclinic'
loop_
_space_group_symop_operation_xyz
x,y,z
-x,y,1/2-z
-x,-y,-z
x,-y,1/2+z
1/2+x,1/2+y,z
1/2-x,1/2+y,1/2-z
1/2-x,1/2-y,-z
1/2+x,1/2-y,1/2+z
loop_
_atom_site_type_symbol
_atom_site_label
_atom_site_fract_x
_atom_site_fract_y
_atom_site_fract_z
Si Si1 0.529698 0.540318 0.937306
Si Si2 0.157261 0.017233 0.749946
Si Si3 0.809862 0.248778 0.296590
Si Si4 0.488601 0.134169 0.675184
Si Si5 0.851526 0.107762 0.113436
Si Si6 0.072851 0.291687 0.022091
Si Si7 0.878866 0.580271 0.494718
O O1 0.438588 0.522413 0.843142
O O2 0.616947 0.453767 0.943147
O O3 0.563899 0.692289 0.957055
O O4 0.500000 0.500000 0.000000
O O5 0.217478 0.885302 0.754014
O O6 0.131738 0.989846 0.815799
O O7 0.220532 0.148760 0.766890
O O8 0.862050 0.219147 0.391434
O O9 0.901316 0.320857 0.299245
O O10 0.500000 0.060504 0.750000
O O11 0.421457 0.265258 0.656462
O O12 0.428851 0.060624 0.590031
O O13 0.732580 0.138817 0.056573
O O14 0.959276 0.326622 0.994206
O O15 0.123521 0.434345 0.037034
#
# Coordination Sequence:
#
# PCOD9292597 Si02
#       7
#     8   8   8   8   8   8   8
#     4  12  24  42  69  97 135 180 229 277 340 418
#     4  12  25  43  71 103 133 184 231 287 346 407
#     4  11  23  44  69  97 137 180 227 287 342 405
#     4  11  21  40  65  96 135 172 230 283 332 403
#     4  12  23  44  70  98 135 181 232 284 341 403
#     4  10  22  44  64  96 139 176 224 279 350 402
#     4  10  23  40  68  97 134 181 221 285 342 402
#
# _framework density 20.827162999999999
#
# number of rings (size 3 to 8) (size 9 to 14) (size 15 to 20)
#    0.000    0.857    5.714    1.714    2.000    1.714 
#    0.000    1.429    0.000    0.000    0.000    0.000 
#    0.000    0.000    0.000    0.000    0.000    0.000 
#
# Total GULP energy -156418.317618 kJ/mol
# GULP energy per Si atom -5586.368486 kJ/mol
# Density = 2.077976 g / cm^3
# Si number density = 20.827163 Si / 1000 Ang^3
#
#
#
# Elastic Constant Matrix: (Units=GPa)
#
#
# Indices 1 2 3 4 5 6 
#
# 1 69.3333 8.5708 1.0449 0.0000 1.3511 0.0000
# 2 8.5708 49.1683 -6.1734 0.0000 -3.3125 0.0000
# 3 1.0449 -6.1734 45.7162 0.0000 -24.3098 0.0000
# 4 0.0000 0.0000 0.0000 39.5279 0.0000 -2.0379
# 5 1.3511 -3.3125 -24.3098 0.0000 31.5616 0.0000
# 6 0.0000 0.0000 0.0000 -2.0379 0.0000 18.4980
#
#
#
# Elastic Compliance Matrix: (Units=1/GPa)
#
#
# Indices 1 2 3 4 5 6 
#
# 1 0.014881 -0.003037 -0.002131 0.000000 -0.002597 0.000000
# 2 -0.003037 0.022359 0.007462 0.000000 0.008224 0.000000
# 3 -0.002131 0.007462 0.039625 0.000000 0.031395 0.000000
# 4 0.000000 0.000000 0.000000 0.025443 0.000000 0.002803
# 5 -0.002597 0.008224 0.031395 0.000000 0.056840 0.000000
# 6 0.000000 0.000000 0.000000 0.002803 0.000000 0.054369
#
#
# Mechanical properties :
#
#
# Convention : Reuss Voigt Hill
#
# Bulk Modulus (GPa) = 12.27719 19.01139 15.64429
# Shear Modulus (GPa) = 21.17937 28.63589 24.90763
#
# Velocity S-wave (km/s) = 3.19236 3.71203 3.46196
# Velocity P-wave (km/s) = 4.41541 5.24597 4.84851
#
# Compressibility (1/GPa) = 0.08145187
#
# Stress axis : x y z
#
# Youngs Moduli (GPa) = 67.19890 44.72562 25.23681
#
# Poissons Ratio (x) = 0.13581 0.05379
# Poissons Ratio (y) = 0.20406 -0.18831
# Poissons Ratio (z) = 0.14323 -0.33373
#
# Static dielectric constant tensor:
#      x y z
#    x 1.752550 0.000000 -0.023680 
#    y 0.000000 1.759120 0.000000 
#    z -0.023680 0.000000 1.785040 
# 
# From -- ./inp_files/204532.got.cif
#   From: 2010.05.17/outbox.cif.g08.bks.cpg/sg15_103_cif.got.tgz:204532.got - 2010.06.03 18:47:42.
