data_PCOD9292253
_publ_section_title
;
Structure prediction by ZEFSAII (Michael W. Deem and Ramdas Pophale) SiO2 
 PCOD9292253
Probable space group: C 2/C
;
_chemical_formula_sum "Si O2"
_cell_formula_units_Z 44
_cell_length_a 8.322974
_cell_length_b 19.737514
_cell_length_c 11.315590
_cell_angle_alpha 90.000000
_cell_angle_beta 79.119877
_cell_angle_gamma 90.000000
_cell_volume 1825.451953
_symmetry_space_group_name_H-M "C 2/C"
_symmetry_group_IT_number 15
_symmetry_cell_setting 'monoclinic'
loop_
_space_group_symop_operation_xyz
x,y,z
-x,y,1/2-z
-x,-y,-z
x,-y,1/2+z
1/2+x,1/2+y,z
1/2-x,1/2+y,1/2-z
1/2-x,1/2-y,-z
1/2+x,1/2-y,1/2+z
loop_
_atom_site_type_symbol
_atom_site_label
_atom_site_fract_x
_atom_site_fract_y
_atom_site_fract_z
Si Si1 0.000000 0.393281 0.750000
Si Si2 0.683591 0.369618 0.234152
Si Si3 0.807480 0.453746 0.422067
Si Si4 0.323499 0.748018 0.349729
Si Si5 0.114307 0.605801 0.007912
Si Si6 0.671023 0.587771 0.170561
O O1 0.845801 0.432108 0.707620
O O2 0.072820 0.352048 0.630176
O O3 0.500000 0.391625 0.250000
O O4 0.773209 0.428218 0.296502
O O5 0.704699 0.300436 0.302120
O O6 0.751699 0.363409 0.093464
O O7 0.840260 0.532278 0.444241
O O8 0.667458 0.434240 0.534831
O O9 0.959006 0.408513 0.447322
O O10 0.500000 0.766955 0.250000
O O11 0.250000 0.750000 0.500000
O O12 0.318114 0.668752 0.324181
O O13 0.500000 0.564892 0.250000
#
# Coordination Sequence:
#
# PCOD9292253 Si02
#       6
#     4   8   8   8   8   8
#     4  10  24  42  66 104 136 180 234 288 358 414
#     4  12  27  42  68 105 140 180 234 291 357 423
#     4  10  22  43  68  96 137 181 235 278 358 410
#     4  11  24  46  71  99 136 184 235 288 355 422
#     4  10  24  42  69  98 134 183 231 290 340 433
#     4  10  23  42  68  97 136 185 230 292 352 423
#
# _framework density 24.103621
#
# number of rings (size 3 to 8) (size 9 to 14) (size 15 to 20)
#    0.000    1.455    1.818    1.636   14.000    1.455 
#    0.000    1.818    0.000    0.000    0.000    0.000 
#    0.000    0.000    0.000    0.000    0.000    0.000 
#
# Total GULP energy -122555.215085 kJ/mol
# GULP energy per Si atom -5570.691595 kJ/mol
# Density = 2.404876 g / cm^3
# Si number density = 24.103621 Si / 1000 Ang^3
#
#
#
# Elastic Constant Matrix: (Units=GPa)
#
#
# Indices 1 2 3 4 5 6 
#
# 1 66.2423 14.9757 53.2128 0.0000 -2.1770 0.0000
# 2 14.9757 67.7876 13.4875 0.0000 0.3684 0.0000
# 3 53.2128 13.4875 215.8567 0.0000 -25.3586 0.0000
# 4 0.0000 0.0000 0.0000 68.6743 0.0000 14.1720
# 5 -2.1770 0.3684 -25.3586 0.0000 38.5115 0.0000
# 6 0.0000 0.0000 0.0000 14.1720 0.0000 21.0043
#
#
#
# Elastic Compliance Matrix: (Units=1/GPa)
#
#
# Indices 1 2 3 4 5 6 
#
# 1 0.019722 -0.003372 -0.004895 0.000000 -0.002076 0.000000
# 2 -0.003372 0.015538 -0.000195 0.000000 -0.000467 0.000000
# 3 -0.004895 -0.000195 0.006307 0.000000 0.003878 0.000000
# 4 0.000000 0.000000 0.000000 0.016917 0.000000 -0.011414
# 5 -0.002076 -0.000467 0.003878 0.000000 0.028407 0.000000
# 6 0.000000 0.000000 0.000000 -0.011414 0.000000 0.055311
#
#
# Mechanical properties :
#
#
# Convention : Reuss Voigt Hill
#
# Bulk Modulus (GPa) = 40.57678 57.02651 48.80164
# Shear Modulus (GPa) = 29.87917 43.51873 36.69895
#
# Velocity S-wave (km/s) = 3.52463 4.25371 3.90622
# Velocity P-wave (km/s) = 5.78229 6.91633 6.37458
#
# Compressibility (1/GPa) = 0.02464464
#
# Stress axis : x y z
#
# Youngs Moduli (GPa) = 50.70355 64.35787 158.54814
#
# Poissons Ratio (x) = 0.21701 0.77612
# Poissons Ratio (y) = 0.17097 0.03085
# Poissons Ratio (z) = 0.24820 0.01252
#
# Static dielectric constant tensor:
#      x y z
#    x 1.980690 0.000000 -0.051010 
#    y 0.000000 1.896480 0.000000 
#    z -0.051010 0.000000 2.039250 
# 
# From -- ./inp_files/78123.got.cif
#   From: 2010.05.17/outbox.cif.g08.bks.cpg/sg15_40_cif.got.tgz:78123.got - 2010.06.03 18:47:42.
