data_PCOD9292659
_publ_section_title
;
Structure prediction by ZEFSAII (Michael W. Deem and Ramdas Pophale) SiO2 
 PCOD9292659
Probable space group: C 2/C
;
_chemical_formula_sum "Si O2"
_cell_formula_units_Z 36
_cell_length_a 5.670176
_cell_length_b 25.960390
_cell_length_c 10.863533
_cell_angle_alpha 90.000000
_cell_angle_beta 72.105847
_cell_angle_gamma 90.000000
_cell_volume 1521.756031
_symmetry_space_group_name_H-M "C 2/C"
_symmetry_group_IT_number 15
_symmetry_cell_setting 'monoclinic'
loop_
_space_group_symop_operation_xyz
x,y,z
-x,y,1/2-z
-x,-y,-z
x,-y,1/2+z
1/2+x,1/2+y,z
1/2-x,1/2+y,1/2-z
1/2-x,1/2-y,-z
1/2+x,1/2-y,1/2+z
loop_
_atom_site_type_symbol
_atom_site_label
_atom_site_fract_x
_atom_site_fract_y
_atom_site_fract_z
Si Si1 0.372076 0.126823 0.519317
Si Si2 0.953178 0.735049 0.065533
Si Si3 0.871226 0.058485 0.144282
Si Si4 0.500000 0.311757 0.250000
Si Si5 0.639887 0.965824 0.080745
O O1 0.541340 0.173257 0.442193
O O2 0.300623 0.096554 0.405956
O O3 0.488094 0.087298 0.600809
O O4 0.145927 0.152842 0.630214
O O5 0.851526 0.769262 0.195147
O O6 0.750000 0.750000 0.000000
O O7 0.250000 0.750000 0.000000
O O8 0.000000 0.074987 0.250000
O O9 0.730444 0.003164 0.177643
O O10 0.099126 0.050432 0.017130
O O11 0.500000 0.000000 0.000000
#
# Coordination Sequence:
#
# PCOD9292659 Si02
#       5
#     8   8   8   4   8
#     4  10  23  44  71 101 139 197 237 297 377 441
#     4  10  24  45  67 102 146 185 243 303 369 429
#     4  10  22  44  66 104 146 182 241 298 362 447
#     4  10  24  48  68 108 142 184 248 314 356 442
#     4   9  21  43  64 101 138 182 239 290 363 437
#
# _framework density 23.656880000000001
#
# number of rings (size 3 to 8) (size 9 to 14) (size 15 to 20)
#    0.000    2.222    0.000    0.000    6.222    8.889 
#   22.000    0.000    0.000    0.000    0.000    0.000 
#    0.000    0.000    0.000    0.000    0.000    0.000 
#
# Total GULP energy -100216.745581 kJ/mol
# GULP energy per Si atom -5567.596977 kJ/mol
# Density = 2.360304 g / cm^3
# Si number density = 23.656880 Si / 1000 Ang^3
#
#
#
# Elastic Constant Matrix: (Units=GPa)
#
#
# Indices 1 2 3 4 5 6 
#
# 1 106.6681 52.6714 16.7478 0.0000 31.0285 0.0000
# 2 52.6714 176.2679 32.9257 0.0000 24.5446 0.0000
# 3 16.7478 32.9257 82.2295 0.0000 29.0544 0.0000
# 4 0.0000 0.0000 0.0000 3.1922 0.0000 -6.0294
# 5 31.0285 24.5446 29.0544 0.0000 53.2773 0.0000
# 6 0.0000 0.0000 0.0000 -6.0294 0.0000 8.6434
#
#
#
# Elastic Compliance Matrix: (Units=1/GPa)
#
#
# Indices 1 2 3 4 5 6 
#
# 1 0.012607 -0.003043 0.000929 0.000000 -0.006447 0.000000
# 2 -0.003043 0.007016 -0.002073 0.000000 -0.000329 0.000000
# 3 0.000929 -0.002073 0.015676 0.000000 -0.008135 0.000000
# 4 0.000000 0.000000 0.000000 -0.986358 0.000000 -0.688061
# 5 -0.006447 -0.000329 -0.008135 0.000000 0.027112 0.000000
# 6 0.000000 0.000000 0.000000 -0.688061 0.000000 -0.364280
#
#
# Mechanical properties :
#
#
# Convention : Reuss Voigt Hill
#
# Bulk Modulus (GPa) = 37.14134 63.31724 50.22929
# Shear Modulus (GPa) = -3.93429 30.54393 13.30482
#
# Velocity S-wave (km/s) = -1.29100 3.59712 2.37409
# Velocity P-wave (km/s) = 3.67585 6.63892 5.36596
#
# Compressibility (1/GPa) = 0.02692418
#
# Stress axis : x y z
#
# Youngs Moduli (GPa) = 79.32155 142.54108 63.79064
#
# Poissons Ratio (x) = 0.43374 -0.05924
# Poissons Ratio (y) = 0.24137 0.13224
# Poissons Ratio (z) = -0.07366 0.29548
#
# Static dielectric constant tensor:
#      x y z
#    x 2.503990 0.000000 0.984330 
#    y 0.000000 1.967310 0.000000 
#    z 0.984330 0.000000 3.621590 
# 
# From -- ./inp_files/72505.got.cif
#   From: 2010.05.17/outbox.cif.g08.bks.cpg/sg15_37_cif.got.tgz:72505.got - 2010.06.03 18:47:42.
