data_PCOD9292744
_publ_section_title
;
Structure prediction by ZEFSAII (Michael W. Deem and Ramdas Pophale) SiO2 
 PCOD9292744
Probable space group: C 2/C
;
_chemical_formula_sum "Si O2"
_cell_formula_units_Z 48
_cell_length_a 4.974756
_cell_length_b 23.453610
_cell_length_c 21.696866
_cell_angle_alpha 90.000000
_cell_angle_beta 55.424620
_cell_angle_gamma 90.000000
_cell_volume 2084.389898
_symmetry_space_group_name_H-M "C 2/C"
_symmetry_group_IT_number 15
_symmetry_cell_setting 'monoclinic'
loop_
_space_group_symop_operation_xyz
x,y,z
-x,y,1/2-z
-x,-y,-z
x,-y,1/2+z
1/2+x,1/2+y,z
1/2-x,1/2+y,1/2-z
1/2-x,1/2-y,-z
1/2+x,1/2-y,1/2+z
loop_
_atom_site_type_symbol
_atom_site_label
_atom_site_fract_x
_atom_site_fract_y
_atom_site_fract_z
Si Si1 0.287396 0.779253 0.406252
Si Si2 0.000000 0.655687 0.250000
Si Si3 0.590801 0.176525 0.987755
Si Si4 0.645859 0.056466 0.512319
Si Si5 0.813300 0.019303 0.830217
Si Si6 0.500000 0.738237 0.250000
Si Si7 0.247121 0.554982 0.138448
O O1 0.543934 0.798480 0.424524
O O2 0.415652 0.776017 0.320557
O O3 0.968317 0.818510 0.455884
O O4 0.140814 0.716874 0.441420
O O5 0.792631 0.696476 0.232585
O O6 0.777125 0.613529 0.320570
O O7 0.473490 0.112512 0.006600
O O8 0.469452 0.056494 0.601219
O O9 0.033521 0.056950 0.451800
O O10 0.500000 0.000000 0.500000
O O11 0.000000 0.048767 0.750000
O O12 0.616271 0.965170 0.829128
O O13 0.076204 0.993678 0.843473
#
# Coordination Sequence:
#
# PCOD9292744 Si02
#       7
#     8   4   8   8   8   4   8
#     4  10  23  43  67  92 131 169 220 275 327 391
#     4  12  22  36  66  93 132 167 220 294 338 370
#     4  10  22  44  67  93 129 174 218 271 328 382
#     4  10  24  41  68  99 131 177 224 265 323 405
#     4  11  21  40  58  87 135 173 212 262 319 394
#     4  12  24  40  64 103 124 167 224 284 338 392
#     4  11  22  39  60  91 130 171 217 267 325 386
#
# _framework density 23.028320999999998
#
# number of rings (size 3 to 8) (size 9 to 14) (size 15 to 20)
#    0.000    1.333    1.667    3.500    0.000    9.333 
#    3.000    0.000    0.000    0.000    0.000    0.000 
#    0.000    0.000    0.000    0.000    0.000    0.000 
#
# Total GULP energy -134270.639117 kJ/mol
# GULP energy per Si atom -5594.609963 kJ/mol
# Density = 2.297591 g / cm^3
# Si number density = 23.028321 Si / 1000 Ang^3
#
#
#
# Elastic Constant Matrix: (Units=GPa)
#
#
# Indices 1 2 3 4 5 6 
#
# 1 73.2387 -6.9066 2.2846 0.0000 5.2291 0.0000
# 2 -6.9066 33.2227 2.6807 0.0000 -10.9795 0.0000
# 3 2.2846 2.6807 145.7117 0.0000 -2.9562 0.0000
# 4 0.0000 0.0000 0.0000 4.8444 0.0000 6.6161
# 5 5.2291 -10.9795 -2.9562 0.0000 24.8401 0.0000
# 6 0.0000 0.0000 0.0000 6.6161 0.0000 15.3937
#
#
#
# Elastic Compliance Matrix: (Units=1/GPa)
#
#
# Indices 1 2 3 4 5 6 
#
# 1 0.014020 0.002286 -0.000302 0.000000 -0.001977 0.000000
# 2 0.002286 0.035638 -0.000383 0.000000 0.015225 0.000000
# 3 -0.000302 -0.000383 0.006889 0.000000 0.000714 0.000000
# 4 0.000000 0.000000 0.000000 0.499792 0.000000 -0.214809
# 5 -0.001977 0.015225 0.000714 0.000000 0.047489 0.000000
# 6 0.000000 0.000000 0.000000 -0.214809 0.000000 0.157286
#
#
# Mechanical properties :
#
#
# Convention : Reuss Voigt Hill
#
# Bulk Modulus (GPa) = 16.73671 27.58782 22.16226
# Shear Modulus (GPa) = 6.42816 25.95659 16.19238
#
# Velocity S-wave (km/s) = 1.67257 3.36096 2.65458
# Velocity P-wave (km/s) = 3.31868 5.20263 4.36354
#
# Compressibility (1/GPa) = 0.05974889
#
# Stress axis : x y z
#
# Youngs Moduli (GPa) = 71.32611 28.06026 145.15614
#
# Poissons Ratio (x) = -0.06413 0.04383
# Poissons Ratio (y) = -0.16302 0.05553
# Poissons Ratio (z) = 0.02154 0.01074
#
# Static dielectric constant tensor:
#      x y z
#    x 1.838650 0.000000 0.029980 
#    y 0.000000 1.838500 0.000000 
#    z 0.029980 0.000000 1.927450 
# 
# From -- ./inp_files/227806.got.cif
#   From: 2010.05.17/outbox.cif.g08.bks.cpg/sg15_114_cif.got.tgz:227806.got - 2010.06.03 18:47:42.
