data_PCOD9292926
_publ_section_title
;
Structure prediction by ZEFSAII (Michael W. Deem and Ramdas Pophale) SiO2 
 PCOD9292926
Probable space group: C 2/C
;
_chemical_formula_sum "Si O2"
_cell_formula_units_Z 36
_cell_length_a 7.852738
_cell_length_b 12.856509
_cell_length_c 19.616838
_cell_angle_alpha 90.000000
_cell_angle_beta 60.685513
_cell_angle_gamma 90.000000
_cell_volume 1726.881414
_symmetry_space_group_name_H-M "C 2/C"
_symmetry_group_IT_number 15
_symmetry_cell_setting 'monoclinic'
loop_
_space_group_symop_operation_xyz
x,y,z
-x,y,1/2-z
-x,-y,-z
x,-y,1/2+z
1/2+x,1/2+y,z
1/2-x,1/2+y,1/2-z
1/2-x,1/2-y,-z
1/2+x,1/2-y,1/2+z
loop_
_atom_site_type_symbol
_atom_site_label
_atom_site_fract_x
_atom_site_fract_y
_atom_site_fract_z
Si Si1 0.500000 0.715786 0.750000
Si Si2 0.690040 0.002865 0.414655
Si Si3 0.105786 0.394896 0.298744
Si Si4 0.600905 0.709985 0.587314
Si Si5 0.292026 0.734839 0.412350
O O1 0.673244 0.646510 0.748644
O O2 0.590868 0.767511 0.663662
O O3 0.612967 0.984455 0.353506
O O4 0.825877 0.905952 0.408695
O O5 0.500000 0.000000 0.500000
O O6 0.799775 0.111911 0.397870
O O7 0.000000 0.425560 0.250000
O O8 0.980817 0.298752 0.353291
O O9 0.750000 0.750000 0.500000
O O10 0.390663 0.720262 0.593902
O O11 0.250000 0.750000 0.500000
#
# Coordination Sequence:
#
# PCOD9292926 Si02
#       5
#     4   8   8   8   8
#     4  10  22  44  70 100 140 176 238 290 336 428
#     4  11  23  44  68 101 139 178 240 285 342 431
#     4  11  23  46  70  98 145 181 228 298 349 410
#     4  11  22  42  72  97 140 185 224 291 350 403
#     4  12  23  44  72 101 138 186 234 287 352 419
#
# _framework density 20.846826
#
# number of rings (size 3 to 8) (size 9 to 14) (size 15 to 20)
#    0.000    0.889    6.667    1.333    0.000    0.889 
#   10.000    0.000    0.000    0.000    0.000    0.000 
#    0.000    0.000    0.000    0.000    0.000    0.000 
#
# Total GULP energy -100508.851058 kJ/mol
# GULP energy per Si atom -5583.825059 kJ/mol
# Density = 2.079938 g / cm^3
# Si number density = 20.846826 Si / 1000 Ang^3
#
#
#
# Elastic Constant Matrix: (Units=GPa)
#
#
# Indices 1 2 3 4 5 6 
#
# 1 127.9047 28.2724 43.6323 0.0000 20.7376 0.0000
# 2 28.2724 118.1168 32.4386 0.0000 15.1491 0.0000
# 3 43.6323 32.4386 153.7408 0.0000 31.3104 0.0000
# 4 0.0000 0.0000 0.0000 27.2332 0.0000 1.2413
# 5 20.7376 15.1491 31.3104 0.0000 59.9288 0.0000
# 6 0.0000 0.0000 0.0000 1.2413 0.0000 40.2458
#
#
#
# Elastic Compliance Matrix: (Units=1/GPa)
#
#
# Indices 1 2 3 4 5 6 
#
# 1 0.009073 -0.001418 -0.001913 0.000000 -0.001782 0.000000
# 2 -0.001418 0.009320 -0.001325 0.000000 -0.001173 0.000000
# 3 -0.001913 -0.001325 0.007972 0.000000 -0.003168 0.000000
# 4 0.000000 0.000000 0.000000 0.036772 0.000000 -0.001134
# 5 -0.001782 -0.001173 -0.003168 0.000000 0.019255 0.000000
# 6 0.000000 0.000000 0.000000 -0.001134 0.000000 0.024882
#
#
# Mechanical properties :
#
#
# Convention : Reuss Voigt Hill
#
# Bulk Modulus (GPa) = 58.63974 67.60544 63.12259
# Shear Modulus (GPa) = 40.89293 45.17616 43.03455
#
# Velocity S-wave (km/s) = 4.43379 4.66021 4.54841
# Velocity P-wave (km/s) = 7.37572 7.83944 7.61111
#
# Compressibility (1/GPa) = 0.01705328
#
# Stress axis : x y z
#
# Youngs Moduli (GPa) = 110.21470 107.29673 125.43593
#
# Poissons Ratio (x) = 0.15213 0.23996
# Poissons Ratio (y) = 0.15627 0.16623
# Poissons Ratio (z) = 0.21084 0.14219
#
# Static dielectric constant tensor:
#      x y z
#    x 1.720710 0.000000 -0.000770 
#    y 0.000000 1.736070 0.000000 
#    z -0.000770 0.000000 1.821990 
# 
# From -- ./inp_files/187656.got.cif
#   From: 2010.05.17/outbox.cif.g08.bks.cpg/sg15_94_cif.got.tgz:187656.got - 2010.06.03 18:47:42.
