data_PCOD9292887
_publ_section_title
;
Structure prediction by ZEFSAII (Michael W. Deem and Ramdas Pophale) SiO2 
 PCOD9292887
Probable space group: C 2/C
;
_chemical_formula_sum "Si O2"
_cell_formula_units_Z 64
_cell_length_a 24.099489
_cell_length_b 9.028079
_cell_length_c 22.573346
_cell_angle_alpha 90.000000
_cell_angle_beta 34.212198
_cell_angle_gamma 90.000000
_cell_volume 2761.441733
_symmetry_space_group_name_H-M "C 2/C"
_symmetry_group_IT_number 15
_symmetry_cell_setting 'monoclinic'
loop_
_space_group_symop_operation_xyz
x,y,z
-x,y,1/2-z
-x,-y,-z
x,-y,1/2+z
1/2+x,1/2+y,z
1/2-x,1/2+y,1/2-z
1/2-x,1/2-y,-z
1/2+x,1/2-y,1/2+z
loop_
_atom_site_type_symbol
_atom_site_label
_atom_site_fract_x
_atom_site_fract_y
_atom_site_fract_z
Si Si1 0.785398 0.337976 0.334210
Si Si2 0.699839 0.521060 0.693751
Si Si3 0.569794 0.584610 0.395043
Si Si4 0.447657 0.096296 0.597956
Si Si5 0.089431 0.102929 0.063229
Si Si6 0.388441 0.875453 0.368043
Si Si7 0.100440 0.559758 0.035395
Si Si8 0.008763 0.818869 0.309894
O O1 0.673477 0.391546 0.439082
O O2 0.828733 0.370277 0.360713
O O3 0.850937 0.419448 0.226046
O O4 0.787888 0.157652 0.327627
O O5 0.661674 0.515676 0.795139
O O6 0.806040 0.590871 0.588112
O O7 0.615637 0.609274 0.731056
O O8 0.500000 0.500000 0.500000
O O9 0.580884 0.749720 0.408032
O O10 0.512630 0.617134 0.383183
O O11 0.500000 0.000000 0.500000
O O12 0.536997 0.078069 0.566492
O O13 0.111814 0.222882 0.094274
O O14 0.073403 0.946471 0.109107
O O15 0.500000 0.903077 0.250000
O O16 0.354575 0.003730 0.442211
O O17 0.023232 0.689956 0.116638
O O18 0.000000 0.766925 0.250000
#
# Coordination Sequence:
#
# PCOD9292887 Si02
#       8
#     8   8   8   8   8   8   8   8
#     4  11  22  41  72 105 130 179 239 289 347 416
#     4  10  23  44  68  95 135 177 235 282 347 416
#     4  10  22  44  69  95 131 178 229 294 342 400
#     4  11  25  43  67  96 135 176 232 286 341 413
#     4  11  22  41  67 101 134 177 236 282 348 416
#     4  12  20  39  70  97 136 176 229 292 341 421
#     4  12  25  44  64  99 138 184 225 280 354 421
#     4  11  26  41  61  99 145 179 214 279 353 417
#
# _framework density 23.176299
#
# number of rings (size 3 to 8) (size 9 to 14) (size 15 to 20)
#    0.000    1.000    3.750    3.375    5.250    2.500 
#    0.000    0.000    0.000    0.000    0.000    0.000 
#    0.000    0.000    0.000    0.000    0.000    0.000 
#
# Total GULP energy -178494.344069 kJ/mol
# GULP energy per Si atom -5577.948252 kJ/mol
# Density = 2.312355 g / cm^3
# Si number density = 23.176299 Si / 1000 Ang^3
#
#
#
# Elastic Constant Matrix: (Units=GPa)
#
#
# Indices 1 2 3 4 5 6 
#
# 1 51.8105 7.1733 21.5949 0.0001 -1.0144 -0.0001
# 2 7.1733 54.0805 42.9620 0.0004 4.2915 -0.0003
# 3 21.5949 42.9620 185.0917 0.0002 -3.2902 -0.0002
# 4 0.0001 0.0004 0.0002 42.8243 -0.0001 3.6035
# 5 -1.0144 4.2915 -3.2902 -0.0001 38.3342 0.0001
# 6 -0.0001 -0.0003 -0.0002 3.6035 0.0001 7.2492
#
#
#
# Elastic Compliance Matrix: (Units=1/GPa)
#
#
# Indices 1 2 3 4 5 6 
#
# 1 0.020340 -0.001051 -0.002121 0.000000 0.000474 0.000000
# 2 -0.001051 0.023074 -0.005288 0.000000 -0.003065 0.000001
# 3 -0.002121 -0.005288 0.006898 0.000000 0.001128 0.000000
# 4 0.000000 0.000000 0.000000 0.024371 0.000000 -0.012114
# 5 0.000474 -0.003065 0.001128 0.000000 0.026539 0.000000
# 6 0.000000 0.000001 0.000000 -0.012114 0.000000 0.143968
#
#
# Mechanical properties :
#
#
# Convention : Reuss Voigt Hill
#
# Bulk Modulus (GPa) = 29.94630 48.27146 39.10888
# Shear Modulus (GPa) = 18.29905 32.29838 25.29871
#
# Velocity S-wave (km/s) = 2.81296 3.73714 3.30749
# Velocity P-wave (km/s) = 4.84762 6.28449 5.61223
#
# Compressibility (1/GPa) = 0.03339310
#
# Stress axis : x y z
#
# Youngs Moduli (GPa) = 49.16463 43.33870 144.97925
#
# Poissons Ratio (x) = 0.04554 0.30747
# Poissons Ratio (y) = 0.05166 0.76660
# Poissons Ratio (z) = 0.10427 0.22916
#
# Static dielectric constant tensor:
#      x y z
#    x 2.055150 0.000000 -0.066500 
#    y 0.000000 1.925480 0.000000 
#    z -0.066500 0.000000 1.982720 
# 
# From -- ./inp_files/284409.got.cif
#   From: 2010.05.17/outbox.cif.g08.bks.cpg/sg15_143_cif.got.tgz:284409.got - 2010.06.03 18:47:42.
