data_PCOD9292707
_publ_section_title
;
Structure prediction by ZEFSAII (Michael W. Deem and Ramdas Pophale) SiO2 
 PCOD9292707
Probable space group: C 2/C
;
_chemical_formula_sum "Si O2"
_cell_formula_units_Z 60
_cell_length_a 11.034737
_cell_length_b 17.445040
_cell_length_c 18.408263
_cell_angle_alpha 90.000000
_cell_angle_beta 45.087004
_cell_angle_gamma 90.000000
_cell_volume 2509.517609
_symmetry_space_group_name_H-M "C 2/C"
_symmetry_group_IT_number 15
_symmetry_cell_setting 'monoclinic'
loop_
_space_group_symop_operation_xyz
x,y,z
-x,y,1/2-z
-x,-y,-z
x,-y,1/2+z
1/2+x,1/2+y,z
1/2-x,1/2+y,1/2-z
1/2-x,1/2-y,-z
1/2+x,1/2-y,1/2+z
loop_
_atom_site_type_symbol
_atom_site_label
_atom_site_fract_x
_atom_site_fract_y
_atom_site_fract_z
Si Si1 0.669663 0.473824 0.045150
Si Si2 0.756784 0.856939 0.958697
Si Si3 0.000000 0.783993 0.750000
Si Si4 0.982761 0.277504 0.969305
Si Si5 0.235153 0.029550 0.779467
Si Si6 0.478284 0.898488 0.842060
Si Si7 0.689522 0.647409 0.666298
Si Si8 0.265642 0.662310 0.624279
O O1 0.756850 0.552521 0.032872
O O2 0.466228 0.491054 0.122041
O O3 0.685160 0.415016 0.104286
O O4 0.792084 0.438565 0.931663
O O5 0.615134 0.819695 0.967700
O O6 0.933477 0.834091 0.844583
O O7 0.746363 0.829871 0.046053
O O8 0.147242 0.725654 0.712098
O O9 0.984291 0.327623 0.895704
O O10 0.044833 0.190188 0.933789
O O11 0.810415 0.285630 0.087209
O O12 0.239996 0.096195 0.715018
O O13 0.283907 0.078379 0.830053
O O14 0.366933 0.960551 0.707958
O O15 0.500000 0.875212 0.750000
O O16 0.500000 0.678422 0.750000
#
# Coordination Sequence:
#
# PCOD9292707 Si02
#       8
#     8   8   4   8   8   8   8   8
#     4  10  23  42  64 102 131 168 230 279 321 394
#     4  11  23  40  68  95 133 165 213 284 323 399
#     4  10  24  38  62  92 128 164 208 264 338 386
#     4  10  22  44  66  97 131 177 218 275 335 385
#     4  11  24  40  68  98 133 181 215 275 347 380
#     4  11  24  42  68  97 134 177 226 273 327 401
#     4   9  20  39  67  94 131 170 226 272 323 402
#     4  11  26  41  64 101 134 168 221 272 329 403
#
# _framework density 23.908978000000001
#
# number of rings (size 3 to 8) (size 9 to 14) (size 15 to 20)
#    0.000    1.600    0.000    4.000   13.067    4.267 
#    0.000    8.000    0.000    0.000    0.000    0.000 
#    0.000    0.000    0.000    0.000    0.000    0.000 
#
# Total GULP energy -167780.982397 kJ/mol
# GULP energy per Si atom -5592.699413 kJ/mol
# Density = 2.385456 g / cm^3
# Si number density = 23.908978 Si / 1000 Ang^3
#
#
#
# Elastic Constant Matrix: (Units=GPa)
#
#
# Indices 1 2 3 4 5 6 
#
# 1 58.8222 -0.1335 43.4216 0.0000 10.3135 -0.0001
# 2 -0.1335 47.7953 17.2352 -0.0008 -4.5636 0.0004
# 3 43.4216 17.2352 140.9779 -0.0033 2.0082 0.0015
# 4 0.0000 -0.0008 -0.0033 -4.9446 0.0010 2.6726
# 5 10.3135 -4.5636 2.0082 0.0010 38.0337 -0.0003
# 6 -0.0001 0.0004 0.0015 2.6726 -0.0003 16.8428
#
#
#
# Elastic Compliance Matrix: (Units=1/GPa)
#
#
# Indices 1 2 3 4 5 6 
#
# 1 0.023485 0.002196 -0.007420 0.000003 -0.005713 0.000000
# 2 0.002196 0.022388 -0.003446 -0.000001 0.002273 0.000000
# 3 -0.007420 -0.003446 0.009785 -0.000006 0.001082 0.000000
# 4 0.000003 -0.000001 -0.000006 -0.186267 0.000004 0.029556
# 5 -0.005713 0.002273 0.001082 0.000004 0.028057 0.000000
# 6 0.000000 0.000000 0.000000 0.029556 0.000000 0.054683
#
#
# Mechanical properties :
#
#
# Convention : Reuss Voigt Hill
#
# Bulk Modulus (GPa) = 26.09804 40.96023 33.52913
# Shear Modulus (GPa) = -281.58553 22.45785 -129.56384
#
# Velocity S-wave (km/s) = -10.86415 3.06814 -7.36940
# Velocity P-wave (km/s) = 12.10097 5.45162 7.63916
#
# Compressibility (1/GPa) = 0.03831705
#
# Stress axis : x y z
#
# Youngs Moduli (GPa) = 42.58088 44.66623 102.20057
#
# Poissons Ratio (x) = -0.09808 0.75837
# Poissons Ratio (y) = -0.09350 0.35216
# Poissons Ratio (z) = 0.31597 0.15391
#
# Static dielectric constant tensor:
#      x y z
#    x 1.977680 0.000000 -0.102160 
#    y 0.000000 1.885950 0.000000 
#    z -0.102160 0.000000 2.055790 
# 
# From -- ./inp_files/200492.got.cif
#   From: 2010.05.17/outbox.cif.g08.bks.cpg/sg15_101_cif.got.tgz:200492.got - 2010.06.03 18:47:42.
