data_PCOD9292000
_publ_section_title
;
Structure prediction by ZEFSAII (Michael W. Deem and Ramdas Pophale) SiO2 
 PCOD9292000
Probable space group: C 2/C
;
_chemical_formula_sum "Si O2"
_cell_formula_units_Z 60
_cell_length_a 7.671779
_cell_length_b 22.988807
_cell_length_c 20.059219
_cell_angle_alpha 90.000000
_cell_angle_beta 140.478446
_cell_angle_gamma 90.000000
_cell_volume 2251.309369
_symmetry_space_group_name_H-M "C 2/C"
_symmetry_group_IT_number 15
_symmetry_cell_setting 'monoclinic'
loop_
_space_group_symop_operation_xyz
x,y,z
-x,y,1/2-z
-x,-y,-z
x,-y,1/2+z
1/2+x,1/2+y,z
1/2-x,1/2+y,1/2-z
1/2-x,1/2-y,-z
1/2+x,1/2-y,1/2+z
loop_
_atom_site_type_symbol
_atom_site_label
_atom_site_fract_x
_atom_site_fract_y
_atom_site_fract_z
Si Si1 0.694233 0.241210 0.729634
Si Si2 0.093507 0.759706 0.061617
Si Si3 0.634735 0.630810 0.160884
Si Si4 0.222671 0.458675 0.359207
Si Si5 0.506533 0.866179 0.016700
Si Si6 0.722204 0.378610 0.540109
Si Si7 0.500000 0.642107 0.750000
Si Si8 0.719022 0.478896 0.758397
O O1 0.797991 0.259560 0.833553
O O2 0.388138 0.218190 0.623511
O O3 0.697416 0.301602 0.691560
O O4 0.879978 0.186371 0.768646
O O5 0.881592 0.811915 0.999498
O O6 0.986643 0.704213 0.990138
O O7 0.700304 0.590036 0.242921
O O8 0.786574 0.615940 0.137150
O O9 0.305781 0.622234 0.055679
O O10 0.458546 0.419811 0.455836
O O11 0.348234 0.498506 0.336925
O O12 0.000000 0.421869 0.250000
O O13 0.029960 0.495026 0.353507
O O14 0.583839 0.890500 0.966091
O O15 0.740142 0.887115 0.137326
O O16 0.500000 0.496056 0.750000
#
# Coordination Sequence:
#
# PCOD9292000 Si02
#       8
#     8   8   8   8   8   8   4   8
#     4  10  23  36  65  98 138 183 238 276 339 414
#     4  10  22  43  64  98 147 191 224 281 340 418
#     4  11  26  43  70 105 134 189 237 291 351 419
#     4   8  24  44  69 104 125 175 243 281 356 434
#     4  11  26  41  63 105 142 184 244 272 337 431
#     4  12  23  43  70  98 146 182 227 294 349 407
#     4  12  22  40  60  96 142 192 234 282 340 404
#     4   9  22  47  73  96 138 173 235 306 357 415
#
# _framework density 26.651156
#
# number of rings (size 3 to 8) (size 9 to 14) (size 15 to 20)
#    0.800    0.800    1.333    2.000    7.467    8.000 
#    1.200    1.333    0.000    0.000    0.000    0.000 
#    0.000    0.000    0.000    0.000    0.000    0.000 
#
# Total GULP energy -167750.263327 kJ/mol
# GULP energy per Si atom -5591.675444 kJ/mol
# Density = 2.659050 g / cm^3
# Si number density = 26.651156 Si / 1000 Ang^3
#
#
#
# Elastic Constant Matrix: (Units=GPa)
#
#
# Indices 1 2 3 4 5 6 
#
# 1 182.6451 32.6195 49.5591 0.0003 10.8098 0.0009
# 2 32.6195 50.8622 19.1318 -0.0002 9.3688 -0.0006
# 3 49.5591 19.1318 141.0982 0.0007 -1.0710 0.0014
# 4 0.0003 -0.0002 0.0007 42.7897 0.0007 51.2919
# 5 10.8098 9.3688 -1.0710 0.0007 47.5379 0.0018
# 6 0.0009 -0.0006 0.0014 51.2919 0.0018 210.5553
#
#
#
# Elastic Compliance Matrix: (Units=1/GPa)
#
#
# Indices 1 2 3 4 5 6 
#
# 1 0.006643 -0.003390 -0.001880 0.000000 -0.000885 0.000000
# 2 -0.003390 0.023299 -0.001998 0.000000 -0.003866 0.000000
# 3 -0.001880 -0.001998 0.008026 0.000000 0.001002 0.000000
# 4 0.000000 0.000000 0.000000 0.033009 0.000000 -0.008041
# 5 -0.000885 -0.003866 0.001002 0.000000 0.022022 0.000000
# 6 0.000000 0.000000 0.000000 -0.008041 0.000000 0.006708
#
#
# Mechanical properties :
#
#
# Convention : Reuss Voigt Hill
#
# Bulk Modulus (GPa) = 42.67745 64.13626 53.40685
# Shear Modulus (GPa) = 40.96556 78.39625 59.68090
#
# Velocity S-wave (km/s) = 3.92484 5.42951 4.73730
# Velocity P-wave (km/s) = 6.04874 7.96388 7.07145
#
# Compressibility (1/GPa) = 0.02343158
#
# Stress axis : x y z
#
# Youngs Moduli (GPa) = 150.53086 42.92077 124.59199
#
# Poissons Ratio (x) = 0.14551 0.23428
# Poissons Ratio (y) = 0.51033 0.24890
# Poissons Ratio (z) = 0.28305 0.08574
#
# Static dielectric constant tensor:
#      x y z
#    x 4.027200 0.000000 0.224450 
#    y 0.000000 2.073430 0.000000 
#    z 0.224450 0.000000 2.125950 
# 
# From -- ./inp_files/234594.got.cif
#   From: 2010.05.17/outbox.cif.g08.bks.cpg/sg15_118_cif.got.tgz:234594.got - 2010.06.03 18:47:42.
