data_PCOD9292360
_publ_section_title
;
Structure prediction by ZEFSAII (Michael W. Deem and Ramdas Pophale) SiO2 
 PCOD9292360
Probable space group: C 2/C
;
_chemical_formula_sum "Si O2"
_cell_formula_units_Z 48
_cell_length_a 7.497168
_cell_length_b 12.170875
_cell_length_c 21.555600
_cell_angle_alpha 90.000000
_cell_angle_beta 114.079516
_cell_angle_gamma 90.000000
_cell_volume 1795.727665
_symmetry_space_group_name_H-M "C 2/C"
_symmetry_group_IT_number 15
_symmetry_cell_setting 'monoclinic'
loop_
_space_group_symop_operation_xyz
x,y,z
-x,y,1/2-z
-x,-y,-z
x,-y,1/2+z
1/2+x,1/2+y,z
1/2-x,1/2+y,1/2-z
1/2-x,1/2-y,-z
1/2+x,1/2-y,1/2+z
loop_
_atom_site_type_symbol
_atom_site_label
_atom_site_fract_x
_atom_site_fract_y
_atom_site_fract_z
Si Si1 0.253604 0.214004 0.282820
Si Si2 0.415634 0.584756 0.129489
Si Si3 0.852132 0.071950 0.519433
Si Si4 0.043977 0.301576 0.127515
Si Si5 0.383126 0.771825 0.594529
Si Si6 0.836024 0.458104 0.178188
O O1 0.161094 0.243138 0.203099
O O2 0.481266 0.198664 0.328461
O O3 0.218413 0.334773 0.307240
O O4 0.160203 0.115231 0.311768
O O5 0.294031 0.502001 0.069911
O O6 0.395255 0.702920 0.093747
O O7 0.636793 0.530201 0.154830
O O8 0.685141 0.122665 0.452629
O O9 0.966475 0.180433 0.560085
O O10 0.000000 0.000000 0.500000
O O11 0.196575 0.292412 0.094508
O O12 0.953366 0.418124 0.133080
O O13 0.000000 0.499760 0.250000
#
# Coordination Sequence:
#
# PCOD9292360 Si02
#       6
#     8   8   8   8   8   8
#     4  10  22  43  70 105 146 181 236 311 367 442
#     4  11  21  44  69  99 142 188 238 291 364 439
#     4  11  24  46  71 102 143 191 255 295 354 451
#     4  10  22  44  68 103 149 181 236 310 368 440
#     4  11  23  45  73 101 143 191 241 308 373 430
#     4   9  20  41  65  99 141 186 230 290 368 441
#
# _framework density 26.730111000000001
#
# number of rings (size 3 to 8) (size 9 to 14) (size 15 to 20)
#    0.000    1.667    3.333    2.000    0.000    2.000 
#   15.000    5.000    0.000    0.000    0.000    0.000 
#    0.000    0.000    0.000    0.000    0.000    0.000 
#
# Total GULP energy -133807.042028 kJ/mol
# GULP energy per Si atom -5575.293418 kJ/mol
# Density = 2.666927 g / cm^3
# Si number density = 26.730111 Si / 1000 Ang^3
#
#
#
# Elastic Constant Matrix: (Units=GPa)
#
#
# Indices 1 2 3 4 5 6 
#
# 1 76.3548 49.1238 5.7020 0.0000 -11.6625 0.0000
# 2 49.1238 183.5269 63.1374 0.0000 -11.0675 0.0000
# 3 5.7020 63.1374 59.1189 0.0000 -6.9166 0.0000
# 4 0.0000 0.0000 0.0000 49.6155 0.0000 -16.6671
# 5 -11.6625 -11.0675 -6.9166 0.0000 28.9427 0.0000
# 6 0.0000 0.0000 0.0000 -16.6671 0.0000 52.8400
#
#
#
# Elastic Compliance Matrix: (Units=1/GPa)
#
#
# Indices 1 2 3 4 5 6 
#
# 1 0.017686 -0.006363 0.005801 0.000000 0.006080 0.000000
# 2 -0.006363 0.010939 -0.011192 0.000000 -0.001056 0.000000
# 3 0.005801 -0.011192 0.028889 0.000000 0.004961 0.000000
# 4 0.000000 0.000000 0.000000 0.022544 0.000000 0.007111
# 5 0.006080 -0.001056 0.004961 0.000000 0.037783 0.000000
# 6 0.000000 0.000000 0.000000 0.007111 0.000000 0.021168
#
#
# Mechanical properties :
#
#
# Convention : Reuss Voigt Hill
#
# Bulk Modulus (GPa) = 29.40719 61.65854 45.53286
# Shear Modulus (GPa) = 28.76038 39.68214 34.22126
#
# Velocity S-wave (km/s) = 3.28373 3.85716 3.58194
# Velocity P-wave (km/s) = 5.04010 6.55394 5.84623
#
# Compressibility (1/GPa) = 0.03400529
#
# Stress axis : x y z
#
# Youngs Moduli (GPa) = 56.54247 91.42021 34.61569
#
# Poissons Ratio (x) = 0.58170 -0.20080
# Poissons Ratio (y) = 0.35977 0.38741
# Poissons Ratio (z) = -0.32800 1.02316
#
# Static dielectric constant tensor:
#      x y z
#    x 2.275050 0.000000 -0.005920 
#    y 0.000000 2.087110 0.000000 
#    z -0.005920 0.000000 2.299430 
# 
# From -- ./inp_files/263554.got.cif
#   From: 2010.05.17/outbox.cif.g08.bks.cpg/sg15_132_cif.got.tgz:263554.got - 2010.06.03 18:47:42.
