data_PCOD9292706
_publ_section_title
;
Structure prediction by ZEFSAII (Michael W. Deem and Ramdas Pophale) SiO2 
 PCOD9292706
Probable space group: C 2/C
;
_chemical_formula_sum "Si O2"
_cell_formula_units_Z 36
_cell_length_a 11.682604
_cell_length_b 17.079660
_cell_length_c 8.762493
_cell_angle_alpha 90.000000
_cell_angle_beta 107.304708
_cell_angle_gamma 90.000000
_cell_volume 1669.283205
_symmetry_space_group_name_H-M "C 2/C"
_symmetry_group_IT_number 15
_symmetry_cell_setting 'monoclinic'
loop_
_space_group_symop_operation_xyz
x,y,z
-x,y,1/2-z
-x,-y,-z
x,-y,1/2+z
1/2+x,1/2+y,z
1/2-x,1/2+y,1/2-z
1/2-x,1/2-y,-z
1/2+x,1/2-y,1/2+z
loop_
_atom_site_type_symbol
_atom_site_label
_atom_site_fract_x
_atom_site_fract_y
_atom_site_fract_z
Si Si1 0.670877 0.046191 0.569420
Si Si2 0.500000 0.996790 0.250000
Si Si3 0.179927 0.827300 0.519374
Si Si4 0.269205 0.864603 0.894938
Si Si5 0.442593 0.267595 0.558374
O O1 0.597737 0.054046 0.697501
O O2 0.778210 0.105431 0.580608
O O3 0.571099 0.050837 0.397048
O O4 0.713160 0.956457 0.577313
O O5 0.250000 0.750000 0.500000
O O6 0.225769 0.852334 0.704754
O O7 0.041658 0.804537 0.486444
O O8 0.166611 0.828196 0.962009
O O9 0.386937 0.812943 0.974397
O O10 0.500000 0.255724 0.750000
#
# Coordination Sequence:
#
# PCOD9292706 Si02
#       5
#     8   4   8   8   8
#     4  11  23  41  66  98 130 174 223 276 325 392
#     4  10  24  38  64  96 130 170 222 276 316 392
#     4  11  25  42  64  98 136 171 219 276 333 394
#     4  10  22  44  66  97 130 173 227 265 334 397
#     4   9  22  42  68  94 133 176 217 275 330 397
#
# _framework density 21.566144999999999
#
# number of rings (size 3 to 8) (size 9 to 14) (size 15 to 20)
#    0.000    1.778    2.222    0.000    7.778    5.333 
#    0.000    0.000    0.000    0.000    0.000    0.000 
#    0.000    0.000    0.000    0.000    0.000    0.000 
#
# Total GULP energy -100694.563763 kJ/mol
# GULP energy per Si atom -5594.142431 kJ/mol
# Density = 2.151706 g / cm^3
# Si number density = 21.566145 Si / 1000 Ang^3
#
#
#
# Elastic Constant Matrix: (Units=GPa)
#
#
# Indices 1 2 3 4 5 6 
#
# 1 195.1724 97.4537 31.6713 0.0000 -29.4470 0.0000
# 2 97.4537 180.6847 13.2741 0.0000 -11.6745 0.0000
# 3 31.6713 13.2741 34.6728 0.0000 -8.2688 0.0000
# 4 0.0000 0.0000 0.0000 17.5947 0.0000 -7.8532
# 5 -29.4470 -11.6745 -8.2688 0.0000 37.8892 0.0000
# 6 0.0000 0.0000 0.0000 -7.8532 0.0000 43.6880
#
#
#
# Elastic Compliance Matrix: (Units=1/GPa)
#
#
# Indices 1 2 3 4 5 6 
#
# 1 0.008628 -0.003984 -0.005327 0.000000 0.004316 0.000000
# 2 -0.003984 0.007600 0.000579 0.000000 -0.000628 0.000000
# 3 -0.005327 0.000579 0.034327 0.000000 0.003530 0.000000
# 4 0.000000 0.000000 0.000000 0.061793 0.000000 0.011108
# 5 0.004316 -0.000628 0.003530 0.000000 0.030324 0.000000
# 6 0.000000 0.000000 0.000000 0.011108 0.000000 0.024886
#
#
# Mechanical properties :
#
#
# Convention : Reuss Voigt Hill
#
# Bulk Modulus (GPa) = 30.21810 77.25870 53.73840
# Shear Modulus (GPa) = 25.50346 37.70976 31.60661
#
# Velocity S-wave (km/s) = 3.44258 4.18612 3.83242
# Velocity P-wave (km/s) = 5.46297 7.69848 6.67498
#
# Compressibility (1/GPa) = 0.03309275
#
# Stress axis : x y z
#
# Youngs Moduli (GPa) = 115.89682 131.58016 29.13164
#
# Poissons Ratio (x) = 0.52416 0.15519
# Poissons Ratio (y) = 0.46168 -0.01688
# Poissons Ratio (z) = 0.61740 -0.07624
#
# Static dielectric constant tensor:
#      x y z
#    x 1.803230 0.000000 -0.009910 
#    y 0.000000 1.747020 0.000000 
#    z -0.009910 0.000000 1.851330 
# 
# From -- ./inp_files/29447.got.cif
#   From: 2010.05.17/outbox.cif.g08.bks.cpg/sg15_15_cif.got.tgz:29447.got - 2010.06.03 18:47:42.
