data_PCOD9292955
_publ_section_title
;
Structure prediction by ZEFSAII (Michael W. Deem and Ramdas Pophale) SiO2 
 PCOD9292955
Probable space group: C 2/C
;
_chemical_formula_sum "Si O2"
_cell_formula_units_Z 36
_cell_length_a 15.989895
_cell_length_b 19.070524
_cell_length_c 8.599319
_cell_angle_alpha 90.000000
_cell_angle_beta 143.783692
_cell_angle_gamma 90.000000
_cell_volume 1549.311530
_symmetry_space_group_name_H-M "C 2/C"
_symmetry_group_IT_number 15
_symmetry_cell_setting 'monoclinic'
loop_
_space_group_symop_operation_xyz
x,y,z
-x,y,1/2-z
-x,-y,-z
x,-y,1/2+z
1/2+x,1/2+y,z
1/2-x,1/2+y,1/2-z
1/2-x,1/2-y,-z
1/2+x,1/2-y,1/2+z
loop_
_atom_site_type_symbol
_atom_site_label
_atom_site_fract_x
_atom_site_fract_y
_atom_site_fract_z
Si Si1 0.162525 0.864274 0.990373
Si Si2 0.732180 0.882326 0.691540
Si Si3 0.125059 0.255074 0.684731
Si Si4 0.105541 0.530857 0.530517
Si Si5 0.000000 0.831167 0.250000
O O1 0.157153 0.795129 0.088078
O O2 0.272982 0.917750 0.231727
O O3 0.216360 0.852728 0.896426
O O4 0.000000 0.891772 0.750000
O O5 0.615534 0.832558 0.599160
O O6 0.679904 0.960319 0.579362
O O7 0.863277 0.879028 0.010622
O O8 0.003662 0.220108 0.606024
O O9 0.250000 0.250000 0.000000
O O10 0.000000 0.500000 0.500000
O O11 0.000000 0.566580 0.250000
#
# Coordination Sequence:
#
# PCOD9292955 Si02
#       5
#     8   8   8   8   4
#     4  12  26  49  77 107 143 197 249 294 353 441
#     4  11  25  46  74 107 145 193 242 299 360 439
#     4  10  24  43  70 109 144 186 233 307 357 420
#     4  12  29  49  70 109 147 192 237 303 374 422
#     4  10  22  44  70 112 142 186 246 298 364 416
#
# _framework density 23.236127
#
# number of rings (size 3 to 8) (size 9 to 14) (size 15 to 20)
#    0.000    0.889    4.444    0.667    7.778    5.333 
#    2.000    0.000    0.000    0.000    0.000    0.000 
#    0.000    0.000    0.000    0.000    0.000    0.000 
#
# Total GULP energy -100605.842358 kJ/mol
# GULP energy per Si atom -5589.213464 kJ/mol
# Density = 2.318324 g / cm^3
# Si number density = 23.236127 Si / 1000 Ang^3
#
#
#
# Elastic Constant Matrix: (Units=GPa)
#
#
# Indices 1 2 3 4 5 6 
#
# 1 83.5835 7.1676 18.7786 0.0000 -14.4733 0.0000
# 2 7.1676 84.7729 47.5544 0.0000 -1.3673 0.0000
# 3 18.7786 47.5544 151.8272 0.0000 3.0505 0.0000
# 4 0.0000 0.0000 0.0000 24.8140 0.0000 17.1904
# 5 -14.4733 -1.3673 3.0505 0.0000 34.3950 0.0000
# 6 0.0000 0.0000 0.0000 17.1904 0.0000 8.7576
#
#
#
# Elastic Compliance Matrix: (Units=1/GPa)
#
#
# Indices 1 2 3 4 5 6 
#
# 1 0.013362 -0.000054 -0.001752 0.000000 0.005776 0.000000
# 2 -0.000054 0.014343 -0.004505 0.000000 0.000947 0.000000
# 3 -0.001752 -0.004505 0.008247 0.000000 -0.001648 0.000000
# 4 0.000000 0.000000 0.000000 -0.111993 0.000000 0.219832
# 5 0.005776 0.000947 -0.001648 0.000000 0.031688 0.000000
# 6 0.000000 0.000000 0.000000 0.219832 0.000000 -0.317324
#
#
# Mechanical properties :
#
#
# Convention : Reuss Voigt Hill
#
# Bulk Modulus (GPa) = 42.86041 51.90942 47.38491
# Shear Modulus (GPa) = -14.65081 30.03887 7.69403
#
# Velocity S-wave (km/s) = -2.51374 3.59941 1.82165
# Velocity P-wave (km/s) = 3.17182 6.29784 4.98614
#
# Compressibility (1/GPa) = 0.02333155
#
# Stress axis : x y z
#
# Youngs Moduli (GPa) = 74.83638 69.71999 121.25332
#
# Poissons Ratio (x) = 0.00376 0.21242
# Poissons Ratio (y) = 0.00403 0.54622
# Poissons Ratio (z) = 0.13111 0.31408
#
# Static dielectric constant tensor:
#      x y z
#    x 1.945400 0.000000 0.046590 
#    y 0.000000 1.873000 0.000000 
#    z 0.046590 0.000000 1.968930 
# 
# From -- ./inp_files/41330.got.cif
#   From: 2010.05.17/outbox.cif.g08.bks.cpg/sg15_21_cif.got.tgz:41330.got - 2010.06.03 18:47:42.
