data_PCOD9292905
_publ_section_title
;
Structure prediction by ZEFSAII (Michael W. Deem and Ramdas Pophale) SiO2 
 PCOD9292905
Probable space group: C 2/C
;
_chemical_formula_sum "Si O2"
_cell_formula_units_Z 36
_cell_length_a 14.581622
_cell_length_b 8.365871
_cell_length_c 18.780455
_cell_angle_alpha 90.000000
_cell_angle_beta 133.839977
_cell_angle_gamma 90.000000
_cell_volume 1652.438356
_symmetry_space_group_name_H-M "C 2/C"
_symmetry_group_IT_number 15
_symmetry_cell_setting 'monoclinic'
loop_
_space_group_symop_operation_xyz
x,y,z
-x,y,1/2-z
-x,-y,-z
x,-y,1/2+z
1/2+x,1/2+y,z
1/2-x,1/2+y,1/2-z
1/2-x,1/2-y,-z
1/2+x,1/2-y,1/2+z
loop_
_atom_site_type_symbol
_atom_site_label
_atom_site_fract_x
_atom_site_fract_y
_atom_site_fract_z
Si Si1 0.500000 0.073305 0.750000
Si Si2 0.245954 0.837413 0.329995
Si Si3 0.730625 0.712760 0.316728
Si Si4 0.390053 0.784931 0.610269
Si Si5 0.500642 0.318825 0.472735
O O1 0.384082 0.184601 0.713062
O O2 0.446228 0.962668 0.655637
O O3 0.251980 0.764056 0.255382
O O4 0.139341 0.766932 0.324775
O O5 0.384044 0.788140 0.435631
O O6 0.217413 0.024037 0.312848
O O7 0.865595 0.752029 0.424780
O O8 0.250000 0.750000 0.500000
O O9 0.479614 0.692719 0.602388
O O10 0.500000 0.500000 0.500000
#
# Coordination Sequence:
#
# PCOD9292905 Si02
#       5
#     4   8   8   8   8
#     4  12  26  44  68 100 136 176 224 276 334 398
#     4  11  24  43  68  98 133 176 221 275 334 396
#     4  12  25  43  66  98 134 176 224 274 332 400
#     4  10  22  44  69  98 134 175 221 277 334 394
#     4  11  23  43  69  98 133 176 222 275 333 396
#
# _framework density 21.785986999999999
#
# number of rings (size 3 to 8) (size 9 to 14) (size 15 to 20)
#    0.000    0.889    0.000    8.667    0.000    6.222 
#    0.000    6.667    0.000    0.000    0.000    0.000 
#    0.000    0.000    0.000    0.000    0.000    0.000 
#
# Total GULP energy -100511.857750 kJ/mol
# GULP energy per Si atom -5583.992097 kJ/mol
# Density = 2.173640 g / cm^3
# Si number density = 21.785987 Si / 1000 Ang^3
#
#
#
# Elastic Constant Matrix: (Units=GPa)
#
#
# Indices 1 2 3 4 5 6 
#
# 1 185.3309 75.8510 47.6767 0.0000 21.7298 0.0000
# 2 75.8510 160.9101 39.1765 0.0000 4.9279 0.0000
# 3 47.6767 39.1765 79.5263 0.0000 16.9811 0.0000
# 4 0.0000 0.0000 0.0000 37.0224 0.0000 6.5203
# 5 21.7298 4.9279 16.9811 0.0000 43.7470 0.0000
# 6 0.0000 0.0000 0.0000 6.5203 0.0000 50.2085
#
#
#
# Elastic Compliance Matrix: (Units=1/GPa)
#
#
# Indices 1 2 3 4 5 6 
#
# 1 0.007503 -0.002833 -0.002590 0.000000 -0.002403 0.000000
# 2 -0.002833 0.008146 -0.002638 0.000000 0.001513 0.000000
# 3 -0.002590 -0.002638 0.016452 0.000000 -0.004803 0.000000
# 4 0.000000 0.000000 0.000000 0.027643 0.000000 -0.003590
# 5 -0.002403 0.001513 -0.004803 0.000000 0.025746 0.000000
# 6 0.000000 0.000000 0.000000 -0.003590 0.000000 0.020383
#
#
# Mechanical properties :
#
#
# Convention : Reuss Voigt Hill
#
# Bulk Modulus (GPa) = 62.57620 83.46396 73.02008
# Shear Modulus (GPa) = 39.27128 43.73313 41.50220
#
# Velocity S-wave (km/s) = 4.25030 4.48526 4.36936
# Velocity P-wave (km/s) = 7.27133 8.07573 7.68406
#
# Compressibility (1/GPa) = 0.01598052
#
# Stress axis : x y z
#
# Youngs Moduli (GPa) = 133.27992 122.76230 60.78346
#
# Poissons Ratio (x) = 0.34776 0.15741
# Poissons Ratio (y) = 0.37755 0.16033
# Poissons Ratio (z) = 0.34514 0.32381
#
# Static dielectric constant tensor:
#      x y z
#    x 1.760810 0.000000 0.029210 
#    y 0.000000 1.890310 0.000000 
#    z 0.029210 0.000000 1.998440 
# 
# From -- ./inp_files/202883.got.cif
#   From: 2010.05.17/outbox.cif.g08.bks.cpg/sg15_102_cif.got.tgz:202883.got - 2010.06.03 18:47:42.
