data_PCOD9292949
_publ_section_title
;
Structure prediction by ZEFSAII (Michael W. Deem and Ramdas Pophale) SiO2 
 PCOD9292949
Probable space group: C 2/C
;
_chemical_formula_sum "Si O2"
_cell_formula_units_Z 52
_cell_length_a 9.458923
_cell_length_b 29.185949
_cell_length_c 10.709342
_cell_angle_alpha 90.000000
_cell_angle_beta 121.151037
_cell_angle_gamma 90.000000
_cell_volume 2530.194730
_symmetry_space_group_name_H-M "C 2/C"
_symmetry_group_IT_number 15
_symmetry_cell_setting 'monoclinic'
loop_
_space_group_symop_operation_xyz
x,y,z
-x,y,1/2-z
-x,-y,-z
x,-y,1/2+z
1/2+x,1/2+y,z
1/2-x,1/2+y,1/2-z
1/2-x,1/2-y,-z
1/2+x,1/2-y,1/2+z
loop_
_atom_site_type_symbol
_atom_site_label
_atom_site_fract_x
_atom_site_fract_y
_atom_site_fract_z
Si Si1 0.616134 0.169338 0.583144
Si Si2 0.872638 0.383968 0.794953
Si Si3 0.117059 0.831337 0.500472
Si Si4 0.500000 0.478043 0.250000
Si Si5 0.835920 0.066479 0.109593
Si Si6 0.171984 0.098775 0.672027
Si Si7 0.554252 0.741011 0.406057
O O1 0.471167 0.150941 0.428224
O O2 0.766003 0.183957 0.559891
O O3 0.683076 0.127770 0.698049
O O4 0.546356 0.211630 0.628311
O O5 0.733445 0.355758 0.656551
O O6 0.801910 0.423526 0.850712
O O7 0.000000 0.402214 0.750000
O O8 0.990496 0.869631 0.396599
O O9 0.009475 0.791185 0.511917
O O10 0.387792 0.513370 0.118943
O O11 0.379936 0.446777 0.277559
O O12 0.000000 0.087869 0.250000
O O13 0.795881 0.088027 0.958346
O O14 0.500000 0.719070 0.250000
O O15 0.750000 0.750000 0.500000
#
# Coordination Sequence:
#
# PCOD9292949 Si02
#       7
#     8   8   8   4   8   8   8
#     4  11  25  42  66  99 139 173 225 281 331 397
#     4  10  23  42  66  95 135 185 220 271 342 406
#     4  11  22  44  68  90 133 188 224 264 338 411
#     4  10  22  44  70 106 132 174 234 276 342 398
#     4  10  23  39  73  97 136 177 227 273 333 415
#     4  12  22  41  74 102 131 177 232 280 331 399
#     4  12  27  41  65 101 136 174 225 285 330 397
#
# _framework density 20.551777999999999
#
# number of rings (size 3 to 8) (size 9 to 14) (size 15 to 20)
#    0.462    0.615    3.077    2.769    6.462    0.000 
#    0.000    5.385    0.000    0.000    0.000    0.000 
#    0.000    0.000    0.000    0.000    0.000    0.000 
#
# Total GULP energy -145293.187586 kJ/mol
# GULP energy per Si atom -5588.199523 kJ/mol
# Density = 2.050500 g / cm^3
# Si number density = 20.551778 Si / 1000 Ang^3
#
#
#
# Elastic Constant Matrix: (Units=GPa)
#
#
# Indices 1 2 3 4 5 6 
#
# 1 101.9621 52.4480 23.5441 0.0000 -15.1921 0.0000
# 2 52.4480 74.7365 11.1788 0.0000 -8.7119 0.0000
# 3 23.5441 11.1788 88.0688 0.0000 -8.4613 0.0000
# 4 0.0000 0.0000 0.0000 7.9814 0.0000 -4.3568
# 5 -15.1921 -8.7119 -8.4613 0.0000 35.5054 0.0000
# 6 0.0000 0.0000 0.0000 -4.3568 0.0000 32.2385
#
#
#
# Elastic Compliance Matrix: (Units=1/GPa)
#
#
# Indices 1 2 3 4 5 6 
#
# 1 0.016524 -0.010752 -0.002688 0.000000 0.003791 0.000000
# 2 -0.010752 0.020956 0.000273 0.000000 0.000606 0.000000
# 3 -0.002688 0.000273 0.012214 0.000000 0.001827 0.000000
# 4 0.000000 0.000000 0.000000 0.135270 0.000000 0.018281
# 5 0.003791 0.000606 0.001827 0.000000 0.030371 0.000000
# 6 0.000000 0.000000 0.000000 0.018281 0.000000 0.033489
#
#
# Mechanical properties :
#
#
# Convention : Reuss Voigt Hill
#
# Bulk Modulus (GPa) = 42.81075 48.78993 45.80034
# Shear Modulus (GPa) = 17.67118 26.98481 22.32800
#
# Velocity S-wave (km/s) = 2.93548 3.62749 3.29967
# Velocity P-wave (km/s) = 5.68905 6.42934 6.07049
#
# Compressibility (1/GPa) = 0.02335862
#
# Stress axis : x y z
#
# Youngs Moduli (GPa) = 60.51821 47.71975 81.87037
#
# Poissons Ratio (x) = 0.51308 0.22010
# Poissons Ratio (y) = 0.65069 -0.02233
# Poissons Ratio (z) = 0.16270 -0.01301
#
# Static dielectric constant tensor:
#      x y z
#    x 1.739700 0.000000 -0.002290 
#    y 0.000000 1.715510 0.000000 
#    z -0.002290 0.000000 1.722960 
# 
# From -- ./inp_files/82309.got.cif
#   From: 2010.05.17/outbox.cif.g08.bks.cpg/sg15_42_cif.got.tgz:82309.got - 2010.06.03 18:47:42.
