data_PCOD9292939
_publ_section_title
;
Structure prediction by ZEFSAII (Michael W. Deem and Ramdas Pophale) SiO2 
 PCOD9292939
Probable space group: C 2/C
;
_chemical_formula_sum "Si O2"
_cell_formula_units_Z 48
_cell_length_a 24.924178
_cell_length_b 15.570391
_cell_length_c 12.276604
_cell_angle_alpha 90.000000
_cell_angle_beta 26.798071
_cell_angle_gamma 90.000000
_cell_volume 2147.970268
_symmetry_space_group_name_H-M "C 2/C"
_symmetry_group_IT_number 15
_symmetry_cell_setting 'monoclinic'
loop_
_space_group_symop_operation_xyz
x,y,z
-x,y,1/2-z
-x,-y,-z
x,-y,1/2+z
1/2+x,1/2+y,z
1/2-x,1/2+y,1/2-z
1/2-x,1/2-y,-z
1/2+x,1/2-y,1/2+z
loop_
_atom_site_type_symbol
_atom_site_label
_atom_site_fract_x
_atom_site_fract_y
_atom_site_fract_z
Si Si1 0.879752 0.489616 0.904036
Si Si2 0.318257 0.658332 0.453423
Si Si3 0.856085 0.314435 0.831785
Si Si4 0.500000 0.450085 0.750000
Si Si5 0.079831 0.337588 0.297249
Si Si6 0.500000 0.713537 0.750000
Si Si7 0.142081 0.922913 0.860435
O O1 0.830334 0.410234 0.921991
O O2 0.919138 0.570173 0.759599
O O3 0.000000 0.463934 0.750000
O O4 0.765990 0.531920 0.170656
O O5 0.389576 0.607548 0.414467
O O6 0.175399 0.655947 0.723285
O O7 0.364620 0.756476 0.367586
O O8 0.345793 0.613153 0.285115
O O9 0.944822 0.318715 0.569521
O O10 0.935235 0.270231 0.779709
O O11 0.750000 0.250000 0.000000
O O12 0.539784 0.507859 0.574766
O O13 0.600817 0.655568 0.510037
#
# Coordination Sequence:
#
# PCOD9292939 Si02
#       7
#     8   8   8   4   8   4   8
#     4  11  26  45  71 106 142 183 233 297 356 432
#     4  10  22  44  70 102 143 186 238 297 349 429
#     4  12  27  46  74 104 143 189 239 295 362 431
#     4  11  24  36  77 104 136 192 243 294 354 429
#     4  10  24  46  69 100 144 183 230 295 357 419
#     4  11  24  48  71 100 146 190 237 300 350 423
#     4  10  24  45  67 101 142 187 238 297 357 420
#
# _framework density 22.346679000000002
#
# number of rings (size 3 to 8) (size 9 to 14) (size 15 to 20)
#    0.000    1.333    2.500    1.000    8.167    5.333 
#    0.000    0.000    0.000    0.000    0.000    0.000 
#    0.000    0.000    0.000    0.000    0.000    0.000 
#
# Total GULP energy -134034.669445 kJ/mol
# GULP energy per Si atom -5584.777894 kJ/mol
# Density = 2.229582 g / cm^3
# Si number density = 22.346679 Si / 1000 Ang^3
#
#
#
# Elastic Constant Matrix: (Units=GPa)
#
#
# Indices 1 2 3 4 5 6 
#
# 1 21.3537 35.4728 17.1525 0.0000 -3.1890 0.0000
# 2 35.4728 151.7016 50.0341 0.0000 -11.3246 0.0000
# 3 17.1525 50.0341 123.2908 0.0000 -12.5820 0.0000
# 4 0.0000 0.0000 0.0000 40.0136 0.0000 -7.4444
# 5 -3.1890 -11.3246 -12.5820 0.0000 16.5520 0.0000
# 6 0.0000 0.0000 0.0000 -7.4444 0.0000 35.6541
#
#
#
# Elastic Compliance Matrix: (Units=1/GPa)
#
#
# Indices 1 2 3 4 5 6 
#
# 1 0.078247 -0.016957 -0.003957 0.000000 0.000466 0.000000
# 2 -0.016957 0.011435 -0.001969 0.000000 0.003060 0.000000
# 3 -0.003957 -0.001969 0.010023 0.000000 0.005509 0.000000
# 4 0.000000 0.000000 0.000000 0.026002 0.000000 0.005429
# 5 0.000466 0.003060 0.005509 0.000000 0.066787 0.000000
# 6 0.000000 0.000000 0.000000 0.005429 0.000000 0.029181
#
#
# Mechanical properties :
#
#
# Convention : Reuss Voigt Hill
#
# Bulk Modulus (GPa) = 18.53952 55.74055 37.14003
# Shear Modulus (GPa) = 17.51808 31.35637 24.43722
#
# Velocity S-wave (km/s) = 2.80290 3.74997 3.31048
# Velocity P-wave (km/s) = 4.33467 6.61418 5.59181
#
# Compressibility (1/GPa) = 0.05393884
#
# Stress axis : x y z
#
# Youngs Moduli (GPa) = 12.78002 87.45211 99.77292
#
# Poissons Ratio (x) = 1.48291 0.39479
# Poissons Ratio (y) = 0.21671 0.19647
# Poissons Ratio (z) = 0.05057 0.17221
#
# Static dielectric constant tensor:
#      x y z
#    x 1.875260 0.000000 0.115500 
#    y 0.000000 1.836020 0.000000 
#    z 0.115500 0.000000 1.986590 
# 
# From -- ./inp_files/182487.got.cif
#   From: 2010.05.17/outbox.cif.g08.bks.cpg/sg15_92_cif.got.tgz:182487.got - 2010.06.03 18:47:42.
