data_PCOD9292037
_publ_section_title
;
Structure prediction by ZEFSAII (Michael W. Deem and Ramdas Pophale) SiO2 
 PCOD9292037
Probable space group: C 2/C
;
_chemical_formula_sum "Si O2"
_cell_formula_units_Z 40
_cell_length_a 16.060482
_cell_length_b 6.425759
_cell_length_c 17.604499
_cell_angle_alpha 90.000000
_cell_angle_beta 104.655419
_cell_angle_gamma 90.000000
_cell_volume 1757.688447
_symmetry_space_group_name_H-M "C 2/C"
_symmetry_group_IT_number 15
_symmetry_cell_setting 'monoclinic'
loop_
_space_group_symop_operation_xyz
x,y,z
-x,y,1/2-z
-x,-y,-z
x,-y,1/2+z
1/2+x,1/2+y,z
1/2-x,1/2+y,1/2-z
1/2-x,1/2-y,-z
1/2+x,1/2-y,1/2+z
loop_
_atom_site_type_symbol
_atom_site_label
_atom_site_fract_x
_atom_site_fract_y
_atom_site_fract_z
Si Si1 0.911151 0.379715 0.473972
Si Si2 0.752576 0.341591 0.915261
Si Si3 0.123901 0.603671 0.807528
Si Si4 0.896481 0.182227 0.633756
Si Si5 0.972530 0.168090 0.348696
O O1 0.842031 0.542072 0.425626
O O2 0.884931 0.293936 0.549698
O O3 0.928748 0.192261 0.419696
O O4 0.000000 0.500000 0.500000
O O5 0.721148 0.157275 0.853011
O O6 0.680047 0.515696 0.882155
O O7 0.750000 0.250000 0.000000
O O8 0.110901 0.357105 0.803330
O O9 0.092422 0.737309 0.728493
O O10 0.056797 0.683051 0.857488
O O11 0.986769 0.058007 0.655631
#
# Coordination Sequence:
#
# PCOD9292037 Si02
#       5
#     8   8   8   8   8
#     4  12  22  43  66 102 131 173 229 283 325 394
#     4  11  23  42  66  98 135 176 225 266 337 415
#     4  10  22  43  65  94 137 178 220 268 346 409
#     4  11  22  44  72  91 134 185 216 279 344 399
#     4  10  23  41  66 101 130 170 235 275 331 404
#
# _framework density 22.757162000000001
#
# number of rings (size 3 to 8) (size 9 to 14) (size 15 to 20)
#    0.000    1.200    4.000    2.400    0.000    6.400 
#    3.600    0.000    0.000    0.000    0.000    0.000 
#    0.000    0.000    0.000    0.000    0.000    0.000 
#
# Total GULP energy -111751.252077 kJ/mol
# GULP energy per Si atom -5587.562604 kJ/mol
# Density = 2.270537 g / cm^3
# Si number density = 22.757162 Si / 1000 Ang^3
#
#
#
# Elastic Constant Matrix: (Units=GPa)
#
#
# Indices 1 2 3 4 5 6 
#
# 1 68.2903 21.1396 23.6074 0.0000 34.2282 0.0000
# 2 21.1396 114.0411 33.6914 0.0000 30.9161 0.0000
# 3 23.6074 33.6914 83.3975 0.0000 27.0992 0.0000
# 4 0.0000 0.0000 0.0000 24.7350 0.0000 9.4144
# 5 34.2282 30.9161 27.0992 0.0000 35.5259 0.0000
# 6 0.0000 0.0000 0.0000 9.4144 0.0000 31.1327
#
#
#
# Elastic Compliance Matrix: (Units=1/GPa)
#
#
# Indices 1 2 3 4 5 6 
#
# 1 0.029055 0.002801 0.000707 0.000000 -0.030971 0.000000
# 2 0.002801 0.011965 -0.001816 0.000000 -0.011726 0.000000
# 3 0.000707 -0.001816 0.016263 0.000000 -0.011506 0.000000
# 4 0.000000 0.000000 0.000000 0.045687 0.000000 -0.013815
# 5 -0.030971 -0.011726 -0.011506 0.000000 0.076969 0.000000
# 6 0.000000 0.000000 0.000000 -0.013815 0.000000 0.036298
#
#
# Mechanical properties :
#
#
# Convention : Reuss Voigt Hill
#
# Bulk Modulus (GPa) = 16.48335 46.95619 31.71977
# Shear Modulus (GPa) = 21.45230 30.76475 26.10852
#
# Velocity S-wave (km/s) = 3.07361 3.68077 3.39081
# Velocity P-wave (km/s) = 4.45589 6.22434 5.41283
#
# Compressibility (1/GPa) = 0.06066726
#
# Stress axis : x y z
#
# Youngs Moduli (GPa) = 34.41790 83.57750 61.48833
#
# Poissons Ratio (x) = -0.23412 -0.04350
# Poissons Ratio (y) = -0.09641 0.11169
# Poissons Ratio (z) = -0.02435 0.15181
#
# Static dielectric constant tensor:
#      x y z
#    x 1.832520 0.000000 0.001260 
#    y 0.000000 1.904680 0.000000 
#    z 0.001260 0.000000 1.884690 
# 
# From -- ./inp_files/246296.got.cif
#   From: 2010.05.17/outbox.cif.g08.bks.cpg/sg15_124_cif.got.tgz:246296.got - 2010.06.03 18:47:42.
