data_PCOD9292845
_publ_section_title
;
Structure prediction by ZEFSAII (Michael W. Deem and Ramdas Pophale) SiO2 
 PCOD9292845
Probable space group: C 2/C
;
_chemical_formula_sum "Si O2"
_cell_formula_units_Z 60
_cell_length_a 19.037716
_cell_length_b 26.015852
_cell_length_c 13.218408
_cell_angle_alpha 90.000000
_cell_angle_beta 156.519914
_cell_angle_gamma 90.000000
_cell_volume 2608.461409
_symmetry_space_group_name_H-M "C 2/C"
_symmetry_group_IT_number 15
_symmetry_cell_setting 'monoclinic'
loop_
_space_group_symop_operation_xyz
x,y,z
-x,y,1/2-z
-x,-y,-z
x,-y,1/2+z
1/2+x,1/2+y,z
1/2-x,1/2+y,1/2-z
1/2-x,1/2-y,-z
1/2+x,1/2-y,1/2+z
loop_
_atom_site_type_symbol
_atom_site_label
_atom_site_fract_x
_atom_site_fract_y
_atom_site_fract_z
Si Si1 0.500000 0.184983 0.750000
Si Si2 0.871433 0.397390 0.241309
Si Si3 0.801118 0.623679 0.212390
Si Si4 0.905441 0.123506 0.953749
Si Si5 0.288093 0.924630 0.482811
Si Si6 0.431192 0.778909 0.766541
Si Si7 0.347094 0.695934 0.320330
Si Si8 0.123442 0.973075 0.816250
O O1 0.586555 0.147051 0.782414
O O2 0.338122 0.211383 0.476459
O O3 0.719775 0.376707 0.114756
O O4 0.048110 0.409583 0.535896
O O5 0.800252 0.447912 0.094095
O O6 0.736624 0.595367 0.027017
O O7 0.894048 0.674924 0.292510
O O8 0.677379 0.646608 0.136466
O O9 0.782954 0.114433 0.694801
O O10 0.019535 0.174434 0.087762
O O11 0.029732 0.073597 0.133421
O O12 0.500000 0.930178 0.750000
O O13 0.183314 0.978035 0.331860
O O14 0.500000 0.798303 0.750000
O O15 0.250000 0.750000 0.500000
O O16 0.566774 0.740251 0.998871
O O17 0.000000 0.986460 0.750000
#
# Coordination Sequence:
#
# PCOD9292845 Si02
#       8
#     4   8   8   8   8   8   8   8
#     4  10  22  46  72 100 136 178 232 278 348 406
#     4  10  22  44  68  97 138 179 225 286 339 408
#     4  11  25  44  67 103 137 178 232 278 348 415
#     4  11  23  43  68 100 137 178 232 281 350 401
#     4  12  25  41  65 100 139 181 230 284 342 410
#     4  12  25  45  70 103 142 179 225 284 349 418
#     4  11  25  43  75 100 135 186 227 285 348 410
#     4  10  24  43  64  96 137 185 234 281 341 408
#
# _framework density 23.002065999999999
#
# number of rings (size 3 to 8) (size 9 to 14) (size 15 to 20)
#    0.000    1.067    4.000    1.600    4.667    0.533 
#    0.000    2.667    4.400    0.000    0.000    0.000 
#    0.000    0.000    0.000    0.000    0.000    0.000 
#
# Total GULP energy -167922.914241 kJ/mol
# GULP energy per Si atom -5597.430475 kJ/mol
# Density = 2.294971 g / cm^3
# Si number density = 23.002066 Si / 1000 Ang^3
#
#
#
# Elastic Constant Matrix: (Units=GPa)
#
#
# Indices 1 2 3 4 5 6 
#
# 1 71.7796 5.1156 13.4740 0.0000 -10.4036 0.0000
# 2 5.1156 46.8174 34.6699 0.0000 -1.2795 0.0000
# 3 13.4740 34.6699 106.6595 0.0000 -20.5684 0.0000
# 4 0.0000 0.0000 0.0000 31.2282 0.0000 1.1718
# 5 -10.4036 -1.2795 -20.5684 0.0000 32.0137 0.0000
# 6 0.0000 0.0000 0.0000 1.1718 0.0000 30.9335
#
#
#
# Elastic Compliance Matrix: (Units=1/GPa)
#
#
# Indices 1 2 3 4 5 6 
#
# 1 0.014758 -0.000958 -0.000725 0.000000 0.004292 0.000000
# 2 -0.000958 0.029043 -0.010450 0.000000 -0.005865 0.000000
# 3 -0.000725 -0.010450 0.014540 0.000000 0.008688 0.000000
# 4 0.000000 0.000000 0.000000 0.032068 0.000000 -0.001215
# 5 0.004292 -0.005865 0.008688 0.000000 0.037979 0.000000
# 6 0.000000 0.000000 0.000000 -0.001215 0.000000 0.032373
#
#
# Mechanical properties :
#
#
# Convention : Reuss Voigt Hill
#
# Bulk Modulus (GPa) = 29.34894 36.86395 33.10644
# Shear Modulus (GPa) = 25.46007 30.30154 27.88081
#
# Velocity S-wave (km/s) = 3.33056 3.63346 3.48530
# Velocity P-wave (km/s) = 5.25139 5.80205 5.53358
#
# Compressibility (1/GPa) = 0.03407279
#
# Stress axis : x y z
#
# Youngs Moduli (GPa) = 67.75987 34.43192 68.77769
#
# Poissons Ratio (x) = 0.03299 0.04988
# Poissons Ratio (y) = 0.06493 0.71875
# Poissons Ratio (z) = 0.04914 0.35983
#
# Static dielectric constant tensor:
#      x y z
#    x 1.880260 0.000000 0.007440 
#    y 0.000000 1.805700 0.000000 
#    z 0.007440 0.000000 1.906250 
# 
# From -- ./inp_files/169978.got.cif
#   From: 2010.05.17/outbox.cif.g08.bks.cpg/sg15_85_cif.got.tgz:169978.got - 2010.06.03 18:47:42.
