data_PCOD9292347
_publ_section_title
;
Structure prediction by ZEFSAII (Michael W. Deem and Ramdas Pophale) SiO2 
 PCOD9292347
Probable space group: C 2/C
;
_chemical_formula_sum "Si O2"
_cell_formula_units_Z 44
_cell_length_a 13.260601
_cell_length_b 20.301934
_cell_length_c 9.243618
_cell_angle_alpha 90.000000
_cell_angle_beta 118.709485
_cell_angle_gamma 90.000000
_cell_volume 2182.605313
_symmetry_space_group_name_H-M "C 2/C"
_symmetry_group_IT_number 15
_symmetry_cell_setting 'monoclinic'
loop_
_space_group_symop_operation_xyz
x,y,z
-x,y,1/2-z
-x,-y,-z
x,-y,1/2+z
1/2+x,1/2+y,z
1/2-x,1/2+y,1/2-z
1/2-x,1/2-y,-z
1/2+x,1/2-y,1/2+z
loop_
_atom_site_type_symbol
_atom_site_label
_atom_site_fract_x
_atom_site_fract_y
_atom_site_fract_z
Si Si1 0.500000 0.119469 0.250000
Si Si2 0.823204 0.935161 0.364217
Si Si3 0.248994 0.932444 0.524141
Si Si4 0.310596 0.813438 0.108856
Si Si5 0.985349 0.290508 0.460813
Si Si6 0.034983 0.853081 0.440164
O O1 0.617703 0.077969 0.343572
O O2 0.503182 0.168027 0.387736
O O3 0.765534 0.877567 0.420852
O O4 0.956093 0.913622 0.439015
O O5 0.798604 0.002590 0.429799
O O6 0.771534 0.936534 0.164224
O O7 0.168734 0.872977 0.529103
O O8 0.361537 0.798331 0.301935
O O9 0.419286 0.821002 0.078945
O O10 0.250000 0.750000 0.000000
O O11 0.997590 0.212535 0.495304
O O12 0.000000 0.840569 0.250000
#
# Coordination Sequence:
#
# PCOD9292347 Si02
#       6
#     4   8   8   8   8   8
#     4  12  26  44  68 102 138 184 230 272 342 412
#     4  11  24  47  67  99 136 178 231 281 337 405
#     4  11  27  43  69  97 138 185 225 278 338 409
#     4  11  24  43  67 101 136 174 226 282 343 398
#     4  11  24  41  69 102 136 177 225 287 340 402
#     4  10  22  43  70 101 132 172 228 287 340 394
#
# _framework density 20.159393000000001
#
# number of rings (size 3 to 8) (size 9 to 14) (size 15 to 20)
#    0.000    1.091    4.545    0.545    5.091    2.909 
#    0.000    0.000    0.000    0.000    0.000    0.000 
#    0.000    0.000    0.000    0.000    0.000    0.000 
#
# Total GULP energy -122832.602690 kJ/mol
# GULP energy per Si atom -5583.300122 kJ/mol
# Density = 2.011351 g / cm^3
# Si number density = 20.159393 Si / 1000 Ang^3
#
#
#
# Elastic Constant Matrix: (Units=GPa)
#
#
# Indices 1 2 3 4 5 6 
#
# 1 97.4492 30.3535 28.1136 0.0000 5.8657 0.0000
# 2 30.3535 75.0209 17.2227 0.0000 -13.2427 0.0000
# 3 28.1136 17.2227 54.6678 0.0000 -12.9111 0.0000
# 4 0.0000 0.0000 0.0000 24.5365 0.0000 -9.1072
# 5 5.8657 -13.2427 -12.9111 0.0000 32.9794 0.0000
# 6 0.0000 0.0000 0.0000 -9.1072 0.0000 41.6366
#
#
#
# Elastic Compliance Matrix: (Units=1/GPa)
#
#
# Indices 1 2 3 4 5 6 
#
# 1 0.014672 -0.005565 -0.007643 0.000000 -0.007836 0.000000
# 2 -0.005565 0.017085 -0.000735 0.000000 0.007562 0.000000
# 3 -0.007643 -0.000735 0.025019 0.000000 0.010859 0.000000
# 4 0.000000 0.000000 0.000000 0.044357 0.000000 0.009702
# 5 -0.007836 0.007562 0.010859 0.000000 0.039003 0.000000
# 6 0.000000 0.000000 0.000000 0.009702 0.000000 0.026140
#
#
# Mechanical properties :
#
#
# Convention : Reuss Voigt Hill
#
# Bulk Modulus (GPa) = 34.61288 42.05749 38.33518
# Shear Modulus (GPa) = 24.53517 29.92703 27.23110
#
# Velocity S-wave (km/s) = 3.49242 3.85713 3.67930
# Velocity P-wave (km/s) = 5.78529 6.38313 6.09155
#
# Compressibility (1/GPa) = 0.02889098
#
# Stress axis : x y z
#
# Youngs Moduli (GPa) = 68.15889 58.53183 39.97024
#
# Poissons Ratio (x) = 0.32572 0.30547
# Poissons Ratio (y) = 0.37929 0.02936
# Poissons Ratio (z) = 0.52091 0.04300
#
# Static dielectric constant tensor:
#      x y z
#    x 1.731520 0.000000 0.025240 
#    y 0.000000 1.686590 0.000000 
#    z 0.025240 0.000000 1.710500 
# 
# From -- ./inp_files/31004.got.cif
#   From: 2010.05.17/outbox.cif.g08.bks.cpg/sg15_16_cif.got.tgz:31004.got - 2010.06.03 18:47:42.
