data_PCOD9292605
_publ_section_title
;
Structure prediction by ZEFSAII (Michael W. Deem and Ramdas Pophale) SiO2 
 PCOD9292605
Probable space group: C 2/C
;
_chemical_formula_sum "Si O2"
_cell_formula_units_Z 48
_cell_length_a 23.788579
_cell_length_b 7.628455
_cell_length_c 11.057747
_cell_angle_alpha 90.000000
_cell_angle_beta 94.292441
_cell_angle_gamma 90.000000
_cell_volume 2001.021882
_symmetry_space_group_name_H-M "C 2/C"
_symmetry_group_IT_number 15
_symmetry_cell_setting 'monoclinic'
loop_
_space_group_symop_operation_xyz
x,y,z
-x,y,1/2-z
-x,-y,-z
x,-y,1/2+z
1/2+x,1/2+y,z
1/2-x,1/2+y,1/2-z
1/2-x,1/2-y,-z
1/2+x,1/2-y,1/2+z
loop_
_atom_site_type_symbol
_atom_site_label
_atom_site_fract_x
_atom_site_fract_y
_atom_site_fract_z
Si Si1 0.841913 0.192001 0.583368
Si Si2 0.175080 0.785730 0.674515
Si Si3 0.564095 0.192958 0.764580
Si Si4 0.774812 0.170820 0.813558
Si Si5 0.937519 0.286301 0.770360
Si Si6 0.131478 0.201960 0.505872
O O1 0.822110 0.289669 0.459605
O O2 0.798749 0.221962 0.685418
O O3 0.900471 0.256150 0.645764
O O4 0.852446 0.986668 0.551224
O O5 0.109340 0.799460 0.693676
O O6 0.208090 0.686110 0.786386
O O7 0.205138 0.972109 0.674465
O O8 0.500000 0.260180 0.750000
O O9 0.562098 0.996330 0.710887
O O10 0.593296 0.196931 0.901725
O O11 0.808851 0.268675 0.925685
O O12 0.907747 0.196318 0.880194
O O13 0.000000 0.225097 0.750000
#
# Coordination Sequence:
#
# PCOD9292605 Si02
#       6
#     8   8   8   8   8   8
#     4  10  22  44  64  98 135 169 225 274 337 392
#     4  11  24  42  68  97 134 177 219 280 331 396
#     4  11  26  44  67  98 136 178 224 271 337 392
#     4  10  23  43  64 101 131 173 226 270 339 396
#     4  10  25  41  66  99 130 180 226 268 331 396
#     4  10  23  45  65  95 138 170 225 275 325 403
#
# _framework density 23.987743999999999
#
# number of rings (size 3 to 8) (size 9 to 14) (size 15 to 20)
#    0.000    1.667    1.667    0.500    9.333    3.333 
#    0.000    0.000    0.000    0.000    0.000    0.000 
#    0.000    0.000    0.000    0.000    0.000    0.000 
#
# Total GULP energy -134047.559194 kJ/mol
# GULP energy per Si atom -5585.314966 kJ/mol
# Density = 2.393315 g / cm^3
# Si number density = 23.987744 Si / 1000 Ang^3
#
#
#
# Elastic Constant Matrix: (Units=GPa)
#
#
# Indices 1 2 3 4 5 6 
#
# 1 145.2363 18.9570 36.6529 0.0000 37.1729 0.0000
# 2 18.9570 64.1741 1.4669 0.0000 -1.6362 0.0000
# 3 36.6529 1.4669 127.4302 0.0000 18.3478 0.0000
# 4 0.0000 0.0000 0.0000 19.9332 0.0000 7.9547
# 5 37.1729 -1.6362 18.3478 0.0000 26.1309 0.0000
# 6 0.0000 0.0000 0.0000 7.9547 0.0000 24.0792
#
#
#
# Elastic Compliance Matrix: (Units=1/GPa)
#
#
# Indices 1 2 3 4 5 6 
#
# 1 0.011839 -0.003892 -0.001002 0.000000 -0.016382 0.000000
# 2 -0.003892 0.016902 -0.000027 0.000000 0.006614 0.000000
# 3 -0.001002 -0.000027 0.008823 0.000000 -0.004772 0.000000
# 4 0.000000 0.000000 0.000000 0.057786 0.000000 -0.019090
# 5 -0.016382 0.006614 -0.004772 0.000000 0.065338 0.000000
# 6 0.000000 0.000000 0.000000 -0.019090 0.000000 0.047836
#
#
# Mechanical properties :
#
#
# Convention : Reuss Voigt Hill
#
# Bulk Modulus (GPa) = 36.07345 50.11047 43.09196
# Shear Modulus (GPa) = 21.96773 32.67958 27.32366
#
# Velocity S-wave (km/s) = 3.02948 3.69500 3.37867
# Velocity P-wave (km/s) = 5.22570 6.25615 5.76400
#
# Compressibility (1/GPa) = 0.02772122
#
# Stress axis : x y z
#
# Youngs Moduli (GPa) = 84.46540 59.16605 113.34114
#
# Poissons Ratio (x) = 0.23028 0.11354
# Poissons Ratio (y) = 0.32874 0.00311
# Poissons Ratio (z) = 0.08461 0.00162
#
# Static dielectric constant tensor:
#      x y z
#    x 1.948410 0.000000 0.014760 
#    y 0.000000 1.956120 0.000000 
#    z 0.014760 0.000000 1.968490 
# 
# From -- ./inp_files/116734.got.cif
#   From: 2010.05.17/outbox.cif.g08.bks.cpg/sg15_59_cif.got.tgz:116734.got - 2010.06.03 18:47:42.
