data_PCOD9292555
_publ_section_title
;
Structure prediction by ZEFSAII (Michael W. Deem and Ramdas Pophale) SiO2 
 PCOD9292555
Probable space group: C 2/C
;
_chemical_formula_sum "Si O2"
_cell_formula_units_Z 44
_cell_length_a 6.718800
_cell_length_b 24.993409
_cell_length_c 13.817707
_cell_angle_alpha 90.000000
_cell_angle_beta 106.846996
_cell_angle_gamma 90.000000
_cell_volume 2220.763872
_symmetry_space_group_name_H-M "C 2/C"
_symmetry_group_IT_number 15
_symmetry_cell_setting 'monoclinic'
loop_
_space_group_symop_operation_xyz
x,y,z
-x,y,1/2-z
-x,-y,-z
x,-y,1/2+z
1/2+x,1/2+y,z
1/2-x,1/2+y,1/2-z
1/2-x,1/2-y,-z
1/2+x,1/2-y,1/2+z
loop_
_atom_site_type_symbol
_atom_site_label
_atom_site_fract_x
_atom_site_fract_y
_atom_site_fract_z
Si Si1 0.917340 0.557157 0.524656
Si Si2 0.369967 0.680414 0.825078
Si Si3 0.500000 0.901776 0.250000
Si Si4 0.561756 0.119524 0.356787
Si Si5 0.470545 0.629063 0.028511
Si Si6 0.710681 0.295938 0.842562
O O1 0.672342 0.575482 0.488590
O O2 0.000000 0.500000 0.500000
O O3 0.984255 0.566866 0.645709
O O4 0.014141 0.594579 0.454738
O O5 0.500000 0.696124 0.750000
O O6 0.196750 0.637449 0.771872
O O7 0.266507 0.733777 0.852977
O O8 0.504205 0.650048 0.924842
O O9 0.500000 0.087708 0.250000
O O10 0.410932 0.171433 0.331832
O O11 0.808734 0.125293 0.389176
O O12 0.341770 0.675651 0.063857
O O13 0.500000 0.302058 0.750000
#
# Coordination Sequence:
#
# PCOD9292555 Si02
#       6
#     8   8   4   8   8   8
#     4  10  24  42  68  95 124 166 215 272 333 385
#     4  11  22  37  62  91 129 176 213 260 318 388
#     4  10  22  44  62  92 140 164 216 270 320 394
#     4  11  22  39  65  92 130 167 213 269 318 391
#     4  10  23  41  62  92 128 167 216 267 321 385
#     4  11  21  37  59  93 129 173 217 259 321 379
#
# _framework density 19.813002000000001
#
# number of rings (size 3 to 8) (size 9 to 14) (size 15 to 20)
#    0.000    1.455    2.727    2.182    1.273    1.455 
#    0.000    0.000    8.000    0.000    0.000    0.000 
#    0.000    0.000    0.000    0.000    0.000    0.000 
#
# Total GULP energy -122561.802462 kJ/mol
# GULP energy per Si atom -5570.991021 kJ/mol
# Density = 1.976791 g / cm^3
# Si number density = 19.813002 Si / 1000 Ang^3
#
#
#
# Elastic Constant Matrix: (Units=GPa)
#
#
# Indices 1 2 3 4 5 6 
#
# 1 95.7914 47.3819 59.8618 0.0000 2.1105 0.0000
# 2 47.3819 111.4576 56.0741 0.0000 10.8603 0.0000
# 3 59.8618 56.0741 144.1226 0.0000 4.2354 0.0000
# 4 0.0000 0.0000 0.0000 18.7721 0.0000 -6.7761
# 5 2.1105 10.8603 4.2354 0.0000 39.3294 0.0000
# 6 0.0000 0.0000 0.0000 -6.7761 0.0000 -1.4979
#
#
#
# Elastic Compliance Matrix: (Units=1/GPa)
#
#
# Indices 1 2 3 4 5 6 
#
# 1 0.015544 -0.004266 -0.004822 0.000000 0.000863 0.000000
# 2 -0.004266 0.012603 -0.003045 0.000000 -0.002923 0.000000
# 3 -0.004822 -0.003045 0.010126 0.000000 0.000009 0.000000
# 4 0.000000 0.000000 0.000000 0.020233 0.000000 -0.091527
# 5 0.000863 -0.002923 0.000009 0.000000 0.026186 0.000000
# 6 0.000000 0.000000 0.000000 -0.091527 0.000000 -0.253559
#
#
# Mechanical properties :
#
#
# Convention : Reuss Voigt Hill
#
# Bulk Modulus (GPa) = 71.39988 75.33415 73.36701
# Shear Modulus (GPa) = -35.73127 23.85763 -5.93682
#
# Velocity S-wave (km/s) = -4.25128 3.47384 -1.73290
# Velocity P-wave (km/s) = 3.46659 7.36174 5.75380
#
# Compressibility (1/GPa) = 0.01400563
#
# Stress axis : x y z
#
# Youngs Moduli (GPa) = 64.33501 79.34865 98.75715
#
# Poissons Ratio (x) = 0.33851 0.47617
# Poissons Ratio (y) = 0.27446 0.30076
# Poissons Ratio (z) = 0.31020 0.24165
#
# Static dielectric constant tensor:
#      x y z
#    x 1.707430 0.000000 -0.013990 
#    y 0.000000 1.698210 0.000000 
#    z -0.013990 0.000000 1.738420 
# 
# From -- ./inp_files/129970.got.cif
#   From: 2010.05.17/outbox.cif.g08.bks.cpg/sg15_65_cif.got.tgz:129970.got - 2010.06.03 18:47:42.
