data_PCOD9292208
_publ_section_title
;
Structure prediction by ZEFSAII (Michael W. Deem and Ramdas Pophale) SiO2 
 PCOD9292208
Probable space group: C 2/C
;
_chemical_formula_sum "Si O2"
_cell_formula_units_Z 40
_cell_length_a 14.832513
_cell_length_b 7.894257
_cell_length_c 12.986754
_cell_angle_alpha 90.000000
_cell_angle_beta 78.469408
_cell_angle_gamma 90.000000
_cell_volume 1489.951314
_symmetry_space_group_name_H-M "C 2/C"
_symmetry_group_IT_number 15
_symmetry_cell_setting 'monoclinic'
loop_
_space_group_symop_operation_xyz
x,y,z
-x,y,1/2-z
-x,-y,-z
x,-y,1/2+z
1/2+x,1/2+y,z
1/2-x,1/2+y,1/2-z
1/2-x,1/2-y,-z
1/2+x,1/2-y,1/2+z
loop_
_atom_site_type_symbol
_atom_site_label
_atom_site_fract_x
_atom_site_fract_y
_atom_site_fract_z
Si Si1 0.104967 0.143191 0.885499
Si Si2 0.729826 0.018459 0.529796
Si Si3 0.257378 0.310677 0.327026
Si Si4 0.981763 0.544400 0.377363
Si Si5 0.930253 0.220120 0.172458
O O1 0.153833 0.170338 0.763125
O O2 0.024270 0.279801 0.907053
O O3 0.189082 0.145799 0.949419
O O4 0.067058 0.952508 0.891395
O O5 0.747081 0.851718 0.597908
O O6 0.746946 0.967818 0.406952
O O7 0.620414 0.024109 0.575653
O O8 0.172637 0.271094 0.270282
O O9 0.000000 0.553231 0.250000
O O10 0.954965 0.612369 0.603298
O O11 0.000000 0.198798 0.250000
#
# Coordination Sequence:
#
# PCOD9292208 Si02
#       5
#     8   8   8   8   8
#     4  11  22  43  74  96 136 196 230 284 374 420
#     4  10  23  44  68 103 143 182 236 295 358 431
#     4  10  22  43  67  98 144 178 228 299 350 423
#     4  11  21  42  69  97 138 184 231 296 358 416
#     4  10  23  39  65 102 130 174 240 290 336 439
#
# _framework density 26.846513000000002
#
# number of rings (size 3 to 8) (size 9 to 14) (size 15 to 20)
#    0.000    1.600    2.000    3.000    2.800    0.800 
#    3.600    4.000    0.000    2.400    0.000    0.000 
#    0.000    0.000    0.000    0.000    0.000    0.000 
#
# Total GULP energy -111875.546834 kJ/mol
# GULP energy per Si atom -5593.777342 kJ/mol
# Density = 2.678541 g / cm^3
# Si number density = 26.846513 Si / 1000 Ang^3
#
#
#
# Elastic Constant Matrix: (Units=GPa)
#
#
# Indices 1 2 3 4 5 6 
#
# 1 127.3837 58.9081 33.8412 0.0000 15.6259 0.0000
# 2 58.9081 167.6101 4.6717 0.0000 -5.0933 0.0000
# 3 33.8412 4.6717 108.8047 0.0000 7.2021 0.0000
# 4 0.0000 0.0000 0.0000 20.3004 0.0000 8.9399
# 5 15.6259 -5.0933 7.2021 0.0000 35.3585 0.0000
# 6 0.0000 0.0000 0.0000 8.9399 0.0000 47.6849
#
#
#
# Elastic Compliance Matrix: (Units=1/GPa)
#
#
# Indices 1 2 3 4 5 6 
#
# 1 0.011056 -0.003951 -0.002948 0.000000 -0.004855 0.000000
# 2 -0.003951 0.007415 0.000734 0.000000 0.002665 0.000000
# 3 -0.002948 0.000734 0.010119 0.000000 -0.000653 0.000000
# 4 0.000000 0.000000 0.000000 0.053693 0.000000 -0.010066
# 5 -0.004855 0.002665 -0.000653 0.000000 0.030944 0.000000
# 6 0.000000 0.000000 0.000000 -0.010066 0.000000 0.022858
#
#
# Mechanical properties :
#
#
# Convention : Reuss Voigt Hill
#
# Bulk Modulus (GPa) = 61.49570 66.51560 64.00565
# Shear Modulus (GPa) = 32.50214 41.09394 36.79804
#
# Velocity S-wave (km/s) = 3.48324 3.91666 3.70629
# Velocity P-wave (km/s) = 6.25567 6.72931 6.49681
#
# Compressibility (1/GPa) = 0.01626130
#
# Stress axis : x y z
#
# Youngs Moduli (GPa) = 90.44774 134.85442 98.82112
#
# Poissons Ratio (x) = 0.53283 0.29130
# Poissons Ratio (y) = 0.35737 -0.07255
# Poissons Ratio (z) = 0.26662 -0.09900
#
# Static dielectric constant tensor:
#      x y z
#    x 2.166800 0.000000 0.013050 
#    y 0.000000 2.129090 0.000000 
#    z 0.013050 0.000000 2.166690 
# 
# From -- ./inp_files/94907.got.cif
#   From: 2010.05.17/outbox.cif.g08.bks.cpg/sg15_48_cif.got.tgz:94907.got - 2010.06.03 18:47:42.
