data_PCOD9292628
_publ_section_title
;
Structure prediction by ZEFSAII (Michael W. Deem and Ramdas Pophale) SiO2 
 PCOD9292628
Probable space group: C 2/C
;
_chemical_formula_sum "Si O2"
_cell_formula_units_Z 48
_cell_length_a 26.262492
_cell_length_b 10.118514
_cell_length_c 12.241893
_cell_angle_alpha 90.000000
_cell_angle_beta 39.141040
_cell_angle_gamma 90.000000
_cell_volume 2053.477376
_symmetry_space_group_name_H-M "C 2/C"
_symmetry_group_IT_number 15
_symmetry_cell_setting 'monoclinic'
loop_
_space_group_symop_operation_xyz
x,y,z
-x,y,1/2-z
-x,-y,-z
x,-y,1/2+z
1/2+x,1/2+y,z
1/2-x,1/2+y,1/2-z
1/2-x,1/2-y,-z
1/2+x,1/2-y,1/2+z
loop_
_atom_site_type_symbol
_atom_site_label
_atom_site_fract_x
_atom_site_fract_y
_atom_site_fract_z
Si Si1 0.921797 0.605078 0.301275
Si Si2 0.745716 0.778123 0.833748
Si Si3 0.490828 0.369135 0.643103
Si Si4 0.624435 0.845895 0.232047
Si Si5 0.606772 0.389657 0.255662
Si Si6 0.257898 0.570479 0.828562
O O1 0.914007 0.489123 0.223448
O O2 0.913566 0.748646 0.260676
O O3 0.838383 0.584877 0.505675
O O4 0.000000 0.593576 0.250000
O O5 0.813903 0.684610 0.773534
O O6 0.712290 0.695614 0.789373
O O7 0.777858 0.924149 0.750929
O O8 0.677532 0.807014 0.037119
O O9 0.500000 0.315300 0.750000
O O10 0.445947 0.260323 0.645523
O O11 0.567087 0.407526 0.442514
O O12 0.433467 0.496439 0.748978
O O13 0.701129 0.417173 0.120104
#
# Coordination Sequence:
#
# PCOD9292628 Si02
#       6
#     8   8   8   8   8   8
#     4  11  26  43  66 100 135 173 222 278 334 395
#     4  10  23  41  68  98 129 178 220 271 329 399
#     4  11  23  42  69  95 133 175 220 275 330 401
#     4  10  22  44  65  94 137 171 220 270 333 396
#     4  11  25  43  66 101 131 176 223 276 336 389
#     4  11  24  43  67  99 132 176 225 269 338 396
#
# _framework density 23.374983
#
# number of rings (size 3 to 8) (size 9 to 14) (size 15 to 20)
#    0.000    1.333    1.667    2.500    4.667    4.667 
#    0.000    0.000    0.000    0.000    0.000    0.000 
#    0.000    0.000    0.000    0.000    0.000    0.000 
#
# Total GULP energy -134142.999031 kJ/mol
# GULP energy per Si atom -5589.291626 kJ/mol
# Density = 2.332178 g / cm^3
# Si number density = 23.374983 Si / 1000 Ang^3
#
#
#
# Elastic Constant Matrix: (Units=GPa)
#
#
# Indices 1 2 3 4 5 6 
#
# 1 90.3086 36.8061 17.9459 0.0000 -36.6255 0.0000
# 2 36.8061 180.5023 -10.3708 0.0000 -14.1082 0.0000
# 3 17.9459 -10.3708 26.1926 0.0000 -6.9334 0.0000
# 4 0.0000 0.0000 0.0000 2.2728 0.0000 -1.3479
# 5 -36.6255 -14.1082 -6.9334 0.0000 34.5920 0.0000
# 6 0.0000 0.0000 0.0000 -1.3479 0.0000 42.0618
#
#
#
# Elastic Compliance Matrix: (Units=1/GPa)
#
#
# Indices 1 2 3 4 5 6 
#
# 1 0.023539 -0.003861 -0.012119 0.000000 0.020919 0.000000
# 2 -0.003861 0.006595 0.005161 0.000000 -0.000364 0.000000
# 3 -0.012119 0.005161 0.048246 0.000000 -0.001057 0.000000
# 4 0.000000 0.000000 0.000000 0.448506 0.000000 0.014372
# 5 0.020919 -0.000364 -0.001057 0.000000 0.050697 0.000000
# 6 0.000000 0.000000 0.000000 0.014372 0.000000 0.024235
#
#
# Mechanical properties :
#
#
# Convention : Reuss Voigt Hill
#
# Bulk Modulus (GPa) = 17.62399 42.86288 30.24344
# Shear Modulus (GPa) = 7.78366 32.62680 20.20523
#
# Velocity S-wave (km/s) = 1.82678 3.74009 2.94325
# Velocity P-wave (km/s) = 3.46491 6.08506 4.95144
#
# Compressibility (1/GPa) = 0.05674084
#
# Stress axis : x y z
#
# Youngs Moduli (GPa) = 42.48291 151.61913 20.72724
#
# Poissons Ratio (x) = 0.58541 0.25120
# Poissons Ratio (y) = 0.16403 -0.10696
# Poissons Ratio (z) = 0.51485 -0.78244
#
# Static dielectric constant tensor:
#      x y z
#    x 1.838850 0.000000 -0.031710 
#    y 0.000000 1.850610 0.000000 
#    z -0.031710 0.000000 1.949250 
# 
# From -- ./inp_files/176851.got.cif
#   From: 2010.05.17/outbox.cif.g08.bks.cpg/sg15_89_cif.got.tgz:176851.got - 2010.06.03 18:47:42.
