data_PCOD9292464
_publ_section_title
;
Structure prediction by ZEFSAII (Michael W. Deem and Ramdas Pophale) SiO2 
 PCOD9292464
Probable space group: C 2/C
;
_chemical_formula_sum "Si O2"
_cell_formula_units_Z 40
_cell_length_a 7.210341
_cell_length_b 23.563796
_cell_length_c 10.507450
_cell_angle_alpha 90.000000
_cell_angle_beta 104.038139
_cell_angle_gamma 90.000000
_cell_volume 1731.929976
_symmetry_space_group_name_H-M "C 2/C"
_symmetry_group_IT_number 15
_symmetry_cell_setting 'monoclinic'
loop_
_space_group_symop_operation_xyz
x,y,z
-x,y,1/2-z
-x,-y,-z
x,-y,1/2+z
1/2+x,1/2+y,z
1/2-x,1/2+y,1/2-z
1/2-x,1/2-y,-z
1/2+x,1/2-y,1/2+z
loop_
_atom_site_type_symbol
_atom_site_label
_atom_site_fract_x
_atom_site_fract_y
_atom_site_fract_z
Si Si1 0.000000 0.558202 0.750000
Si Si2 0.279572 0.621325 0.608184
Si Si3 0.004577 0.282805 0.101690
Si Si4 0.390290 0.661452 0.987703
Si Si5 0.793210 0.976679 0.912691
Si Si6 0.000000 0.086581 0.250000
O O1 0.835943 0.593139 0.795415
O O2 0.876545 0.521373 0.628725
O O3 0.504313 0.632646 0.614943
O O4 0.233922 0.577258 0.486604
O O5 0.190608 0.684057 0.588483
O O6 0.967968 0.225368 0.019531
O O7 0.000000 0.267457 0.250000
O O8 0.834001 0.328215 0.057792
O O9 0.436413 0.624865 0.120767
O O10 0.836071 0.954145 0.777411
O O11 0.000000 0.000000 0.000000
#
# Coordination Sequence:
#
# PCOD9292464 Si02
#       6
#     4   8   8   8   8   4
#     4  12  26  43  66 100 136 181 236 288 340 418
#     4  11  25  43  70  96 136 177 230 275 351 405
#     4  11  23  43  70 102 136 173 228 278 345 423
#     4  10  24  44  69 100 139 173 225 285 346 412
#     4  11  26  43  68  98 137 181 236 292 343 407
#     4  10  22  43  72  90 138 177 226 278 358 400
#
# _framework density 23.095623
#
# number of rings (size 3 to 8) (size 9 to 14) (size 15 to 20)
#    0.000    1.200    2.000    2.400    8.400    2.400 
#    0.000    0.000    0.000    0.000    0.000    0.000 
#    0.000    0.000    0.000    0.000    0.000    0.000 
#
# Total GULP energy -111727.158105 kJ/mol
# GULP energy per Si atom -5586.357905 kJ/mol
# Density = 2.304306 g / cm^3
# Si number density = 23.095623 Si / 1000 Ang^3
#
#
#
# Elastic Constant Matrix: (Units=GPa)
#
#
# Indices 1 2 3 4 5 6 
#
# 1 144.2227 34.5042 44.6369 0.0000 -12.1655 0.0000
# 2 34.5042 79.2148 21.7210 0.0000 -9.6012 0.0000
# 3 44.6369 21.7210 78.7049 0.0000 -26.7979 0.0000
# 4 0.0000 0.0000 0.0000 -29.7775 0.0000 64.2378
# 5 -12.1655 -9.6012 -26.7979 0.0000 46.8359 0.0000
# 6 0.0000 0.0000 0.0000 64.2378 0.0000 -27.6695
#
#
#
# Elastic Compliance Matrix: (Units=1/GPa)
#
#
# Indices 1 2 3 4 5 6 
#
# 1 0.008943 -0.002736 -0.004616 0.000000 -0.000879 0.000000
# 2 -0.002736 0.014519 -0.002091 0.000000 0.001069 0.000000
# 3 -0.004616 -0.002091 0.019060 0.000000 0.009278 0.000000
# 4 0.000000 0.000000 0.000000 0.008378 0.000000 0.019451
# 5 -0.000879 0.001069 0.009278 0.000000 0.026650 0.000000
# 6 0.000000 0.000000 0.000000 0.019451 0.000000 0.009016
#
#
# Mechanical properties :
#
#
# Convention : Reuss Voigt Hill
#
# Bulk Modulus (GPa) = 42.31089 55.98516 49.14802
# Shear Modulus (GPa) = 44.11865 11.29648 27.70756
#
# Velocity S-wave (km/s) = 4.37539 2.21400 3.46741
# Velocity P-wave (km/s) = 6.62458 5.55238 6.11204
#
# Compressibility (1/GPa) = 0.02363458
#
# Stress axis : x y z
#
# Youngs Moduli (GPa) = 111.82140 68.87695 52.46687
#
# Poissons Ratio (x) = 0.18845 0.24219
# Poissons Ratio (y) = 0.30595 0.10971
# Poissons Ratio (z) = 0.51618 0.14403
#
# Static dielectric constant tensor:
#      x y z
#    x 1.816030 0.000000 0.020300 
#    y 0.000000 1.863360 0.000000 
#    z 0.020300 0.000000 1.864150 
# 
# From -- ./inp_files/73264.got.cif
#   From: 2010.05.17/outbox.cif.g08.bks.cpg/sg15_37_cif.got.tgz:73264.got - 2010.06.03 18:47:42.
