data_PCOD9292803
_publ_section_title
;
Structure prediction by ZEFSAII (Michael W. Deem and Ramdas Pophale) SiO2 
 PCOD9292803
Probable space group: C 2/C
;
_chemical_formula_sum "Si O2"
_cell_formula_units_Z 44
_cell_length_a 8.474293
_cell_length_b 11.529931
_cell_length_c 26.012657
_cell_angle_alpha 90.000000
_cell_angle_beta 38.894165
_cell_angle_gamma 90.000000
_cell_volume 1595.857743
_symmetry_space_group_name_H-M "C 2/C"
_symmetry_group_IT_number 15
_symmetry_cell_setting 'monoclinic'
loop_
_space_group_symop_operation_xyz
x,y,z
-x,y,1/2-z
-x,-y,-z
x,-y,1/2+z
1/2+x,1/2+y,z
1/2-x,1/2+y,1/2-z
1/2-x,1/2-y,-z
1/2+x,1/2-y,1/2+z
loop_
_atom_site_type_symbol
_atom_site_label
_atom_site_fract_x
_atom_site_fract_y
_atom_site_fract_z
Si Si1 0.271217 0.159126 0.447669
Si Si2 0.871275 0.904861 0.877296
Si Si3 0.855208 0.267902 0.735246
Si Si4 0.000000 0.613251 0.750000
Si Si5 0.997432 0.424923 0.067407
Si Si6 0.776321 0.339925 0.397401
O O1 0.250000 0.250000 0.500000
O O2 0.424669 0.198741 0.359955
O O3 0.981046 0.138460 0.508351
O O4 0.390571 0.042243 0.437709
O O5 0.772944 0.788557 0.872523
O O6 0.168899 0.878346 0.796884
O O7 0.776631 0.030068 0.881219
O O8 0.692284 0.892420 0.973102
O O9 0.687683 0.179535 0.742708
O O10 0.000000 0.230507 0.750000
O O11 0.184599 0.567884 0.658394
O O12 0.015967 0.337782 0.110167
#
# Coordination Sequence:
#
# PCOD9292803 Si02
#       6
#     8   8   8   4   8   8
#     4  12  22  44  72 103 156 206 253 320 398 463
#     4  10  23  45  70 110 154 191 262 322 381 473
#     4  11  23  44  77 109 151 212 252 320 406 465
#     4  10  22  44  68 110 154 190 262 332 376 466
#     4  11  23  42  72 107 145 204 252 318 395 461
#     4  11  22  43  74 102 151 204 255 319 394 464
#
# _framework density 27.571376000000001
#
# number of rings (size 3 to 8) (size 9 to 14) (size 15 to 20)
#    0.000    1.091    3.636    3.273    0.000    1.455 
#    4.909    0.000    8.000    0.000    0.000    0.000 
#    0.000    0.000    0.000    0.000    0.000    0.000 
#
# Total GULP energy -122810.087991 kJ/mol
# GULP energy per Si atom -5582.276727 kJ/mol
# Density = 2.750862 g / cm^3
# Si number density = 27.571376 Si / 1000 Ang^3
#
#
#
# Elastic Constant Matrix: (Units=GPa)
#
#
# Indices 1 2 3 4 5 6 
#
# 1 141.2318 19.2304 58.4650 -0.0005 4.0794 0.0005
# 2 19.2304 75.9435 5.7668 -0.0003 4.3437 -0.0001
# 3 58.4650 5.7668 177.1735 -0.0026 0.4708 0.0003
# 4 -0.0005 -0.0003 -0.0026 34.2040 -0.0002 3.2521
# 5 4.0794 4.3437 0.4708 -0.0002 59.2193 -0.0003
# 6 0.0005 -0.0001 0.0003 3.2521 -0.0003 47.4216
#
#
#
# Elastic Compliance Matrix: (Units=1/GPa)
#
#
# Indices 1 2 3 4 5 6 
#
# 1 0.008487 -0.001917 -0.002737 0.000000 -0.000422 0.000000
# 2 -0.001917 0.013689 0.000189 0.000000 -0.000874 0.000000
# 3 -0.002737 0.000189 0.006541 0.000000 0.000123 0.000000
# 4 0.000000 0.000000 0.000000 0.029428 0.000000 -0.002018
# 5 -0.000422 -0.000874 0.000123 0.000000 0.016979 0.000000
# 6 0.000000 0.000000 0.000000 -0.002018 0.000000 0.021226
#
#
# Mechanical properties :
#
#
# Convention : Reuss Voigt Hill
#
# Bulk Modulus (GPa) = 50.53822 62.36367 56.45095
# Shear Modulus (GPa) = 44.69311 48.89475 46.79393
#
# Velocity S-wave (km/s) = 4.03053 4.21573 4.12417
# Velocity P-wave (km/s) = 6.32692 6.80916 6.57246
#
# Compressibility (1/GPa) = 0.01978700
#
# Stress axis : x y z
#
# Youngs Moduli (GPa) = 117.82986 73.05300 152.88471
#
# Poissons Ratio (x) = 0.14005 0.41845
# Poissons Ratio (y) = 0.22588 -0.02895
# Poissons Ratio (z) = 0.32250 -0.01383
#
# Static dielectric constant tensor:
#      x y z
#    x 2.377290 0.000000 -0.069310 
#    y 0.000000 2.362470 -0.000010 
#    z -0.069310 -0.000010 2.349660 
# 
# From -- ./inp_files/288582.got.cif
#   From: 2010.05.17/outbox.cif.g08.bks.cpg/sg15_145_cif.got.tgz:288582.got - 2010.06.03 18:47:42.
