data_PCOD9292983
_publ_section_title
;
Structure prediction by ZEFSAII (Michael W. Deem and Ramdas Pophale) SiO2 
 PCOD9292983
Probable space group: C 2/C
;
_chemical_formula_sum "Si O2"
_cell_formula_units_Z 48
_cell_length_a 9.800114
_cell_length_b 20.468075
_cell_length_c 12.200723
_cell_angle_alpha 90.000000
_cell_angle_beta 61.911440
_cell_angle_gamma 90.000000
_cell_volume 2159.091429
_symmetry_space_group_name_H-M "C 2/C"
_symmetry_group_IT_number 15
_symmetry_cell_setting 'monoclinic'
loop_
_space_group_symop_operation_xyz
x,y,z
-x,y,1/2-z
-x,-y,-z
x,-y,1/2+z
1/2+x,1/2+y,z
1/2-x,1/2+y,1/2-z
1/2-x,1/2-y,-z
1/2+x,1/2-y,1/2+z
loop_
_atom_site_type_symbol
_atom_site_label
_atom_site_fract_x
_atom_site_fract_y
_atom_site_fract_z
Si Si1 0.680306 0.424845 0.693352
Si Si2 0.348246 0.376077 0.572763
Si Si3 0.189117 0.864937 0.353107
Si Si4 0.879370 0.748785 0.700183
Si Si5 0.726779 0.933790 0.397682
Si Si6 0.078517 0.627737 0.544757
O O1 0.500000 0.411035 0.750000
O O2 0.704257 0.427678 0.814786
O O3 0.718822 0.491887 0.617088
O O4 0.790062 0.370717 0.597442
O O5 0.530644 0.377090 0.476052
O O6 0.326959 0.306060 0.639470
O O7 0.263056 0.392624 0.492565
O O8 0.234404 0.790068 0.307483
O O9 0.186736 0.902763 0.239671
O O10 0.331308 0.886208 0.376644
O O11 0.000000 0.769657 0.750000
O O12 0.978938 0.693583 0.597502
O O13 0.546309 0.926654 0.438799
#
# Coordination Sequence:
#
# PCOD9292983 Si02
#       6
#     8   8   8   8   8   8
#     4  12  25  42  70 102 135 180 234 278 339 408
#     4  12  25  41  70 104 137 178 227 293 337 401
#     4  10  22  44  70  97 134 184 227 280 340 409
#     4   9  22  41  71 102 134 179 234 278 343 407
#     4  11  26  45  65  99 139 182 228 282 348 398
#     4  10  23  46  69  97 134 185 227 280 340 411
#
# _framework density 22.231573999999998
#
# number of rings (size 3 to 8) (size 9 to 14) (size 15 to 20)
#    0.000    1.333    1.667    4.000    4.667    6.000 
#    3.000    0.000    0.000    0.000    0.000    0.000 
#    0.000    0.000    0.000    0.000    0.000    0.000 
#
# Total GULP energy -134191.156060 kJ/mol
# GULP energy per Si atom -5591.298169 kJ/mol
# Density = 2.218097 g / cm^3
# Si number density = 22.231574 Si / 1000 Ang^3
#
#
#
# Elastic Constant Matrix: (Units=GPa)
#
#
# Indices 1 2 3 4 5 6 
#
# 1 63.8066 22.9536 33.1707 0.0000 5.2740 0.0000
# 2 22.9536 94.6483 23.7676 0.0000 10.0328 0.0000
# 3 33.1707 23.7676 128.2602 0.0000 14.1295 0.0000
# 4 0.0000 0.0000 0.0000 30.3626 0.0000 8.2882
# 5 5.2740 10.0328 14.1295 0.0000 41.2303 0.0000
# 6 0.0000 0.0000 0.0000 8.2882 0.0000 12.8054
#
#
#
# Elastic Compliance Matrix: (Units=1/GPa)
#
#
# Indices 1 2 3 4 5 6 
#
# 1 0.019195 -0.003565 -0.004291 0.000000 -0.000117 0.000000
# 2 -0.003565 0.011916 -0.001057 0.000000 -0.002081 0.000000
# 3 -0.004291 -0.001057 0.009367 0.000000 -0.002404 0.000000
# 4 0.000000 0.000000 0.000000 0.040003 0.000000 -0.025892
# 5 -0.000117 -0.002081 -0.002404 0.000000 0.025599 0.000000
# 6 0.000000 0.000000 0.000000 -0.025892 0.000000 0.094850
#
#
# Mechanical properties :
#
#
# Convention : Reuss Voigt Hill
#
# Bulk Modulus (GPa) = 44.14462 49.61099 46.87780
# Shear Modulus (GPa) = 22.09385 30.66787 26.38086
#
# Velocity S-wave (km/s) = 3.15589 3.71816 3.44850
# Velocity P-wave (km/s) = 5.76015 6.38725 6.08179
#
# Compressibility (1/GPa) = 0.02265282
#
# Stress axis : x y z
#
# Youngs Moduli (GPa) = 52.09642 83.92040 106.75804
#
# Poissons Ratio (x) = 0.29919 0.45806
# Poissons Ratio (y) = 0.18574 0.11282
# Poissons Ratio (z) = 0.22353 0.08869
#
# Static dielectric constant tensor:
#      x y z
#    x 1.793150 0.000000 -0.001230 
#    y 0.000000 1.855820 0.000000 
#    z -0.001230 0.000000 1.842410 
# 
# From -- ./inp_files/79786.got.cif
#   From: 2010.05.17/outbox.cif.g08.bks.cpg/sg15_40_cif.got.tgz:79786.got - 2010.06.03 18:47:42.
