data_PCOD9292589
_publ_section_title
;
Structure prediction by ZEFSAII (Michael W. Deem and Ramdas Pophale) SiO2 
 PCOD9292589
Probable space group: C 2/C
;
_chemical_formula_sum "Si O2"
_cell_formula_units_Z 32
_cell_length_a 7.030204
_cell_length_b 32.633816
_cell_length_c 5.784855
_cell_angle_alpha 90.000000
_cell_angle_beta 80.603755
_cell_angle_gamma 90.000000
_cell_volume 1309.368333
_symmetry_space_group_name_H-M "C 2/C"
_symmetry_group_IT_number 15
_symmetry_cell_setting 'monoclinic'
loop_
_space_group_symop_operation_xyz
x,y,z
-x,y,1/2-z
-x,-y,-z
x,-y,1/2+z
1/2+x,1/2+y,z
1/2-x,1/2+y,1/2-z
1/2-x,1/2-y,-z
1/2+x,1/2-y,1/2+z
loop_
_atom_site_type_symbol
_atom_site_label
_atom_site_fract_x
_atom_site_fract_y
_atom_site_fract_z
Si Si1 0.264295 0.019256 0.799443
Si Si2 0.000000 0.732702 0.250000
Si Si3 0.260105 0.693849 0.898235
Si Si4 0.500000 0.655220 0.250000
Si Si5 0.725213 0.887784 0.133038
O O1 0.500000 0.016635 0.750000
O O2 0.205111 0.066854 0.820761
O O3 0.205016 0.000545 0.560553
O O4 0.173572 0.764782 0.239965
O O5 0.954233 0.703062 0.471088
O O6 0.285542 0.651881 0.763604
O O7 0.395983 0.685737 0.091939
O O8 0.324971 0.625394 0.371014
O O9 0.500000 0.890049 0.250000
#
# Coordination Sequence:
#
# PCOD9292589 Si02
#       5
#     8   4   8   4   8
#     4   9  20  40  68 103 139 181 233 289 346 423
#     4  10  22  44  64  91 134 174 231 278 338 410
#     4  11  23  44  62  97 133 175 226 282 339 412
#     4  12  24  42  66  95 134 180 221 286 336 414
#     4  11  24  43  69  99 134 179 224 278 352 411
#
# _framework density 24.439264000000001
#
# number of rings (size 3 to 8) (size 9 to 14) (size 15 to 20)
#    0.000    1.500    2.500    1.500    3.500    1.000 
#   11.250    1.250    0.000    0.000    0.000    0.000 
#    0.000    0.000    0.000    0.000    0.000    0.000 
#
# Total GULP energy -89175.860888 kJ/mol
# GULP energy per Si atom -5573.491306 kJ/mol
# Density = 2.438364 g / cm^3
# Si number density = 24.439264 Si / 1000 Ang^3
#
#
#
# Elastic Constant Matrix: (Units=GPa)
#
#
# Indices 1 2 3 4 5 6 
#
# 1 82.1726 18.9722 32.4840 0.0000 -13.6750 0.0000
# 2 18.9722 200.5317 81.9858 0.0000 -6.1234 0.0000
# 3 32.4840 81.9858 135.6330 0.0000 -23.6043 0.0000
# 4 0.0000 0.0000 0.0000 40.2158 0.0000 -9.9734
# 5 -13.6750 -6.1234 -23.6043 0.0000 43.5584 0.0000
# 6 0.0000 0.0000 0.0000 -9.9734 0.0000 29.2145
#
#
#
# Elastic Compliance Matrix: (Units=1/GPa)
#
#
# Indices 1 2 3 4 5 6 
#
# 1 0.013745 -0.000091 -0.002747 0.000000 0.002814 0.000000
# 2 -0.000091 0.006699 -0.004271 0.000000 -0.001402 0.000000
# 3 -0.002747 -0.004271 0.011437 0.000000 0.004735 0.000000
# 4 0.000000 0.000000 0.000000 0.027166 0.000000 0.009274
# 5 0.002814 -0.001402 0.004735 0.000000 0.026210 0.000000
# 6 0.000000 0.000000 0.000000 0.009274 0.000000 0.037396
#
#
# Mechanical properties :
#
#
# Convention : Reuss Voigt Hill
#
# Bulk Modulus (GPa) = 56.62214 76.13569 66.37892
# Shear Modulus (GPa) = 35.02446 41.59076 38.30761
#
# Velocity S-wave (km/s) = 3.78977 4.12976 3.96341
# Velocity P-wave (km/s) = 6.50912 7.34579 6.94007
#
# Compressibility (1/GPa) = 0.01766094
#
# Stress axis : x y z
#
# Youngs Moduli (GPa) = 72.75499 149.27877 87.43893
#
# Poissons Ratio (x) = 0.01364 0.24019
# Poissons Ratio (y) = 0.00665 0.37348
# Poissons Ratio (z) = 0.19985 0.63761
#
# Static dielectric constant tensor:
#      x y z
#    x 2.129090 0.000000 -0.105920 
#    y 0.000000 1.847640 0.000000 
#    z -0.105920 0.000000 2.140860 
# 
# From -- ./inp_files/2583.got.cif
#   From: 2010.05.17/outbox.cif.g08.bks.cpg/sg15_2_cif.got.tgz:2583.got - 2010.06.03 18:47:42.
