data_PCOD9292770
_publ_section_title
;
Structure prediction by ZEFSAII (Michael W. Deem and Ramdas Pophale) SiO2 
 PCOD9292770
Probable space group: C 2/C
;
_chemical_formula_sum "Si O2"
_cell_formula_units_Z 44
_cell_length_a 22.420590
_cell_length_b 9.980959
_cell_length_c 20.715811
_cell_angle_alpha 90.000000
_cell_angle_beta 157.554342
_cell_angle_gamma 90.000000
_cell_volume 1769.966906
_symmetry_space_group_name_H-M "C 2/C"
_symmetry_group_IT_number 15
_symmetry_cell_setting 'monoclinic'
loop_
_space_group_symop_operation_xyz
x,y,z
-x,y,1/2-z
-x,-y,-z
x,-y,1/2+z
1/2+x,1/2+y,z
1/2-x,1/2+y,1/2-z
1/2-x,1/2-y,-z
1/2+x,1/2-y,1/2+z
loop_
_atom_site_type_symbol
_atom_site_label
_atom_site_fract_x
_atom_site_fract_y
_atom_site_fract_z
Si Si1 0.735826 0.414195 0.415239
Si Si2 0.582313 0.321828 0.077370
Si Si3 0.500000 0.750357 0.250000
Si Si4 0.596118 0.348944 0.466846
Si Si5 0.766565 0.562642 0.574648
Si Si6 0.775439 0.073657 0.219810
O O1 0.550478 0.390089 0.224029
O O2 0.820563 0.281054 0.477011
O O3 0.785425 0.456606 0.535453
O O4 0.771408 0.530034 0.398706
O O5 0.479158 0.313553 0.039623
O O6 0.664938 0.186060 0.139136
O O7 0.707424 0.437458 0.220851
O O8 0.453602 0.370911 0.897397
O O9 0.625526 0.658218 0.411238
O O10 0.584155 0.842678 0.280540
O O11 0.718074 0.472715 0.586875
#
# Coordination Sequence:
#
# PCOD9292770 Si02
#       6
#     8   8   4   8   8   8
#     4  11  24  41  68  99 132 178 225 290 339 406
#     4  10  22  44  67  98 138 182 229 288 336 408
#     4  10  24  44  68  92 146 172 222 274 344 416
#     4  11  23  42  68  95 135 174 232 282 335 409
#     4  11  23  45  66 102 135 175 224 276 342 419
#     4  10  23  43  65  98 137 175 233 281 343 405
#
# _framework density 24.859221000000002
#
# number of rings (size 3 to 8) (size 9 to 14) (size 15 to 20)
#    0.000    1.455    1.818    2.727    2.545    4.364 
#    9.818    0.000    0.000    0.000    0.000    0.000 
#    0.000    0.000    0.000    0.000    0.000    0.000 
#
# Total GULP energy -123329.408141 kJ/mol
# GULP energy per Si atom -5605.882188 kJ/mol
# Density = 2.480264 g / cm^3
# Si number density = 24.859221 Si / 1000 Ang^3
#
#
#
# Elastic Constant Matrix: (Units=GPa)
#
#
# Indices 1 2 3 4 5 6 
#
# 1 122.1783 66.3184 19.8816 0.0000 17.0754 0.0000
# 2 66.3184 158.0914 48.1643 -0.0001 39.4217 -0.0001
# 3 19.8816 48.1643 50.1788 -0.0001 19.0577 -0.0001
# 4 0.0000 -0.0001 -0.0001 41.0856 0.0000 14.1335
# 5 17.0754 39.4217 19.0577 0.0000 31.4944 0.0000
# 6 0.0000 -0.0001 -0.0001 14.1335 0.0000 43.4183
#
#
#
# Elastic Compliance Matrix: (Units=1/GPa)
#
#
# Indices 1 2 3 4 5 6 
#
# 1 0.010600 -0.004417 0.000159 0.000000 -0.000315 0.000000
# 2 -0.004417 0.012540 -0.006797 0.000000 -0.009189 0.000000
# 3 0.000159 -0.006797 0.030112 0.000000 -0.009799 0.000000
# 4 0.000000 0.000000 0.000000 0.027409 0.000000 -0.008922
# 5 -0.000315 -0.009189 -0.009799 0.000000 0.049355 0.000000
# 6 0.000000 0.000000 0.000000 -0.008922 0.000000 0.025936
#
#
# Mechanical properties :
#
#
# Convention : Reuss Voigt Hill
#
# Bulk Modulus (GPa) = 32.10983 66.57524 49.34254
# Shear Modulus (GPa) = 26.53337 36.27193 31.40265
#
# Velocity S-wave (km/s) = 3.27057 3.82395 3.55804
# Velocity P-wave (km/s) = 5.21602 6.80704 6.06394
#
# Compressibility (1/GPa) = 0.03114311
#
# Stress axis : x y z
#
# Youngs Moduli (GPa) = 94.33723 79.74202 33.20985
#
# Poissons Ratio (x) = 0.35219 -0.00528
# Poissons Ratio (y) = 0.41665 0.22573
# Poissons Ratio (z) = -0.01500 0.54200
#
# Static dielectric constant tensor:
#      x y z
#    x 1.997500 0.000000 -0.005440 
#    y 0.000000 1.957640 0.000000 
#    z -0.005440 0.000000 1.970630 
# 
# From -- ./inp_files/303178.got.cif
#   From: 2010.05.17/outbox.cif.g08.bks.cpg/sg15_152_cif.got.tgz:303178.got - 2010.06.03 18:47:42.
