data_PCOD9292207
_publ_section_title
;
Structure prediction by ZEFSAII (Michael W. Deem and Ramdas Pophale) SiO2 
 PCOD9292207
Probable space group: C 2/C
;
_chemical_formula_sum "Si O2"
_cell_formula_units_Z 52
_cell_length_a 10.756776
_cell_length_b 31.816976
_cell_length_c 8.944874
_cell_angle_alpha 90.000000
_cell_angle_beta 55.906408
_cell_angle_gamma 90.000000
_cell_volume 2535.187682
_symmetry_space_group_name_H-M "C 2/C"
_symmetry_group_IT_number 15
_symmetry_cell_setting 'monoclinic'
loop_
_space_group_symop_operation_xyz
x,y,z
-x,y,1/2-z
-x,-y,-z
x,-y,1/2+z
1/2+x,1/2+y,z
1/2-x,1/2+y,1/2-z
1/2-x,1/2-y,-z
1/2+x,1/2-y,1/2+z
loop_
_atom_site_type_symbol
_atom_site_label
_atom_site_fract_x
_atom_site_fract_y
_atom_site_fract_z
Si Si1 0.000000 0.089058 0.750000
Si Si2 0.516932 0.183755 0.060627
Si Si3 0.090752 0.765392 0.541456
Si Si4 0.310955 0.347302 0.185793
Si Si5 0.865474 0.469819 0.533279
Si Si6 0.343311 0.479460 0.549706
Si Si7 0.122739 0.624479 0.552187
O O1 0.084052 0.119325 0.806387
O O2 0.115016 0.058315 0.588407
O O3 0.500000 0.188547 0.250000
O O4 0.489854 0.227290 0.991222
O O5 0.673034 0.163671 0.893037
O O6 0.387902 0.151910 0.088679
O O7 0.250000 0.750000 0.500000
O O8 0.115238 0.803454 0.411096
O O9 0.000000 0.778347 0.750000
O O10 0.266480 0.369039 0.057510
O O11 0.747416 0.464321 0.746074
O O12 0.769949 0.489690 0.462109
O O13 0.918751 0.423396 0.453727
O O14 0.000000 0.500000 0.500000
O O15 0.500000 0.500000 0.500000
O O16 0.000000 0.643169 0.750000
#
# Coordination Sequence:
#
# PCOD9292207 Si02
#       7
#     4   8   8   8   8   8   8
#     4  12  28  44  72 104 144 186 252 296 354 428
#     4  11  25  42  72 105 145 182 236 298 359 425
#     4  12  23  47  74 102 140 190 237 284 365 437
#     4  11  26  46  70 102 145 187 238 301 353 434
#     4  12  26  42  73 107 136 187 245 294 356 427
#     4  12  25  48  69  97 147 191 232 295 363 429
#     4  10  22  43  67  98 143 184 228 287 358 419
#
# _framework density 20.511302000000001
#
# number of rings (size 3 to 8) (size 9 to 14) (size 15 to 20)
#    0.000    0.615    4.615    2.769    7.538    3.077 
#    0.000    0.000    0.000    0.000    0.000    0.000 
#    0.000    0.000    0.000    0.000    0.000    0.000 
#
# Total GULP energy -145255.392220 kJ/mol
# GULP energy per Si atom -5586.745855 kJ/mol
# Density = 2.046462 g / cm^3
# Si number density = 20.511302 Si / 1000 Ang^3
#
#
#
# Elastic Constant Matrix: (Units=GPa)
#
#
# Indices 1 2 3 4 5 6 
#
# 1 78.3902 21.5289 -3.0108 0.0000 20.3676 0.0000
# 2 21.5289 95.4809 -3.6041 0.0000 22.3539 0.0000
# 3 -3.0108 -3.6041 104.6455 0.0000 12.4267 0.0000
# 4 0.0000 0.0000 0.0000 34.4685 0.0000 16.1332
# 5 20.3676 22.3539 12.4267 0.0000 35.0618 0.0000
# 6 0.0000 0.0000 0.0000 16.1332 0.0000 25.4468
#
#
#
# Elastic Compliance Matrix: (Units=1/GPa)
#
#
# Indices 1 2 3 4 5 6 
#
# 1 0.015424 -0.001422 0.001410 0.000000 -0.008553 0.000000
# 2 -0.001422 0.012646 0.001309 0.000000 -0.007701 0.000000
# 3 0.001410 0.001309 0.010270 0.000000 -0.005294 0.000000
# 4 0.000000 0.000000 0.000000 0.041254 0.000000 -0.026155
# 5 -0.008553 -0.007701 -0.005294 0.000000 0.040275 0.000000
# 6 0.000000 0.000000 0.000000 -0.026155 0.000000 0.055880
#
#
# Mechanical properties :
#
#
# Convention : Reuss Voigt Hill
#
# Bulk Modulus (GPa) = 24.42886 34.26052 29.34469
# Shear Modulus (GPa) = 26.76667 36.56892 31.66779
#
# Velocity S-wave (km/s) = 3.61636 4.22698 3.93354
# Velocity P-wave (km/s) = 5.41970 6.36888 5.91337
#
# Compressibility (1/GPa) = 0.04093519
#
# Stress axis : x y z
#
# Youngs Moduli (GPa) = 64.83538 79.07511 97.36710
#
# Poissons Ratio (x) = 0.11245 -0.13733
# Poissons Ratio (y) = 0.09220 -0.12746
# Poissons Ratio (z) = -0.09145 -0.10352
#
# Static dielectric constant tensor:
#      x y z
#    x 1.806510 0.000000 -0.024000 
#    y 0.000000 1.710540 0.000000 
#    z -0.024000 0.000000 1.750290 
# 
# From -- ./inp_files/34072.got.cif
#   From: 2010.05.17/outbox.cif.g08.bks.cpg/sg15_18_cif.got.tgz:34072.got - 2010.06.03 18:47:42.
