data_PCOD9292132
_publ_section_title
;
Structure prediction by ZEFSAII (Michael W. Deem and Ramdas Pophale) SiO2 
 PCOD9292132
Probable space group: C 2/C
;
_chemical_formula_sum "Si O2"
_cell_formula_units_Z 44
_cell_length_a 20.717433
_cell_length_b 5.185024
_cell_length_c 14.883332
_cell_angle_alpha 90.000000
_cell_angle_beta 88.868958
_cell_angle_gamma 90.000000
_cell_volume 1598.461790
_symmetry_space_group_name_H-M "C 2/C"
_symmetry_group_IT_number 15
_symmetry_cell_setting 'monoclinic'
loop_
_space_group_symop_operation_xyz
x,y,z
-x,y,1/2-z
-x,-y,-z
x,-y,1/2+z
1/2+x,1/2+y,z
1/2-x,1/2+y,1/2-z
1/2-x,1/2-y,-z
1/2+x,1/2-y,1/2+z
loop_
_atom_site_type_symbol
_atom_site_label
_atom_site_fract_x
_atom_site_fract_y
_atom_site_fract_z
Si Si1 0.033625 0.189439 0.410703
Si Si2 0.750000 0.750000 0.000000
Si Si3 0.722529 0.426924 0.702208
Si Si4 0.148407 0.798224 0.405635
Si Si5 0.889437 0.589625 0.743241
Si Si6 0.093157 0.549222 0.561848
O O1 0.048890 0.335391 0.317597
O O2 0.060060 0.349077 0.495477
O O3 0.956687 0.209609 0.423323
O O4 0.079539 0.939885 0.404104
O O5 0.733035 0.586403 0.095571
O O6 0.790525 0.965823 0.070388
O O7 0.743520 0.691221 0.745682
O O8 0.648407 0.350860 0.729725
O O9 0.145974 0.588992 0.328374
O O10 0.155913 0.637263 0.502493
O O11 0.895992 0.450572 0.838707
#
# Coordination Sequence:
#
# PCOD9292132 Si02
#       6
#     8   4   8   8   8   8
#     4  10  23  42  68  99 139 180 246 297 378 453
#     4  12  24  46  70 108 154 200 258 322 398 458
#     4  12  27  47  74 109 150 201 258 320 389 470
#     4  11  23  43  67 101 138 192 240 307 377 464
#     4  11  23  42  66 100 142 185 244 303 374 452
#     4  10  22  43  66  99 138 185 236 309 366 451
#
# _framework density 27.526461999999999
#
# number of rings (size 3 to 8) (size 9 to 14) (size 15 to 20)
#    0.000    1.091    3.636    2.182    0.000    3.636 
#    0.000    5.455    0.000    0.000    0.000    0.000 
#    0.000    0.000    0.000    0.000    0.000    0.000 
#
# Total GULP energy -122469.285931 kJ/mol
# GULP energy per Si atom -5566.785724 kJ/mol
# Density = 2.746381 g / cm^3
# Si number density = 27.526462 Si / 1000 Ang^3
#
#
#
# Elastic Constant Matrix: (Units=GPa)
#
#
# Indices 1 2 3 4 5 6 
#
# 1 73.2769 33.2563 67.4077 0.0000 -3.3511 0.0000
# 2 33.2563 80.7927 47.4323 0.0000 -2.7505 0.0000
# 3 67.4077 47.4323 299.0038 0.0000 -5.2829 0.0000
# 4 0.0000 0.0000 0.0000 26.8388 0.0000 -10.2049
# 5 -3.3511 -2.7505 -5.2829 0.0000 71.9822 0.0000
# 6 0.0000 0.0000 0.0000 -10.2049 0.0000 32.2023
#
#
#
# Elastic Compliance Matrix: (Units=1/GPa)
#
#
# Indices 1 2 3 4 5 6 
#
# 1 0.019570 -0.006016 -0.003450 0.000000 0.000428 0.000000
# 2 -0.006016 0.015507 -0.001100 0.000000 0.000232 0.000000
# 3 -0.003450 -0.001100 0.004299 0.000000 0.000113 0.000000
# 4 0.000000 0.000000 0.000000 0.042364 0.000000 0.013425
# 5 0.000428 0.000232 0.000113 0.000000 0.013929 0.000000
# 6 0.000000 0.000000 0.000000 0.013425 0.000000 0.035308
#
#
# Mechanical properties :
#
#
# Convention : Reuss Voigt Hill
#
# Bulk Modulus (GPa) = 54.80868 83.25179 69.03023
# Shear Modulus (GPa) = 31.60753 46.53648 39.07200
#
# Velocity S-wave (km/s) = 3.39227 4.11616 3.77163
# Velocity P-wave (km/s) = 5.94120 7.27326 6.64071
#
# Compressibility (1/GPa) = 0.01824528
#
# Stress axis : x y z
#
# Youngs Moduli (GPa) = 51.09778 64.48698 232.62958
#
# Poissons Ratio (x) = 0.38792 0.80260
# Poissons Ratio (y) = 0.30738 0.25582
# Poissons Ratio (z) = 0.17629 0.07092
#
# Static dielectric constant tensor:
#      x y z
#    x -0.343970 0.000000 -1.803760 
#    y 0.000000 9.397990 0.000000 
#    z -1.803760 0.000000 1.202900 
# 
# From -- ./inp_files/175439.got.cif
#   From: 2010.05.17/outbox.cif.g08.bks.cpg/sg15_88_cif.got.tgz:175439.got - 2010.06.03 18:47:42.
