data_PCOD9292244
_publ_section_title
;
Structure prediction by ZEFSAII (Michael W. Deem and Ramdas Pophale) SiO2 
 PCOD9292244
Probable space group: C 2/C
;
_chemical_formula_sum "Si O2"
_cell_formula_units_Z 48
_cell_length_a 20.294325
_cell_length_b 5.089867
_cell_length_c 25.617686
_cell_angle_alpha 90.000000
_cell_angle_beta 136.987256
_cell_angle_gamma 90.000000
_cell_volume 1805.127320
_symmetry_space_group_name_H-M "C 2/C"
_symmetry_group_IT_number 15
_symmetry_cell_setting 'monoclinic'
loop_
_space_group_symop_operation_xyz
x,y,z
-x,y,1/2-z
-x,-y,-z
x,-y,1/2+z
1/2+x,1/2+y,z
1/2-x,1/2+y,1/2-z
1/2-x,1/2-y,-z
1/2+x,1/2-y,1/2+z
loop_
_atom_site_type_symbol
_atom_site_label
_atom_site_fract_x
_atom_site_fract_y
_atom_site_fract_z
Si Si1 0.649538 0.114369 0.144338
Si Si2 0.325438 0.534588 0.093751
Si Si3 0.532862 0.103140 0.856077
Si Si4 0.500000 0.500000 0.500000
Si Si5 0.129539 0.732525 0.488753
Si Si6 0.139595 0.104147 0.209889
Si Si7 0.500000 0.723612 0.750000
O O1 0.765134 0.145765 0.200026
O O2 0.642132 0.313277 0.189082
O O3 0.637733 0.814088 0.159427
O O4 0.573654 0.242600 0.060473
O O5 0.360255 0.833032 0.104567
O O6 0.343386 0.410379 0.046259
O O7 0.406202 0.434317 0.179980
O O8 0.223081 0.442677 0.054855
O O9 0.462553 0.347494 0.822188
O O10 0.550711 0.970005 0.921338
O O11 0.479152 0.913800 0.785990
O O12 0.583288 0.395614 0.508136
#
# Coordination Sequence:
#
# PCOD9292244 Si02
#       7
#     8   8   8   4   8   8   4
#     4  10  23  42  65 100 142 186 247 298 392 447
#     4  10  22  44  67  95 141 189 240 315 379 457
#     4  11  21  41  66  96 135 189 244 313 380 456
#     4  12  22  42  68 110 144 188 248 318 372 480
#     4  10  23  41  67  98 142 187 243 303 386 456
#     4  10  22  43  68  94 138 198 235 310 375 467
#     4  10  24  38  66  98 128 176 256 302 370 442
#
# _framework density 26.590923
#
# number of rings (size 3 to 8) (size 9 to 14) (size 15 to 20)
#    0.000    1.667    1.667    2.000    4.667    0.667 
#    3.000    1.667    0.000    0.000    0.000    0.000 
#    0.000    0.000    0.000    0.000    0.000    0.000 
#
# Total GULP energy -133866.077717 kJ/mol
# GULP energy per Si atom -5577.753238 kJ/mol
# Density = 2.653040 g / cm^3
# Si number density = 26.590923 Si / 1000 Ang^3
#
#
#
# Elastic Constant Matrix: (Units=GPa)
#
#
# Indices 1 2 3 4 5 6 
#
# 1 164.3570 40.1803 64.9637 -0.0015 18.7294 -0.0002
# 2 40.1803 79.7914 25.7620 0.0039 -11.6254 0.0027
# 3 64.9637 25.7620 123.1089 0.0004 6.3469 -0.0030
# 4 -0.0015 0.0039 0.0004 41.0111 -0.0018 -4.4433
# 5 18.7294 -11.6254 6.3469 -0.0018 33.6468 -0.0013
# 6 -0.0002 0.0027 -0.0030 -4.4433 -0.0013 52.2258
#
#
#
# Elastic Compliance Matrix: (Units=1/GPa)
#
#
# Indices 1 2 3 4 5 6 
#
# 1 0.009286 -0.004360 -0.003680 0.000001 -0.005981 0.000000
# 2 -0.004360 0.016463 -0.001578 -0.000001 0.008413 -0.000001
# 3 -0.003680 -0.001578 0.010419 0.000000 -0.000462 0.000001
# 4 0.000001 -0.000001 0.000000 0.024611 0.000001 0.002094
# 5 -0.005981 0.008413 -0.000462 0.000001 0.036044 0.000000
# 6 0.000000 -0.000001 0.000001 0.002094 0.000000 0.019326
#
#
# Mechanical properties :
#
#
# Convention : Reuss Voigt Hill
#
# Bulk Modulus (GPa) = 59.05580 69.89661 64.47621
# Shear Modulus (GPa) = 35.45400 41.13347 38.29374
#
# Velocity S-wave (km/s) = 3.65542 3.93733 3.79899
# Velocity P-wave (km/s) = 6.33035 6.85661 6.59873
#
# Compressibility (1/GPa) = 0.01693314
#
# Stress axis : x y z
#
# Youngs Moduli (GPa) = 107.68788 60.74094 95.98147
#
# Poissons Ratio (x) = 0.26481 0.35317
# Poissons Ratio (y) = 0.46948 0.15149
# Poissons Ratio (z) = 0.39624 0.09587
#
# Static dielectric constant tensor:
#      x y z
#    x 2.066440 0.000020 -0.020690 
#    y 0.000020 2.122020 -0.000010 
#    z -0.020690 -0.000010 2.107310 
# 
# From -- ./inp_files/279059.got.cif
#   From: 2010.05.17/outbox.cif.g08.bks.cpg/sg15_140_cif.got.tgz:279059.got - 2010.06.03 18:47:42.
