data_PCOD9292660
_publ_section_title
;
Structure prediction by ZEFSAII (Michael W. Deem and Ramdas Pophale) SiO2 
 PCOD9292660
Probable space group: C 2/C
;
_chemical_formula_sum "Si O2"
_cell_formula_units_Z 36
_cell_length_a 24.555050
_cell_length_b 5.358937
_cell_length_c 12.016344
_cell_angle_alpha 90.000000
_cell_angle_beta 109.295994
_cell_angle_gamma 90.000000
_cell_volume 1492.391856
_symmetry_space_group_name_H-M "C 2/C"
_symmetry_group_IT_number 15
_symmetry_cell_setting 'monoclinic'
loop_
_space_group_symop_operation_xyz
x,y,z
-x,y,1/2-z
-x,-y,-z
x,-y,1/2+z
1/2+x,1/2+y,z
1/2-x,1/2+y,1/2-z
1/2-x,1/2-y,-z
1/2+x,1/2-y,1/2+z
loop_
_atom_site_type_symbol
_atom_site_label
_atom_site_fract_x
_atom_site_fract_y
_atom_site_fract_z
Si Si1 0.597232 0.573611 0.444008
Si Si2 0.847689 0.298138 0.225705
Si Si3 0.500000 0.322056 0.250000
Si Si4 0.805744 0.801229 0.111770
Si Si5 0.939207 0.559617 0.400143
O O1 0.534484 0.482170 0.363438
O O2 0.643298 0.358814 0.443971
O O3 0.592545 0.719549 0.555326
O O4 0.617296 0.775554 0.366246
O O5 0.815183 0.559537 0.194199
O O6 0.895916 0.327598 0.353927
O O7 0.808188 0.051026 0.190836
O O8 0.455265 0.160428 0.289497
O O9 0.750000 0.750000 0.000000
O O10 0.000000 0.500000 0.500000
#
# Coordination Sequence:
#
# PCOD9292660 Si02
#       5
#     8   8   4   8   8
#     4  10  24  39  70 101 144 195 244 295 378 436
#     4  10  22  44  66 105 141 180 246 300 363 440
#     4  12  22  44  62 104 152 196 242 300 360 454
#     4  10  22  45  74  97 137 190 243 314 374 423
#     4  12  23  38  69 106 153 196 241 294 379 453
#
# _framework density 24.122347999999999
#
# number of rings (size 3 to 8) (size 9 to 14) (size 15 to 20)
#    1.333    0.000    2.222    4.000    0.000    1.778 
#    0.000    0.000    4.889    0.000    0.000    0.000 
#    0.000    0.000    0.000    0.000    0.000    0.000 
#
# Total GULP energy -100513.668089 kJ/mol
# GULP energy per Si atom -5584.092672 kJ/mol
# Density = 2.406744 g / cm^3
# Si number density = 24.122348 Si / 1000 Ang^3
#
#
#
# Elastic Constant Matrix: (Units=GPa)
#
#
# Indices 1 2 3 4 5 6 
#
# 1 54.0231 29.4863 32.0395 0.0000 19.3305 0.0000
# 2 29.4863 179.6806 52.4771 0.0000 31.5372 0.0000
# 3 32.0395 52.4771 96.3513 0.0000 36.3378 0.0000
# 4 0.0000 0.0000 0.0000 23.5369 0.0000 65.6616
# 5 19.3305 31.5372 36.3378 0.0000 64.1142 0.0000
# 6 0.0000 0.0000 0.0000 65.6616 0.0000 -88.8018
#
#
#
# Elastic Compliance Matrix: (Units=1/GPa)
#
#
# Indices 1 2 3 4 5 6 
#
# 1 0.024035 -0.001676 -0.005924 0.000000 -0.003065 0.000000
# 2 -0.001676 0.006857 -0.002666 0.000000 -0.001357 0.000000
# 3 -0.005924 -0.002666 0.016066 0.000000 -0.006009 0.000000
# 4 0.000000 0.000000 0.000000 0.013872 0.000000 0.010257
# 5 -0.003065 -0.001357 -0.006009 0.000000 0.020594 0.000000
# 6 0.000000 0.000000 0.000000 0.010257 0.000000 -0.003677
#
#
# Mechanical properties :
#
#
# Convention : Reuss Voigt Hill
#
# Bulk Modulus (GPa) = 37.83875 62.00675 49.92275
# Shear Modulus (GPa) = 46.69041 14.17333 30.43187
#
# Velocity S-wave (km/s) = 4.40428 2.42659 3.55570
# Velocity P-wave (km/s) = 6.44855 5.79759 6.13172
#
# Compressibility (1/GPa) = 0.02642793
#
# Stress axis : x y z
#
# Youngs Moduli (GPa) = 41.60547 145.83269 62.24185
#
# Poissons Ratio (x) = 0.24447 0.36869
# Poissons Ratio (y) = 0.06975 0.16591
# Poissons Ratio (z) = 0.24645 0.38873
#
# Static dielectric constant tensor:
#      x y z
#    x 1.835080 0.000000 0.090610 
#    y 0.000000 2.002000 0.000000 
#    z 0.090610 0.000000 1.941640 
# 
# From -- ./inp_files/124858.got.cif
#   From: 2010.05.17/outbox.cif.g08.bks.cpg/sg15_63_cif.got.tgz:124858.got - 2010.06.03 18:47:42.
