data_PCOD9292952
_publ_section_title
;
Structure prediction by ZEFSAII (Michael W. Deem and Ramdas Pophale) SiO2 
 PCOD9292952
Probable space group: C 2/C
;
_chemical_formula_sum "Si O2"
_cell_formula_units_Z 36
_cell_length_a 17.678019
_cell_length_b 14.885176
_cell_length_c 9.050776
_cell_angle_alpha 90.000000
_cell_angle_beta 142.801529
_cell_angle_gamma 90.000000
_cell_volume 1439.877763
_symmetry_space_group_name_H-M "C 2/C"
_symmetry_group_IT_number 15
_symmetry_cell_setting 'monoclinic'
loop_
_space_group_symop_operation_xyz
x,y,z
-x,y,1/2-z
-x,-y,-z
x,-y,1/2+z
1/2+x,1/2+y,z
1/2-x,1/2+y,1/2-z
1/2-x,1/2-y,-z
1/2+x,1/2-y,1/2+z
loop_
_atom_site_type_symbol
_atom_site_label
_atom_site_fract_x
_atom_site_fract_y
_atom_site_fract_z
Si Si1 0.142349 0.510377 0.669769
Si Si2 0.500000 0.712793 0.250000
Si Si3 0.805858 0.136066 0.728381
Si Si4 0.202681 0.634238 0.035902
Si Si5 0.362746 0.309840 0.011165
O O1 0.200001 0.569717 0.625350
O O2 0.158240 0.412664 0.619488
O O3 0.000000 0.500000 0.500000
O O4 0.202010 0.566094 0.899077
O O5 0.575397 0.649408 0.480910
O O6 0.608704 0.782511 0.360385
O O7 0.738743 0.232395 0.629478
O O8 0.845907 0.120147 0.620881
O O9 0.341078 0.657550 0.310481
O O10 0.500000 0.270906 0.250000
#
# Coordination Sequence:
#
# PCOD9292952 Si02
#       5
#     8   4   8   8   8
#     4  12  24  44  70 105 142 190 239 306 359 434
#     4  10  22  44  70 106 144 184 242 304 362 432
#     4  10  25  42  71 106 145 189 246 293 371 431
#     4  11  24  43  68 104 142 187 248 290 369 430
#     4  10  24  44  67 103 147 192 238 302 362 442
#
# _framework density 25.002122
#
# number of rings (size 3 to 8) (size 9 to 14) (size 15 to 20)
#    0.000    1.333    2.222    1.333    6.222    5.333 
#    2.000    2.222    0.000    0.000    0.000    0.000 
#    0.000    0.000    0.000    0.000    0.000    0.000 
#
# Total GULP energy -100297.175951 kJ/mol
# GULP energy per Si atom -5572.065331 kJ/mol
# Density = 2.494522 g / cm^3
# Si number density = 25.002122 Si / 1000 Ang^3
#
#
#
# Elastic Constant Matrix: (Units=GPa)
#
#
# Indices 1 2 3 4 5 6 
#
# 1 93.1241 28.1752 47.0066 0.0000 -8.7739 0.0000
# 2 28.1752 66.4241 22.8723 0.0000 -9.2199 0.0000
# 3 47.0066 22.8723 135.2899 0.0000 -10.6560 0.0000
# 4 0.0000 0.0000 0.0000 28.9040 0.0000 -3.7654
# 5 -8.7739 -9.2199 -10.6560 0.0000 34.3732 0.0000
# 6 0.0000 0.0000 0.0000 -3.7654 0.0000 50.3783
#
#
#
# Elastic Compliance Matrix: (Units=1/GPa)
#
#
# Indices 1 2 3 4 5 6 
#
# 1 0.014279 -0.004479 -0.004112 0.000000 0.001169 0.000000
# 2 -0.004479 0.017821 -0.001200 0.000000 0.003265 0.000000
# 3 -0.004112 -0.001200 0.009138 0.000000 0.001462 0.000000
# 4 0.000000 0.000000 0.000000 0.034937 0.000000 0.002611
# 5 0.001169 0.003265 0.001462 0.000000 0.030720 0.000000
# 6 0.000000 0.000000 0.000000 0.002611 0.000000 0.020045
#
#
# Mechanical properties :
#
#
# Convention : Reuss Voigt Hill
#
# Bulk Modulus (GPa) = 46.17321 54.54959 50.36140
# Shear Modulus (GPa) = 32.52247 35.85005 34.18626
#
# Velocity S-wave (km/s) = 3.61056 3.79077 3.70176
# Velocity P-wave (km/s) = 5.99077 6.40510 6.20139
#
# Compressibility (1/GPa) = 0.02165758
#
# Stress axis : x y z
#
# Youngs Moduli (GPa) = 70.03200 56.11443 109.43078
#
# Poissons Ratio (x) = 0.25132 0.44999
# Poissons Ratio (y) = 0.31365 0.13126
# Poissons Ratio (z) = 0.28798 0.06731
#
# Static dielectric constant tensor:
#      x y z
#    x 2.009790 0.000000 -0.003130 
#    y 0.000000 2.072430 0.000000 
#    z -0.003130 0.000000 2.082490 
# 
# From -- ./inp_files/28833.got.cif
#   From: 2010.05.17/outbox.cif.g08.bks.cpg/sg15_15_cif.got.tgz:28833.got - 2010.06.03 18:47:42.
