data_PCOD9292979
_publ_section_title
;
Structure prediction by ZEFSAII (Michael W. Deem and Ramdas Pophale) SiO2 
 PCOD9292979
Probable space group: C 2/C
;
_chemical_formula_sum "Si O2"
_cell_formula_units_Z 44
_cell_length_a 22.925442
_cell_length_b 5.887710
_cell_length_c 14.297630
_cell_angle_alpha 90.000000
_cell_angle_beta 108.080905
_cell_angle_gamma 90.000000
_cell_volume 1834.572048
_symmetry_space_group_name_H-M "C 2/C"
_symmetry_group_IT_number 15
_symmetry_cell_setting 'monoclinic'
loop_
_space_group_symop_operation_xyz
x,y,z
-x,y,1/2-z
-x,-y,-z
x,-y,1/2+z
1/2+x,1/2+y,z
1/2-x,1/2+y,1/2-z
1/2-x,1/2-y,-z
1/2+x,1/2-y,1/2+z
loop_
_atom_site_type_symbol
_atom_site_label
_atom_site_fract_x
_atom_site_fract_y
_atom_site_fract_z
Si Si1 0.105642 0.396397 0.485201
Si Si2 0.900818 0.569643 0.808901
Si Si3 0.700965 0.550429 0.492714
Si Si4 0.002420 0.903170 0.605738
Si Si5 0.500000 0.230922 0.250000
Si Si6 0.813382 0.347655 0.630357
O O1 0.098747 0.506959 0.582079
O O2 0.142760 0.160521 0.512142
O O3 0.039969 0.320918 0.413338
O O4 0.145407 0.546012 0.433635
O O5 0.946926 0.413179 0.771652
O O6 0.836659 0.489237 0.731251
O O7 0.930809 0.821482 0.823648
O O8 0.750000 0.750000 0.500000
O O9 0.740735 0.387082 0.578452
O O10 0.681637 0.421698 0.387727
O O11 0.976275 0.099234 0.658144
O O12 0.000000 0.000000 0.500000
#
# Coordination Sequence:
#
# PCOD9292979 Si02
#       6
#     8   8   8   8   4   8
#     4  11  23  42  67  97 138 181 235 285 352 425
#     4  12  26  41  66 107 133 187 237 288 357 433
#     4   9  21  45  69  97 131 184 226 293 354 410
#     4  12  26  44  66 101 144 187 238 289 360 429
#     4  12  24  42  68  94 138 182 232 296 350 428
#     4  10  22  44  70  96 142 177 233 293 351 422
#
# _framework density 23.983794
#
# number of rings (size 3 to 8) (size 9 to 14) (size 15 to 20)
#    0.000    1.091    1.818    4.364    5.091    1.455 
#    9.818    0.000    0.000    0.000    0.000    0.000 
#    0.000    0.000    0.000    0.000    0.000    0.000 
#
# Total GULP energy -122917.195141 kJ/mol
# GULP energy per Si atom -5587.145234 kJ/mol
# Density = 2.392921 g / cm^3
# Si number density = 23.983794 Si / 1000 Ang^3
#
#
#
# Elastic Constant Matrix: (Units=GPa)
#
#
# Indices 1 2 3 4 5 6 
#
# 1 46.8570 6.4913 17.4130 0.0000 16.1713 0.0000
# 2 6.4913 74.0397 16.3949 0.0000 2.7094 0.0000
# 3 17.4130 16.3949 95.7261 0.0000 1.3589 0.0000
# 4 0.0000 0.0000 0.0000 39.3527 0.0000 -4.2188
# 5 16.1713 2.7094 1.3589 0.0000 45.4405 0.0000
# 6 0.0000 0.0000 0.0000 -4.2188 0.0000 42.9004
#
#
#
# Elastic Compliance Matrix: (Units=1/GPa)
#
#
# Indices 1 2 3 4 5 6 
#
# 1 0.026310 -0.000977 -0.004488 0.000000 -0.009171 0.000000
# 2 -0.000977 0.014102 -0.002231 0.000000 -0.000426 0.000000
# 3 -0.004488 -0.002231 0.011625 0.000000 0.001383 0.000000
# 4 0.000000 0.000000 0.000000 0.025682 0.000000 0.002526
# 5 -0.009171 -0.000426 0.001383 0.000000 0.025255 0.000000
# 6 0.000000 0.000000 0.000000 0.002526 0.000000 0.023558
#
#
# Mechanical properties :
#
#
# Convention : Reuss Voigt Hill
#
# Bulk Modulus (GPa) = 27.29025 33.02458 30.15741
# Shear Modulus (GPa) = 32.43812 37.29363 34.86588
#
# Velocity S-wave (km/s) = 3.68163 3.94757 3.81691
# Velocity P-wave (km/s) = 5.42916 5.88023 5.65919
#
# Compressibility (1/GPa) = 0.03664312
#
# Stress axis : x y z
#
# Youngs Moduli (GPa) = 38.00866 70.91375 86.01817
#
# Poissons Ratio (x) = 0.06930 0.38608
# Poissons Ratio (y) = 0.03714 0.19194
# Poissons Ratio (z) = 0.17059 0.15823
#
# Static dielectric constant tensor:
#      x y z
#    x 1.931210 0.000000 0.084740 
#    y 0.000000 2.038900 0.000000 
#    z 0.084740 0.000000 1.955630 
# 
# From -- ./inp_files/175378.got.cif
#   From: 2010.05.17/outbox.cif.g08.bks.cpg/sg15_88_cif.got.tgz:175378.got - 2010.06.03 18:47:42.
