data_PCOD9292395
_publ_section_title
;
Structure prediction by ZEFSAII (Michael W. Deem and Ramdas Pophale) SiO2 
 PCOD9292395
Probable space group: C 2/C
;
_chemical_formula_sum "Si O2"
_cell_formula_units_Z 36
_cell_length_a 20.499145
_cell_length_b 8.406060
_cell_length_c 16.590352
_cell_angle_alpha 90.000000
_cell_angle_beta 32.016137
_cell_angle_gamma 90.000000
_cell_volume 1515.616160
_symmetry_space_group_name_H-M "C 2/C"
_symmetry_group_IT_number 15
_symmetry_cell_setting 'monoclinic'
loop_
_space_group_symop_operation_xyz
x,y,z
-x,y,1/2-z
-x,-y,-z
x,-y,1/2+z
1/2+x,1/2+y,z
1/2-x,1/2+y,1/2-z
1/2-x,1/2-y,-z
1/2+x,1/2-y,1/2+z
loop_
_atom_site_type_symbol
_atom_site_label
_atom_site_fract_x
_atom_site_fract_y
_atom_site_fract_z
Si Si1 0.402726 0.601485 0.652679
Si Si2 0.894296 0.831080 0.453301
Si Si3 0.747251 0.317829 0.731070
Si Si4 0.783674 0.618771 0.897627
Si Si5 0.500000 0.052714 0.250000
O O1 0.500000 0.500000 0.500000
O O2 0.463641 0.622238 0.675802
O O3 0.281482 0.491472 0.774502
O O4 0.377605 0.766406 0.632725
O O5 0.836409 0.800508 0.601759
O O6 0.903169 0.669780 0.394635
O O7 0.814699 0.974168 0.500246
O O8 0.721551 0.198335 0.684887
O O9 0.919419 0.552922 0.774288
O O10 0.750000 0.750000 0.000000
#
# Coordination Sequence:
#
# PCOD9292395 Si02
#       5
#     8   8   8   8   4
#     4  10  22  43  71 100 136 180 234 290 345 414
#     4  11  26  49  73 101 146 190 238 289 360 426
#     4  11  23  45  73 102 138 182 243 285 354 417
#     4  12  29  45  72 110 144 185 241 299 354 421
#     4  12  30  46  72 104 146 196 230 296 366 422
#
# _framework density 23.752714999999998
#
# number of rings (size 3 to 8) (size 9 to 14) (size 15 to 20)
#    0.000    0.889    4.444    2.000    9.333    0.889 
#    0.000    0.000    0.000    0.000    0.000    0.000 
#    0.000    0.000    0.000    0.000    0.000    0.000 
#
# Total GULP energy -100570.689464 kJ/mol
# GULP energy per Si atom -5587.260526 kJ/mol
# Density = 2.369865 g / cm^3
# Si number density = 23.752715 Si / 1000 Ang^3
#
#
#
# Elastic Constant Matrix: (Units=GPa)
#
#
# Indices 1 2 3 4 5 6 
#
# 1 128.9274 44.7559 33.2656 0.0000 -22.0304 0.0000
# 2 44.7559 93.0857 39.0678 -0.0004 -17.6279 0.0001
# 3 33.2656 39.0678 57.5508 -0.0003 16.2407 0.0001
# 4 0.0000 -0.0004 -0.0003 42.5996 0.0002 -13.5492
# 5 -22.0304 -17.6279 16.2407 0.0002 49.5924 0.0000
# 6 0.0000 0.0001 0.0001 -13.5492 0.0000 45.1595
#
#
#
# Elastic Compliance Matrix: (Units=1/GPa)
#
#
# Indices 1 2 3 4 5 6 
#
# 1 0.011406 -0.000513 -0.008400 0.000000 0.007635 0.000000
# 2 -0.000513 0.020716 -0.017387 0.000000 0.012830 0.000000
# 3 -0.008400 -0.017387 0.040582 0.000000 -0.023201 0.000000
# 4 0.000000 0.000000 0.000000 0.025951 0.000000 0.007786
# 5 0.007635 0.012830 -0.023201 0.000000 0.035715 0.000000
# 6 0.000000 0.000000 0.000000 0.007786 0.000000 0.024480
#
#
# Mechanical properties :
#
#
# Convention : Reuss Voigt Hill
#
# Bulk Modulus (GPa) = 49.73911 57.08248 53.41079
# Shear Modulus (GPa) = 22.91993 38.30192 30.61093
#
# Velocity S-wave (km/s) = 3.10972 4.01999 3.59379
# Velocity P-wave (km/s) = 5.82062 6.75509 6.30519
#
# Compressibility (1/GPa) = 0.02010490
#
# Stress axis : x y z
#
# Youngs Moduli (GPa) = 87.67079 48.27087 24.64174
#
# Poissons Ratio (x) = 0.02476 0.20698
# Poissons Ratio (y) = 0.04498 0.42845
# Poissons Ratio (z) = 0.73639 0.83929
#
# Static dielectric constant tensor:
#      x y z
#    x 1.998110 0.000000 -0.104180 
#    y 0.000000 1.927360 0.000000 
#    z -0.104180 0.000000 2.035220 
# 
# From -- ./inp_files/109502.got.cif
#   From: 2010.05.17/outbox.cif.g08.bks.cpg/sg15_55_cif.got.tgz:109502.got - 2010.06.03 18:47:42.
