data_PCOD9292046
_publ_section_title
;
Structure prediction by ZEFSAII (Michael W. Deem and Ramdas Pophale) SiO2 
 PCOD9292046
Probable space group: C 2/C
;
_chemical_formula_sum "Si O2"
_cell_formula_units_Z 60
_cell_length_a 11.566403
_cell_length_b 27.462748
_cell_length_c 17.408143
_cell_angle_alpha 90.000000
_cell_angle_beta 148.140564
_cell_angle_gamma 90.000000
_cell_volume 2918.735308
_symmetry_space_group_name_H-M "C 2/C"
_symmetry_group_IT_number 15
_symmetry_cell_setting 'monoclinic'
loop_
_space_group_symop_operation_xyz
x,y,z
-x,y,1/2-z
-x,-y,-z
x,-y,1/2+z
1/2+x,1/2+y,z
1/2-x,1/2+y,1/2-z
1/2-x,1/2-y,-z
1/2+x,1/2-y,1/2+z
loop_
_atom_site_type_symbol
_atom_site_label
_atom_site_fract_x
_atom_site_fract_y
_atom_site_fract_z
Si Si1 0.500000 0.213435 0.250000
Si Si2 0.722737 0.522001 0.917190
Si Si3 0.977208 0.802049 0.847036
Si Si4 0.858654 0.333358 0.954281
Si Si5 0.769988 0.215577 0.733662
Si Si6 0.555959 0.656563 0.006196
Si Si7 0.504662 0.548286 0.555003
Si Si8 0.061612 0.565712 0.603812
O O1 0.562601 0.248949 0.215085
O O2 0.290672 0.179490 0.118019
O O3 0.500000 0.504603 0.750000
O O4 0.654847 0.540988 0.962029
O O5 0.826741 0.561357 0.917642
O O6 0.892787 0.478286 0.018127
O O7 0.790872 0.837520 0.705628
O O8 0.863567 0.749339 0.782261
O O9 0.017961 0.817248 0.957244
O O10 0.195123 0.805887 0.920270
O O11 0.084356 0.304155 0.070903
O O12 0.930350 0.384148 0.031896
O O13 0.891562 0.172073 0.845428
O O14 0.561893 0.598838 0.022313
O O15 0.500000 0.500000 0.500000
O O16 0.746663 0.557781 0.726328
#
# Coordination Sequence:
#
# PCOD9292046 Si02
#       8
#     4   8   8   8   8   8   8   8
#     4  10  24  40  68  94 132 178 220 268 334 404
#     4   9  22  41  67  89 130 162 216 268 323 388
#     4  10  24  39  64  98 133 173 214 272 328 395
#     4  11  23  41  67  93 129 174 224 258 330 398
#     4  11  22  44  65  96 134 174 221 271 331 399
#     4  11  24  43  64  99 133 173 219 276 338 388
#     4  11  25  43  65  97 131 170 218 277 335 388
#     4  10  22  43  65  96 119 177 216 265 324 389
#
# _framework density 20.556849
#
# number of rings (size 3 to 8) (size 9 to 14) (size 15 to 20)
#    0.000    1.600    1.333    2.400    3.733    9.600 
#    0.000    0.000    0.000    0.000    0.000    0.000 
#    0.000    0.000    0.000    0.000    0.000    0.000 
#
# Total GULP energy -167571.877494 kJ/mol
# GULP energy per Si atom -5585.729250 kJ/mol
# Density = 2.051006 g / cm^3
# Si number density = 20.556849 Si / 1000 Ang^3
#
#
#
# Elastic Constant Matrix: (Units=GPa)
#
#
# Indices 1 2 3 4 5 6 
#
# 1 49.2459 5.6508 15.7333 0.0001 8.6824 0.0001
# 2 5.6508 95.5780 13.9616 -0.0002 2.5223 -0.0002
# 3 15.7333 13.9616 64.5526 0.0002 6.1128 -0.0004
# 4 0.0001 -0.0002 0.0002 33.4840 0.0002 -1.7731
# 5 8.6824 2.5223 6.1128 0.0002 22.6228 0.0000
# 6 0.0001 -0.0002 -0.0004 -1.7731 0.0000 14.6836
#
#
#
# Elastic Compliance Matrix: (Units=1/GPa)
#
#
# Indices 1 2 3 4 5 6 
#
# 1 0.023241 -0.000466 -0.004848 0.000000 -0.007558 0.000000
# 2 -0.000466 0.010821 -0.002185 0.000000 -0.000437 0.000000
# 3 -0.004848 -0.002185 0.017391 0.000000 -0.002595 0.000001
# 4 0.000000 0.000000 0.000000 0.030057 0.000000 0.003629
# 5 -0.007558 -0.000437 -0.002595 0.000000 0.047854 0.000000
# 6 0.000000 0.000000 0.000001 0.003629 0.000000 0.068541
#
#
# Mechanical properties :
#
#
# Convention : Reuss Voigt Hill
#
# Bulk Modulus (GPa) = 27.43197 31.11866 29.27531
# Shear Modulus (GPa) = 22.21668 25.76014 23.98841
#
# Velocity S-wave (km/s) = 3.29103 3.54378 3.41974
# Velocity P-wave (km/s) = 5.27396 5.64936 5.46488
#
# Compressibility (1/GPa) = 0.03645381
#
# Stress axis : x y z
#
# Youngs Moduli (GPa) = 43.02727 92.41296 57.50031
#
# Poissons Ratio (x) = 0.04311 0.27876
# Poissons Ratio (y) = 0.02007 0.12566
# Poissons Ratio (z) = 0.20859 0.20195
#
# Static dielectric constant tensor:
#      x y z
#    x 1.720670 0.000000 -0.011440 
#    y 0.000000 1.731300 0.000000 
#    z -0.011440 0.000000 1.733870 
# 
# From -- ./inp_files/201262.got.cif
#   From: 2010.05.17/outbox.cif.g08.bks.cpg/sg15_101_cif.got.tgz:201262.got - 2010.06.03 18:47:42.
