data_PCOD9292915
_publ_section_title
;
Structure prediction by ZEFSAII (Michael W. Deem and Ramdas Pophale) SiO2 
 PCOD9292915
Probable space group: C 2/C
;
_chemical_formula_sum "Si O2"
_cell_formula_units_Z 60
_cell_length_a 16.178808
_cell_length_b 10.699418
_cell_length_c 17.134717
_cell_angle_alpha 90.000000
_cell_angle_beta 97.095839
_cell_angle_gamma 90.000000
_cell_volume 2943.367622
_symmetry_space_group_name_H-M "C 2/C"
_symmetry_group_IT_number 15
_symmetry_cell_setting 'monoclinic'
loop_
_space_group_symop_operation_xyz
x,y,z
-x,y,1/2-z
-x,-y,-z
x,-y,1/2+z
1/2+x,1/2+y,z
1/2-x,1/2+y,1/2-z
1/2-x,1/2-y,-z
1/2+x,1/2-y,1/2+z
loop_
_atom_site_type_symbol
_atom_site_label
_atom_site_fract_x
_atom_site_fract_y
_atom_site_fract_z
Si Si1 0.381218 0.142241 0.310049
Si Si2 0.652439 0.412022 0.252491
Si Si3 0.763937 0.046476 0.099646
Si Si4 0.318226 0.026535 0.676016
Si Si5 0.311422 0.139964 0.029521
Si Si6 0.000394 0.641969 0.030506
Si Si7 0.404894 0.739719 0.101665
Si Si8 0.500000 0.403104 0.750000
O O1 0.378333 0.271697 0.263254
O O2 0.296486 0.124559 0.350481
O O3 0.378789 0.025808 0.250754
O O4 0.455030 0.144006 0.380746
O O5 0.689095 0.443365 0.342070
O O6 0.730392 0.434358 0.203717
O O7 0.576693 0.509038 0.231582
O O8 0.833180 0.139079 0.074474
O O9 0.709300 0.976983 0.029260
O O10 0.301835 0.912712 0.615178
O O11 0.361338 0.139270 0.635003
O O12 0.250000 0.250000 0.000000
O O13 0.405482 0.183088 0.027653
O O14 0.000000 0.500000 0.000000
O O15 0.048042 0.722382 0.971337
O O16 0.465320 0.679618 0.174323
#
# Coordination Sequence:
#
# PCOD9292915 Si02
#       8
#     8   8   8   8   8   8   8   4
#     4  11  23  42  72  95 141 170 227 285 321 410
#     4  10  23  43  65 102 129 181 220 275 339 393
#     4  10  22  44  69  99 137 177 224 274 331 406
#     4  11  24  40  71 101 127 182 226 259 356 392
#     4  12  27  45  67  99 138 177 223 283 332 404
#     4  12  26  44  64 104 134 173 225 279 339 389
#     4  11  24  43  71  99 135 182 222 276 338 403
#     4  10  26  44  68  98 142 170 228 282 326 408
#
# _framework density 20.384813999999999
#
# number of rings (size 3 to 8) (size 9 to 14) (size 15 to 20)
#    0.000    1.067    4.000    0.800    5.600    4.800 
#    0.000    1.333    0.000    0.000    0.000    0.000 
#    0.000    0.000    0.000    0.000    0.000    0.000 
#
# Total GULP energy -167845.415649 kJ/mol
# GULP energy per Si atom -5594.847188 kJ/mol
# Density = 2.033842 g / cm^3
# Si number density = 20.384814 Si / 1000 Ang^3
#
#
#
# Elastic Constant Matrix: (Units=GPa)
#
#
# Indices 1 2 3 4 5 6 
#
# 1 102.8637 32.4691 39.3849 0.0000 20.6601 0.0000
# 2 32.4691 85.4864 37.6186 0.0000 12.2032 0.0000
# 3 39.3849 37.6186 82.2628 0.0000 17.5789 0.0000
# 4 0.0000 0.0000 0.0000 25.9351 0.0000 5.0882
# 5 20.6601 12.2032 17.5789 0.0000 32.3386 0.0000
# 6 0.0000 0.0000 0.0000 5.0882 0.0000 36.2902
#
#
#
# Elastic Compliance Matrix: (Units=1/GPa)
#
#
# Indices 1 2 3 4 5 6 
#
# 1 0.013091 -0.002452 -0.004024 0.000000 -0.005251 0.000000
# 2 -0.002452 0.015235 -0.005543 0.000000 -0.001170 0.000000
# 3 -0.004024 -0.005543 0.017675 0.000000 -0.004945 0.000000
# 4 0.000000 0.000000 0.000000 0.039648 0.000000 -0.005559
# 5 -0.005251 -0.001170 -0.004945 0.000000 0.037407 0.000000
# 6 0.000000 0.000000 0.000000 -0.005559 0.000000 0.028335
#
#
# Mechanical properties :
#
#
# Convention : Reuss Voigt Hill
#
# Bulk Modulus (GPa) = 45.53332 54.39536 49.96434
# Shear Modulus (GPa) = 27.35976 29.65547 28.50762
#
# Velocity S-wave (km/s) = 3.66753 3.81830 3.74367
# Velocity P-wave (km/s) = 6.34978 6.79569 6.57652
#
# Compressibility (1/GPa) = 0.02196194
#
# Stress axis : x y z
#
# Youngs Moduli (GPa) = 76.38876 65.63712 56.57860
#
# Poissons Ratio (x) = 0.16092 0.22769
# Poissons Ratio (y) = 0.18728 0.31363
# Poissons Ratio (z) = 0.30742 0.36385
#
# Static dielectric constant tensor:
#      x y z
#    x 1.709430 0.000000 0.004340 
#    y 0.000000 1.707540 0.000000 
#    z 0.004340 0.000000 1.706940 
# 
# From -- ./inp_files/204088.got.cif
#   From: 2010.05.17/outbox.cif.g08.bks.cpg/sg15_103_cif.got.tgz:204088.got - 2010.06.03 18:47:42.
