data_PCOD9292288
_publ_section_title
;
Structure prediction by ZEFSAII (Michael W. Deem and Ramdas Pophale) SiO2 
 PCOD9292288
Probable space group: C 2/C
;
_chemical_formula_sum "Si O2"
_cell_formula_units_Z 44
_cell_length_a 11.282022
_cell_length_b 17.819942
_cell_length_c 8.959788
_cell_angle_alpha 90.000000
_cell_angle_beta 69.036029
_cell_angle_gamma 90.000000
_cell_volume 1682.083043
_symmetry_space_group_name_H-M "C 2/C"
_symmetry_group_IT_number 15
_symmetry_cell_setting 'monoclinic'
loop_
_space_group_symop_operation_xyz
x,y,z
-x,y,1/2-z
-x,-y,-z
x,-y,1/2+z
1/2+x,1/2+y,z
1/2-x,1/2+y,1/2-z
1/2-x,1/2-y,-z
1/2+x,1/2-y,1/2+z
loop_
_atom_site_type_symbol
_atom_site_label
_atom_site_fract_x
_atom_site_fract_y
_atom_site_fract_z
Si Si1 0.872985 0.715080 0.526316
Si Si2 0.702248 0.413444 0.102686
Si Si3 0.324400 0.700857 0.347272
Si Si4 0.534277 0.345892 0.439658
Si Si5 0.167923 0.562884 0.405958
Si Si6 0.500000 0.029463 0.750000
O O1 0.750000 0.750000 0.500000
O O2 0.839284 0.627794 0.526167
O O3 0.869915 0.743050 0.698831
O O4 0.996710 0.759537 0.414491
O O5 0.639065 0.380312 0.282712
O O6 0.596022 0.391466 0.028963
O O7 0.726743 0.501035 0.098398
O O8 0.250000 0.750000 0.500000
O O9 0.420457 0.655922 0.411762
O O10 0.229960 0.639104 0.323886
O O11 0.084957 0.575386 0.593467
O O12 0.088077 0.522992 0.312662
#
# Coordination Sequence:
#
# PCOD9292288 Si02
#       6
#     8   8   8   8   8   4
#     4  10  23  44  67 102 142 189 237 290 360 423
#     4  10  22  46  71 102 144 190 235 304 358 435
#     4  12  25  46  69 108 147 187 242 303 357 435
#     4  10  22  43  69 105 138 191 233 298 363 417
#     4  11  26  49  75 106 146 186 243 295 365 431
#     4  10  26  48  72 108 138 196 238 296 358 428
#
# _framework density 26.158042999999999
#
# number of rings (size 3 to 8) (size 9 to 14) (size 15 to 20)
#    0.000    1.455    1.818    1.636    5.091    3.636 
#    9.818    0.000    0.000    0.000    0.000    0.000 
#    0.000    0.000    0.000    0.000    0.000    0.000 
#
# Total GULP energy -123230.055820 kJ/mol
# GULP energy per Si atom -5601.366174 kJ/mol
# Density = 2.609851 g / cm^3
# Si number density = 26.158043 Si / 1000 Ang^3
#
#
#
# Elastic Constant Matrix: (Units=GPa)
#
#
# Indices 1 2 3 4 5 6 
#
# 1 108.3709 22.1042 12.7039 0.0000 23.3047 0.0000
# 2 22.1042 97.8588 -7.8427 0.0000 -13.6255 0.0000
# 3 12.7039 -7.8427 152.7221 0.0000 8.4777 0.0000
# 4 0.0000 0.0000 0.0000 21.2713 0.0000 -2.3160
# 5 23.3047 -13.6255 8.4777 0.0000 44.6600 0.0000
# 6 0.0000 0.0000 0.0000 -2.3160 0.0000 42.8542
#
#
#
# Elastic Compliance Matrix: (Units=1/GPa)
#
#
# Indices 1 2 3 4 5 6 
#
# 1 0.011567 -0.003649 -0.000761 0.000000 -0.007005 0.000000
# 2 -0.003649 0.011844 0.000612 0.000000 0.005402 0.000000
# 3 -0.000761 0.000612 0.006681 0.000000 -0.000684 0.000000
# 4 0.000000 0.000000 0.000000 0.047290 0.000000 0.002556
# 5 -0.007005 0.005402 -0.000684 0.000000 0.027825 0.000000
# 6 0.000000 0.000000 0.000000 0.002556 0.000000 0.023473
#
#
# Mechanical properties :
#
#
# Convention : Reuss Voigt Hill
#
# Bulk Modulus (GPa) = 44.45183 45.87582 45.16383
# Shear Modulus (GPa) = 34.77658 43.88953 39.33306
#
# Velocity S-wave (km/s) = 3.65016 4.10061 3.88192
# Velocity P-wave (km/s) = 5.89876 6.32424 6.11520
#
# Compressibility (1/GPa) = 0.02249626
#
# Stress axis : x y z
#
# Youngs Moduli (GPa) = 86.44921 84.42932 149.68844
#
# Poissons Ratio (x) = 0.30810 0.11388
# Poissons Ratio (y) = 0.31547 -0.09160
# Poissons Ratio (z) = 0.06577 -0.05167
#
# Static dielectric constant tensor:
#      x y z
#    x 2.149930 0.000000 -0.052350 
#    y 0.000000 2.034320 0.000000 
#    z -0.052350 0.000000 2.060840 
# 
# From -- ./inp_files/30707.got.cif
#   From: 2010.05.17/outbox.cif.g08.bks.cpg/sg15_16_cif.got.tgz:30707.got - 2010.06.03 18:47:42.
