data_PCOD9292579
_publ_section_title
;
Structure prediction by ZEFSAII (Michael W. Deem and Ramdas Pophale) SiO2 
 PCOD9292579
Probable space group: C 2/C
;
_chemical_formula_sum "Si O2"
_cell_formula_units_Z 36
_cell_length_a 27.738012
_cell_length_b 11.350795
_cell_length_c 14.212539
_cell_angle_alpha 90.000000
_cell_angle_beta 19.656858
_cell_angle_gamma 90.000000
_cell_volume 1505.260047
_symmetry_space_group_name_H-M "C 2/C"
_symmetry_group_IT_number 15
_symmetry_cell_setting 'monoclinic'
loop_
_space_group_symop_operation_xyz
x,y,z
-x,y,1/2-z
-x,-y,-z
x,-y,1/2+z
1/2+x,1/2+y,z
1/2-x,1/2+y,1/2-z
1/2-x,1/2-y,-z
1/2+x,1/2-y,1/2+z
loop_
_atom_site_type_symbol
_atom_site_label
_atom_site_fract_x
_atom_site_fract_y
_atom_site_fract_z
Si Si1 0.143627 0.525539 0.040310
Si Si2 0.773286 0.006329 0.104613
Si Si3 0.500000 0.344365 0.750000
Si Si4 0.674530 0.255431 0.260273
Si Si5 0.381709 0.839748 0.247818
O O1 0.111511 0.420505 0.171084
O O2 0.000000 0.565882 0.250000
O O3 0.243774 0.486240 0.769915
O O4 0.230219 0.629971 0.931644
O O5 0.652196 0.929484 0.274417
O O6 0.770147 0.139037 0.075793
O O7 0.916318 0.929747 0.832061
O O8 0.612303 0.270594 0.481957
O O9 0.530178 0.230560 0.466964
O O10 0.250000 0.750000 0.500000
#
# Coordination Sequence:
#
# PCOD9292579 Si02
#       5
#     8   8   4   8   8
#     4  11  26  45  71 106 139 185 235 285 350 413
#     4  11  24  44  72 100 142 183 231 288 349 405
#     4  10  22  44  64 106 134 186 228 286 346 414
#     4  11  23  43  70  98 141 181 231 283 345 408
#     4  12  25  47  72 101 144 186 231 288 348 417
#
# _framework density 23.916132999999999
#
# number of rings (size 3 to 8) (size 9 to 14) (size 15 to 20)
#    0.000    0.889    4.444    2.000    4.667    1.778 
#    0.000    0.000    0.000    0.000    0.000    0.000 
#    0.000    0.000    0.000    0.000    0.000    0.000 
#
# Total GULP energy -100738.586804 kJ/mol
# GULP energy per Si atom -5596.588156 kJ/mol
# Density = 2.386170 g / cm^3
# Si number density = 23.916133 Si / 1000 Ang^3
#
#
#
# Elastic Constant Matrix: (Units=GPa)
#
#
# Indices 1 2 3 4 5 6 
#
# 1 94.8250 36.3176 46.1223 0.0000 -11.8403 0.0000
# 2 36.3176 134.6491 56.5632 0.0000 -25.3009 0.0000
# 3 46.1223 56.5632 65.0028 0.0000 -6.2484 0.0000
# 4 0.0000 0.0000 0.0000 34.3301 0.0000 -20.2294
# 5 -11.8403 -25.3009 -6.2484 0.0000 51.1257 0.0000
# 6 0.0000 0.0000 0.0000 -20.2294 0.0000 26.9185
#
#
#
# Elastic Compliance Matrix: (Units=1/GPa)
#
#
# Indices 1 2 3 4 5 6 
#
# 1 0.016548 0.001434 -0.012702 0.000000 0.002990 0.000000
# 2 0.001434 0.013008 -0.011825 0.000000 0.005324 0.000000
# 3 -0.012702 -0.011825 0.034243 0.000000 -0.004608 0.000000
# 4 0.000000 0.000000 0.000000 0.052281 0.000000 0.039289
# 5 0.002990 0.005324 -0.004608 0.000000 0.022324 0.000000
# 6 0.000000 0.000000 0.000000 0.039289 0.000000 0.066675
#
#
# Mechanical properties :
#
#
# Convention : Reuss Voigt Hill
#
# Bulk Modulus (GPa) = 56.77429 63.60924 60.19177
# Shear Modulus (GPa) = 19.44503 32.83976 26.14240
#
# Velocity S-wave (km/s) = 2.85450 3.70959 3.30977
# Velocity P-wave (km/s) = 5.88682 6.70840 6.31099
#
# Compressibility (1/GPa) = 0.01761361
#
# Stress axis : x y z
#
# Youngs Moduli (GPa) = 60.43018 76.87845 29.20279
#
# Poissons Ratio (x) = -0.11028 0.37094
# Poissons Ratio (y) = -0.08668 0.34531
# Poissons Ratio (z) = 0.76761 0.90907
#
# Static dielectric constant tensor:
#      x y z
#    x 1.943150 0.000000 -0.001360 
#    y 0.000000 1.894260 0.000000 
#    z -0.001360 0.000000 1.923880 
# 
# From -- ./inp_files/141605.got.cif
#   From: 2010.05.17/outbox.cif.g08.bks.cpg/sg15_71_cif.got.tgz:141605.got - 2010.06.03 18:47:42.
