data_PCOD9292967
_publ_section_title
;
Structure prediction by ZEFSAII (Michael W. Deem and Ramdas Pophale) SiO2 
 PCOD9292967
Probable space group: C 2/C
;
_chemical_formula_sum "Si O2"
_cell_formula_units_Z 52
_cell_length_a 5.194685
_cell_length_b 23.334785
_cell_length_c 23.922916
_cell_angle_alpha 90.000000
_cell_angle_beta 123.549237
_cell_angle_gamma 90.000000
_cell_volume 2416.776412
_symmetry_space_group_name_H-M "C 2/C"
_symmetry_group_IT_number 15
_symmetry_cell_setting 'monoclinic'
loop_
_space_group_symop_operation_xyz
x,y,z
-x,y,1/2-z
-x,-y,-z
x,-y,1/2+z
1/2+x,1/2+y,z
1/2-x,1/2+y,1/2-z
1/2-x,1/2-y,-z
1/2+x,1/2-y,1/2+z
loop_
_atom_site_type_symbol
_atom_site_label
_atom_site_fract_x
_atom_site_fract_y
_atom_site_fract_z
Si Si1 0.366840 0.670692 0.639684
Si Si2 0.000000 0.705849 0.750000
Si Si3 0.285111 0.942353 0.326527
Si Si4 0.110914 0.880111 0.930959
Si Si5 0.191489 0.782373 0.676400
Si Si6 0.344093 0.617932 0.516420
Si Si7 0.550197 0.489125 0.105797
O O1 0.695251 0.668046 0.711150
O O2 0.158885 0.622714 0.645174
O O3 0.256484 0.735008 0.636707
O O4 0.405777 0.653835 0.580203
O O5 0.019291 0.747673 0.805324
O O6 0.597656 0.969786 0.340691
O O7 0.000000 0.944926 0.250000
O O8 0.170172 0.975019 0.368351
O O9 0.949811 0.838390 0.867337
O O10 0.476044 0.880163 0.963721
O O11 0.979761 0.944302 0.910605
O O12 0.027953 0.861159 0.984211
O O13 0.500000 0.793874 0.750000
O O14 0.439312 0.552721 0.542765
#
# Coordination Sequence:
#
# PCOD9292967 Si02
#       7
#     8   4   8   8   8   8   8
#     4  10  24  41  69 101 131 175 220 286 342 404
#     4  10  22  44  70  94 142 178 222 276 352 410
#     4  11  23  39  69 102 133 170 228 285 337 393
#     4  12  26  46  68  98 136 185 223 277 329 411
#     4  10  25  44  68  97 134 180 226 272 345 406
#     4  11  25  42  72  99 136 173 231 278 337 394
#     4  11  24  44  66  97 139 180 223 275 340 398
#
# _framework density 21.516264
#
# number of rings (size 3 to 8) (size 9 to 14) (size 15 to 20)
#    0.000    1.231    0.000    5.538   15.077    2.462 
#    1.385    0.000    0.000    0.000    0.000    0.000 
#    0.000    0.000    0.000    0.000    0.000    0.000 
#
# Total GULP energy -145486.549313 kJ/mol
# GULP energy per Si atom -5595.636512 kJ/mol
# Density = 2.146729 g / cm^3
# Si number density = 21.516264 Si / 1000 Ang^3
#
#
#
# Elastic Constant Matrix: (Units=GPa)
#
#
# Indices 1 2 3 4 5 6 
#
# 1 68.9319 23.2115 7.5376 0.0000 14.3852 0.0000
# 2 23.2115 105.5190 59.2946 0.0000 6.8278 0.0000
# 3 7.5376 59.2946 74.9194 0.0000 -4.8506 0.0000
# 4 0.0000 0.0000 0.0000 21.4792 0.0000 -9.4878
# 5 14.3852 6.8278 -4.8506 0.0000 26.9841 0.0000
# 6 0.0000 0.0000 0.0000 -9.4878 0.0000 2.9610
#
#
#
# Elastic Compliance Matrix: (Units=1/GPa)
#
#
# Indices 1 2 3 4 5 6 
#
# 1 0.017382 -0.003615 0.000578 0.000000 -0.008248 0.000000
# 2 -0.003615 0.019160 -0.015166 0.000000 -0.005647 0.000000
# 3 0.000578 -0.015166 0.025821 0.000000 0.008171 0.000000
# 4 0.000000 0.000000 0.000000 -0.112075 0.000000 -0.359122
# 5 -0.008248 -0.005647 0.008171 0.000000 0.044354 0.000000
# 6 0.000000 0.000000 0.000000 -0.359122 0.000000 -0.813006
#
#
# Mechanical properties :
#
#
# Convention : Reuss Voigt Hill
#
# Bulk Modulus (GPa) = 38.52313 47.71752 43.12032
# Shear Modulus (GPa) = -6.46574 20.90663 7.22044
#
# Velocity S-wave (km/s) = -1.73539 3.12054 1.83387
# Velocity P-wave (km/s) = 3.73197 5.93374 4.95666
#
# Compressibility (1/GPa) = 0.02595843
#
# Stress axis : x y z
#
# Youngs Moduli (GPa) = 57.52975 52.19286 38.72755
#
# Poissons Ratio (x) = 0.18867 -0.02239
# Poissons Ratio (y) = 0.20796 0.58733
# Poissons Ratio (z) = -0.03326 0.79155
#
# Static dielectric constant tensor:
#      x y z
#    x 1.824840 0.000000 -0.008970 
#    y 0.000000 1.738550 0.000000 
#    z -0.008970 0.000000 1.770920 
# 
# From -- ./inp_files/261839.got.cif
#   From: 2010.05.17/outbox.cif.g08.bks.cpg/sg15_131_cif.got.tgz:261839.got - 2010.06.03 18:47:42.
