data_PCOD9292316
_publ_section_title
;
Structure prediction by ZEFSAII (Michael W. Deem and Ramdas Pophale) SiO2 
 PCOD9292316
Probable space group: C 2/C
;
_chemical_formula_sum "Si O2"
_cell_formula_units_Z 64
_cell_length_a 14.740330
_cell_length_b 11.021816
_cell_length_c 26.546663
_cell_angle_alpha 90.000000
_cell_angle_beta 142.636686
_cell_angle_gamma 90.000000
_cell_volume 2617.362426
_symmetry_space_group_name_H-M "C 2/C"
_symmetry_group_IT_number 15
_symmetry_cell_setting 'monoclinic'
loop_
_space_group_symop_operation_xyz
x,y,z
-x,y,1/2-z
-x,-y,-z
x,-y,1/2+z
1/2+x,1/2+y,z
1/2-x,1/2+y,1/2-z
1/2-x,1/2-y,-z
1/2+x,1/2-y,1/2+z
loop_
_atom_site_type_symbol
_atom_site_label
_atom_site_fract_x
_atom_site_fract_y
_atom_site_fract_z
Si Si1 0.151809 0.406270 0.626524
Si Si2 0.216513 0.810548 0.554150
Si Si3 0.173602 0.434687 0.051133
Si Si4 0.763581 0.161595 0.320680
Si Si5 0.174407 0.863760 0.941273
Si Si6 0.987957 0.021690 0.934913
Si Si7 0.005881 0.536872 0.169865
Si Si8 0.100750 0.261859 0.220724
O O1 0.223508 0.520460 0.628339
O O2 0.086914 0.444886 0.651889
O O3 0.270221 0.296697 0.686614
O O4 0.998781 0.390299 0.526711
O O5 0.194049 0.799991 0.604721
O O6 0.236621 0.826143 0.436498
O O7 0.059502 0.847240 0.459284
O O8 0.335809 0.915888 0.595577
O O9 0.202889 0.552398 0.030225
O O10 0.829905 0.243216 0.305290
O O11 0.828388 0.022300 0.345116
O O12 0.589323 0.138511 0.239870
O O13 0.091945 0.931614 0.949915
O O14 0.046334 0.823499 0.845403
O O15 0.250000 0.750000 0.000000
O O16 0.000000 0.000000 0.000000
O O17 0.037411 0.398132 0.200401
#
# Coordination Sequence:
#
# PCOD9292316 Si02
#       8
#     8   8   8   8   8   8   8   8
#     4  10  24  45  66 102 131 186 233 280 341 416
#     4  11  22  40  64 101 133 172 215 282 341 410
#     4  11  25  44  68  97 138 184 231 285 344 418
#     4   9  21  41  61  96 129 177 211 275 346 401
#     4  11  23  44  67  98 134 179 223 280 346 401
#     4   9  20  37  64  92 124 168 218 263 330 405
#     4  11  22  42  67 100 134 173 221 289 344 409
#     4  10  22  43  69  96 133 179 230 280 338 421
#
# _framework density 24.452096999999998
#
# number of rings (size 3 to 8) (size 9 to 14) (size 15 to 20)
#    0.000    1.750    0.000    3.375    1.750    7.500 
#   22.500    0.000    0.000    0.000    0.000    0.000 
#    0.000    0.000    0.000    0.000    0.000    0.000 
#
# Total GULP energy -178565.390123 kJ/mol
# GULP energy per Si atom -5580.168441 kJ/mol
# Density = 2.439644 g / cm^3
# Si number density = 24.452097 Si / 1000 Ang^3
#
#
#
# Elastic Constant Matrix: (Units=GPa)
#
#
# Indices 1 2 3 4 5 6 
#
# 1 93.1266 27.4673 7.4283 0.0000 -7.7163 0.0000
# 2 27.4673 139.8753 20.4137 0.0000 10.1863 0.0000
# 3 7.4283 20.4137 87.7739 0.0000 14.8027 0.0000
# 4 0.0000 0.0000 0.0000 32.3665 0.0000 -0.0588
# 5 -7.7163 10.1863 14.8027 0.0000 35.5743 0.0000
# 6 0.0000 0.0000 0.0000 -0.0588 0.0000 26.4325
#
#
#
# Elastic Compliance Matrix: (Units=1/GPa)
#
#
# Indices 1 2 3 4 5 6 
#
# 1 0.011851 -0.002443 -0.001061 0.000000 0.003711 0.000000
# 2 -0.002443 0.007980 -0.001263 0.000000 -0.002289 0.000000
# 3 -0.001061 -0.001263 0.012641 0.000000 -0.005129 0.000000
# 4 0.000000 0.000000 0.000000 0.030896 0.000000 0.000069
# 5 0.003711 -0.002289 -0.005129 0.000000 0.031705 0.000000
# 6 0.000000 0.000000 0.000000 0.000069 0.000000 0.037832
#
#
# Mechanical properties :
#
#
# Convention : Reuss Voigt Hill
#
# Bulk Modulus (GPa) = 43.59381 47.93270 45.76326
# Shear Modulus (GPa) = 33.31460 36.57243 34.94351
#
# Velocity S-wave (km/s) = 3.69513 3.87159 3.78439
# Velocity P-wave (km/s) = 6.00602 6.29531 6.15237
#
# Compressibility (1/GPa) = 0.02293903
#
# Stress axis : x y z
#
# Youngs Moduli (GPa) = 84.38377 125.31448 79.10543
#
# Poissons Ratio (x) = 0.30609 0.08391
# Poissons Ratio (y) = 0.20611 0.09992
# Poissons Ratio (z) = 0.08951 0.15829
#
# Static dielectric constant tensor:
#      x y z
#    x 1.988680 0.000000 -0.046260 
#    y 0.000000 2.080480 0.000000 
#    z -0.046260 0.000000 2.010390 
# 
# From -- ./inp_files/296438.got.cif
#   From: 2010.05.17/outbox.cif.g08.bks.cpg/sg15_149_cif.got.tgz:296438.got - 2010.06.03 18:47:42.
