data_PCOD9292902
_publ_section_title
;
Structure prediction by ZEFSAII (Michael W. Deem and Ramdas Pophale) SiO2 
 PCOD9292902
Probable space group: C 2/C
;
_chemical_formula_sum "Si O2"
_cell_formula_units_Z 40
_cell_length_a 8.387639
_cell_length_b 23.910443
_cell_length_c 16.422426
_cell_angle_alpha 90.000000
_cell_angle_beta 32.754266
_cell_angle_gamma 90.000000
_cell_volume 1781.934372
_symmetry_space_group_name_H-M "C 2/C"
_symmetry_group_IT_number 15
_symmetry_cell_setting 'monoclinic'
loop_
_space_group_symop_operation_xyz
x,y,z
-x,y,1/2-z
-x,-y,-z
x,-y,1/2+z
1/2+x,1/2+y,z
1/2-x,1/2+y,1/2-z
1/2-x,1/2-y,-z
1/2+x,1/2-y,1/2+z
loop_
_atom_site_type_symbol
_atom_site_label
_atom_site_fract_x
_atom_site_fract_y
_atom_site_fract_z
Si Si1 0.807244 0.378631 0.457565
Si Si2 0.812969 0.010972 0.406279
Si Si3 0.304452 0.316609 0.569821
Si Si4 0.210864 0.278682 0.927929
Si Si5 0.480239 0.386319 0.162054
O O1 0.725248 0.442526 0.509253
O O2 0.551092 0.351133 0.514551
O O3 0.818748 0.343666 0.537357
O O4 0.141557 0.374830 0.281563
O O5 0.000000 0.033299 0.250000
O O6 0.946801 0.952110 0.378095
O O7 0.500000 0.000000 0.500000
O O8 0.438366 0.254317 0.505790
O O9 0.302695 0.349015 0.485203
O O10 0.000000 0.316132 0.750000
O O11 0.500000 0.269124 0.750000
O O12 0.250000 0.250000 0.000000
O O13 0.500000 0.374355 0.250000
#
# Coordination Sequence:
#
# PCOD9292902 Si02
#       5
#     8   8   8   8   8
#     4  11  23  44  72  97 140 189 229 284 351 416
#     4  11  22  41  67 102 141 181 235 281 348 422
#     4  11  26  44  68 106 144 178 235 290 347 416
#     4  10  22  44  69  97 133 182 226 280 342 405
#     4  11  24  44  70 101 140 184 229 285 347 415
#
# _framework density 22.447516
#
# number of rings (size 3 to 8) (size 9 to 14) (size 15 to 20)
#    0.000    1.200    4.000    3.600    2.800    4.800 
#    0.000    6.000    0.000    0.000    0.000    0.000 
#    0.000    0.000    0.000    0.000    0.000    0.000 
#
# Total GULP energy -111855.168316 kJ/mol
# GULP energy per Si atom -5592.758416 kJ/mol
# Density = 2.239642 g / cm^3
# Si number density = 22.447516 Si / 1000 Ang^3
#
#
#
# Elastic Constant Matrix: (Units=GPa)
#
#
# Indices 1 2 3 4 5 6 
#
# 1 75.0923 44.2908 30.7120 -0.0001 -6.9918 -0.0001
# 2 44.2908 114.1345 49.4261 0.0000 8.5576 0.0000
# 3 30.7120 49.4261 201.4997 -0.0004 0.1664 -0.0004
# 4 -0.0001 0.0000 -0.0004 25.2706 0.0002 -8.1326
# 5 -6.9918 8.5576 0.1664 0.0002 42.9619 0.0001
# 6 -0.0001 0.0000 -0.0004 -8.1326 0.0001 19.9502
#
#
#
# Elastic Compliance Matrix: (Units=1/GPa)
#
#
# Indices 1 2 3 4 5 6 
#
# 1 0.018262 -0.006944 -0.001084 0.000000 0.004359 0.000000
# 2 -0.006944 0.012609 -0.002031 0.000000 -0.003634 0.000000
# 3 -0.001084 -0.002031 0.005626 0.000000 0.000206 0.000000
# 4 0.000000 0.000000 0.000000 0.045547 0.000000 0.018567
# 5 0.004359 -0.003634 0.000206 0.000000 0.024709 0.000000
# 6 0.000000 0.000000 0.000000 0.018567 0.000000 0.057694
#
#
# Mechanical properties :
#
#
# Convention : Reuss Voigt Hill
#
# Bulk Modulus (GPa) = 61.05770 71.06493 66.06131
# Shear Modulus (GPa) = 26.31251 35.38971 30.85111
#
# Velocity S-wave (km/s) = 3.42742 3.97489 3.71127
# Velocity P-wave (km/s) = 6.55151 7.26590 6.91793
#
# Compressibility (1/GPa) = 0.01637795
#
# Stress axis : x y z
#
# Youngs Moduli (GPa) = 54.75871 79.31156 177.74461
#
# Poissons Ratio (x) = 0.55076 0.19261
# Poissons Ratio (y) = 0.38026 0.36106
# Poissons Ratio (z) = 0.05934 0.16111
#
# Static dielectric constant tensor:
#      x y z
#    x 1.882510 0.000000 0.021680 
#    y 0.000000 1.866330 0.000000 
#    z 0.021680 0.000000 1.767060 
# 
# From -- ./inp_files/23435.got.cif
#   From: 2010.05.17/outbox.cif.g08.bks.cpg/sg15_12_cif.got.tgz:23435.got - 2010.06.03 18:47:42.
