data_PCOD9292986
_publ_section_title
;
Structure prediction by ZEFSAII (Michael W. Deem and Ramdas Pophale) SiO2 
 PCOD9292986
Probable space group: C 2/C
;
_chemical_formula_sum "Si O2"
_cell_formula_units_Z 52
_cell_length_a 9.185053
_cell_length_b 26.801306
_cell_length_c 15.221135
_cell_angle_alpha 90.000000
_cell_angle_beta 134.562968
_cell_angle_gamma 90.000000
_cell_volume 2669.667465
_symmetry_space_group_name_H-M "C 2/C"
_symmetry_group_IT_number 15
_symmetry_cell_setting 'monoclinic'
loop_
_space_group_symop_operation_xyz
x,y,z
-x,y,1/2-z
-x,-y,-z
x,-y,1/2+z
1/2+x,1/2+y,z
1/2-x,1/2+y,1/2-z
1/2-x,1/2-y,-z
1/2+x,1/2-y,1/2+z
loop_
_atom_site_type_symbol
_atom_site_label
_atom_site_fract_x
_atom_site_fract_y
_atom_site_fract_z
Si Si1 0.475207 0.773580 0.089413
Si Si2 0.378534 0.232179 0.346724
Si Si3 0.458488 0.941764 0.474295
Si Si4 0.015783 0.845654 0.087324
Si Si5 0.000000 0.911399 0.250000
Si Si6 0.451398 0.128753 0.137273
Si Si7 0.623878 0.880629 0.383583
O O1 0.641494 0.741721 0.214915
O O2 0.480610 0.828431 0.132812
O O3 0.250000 0.750000 0.000000
O O4 0.480765 0.779121 0.986292
O O5 0.462401 0.288422 0.371965
O O6 0.435765 0.182156 0.319837
O O7 0.503108 0.907432 0.578386
O O8 0.592888 0.917209 0.452515
O O9 0.212566 0.938896 0.357809
O O10 0.500000 0.000000 0.500000
O O11 0.161324 0.862241 0.067871
O O12 0.057547 0.878291 0.190452
O O13 0.785446 0.857208 0.964702
O O14 0.500000 0.103284 0.250000
O O15 0.500000 0.903359 0.250000
#
# Coordination Sequence:
#
# PCOD9292986 Si02
#       7
#     8   8   8   8   4   8   8
#     4  12  22  38  61 100 139 179 227 277 329 417
#     4  12  23  38  65  97 139 184 224 268 339 405
#     4  11  25  48  71  97 129 172 230 289 339 397
#     4  11  23  40  68  96 136 179 221 264 332 420
#     4  10  22  44  70  98 128 172 226 270 328 418
#     4  11  26  45  61  99 141 176 219 283 345 399
#     4  12  21  43  69  98 128 176 230 278 331 408
#
# _framework density 19.478083000000002
#
# number of rings (size 3 to 8) (size 9 to 14) (size 15 to 20)
#    0.000    0.615    6.154    1.846    3.231    0.615 
#    2.769    1.538    0.000    0.000    0.000    0.000 
#    0.000    0.000    0.000    0.000    0.000    0.000 
#
# Total GULP energy -144829.205982 kJ/mol
# GULP energy per Si atom -5570.354076 kJ/mol
# Density = 1.943375 g / cm^3
# Si number density = 19.478083 Si / 1000 Ang^3
#
#
#
# Elastic Constant Matrix: (Units=GPa)
#
#
# Indices 1 2 3 4 5 6 
#
# 1 98.8519 75.7605 49.9419 0.0000 -11.1213 0.0000
# 2 75.7605 140.0384 46.8814 0.0000 -8.7806 0.0000
# 3 49.9419 46.8814 117.6209 0.0000 -17.5804 0.0000
# 4 0.0000 0.0000 0.0000 -9.2871 0.0000 13.5797
# 5 -11.1213 -8.7806 -17.5804 0.0000 26.2385 0.0000
# 6 0.0000 0.0000 0.0000 13.5797 0.0000 11.3682
#
#
#
# Elastic Compliance Matrix: (Units=1/GPa)
#
#
# Indices 1 2 3 4 5 6 
#
# 1 0.019381 -0.008886 -0.004338 0.000000 0.002334 0.000000
# 2 -0.008886 0.012324 -0.001206 0.000000 -0.000451 0.000000
# 3 -0.004338 -0.001206 0.011657 0.000000 0.005568 0.000000
# 4 0.000000 0.000000 0.000000 -0.039203 0.000000 0.046829
# 5 0.002334 -0.000451 0.005568 0.000000 0.042681 0.000000
# 6 0.000000 0.000000 0.000000 0.046829 0.000000 0.032026
#
#
# Mechanical properties :
#
#
# Convention : Reuss Voigt Hill
#
# Bulk Modulus (GPa) = 68.96583 77.96431 73.46507
# Shear Modulus (GPa) = 44.41981 17.92575 31.17278
#
# Velocity S-wave (km/s) = 4.78064 3.03694 4.00484
# Velocity P-wave (km/s) = 8.12136 7.23954 7.69309
#
# Compressibility (1/GPa) = 0.01449994
#
# Stress axis : x y z
#
# Youngs Moduli (GPa) = 51.59642 81.14235 85.78534
#
# Poissons Ratio (x) = 0.72107 0.37217
# Poissons Ratio (y) = 0.45851 0.10348
# Poissons Ratio (z) = 0.22385 0.09788
#
# Static dielectric constant tensor:
#      x y z
#    x 1.758270 0.000000 -0.082470 
#    y 0.000000 1.720410 0.000000 
#    z -0.082470 0.000000 1.906000 
# 
# From -- ./inp_files/138772.got.cif
#   From: 2010.05.17/outbox.cif.g08.bks.cpg/sg15_70_cif.got.tgz:138772.got - 2010.06.03 18:47:42.
