data_PCOD9292656
_publ_section_title
;
Structure prediction by ZEFSAII (Michael W. Deem and Ramdas Pophale) SiO2 
 PCOD9292656
Probable space group: C 2/C
;
_chemical_formula_sum "Si O2"
_cell_formula_units_Z 36
_cell_length_a 11.675685
_cell_length_b 9.711284
_cell_length_c 14.417950
_cell_angle_alpha 90.000000
_cell_angle_beta 113.639362
_cell_angle_gamma 90.000000
_cell_volume 1497.612599
_symmetry_space_group_name_H-M "C 2/C"
_symmetry_group_IT_number 15
_symmetry_cell_setting 'monoclinic'
loop_
_space_group_symop_operation_xyz
x,y,z
-x,y,1/2-z
-x,-y,-z
x,-y,1/2+z
1/2+x,1/2+y,z
1/2-x,1/2+y,1/2-z
1/2-x,1/2-y,-z
1/2+x,1/2-y,1/2+z
loop_
_atom_site_type_symbol
_atom_site_label
_atom_site_fract_x
_atom_site_fract_y
_atom_site_fract_z
Si Si1 0.188054 0.859758 0.547386
Si Si2 0.283842 0.102937 0.472096
Si Si3 0.740071 0.004614 0.236766
Si Si4 0.000000 0.061757 0.250000
Si Si5 0.522084 0.802459 0.119220
O O1 0.250000 0.750000 0.500000
O O2 0.253946 0.912176 0.664753
O O3 0.066244 0.779649 0.542574
O O4 0.187915 0.992858 0.482770
O O5 0.250000 0.250000 0.500000
O O6 0.297581 0.092704 0.366265
O O7 0.421074 0.081848 0.562319
O O8 0.885579 0.974882 0.255691
O O9 0.643830 0.876534 0.204648
O O10 0.031972 0.178370 0.336981
#
# Coordination Sequence:
#
# PCOD9292656 Si02
#       5
#     8   8   8   4   8
#     4  11  26  45  71 111 149 188 254 308 365 452
#     4  12  25  46  74 106 145 198 245 306 382 440
#     4  11  24  44  73 102 143 200 237 308 374 434
#     4  10  22  44  66 102 144 184 244 298 370 436
#     4  11  23  47  72 104 151 190 248 310 365 448
#
# _framework density 24.038259
#
# number of rings (size 3 to 8) (size 9 to 14) (size 15 to 20)
#    0.000    0.889    4.444    2.000    3.111    0.889 
#    0.000    4.444    0.000    0.000    0.000    0.000 
#    0.000    0.000    0.000    0.000    0.000    0.000 
#
# Total GULP energy -100402.847905 kJ/mol
# GULP energy per Si atom -5577.935995 kJ/mol
# Density = 2.398355 g / cm^3
# Si number density = 24.038259 Si / 1000 Ang^3
#
#
#
# Elastic Constant Matrix: (Units=GPa)
#
#
# Indices 1 2 3 4 5 6 
#
# 1 61.3414 14.1445 37.3085 0.0000 -4.6088 0.0000
# 2 14.1445 105.4406 30.8437 0.0000 -11.2311 0.0000
# 3 37.3085 30.8437 128.7906 0.0000 -26.0754 0.0000
# 4 0.0000 0.0000 0.0000 35.6522 0.0000 -7.0487
# 5 -4.6088 -11.2311 -26.0754 0.0000 53.6818 0.0000
# 6 0.0000 0.0000 0.0000 -7.0487 0.0000 42.1536
#
#
#
# Elastic Compliance Matrix: (Units=1/GPa)
#
#
# Indices 1 2 3 4 5 6 
#
# 1 0.019983 -0.001129 -0.005788 0.000000 -0.001332 0.000000
# 2 -0.001129 0.010316 -0.001914 0.000000 0.001131 0.000000
# 3 -0.005788 -0.001914 0.010778 0.000000 0.004338 0.000000
# 4 0.000000 0.000000 0.000000 0.029008 0.000000 0.004851
# 5 -0.001332 0.001131 0.004338 0.000000 0.020858 0.000000
# 6 0.000000 0.000000 0.000000 0.004851 0.000000 0.024534
#
#
# Mechanical properties :
#
#
# Convention : Reuss Voigt Hill
#
# Bulk Modulus (GPa) = 42.71045 51.12954 46.91999
# Shear Modulus (GPa) = 35.47514 40.51593 37.99553
#
# Velocity S-wave (km/s) = 3.84575 4.10991 3.98002
# Velocity P-wave (km/s) = 6.12585 6.62103 6.37825
#
# Compressibility (1/GPa) = 0.02341348
#
# Stress axis : x y z
#
# Youngs Moduli (GPa) = 50.04297 96.93669 92.78232
#
# Poissons Ratio (x) = 0.10948 0.53702
# Poissons Ratio (y) = 0.05652 0.17761
# Poissons Ratio (z) = 0.28964 0.18557
#
# Static dielectric constant tensor:
#      x y z
#    x 2.017960 0.000000 0.135850 
#    y 0.000000 1.312370 0.000000 
#    z 0.135850 0.000000 2.006970 
# 
# From -- ./inp_files/141980.got.cif
#   From: 2010.05.17/outbox.cif.g08.bks.cpg/sg15_71_cif.got.tgz:141980.got - 2010.06.03 18:47:42.
