data_PCOD9292358
_publ_section_title
;
Structure prediction by ZEFSAII (Michael W. Deem and Ramdas Pophale) SiO2 
 PCOD9292358
Probable space group: C 2/C
;
_chemical_formula_sum "Si O2"
_cell_formula_units_Z 40
_cell_length_a 10.654765
_cell_length_b 7.266982
_cell_length_c 20.156901
_cell_angle_alpha 90.000000
_cell_angle_beta 98.330535
_cell_angle_gamma 90.000000
_cell_volume 1544.240762
_symmetry_space_group_name_H-M "C 2/C"
_symmetry_group_IT_number 15
_symmetry_cell_setting 'monoclinic'
loop_
_space_group_symop_operation_xyz
x,y,z
-x,y,1/2-z
-x,-y,-z
x,-y,1/2+z
1/2+x,1/2+y,z
1/2-x,1/2+y,1/2-z
1/2-x,1/2-y,-z
1/2+x,1/2-y,1/2+z
loop_
_atom_site_type_symbol
_atom_site_label
_atom_site_fract_x
_atom_site_fract_y
_atom_site_fract_z
Si Si1 0.410845 0.487182 0.403739
Si Si2 0.388227 0.850244 0.988493
Si Si3 0.357391 0.867493 0.141899
Si Si4 0.393232 0.463624 0.189736
Si Si5 0.630141 0.096732 0.630220
O O1 0.414667 0.357053 0.468022
O O2 0.280375 0.449177 0.352376
O O3 0.536380 0.425780 0.374401
O O4 0.903847 0.208371 0.407197
O O5 0.321268 0.947967 0.919998
O O6 0.339808 0.847720 0.059829
O O7 0.500000 0.000000 0.000000
O O8 0.377403 0.684622 0.186210
O O9 0.497609 0.963942 0.154723
O O10 0.500000 0.409307 0.250000
O O11 0.253960 0.378484 0.184992
#
# Coordination Sequence:
#
# PCOD9292358 Si02
#       5
#     8   8   8   8   8
#     4  11  24  42  70 102 133 179 220 270 347 403
#     4  10  22  43  70 105 144 171 212 283 351 412
#     4  10  23  45  68 103 135 175 220 278 344 407
#     4  11  26  46  66  96 135 182 239 284 326 399
#     4  10  24  42  67 101 138 175 223 274 341 408
#
# _framework density 25.902695000000001
#
# number of rings (size 3 to 8) (size 9 to 14) (size 15 to 20)
#    0.000    1.600    2.000    0.600    5.600   11.200 
#    0.000    1.000    0.000    0.000    0.000    0.000 
#    0.000    0.000    0.000    0.000    0.000    0.000 
#
# Total GULP energy -111530.362879 kJ/mol
# GULP energy per Si atom -5576.518144 kJ/mol
# Density = 2.584374 g / cm^3
# Si number density = 25.902695 Si / 1000 Ang^3
#
#
#
# Elastic Constant Matrix: (Units=GPa)
#
#
# Indices 1 2 3 4 5 6 
#
# 1 191.6450 13.9059 6.4226 0.0000 30.7184 0.0000
# 2 13.9059 111.4757 4.5685 0.0000 4.0668 0.0000
# 3 6.4226 4.5685 49.1836 0.0000 18.4824 0.0000
# 4 0.0000 0.0000 0.0000 24.5211 0.0000 13.1393
# 5 30.7184 4.0668 18.4824 0.0000 39.9214 0.0000
# 6 0.0000 0.0000 0.0000 13.1393 0.0000 36.6896
#
#
#
# Elastic Compliance Matrix: (Units=1/GPa)
#
#
# Indices 1 2 3 4 5 6 
#
# 1 0.006047 -0.000616 0.001202 0.000000 -0.005147 0.000000
# 2 -0.000616 0.009081 -0.000719 0.000000 -0.000119 0.000000
# 3 0.001202 -0.000719 0.024892 0.000000 -0.012376 0.000000
# 4 0.000000 0.000000 0.000000 0.050465 0.000000 -0.018073
# 5 -0.005147 -0.000119 -0.012376 0.000000 0.034751 0.000000
# 6 0.000000 0.000000 0.000000 -0.018073 0.000000 0.033728
#
#
# Mechanical properties :
#
#
# Convention : Reuss Voigt Hill
#
# Bulk Modulus (GPa) = 25.15377 44.67757 34.91567
# Shear Modulus (GPa) = 28.98838 42.05355 35.52097
#
# Velocity S-wave (km/s) = 3.34896 4.03366 3.70716
# Velocity P-wave (km/s) = 4.96850 6.24337 5.64206
#
# Compressibility (1/GPa) = 0.03975547
#
# Stress axis : x y z
#
# Youngs Moduli (GPa) = 165.36088 110.11803 40.17278
#
# Poissons Ratio (x) = 0.06782 -0.04827
# Poissons Ratio (y) = 0.10184 0.02887
# Poissons Ratio (z) = -0.19870 0.07912
#
# Static dielectric constant tensor:
#      x y z
#    x 2.142140 0.000000 0.079090 
#    y 0.000000 2.038860 0.000000 
#    z 0.079090 0.000000 2.213810 
# 
# From -- ./inp_files/229971.got.cif
#   From: 2010.05.17/outbox.cif.g08.bks.cpg/sg15_115_cif.got.tgz:229971.got - 2010.06.03 18:47:42.
