data_PCOD9292935
_publ_section_title
;
Structure prediction by ZEFSAII (Michael W. Deem and Ramdas Pophale) SiO2 
 PCOD9292935
Probable space group: C 2/C
;
_chemical_formula_sum "Si O2"
_cell_formula_units_Z 32
_cell_length_a 22.011936
_cell_length_b 7.141363
_cell_length_c 10.710233
_cell_angle_alpha 90.000000
_cell_angle_beta 44.107036
_cell_angle_gamma 90.000000
_cell_volume 1171.785500
_symmetry_space_group_name_H-M "C 2/C"
_symmetry_group_IT_number 15
_symmetry_cell_setting 'monoclinic'
loop_
_space_group_symop_operation_xyz
x,y,z
-x,y,1/2-z
-x,-y,-z
x,-y,1/2+z
1/2+x,1/2+y,z
1/2-x,1/2+y,1/2-z
1/2-x,1/2-y,-z
1/2+x,1/2-y,1/2+z
loop_
_atom_site_type_symbol
_atom_site_label
_atom_site_fract_x
_atom_site_fract_y
_atom_site_fract_z
Si Si1 0.347843 0.149831 0.128751
Si Si2 0.163711 0.212448 0.328988
Si Si3 0.000000 0.000000 0.000000
Si Si4 0.893452 0.249280 0.819299
Si Si5 0.500000 0.896203 0.250000
O O1 0.267147 0.184377 0.156768
O O2 0.334234 0.240708 0.283302
O O3 0.356827 0.931414 0.143014
O O4 0.442189 0.220582 0.935153
O O5 0.098809 0.097798 0.339325
O O6 0.149983 0.160557 0.495567
O O7 0.978740 0.857340 0.145856
O O8 0.929277 0.461633 0.794533
#
# Coordination Sequence:
#
# PCOD9292935 Si02
#       5
#     8   8   4   8   4
#     4  11  23  46  73 102 144 185 234 290 352 421
#     4  11  25  45  69 107 141 183 238 289 356 417
#     4  12  22  44  68 100 142 184 228 292 348 412
#     4  11  22  46  68  97 147 185 229 291 347 420
#     4  10  22  44  70 102 138 180 232 290 354 404
#
# _framework density 27.308752999999999
#
# number of rings (size 3 to 8) (size 9 to 14) (size 15 to 20)
#    0.000    1.000    5.000    3.000    0.000    2.000 
#    9.000    6.250    0.000    0.000    0.000    0.000 
#    0.000    0.000    0.000    0.000    0.000    0.000 
#
# Total GULP energy -89188.348237 kJ/mol
# GULP energy per Si atom -5574.271765 kJ/mol
# Density = 2.724660 g / cm^3
# Si number density = 27.308753 Si / 1000 Ang^3
#
#
#
# Elastic Constant Matrix: (Units=GPa)
#
#
# Indices 1 2 3 4 5 6 
#
# 1 121.3652 -2.0070 18.2175 0.0000 -44.3375 0.0000
# 2 -2.0070 68.9321 5.0432 0.0000 0.9784 0.0000
# 3 18.2175 5.0432 116.2967 0.0000 -11.9179 0.0000
# 4 0.0000 0.0000 0.0000 29.0297 0.0000 -11.5965
# 5 -44.3375 0.9784 -11.9179 0.0000 46.7754 0.0000
# 6 0.0000 0.0000 0.0000 -11.5965 0.0000 13.3119
#
#
#
# Elastic Compliance Matrix: (Units=1/GPa)
#
#
# Indices 1 2 3 4 5 6 
#
# 1 0.012676 0.000259 -0.000787 0.000000 0.011810 0.000000
# 2 0.000259 0.014569 -0.000697 0.000000 -0.000237 0.000000
# 3 -0.000787 -0.000697 0.008910 0.000000 0.001539 0.000000
# 4 0.000000 0.000000 0.000000 0.052833 0.000000 0.046025
# 5 0.011810 -0.000237 0.001539 0.000000 0.032970 0.000000
# 6 0.000000 0.000000 0.000000 0.046025 0.000000 0.115215
#
#
# Mechanical properties :
#
#
# Convention : Reuss Voigt Hill
#
# Bulk Modulus (GPa) = 29.66782 38.78904 34.22843
# Shear Modulus (GPa) = 19.93166 36.84610 28.38888
#
# Velocity S-wave (km/s) = 2.70453 3.67719 3.22771
# Velocity P-wave (km/s) = 4.54313 5.68011 5.14314
#
# Compressibility (1/GPa) = 0.03370655
#
# Stress axis : x y z
#
# Youngs Moduli (GPa) = 78.88687 68.63936 112.23528
#
# Poissons Ratio (x) = -0.01778 0.08829
# Poissons Ratio (y) = -0.02043 0.07818
# Poissons Ratio (z) = 0.06206 0.04781
#
# Static dielectric constant tensor:
#      x y z
#    x 2.063870 0.000000 -0.067410 
#    y 0.000000 2.309830 0.000000 
#    z -0.067410 0.000000 2.104050 
# 
# From -- ./inp_files/102171.got.cif
#   From: 2010.05.17/outbox.cif.g08.bks.cpg/sg15_52_cif.got.tgz:102171.got - 2010.06.03 18:47:42.
