data_PCOD9292115
_publ_section_title
;
Structure prediction by ZEFSAII (Michael W. Deem and Ramdas Pophale) SiO2 
 PCOD9292115
Probable space group: C 2/C
;
_chemical_formula_sum "Si O2"
_cell_formula_units_Z 44
_cell_length_a 8.573597
_cell_length_b 18.331245
_cell_length_c 14.706923
_cell_angle_alpha 90.000000
_cell_angle_beta 121.409604
_cell_angle_gamma 90.000000
_cell_volume 1972.703316
_symmetry_space_group_name_H-M "C 2/C"
_symmetry_group_IT_number 15
_symmetry_cell_setting 'monoclinic'
loop_
_space_group_symop_operation_xyz
x,y,z
-x,y,1/2-z
-x,-y,-z
x,-y,1/2+z
1/2+x,1/2+y,z
1/2-x,1/2+y,1/2-z
1/2-x,1/2-y,-z
1/2+x,1/2-y,1/2+z
loop_
_atom_site_type_symbol
_atom_site_label
_atom_site_fract_x
_atom_site_fract_y
_atom_site_fract_z
Si Si1 0.242246 0.815773 0.226097
Si Si2 0.466716 0.221552 0.967369
Si Si3 0.069551 0.339430 0.668853
Si Si4 0.000000 0.918093 0.250000
Si Si5 0.799770 0.529490 0.411743
Si Si6 0.198985 0.146464 0.516617
O O1 0.353809 0.816480 0.353521
O O2 0.203337 0.730054 0.207660
O O3 0.299365 0.846378 0.145195
O O4 0.063507 0.863681 0.190549
O O5 0.670032 0.189166 0.013247
O O6 0.415032 0.190627 0.050806
O O7 0.509424 0.307918 0.969021
O O8 0.161168 0.411402 0.655859
O O9 0.000000 0.349405 0.750000
O O10 0.833188 0.968304 0.167847
O O11 0.701365 0.567783 0.469358
O O12 0.000000 0.500000 0.500000
#
# Coordination Sequence:
#
# PCOD9292115 Si02
#       6
#     8   8   8   4   8   8
#     4  11  22  41  67 100 131 174 232 289 331 406
#     4   9  19  37  66  98 132 165 229 288 325 399
#     4  10  22  43  66  97 129 182 229 276 345 400
#     4  12  26  42  66 102 144 178 226 288 350 400
#     4  11  26  46  64  99 147 181 227 284 343 416
#     4   9  20  39  63  96 128 180 222 271 343 403
#
# _framework density 22.304417000000001
#
# number of rings (size 3 to 8) (size 9 to 14) (size 15 to 20)
#    0.000    1.818    0.909    3.818    2.545    2.909 
#    6.545    0.000    0.000    0.000    0.000    0.000 
#    0.000    0.000    0.000    0.000    0.000    0.000 
#
# Total GULP energy -122555.369333 kJ/mol
# GULP energy per Si atom -5570.698606 kJ/mol
# Density = 2.225365 g / cm^3
# Si number density = 22.304417 Si / 1000 Ang^3
#
#
#
# Elastic Constant Matrix: (Units=GPa)
#
#
# Indices 1 2 3 4 5 6 
#
# 1 66.4603 35.6638 54.5996 0.0000 -18.7304 0.0000
# 2 35.6638 100.6314 35.1673 0.0000 -2.8218 0.0000
# 3 54.5996 35.1673 135.6318 0.0000 -33.1602 0.0000
# 4 0.0000 0.0000 0.0000 3.4926 0.0000 -13.1023
# 5 -18.7304 -2.8218 -33.1602 0.0000 44.5400 0.0000
# 6 0.0000 0.0000 0.0000 -13.1023 0.0000 29.6493
#
#
#
# Elastic Compliance Matrix: (Units=1/GPa)
#
#
# Indices 1 2 3 4 5 6 
#
# 1 0.026200 -0.006467 -0.007674 0.000000 0.004895 0.000000
# 2 -0.006467 0.012634 -0.001396 0.000000 -0.002958 0.000000
# 3 -0.007674 -0.001396 0.012242 0.000000 0.005798 0.000000
# 4 0.000000 0.000000 0.000000 -0.435273 0.000000 -0.192351
# 5 0.004895 -0.002958 0.005798 0.000000 0.028640 0.000000
# 6 0.000000 0.000000 0.000000 -0.192351 0.000000 -0.051274
#
#
# Mechanical properties :
#
#
# Convention : Reuss Voigt Hill
#
# Bulk Modulus (GPa) = 49.99053 61.50944 55.74999
# Shear Modulus (GPa) = -13.54676 27.35591 6.90457
#
# Velocity S-wave (km/s) = -2.46714 3.50591 1.76134
# Velocity P-wave (km/s) = 3.78759 6.63518 5.40238
#
# Compressibility (1/GPa) = 0.02000379
#
# Stress axis : x y z
#
# Youngs Moduli (GPa) = 38.16723 79.15246 81.68882
#
# Poissons Ratio (x) = 0.51184 0.62686
# Poissons Ratio (y) = 0.24681 0.11403
# Poissons Ratio (z) = 0.29288 0.11049
#
# Static dielectric constant tensor:
#      x y z
#    x 2.967920 0.000000 -0.506750 
#    y 0.000000 1.886220 0.000000 
#    z -0.506750 0.000000 2.173910 
# 
# From -- ./inp_files/134964.got.cif
#   From: 2010.05.17/outbox.cif.g08.bks.cpg/sg15_68_cif.got.tgz:134964.got - 2010.06.03 18:47:42.
