data_PCOD9292729
_publ_section_title
;
Structure prediction by ZEFSAII (Michael W. Deem and Ramdas Pophale) SiO2 
 PCOD9292729
Probable space group: C 2/C
;
_chemical_formula_sum "Si O2"
_cell_formula_units_Z 44
_cell_length_a 4.998621
_cell_length_b 22.334870
_cell_length_c 19.061251
_cell_angle_alpha 90.000000
_cell_angle_beta 61.001606
_cell_angle_gamma 90.000000
_cell_volume 1861.277146
_symmetry_space_group_name_H-M "C 2/C"
_symmetry_group_IT_number 15
_symmetry_cell_setting 'monoclinic'
loop_
_space_group_symop_operation_xyz
x,y,z
-x,y,1/2-z
-x,-y,-z
x,-y,1/2+z
1/2+x,1/2+y,z
1/2-x,1/2+y,1/2-z
1/2-x,1/2-y,-z
1/2+x,1/2-y,1/2+z
loop_
_atom_site_type_symbol
_atom_site_label
_atom_site_fract_x
_atom_site_fract_y
_atom_site_fract_z
Si Si1 0.100605 0.502181 0.905717
Si Si2 0.961017 0.200507 0.039086
Si Si3 0.500000 0.715197 0.250000
Si Si4 0.215889 0.928470 0.339575
Si Si5 0.684067 0.864211 0.897340
Si Si6 0.484347 0.707056 0.875080
O O1 0.434476 0.530184 0.853265
O O2 0.143388 0.432611 0.881697
O O3 0.858977 0.541249 0.891582
O O4 0.000000 0.500000 0.000000
O O5 0.646234 0.163615 0.074942
O O6 0.844862 0.261189 0.093567
O O7 0.209849 0.154751 0.038444
O O8 0.045214 0.220210 0.949767
O O9 0.550677 0.669794 0.179529
O O10 0.787994 0.758901 0.206201
O O11 0.500000 0.925717 0.250000
O O12 0.055624 0.863160 0.362628
#
# Coordination Sequence:
#
# PCOD9292729 Si02
#       6
#     8   8   4   8   8   8
#     4  12  26  47  74 102 142 193 247 300 360 439
#     4  10  23  42  73  96 137 179 233 289 342 427
#     4  10  24  40  66  94 136 174 220 290 348 416
#     4  12  26  44  71 106 145 190 234 307 371 436
#     4  11  24  45  66 103 131 183 234 288 351 420
#     4  10  22  44  67 103 137 181 231 283 362 424
#
# _framework density 23.639682000000001
#
# number of rings (size 3 to 8) (size 9 to 14) (size 15 to 20)
#    0.000    1.091    0.909    4.364    2.545   12.364 
#    3.273    0.000    0.000    0.000    0.000    0.000 
#    0.000    0.000    0.000    0.000    0.000    0.000 
#
# Total GULP energy -122861.418804 kJ/mol
# GULP energy per Si atom -5584.609946 kJ/mol
# Density = 2.358588 g / cm^3
# Si number density = 23.639682 Si / 1000 Ang^3
#
#
#
# Elastic Constant Matrix: (Units=GPa)
#
#
# Indices 1 2 3 4 5 6 
#
# 1 105.1214 60.4603 5.7412 0.0000 -23.9308 0.0000
# 2 60.4603 215.7053 41.7802 0.0000 -18.0439 0.0000
# 3 5.7412 41.7802 77.7930 0.0000 -12.4016 0.0000
# 4 0.0000 0.0000 0.0000 33.7027 0.0000 -3.4784
# 5 -23.9308 -18.0439 -12.4016 0.0000 34.3722 0.0000
# 6 0.0000 0.0000 0.0000 -3.4784 0.0000 12.0312
#
#
#
# Elastic Compliance Matrix: (Units=1/GPa)
#
#
# Indices 1 2 3 4 5 6 
#
# 1 0.013243 -0.003449 0.002182 0.000000 0.008197 0.000000
# 2 -0.003449 0.006182 -0.003110 0.000000 -0.000278 0.000000
# 3 0.002182 -0.003110 0.015221 0.000000 0.005378 0.000000
# 4 0.000000 0.000000 0.000000 0.030584 0.000000 0.008842
# 5 0.008197 -0.000278 0.005378 0.000000 0.036595 0.000000
# 6 0.000000 0.000000 0.000000 0.008842 0.000000 0.085673
#
#
# Mechanical properties :
#
#
# Convention : Reuss Voigt Hill
#
# Bulk Modulus (GPa) = 38.62173 68.28699 53.45436
# Shear Modulus (GPa) = 24.40419 35.39712 29.90065
#
# Velocity S-wave (km/s) = 3.21649 3.87377 3.56033
# Velocity P-wave (km/s) = 5.49250 6.99696 6.28987
#
# Compressibility (1/GPa) = 0.02589216
#
# Stress axis : x y z
#
# Youngs Moduli (GPa) = 75.50989 161.76728 65.69794
#
# Poissons Ratio (x) = 0.55791 -0.14333
# Poissons Ratio (y) = 0.26042 0.20431
# Poissons Ratio (z) = -0.16474 0.50307
#
# Static dielectric constant tensor:
#      x y z
#    x 1.975190 0.000000 0.086580 
#    y 0.000000 1.955490 0.000000 
#    z 0.086580 0.000000 1.948620 
# 
# From -- ./inp_files/261083.got.cif
#   From: 2010.05.17/outbox.cif.g08.bks.cpg/sg15_131_cif.got.tgz:261083.got - 2010.06.03 18:47:42.
