data_PCOD9292452
_publ_section_title
;
Structure prediction by ZEFSAII (Michael W. Deem and Ramdas Pophale) SiO2 
 PCOD9292452
Probable space group: C 2/C
;
_chemical_formula_sum "Si O2"
_cell_formula_units_Z 48
_cell_length_a 5.328507
_cell_length_b 23.353334
_cell_length_c 16.500220
_cell_angle_alpha 90.000000
_cell_angle_beta 79.881906
_cell_angle_gamma 90.000000
_cell_volume 2021.328209
_symmetry_space_group_name_H-M "C 2/C"
_symmetry_group_IT_number 15
_symmetry_cell_setting 'monoclinic'
loop_
_space_group_symop_operation_xyz
x,y,z
-x,y,1/2-z
-x,-y,-z
x,-y,1/2+z
1/2+x,1/2+y,z
1/2-x,1/2+y,1/2-z
1/2-x,1/2-y,-z
1/2+x,1/2-y,1/2+z
loop_
_atom_site_type_symbol
_atom_site_label
_atom_site_fract_x
_atom_site_fract_y
_atom_site_fract_z
Si Si1 0.738063 0.598919 0.962504
Si Si2 0.079817 0.387626 0.875557
Si Si3 0.500000 0.433241 0.250000
Si Si4 0.763068 0.853096 0.388998
Si Si5 0.168175 0.723524 0.158438
Si Si6 0.000000 0.842018 0.750000
Si Si7 0.179661 0.501537 0.159932
O O1 0.469679 0.619094 0.939495
O O2 0.844269 0.541048 0.914808
O O3 0.967845 0.642133 0.928348
O O4 0.748222 0.594753 0.058305
O O5 0.263963 0.381027 0.787856
O O6 0.949524 0.325569 0.891440
O O7 0.871475 0.435705 0.869599
O O8 0.303059 0.388333 0.302205
O O9 0.440751 0.477720 0.181735
O O10 0.824207 0.786344 0.377151
O O11 0.433632 0.698321 0.177613
O O12 0.000000 0.726528 0.250000
O O13 0.000000 0.492204 0.250000
#
# Coordination Sequence:
#
# PCOD9292452 Si02
#       7
#     8   8   4   8   8   4   8
#     4  11  27  46  71 106 144 184 231 299 353 422
#     4  11  26  46  66 103 141 188 237 285 362 419
#     4  10  22  43  72 104 136 181 240 294 354 420
#     4  11  24  45  74 104 141 181 235 291 355 420
#     4  10  23  42  72 101 138 187 235 291 345 423
#     4  10  24  45  68 102 138 193 242 288 348 428
#     4  11  22  44  72  99 137 181 236 288 351 418
#
# _framework density 23.746763999999999
#
# number of rings (size 3 to 8) (size 9 to 14) (size 15 to 20)
#    0.000    1.333    2.500    2.000    7.000    4.000 
#    0.000    2.500    0.000    0.000    0.000    0.000 
#    0.000    0.000    0.000    0.000    0.000    0.000 
#
# Total GULP energy -134054.095390 kJ/mol
# GULP energy per Si atom -5585.587308 kJ/mol
# Density = 2.369272 g / cm^3
# Si number density = 23.746764 Si / 1000 Ang^3
#
#
#
# Elastic Constant Matrix: (Units=GPa)
#
#
# Indices 1 2 3 4 5 6 
#
# 1 60.9210 18.4594 1.4917 0.0000 11.5920 0.0000
# 2 18.4594 166.3380 24.9702 0.0000 9.7556 0.0000
# 3 1.4917 24.9702 51.1249 0.0000 17.8428 0.0000
# 4 0.0000 0.0000 0.0000 8.4656 0.0000 1.3621
# 5 11.5920 9.7556 17.8428 0.0000 32.0539 0.0000
# 6 0.0000 0.0000 0.0000 1.3621 0.0000 25.1676
#
#
#
# Elastic Compliance Matrix: (Units=1/GPa)
#
#
# Indices 1 2 3 4 5 6 
#
# 1 0.018453 -0.002070 0.003204 0.000000 -0.007827 0.000000
# 2 -0.002070 0.006721 -0.003438 0.000000 0.000616 0.000000
# 3 0.003204 -0.003438 0.026293 0.000000 -0.014748 0.000000
# 4 0.000000 0.000000 0.000000 0.119163 0.000000 -0.006449
# 5 -0.007827 0.000616 -0.014748 0.000000 0.042050 0.000000
# 6 0.000000 0.000000 0.000000 -0.006449 0.000000 0.040083
#
#
# Mechanical properties :
#
#
# Convention : Reuss Voigt Hill
#
# Bulk Modulus (GPa) = 21.34007 40.91407 31.12707
# Shear Modulus (GPa) = 18.31579 28.70159 23.50869
#
# Velocity S-wave (km/s) = 2.78023 3.48034 3.14980
# Velocity P-wave (km/s) = 4.39458 5.78075 5.13466
#
# Compressibility (1/GPa) = 0.04686020
#
# Stress axis : x y z
#
# Youngs Moduli (GPa) = 54.19270 148.77775 38.03354
#
# Poissons Ratio (x) = 0.30793 -0.12186
# Poissons Ratio (y) = 0.11216 0.13074
# Poissons Ratio (z) = -0.17364 0.51144
#
# Static dielectric constant tensor:
#      x y z
#    x 2.017630 0.000000 0.010090 
#    y 0.000000 1.847080 0.000000 
#    z 0.010090 0.000000 1.952720 
# 
# From -- ./inp_files/185513.got.cif
#   From: 2010.05.17/outbox.cif.g08.bks.cpg/sg15_93_cif.got.tgz:185513.got - 2010.06.03 18:47:42.
