data_PCOD9292637
_publ_section_title
;
Structure prediction by ZEFSAII (Michael W. Deem and Ramdas Pophale) SiO2 
 PCOD9292637
Probable space group: C 2/C
;
_chemical_formula_sum "Si O2"
_cell_formula_units_Z 60
_cell_length_a 7.563055
_cell_length_b 22.939325
_cell_length_c 15.859114
_cell_angle_alpha 90.000000
_cell_angle_beta 91.451869
_cell_angle_gamma 90.000000
_cell_volume 2750.536210
_symmetry_space_group_name_H-M "C 2/C"
_symmetry_group_IT_number 15
_symmetry_cell_setting 'monoclinic'
loop_
_space_group_symop_operation_xyz
x,y,z
-x,y,1/2-z
-x,-y,-z
x,-y,1/2+z
1/2+x,1/2+y,z
1/2-x,1/2+y,1/2-z
1/2-x,1/2-y,-z
1/2+x,1/2-y,1/2+z
loop_
_atom_site_type_symbol
_atom_site_label
_atom_site_fract_x
_atom_site_fract_y
_atom_site_fract_z
Si Si1 0.529537 0.232465 0.650974
Si Si2 0.237407 0.698154 0.067373
Si Si3 0.500000 0.523470 0.250000
Si Si4 0.745916 0.060832 0.489072
Si Si5 0.900997 0.728770 0.173754
Si Si6 0.682238 0.900051 0.795442
Si Si7 0.598848 0.884951 0.438996
Si Si8 0.084266 0.050844 0.587582
O O1 0.500000 0.224637 0.750000
O O2 0.412853 0.288857 0.623146
O O3 0.735438 0.239738 0.632407
O O4 0.469843 0.174512 0.602449
O O5 0.055128 0.710063 0.113514
O O6 0.250000 0.750000 0.000000
O O7 0.208768 0.635932 0.023382
O O8 0.666897 0.565904 0.251240
O O9 0.491429 0.484656 0.334103
O O10 0.707462 0.086080 0.395203
O O11 0.567514 0.074080 0.539422
O O12 0.921882 0.083660 0.539582
O O13 0.811248 0.994342 0.473528
O O14 0.817910 0.669724 0.212178
O O15 0.000000 0.762694 0.250000
O O16 0.500000 0.919584 0.750000
O O17 0.750849 0.910383 0.381056
#
# Coordination Sequence:
#
# PCOD9292637 Si02
#       8
#     8   8   4   8   8   8   8   8
#     4  11  25  42  65  97 136 174 221 266 320 392
#     4  10  23  41  62  95 131 170 217 270 318 384
#     4  10  24  44  64 100 130 172 214 274 336 394
#     4  10  22  44  65  97 125 168 217 273 328 389
#     4  11  22  41  66  97 132 173 217 271 327 386
#     4  10  23  39  68  98 128 166 216 272 332 389
#     4  11  24  41  66  95 129 177 215 264 327 392
#     4  10  24  43  67  96 132 169 217 276 329 391
#
# _framework density 21.813929000000002
#
# number of rings (size 3 to 8) (size 9 to 14) (size 15 to 20)
#    0.000    1.600    2.667    0.400    2.800   10.667 
#    0.000    0.667    0.000    0.000    0.000    0.000 
#    0.000    0.000    0.000    0.000    0.000    0.000 
#
# Total GULP energy -167405.784146 kJ/mol
# GULP energy per Si atom -5580.192805 kJ/mol
# Density = 2.176428 g / cm^3
# Si number density = 21.813929 Si / 1000 Ang^3
#
#
#
# Elastic Constant Matrix: (Units=GPa)
#
#
# Indices 1 2 3 4 5 6 
#
# 1 169.9917 43.2574 42.1653 0.0000 15.5318 0.0000
# 2 43.2574 42.9741 16.9543 0.0000 7.1284 0.0000
# 3 42.1653 16.9543 70.6618 0.0000 0.8418 0.0000
# 4 0.0000 0.0000 0.0000 9.9556 0.0000 -1.4569
# 5 15.5318 7.1284 0.8418 0.0000 36.1186 0.0000
# 6 0.0000 0.0000 0.0000 -1.4569 0.0000 33.1130
#
#
#
# Elastic Compliance Matrix: (Units=1/GPa)
#
#
# Indices 1 2 3 4 5 6 
#
# 1 0.008756 -0.007050 -0.003506 0.000000 -0.002292 0.000000
# 2 -0.007050 0.032288 -0.003501 0.000000 -0.003259 0.000000
# 3 -0.003506 -0.003501 0.017063 0.000000 0.001801 0.000000
# 4 0.000000 0.000000 0.000000 0.101097 0.000000 0.004448
# 5 -0.002292 -0.003259 0.001801 0.000000 0.029273 0.000000
# 6 0.000000 0.000000 0.000000 0.004448 0.000000 0.030395
#
#
# Mechanical properties :
#
#
# Convention : Reuss Voigt Hill
#
# Bulk Modulus (GPa) = 33.34216 54.26464 43.80340
# Shear Modulus (GPa) = 19.45646 27.92080 23.68863
#
# Velocity S-wave (km/s) = 2.98976 3.58152 3.29894
# Velocity P-wave (km/s) = 5.21883 6.48330 5.88513
#
# Compressibility (1/GPa) = 0.02999206
#
# Stress axis : x y z
#
# Youngs Moduli (GPa) = 114.21176 30.97085 58.60783
#
# Poissons Ratio (x) = 0.21835 0.20547
# Poissons Ratio (y) = 0.80520 0.20521
# Poissons Ratio (z) = 0.40040 0.10844
#
# Static dielectric constant tensor:
#      x y z
#    x 1.835820 0.000000 0.002440 
#    y 0.000000 1.854940 0.000000 
#    z 0.002440 0.000000 1.945470 
# 
# From -- ./inp_files/186189.got.cif
#   From: 2010.05.17/outbox.cif.g08.bks.cpg/sg15_94_cif.got.tgz:186189.got - 2010.06.03 18:47:42.
