data_PCOD9292969
_publ_section_title
;
Structure prediction by ZEFSAII (Michael W. Deem and Ramdas Pophale) SiO2 
 PCOD9292969
Probable space group: C 2/C
;
_chemical_formula_sum "Si O2"
_cell_formula_units_Z 64
_cell_length_a 16.128438
_cell_length_b 11.456179
_cell_length_c 26.790315
_cell_angle_alpha 90.000000
_cell_angle_beta 30.246907
_cell_angle_gamma 90.000000
_cell_volume 2493.477457
_symmetry_space_group_name_H-M "C 2/C"
_symmetry_group_IT_number 15
_symmetry_cell_setting 'monoclinic'
loop_
_space_group_symop_operation_xyz
x,y,z
-x,y,1/2-z
-x,-y,-z
x,-y,1/2+z
1/2+x,1/2+y,z
1/2-x,1/2+y,1/2-z
1/2-x,1/2-y,-z
1/2+x,1/2-y,1/2+z
loop_
_atom_site_type_symbol
_atom_site_label
_atom_site_fract_x
_atom_site_fract_y
_atom_site_fract_z
Si Si1 0.887906 0.008581 0.609229
Si Si2 0.760542 0.079152 0.380324
Si Si3 0.122085 0.533402 0.596464
Si Si4 0.911263 0.551820 0.614946
Si Si5 0.122331 0.293443 0.236647
Si Si6 0.446424 0.581123 0.379050
Si Si7 0.123592 0.304521 0.644273
Si Si8 0.212910 0.739761 0.196469
O O1 0.970833 0.995167 0.620617
O O2 0.775710 0.891949 0.666115
O O3 0.269465 0.270900 0.373040
O O4 0.000000 0.000000 0.500000
O O5 0.577552 0.075781 0.497799
O O6 0.823009 0.209338 0.337151
O O7 0.888037 0.029067 0.355300
O O8 0.725236 0.018575 0.345326
O O9 0.267466 0.607383 0.496382
O O10 0.197869 0.412153 0.576990
O O11 0.983768 0.498120 0.627552
O O12 0.024615 0.611609 0.686149
O O13 0.826385 0.674970 0.667878
O O14 0.282804 0.373070 0.162647
O O15 0.053255 0.195200 0.311082
O O16 0.021095 0.241864 0.810884
O O17 0.000000 0.361541 0.750000
#
# Coordination Sequence:
#
# PCOD9292969 Si02
#       8
#     8   8   8   8   8   8   8   8
#     4  12  25  45  74 111 149 190 252 319 377 444
#     4  10  25  46  67 101 147 199 241 299 375 450
#     4  11  22  42  71 103 143 182 239 308 364 442
#     4  10  22  44  70  95 145 191 241 298 362 449
#     4  12  25  44  71 108 148 188 246 315 370 443
#     4  11  27  45  69 111 144 199 246 294 390 454
#     4   8  19  37  63  97 131 175 230 291 365 416
#     4   9  19  39  63  96 130 180 235 289 363 419
#
# _framework density 25.666965000000001
#
# number of rings (size 3 to 8) (size 9 to 14) (size 15 to 20)
#    0.750    0.750    1.250    3.000    1.750    8.000 
#    4.500    1.250    0.000    5.250    0.000    0.000 
#    0.000    0.000    0.000    0.000    0.000    0.000 
#
# Total GULP energy -178459.015829 kJ/mol
# GULP energy per Si atom -5576.844245 kJ/mol
# Density = 2.560855 g / cm^3
# Si number density = 25.666965 Si / 1000 Ang^3
#
#
#
# Elastic Constant Matrix: (Units=GPa)
#
#
# Indices 1 2 3 4 5 6 
#
# 1 168.6542 52.6779 39.4285 0.0001 -2.6358 0.0000
# 2 52.6779 72.5189 24.6127 -0.0003 -3.3640 0.0001
# 3 39.4285 24.6127 102.2345 0.0004 6.2890 0.0003
# 4 0.0001 -0.0003 0.0004 26.2250 -0.0008 -4.2446
# 5 -2.6358 -3.3640 6.2890 -0.0008 34.0049 0.0000
# 6 0.0000 0.0001 0.0003 -4.2446 0.0000 44.6949
#
#
#
# Elastic Compliance Matrix: (Units=1/GPa)
#
#
# Indices 1 2 3 4 5 6 
#
# 1 0.007979 -0.005141 -0.001867 0.000000 0.000455 0.000000
# 2 -0.005141 0.018490 -0.002586 0.000000 0.001909 0.000000
# 3 -0.001867 -0.002586 0.011277 0.000000 -0.002486 0.000000
# 4 0.000000 0.000000 0.000000 0.038727 0.000001 0.003678
# 5 0.000455 0.001909 -0.002486 0.000001 0.030092 0.000000
# 6 0.000000 0.000000 0.000000 0.003678 0.000000 0.022723
#
#
# Mechanical properties :
#
#
# Convention : Reuss Voigt Hill
#
# Bulk Modulus (GPa) = 53.88810 64.09399 58.99105
# Shear Modulus (GPa) = 32.32849 36.09751 34.21300
#
# Velocity S-wave (km/s) = 3.55285 3.75424 3.65493
# Velocity P-wave (km/s) = 6.15394 6.61952 6.39097
#
# Compressibility (1/GPa) = 0.01855697
#
# Stress axis : x y z
#
# Youngs Moduli (GPa) = 125.33399 54.08295 88.67418
#
# Poissons Ratio (x) = 0.27803 0.16560
# Poissons Ratio (y) = 0.64432 0.22933
# Poissons Ratio (z) = 0.23406 0.13987
#
# Static dielectric constant tensor:
#      x y z
#    x 2.291000 0.000000 0.049090 
#    y 0.000000 1.976540 0.000000 
#    z 0.049090 0.000000 2.030560 
# 
# From -- ./inp_files/274328.got.cif
#   From: 2010.05.17/outbox.cif.g08.bks.cpg/sg15_138_cif.got.tgz:274328.got - 2010.06.03 18:47:42.
