data_PCOD9292230
_publ_section_title
;
Structure prediction by ZEFSAII (Michael W. Deem and Ramdas Pophale) SiO2 
 PCOD9292230
Probable space group: C 2/C
;
_chemical_formula_sum "Si O2"
_cell_formula_units_Z 40
_cell_length_a 11.933717
_cell_length_b 8.405399
_cell_length_c 29.000159
_cell_angle_alpha 90.000000
_cell_angle_beta 34.876283
_cell_angle_gamma 90.000000
_cell_volume 1663.349099
_symmetry_space_group_name_H-M "C 2/C"
_symmetry_group_IT_number 15
_symmetry_cell_setting 'monoclinic'
loop_
_space_group_symop_operation_xyz
x,y,z
-x,y,1/2-z
-x,-y,-z
x,-y,1/2+z
1/2+x,1/2+y,z
1/2-x,1/2+y,1/2-z
1/2-x,1/2-y,-z
1/2+x,1/2-y,1/2+z
loop_
_atom_site_type_symbol
_atom_site_label
_atom_site_fract_x
_atom_site_fract_y
_atom_site_fract_z
Si Si1 0.433245 0.556985 0.178793
Si Si2 0.884485 0.154014 0.555744
Si Si3 0.828930 0.615148 0.509427
Si Si4 0.325996 0.173288 0.780421
Si Si5 0.929077 0.665357 0.914094
O O1 0.643561 0.472509 0.097339
O O2 0.397081 0.655619 0.237825
O O3 0.262295 0.429821 0.230894
O O4 0.414390 0.695031 0.145767
O O5 0.842036 0.171113 0.624169
O O6 0.676543 0.144446 0.599984
O O7 0.030478 0.303368 0.499937
O O8 0.000000 0.000000 0.500000
O O9 0.750000 0.750000 0.500000
O O10 0.951306 0.494304 0.435319
O O11 0.500000 0.092992 0.750000
O O12 0.750000 0.750000 0.000000
#
# Coordination Sequence:
#
# PCOD9292230 Si02
#       5
#     8   8   8   8   8
#     4  11  26  46  72 106 150 200 244 312 383 448
#     4  12  23  43  79 108 140 197 250 301 377 443
#     4  11  22  44  78 109 142 192 250 312 369 449
#     4  12  27  49  71 105 156 195 244 310 383 452
#     4  10  22  43  68 109 144 182 249 304 364 442
#
# _framework density 24.047868000000001
#
# number of rings (size 3 to 8) (size 9 to 14) (size 15 to 20)
#    0.000    0.800    6.000    1.200    2.800    4.800 
#    0.000    5.000    0.000    0.000    0.000    0.000 
#    0.000    0.000    0.000    0.000    0.000    0.000 
#
# Total GULP energy -111549.683232 kJ/mol
# GULP energy per Si atom -5577.484162 kJ/mol
# Density = 2.399313 g / cm^3
# Si number density = 24.047868 Si / 1000 Ang^3
#
#
#
# Elastic Constant Matrix: (Units=GPa)
#
#
# Indices 1 2 3 4 5 6 
#
# 1 83.1905 38.2161 23.2878 0.0001 -7.8793 0.0001
# 2 38.2161 142.4013 52.9371 0.0001 -1.4969 0.0001
# 3 23.2878 52.9371 99.7675 -0.0001 2.7255 -0.0003
# 4 0.0001 0.0001 -0.0001 61.2515 -0.0001 3.1741
# 5 -7.8793 -1.4969 2.7255 -0.0001 47.7331 0.0000
# 6 0.0001 0.0001 -0.0003 3.1741 0.0000 43.4975
#
#
#
# Elastic Compliance Matrix: (Units=1/GPa)
#
#
# Indices 1 2 3 4 5 6 
#
# 1 0.014162 -0.003144 -0.001702 0.000000 0.002336 0.000000
# 2 -0.003144 0.009460 -0.004286 0.000000 0.000022 0.000000
# 3 -0.001702 -0.004286 0.012726 0.000000 -0.001142 0.000000
# 4 0.000000 0.000000 0.000000 0.016388 0.000000 -0.001196
# 5 0.002336 0.000022 -0.001142 0.000000 0.021401 0.000000
# 6 0.000000 0.000000 0.000000 -0.001196 0.000000 0.023077
#
#
# Mechanical properties :
#
#
# Convention : Reuss Voigt Hill
#
# Bulk Modulus (GPa) = 55.29385 61.58236 58.43810
# Shear Modulus (GPa) = 41.15034 44.55763 42.85398
#
# Velocity S-wave (km/s) = 4.14113 4.30917 4.22599
# Velocity P-wave (km/s) = 6.77558 7.10088 6.94013
#
# Compressibility (1/GPa) = 0.01808519
#
# Stress axis : x y z
#
# Youngs Moduli (GPa) = 70.60978 105.71212 78.57963
#
# Poissons Ratio (x) = 0.33232 0.13371
# Poissons Ratio (y) = 0.22197 0.33681
# Poissons Ratio (z) = 0.12015 0.45310
#
# Static dielectric constant tensor:
#      x y z
#    x 2.237980 0.000000 0.197650 
#    y 0.000000 2.047660 0.000000 
#    z 0.197650 0.000000 2.216040 
# 
# From -- ./inp_files/309819.got.cif
#   From: 2010.05.17/outbox.cif.g08.bks.cpg/sg15_155_cif.got.tgz:309819.got - 2010.06.03 18:47:42.
