data_PCOD9292715
_publ_section_title
;
Structure prediction by ZEFSAII (Michael W. Deem and Ramdas Pophale) SiO2 
 PCOD9292715
Probable space group: C 2/C
;
_chemical_formula_sum "Si O2"
_cell_formula_units_Z 48
_cell_length_a 27.680431
_cell_length_b 5.146378
_cell_length_c 17.451223
_cell_angle_alpha 90.000000
_cell_angle_beta 51.039929
_cell_angle_gamma 90.000000
_cell_volume 1933.071440
_symmetry_space_group_name_H-M "C 2/C"
_symmetry_group_IT_number 15
_symmetry_cell_setting 'monoclinic'
loop_
_space_group_symop_operation_xyz
x,y,z
-x,y,1/2-z
-x,-y,-z
x,-y,1/2+z
1/2+x,1/2+y,z
1/2-x,1/2+y,1/2-z
1/2-x,1/2-y,-z
1/2+x,1/2-y,1/2+z
loop_
_atom_site_type_symbol
_atom_site_label
_atom_site_fract_x
_atom_site_fract_y
_atom_site_fract_z
Si Si1 0.782528 0.627124 0.739841
Si Si2 0.438335 0.383190 0.101021
Si Si3 0.952559 0.367072 0.184948
Si Si4 0.084697 0.480596 0.106801
Si Si5 0.717806 0.275991 0.451781
Si Si6 0.630267 0.368185 0.958717
O O1 0.764851 0.325090 0.756624
O O2 0.772262 0.747144 0.834194
O O3 0.844687 0.669082 0.630314
O O4 0.445731 0.099412 0.129950
O O5 0.390906 0.403186 0.077198
O O6 0.424918 0.597491 0.180688
O O7 0.500000 0.500000 0.000000
O O8 0.922481 0.466754 0.294629
O O9 0.025511 0.326554 0.132489
O O10 0.154819 0.395383 0.016469
O O11 0.079394 0.753145 0.066720
O O12 0.750000 0.250000 0.500000
O O13 0.685771 0.545318 0.459021
#
# Coordination Sequence:
#
# PCOD9292715 Si02
#       6
#     8   8   8   8   8   8
#     4  10  22  44  66  98 131 182 237 290 348 412
#     4  12  25  46  74 109 143 187 243 288 365 427
#     4  11  28  44  75 111 146 189 235 294 362 443
#     4  11  25  47  71 104 149 187 236 297 367 421
#     4  11  26  46  70 102 141 192 243 296 358 424
#     4  11  25  43  74  97 147 187 238 305 355 428
#
# _framework density 24.830950999999999
#
# number of rings (size 3 to 8) (size 9 to 14) (size 15 to 20)
#    0.000    1.000    3.333    1.500    7.000    2.000 
#    6.000    0.000    0.000    0.000    0.000    0.000 
#    0.000    0.000    0.000    0.000    0.000    0.000 
#
# Total GULP energy -133908.205151 kJ/mol
# GULP energy per Si atom -5579.508548 kJ/mol
# Density = 2.477443 g / cm^3
# Si number density = 24.830951 Si / 1000 Ang^3
#
#
#
# Elastic Constant Matrix: (Units=GPa)
#
#
# Indices 1 2 3 4 5 6 
#
# 1 122.2328 29.7351 47.0768 0.0075 24.9047 0.0024
# 2 29.7351 99.9843 35.0631 0.0642 -0.3664 -0.0273
# 3 47.0768 35.0631 164.9876 0.0180 24.7184 -0.0243
# 4 0.0075 0.0642 0.0180 30.7666 -0.0089 0.8565
# 5 24.9047 -0.3664 24.7184 -0.0089 35.9614 0.0051
# 6 0.0024 -0.0273 -0.0243 0.8565 0.0051 32.5009
#
#
#
# Elastic Compliance Matrix: (Units=1/GPa)
#
#
# Indices 1 2 3 4 5 6 
#
# 1 0.010727 -0.002676 -0.001533 0.000002 -0.006402 -0.000003
# 2 -0.002676 0.011590 -0.002224 -0.000021 0.003500 0.000008
# 3 -0.001533 -0.002224 0.007598 -0.000001 -0.004184 0.000005
# 4 0.000002 -0.000021 -0.000001 0.032527 0.000007 -0.000857
# 5 -0.006402 0.003500 -0.004184 0.000007 0.035153 -0.000005
# 6 -0.000003 0.000008 0.000005 -0.000857 -0.000005 0.030791
#
#
# Mechanical properties :
#
#
# Convention : Reuss Voigt Hill
#
# Bulk Modulus (GPa) = 58.65358 67.88389 63.26873
# Shear Modulus (GPa) = 34.02883 38.20110 36.11497
#
# Velocity S-wave (km/s) = 3.70593 3.92656 3.81784
# Velocity P-wave (km/s) = 6.47953 6.92495 6.70594
#
# Compressibility (1/GPa) = 0.01704926
#
# Stress axis : x y z
#
# Youngs Moduli (GPa) = 93.22299 86.27998 131.61640
#
# Poissons Ratio (x) = 0.23089 0.20175
# Poissons Ratio (y) = 0.24947 0.29270
# Poissons Ratio (z) = 0.14290 0.19188
#
# Static dielectric constant tensor:
#      x y z
#    x 2.042520 -0.000030 -0.098340 
#    y -0.000030 2.089430 0.000020 
#    z -0.098340 0.000020 2.023560 
# 
# From -- ./inp_files/179971.got.cif
#   From: 2010.05.17/outbox.cif.g08.bks.cpg/sg15_90_cif.got.tgz:179971.got - 2010.06.03 18:47:42.
