data_PCOD9292499
_publ_section_title
;
Structure prediction by ZEFSAII (Michael W. Deem and Ramdas Pophale) SiO2 
 PCOD9292499
Probable space group: C 2/C
;
_chemical_formula_sum "Si O2"
_cell_formula_units_Z 40
_cell_length_a 8.394880
_cell_length_b 23.237494
_cell_length_c 16.307304
_cell_angle_alpha 90.000000
_cell_angle_beta 146.491388
_cell_angle_gamma 90.000000
_cell_volume 1756.200335
_symmetry_space_group_name_H-M "C 2/C"
_symmetry_group_IT_number 15
_symmetry_cell_setting 'monoclinic'
loop_
_space_group_symop_operation_xyz
x,y,z
-x,y,1/2-z
-x,-y,-z
x,-y,1/2+z
1/2+x,1/2+y,z
1/2-x,1/2+y,1/2-z
1/2-x,1/2-y,-z
1/2+x,1/2-y,1/2+z
loop_
_atom_site_type_symbol
_atom_site_label
_atom_site_fract_x
_atom_site_fract_y
_atom_site_fract_z
Si Si1 0.739259 0.625121 0.780880
Si Si2 0.169523 0.075554 0.408068
Si Si3 0.610836 0.461707 0.469232
Si Si4 0.372009 0.129002 0.279966
Si Si5 0.443834 0.747947 0.823638
O O1 0.500000 0.621910 0.750000
O O2 0.653334 0.576409 0.678063
O O3 0.723698 0.688151 0.732241
O O4 0.040343 0.610221 0.953169
O O5 0.000000 0.083682 0.250000
O O6 0.928872 0.099021 0.366562
O O7 0.206432 0.008814 0.443008
O O8 0.500000 0.500000 0.500000
O O9 0.887401 0.418131 0.590800
O O10 0.500000 0.148731 0.250000
O O11 0.312389 0.190725 0.296332
O O12 0.500000 0.743029 0.750000
O O13 0.750000 0.750000 0.000000
#
# Coordination Sequence:
#
# PCOD9292499 Si02
#       5
#     8   8   8   8   8
#     4  11  25  46  72 101 142 193 241 294 364 428
#     4  12  27  42  68 106 143 183 238 297 357 435
#     4  12  24  44  70 102 146 190 233 295 364 432
#     4  11  23  45  70  99 142 184 236 299 356 419
#     4  10  22  43  74 101 134 191 244 296 357 428
#
# _framework density 22.776446
#
# number of rings (size 3 to 8) (size 9 to 14) (size 15 to 20)
#    0.000    0.800    4.000    3.000    2.800    3.200 
#    0.000    0.000    4.400    0.000    0.000    0.000 
#    0.000    0.000    0.000    0.000    0.000    0.000 
#
# Total GULP energy -111503.071338 kJ/mol
# GULP energy per Si atom -5575.153567 kJ/mol
# Density = 2.272461 g / cm^3
# Si number density = 22.776446 Si / 1000 Ang^3
#
#
#
# Elastic Constant Matrix: (Units=GPa)
#
#
# Indices 1 2 3 4 5 6 
#
# 1 46.8291 24.0370 28.4661 -0.0035 4.7015 -0.0023
# 2 24.0370 217.3635 89.7491 -0.0015 -6.3280 -0.0018
# 3 28.4661 89.7491 181.9888 -0.0448 5.7743 -0.0335
# 4 -0.0035 -0.0015 -0.0448 111.5090 0.0004 21.0755
# 5 4.7015 -6.3280 5.7743 0.0004 30.2936 -0.0012
# 6 -0.0023 -0.0018 -0.0335 21.0755 -0.0012 15.6414
#
#
#
# Elastic Compliance Matrix: (Units=1/GPa)
#
#
# Indices 1 2 3 4 5 6 
#
# 1 0.024292 -0.001591 -0.002902 0.000000 -0.003549 -0.000003
# 2 -0.001591 0.005976 -0.002762 0.000000 0.002022 -0.000005
# 3 -0.002902 -0.002762 0.007360 0.000000 -0.001529 0.000015
# 4 0.000000 0.000000 0.000000 0.012032 -0.000001 -0.016212
# 5 -0.003549 0.002022 -0.001529 -0.000001 0.034275 0.000000
# 6 -0.000003 -0.000005 0.000015 -0.016212 0.000000 0.085777
#
#
# Mechanical properties :
#
#
# Convention : Reuss Voigt Hill
#
# Bulk Modulus (GPa) = 43.26120 81.18733 62.22426
# Shear Modulus (GPa) = 26.05139 51.75076 38.90107
#
# Velocity S-wave (km/s) = 3.38566 4.77184 4.13722
# Velocity P-wave (km/s) = 5.85821 8.12917 7.08527
#
# Compressibility (1/GPa) = 0.02311540
#
# Stress axis : x y z
#
# Youngs Moduli (GPa) = 41.16661 167.33638 135.87675
#
# Poissons Ratio (x) = 0.26627 0.39435
# Poissons Ratio (y) = 0.06551 0.37534
# Poissons Ratio (z) = 0.11948 0.46224
#
# Static dielectric constant tensor:
#      x y z
#    x 0.344370 -0.000500 0.030420 
#    y -0.000500 1.975180 0.000010 
#    z 0.030420 0.000010 1.838820 
# 
# From -- ./inp_files/137080.got.cif
#   From: 2010.05.17/outbox.cif.g08.bks.cpg/sg15_69_cif.got.tgz:137080.got - 2010.06.03 18:47:42.
