data_PCOD9292895
_publ_section_title
;
Structure prediction by ZEFSAII (Michael W. Deem and Ramdas Pophale) SiO2 
 PCOD9292895
Probable space group: C 2/C
;
_chemical_formula_sum "Si O2"
_cell_formula_units_Z 56
_cell_length_a 8.787509
_cell_length_b 29.409770
_cell_length_c 18.367214
_cell_angle_alpha 90.000000
_cell_angle_beta 146.919465
_cell_angle_gamma 90.000000
_cell_volume 2590.884303
_symmetry_space_group_name_H-M "C 2/C"
_symmetry_group_IT_number 15
_symmetry_cell_setting 'monoclinic'
loop_
_space_group_symop_operation_xyz
x,y,z
-x,y,1/2-z
-x,-y,-z
x,-y,1/2+z
1/2+x,1/2+y,z
1/2-x,1/2+y,1/2-z
1/2-x,1/2-y,-z
1/2+x,1/2-y,1/2+z
loop_
_atom_site_type_symbol
_atom_site_label
_atom_site_fract_x
_atom_site_fract_y
_atom_site_fract_z
Si Si1 0.000000 0.500978 0.750000
Si Si2 0.778526 0.343099 0.222679
Si Si3 0.799430 0.334225 0.838380
Si Si4 0.831214 0.705816 0.883998
Si Si5 0.568505 0.934312 0.639923
Si Si6 0.562513 0.437810 0.141627
Si Si7 0.000000 0.005077 0.250000
Si Si8 0.768111 0.210414 0.447886
O O1 0.940359 0.466882 0.792908
O O2 0.736113 0.535896 0.647943
O O3 0.907380 0.308698 0.333250
O O4 0.714498 0.392504 0.230272
O O5 0.000000 0.351630 0.250000
O O6 0.506708 0.322923 0.072953
O O7 0.500000 0.318108 0.750000
O O8 0.773524 0.386306 0.801661
O O9 0.962438 0.311612 0.834977
O O10 0.006515 0.323892 0.990232
O O11 0.500000 0.695180 0.750000
O O12 0.852813 0.759370 0.912074
O O13 0.723192 0.963987 0.640299
O O14 0.245592 0.922667 0.502641
O O15 0.518250 0.473609 0.187590
O O16 0.750000 0.250000 0.500000
#
# Coordination Sequence:
#
# PCOD9292895 Si02
#       8
#     4   8   8   8   8   8   4   8
#     4  10  24  42  60  98 136 182 222 276 342 400
#     4  12  25  45  70 104 134 176 233 279 333 414
#     4  11  23  44  69 105 141 177 224 284 336 413
#     4  11  23  48  74  97 133 178 227 283 342 400
#     4  11  21  43  64  95 140 176 226 277 334 402
#     4  11  22  42  67  96 133 178 226 283 333 394
#     4  10  24  36  68 100 126 176 228 280 336 398
#     4  10  22  44  69  96 136 170 221 285 343 392
#
# _framework density 21.614242999999998
#
# number of rings (size 3 to 8) (size 9 to 14) (size 15 to 20)
#    0.000    1.143    5.714    0.857    3.000    2.857 
#    6.429    0.000    0.000    0.000    0.000    0.000 
#    0.000    0.000    0.000    0.000    0.000    0.000 
#
# Total GULP energy -155957.933468 kJ/mol
# GULP energy per Si atom -5569.926195 kJ/mol
# Density = 2.156505 g / cm^3
# Si number density = 21.614243 Si / 1000 Ang^3
#
#
#
# Elastic Constant Matrix: (Units=GPa)
#
#
# Indices 1 2 3 4 5 6 
#
# 1 82.3246 43.8900 13.6502 0.0000 12.7824 0.0000
# 2 43.8900 122.9237 9.6863 0.0000 4.6653 0.0000
# 3 13.6502 9.6863 59.0064 0.0002 12.8214 0.0003
# 4 0.0000 0.0000 0.0002 29.6388 0.0000 -4.5098
# 5 12.7824 4.6653 12.8214 0.0000 32.8195 0.0000
# 6 0.0000 0.0000 0.0003 -4.5098 0.0000 18.5716
#
#
#
# Elastic Compliance Matrix: (Units=1/GPa)
#
#
# Indices 1 2 3 4 5 6 
#
# 1 0.016076 -0.005417 -0.001788 0.000000 -0.004792 0.000000
# 2 -0.005417 0.010082 -0.000600 0.000000 0.000911 0.000000
# 3 -0.001788 -0.000600 0.018893 0.000000 -0.006599 0.000000
# 4 0.000000 0.000000 0.000000 0.035034 0.000000 0.008507
# 5 -0.004792 0.000911 -0.006599 0.000000 0.034785 0.000000
# 6 0.000000 0.000000 0.000000 0.008507 0.000000 0.055912
#
#
# Mechanical properties :
#
#
# Convention : Reuss Voigt Hill
#
# Bulk Modulus (GPa) = 33.96652 44.30085 39.13368
# Shear Modulus (GPa) = 25.48351 29.34118 27.41235
#
# Velocity S-wave (km/s) = 3.43740 3.68841 3.56512
# Velocity P-wave (km/s) = 5.61278 6.21931 5.92381
#
# Compressibility (1/GPa) = 0.02944076
#
# Stress axis : x y z
#
# Youngs Moduli (GPa) = 62.20585 99.18694 52.92860
#
# Poissons Ratio (x) = 0.53730 0.09465
# Poissons Ratio (y) = 0.33697 0.03175
# Poissons Ratio (z) = 0.11124 0.05949
#
# Static dielectric constant tensor:
#      x y z
#    x 1.814380 0.000000 0.041880 
#    y 0.000000 1.811550 0.000000 
#    z 0.041880 0.000000 1.765470 
# 
# From -- ./inp_files/234991.got.cif
#   From: 2010.05.17/outbox.cif.g08.bks.cpg/sg15_118_cif.got.tgz:234991.got - 2010.06.03 18:47:42.
