data_PCOD9292202
_publ_section_title
;
Structure prediction by ZEFSAII (Michael W. Deem and Ramdas Pophale) SiO2 
 PCOD9292202
Probable space group: C 2/C
;
_chemical_formula_sum "Si O2"
_cell_formula_units_Z 36
_cell_length_a 13.242145
_cell_length_b 21.226464
_cell_length_c 8.743640
_cell_angle_alpha 90.000000
_cell_angle_beta 132.214384
_cell_angle_gamma 90.000000
_cell_volume 1820.258395
_symmetry_space_group_name_H-M "C 2/C"
_symmetry_group_IT_number 15
_symmetry_cell_setting 'monoclinic'
loop_
_space_group_symop_operation_xyz
x,y,z
-x,y,1/2-z
-x,-y,-z
x,-y,1/2+z
1/2+x,1/2+y,z
1/2-x,1/2+y,1/2-z
1/2-x,1/2-y,-z
1/2+x,1/2-y,1/2+z
loop_
_atom_site_type_symbol
_atom_site_label
_atom_site_fract_x
_atom_site_fract_y
_atom_site_fract_z
Si Si1 0.736130 0.432840 0.581603
Si Si2 0.653603 0.560365 0.343599
Si Si3 0.759550 0.814190 0.103936
Si Si4 0.000000 0.376953 0.750000
Si Si5 0.844889 0.805099 0.532896
O O1 0.722990 0.497533 0.476891
O O2 0.666220 0.438362 0.674021
O O3 0.678369 0.372590 0.429318
O O4 0.897098 0.416382 0.750781
O O5 0.500000 0.556741 0.250000
O O6 0.707715 0.626806 0.462341
O O7 0.835008 0.805171 0.339679
O O8 0.750000 0.750000 0.000000
O O9 0.601556 0.836332 0.958773
O O10 0.750000 0.750000 0.500000
O O11 0.000000 0.797840 0.750000
#
# Coordination Sequence:
#
# PCOD9292202 Si02
#       5
#     8   8   8   4   8
#     4  10  22  43  67  98 136 179 227 284 335 412
#     4  11  23  43  64  98 139 180 231 276 343 407
#     4  10  22  44  67  98 139 177 227 276 342 410
#     4   8  24  42  68 104 132 174 234 264 360 384
#     4  11  26  43  66 101 138 177 231 281 345 411
#
# _framework density 19.777411000000001
#
# number of rings (size 3 to 8) (size 9 to 14) (size 15 to 20)
#    1.333    0.444    0.000    3.333    3.111    2.667 
#    4.000    0.000    0.000    0.000    0.000    0.000 
#    0.000    0.000    0.000    0.000    0.000    0.000 
#
# Total GULP energy -100373.129817 kJ/mol
# GULP energy per Si atom -5576.284990 kJ/mol
# Density = 1.973240 g / cm^3
# Si number density = 19.777411 Si / 1000 Ang^3
#
#
#
# Elastic Constant Matrix: (Units=GPa)
#
#
# Indices 1 2 3 4 5 6 
#
# 1 119.0455 53.4115 65.4421 0.0000 -15.9146 0.0000
# 2 53.4115 199.1267 76.1320 0.0000 -16.3821 0.0000
# 3 65.4421 76.1320 157.0818 0.0000 -25.7781 0.0000
# 4 0.0000 0.0000 0.0000 31.7306 0.0000 -12.8168
# 5 -15.9146 -16.3821 -25.7781 0.0000 45.2963 0.0000
# 6 0.0000 0.0000 0.0000 -12.8168 0.0000 26.3201
#
#
#
# Elastic Compliance Matrix: (Units=1/GPa)
#
#
# Indices 1 2 3 4 5 6 
#
# 1 0.011318 -0.001483 -0.003786 0.000000 0.001286 0.000000
# 2 -0.001483 0.006372 -0.002402 0.000000 0.000417 0.000000
# 3 -0.003786 -0.002402 0.009648 0.000000 0.003292 0.000000
# 4 0.000000 0.000000 0.000000 0.039232 0.000000 0.019104
# 5 0.001286 0.000417 0.003292 0.000000 0.024553 0.000000
# 6 0.000000 0.000000 0.000000 0.019104 0.000000 0.047297
#
#
# Mechanical properties :
#
#
# Convention : Reuss Voigt Hill
#
# Bulk Modulus (GPa) = 83.35472 96.13613 89.74543
# Shear Modulus (GPa) = 31.69354 39.35397 35.52375
#
# Velocity S-wave (km/s) = 4.00748 4.46561 4.24273
# Velocity P-wave (km/s) = 7.97817 8.67776 8.33530
#
# Compressibility (1/GPa) = 0.01199692
#
# Stress axis : x y z
#
# Youngs Moduli (GPa) = 88.35165 156.92631 103.65042
#
# Poissons Ratio (x) = 0.23268 0.39239
# Poissons Ratio (y) = 0.13100 0.24901
# Poissons Ratio (z) = 0.33447 0.37700
#
# Static dielectric constant tensor:
#      x y z
#    x 1.642280 0.000000 0.012800 
#    y 0.000000 1.730290 0.000000 
#    z 0.012800 0.000000 1.685520 
# 
# From -- ./inp_files/30580.got.cif
#   From: 2010.05.17/outbox.cif.g08.bks.cpg/sg15_16_cif.got.tgz:30580.got - 2010.06.03 18:47:42.
