data_PCOD9292581
_publ_section_title
;
Structure prediction by ZEFSAII (Michael W. Deem and Ramdas Pophale) SiO2 
 PCOD9292581
Probable space group: C 2/C
;
_chemical_formula_sum "Si O2"
_cell_formula_units_Z 56
_cell_length_a 8.653774
_cell_length_b 14.161256
_cell_length_c 22.780048
_cell_angle_alpha 90.000000
_cell_angle_beta 92.669876
_cell_angle_gamma 90.000000
_cell_volume 2788.626028
_symmetry_space_group_name_H-M "C 2/C"
_symmetry_group_IT_number 15
_symmetry_cell_setting 'monoclinic'
loop_
_space_group_symop_operation_xyz
x,y,z
-x,y,1/2-z
-x,-y,-z
x,-y,1/2+z
1/2+x,1/2+y,z
1/2-x,1/2+y,1/2-z
1/2-x,1/2-y,-z
1/2+x,1/2-y,1/2+z
loop_
_atom_site_type_symbol
_atom_site_label
_atom_site_fract_x
_atom_site_fract_y
_atom_site_fract_z
Si Si1 0.724484 0.332384 0.168548
Si Si2 0.782386 0.978068 0.537884
Si Si3 0.681914 0.302911 0.442268
Si Si4 0.231450 0.185081 0.165597
Si Si5 0.500000 0.780861 0.750000
Si Si6 0.500000 0.784265 0.250000
Si Si7 0.124892 0.992035 0.591440
Si Si8 0.835320 0.280426 0.942107
O O1 0.602585 0.284105 0.209702
O O2 0.647419 0.424061 0.138262
O O3 0.755011 0.258852 0.116080
O O4 0.880042 0.344882 0.209050
O O5 0.763667 0.088726 0.551518
O O6 0.794759 0.974742 0.467475
O O7 0.667560 0.895280 0.557456
O O8 0.952148 0.961799 0.569060
O O9 0.750000 0.250000 0.500000
O O10 0.735030 0.268740 0.379505
O O11 0.500344 0.273324 0.442587
O O12 0.381983 0.162955 0.207193
O O13 0.097987 0.218036 0.207611
O O14 0.195926 0.098460 0.123098
O O15 0.750000 0.250000 0.000000
#
# Coordination Sequence:
#
# PCOD9292581 Si02
#       8
#     8   8   8   8   4   4   8   8
#     4  11  22  43  66  96 132 181 230 279 336 405
#     4  11  22  40  66 104 134 179 215 266 360 417
#     4  12  25  43  67 102 141 172 217 291 347 407
#     4  11  23  44  65  95 134 173 226 281 335 401
#     4  10  22  44  64  82 136 184 220 280 338 376
#     4  10  26  42  66  94 128 188 232 276 328 406
#     4  11  21  39  68  97 134 170 224 280 333 416
#     4  12  23  41  72  99 136 179 222 280 346 417
#
# _framework density 20.081572999999999
#
# number of rings (size 3 to 8) (size 9 to 14) (size 15 to 20)
#    0.000    0.857    5.714    1.714    2.000    1.714 
#    2.571    5.714    0.000    0.000    0.000    0.000 
#    0.000    0.000    0.000    0.000    0.000    0.000 
#
# Total GULP energy -156291.936233 kJ/mol
# GULP energy per Si atom -5581.854865 kJ/mol
# Density = 2.003587 g / cm^3
# Si number density = 20.081573 Si / 1000 Ang^3
#
#
#
# Elastic Constant Matrix: (Units=GPa)
#
#
# Indices 1 2 3 4 5 6 
#
# 1 66.5985 11.1563 47.2178 0.0000 5.0266 0.0000
# 2 11.1563 99.6250 20.7811 0.0000 6.1310 0.0000
# 3 47.2178 20.7811 125.5023 0.0000 15.6481 0.0000
# 4 0.0000 0.0000 0.0000 0.3295 0.0000 9.7545
# 5 5.0266 6.1310 15.6481 0.0000 40.2169 0.0000
# 6 0.0000 0.0000 0.0000 9.7545 0.0000 18.0696
#
#
#
# Elastic Compliance Matrix: (Units=1/GPa)
#
#
# Indices 1 2 3 4 5 6 
#
# 1 0.020537 -0.000732 -0.007671 0.000000 0.000530 0.000000
# 2 -0.000732 0.010458 -0.001334 0.000000 -0.000984 0.000000
# 3 -0.007671 -0.001334 0.011487 0.000000 -0.003308 0.000000
# 4 0.000000 0.000000 0.000000 -0.202580 0.000000 0.109359
# 5 0.000530 -0.000984 -0.003308 0.000000 0.026236 0.000000
# 6 0.000000 0.000000 0.000000 0.109359 0.000000 -0.003694
#
#
# Mechanical properties :
#
#
# Convention : Reuss Voigt Hill
#
# Bulk Modulus (GPa) = 43.46241 50.00402 46.73322
# Shear Modulus (GPa) = -45.28547 25.89456 -9.69545
#
# Velocity S-wave (km/s) = -4.75392 3.59481 -2.19966
# Velocity P-wave (km/s) = 2.90569 6.49498 4.10741
#
# Compressibility (1/GPa) = 0.02300839
#
# Stress axis : x y z
#
# Youngs Moduli (GPa) = 48.69257 95.61722 87.05167
#
# Poissons Ratio (x) = 0.07001 0.66781
# Poissons Ratio (y) = 0.03565 0.11609
# Poissons Ratio (z) = 0.37354 0.12751
#
# Static dielectric constant tensor:
#      x y z
#    x 1.748270 0.000000 0.013460 
#    y 0.000000 1.735000 0.000000 
#    z 0.013460 0.000000 1.693340 
# 
# From -- ./inp_files/231641.got.cif
#   From: 2010.05.17/outbox.cif.g08.bks.cpg/sg15_116_cif.got.tgz:231641.got - 2010.06.03 18:47:42.
