data_PCOD9292756
_publ_section_title
;
Structure prediction by ZEFSAII (Michael W. Deem and Ramdas Pophale) SiO2 
 PCOD9292756
Probable space group: C 2/C
;
_chemical_formula_sum "Si O2"
_cell_formula_units_Z 52
_cell_length_a 22.545044
_cell_length_b 8.074829
_cell_length_c 15.368823
_cell_angle_alpha 90.000000
_cell_angle_beta 123.347911
_cell_angle_gamma 90.000000
_cell_volume 2337.181574
_symmetry_space_group_name_H-M "C 2/C"
_symmetry_group_IT_number 15
_symmetry_cell_setting 'monoclinic'
loop_
_space_group_symop_operation_xyz
x,y,z
-x,y,1/2-z
-x,-y,-z
x,-y,1/2+z
1/2+x,1/2+y,z
1/2-x,1/2+y,1/2-z
1/2-x,1/2-y,-z
1/2+x,1/2-y,1/2+z
loop_
_atom_site_type_symbol
_atom_site_label
_atom_site_fract_x
_atom_site_fract_y
_atom_site_fract_z
Si Si1 0.688245 0.426132 0.442365
Si Si2 0.921600 0.931603 0.918229
Si Si3 0.075965 0.838553 0.779801
Si Si4 0.726765 0.422643 0.144496
Si Si5 0.782427 0.461311 0.869530
Si Si6 0.096482 0.650193 0.456353
Si Si7 0.500000 0.984617 0.250000
O O1 0.634718 0.580725 0.387679
O O2 0.736284 0.473560 0.563919
O O3 0.731612 0.424369 0.388143
O O4 0.643129 0.263366 0.428034
O O5 0.912391 0.890472 0.809698
O O6 0.855670 0.046893 0.893893
O O7 0.915364 0.767470 0.970994
O O8 0.000000 0.000000 0.000000
O O9 0.000000 0.909005 0.750000
O O10 0.064245 0.641566 0.778563
O O11 0.773928 0.485743 0.262799
O O12 0.739258 0.229292 0.139108
O O13 0.859399 0.494750 0.972062
O O14 0.025892 0.593192 0.351025
#
# Coordination Sequence:
#
# PCOD9292756 Si02
#       7
#     8   8   8   8   8   8   4
#     4  11  23  44  74  96 136 185 221 278 345 404
#     4  11  24  44  70  95 135 183 226 279 345 406
#     4  10  22  44  67  96 137 174 228 275 342 395
#     4  11  24  44  70 102 134 181 226 278 339 407
#     4  12  25  46  67 102 141 174 229 280 340 407
#     4  11  26  44  67 103 136 174 232 280 340 410
#     4  10  26  42  66 102 138 172 226 288 332 404
#
# _framework density 22.249020999999999
#
# number of rings (size 3 to 8) (size 9 to 14) (size 15 to 20)
#    0.462    0.615    1.538    5.538    5.385    0.615 
#    2.769    0.000    0.000    0.000    0.000    0.000 
#    0.000    0.000    0.000    0.000    0.000    0.000 
#
# Total GULP energy -145431.581129 kJ/mol
# GULP energy per Si atom -5593.522351 kJ/mol
# Density = 2.219838 g / cm^3
# Si number density = 22.249021 Si / 1000 Ang^3
#
#
#
# Elastic Constant Matrix: (Units=GPa)
#
#
# Indices 1 2 3 4 5 6 
#
# 1 30.8560 -2.0543 21.1833 0.0000 -7.9596 0.0000
# 2 -2.0543 83.4331 23.1165 0.0000 2.4738 0.0000
# 3 21.1833 23.1165 146.3993 0.0000 -5.3395 0.0000
# 4 0.0000 0.0000 0.0000 36.0478 0.0000 17.5835
# 5 -7.9596 2.4738 -5.3395 0.0000 37.6892 0.0000
# 6 0.0000 0.0000 0.0000 17.5835 0.0000 16.4617
#
#
#
# Elastic Compliance Matrix: (Units=1/GPa)
#
#
# Indices 1 2 3 4 5 6 
#
# 1 0.038273 0.002293 -0.005640 0.000000 0.007133 0.000000
# 2 0.002293 0.012718 -0.002365 0.000000 -0.000685 0.000000
# 3 -0.005640 -0.002365 0.008024 0.000000 0.000101 0.000000
# 4 0.000000 0.000000 0.000000 0.057917 0.000000 -0.061864
# 5 0.007133 -0.000685 0.000101 0.000000 0.028099 0.000000
# 6 0.000000 0.000000 0.000000 -0.061864 0.000000 0.126827
#
#
# Mechanical properties :
#
#
# Convention : Reuss Voigt Hill
#
# Bulk Modulus (GPa) = 21.01194 38.35326 29.68260
# Shear Modulus (GPa) = 16.71431 32.60260 24.65845
#
# Velocity S-wave (km/s) = 2.74385 3.83214 3.33272
# Velocity P-wave (km/s) = 4.41619 6.07092 5.30842
#
# Compressibility (1/GPa) = 0.04759199
#
# Stress axis : x y z
#
# Youngs Moduli (GPa) = 26.12785 78.63058 124.62895
#
# Poissons Ratio (x) = -0.18034 0.70290
# Poissons Ratio (y) = -0.05992 0.29475
# Poissons Ratio (z) = 0.14736 0.18596
#
# Static dielectric constant tensor:
#      x y z
#    x 1.852360 0.000000 0.022040 
#    y 0.000000 1.802910 0.000000 
#    z 0.022040 0.000000 1.775670 
# 
# From -- ./inp_files/176271.got.cif
#   From: 2010.05.17/outbox.cif.g08.bks.cpg/sg15_89_cif.got.tgz:176271.got - 2010.06.03 18:47:42.
