data_PCOD9292833
_publ_section_title
;
Structure prediction by ZEFSAII (Michael W. Deem and Ramdas Pophale) SiO2 
 PCOD9292833
Probable space group: C 2/C
;
_chemical_formula_sum "Si O2"
_cell_formula_units_Z 36
_cell_length_a 7.517262
_cell_length_b 13.775717
_cell_length_c 22.177639
_cell_angle_alpha 90.000000
_cell_angle_beta 45.211043
_cell_angle_gamma 90.000000
_cell_volume 1629.926466
_symmetry_space_group_name_H-M "C 2/C"
_symmetry_group_IT_number 15
_symmetry_cell_setting 'monoclinic'
loop_
_space_group_symop_operation_xyz
x,y,z
-x,y,1/2-z
-x,-y,-z
x,-y,1/2+z
1/2+x,1/2+y,z
1/2-x,1/2+y,1/2-z
1/2-x,1/2-y,-z
1/2+x,1/2-y,1/2+z
loop_
_atom_site_type_symbol
_atom_site_label
_atom_site_fract_x
_atom_site_fract_y
_atom_site_fract_z
Si Si1 0.000000 0.566402 0.750000
Si Si2 0.745184 0.838209 0.292371
Si Si3 0.418233 0.316001 0.917068
Si Si4 0.745452 0.556930 0.415974
Si Si5 0.738780 0.456202 0.648444
O O1 0.227567 0.619437 0.729672
O O2 0.125814 0.506679 0.666767
O O3 0.522291 0.762306 0.345715
O O4 0.000000 0.787041 0.250000
O O5 0.730689 0.927586 0.344424
O O6 0.636819 0.350313 0.908943
O O7 0.322248 0.409663 0.902321
O O8 0.250000 0.250000 0.000000
O O9 0.500000 0.500000 0.500000
O O10 0.980870 0.580835 0.402636
O O11 0.500000 0.430435 0.750000
#
# Coordination Sequence:
#
# PCOD9292833 Si02
#       5
#     4   8   8   8   8
#     4  10  22  44  68  96 132 184 232 288 356 416
#     4  10  23  40  67  97 130 179 231 286 346 416
#     4  12  26  40  66 103 134 177 235 289 352 423
#     4  11  24  44  72  98 141 186 232 289 356 421
#     4  10  24  46  68  96 139 188 229 289 360 414
#
# _framework density 22.086886
#
# number of rings (size 3 to 8) (size 9 to 14) (size 15 to 20)
#    0.000    1.333    0.000    6.667    6.222    6.222 
#    0.000    0.000    0.000    0.000    0.000    0.000 
#    0.000    0.000    0.000    0.000    0.000    0.000 
#
# Total GULP energy -100220.468046 kJ/mol
# GULP energy per Si atom -5567.803780 kJ/mol
# Density = 2.203662 g / cm^3
# Si number density = 22.086886 Si / 1000 Ang^3
#
#
#
# Elastic Constant Matrix: (Units=GPa)
#
#
# Indices 1 2 3 4 5 6 
#
# 1 106.0582 17.4006 18.1425 -0.0021 -29.6977 0.0013
# 2 17.4006 53.3190 4.0573 -0.0011 3.5061 0.0023
# 3 18.1425 4.0573 78.2698 -0.0024 -11.7453 0.0045
# 4 -0.0021 -0.0011 -0.0024 18.1203 0.0023 -1.3642
# 5 -29.6977 3.5061 -11.7453 0.0023 26.2776 -0.0024
# 6 0.0013 0.0023 0.0045 -1.3642 -0.0024 9.4653
#
#
#
# Elastic Compliance Matrix: (Units=1/GPa)
#
#
# Indices 1 2 3 4 5 6 
#
# 1 0.015682 -0.006279 -0.000562 -0.000001 0.018310 0.000004
# 2 -0.006279 0.021592 -0.001244 0.000001 -0.010533 -0.000006
# 3 -0.000562 -0.001244 0.013828 0.000001 0.005712 -0.000005
# 4 -0.000001 0.000001 0.000001 0.055792 -0.000005 0.008041
# 5 0.018310 -0.010533 0.005712 -0.000005 0.062706 0.000013
# 6 0.000004 -0.000006 -0.000005 0.008041 0.000013 0.106808
#
#
# Mechanical properties :
#
#
# Convention : Reuss Voigt Hill
#
# Bulk Modulus (GPa) = 28.62793 35.20532 31.91662
# Shear Modulus (GPa) = 16.43532 23.97574 20.20553
#
# Velocity S-wave (km/s) = 2.73082 3.29830 3.02788
# Velocity P-wave (km/s) = 4.78882 5.52079 5.16778
#
# Compressibility (1/GPa) = 0.03493092
#
# Stress axis : x y z
#
# Youngs Moduli (GPa) = 63.76712 46.31445 72.31594
#
# Poissons Ratio (x) = 0.29081 0.04064
# Poissons Ratio (y) = 0.40040 0.08999
# Poissons Ratio (z) = 0.03583 0.05764
#
# Static dielectric constant tensor:
#      x y z
#    x 1.902110 -0.000010 -0.016520 
#    y -0.000010 1.843410 0.000000 
#    z -0.016520 0.000000 1.828200 
# 
# From -- ./inp_files/263820.got.cif
#   From: 2010.05.17/outbox.cif.g08.bks.cpg/sg15_132_cif.got.tgz:263820.got - 2010.06.03 18:47:42.
