data_PCOD9292254
_publ_section_title
;
Structure prediction by ZEFSAII (Michael W. Deem and Ramdas Pophale) SiO2 
 PCOD9292254
Probable space group: C 2/C
;
_chemical_formula_sum "Si O2"
_cell_formula_units_Z 52
_cell_length_a 16.100594
_cell_length_b 15.196823
_cell_length_c 11.376651
_cell_angle_alpha 90.000000
_cell_angle_beta 125.046162
_cell_angle_gamma 90.000000
_cell_volume 2278.916668
_symmetry_space_group_name_H-M "C 2/C"
_symmetry_group_IT_number 15
_symmetry_cell_setting 'monoclinic'
loop_
_space_group_symop_operation_xyz
x,y,z
-x,y,1/2-z
-x,-y,-z
x,-y,1/2+z
1/2+x,1/2+y,z
1/2-x,1/2+y,1/2-z
1/2-x,1/2-y,-z
1/2+x,1/2-y,1/2+z
loop_
_atom_site_type_symbol
_atom_site_label
_atom_site_fract_x
_atom_site_fract_y
_atom_site_fract_z
Si Si1 0.988637 0.447802 0.367306
Si Si2 0.302756 0.122603 0.418856
Si Si3 0.270869 0.945589 0.276230
Si Si4 0.588332 0.482047 0.476379
Si Si5 0.102648 0.165379 0.391275
Si Si6 0.344960 0.728282 0.804318
Si Si7 0.000000 0.828539 0.250000
O O1 0.871498 0.420201 0.285270
O O2 0.000000 0.495254 0.250000
O O3 0.000000 0.500000 0.500000
O O4 0.080389 0.376881 0.440684
O O5 0.211804 0.169002 0.415664
O O6 0.301357 0.175588 0.294543
O O7 0.286905 0.018111 0.390401
O O8 0.227260 0.853478 0.286689
O O9 0.192523 0.998142 0.129184
O O10 0.500000 0.500000 0.500000
O O11 0.586674 0.560850 0.383298
O O12 0.565266 0.392186 0.389539
O O13 0.114195 0.197851 0.534146
O O14 0.000000 0.202620 0.250000
O O15 0.430550 0.729525 0.776773
#
# Coordination Sequence:
#
# PCOD9292254 Si02
#       7
#     8   8   8   8   8   8   4
#     4  10  22  43  69  98 138 193 243 292 348 433
#     4  11  24  43  65  99 140 186 242 288 351 437
#     4  10  22  43  68  96 137 183 238 286 362 423
#     4  11  19  37  66 101 133 175 225 285 364 426
#     4  11  21  37  69  99 131 171 223 294 357 416
#     4  11  25  41  64 103 136 182 230 299 360 429
#     4  12  22  40  66  98 150 172 232 302 372 426
#
# _framework density 22.817858999999999
#
# number of rings (size 3 to 8) (size 9 to 14) (size 15 to 20)
#    0.000    1.231    3.846    4.154    0.000    3.077 
#    5.538    0.769    0.000    0.000    0.000    0.000 
#    0.000    0.000    0.000    0.000    0.000    0.000 
#
# Total GULP energy -144937.810020 kJ/mol
# GULP energy per Si atom -5574.531155 kJ/mol
# Density = 2.276592 g / cm^3
# Si number density = 22.817859 Si / 1000 Ang^3
#
#
#
# Elastic Constant Matrix: (Units=GPa)
#
#
# Indices 1 2 3 4 5 6 
#
# 1 221.9182 31.4687 55.9556 0.0000 -3.5162 0.0000
# 2 31.4687 80.7301 5.1041 0.0000 -3.1021 0.0000
# 3 55.9556 5.1041 42.8692 0.0000 12.7785 0.0000
# 4 0.0000 0.0000 0.0000 23.2722 0.0000 -8.8534
# 5 -3.5162 -3.1021 12.7785 0.0000 46.9290 0.0000
# 6 0.0000 0.0000 0.0000 -8.8534 0.0000 15.3537
#
#
#
# Elastic Compliance Matrix: (Units=1/GPa)
#
#
# Indices 1 2 3 4 5 6 
#
# 1 0.007520 -0.002138 -0.010542 0.000000 0.003293 0.000000
# 2 -0.002138 0.013167 0.001101 0.000000 0.000410 0.000000
# 3 -0.010542 0.001101 0.040453 0.000000 -0.011732 0.000000
# 4 0.000000 0.000000 0.000000 0.055045 0.000000 0.031740
# 5 0.003293 0.000410 -0.011732 0.000000 0.024777 0.000000
# 6 0.000000 0.000000 0.000000 0.031740 0.000000 0.083433
#
#
# Mechanical properties :
#
#
# Convention : Reuss Voigt Hill
#
# Bulk Modulus (GPa) = 26.32924 58.95269 42.64097
# Shear Modulus (GPa) = 19.21504 33.97694 26.59599
#
# Velocity S-wave (km/s) = 2.90505 3.86301 3.41776
# Velocity P-wave (km/s) = 4.77665 6.76679 5.85687
#
# Compressibility (1/GPa) = 0.03798059
#
# Stress axis : x y z
#
# Youngs Moduli (GPa) = 132.98505 75.94996 24.72012
#
# Poissons Ratio (x) = 0.16239 0.26060
# Poissons Ratio (y) = 0.28434 -0.02721
# Poissons Ratio (z) = 1.40193 -0.08361
#
# Static dielectric constant tensor:
#      x y z
#    x 2.061540 0.000000 0.189390 
#    y 0.000000 1.660020 0.000000 
#    z 0.189390 0.000000 2.040710 
# 
# From -- ./inp_files/98446.got.cif
#   From: 2010.05.17/outbox.cif.g08.bks.cpg/sg15_50_cif.got.tgz:98446.got - 2010.06.03 18:47:42.
