data_PCOD9292484
_publ_section_title
;
Structure prediction by ZEFSAII (Michael W. Deem and Ramdas Pophale) SiO2 
 PCOD9292484
Probable space group: C 2/C
;
_chemical_formula_sum "Si O2"
_cell_formula_units_Z 40
_cell_length_a 15.716788
_cell_length_b 17.436422
_cell_length_c 10.271983
_cell_angle_alpha 90.000000
_cell_angle_beta 37.350599
_cell_angle_gamma 90.000000
_cell_volume 1707.822649
_symmetry_space_group_name_H-M "C 2/C"
_symmetry_group_IT_number 15
_symmetry_cell_setting 'monoclinic'
loop_
_space_group_symop_operation_xyz
x,y,z
-x,y,1/2-z
-x,-y,-z
x,-y,1/2+z
1/2+x,1/2+y,z
1/2-x,1/2+y,1/2-z
1/2-x,1/2-y,-z
1/2+x,1/2-y,1/2+z
loop_
_atom_site_type_symbol
_atom_site_label
_atom_site_fract_x
_atom_site_fract_y
_atom_site_fract_z
Si Si1 0.500000 0.424959 0.750000
Si Si2 0.000000 0.496321 0.750000
Si Si3 0.244677 0.295292 0.643721
Si Si4 0.992463 0.364174 0.402389
Si Si5 0.790287 0.937746 0.451702
Si Si6 0.226266 0.854712 0.303730
O O1 0.618456 0.485487 0.654893
O O2 0.581364 0.369073 0.553269
O O3 0.074861 0.554143 0.557195
O O4 0.122972 0.450729 0.668618
O O5 0.250000 0.250000 0.500000
O O6 0.329622 0.373719 0.513010
O O7 0.280896 0.231123 0.705606
O O8 0.094006 0.320809 0.883231
O O9 0.146159 0.385597 0.265451
O O10 0.000000 0.323906 0.250000
O O11 0.796719 0.898635 0.303102
#
# Coordination Sequence:
#
# PCOD9292484 Si02
#       6
#     4   4   8   8   8   8
#     4  12  24  43  71 114 144 190 246 318 370 433
#     4  10  22  43  73 106 134 182 248 302 360 433
#     4  10  25  45  68 102 145 196 240 300 365 448
#     4  10  23  44  72 106 140 191 242 303 368 440
#     4  11  24  44  74 105 142 191 247 308 365 440
#     4  11  25  46  70 103 153 192 244 299 382 443
#
# _framework density 23.421635999999999
#
# number of rings (size 3 to 8) (size 9 to 14) (size 15 to 20)
#    0.600    0.800    2.000    1.800    4.200    8.000 
#    7.200    1.000    0.000    0.000    0.000    0.000 
#    0.000    0.000    0.000    0.000    0.000    0.000 
#
# Total GULP energy -111445.986353 kJ/mol
# GULP energy per Si atom -5572.299318 kJ/mol
# Density = 2.336833 g / cm^3
# Si number density = 23.421636 Si / 1000 Ang^3
#
#
#
# Elastic Constant Matrix: (Units=GPa)
#
#
# Indices 1 2 3 4 5 6 
#
# 1 71.2322 33.2270 40.2358 0.0000 0.6898 0.0000
# 2 33.2270 68.3147 31.1195 0.0000 21.6366 0.0000
# 3 40.2358 31.1195 126.8557 0.0001 29.5104 0.0001
# 4 0.0000 0.0000 0.0001 65.1022 0.0000 -12.1407
# 5 0.6898 21.6366 29.5104 0.0000 27.0520 0.0000
# 6 0.0000 0.0000 0.0001 -12.1407 0.0000 27.4396
#
#
#
# Elastic Compliance Matrix: (Units=1/GPa)
#
#
# Indices 1 2 3 4 5 6 
#
# 1 0.026712 -0.015652 -0.009898 0.000000 0.022636 0.000000
# 2 -0.015652 0.029008 0.004225 0.000000 -0.027411 0.000000
# 3 -0.009898 0.004225 0.014357 0.000000 -0.018788 0.000000
# 4 0.000000 0.000000 0.000000 0.016742 0.000000 0.007408
# 5 0.022636 -0.027411 -0.018788 0.000000 0.078808 0.000000
# 6 0.000000 0.000000 0.000000 0.007408 0.000000 0.039721
#
#
# Mechanical properties :
#
#
# Convention : Reuss Voigt Hill
#
# Bulk Modulus (GPa) = 36.46246 52.84080 44.65163
# Shear Modulus (GPa) = 19.44465 34.70677 27.07571
#
# Velocity S-wave (km/s) = 2.88445 3.85362 3.40371
# Velocity P-wave (km/s) = 5.16672 6.51231 5.87815
#
# Compressibility (1/GPa) = 0.02742546
#
# Stress axis : x y z
#
# Youngs Moduli (GPa) = 37.43691 34.47327 69.65358
#
# Poissons Ratio (x) = 0.53958 0.68946
# Poissons Ratio (y) = 0.58597 -0.29429
# Poissons Ratio (z) = 0.37056 -0.14565
#
# Static dielectric constant tensor:
#      x y z
#    x 1.854460 0.000000 0.054240 
#    y 0.000000 1.948260 0.000000 
#    z 0.054240 0.000000 1.972420 
# 
# From -- ./inp_files/106847.got.cif
#   From: 2010.05.17/outbox.cif.g08.bks.cpg/sg15_54_cif.got.tgz:106847.got - 2010.06.03 18:47:42.
